0:0
     RDKit          3D

 53 56  0  0  0  0  0  0  0  0999 V2000
   57.8810   21.5380   43.7520 C   0  0  0  0  0  0  0  0  0  0  0  0
   56.9090   22.6670   43.9380 C   0  0  0  0  0  0  0  0  0  0  0  0
   55.7930   22.5970   43.3560 O   0  0  0  0  0  0  0  0  0  0  0  0
   57.2300   23.8490   44.7840 C   0  0  0  0  0  0  0  0  0  0  0  0
   58.4050   23.8610   45.5600 C   0  0  0  0  0  0  0  0  0  0  0  0
   58.7330   24.9760   46.3340 C   0  0  0  0  0  0  0  0  0  0  0  0
   57.8890   26.0880   46.3560 C   0  0  0  0  0  0  0  0  0  0  0  0
   56.7030   26.0890   45.6190 C   0  0  0  0  0  0  0  0  0  0  0  0
   55.8810   27.2640   45.6290 N   0  0  0  0  0  0  0  0  0  0  0  0
   56.2660   28.5470   45.1220 C   0  0  0  0  0  0  0  0  0  0  0  0
   55.3960   29.4260   44.8770 O   0  0  0  0  0  0  0  0  0  0  0  0
   57.7090   28.8280   44.8490 C   0  0  0  0  0  0  0  0  0  0  0  0
   58.0730   30.1420   45.4170 N   0  0  0  0  0  0  0  0  0  0  0  0
   58.5640   30.2310   46.6970 C   0  0  0  0  0  0  0  0  0  0  0  0
   58.6630   29.2010   47.4200 O   0  0  0  0  0  0  0  0  0  0  0  0
   58.9590   31.4290   47.2050 N   0  0  0  0  0  0  0  0  0  0  0  0
   58.8990   32.5700   46.4630 C   0  0  0  0  0  0  0  0  0  0  0  0
   59.3400   33.8010   46.9940 C   0  0  0  0  0  0  0  0  0  0  0  0
   59.8220   33.8560   48.3110 O   0  0  0  0  0  0  0  0  0  0  0  0
   61.1490   33.6140   48.6990 C   0  0  0  0  0  0  0  0  0  0  0  0
   62.0170   33.0130   47.7830 C   0  0  0  0  0  0  0  0  0  0  0  0
   63.3500   32.7760   48.1240 C   0  0  0  0  0  0  0  0  0  0  0  0
   63.8360   33.1450   49.3830 C   0  0  0  0  0  0  0  0  0  0  0  0
   65.5300   32.8340   49.7570 Cl  0  0  0  0  0  0  0  0  0  0  0  0
   62.9760   33.7610   50.3140 C   0  0  0  0  0  0  0  0  0  0  0  0
   63.4820   34.1900   51.6640 C   0  0  0  0  0  0  0  0  0  0  0  0
   61.6370   34.0020   49.9600 C   0  0  0  0  0  0  0  0  0  0  0  0
   59.2550   34.9640   46.2100 C   0  0  0  0  0  0  0  0  0  0  0  0
   58.7720   34.9020   44.9030 C   0  0  0  0  0  0  0  0  0  0  0  0
   58.3560   33.6830   44.3660 C   0  0  0  0  0  0  0  0  0  0  0  0
   58.4110   32.5100   45.1410 C   0  0  0  0  0  0  0  0  0  0  0  0
   58.0030   31.2660   44.6330 C   0  0  0  0  0  0  0  0  0  0  0  0
   57.5790   31.1840   43.4460 O   0  0  0  0  0  0  0  0  0  0  0  0
   56.3840   24.9760   44.8210 C   0  0  0  0  0  0  0  0  0  0  0  0
   58.2022   21.1649   44.7357 H   0  0  0  0  0  0  0  0  0  0  0  0
   57.3958   20.7250   43.1920 H   0  0  0  0  0  0  0  0  0  0  0  0
   58.7571   21.8969   43.1920 H   0  0  0  0  0  0  0  0  0  0  0  0
   59.0700   22.9848   45.5564 H   0  0  0  0  0  0  0  0  0  0  0  0
   59.6588   24.9783   46.9280 H   0  0  0  0  0  0  0  0  0  0  0  0
   58.1599   26.9683   46.9574 H   0  0  0  0  0  0  0  0  0  0  0  0
   58.3284   28.0450   45.3109 H   0  0  0  0  0  0  0  0  0  0  0  0
   57.8802   28.8391   43.7625 H   0  0  0  0  0  0  0  0  0  0  0  0
   59.3270   31.4560   48.1830 H   0  0  0  0  0  0  0  0  0  0  0  0
   61.6477   32.7251   46.7876 H   0  0  0  0  0  0  0  0  0  0  0  0
   64.0226   32.2960   47.3979 H   0  0  0  0  0  0  0  0  0  0  0  0
   62.8954   33.6926   52.4505 H   0  0  0  0  0  0  0  0  0  0  0  0
   64.5411   33.9105   51.7644 H   0  0  0  0  0  0  0  0  0  0  0  0
   63.3795   35.2806   51.7644 H   0  0  0  0  0  0  0  0  0  0  0  0
   60.9649   34.4984   50.6754 H   0  0  0  0  0  0  0  0  0  0  0  0
   59.5716   35.9301   46.6300 H   0  0  0  0  0  0  0  0  0  0  0  0
   58.7188   35.8164   44.2939 H   0  0  0  0  0  0  0  0  0  0  0  0
   57.9833   33.6390   43.3320 H   0  0  0  0  0  0  0  0  0  0  0  0
   55.4636   24.9849   44.2186 H   0  0  0  0  0  0  0  0  0  0  0  0
  1  2  1  0
  2  3  2  0
  2  4  1  0
  4  5  2  0
  5  6  1  0
  6  7  2  0
  7  8  1  0
  8  9  1  0
  9 10  1  0
 10 11  2  0
 10 12  1  0
 12 13  1  0
 13 14  1  0
 14 15  2  0
 14 16  1  0
 16 17  1  0
 17 18  2  0
 18 19  1  0
 19 20  1  0
 20 21  2  0
 21 22  1  0
 22 23  2  0
 23 24  1  0
 23 25  1  0
 25 26  1  0
 25 27  2  0
 18 28  1  0
 28 29  2  0
 29 30  1  0
 30 31  2  0
 31 32  1  0
 32 33  2  0
  8 34  2  0
 34  4  1  0
 32 13  1  0
 31 17  1  0
 27 20  1  0
  1 35  1  0
  1 36  1  0
  1 37  1  0
  5 38  1  0
  6 39  1  0
  7 40  1  0
 12 41  1  0
 12 42  1  0
 16 43  1  0
 21 44  1  0
 22 45  1  0
 26 46  1  0
 26 47  1  0
 26 48  1  0
 27 49  1  0
 28 50  1  0
 29 51  1  0
 30 52  1  0
 34 53  1  0
M  CHG  1   9  -1
M  END
>  <UniqueID>  (1) 
1

>  <SMILES>  (1) 
CC(=O)c1cccc([N-]C(=O)Cn2c(=O)[nH]c3c(Oc4ccc(Cl)c(C)c4)cccc3c2=O)c1

>  <Energy>  (1) 
75.99819919013356

>  <Genealogy>  (1) 
CC(=O)c1cccc([N-]C(=O)Cn2c(=O)[nH]c3c(Oc4ccc(Cl)c(C)c4)cccc3c2=O)c1 (protonated)
CC(=O)c1cccc([N-]C(=O)Cn2c(=O)[nH]c3c(Oc4ccc(Cl)c(C)c4)cccc3c2=O)c1 (3D coordinates assigned)
CC(=O)c1cccc([N-]C(=O)Cn2c(=O)[nH]c3c(Oc4ccc(Cl)c(C)c4)cccc3c2=O)c1 (optimized conformer: 75.99819919013356 kcal/mol)

>  <smiles>  (1) 
CC(=O)c1cccc(NC(=O)Cn2c(=O)[nH]c3c(Oc4ccc(Cl)c(C)c4)cccc3c2=O)c1

>  <score_type>  (1) 
oracle

>  <origin>  (1) 
adg

>  <m_score__min__energy>  (1) 
-12.4

>  <m_primary>  (1) 
energy

$$$$
1:0
     RDKit          3D

 59 62  0  0  0  0  0  0  0  0999 V2000
   57.0593   33.1891   47.4145 H   0  0  0  0  0  0  0  0  0  0  0  0
   58.1530   33.3030   47.3840 C   0  0  0  0  0  0  0  0  0  0  0  0
   58.9080   33.0720   48.5360 C   0  0  0  0  0  0  0  0  0  0  0  0
   58.4035   32.7853   49.4705 H   0  0  0  0  0  0  0  0  0  0  0  0
   60.3080   33.2030   48.5110 C   0  0  0  0  0  0  0  0  0  0  0  0
   61.0900   32.8290   49.6670 N   0  0  0  0  0  0  0  0  0  0  0  0
   61.5350   31.4380   49.8330 C   0  0  0  0  0  0  0  0  0  0  0  0
   61.4503   30.9133   48.8699 H   0  0  0  0  0  0  0  0  0  0  0  0
   60.9015   30.9491   50.5877 H   0  0  0  0  0  0  0  0  0  0  0  0
   63.0020   31.3940   50.3080 C   0  0  0  0  0  0  0  0  0  0  0  0
   63.4745   30.4696   49.9444 H   0  0  0  0  0  0  0  0  0  0  0  0
   63.0252   31.4189   51.4075 H   0  0  0  0  0  0  0  0  0  0  0  0
   63.7420   32.5610   49.7820 N   0  0  0  0  0  0  0  0  0  0  0  0
   63.5950   32.5870   48.7460 H   0  0  0  0  0  0  0  0  0  0  0  0
   65.1610   32.4110   50.0480 C   0  0  0  0  0  0  0  0  0  0  0  0
   65.9750   33.0430   49.3880 O   0  0  0  0  0  0  0  0  0  0  0  0
   65.6680   31.5010   51.1480 C   0  0  0  0  0  0  0  0  0  0  0  0
   65.0324   30.6033   51.1598 H   0  0  0  0  0  0  0  0  0  0  0  0
   67.1060   31.0500   50.8740 C   0  0  0  0  0  0  0  0  0  0  0  0
   67.6272   30.8865   51.8288 H   0  0  0  0  0  0  0  0  0  0  0  0
   67.0929   30.1128   50.2982 H   0  0  0  0  0  0  0  0  0  0  0  0
   67.6305   31.8268   50.2982 H   0  0  0  0  0  0  0  0  0  0  0  0
   65.5510   32.1740   52.5200 C   0  0  0  0  0  0  0  0  0  0  0  0
   65.6820   31.4203   53.3105 H   0  0  0  0  0  0  0  0  0  0  0  0
   66.3284   32.9462   52.6171 H   0  0  0  0  0  0  0  0  0  0  0  0
   64.5586   32.6385   52.6171 H   0  0  0  0  0  0  0  0  0  0  0  0
   63.2320   33.8430   50.3420 C   0  0  0  0  0  0  0  0  0  0  0  0
   63.4912   34.6581   49.6504 H   0  0  0  0  0  0  0  0  0  0  0  0
   63.6980   33.9862   51.3281 H   0  0  0  0  0  0  0  0  0  0  0  0
   61.7020   33.8320   50.5430 C   0  0  0  0  0  0  0  0  0  0  0  0
   61.2953   34.8248   50.3003 H   0  0  0  0  0  0  0  0  0  0  0  0
   61.4766   33.5832   51.5905 H   0  0  0  0  0  0  0  0  0  0  0  0
   60.9300   33.6190   47.3190 C   0  0  0  0  0  0  0  0  0  0  0  0
   62.0222   33.7468   47.2895 H   0  0  0  0  0  0  0  0  0  0  0  0
   60.1720   33.8710   46.1730 C   0  0  0  0  0  0  0  0  0  0  0  0
   60.6672   34.2209   45.2552 H   0  0  0  0  0  0  0  0  0  0  0  0
   58.7830   33.6800   46.1870 C   0  0  0  0  0  0  0  0  0  0  0  0
   58.0000   33.8310   44.9440 C   0  0  0  0  0  0  0  0  0  0  0  0
   57.6310   34.9800   44.5830 O   0  0  0  0  0  0  0  0  0  0  0  0
   57.6360   32.7010   44.1360 N   0  0  0  0  0  0  0  0  0  0  0  0
   57.6560   31.4610   44.5320 C   0  0  0  0  0  0  0  0  0  0  0  0
   58.7930   30.8110   44.8960 N   0  0  0  0  0  0  0  0  0  0  0  0
   58.3410   29.5870   45.1980 C   0  0  0  0  0  0  0  0  0  0  0  0
   59.0780   28.4950   45.6390 C   0  0  0  0  0  0  0  0  0  0  0  0
   60.1654   28.5656   45.7896 H   0  0  0  0  0  0  0  0  0  0  0  0
   58.3860   27.2970   45.8860 C   0  0  0  0  0  0  0  0  0  0  0  0
   58.9377   26.4098   46.2301 H   0  0  0  0  0  0  0  0  0  0  0  0
   56.9860   27.2220   45.6960 C   0  0  0  0  0  0  0  0  0  0  0  0
   56.1500   25.7060   46.0030 S   0  0  0  0  0  0  0  0  0  0  0  0
   56.4860   25.2190   47.3840 O   0  0  0  0  0  0  0  0  0  0  0  0
   54.6640   25.9030   45.9060 O   0  0  0  0  0  0  0  0  0  0  0  0
   56.6600   24.4970   44.8050 C   0  0  0  0  0  0  0  0  0  0  0  0
   57.0370   23.6032   45.3237 H   0  0  0  0  0  0  0  0  0  0  0  0
   55.8018   24.2206   44.1748 H   0  0  0  0  0  0  0  0  0  0  0  0
   57.4569   24.9187   44.1748 H   0  0  0  0  0  0  0  0  0  0  0  0
   56.2750   28.3550   45.2470 C   0  0  0  0  0  0  0  0  0  0  0  0
   55.1872   28.3173   45.0879 H   0  0  0  0  0  0  0  0  0  0  0  0
   56.9970   29.5230   45.0120 C   0  0  0  0  0  0  0  0  0  0  0  0
   56.5290   30.7050   44.5810 N   0  0  0  0  0  0  0  0  0  0  0  0
  1  2  1  0
  2  3  2  0
  3  4  1  0
  3  5  1  0
  5  6  1  0
  6  7  1  0
  7  8  1  0
  7  9  1  0
  7 10  1  0
 10 11  1  0
 10 12  1  0
 10 13  1  0
 13 14  1  0
 13 15  1  0
 15 16  2  0
 15 17  1  0
 17 18  1  0
 17 19  1  0
 19 20  1  0
 19 21  1  0
 19 22  1  0
 17 23  1  0
 23 24  1  0
 23 25  1  0
 23 26  1  0
 13 27  1  0
 27 28  1  0
 27 29  1  0
 27 30  1  0
 30 31  1  0
 30 32  1  0
  5 33  2  0
 33 34  1  0
 33 35  1  0
 35 36  1  0
 35 37  2  0
 37 38  1  0
 38 39  2  0
 38 40  1  0
 40 41  2  0
 41 42  1  0
 42 43  1  0
 43 44  2  0
 44 45  1  0
 44 46  1  0
 46 47  1  0
 46 48  2  0
 48 49  1  0
 49 50  2  0
 49 51  2  0
 49 52  1  0
 52 53  1  0
 52 54  1  0
 52 55  1  0
 48 56  1  0
 56 57  1  0
 56 58  2  0
 58 59  1  0
 37  2  1  0
 59 41  1  0
 30  6  1  0
 58 43  1  0
M  CHG  3  13   1  42  -1  59  -1
M  END
>  <UniqueID>  (2) 
2

>  <SMILES>  (2) 
CC(C)C(=O)[NH+]1CCN(c2ccc(C(=O)/N=c3\[n-]c4ccc(S(C)(=O)=O)cc4[n-]3)cc2)CC1

>  <Energy>  (2) 
108.66549196042111

>  <Genealogy>  (2) 
CC(C)C(=O)[NH+]1CCN(c2ccc(C(=O)N=c3[n-]c4ccc(S(C)(=O)=O)cc4[n-]3)cc2)CC1 (protonated)
CC(C)C(=O)[NH+]1CCN(c2ccc(C(=O)/N=c3\[n-]c4ccc(S(C)(=O)=O)cc4[n-]3)cc2)CC1 (cis-trans isomerization)
CC(C)C(=O)[NH+]1CCN(c2ccc(C(=O)/N=c3\[n-]c4ccc(S(C)(=O)=O)cc4[n-]3)cc2)CC1 (3D coordinates assigned)
CC(C)C(=O)[NH+]1CCN(c2ccc(C(=O)/N=c3\[n-]c4ccc(S(C)(=O)=O)cc4[n-]3)cc2)CC1 (nonaromatic ring conformer: 108.66549196042111 kcal/mol)

>  <smiles>  (2) 
CC(C)C(=O)N1CCN(c2ccc(C(=O)N=c3[nH]c4ccc(S(C)(=O)=O)cc4[nH]3)cc2)CC1

>  <score_type>  (2) 
oracle

>  <origin>  (2) 
adg

>  <m_score__min__energy>  (2) 
-11.279999999999999

>  <m_primary>  (2) 
energy

$$$$
2:0
     RDKit          3D

 22 23  0  0  0  0  0  0  0  0999 V2000
   58.5330   31.9360   45.9370 C   0  0  0  0  0  0  0  0  0  0  0  0
   57.9680   30.8140   45.5020 C   0  0  0  0  0  0  0  0  0  0  0  0
   56.6500   30.7020   45.2320 N   0  0  0  0  0  0  0  0  0  0  0  0
   56.3300   29.4510   44.8060 C   0  0  0  0  0  0  0  0  0  0  0  0
   55.1370   29.1440   44.5440 O   0  0  0  0  0  0  0  0  0  0  0  0
   57.4030   28.5520   44.7240 C   0  0  0  0  0  0  0  0  0  0  0  0
   57.4030   27.2600   44.3580 C   0  0  0  0  0  0  0  0  0  0  0  0
   57.3790   26.1200   45.2950 C   0  0  0  0  0  0  0  0  0  0  0  0
   58.5130   25.3030   45.4560 C   0  0  0  0  0  0  0  0  0  0  0  0
   58.5030   24.2570   46.3810 C   0  0  0  0  0  0  0  0  0  0  0  0
   57.3710   24.0290   47.1700 C   0  0  0  0  0  0  0  0  0  0  0  0
   57.3630   22.9880   48.0900 O   0  0  0  0  0  0  0  0  0  0  0  0
   56.2500   24.8540   47.0370 C   0  0  0  0  0  0  0  0  0  0  0  0
   56.2530   25.9030   46.1100 C   0  0  0  0  0  0  0  0  0  0  0  0
   55.1330   26.7190   45.9980 O   0  0  0  0  0  0  0  0  0  0  0  0
   58.7860   29.3700   45.2320 S   0  0  0  0  0  0  0  0  0  0  0  0
   59.6138   31.9648   46.1397 H   0  0  0  0  0  0  0  0  0  0  0  0
   57.9197   32.8355   46.0943 H   0  0  0  0  0  0  0  0  0  0  0  0
   57.4223   27.0349   43.2814 H   0  0  0  0  0  0  0  0  0  0  0  0
   59.4120   25.4892   44.8501 H   0  0  0  0  0  0  0  0  0  0  0  0
   59.3869   23.6113   46.4893 H   0  0  0  0  0  0  0  0  0  0  0  0
   55.3627   24.6782   47.6629 H   0  0  0  0  0  0  0  0  0  0  0  0
  1  2  2  0
  2  3  1  0
  3  4  1  0
  4  5  2  0
  4  6  1  0
  6  7  2  3
  7  8  1  0
  8  9  2  0
  9 10  1  0
 10 11  2  0
 11 12  1  0
 11 13  1  0
 13 14  2  0
 14 15  1  0
  6 16  1  0
 16  2  1  0
 14  8  1  0
  1 17  1  0
  1 18  1  0
  7 19  1  0
  9 20  1  0
 10 21  1  0
 13 22  1  0
M  CHG  3   3  -1  12  -1  15  -1
M  END
>  <UniqueID>  (3) 
3

>  <SMILES>  (3) 
C=c1[n-]c(=O)c(=Cc2ccc([O-])cc2[O-])s1

>  <Energy>  (3) 
61.49707578154353

>  <Genealogy>  (3) 
C=c1[n-]c(=O)c(=Cc2ccc([O-])cc2[O-])s1 (protonated)
C=c1[n-]c(=O)c(=Cc2ccc([O-])cc2[O-])s1 (3D coordinates assigned)
C=c1[n-]c(=O)c(=Cc2ccc([O-])cc2[O-])s1 (optimized conformer: 61.49707578154353 kcal/mol)

>  <smiles>  (3) 
C=c1[nH]c(=O)c(=Cc2ccc(O)cc2O)s1

>  <score_type>  (3) 
oracle

>  <origin>  (3) 
adg

>  <m_score__min__energy>  (3) 
-13.6

>  <m_primary>  (3) 
energy

$$$$
3:0
     RDKit          3D

 46 48  0  0  0  0  0  0  0  0999 V2000
   56.5410   21.9240   42.2500 C   0  0  0  0  0  0  0  0  0  0  0  0
   56.6850   22.6700   43.5430 C   0  0  0  0  0  0  0  0  0  0  0  0
   57.9150   22.6900   44.2090 C   0  0  0  0  0  0  0  0  0  0  0  0
   58.0640   23.4170   45.3890 C   0  0  0  0  0  0  0  0  0  0  0  0
   56.9940   24.1560   45.9200 C   0  0  0  0  0  0  0  0  0  0  0  0
   57.2040   24.8650   47.2040 C   0  0  0  0  0  0  0  0  0  0  0  0
   56.3030   24.8310   48.0830 O   0  0  0  0  0  0  0  0  0  0  0  0
   58.4450   25.5170   47.5100 N   0  0  0  0  0  0  0  0  0  0  0  0
   58.9040   26.7530   46.9420 C   0  0  0  0  0  0  0  0  0  0  0  0
   60.0410   26.7460   46.1260 C   0  0  0  0  0  0  0  0  0  0  0  0
   60.4870   27.9290   45.5290 C   0  0  0  0  0  0  0  0  0  0  0  0
   59.8010   29.1270   45.7470 C   0  0  0  0  0  0  0  0  0  0  0  0
   58.6680   29.1480   46.5800 C   0  0  0  0  0  0  0  0  0  0  0  0
   57.9520   30.3300   46.8150 O   0  0  0  0  0  0  0  0  0  0  0  0
   58.3190   31.5940   46.3310 C   0  0  0  0  0  0  0  0  0  0  0  0
   59.4160   32.2350   46.9190 C   0  0  0  0  0  0  0  0  0  0  0  0
   59.8230   33.4940   46.4780 C   0  0  0  0  0  0  0  0  0  0  0  0
   59.1230   34.1330   45.4530 C   0  0  0  0  0  0  0  0  0  0  0  0
   58.0110   33.5190   44.8730 C   0  0  0  0  0  0  0  0  0  0  0  0
   57.5930   32.2470   45.3080 C   0  0  0  0  0  0  0  0  0  0  0  0
   56.4150   31.6250   44.7720 N   0  0  0  0  0  0  0  0  0  0  0  0
   56.3300   30.0270   44.1100 S   0  0  0  0  0  0  0  0  0  0  0  0
   55.5190   28.9970   45.2350 N   0  0  0  0  0  0  0  0  0  0  0  0
   55.5650   30.0530   42.8160 O   0  0  0  0  0  0  0  0  0  0  0  0
   57.7170   29.4970   43.8760 O   0  0  0  0  0  0  0  0  0  0  0  0
   58.2470   27.9690   47.2010 C   0  0  0  0  0  0  0  0  0  0  0  0
   55.7500   24.1710   45.2320 C   0  0  0  0  0  0  0  0  0  0  0  0
   54.5990   25.0000   45.6690 C   0  0  0  0  0  0  0  0  0  0  0  0
   53.4550   24.4960   45.8160 O   0  0  0  0  0  0  0  0  0  0  0  0
   54.7840   26.3440   45.9750 O   0  0  0  0  0  0  0  0  0  0  0  0
   55.6140   23.4180   44.0510 C   0  0  0  0  0  0  0  0  0  0  0  0
   56.3363   20.8637   42.4593 H   0  0  0  0  0  0  0  0  0  0  0  0
   55.7087   22.3508   41.6712 H   0  0  0  0  0  0  0  0  0  0  0  0
   57.4724   22.0104   41.6712 H   0  0  0  0  0  0  0  0  0  0  0  0
   58.7684   22.1295   43.7997 H   0  0  0  0  0  0  0  0  0  0  0  0
   59.0322   23.4119   45.9111 H   0  0  0  0  0  0  0  0  0  0  0  0
   60.5859   25.8061   45.9537 H   0  0  0  0  0  0  0  0  0  0  0  0
   61.3797   27.9168   44.8864 H   0  0  0  0  0  0  0  0  0  0  0  0
   60.1474   30.0540   45.2668 H   0  0  0  0  0  0  0  0  0  0  0  0
   59.9619   31.7411   47.7363 H   0  0  0  0  0  0  0  0  0  0  0  0
   60.6947   33.9830   46.9374 H   0  0  0  0  0  0  0  0  0  0  0  0
   59.4484   35.1231   45.1012 H   0  0  0  0  0  0  0  0  0  0  0  0
   57.4587   34.0320   44.0719 H   0  0  0  0  0  0  0  0  0  0  0  0
   55.5400   28.0310   44.8370 H   0  0  0  0  0  0  0  0  0  0  0  0
   57.3957   27.9923   47.8973 H   0  0  0  0  0  0  0  0  0  0  0  0
   54.6518   23.4164   43.5180 H   0  0  0  0  0  0  0  0  0  0  0  0
  1  2  1  0
  2  3  2  0
  3  4  1  0
  4  5  2  0
  5  6  1  0
  6  7  2  0
  6  8  1  0
  8  9  1  0
  9 10  2  0
 10 11  1  0
 11 12  2  0
 12 13  1  0
 13 14  1  0
 14 15  1  0
 15 16  2  0
 16 17  1  0
 17 18  2  0
 18 19  1  0
 19 20  2  0
 20 21  1  0
 21 22  1  0
 22 23  1  0
 22 24  2  0
 22 25  2  0
 13 26  2  0
  5 27  1  0
 27 28  1  0
 28 29  2  0
 28 30  1  0
 27 31  2  0
 31  2  1  0
 26  9  1  0
 20 15  1  0
  1 32  1  0
  1 33  1  0
  1 34  1  0
  3 35  1  0
  4 36  1  0
 10 37  1  0
 11 38  1  0
 12 39  1  0
 16 40  1  0
 17 41  1  0
 18 42  1  0
 19 43  1  0
 23 44  1  0
 26 45  1  0
 31 46  1  0
M  CHG  4   8  -1  21  -1  23  -1  30  -1
M  END
>  <UniqueID>  (4) 
4

>  <SMILES>  (4) 
Cc1ccc(C(=O)[N-]c2cccc(Oc3ccccc3[N-]S([NH-])(=O)=O)c2)c(C(=O)[O-])c1

>  <Energy>  (4) 
67.96979897383454

>  <Genealogy>  (4) 
Cc1ccc(C(=O)[N-]c2cccc(Oc3ccccc3[N-]S([NH-])(=O)=O)c2)c(C(=O)[O-])c1 (protonated)
Cc1ccc(C(=O)[N-]c2cccc(Oc3ccccc3[N-]S([NH-])(=O)=O)c2)c(C(=O)[O-])c1 (3D coordinates assigned)
Cc1ccc(C(=O)[N-]c2cccc(Oc3ccccc3[N-]S([NH-])(=O)=O)c2)c(C(=O)[O-])c1 (optimized conformer: 67.96979897383454 kcal/mol)

>  <smiles>  (4) 
Cc1ccc(C(=O)Nc2cccc(Oc3ccccc3NS(N)(=O)=O)c2)c(C(=O)O)c1

>  <score_type>  (4) 
oracle

>  <origin>  (4) 
adg

>  <m_score__min__energy>  (4) 
-17.370000000000001

>  <m_primary>  (4) 
energy

$$$$
4:0
     RDKit          3D

 51 54  0  0  0  0  0  0  0  0999 V2000
   55.8290   29.5100   44.8410 O   0  0  0  0  0  0  0  0  0  0  0  0
   56.8200   30.0070   44.2410 C   0  0  0  0  0  0  0  0  0  0  0  0
   57.0190   31.4910   44.2580 C   0  0  0  0  0  0  0  0  0  0  0  0
   57.9020   31.8740   45.4060 C   0  0  0  0  0  0  0  0  0  0  0  0
   58.1430   31.1200   46.5520 C   0  0  0  0  0  0  0  0  0  0  0  0
   58.9180   31.8140   47.4170 N   0  0  0  0  0  0  0  0  0  0  0  0
   59.1530   33.0050   46.8350 C   0  0  0  0  0  0  0  0  0  0  0  0
   59.8670   34.0790   47.3660 C   0  0  0  0  0  0  0  0  0  0  0  0
   59.9570   35.2550   46.5980 C   0  0  0  0  0  0  0  0  0  0  0  0
   59.3310   35.3350   45.3350 C   0  0  0  0  0  0  0  0  0  0  0  0
   58.6090   34.2390   44.8290 C   0  0  0  0  0  0  0  0  0  0  0  0
   58.5440   33.0820   45.6100 C   0  0  0  0  0  0  0  0  0  0  0  0
   57.7730   29.1590   43.5840 N   0  0  0  0  0  0  0  0  0  0  0  0
   57.7530   27.7010   43.7010 C   0  0  0  0  0  0  0  0  0  0  0  0
   57.7640   27.2850   45.1480 C   0  0  0  0  0  0  0  0  0  0  0  0
   56.9640   26.3870   45.5340 O   0  0  0  0  0  0  0  0  0  0  0  0
   58.7210   27.8750   46.1160 C   0  0  0  0  0  0  0  0  0  0  0  0
   59.8500   28.5960   45.6880 C   0  0  0  0  0  0  0  0  0  0  0  0
   60.7260   29.1500   46.6240 C   0  0  0  0  0  0  0  0  0  0  0  0
   60.4740   28.9820   47.9850 C   0  0  0  0  0  0  0  0  0  0  0  0
   61.3460   29.5500   48.9210 O   0  0  0  0  0  0  0  0  0  0  0  0
   61.1010   30.7970   49.5690 C   0  0  0  0  0  0  0  0  0  0  0  0
   61.9640   31.8810   48.9690 C   0  0  0  0  0  0  0  0  0  0  0  0
   62.5470   31.6480   47.7090 C   0  0  0  0  0  0  0  0  0  0  0  0
   63.3400   32.6250   47.1000 C   0  0  0  0  0  0  0  0  0  0  0  0
   63.5620   33.8440   47.7420 C   0  0  0  0  0  0  0  0  0  0  0  0
   62.9940   34.0890   48.9940 C   0  0  0  0  0  0  0  0  0  0  0  0
   62.1970   33.1190   49.6160 C   0  0  0  0  0  0  0  0  0  0  0  0
   61.4660   33.5490   51.3400 Br  0  0  0  0  0  0  0  0  0  0  0  0
   59.3840   28.2720   48.3860 N   0  0  0  0  0  0  0  0  0  0  0  0
   58.5180   27.7190   47.4980 C   0  0  0  0  0  0  0  0  0  0  0  0
   57.4892   31.8067   43.3150 H   0  0  0  0  0  0  0  0  0  0  0  0
   56.0432   31.9859   44.3709 H   0  0  0  0  0  0  0  0  0  0  0  0
   57.7580   30.1048   46.7286 H   0  0  0  0  0  0  0  0  0  0  0  0
   59.2390   31.4980   48.3580 H   0  0  0  0  0  0  0  0  0  0  0  0
   60.3449   34.0091   48.3543 H   0  0  0  0  0  0  0  0  0  0  0  0
   60.5191   36.1180   46.9845 H   0  0  0  0  0  0  0  0  0  0  0  0
   59.4083   36.2593   44.7436 H   0  0  0  0  0  0  0  0  0  0  0  0
   58.1113   34.2910   43.8494 H   0  0  0  0  0  0  0  0  0  0  0  0
   58.5900   29.5990   43.0980 H   0  0  0  0  0  0  0  0  0  0  0  0
   56.8433   27.3122   43.2200 H   0  0  0  0  0  0  0  0  0  0  0  0
   58.6480   27.2935   43.2082 H   0  0  0  0  0  0  0  0  0  0  0  0
   60.0437   28.7240   44.6128 H   0  0  0  0  0  0  0  0  0  0  0  0
   61.6087   29.7150   46.2898 H   0  0  0  0  0  0  0  0  0  0  0  0
   60.0419   31.0674   49.4460 H   0  0  0  0  0  0  0  0  0  0  0  0
   61.3444   30.6977   50.6371 H   0  0  0  0  0  0  0  0  0  0  0  0
   62.3770   30.6883   47.1990 H   0  0  0  0  0  0  0  0  0  0  0  0
   63.7891   32.4328   46.1144 H   0  0  0  0  0  0  0  0  0  0  0  0
   64.1850   34.6127   47.2614 H   0  0  0  0  0  0  0  0  0  0  0  0
   63.1738   35.0512   49.4958 H   0  0  0  0  0  0  0  0  0  0  0  0
   57.6528   27.1457   47.8624 H   0  0  0  0  0  0  0  0  0  0  0  0
  1  2  2  0
  2  3  1  0
  3  4  1  0
  4  5  2  0
  5  6  1  0
  6  7  1  0
  7  8  2  0
  8  9  1  0
  9 10  2  0
 10 11  1  0
 11 12  2  0
  2 13  1  0
 13 14  1  0
 14 15  1  0
 15 16  2  0
 15 17  1  0
 17 18  2  0
 18 19  1  0
 19 20  2  0
 20 21  1  0
 21 22  1  0
 22 23  1  0
 23 24  2  0
 24 25  1  0
 25 26  2  0
 26 27  1  0
 27 28  2  0
 28 29  1  0
 20 30  1  0
 30 31  2  0
 12  4  1  0
 31 17  1  0
 12  7  1  0
 28 23  1  0
  3 32  1  0
  3 33  1  0
  5 34  1  0
  6 35  1  0
  8 36  1  0
  9 37  1  0
 10 38  1  0
 11 39  1  0
 13 40  1  0
 14 41  1  0
 14 42  1  0
 18 43  1  0
 19 44  1  0
 22 45  1  0
 22 46  1  0
 24 47  1  0
 25 48  1  0
 26 49  1  0
 27 50  1  0
 31 51  1  0
M  END
>  <UniqueID>  (5) 
5

>  <SMILES>  (5) 
O=C(Cc1c[nH]c2ccccc12)NCC(=O)c1ccc(OCc2ccccc2Br)nc1

>  <Energy>  (5) 
87.12115240607453

>  <Genealogy>  (5) 
O=C(Cc1c[nH]c2ccccc12)NCC(=O)c1ccc(OCc2ccccc2Br)nc1 (3D coordinates assigned)
O=C(Cc1c[nH]c2ccccc12)NCC(=O)c1ccc(OCc2ccccc2Br)nc1 (optimized conformer: 87.12115240607453 kcal/mol)

>  <smiles>  (5) 
O=C(Cc1c[nH]c2ccccc12)NCC(=O)c1ccc(OCc2ccccc2Br)nc1

>  <score_type>  (5) 
oracle

>  <origin>  (5) 
adg

>  <m_score__min__energy>  (5) 
-9.2699999999999996

>  <m_primary>  (5) 
energy

$$$$
5:0
     RDKit          3D

 46 48  0  0  0  0  0  0  0  0999 V2000
   63.0160   34.1670   51.1930 C   0  0  0  0  0  0  0  0  0  0  0  0
   62.8840   33.8680   49.7220 C   0  0  0  0  0  0  0  0  0  0  0  0
   61.6890   34.2150   49.0660 C   0  0  0  0  0  0  0  0  0  0  0  0
   61.4950   33.9110   47.7090 C   0  0  0  0  0  0  0  0  0  0  0  0
   60.2310   34.2890   47.0330 C   0  0  0  0  0  0  0  0  0  0  0  0
   60.0290   35.4990   46.7380 O   0  0  0  0  0  0  0  0  0  0  0  0
   59.2410   33.3010   46.6890 N   0  0  0  0  0  0  0  0  0  0  0  0
   58.7910   32.3190   47.6820 C   0  0  0  0  0  0  0  0  0  0  0  0
   58.5790   30.9610   47.0080 C   0  0  0  0  0  0  0  0  0  0  0  0
   57.7740   31.0780   45.7810 N   0  0  0  0  0  0  0  0  0  0  0  0
   57.1760   29.9050   45.1840 C   0  0  0  0  0  0  0  0  0  0  0  0
   56.1380   30.0280   44.4760 O   0  0  0  0  0  0  0  0  0  0  0  0
   57.7370   28.5180   45.4030 C   0  0  2  0  0  0  0  0  0  0  0  0
   58.1850   27.8750   44.0990 C   0  0  0  0  0  0  0  0  0  0  0  0
   57.9830   26.4160   44.3750 C   0  0  0  0  0  0  0  0  0  0  0  0
   56.8850   26.4080   45.4270 C   0  0  0  0  0  0  0  0  0  0  0  0
   56.7540   27.6970   45.9920 O   0  0  0  0  0  0  0  0  0  0  0  0
   57.3860   32.4100   45.2870 C   0  0  0  0  0  0  0  0  0  0  0  0
   58.5560   33.3980   45.3920 C   0  0  0  0  0  0  0  0  0  0  0  0
   62.5230   33.2800   46.9960 C   0  0  0  0  0  0  0  0  0  0  0  0
   63.7200   32.9480   47.6300 C   0  0  0  0  0  0  0  0  0  0  0  0
   63.9270   33.2470   48.9890 C   0  0  0  0  0  0  0  0  0  0  0  0
   65.1890   32.9160   49.5990 N   0  0  0  0  0  0  0  0  0  0  0  0
   65.8910   33.8110   50.1130 O   0  0  0  0  0  0  0  0  0  0  0  0
   65.5580   31.6020   49.7830 O   0  0  0  0  0  0  0  0  0  0  0  0
   62.6392   33.3136   51.7759 H   0  0  0  0  0  0  0  0  0  0  0  0
   64.0742   34.3401   51.4385 H   0  0  0  0  0  0  0  0  0  0  0  0
   62.4309   35.0656   51.4385 H   0  0  0  0  0  0  0  0  0  0  0  0
   60.8948   34.7321   49.6244 H   0  0  0  0  0  0  0  0  0  0  0  0
   59.5524   32.2209   48.4698 H   0  0  0  0  0  0  0  0  0  0  0  0
   57.8423   32.6575   48.1240 H   0  0  0  0  0  0  0  0  0  0  0  0
   59.5598   30.5344   46.7508 H   0  0  0  0  0  0  0  0  0  0  0  0
   58.0369   30.3118   47.7113 H   0  0  0  0  0  0  0  0  0  0  0  0
   58.6114   28.6172   46.0630 H   0  0  0  0  0  0  0  0  0  0  0  0
   57.5636   28.2104   43.2556 H   0  0  0  0  0  0  0  0  0  0  0  0
   59.2164   28.1302   43.8142 H   0  0  0  0  0  0  0  0  0  0  0  0
   57.6628   25.8838   43.4671 H   0  0  0  0  0  0  0  0  0  0  0  0
   58.9012   25.9095   44.7071 H   0  0  0  0  0  0  0  0  0  0  0  0
   55.9332   26.1158   44.9593 H   0  0  0  0  0  0  0  0  0  0  0  0
   57.1451   25.6893   46.2181 H   0  0  0  0  0  0  0  0  0  0  0  0
   57.0782   32.3276   44.2342 H   0  0  0  0  0  0  0  0  0  0  0  0
   56.5552   32.7840   45.9033 H   0  0  0  0  0  0  0  0  0  0  0  0
   59.2782   33.1803   44.5913 H   0  0  0  0  0  0  0  0  0  0  0  0
   58.1517   34.4164   45.2955 H   0  0  0  0  0  0  0  0  0  0  0  0
   62.3851   33.0452   45.9302 H   0  0  0  0  0  0  0  0  0  0  0  0
   64.5141   32.4448   47.0589 H   0  0  0  0  0  0  0  0  0  0  0  0
  1  2  1  0
  2  3  2  0
  3  4  1  0
  4  5  1  0
  5  6  2  0
  5  7  1  0
  7  8  1  0
  8  9  1  0
  9 10  1  0
 10 11  1  0
 11 12  2  0
 11 13  1  0
 13 14  1  0
 14 15  1  0
 15 16  1  0
 16 17  1  0
 10 18  1  0
 18 19  1  0
  4 20  2  0
 20 21  1  0
 21 22  2  0
 22 23  1  0
 23 24  2  0
 23 25  1  0
 22  2  1  0
 19  7  1  0
 17 13  1  0
  1 26  1  0
  1 27  1  0
  1 28  1  0
  3 29  1  0
  8 30  1  0
  8 31  1  0
  9 32  1  0
  9 33  1  0
 13 34  1  1
 14 35  1  0
 14 36  1  0
 15 37  1  0
 15 38  1  0
 16 39  1  0
 16 40  1  0
 18 41  1  0
 18 42  1  0
 19 43  1  0
 19 44  1  0
 20 45  1  0
 21 46  1  0
M  CHG  2  23   1  25  -1
M  END
>  <UniqueID>  (6) 
6

>  <SMILES>  (6) 
Cc1cc(C(=O)N2CCN(C(=O)[C@@H]3CCCO3)CC2)ccc1[N+](=O)[O-]

>  <Energy>  (6) 
57.277630789097486

>  <Genealogy>  (6) 
Cc1cc(C(=O)N2CCN(C(=O)[C@@H]3CCCO3)CC2)ccc1[N+](=O)[O-] (chirality)
Cc1cc(C(=O)N2CCN(C(=O)[C@@H]3CCCO3)CC2)ccc1[N+](=O)[O-] (3D coordinates assigned)
Cc1cc(C(=O)N2CCN(C(=O)[C@@H]3CCCO3)CC2)ccc1[N+](=O)[O-] (nonaromatic ring conformer: 57.277630789097486 kcal/mol)

>  <smiles>  (6) 
Cc1cc(C(=O)N2CCN(C(=O)C3CCCO3)CC2)ccc1[N+](=O)[O-]

>  <score_type>  (6) 
oracle

>  <origin>  (6) 
adg

>  <m_score__min__energy>  (6) 
-8.2699999999999996

>  <m_primary>  (6) 
energy

$$$$
6:0
     RDKit          3D

 62 65  0  0  0  0  0  0  0  0999 V2000
   55.6220   30.6220   52.4250 C   0  0  0  0  0  0  0  0  0  0  0  0
   57.0920   30.4710   52.0480 C   0  0  0  0  0  0  0  0  0  0  0  0
   57.4030   31.2590   50.9000 O   0  0  0  0  0  0  0  0  0  0  0  0
   58.5290   31.0990   50.0730 C   0  0  0  0  0  0  0  0  0  0  0  0
   58.8580   29.8670   49.4730 C   0  0  0  0  0  0  0  0  0  0  0  0
   59.9910   29.7510   48.6520 C   0  0  0  0  0  0  0  0  0  0  0  0
   60.3810   28.4600   48.0420 C   0  0  0  0  0  0  0  0  0  0  0  0
   59.6830   27.8570   47.0640 C   0  0  0  0  0  0  0  0  0  0  0  0
   59.6750   26.4650   46.9610 O   0  0  0  0  0  0  0  0  0  0  0  0
   58.9240   25.7880   45.9960 C   0  0  0  0  0  0  0  0  0  0  0  0
   58.9160   24.3890   46.0080 C   0  0  0  0  0  0  0  0  0  0  0  0
   58.1650   23.6790   45.0710 C   0  0  0  0  0  0  0  0  0  0  0  0
   57.4120   24.3660   44.1190 C   0  0  0  0  0  0  0  0  0  0  0  0
   57.4120   25.7620   44.0960 C   0  0  0  0  0  0  0  0  0  0  0  0
   58.1760   26.4980   45.0290 C   0  0  0  0  0  0  0  0  0  0  0  0
   58.2020   27.9490   45.0270 N   0  0  0  0  0  0  0  0  0  0  0  0
   57.5240   28.7340   43.9780 C   0  0  0  0  0  0  0  0  0  0  0  0
   56.4020   29.5480   44.5700 C   0  0  0  0  0  0  0  0  0  0  0  0
   55.3250   28.9690   44.8670 O   0  0  0  0  0  0  0  0  0  0  0  0
   56.5200   30.9520   44.8430 N   0  0  0  0  0  0  0  0  0  0  0  0
   57.4300   31.9060   44.2100 C   0  0  0  0  0  0  0  0  0  0  0  0
   58.4060   32.5290   45.2230 C   0  0  1  0  0  0  0  0  0  0  0  0
   58.7580   33.9750   44.8920 C   0  0  0  0  0  0  0  0  0  0  0  0
   58.9040   34.5980   46.2450 C   0  0  0  0  0  0  0  0  0  0  0  0
   58.0050   33.7410   47.1090 C   0  0  0  0  0  0  0  0  0  0  0  0
   57.8840   32.4620   46.5320 O   0  0  0  0  0  0  0  0  0  0  0  0
   58.8870   28.6370   46.0950 C   0  0  0  0  0  0  0  0  0  0  0  0
   58.8100   29.8920   46.2010 O   0  0  0  0  0  0  0  0  0  0  0  0
   60.8120   30.8690   48.4540 C   0  0  0  0  0  0  0  0  0  0  0  0
   60.4950   32.0970   49.0400 C   0  0  0  0  0  0  0  0  0  0  0  0
   61.4960   33.4930   48.6590 Cl  0  0  0  0  0  0  0  0  0  0  0  0
   59.3600   32.2100   49.8660 C   0  0  0  0  0  0  0  0  0  0  0  0
   59.0170   33.4250   50.4740 O   0  0  0  0  0  0  0  0  0  0  0  0
   58.8800   33.5840   51.8570 C   0  0  0  0  0  0  0  0  0  0  0  0
   60.0760   33.4520   52.7360 C   0  0  0  0  0  0  0  0  0  0  0  0
   57.7590   33.8540   52.3680 O   0  0  0  0  0  0  0  0  0  0  0  0
   55.5236   30.6321   53.5205 H   0  0  0  0  0  0  0  0  0  0  0  0
   55.2328   31.5648   52.0132 H   0  0  0  0  0  0  0  0  0  0  0  0
   55.0493   29.7780   52.0132 H   0  0  0  0  0  0  0  0  0  0  0  0
   57.7165   30.8002   52.8916 H   0  0  0  0  0  0  0  0  0  0  0  0
   57.2901   29.4143   51.8152 H   0  0  0  0  0  0  0  0  0  0  0  0
   58.2210   28.9878   49.6496 H   0  0  0  0  0  0  0  0  0  0  0  0
   61.2928   27.9664   48.4094 H   0  0  0  0  0  0  0  0  0  0  0  0
   59.5056   23.8455   46.7610 H   0  0  0  0  0  0  0  0  0  0  0  0
   58.1667   22.5791   45.0830 H   0  0  0  0  0  0  0  0  0  0  0  0
   56.8159   23.8059   43.3835 H   0  0  0  0  0  0  0  0  0  0  0  0
   56.8111   26.2941   43.3439 H   0  0  0  0  0  0  0  0  0  0  0  0
   58.2513   29.4102   43.5049 H   0  0  0  0  0  0  0  0  0  0  0  0
   57.1065   28.0433   43.2306 H   0  0  0  0  0  0  0  0  0  0  0  0
   58.0088   31.3837   43.4339 H   0  0  0  0  0  0  0  0  0  0  0  0
   56.8257   32.7167   43.7769 H   0  0  0  0  0  0  0  0  0  0  0  0
   59.3305   31.9362   45.1605 H   0  0  0  0  0  0  0  0  0  0  0  0
   59.6987   34.0341   44.3249 H   0  0  0  0  0  0  0  0  0  0  0  0
   58.0066   34.4731   44.2617 H   0  0  0  0  0  0  0  0  0  0  0  0
   59.9470   34.5523   46.5915 H   0  0  0  0  0  0  0  0  0  0  0  0
   58.6369   35.6649   46.2637 H   0  0  0  0  0  0  0  0  0  0  0  0
   58.4405   33.6502   48.1151 H   0  0  0  0  0  0  0  0  0  0  0  0
   57.0114   34.2072   47.1817 H   0  0  0  0  0  0  0  0  0  0  0  0
   61.7144   30.7790   47.8315 H   0  0  0  0  0  0  0  0  0  0  0  0
   59.7622   33.4866   53.7897 H   0  0  0  0  0  0  0  0  0  0  0  0
   60.5758   32.4932   52.5336 H   0  0  0  0  0  0  0  0  0  0  0  0
   60.7729   34.2787   52.5336 H   0  0  0  0  0  0  0  0  0  0  0  0
  1  2  1  0
  2  3  1  0
  3  4  1  0
  4  5  2  0
  5  6  1  0
  6  7  1  0
  7  8  2  3
  8  9  1  0
  9 10  1  0
 10 11  2  0
 11 12  1  0
 12 13  2  0
 13 14  1  0
 14 15  2  0
 15 16  1  0
 16 17  1  0
 17 18  1  0
 18 19  2  0
 18 20  1  0
 20 21  1  0
 21 22  1  0
 22 23  1  0
 23 24  1  0
 24 25  1  0
 25 26  1  0
 16 27  1  0
 27 28  2  0
  6 29  2  0
 29 30  1  0
 30 31  1  0
 30 32  2  0
 32 33  1  0
 33 34  1  0
 34 35  1  0
 34 36  2  0
 32  4  1  0
 27  8  1  0
 15 10  1  0
 26 22  1  0
  1 37  1  0
  1 38  1  0
  1 39  1  0
  2 40  1  0
  2 41  1  0
  5 42  1  0
  7 43  1  0
 11 44  1  0
 12 45  1  0
 13 46  1  0
 14 47  1  0
 17 48  1  0
 17 49  1  0
 21 50  1  0
 21 51  1  0
 22 52  1  1
 23 53  1  0
 23 54  1  0
 24 55  1  0
 24 56  1  0
 25 57  1  0
 25 58  1  0
 29 59  1  0
 35 60  1  0
 35 61  1  0
 35 62  1  0
M  CHG  1  20  -1
M  END
>  <UniqueID>  (7) 
7

>  <SMILES>  (7) 
CCOc1cc(C=C2Oc3ccccc3N(CC(=O)[N-]C[C@H]3CCCO3)C2=O)cc(Cl)c1OC(C)=O

>  <Energy>  (7) 
73.27688423752882

>  <Genealogy>  (7) 
CCOc1cc(C=C2Oc3ccccc3N(CC(=O)[N-]CC3CCCO3)C2=O)cc(Cl)c1OC(C)=O (protonated)
CCOc1cc(C=C2Oc3ccccc3N(CC(=O)[N-]C[C@H]3CCCO3)C2=O)cc(Cl)c1OC(C)=O (chirality)
CCOc1cc(C=C2Oc3ccccc3N(CC(=O)[N-]C[C@H]3CCCO3)C2=O)cc(Cl)c1OC(C)=O (3D coordinates assigned)
CCOc1cc(C=C2Oc3ccccc3N(CC(=O)[N-]C[C@H]3CCCO3)C2=O)cc(Cl)c1OC(C)=O (nonaromatic ring conformer: 73.27688423752882 kcal/mol)

>  <smiles>  (7) 
CCOc1cc(C=C2Oc3ccccc3N(CC(=O)NCC3CCCO3)C2=O)cc(Cl)c1OC(C)=O

>  <score_type>  (7) 
oracle

>  <origin>  (7) 
adg

>  <m_score__min__energy>  (7) 
-10.869999999999999

>  <m_primary>  (7) 
energy

$$$$
7:0
     RDKit          3D

 68 72  0  0  0  0  0  0  0  0999 V2000
   59.7260   29.4560   47.5620 C   0  0  0  0  0  0  0  0  0  0  0  0
   59.0360   29.8860   46.4970 C   0  0  0  0  0  0  0  0  0  0  0  0
   58.5360   29.1080   45.4380 C   0  0  0  0  0  0  0  0  0  0  0  0
   58.4530   27.7740   45.2760 C   0  0  0  0  0  0  0  0  0  0  0  0
   57.2890   26.9340   45.5960 C   0  0  0  0  0  0  0  0  0  0  0  0
   57.3610   25.6980   46.1260 N   0  0  0  0  0  0  0  0  0  0  0  0
   56.0740   25.4190   46.4370 C   0  0  0  0  0  0  0  0  0  0  0  0
   55.7250   24.3350   46.9760 O   0  0  0  0  0  0  0  0  0  0  0  0
   55.1960   26.4040   46.1550 N   0  0  0  0  0  0  0  0  0  0  0  0
   55.9850   27.3600   45.6370 C   0  0  0  0  0  0  0  0  0  0  0  0
   55.5240   28.6070   45.2290 O   0  0  0  0  0  0  0  0  0  0  0  0
   58.1060   29.9980   44.4690 C   0  0  0  0  0  0  0  0  0  0  0  0
   58.2940   31.2640   44.9790 C   0  0  0  0  0  0  0  0  0  0  0  0
   57.9540   32.5280   44.2490 C   0  0  0  0  0  0  0  0  0  0  0  0
   58.8620   31.2010   46.2050 N   0  0  0  0  0  0  0  0  0  0  0  0
   59.2550   32.3370   46.9970 C   0  0  0  0  0  0  0  0  0  0  0  0
   59.6620   33.5240   46.3710 C   0  0  0  0  0  0  0  0  0  0  0  0
   59.9600   34.6530   47.1340 C   0  0  0  0  0  0  0  0  0  0  0  0
   59.8280   34.6160   48.5230 C   0  0  0  0  0  0  0  0  0  0  0  0
   59.4110   33.4380   49.1720 C   0  0  0  0  0  0  0  0  0  0  0  0
   59.2740   33.4280   50.6530 C   0  0  0  0  0  0  0  0  0  0  0  0
   59.2470   34.5350   51.2610 O   0  0  0  0  0  0  0  0  0  0  0  0
   59.2020   32.2080   51.4250 N   0  0  0  0  0  0  0  0  0  0  0  0
   59.6410   32.2250   52.8260 C   0  0  0  0  0  0  0  0  0  0  0  0
   59.8360   30.7920   53.3520 C   0  0  0  0  0  0  0  0  0  0  0  0
   60.3670   29.9030   52.2960 N   0  0  0  0  0  0  0  0  0  0  0  0
   61.7170   30.3310   51.8550 C   0  0  0  0  0  0  0  0  0  0  0  0
   61.8300   30.3140   50.3170 C   0  0  0  0  0  0  0  0  0  0  0  0
   62.2080   31.6170   49.7190 N   0  0  0  0  0  0  0  0  0  0  0  0
   62.6350   31.5120   48.3110 C   0  0  0  0  0  0  0  0  0  0  0  0
   63.0700   32.8900   47.7730 C   0  0  0  0  0  0  0  0  0  0  0  0
   62.7050   33.9270   48.6630 O   0  0  0  0  0  0  0  0  0  0  0  0
   63.3990   33.7770   49.8910 C   0  0  0  0  0  0  0  0  0  0  0  0
   63.1830   32.3820   50.5150 C   0  0  0  0  0  0  0  0  0  0  0  0
   59.4100   29.7600   51.1640 C   0  0  0  0  0  0  0  0  0  0  0  0
   58.5180   31.0030   50.9420 C   0  0  0  0  0  0  0  0  0  0  0  0
   59.1700   32.2860   48.3970 C   0  0  0  0  0  0  0  0  0  0  0  0
   60.0624   30.1729   48.3255 H   0  0  0  0  0  0  0  0  0  0  0  0
   59.9561   28.3861   47.6729 H   0  0  0  0  0  0  0  0  0  0  0  0
   59.3380   27.2651   44.8663 H   0  0  0  0  0  0  0  0  0  0  0  0
   57.6935   29.7434   43.4816 H   0  0  0  0  0  0  0  0  0  0  0  0
   57.7396   33.3250   44.9762 H   0  0  0  0  0  0  0  0  0  0  0  0
   58.8037   32.8266   43.6175 H   0  0  0  0  0  0  0  0  0  0  0  0
   57.0691   32.3600   43.6175 H   0  0  0  0  0  0  0  0  0  0  0  0
   59.7465   33.5649   45.2750 H   0  0  0  0  0  0  0  0  0  0  0  0
   60.3000   35.5750   46.6397 H   0  0  0  0  0  0  0  0  0  0  0  0
   60.0517   35.5151   49.1160 H   0  0  0  0  0  0  0  0  0  0  0  0
   60.5940   32.7694   52.8993 H   0  0  0  0  0  0  0  0  0  0  0  0
   58.8698   32.7226   53.4324 H   0  0  0  0  0  0  0  0  0  0  0  0
   60.5437   30.8119   54.1939 H   0  0  0  0  0  0  0  0  0  0  0  0
   58.8592   30.4036   53.6760 H   0  0  0  0  0  0  0  0  0  0  0  0
   61.9066   31.3520   52.2179 H   0  0  0  0  0  0  0  0  0  0  0  0
   62.4578   29.6303   52.2675 H   0  0  0  0  0  0  0  0  0  0  0  0
   62.5916   29.5718   50.0356 H   0  0  0  0  0  0  0  0  0  0  0  0
   60.8301   30.0679   49.9302 H   0  0  0  0  0  0  0  0  0  0  0  0
   63.4812   30.8127   48.2408 H   0  0  0  0  0  0  0  0  0  0  0  0
   61.7894   31.1467   47.7097 H   0  0  0  0  0  0  0  0  0  0  0  0
   64.1624   32.8960   47.6443 H   0  0  0  0  0  0  0  0  0  0  0  0
   62.5643   33.0631   46.8116 H   0  0  0  0  0  0  0  0  0  0  0  0
   64.4744   33.9218   49.7104 H   0  0  0  0  0  0  0  0  0  0  0  0
   63.0072   34.5264   50.5945 H   0  0  0  0  0  0  0  0  0  0  0  0
   64.1403   31.8406   50.5360 H   0  0  0  0  0  0  0  0  0  0  0  0
   62.7979   32.5011   51.5385 H   0  0  0  0  0  0  0  0  0  0  0  0
   59.9851   29.5768   50.2444 H   0  0  0  0  0  0  0  0  0  0  0  0
   58.7397   28.9244   51.4140 H   0  0  0  0  0  0  0  0  0  0  0  0
   58.3056   31.1111   49.8681 H   0  0  0  0  0  0  0  0  0  0  0  0
   57.5780   30.8753   51.4988 H   0  0  0  0  0  0  0  0  0  0  0  0
   58.9131   31.3387   48.8935 H   0  0  0  0  0  0  0  0  0  0  0  0
  1  2  2  0
  2  3  1  0
  3  4  2  3
  4  5  1  0
  5  6  1  0
  6  7  1  0
  7  8  2  0
  7  9  1  0
  9 10  1  0
 10 11  1  0
  3 12  1  0
 12 13  2  0
 13 14  1  0
 13 15  1  0
 15 16  1  0
 16 17  2  0
 17 18  1  0
 18 19  2  0
 19 20  1  0
 20 21  1  0
 21 22  2  0
 21 23  1  0
 23 24  1  0
 24 25  1  0
 25 26  1  0
 26 27  1  0
 27 28  1  0
 28 29  1  0
 29 30  1  0
 30 31  1  0
 31 32  1  0
 32 33  1  0
 33 34  1  0
 26 35  1  0
 35 36  1  0
 20 37  2  0
 15  2  1  0
 37 16  1  0
 10  5  2  0
 36 23  1  0
 34 29  1  0
  1 38  1  0
  1 39  1  0
  4 40  1  0
 12 41  1  0
 14 42  1  0
 14 43  1  0
 14 44  1  0
 17 45  1  0
 18 46  1  0
 19 47  1  0
 24 48  1  0
 24 49  1  0
 25 50  1  0
 25 51  1  0
 27 52  1  0
 27 53  1  0
 28 54  1  0
 28 55  1  0
 30 56  1  0
 30 57  1  0
 31 58  1  0
 31 59  1  0
 33 60  1  0
 33 61  1  0
 34 62  1  0
 34 63  1  0
 35 64  1  0
 35 65  1  0
 36 66  1  0
 36 67  1  0
 37 68  1  0
M  CHG  3   6  -1   9  -1  11  -1
M  END
>  <UniqueID>  (8) 
8

>  <SMILES>  (8) 
C=c1c(=Cc2[n-]c(=O)[n-]c2[O-])cc(C)n1-c1cccc(C(=O)N2CCN(CCN3CCOCC3)CC2)c1

>  <Energy>  (8) 
168.4615320656423

>  <Genealogy>  (8) 
C=c1c(=Cc2[n-]c(=O)[n-]c2[O-])cc(C)n1-c1cccc(C(=O)N2CCN(CCN3CCOCC3)CC2)c1 (protonated)
C=c1c(=Cc2[n-]c(=O)[n-]c2[O-])cc(C)n1-c1cccc(C(=O)N2CCN(CCN3CCOCC3)CC2)c1 (3D coordinates assigned)
C=c1c(=Cc2[n-]c(=O)[n-]c2[O-])cc(C)n1-c1cccc(C(=O)N2CCN(CCN3CCOCC3)CC2)c1 (nonaromatic ring conformer: 168.4615320656423 kcal/mol)

>  <smiles>  (8) 
C=c1c(=Cc2[nH]c(=O)[nH]c2O)cc(C)n1-c1cccc(C(=O)N2CCN(CCN3CCOCC3)CC2)c1

>  <score_type>  (8) 
oracle

>  <origin>  (8) 
adg

>  <m_score__min__energy>  (8) 
-17.559999999999999

>  <m_primary>  (8) 
energy

$$$$
8:0
     RDKit          3D

 46 48  0  0  0  0  0  0  0  0999 V2000
   55.0750   31.1200   51.7780 N   0  0  0  0  0  0  0  0  0  0  0  0
   56.6160   30.6750   52.4220 S   0  0  0  0  0  0  0  0  0  0  0  0
   56.5100   30.5420   53.9150 O   0  0  0  0  0  0  0  0  0  0  0  0
   57.0390   29.3510   51.8490 O   0  0  0  0  0  0  0  0  0  0  0  0
   57.8070   31.9040   52.0100 C   0  0  0  0  0  0  0  0  0  0  0  0
   58.3750   32.6930   53.0200 C   0  0  0  0  0  0  0  0  0  0  0  0
   59.3300   33.6610   52.7020 C   0  0  0  0  0  0  0  0  0  0  0  0
   59.7330   33.8420   51.3750 C   0  0  0  0  0  0  0  0  0  0  0  0
   59.1830   33.0460   50.3600 C   0  0  0  0  0  0  0  0  0  0  0  0
   59.6370   33.1930   48.9610 C   0  0  0  0  0  0  0  0  0  0  0  0
   59.5340   34.4550   48.3530 C   0  0  0  0  0  0  0  0  0  0  0  0
   59.9380   34.6400   47.0300 C   0  0  0  0  0  0  0  0  0  0  0  0
   60.4460   33.5680   46.2990 C   0  0  0  0  0  0  0  0  0  0  0  0
   60.5440   32.3040   46.8830 C   0  0  0  0  0  0  0  0  0  0  0  0
   60.1350   32.0940   48.2130 C   0  0  0  0  0  0  0  0  0  0  0  0
   60.2310   30.6990   48.7970 C   0  0  0  0  0  0  0  0  0  0  0  0
   59.1920   29.8280   48.2520 N   0  0  0  0  0  0  0  0  0  0  0  0
   59.3340   29.1450   46.9990 C   0  0  0  0  0  0  0  0  0  0  0  0
   60.4490   29.1200   46.4110 O   0  0  0  0  0  0  0  0  0  0  0  0
   58.1530   28.4610   46.3790 C   0  0  0  0  0  0  0  0  0  0  0  0
   57.5950   29.2890   45.2510 C   0  0  0  0  0  0  0  0  0  0  0  0
   58.3440   30.3570   44.7270 C   0  0  0  0  0  0  0  0  0  0  0  0
   57.8260   31.1460   43.6960 C   0  0  0  0  0  0  0  0  0  0  0  0
   58.5580   32.1710   43.1940 F   0  0  0  0  0  0  0  0  0  0  0  0
   56.5520   30.8830   43.1870 C   0  0  0  0  0  0  0  0  0  0  0  0
   55.7930   29.8320   43.7090 C   0  0  0  0  0  0  0  0  0  0  0  0
   56.3050   29.0380   44.7400 C   0  0  0  0  0  0  0  0  0  0  0  0
   55.5290   28.0040   45.2530 O   0  0  0  0  0  0  0  0  0  0  0  0
   58.2120   32.0850   50.6800 C   0  0  0  0  0  0  0  0  0  0  0  0
   55.2490   31.5560   50.8450 H   0  0  0  0  0  0  0  0  0  0  0  0
   58.0675   32.5492   54.0663 H   0  0  0  0  0  0  0  0  0  0  0  0
   59.7665   34.2829   53.4974 H   0  0  0  0  0  0  0  0  0  0  0  0
   60.4816   34.6090   51.1275 H   0  0  0  0  0  0  0  0  0  0  0  0
   59.1316   35.3045   48.9243 H   0  0  0  0  0  0  0  0  0  0  0  0
   59.8553   35.6329   46.5639 H   0  0  0  0  0  0  0  0  0  0  0  0
   60.7707   33.7183   45.2588 H   0  0  0  0  0  0  0  0  0  0  0  0
   60.9450   31.4635   46.2976 H   0  0  0  0  0  0  0  0  0  0  0  0
   61.2174   30.2758   48.5562 H   0  0  0  0  0  0  0  0  0  0  0  0
   60.0947   30.7661   49.8865 H   0  0  0  0  0  0  0  0  0  0  0  0
   58.2950   29.7390   48.7790 H   0  0  0  0  0  0  0  0  0  0  0  0
   58.4661   27.4815   45.9884 H   0  0  0  0  0  0  0  0  0  0  0  0
   57.3740   28.3328   47.1450 H   0  0  0  0  0  0  0  0  0  0  0  0
   59.3441   30.5732   45.1309 H   0  0  0  0  0  0  0  0  0  0  0  0
   56.1459   31.5036   42.3747 H   0  0  0  0  0  0  0  0  0  0  0  0
   54.7893   29.6286   43.3074 H   0  0  0  0  0  0  0  0  0  0  0  0
   57.7664   31.4707   49.8837 H   0  0  0  0  0  0  0  0  0  0  0  0
  1  2  1  0
  2  3  2  0
  2  4  2  0
  2  5  1  0
  5  6  2  0
  6  7  1  0
  7  8  2  0
  8  9  1  0
  9 10  1  0
 10 11  2  0
 11 12  1  0
 12 13  2  0
 13 14  1  0
 14 15  2  0
 15 16  1  0
 16 17  1  0
 17 18  1  0
 18 19  2  0
 18 20  1  0
 20 21  1  0
 21 22  2  0
 22 23  1  0
 23 24  1  0
 23 25  2  0
 25 26  1  0
 26 27  2  0
 27 28  1  0
  9 29  2  0
 29  5  1  0
 15 10  1  0
 27 21  1  0
  1 30  1  0
  6 31  1  0
  7 32  1  0
  8 33  1  0
 11 34  1  0
 12 35  1  0
 13 36  1  0
 14 37  1  0
 16 38  1  0
 16 39  1  0
 17 40  1  0
 20 41  1  0
 20 42  1  0
 22 43  1  0
 25 44  1  0
 26 45  1  0
 29 46  1  0
M  CHG  2   1  -1  28  -1
M  END
>  <UniqueID>  (9) 
9

>  <SMILES>  (9) 
[NH-]S(=O)(=O)c1cccc(-c2ccccc2CNC(=O)Cc2cc(F)ccc2[O-])c1

>  <Energy>  (9) 
49.82646668061996

>  <Genealogy>  (9) 
[NH-]S(=O)(=O)c1cccc(-c2ccccc2CNC(=O)Cc2cc(F)ccc2[O-])c1 (protonated)
[NH-]S(=O)(=O)c1cccc(-c2ccccc2CNC(=O)Cc2cc(F)ccc2[O-])c1 (3D coordinates assigned)
[NH-]S(=O)(=O)c1cccc(-c2ccccc2CNC(=O)Cc2cc(F)ccc2[O-])c1 (optimized conformer: 49.82646668061996 kcal/mol)

>  <smiles>  (9) 
NS(=O)(=O)c1cccc(-c2ccccc2CNC(=O)Cc2cc(F)ccc2O)c1

>  <score_type>  (9) 
oracle

>  <origin>  (9) 
adg

>  <m_score__min__energy>  (9) 
-13.83

>  <m_primary>  (9) 
energy

$$$$
9:0
     RDKit          3D

 53 57  0  0  0  0  0  0  0  0999 V2000
   61.2520   32.5710   49.3480 C   0  0  0  0  0  0  0  0  0  0  0  0
   59.9780   33.3060   49.2720 N   0  0  0  0  0  0  0  0  0  0  0  0
   58.8760   32.4340   48.7820 C   0  0  0  0  0  0  0  0  0  0  0  0
   57.9960   33.0970   47.7150 C   0  0  0  0  0  0  0  0  0  0  0  0
   58.8470   33.6490   46.6560 N   0  0  0  0  0  0  0  0  0  0  0  0
   58.4590   33.5580   45.2730 C   0  0  0  0  0  0  0  0  0  0  0  0
   58.5050   34.5880   44.5480 O   0  0  0  0  0  0  0  0  0  0  0  0
   58.0270   32.2710   44.6830 C   0  0  0  0  0  0  0  0  0  0  0  0
   57.4490   32.2300   43.4030 C   0  0  0  0  0  0  0  0  0  0  0  0
   57.0220   31.0150   42.8630 C   0  0  0  0  0  0  0  0  0  0  0  0
   57.1670   29.8310   43.5910 C   0  0  0  0  0  0  0  0  0  0  0  0
   57.7580   29.8470   44.8660 C   0  0  0  0  0  0  0  0  0  0  0  0
   57.8960   28.5990   45.6620 C   0  0  0  0  0  0  0  0  0  0  0  0
   59.0240   28.3810   46.4740 C   0  0  0  0  0  0  0  0  0  0  0  0
   59.1400   27.2090   47.2240 C   0  0  0  0  0  0  0  0  0  0  0  0
   58.1320   26.2430   47.1810 C   0  0  0  0  0  0  0  0  0  0  0  0
   56.9940   26.4410   46.3830 C   0  0  0  0  0  0  0  0  0  0  0  0
   55.9080   25.4350   46.3520 C   0  0  0  0  0  0  0  0  0  0  0  0
   54.7620   25.6100   45.6390 N   0  0  0  0  0  0  0  0  0  0  0  0
   54.0700   24.4950   45.9110 C   0  0  0  0  0  0  0  0  0  0  0  0
   52.8010   24.1460   45.4560 C   0  0  0  0  0  0  0  0  0  0  0  0
   52.2670   22.9190   45.8930 C   0  0  0  0  0  0  0  0  0  0  0  0
   53.0070   22.0870   46.7630 C   0  0  0  0  0  0  0  0  0  0  0  0
   54.2860   22.4770   47.2050 C   0  0  0  0  0  0  0  0  0  0  0  0
   54.7820   23.6970   46.7520 C   0  0  0  0  0  0  0  0  0  0  0  0
   55.9560   24.2700   47.0520 N   0  0  0  0  0  0  0  0  0  0  0  0
   56.8910   27.6150   45.6180 C   0  0  0  0  0  0  0  0  0  0  0  0
   58.2030   31.0730   45.3920 C   0  0  0  0  0  0  0  0  0  0  0  0
   60.0310   34.4300   47.0250 C   0  0  0  0  0  0  0  0  0  0  0  0
   60.1350   34.5900   48.5500 C   0  0  0  0  0  0  0  0  0  0  0  0
   61.5228   32.4148   50.4026 H   0  0  0  0  0  0  0  0  0  0  0  0
   61.1435   31.5967   48.8491 H   0  0  0  0  0  0  0  0  0  0  0  0
   62.0412   33.1526   48.8491 H   0  0  0  0  0  0  0  0  0  0  0  0
   59.3184   31.5236   48.3513 H   0  0  0  0  0  0  0  0  0  0  0  0
   58.2287   32.2171   49.6445 H   0  0  0  0  0  0  0  0  0  0  0  0
   57.3139   32.3487   47.2850 H   0  0  0  0  0  0  0  0  0  0  0  0
   57.4089   33.9062   48.1738 H   0  0  0  0  0  0  0  0  0  0  0  0
   57.3324   33.1582   42.8243 H   0  0  0  0  0  0  0  0  0  0  0  0
   56.5697   30.9898   41.8606 H   0  0  0  0  0  0  0  0  0  0  0  0
   56.8162   28.8802   43.1633 H   0  0  0  0  0  0  0  0  0  0  0  0
   59.8199   29.1390   46.5183 H   0  0  0  0  0  0  0  0  0  0  0  0
   60.0288   27.0458   47.8512 H   0  0  0  0  0  0  0  0  0  0  0  0
   58.2303   25.3226   47.7753 H   0  0  0  0  0  0  0  0  0  0  0  0
   52.2365   24.8050   44.7799 H   0  0  0  0  0  0  0  0  0  0  0  0
   51.2680   22.6061   45.5553 H   0  0  0  0  0  0  0  0  0  0  0  0
   52.5816   21.1291   47.0970 H   0  0  0  0  0  0  0  0  0  0  0  0
   54.8725   21.8406   47.8840 H   0  0  0  0  0  0  0  0  0  0  0  0
   56.0116   27.7672   44.9750 H   0  0  0  0  0  0  0  0  0  0  0  0
   58.6968   31.0931   46.3747 H   0  0  0  0  0  0  0  0  0  0  0  0
   60.9303   33.9154   46.6556 H   0  0  0  0  0  0  0  0  0  0  0  0
   59.9448   35.4295   46.5739 H   0  0  0  0  0  0  0  0  0  0  0  0
   61.1213   35.0120   48.7930 H   0  0  0  0  0  0  0  0  0  0  0  0
   59.3182   35.2533   48.8708 H   0  0  0  0  0  0  0  0  0  0  0  0
  1  2  1  0
  2  3  1  0
  3  4  1  0
  4  5  1  0
  5  6  1  0
  6  7  2  0
  6  8  1  0
  8  9  2  0
  9 10  1  0
 10 11  2  0
 11 12  1  0
 12 13  1  0
 13 14  2  0
 14 15  1  0
 15 16  2  0
 16 17  1  0
 17 18  1  0
 18 19  2  0
 19 20  1  0
 20 21  2  0
 21 22  1  0
 22 23  2  0
 23 24  1  0
 24 25  2  0
 25 26  1  0
 17 27  2  0
 12 28  2  0
  5 29  1  0
 29 30  1  0
 30  2  1  0
 28  8  1  0
 27 13  1  0
 26 18  1  0
 25 20  1  0
  1 31  1  0
  1 32  1  0
  1 33  1  0
  3 34  1  0
  3 35  1  0
  4 36  1  0
  4 37  1  0
  9 38  1  0
 10 39  1  0
 11 40  1  0
 14 41  1  0
 15 42  1  0
 16 43  1  0
 21 44  1  0
 22 45  1  0
 23 46  1  0
 24 47  1  0
 27 48  1  0
 28 49  1  0
 29 50  1  0
 29 51  1  0
 30 52  1  0
 30 53  1  0
M  CHG  1  26  -1
M  END
>  <UniqueID>  (10) 
10

>  <SMILES>  (10) 
CN1CCN(C(=O)c2cccc(-c3cccc(-c4nc5ccccc5[n-]4)c3)c2)CC1

>  <Energy>  (10) 
109.75189991960679

>  <Genealogy>  (10) 
CN1CCN(C(=O)c2cccc(-c3cccc(-c4nc5ccccc5[n-]4)c3)c2)CC1 (protonated)
CN1CCN(C(=O)c2cccc(-c3cccc(-c4nc5ccccc5[n-]4)c3)c2)CC1 (3D coordinates assigned)
CN1CCN(C(=O)c2cccc(-c3cccc(-c4nc5ccccc5[n-]4)c3)c2)CC1 (nonaromatic ring conformer: 109.75189991960679 kcal/mol)

>  <smiles>  (10) 
CN1CCN(C(=O)c2cccc(-c3cccc(-c4nc5ccccc5[nH]4)c3)c2)CC1

>  <score_type>  (10) 
oracle

>  <origin>  (10) 
adg

>  <m_score__min__energy>  (10) 
-11.19

>  <m_primary>  (10) 
energy

$$$$
10:0
     RDKit          3D

 34 36  0  0  0  0  0  0  0  0999 V2000
   64.0380   33.1770   47.0120 O   0  0  0  0  0  0  0  0  0  0  0  0
   62.7920   33.0760   47.1630 C   0  0  0  0  0  0  0  0  0  0  0  0
   61.8750   33.8890   46.3430 C   0  0  0  0  0  0  0  0  0  0  0  0
   60.5760   33.9090   46.6640 C   0  0  0  0  0  0  0  0  0  0  0  0
   59.4880   34.3310   45.7950 C   0  0  0  0  0  0  0  0  0  0  0  0
   59.6390   34.9840   44.7280 O   0  0  0  0  0  0  0  0  0  0  0  0
   58.1730   33.8460   46.3060 C   0  0  1  0  0  0  0  0  0  0  0  0
   57.5470   32.8620   45.3460 C   0  0  0  0  0  0  0  0  0  0  0  0
   56.3360   32.6900   45.3540 O   0  0  0  0  0  0  0  0  0  0  0  0
   58.3910   32.0910   44.3680 C   0  0  0  0  0  0  0  0  0  0  0  0
   58.4950   30.6460   44.7880 C   0  0  0  0  0  0  0  0  0  0  0  0
   59.5330   30.2590   45.6530 C   0  0  0  0  0  0  0  0  0  0  0  0
   59.6790   28.9220   46.0340 C   0  0  0  0  0  0  0  0  0  0  0  0
   58.7980   27.9560   45.5480 C   0  0  0  0  0  0  0  0  0  0  0  0
   57.7690   28.3230   44.6780 C   0  0  0  0  0  0  0  0  0  0  0  0
   57.6120   29.6600   44.2900 C   0  0  0  0  0  0  0  0  0  0  0  0
   56.3010   30.0540   43.1840 Cl  0  0  0  0  0  0  0  0  0  0  0  0
   58.5700   33.1720   47.5920 C   0  0  0  0  0  0  0  0  0  0  0  0
   57.7630   32.6450   48.3430 O   0  0  0  0  0  0  0  0  0  0  0  0
   60.0340   33.2750   47.9070 C   0  0  1  0  0  0  0  0  0  0  0  0
   60.7230   31.9280   48.1820 C   0  0  0  0  0  0  0  0  0  0  0  0
   62.2210   32.1090   48.1260 C   0  0  0  0  0  0  0  0  0  0  0  0
   62.9740   31.4050   48.8490 O   0  0  0  0  0  0  0  0  0  0  0  0
   62.2507   34.4668   45.4857 H   0  0  0  0  0  0  0  0  0  0  0  0
   57.4229   34.6405   46.4330 H   0  0  0  0  0  0  0  0  0  0  0  0
   57.9313   32.1462   43.3702 H   0  0  0  0  0  0  0  0  0  0  0  0
   59.3997   32.5291   44.3442 H   0  0  0  0  0  0  0  0  0  0  0  0
   60.2363   31.0145   46.0333 H   0  0  0  0  0  0  0  0  0  0  0  0
   60.4899   28.6313   46.7181 H   0  0  0  0  0  0  0  0  0  0  0  0
   58.9137   26.9046   45.8501 H   0  0  0  0  0  0  0  0  0  0  0  0
   57.0777   27.5578   44.2951 H   0  0  0  0  0  0  0  0  0  0  0  0
   60.2121   33.8368   48.8358 H   0  0  0  0  0  0  0  0  0  0  0  0
   60.4344   31.5653   49.1796 H   0  0  0  0  0  0  0  0  0  0  0  0
   60.4132   31.1955   47.4221 H   0  0  0  0  0  0  0  0  0  0  0  0
  1  2  2  0
  2  3  1  0
  3  4  2  0
  4  5  1  0
  5  6  2  0
  5  7  1  0
  7  8  1  0
  8  9  2  0
  8 10  1  0
 10 11  1  0
 11 12  2  0
 12 13  1  0
 13 14  2  0
 14 15  1  0
 15 16  2  0
 16 17  1  0
  7 18  1  0
 18 19  2  0
 18 20  1  0
 20 21  1  0
 21 22  1  0
 22 23  2  0
 22  2  1  0
 20  4  1  0
 16 11  1  0
  3 24  1  0
  7 25  1  1
 10 26  1  0
 10 27  1  0
 12 28  1  0
 13 29  1  0
 14 30  1  0
 15 31  1  0
 20 32  1  1
 21 33  1  0
 21 34  1  0
M  END
>  <UniqueID>  (11) 
11

>  <SMILES>  (11) 
O=C1C=C2C(=O)[C@@H](C(=O)Cc3ccccc3Cl)C(=O)[C@H]2CC1=O

>  <Energy>  (11) 
44.705615525304665

>  <Genealogy>  (11) 
O=C1C=C2C(=O)[C@@H](C(=O)Cc3ccccc3Cl)C(=O)[C@H]2CC1=O (chirality)
O=C1C=C2C(=O)[C@@H](C(=O)Cc3ccccc3Cl)C(=O)[C@H]2CC1=O (3D coordinates assigned)
O=C1C=C2C(=O)[C@@H](C(=O)Cc3ccccc3Cl)C(=O)[C@H]2CC1=O (nonaromatic ring conformer: 44.705615525304665 kcal/mol)

>  <smiles>  (11) 
O=C1C=C2C(=O)C(C(=O)Cc3ccccc3Cl)C(=O)C2CC1=O

>  <score_type>  (11) 
oracle

>  <origin>  (11) 
adg

>  <m_score__min__energy>  (11) 
-9.3000000000000007

>  <m_primary>  (11) 
energy

$$$$
11:0
     RDKit          3D

 36 38  0  0  0  0  0  0  0  0999 V2000
   55.8990   27.4730   45.6240 N   0  0  0  0  0  0  0  0  0  0  0  0
   57.2880   27.6720   45.9630 C   0  0  0  0  0  0  0  0  0  0  0  0
   57.9230   28.9040   45.6590 C   0  0  0  0  0  0  0  0  0  0  0  0
   57.2550   29.9410   44.8270 C   0  0  0  0  0  0  0  0  0  0  0  0
   56.0020   30.0720   44.9040 O   0  0  0  0  0  0  0  0  0  0  0  0
   57.9970   30.7820   43.8220 C   0  0  0  0  0  0  0  0  0  0  0  0
   57.4660   32.5350   43.8180 S   0  0  0  0  0  0  0  0  0  0  0  0
   58.1670   32.9230   45.4250 C   0  0  0  0  0  0  0  0  0  0  0  0
   59.1180   33.9420   45.5410 C   0  0  0  0  0  0  0  0  0  0  0  0
   59.6560   34.2350   46.7950 C   0  0  0  0  0  0  0  0  0  0  0  0
   59.2350   33.5180   47.9150 C   0  0  0  0  0  0  0  0  0  0  0  0
   58.2700   32.5190   47.7650 C   0  0  0  0  0  0  0  0  0  0  0  0
   57.7550   32.2450   46.5340 N   0  0  0  0  0  0  0  0  0  0  0  0
   59.2250   29.1080   46.1420 C   0  0  0  0  0  0  0  0  0  0  0  0
   59.8590   30.1650   45.8780 O   0  0  0  0  0  0  0  0  0  0  0  0
   59.8220   28.1600   46.8970 N   0  0  0  0  0  0  0  0  0  0  0  0
   59.2190   26.9800   47.1680 C   0  0  0  0  0  0  0  0  0  0  0  0
   59.8150   26.1490   47.9060 O   0  0  0  0  0  0  0  0  0  0  0  0
   57.9810   26.6970   46.6480 N   0  0  0  0  0  0  0  0  0  0  0  0
   57.3660   25.3830   46.9220 C   0  0  0  0  0  0  0  0  0  0  0  0
   56.8370   24.6650   45.6830 C   0  0  0  0  0  0  0  0  0  0  0  0
   58.1160   24.1870   46.3370 C   0  0  0  0  0  0  0  0  0  0  0  0
   55.1700   28.1870   45.8370 H   0  0  0  0  0  0  0  0  0  0  0  0
   55.5800   26.6900   45.0150 H   0  0  0  0  0  0  0  0  0  0  0  0
   59.0708   30.7423   44.0573 H   0  0  0  0  0  0  0  0  0  0  0  0
   57.7776   30.3711   42.8255 H   0  0  0  0  0  0  0  0  0  0  0  0
   59.4386   34.5066   44.6531 H   0  0  0  0  0  0  0  0  0  0  0  0
   60.4099   35.0291   46.8998 H   0  0  0  0  0  0  0  0  0  0  0  0
   59.6585   33.7370   48.9063 H   0  0  0  0  0  0  0  0  0  0  0  0
   57.9254   31.9525   48.6427 H   0  0  0  0  0  0  0  0  0  0  0  0
   57.0340   31.4940   46.4430 H   0  0  0  0  0  0  0  0  0  0  0  0
   56.9636   25.6434   47.9121 H   0  0  0  0  0  0  0  0  0  0  0  0
   55.9246   24.0543   45.7500 H   0  0  0  0  0  0  0  0  0  0  0  0
   56.5551   24.9771   44.6666 H   0  0  0  0  0  0  0  0  0  0  0  0
   58.1315   23.2298   46.8788 H   0  0  0  0  0  0  0  0  0  0  0  0
   59.1452   24.0093   45.9917 H   0  0  0  0  0  0  0  0  0  0  0  0
  1  2  1  0
  2  3  2  0
  3  4  1  0
  4  5  2  0
  4  6  1  0
  6  7  1  0
  7  8  1  0
  8  9  2  0
  9 10  1  0
 10 11  2  0
 11 12  1  0
 12 13  2  0
  3 14  1  0
 14 15  2  0
 14 16  1  0
 16 17  1  0
 17 18  2  0
 17 19  1  0
 19 20  1  0
 20 21  1  0
 21 22  1  0
 19  2  1  0
 22 20  1  0
 13  8  1  0
  1 23  1  0
  1 24  1  0
  6 25  1  0
  6 26  1  0
  9 27  1  0
 10 28  1  0
 11 29  1  0
 12 30  1  0
 13 31  1  0
 20 32  1  0
 21 33  1  0
 21 34  1  0
 22 35  1  0
 22 36  1  0
M  CHG  2  13   1  16  -1
M  END
>  <UniqueID>  (12) 
12

>  <SMILES>  (12) 
Nc1c(C(=O)CSc2cccc[nH+]2)c(=O)[n-]c(=O)n1C1CC1

>  <Energy>  (12) 
311.5806691142319

>  <Genealogy>  (12) 
Nc1c(C(=O)CSc2cccc[nH+]2)c(=O)[n-]c(=O)n1C1CC1 (protonated)
Nc1c(C(=O)CSc2cccc[nH+]2)c(=O)[n-]c(=O)n1C1CC1 (3D coordinates assigned)
Nc1c(C(=O)CSc2cccc[nH+]2)c(=O)[n-]c(=O)n1C1CC1 (nonaromatic ring conformer: 311.5806691142319 kcal/mol)

>  <smiles>  (12) 
Nc1c(C(=O)CSc2ccccn2)c(=O)[nH]c(=O)n1C1CC1

>  <score_type>  (12) 
oracle

>  <origin>  (12) 
adg

>  <m_score__min__energy>  (12) 
-7.3899999999999997

>  <m_primary>  (12) 
energy

$$$$
12:0
     RDKit          3D

 51 54  0  0  0  0  0  0  0  0999 V2000
   57.0330   29.1850   43.0100 C   0  0  0  0  0  0  0  0  0  0  0  0
   56.4090   29.5300   44.6420 S   0  0  0  0  0  0  0  0  0  0  0  0
   55.1090   30.2710   44.5070 O   0  0  0  0  0  0  0  0  0  0  0  0
   57.3770   30.3890   45.4040 O   0  0  0  0  0  0  0  0  0  0  0  0
   56.1230   28.0490   45.5000 N   0  0  0  0  0  0  0  0  0  0  0  0
   57.0980   27.0030   45.6630 C   0  0  0  0  0  0  0  0  0  0  0  0
   56.7980   25.6540   45.3940 C   0  0  0  0  0  0  0  0  0  0  0  0
   57.7700   24.6670   45.5670 C   0  0  0  0  0  0  0  0  0  0  0  0
   59.0500   25.0090   46.0040 C   0  0  0  0  0  0  0  0  0  0  0  0
   59.3740   26.3480   46.2630 C   0  0  0  0  0  0  0  0  0  0  0  0
   60.7410   26.7110   46.7810 C   0  0  0  0  0  0  0  0  0  0  0  0
   60.6350   27.7560   47.7980 N   0  0  0  0  0  0  0  0  0  0  0  0
   60.3760   27.5390   49.1890 C   0  0  0  0  0  0  0  0  0  0  0  0
   60.5210   26.4330   49.7730 O   0  0  0  0  0  0  0  0  0  0  0  0
   59.9090   28.7690   49.8100 C   0  0  0  0  0  0  0  0  0  0  0  0
   59.5930   28.9390   51.0170 O   0  0  0  0  0  0  0  0  0  0  0  0
   59.8690   29.7530   48.7430 C   0  0  0  0  0  0  0  0  0  0  0  0
   59.4800   31.0900   48.7670 C   0  0  0  0  0  0  0  0  0  0  0  0
   59.5340   31.8260   47.5600 C   0  0  0  0  0  0  0  0  0  0  0  0
   59.1680   33.1800   47.4870 O   0  0  0  0  0  0  0  0  0  0  0  0
   60.0780   34.2730   47.3520 C   0  0  0  0  0  0  0  0  0  0  0  0
   61.4780   33.8540   47.7180 C   0  0  0  0  0  0  0  0  0  0  0  0
   61.8650   33.7950   49.0670 C   0  0  0  0  0  0  0  0  0  0  0  0
   63.1610   33.4000   49.4110 C   0  0  0  0  0  0  0  0  0  0  0  0
   64.0750   33.0520   48.4140 C   0  0  0  0  0  0  0  0  0  0  0  0
   63.6940   33.0970   47.0700 C   0  0  0  0  0  0  0  0  0  0  0  0
   62.3990   33.4910   46.7220 C   0  0  0  0  0  0  0  0  0  0  0  0
   59.9690   31.1910   46.3760 C   0  0  0  0  0  0  0  0  0  0  0  0
   60.3550   29.8400   46.3790 C   0  0  0  0  0  0  0  0  0  0  0  0
   60.2910   29.1320   47.5800 C   0  0  0  0  0  0  0  0  0  0  0  0
   58.3920   27.3380   46.0920 C   0  0  0  0  0  0  0  0  0  0  0  0
   57.9932   28.6541   43.0892 H   0  0  0  0  0  0  0  0  0  0  0  0
   56.3111   28.5579   42.4664 H   0  0  0  0  0  0  0  0  0  0  0  0
   57.1802   30.1299   42.4664 H   0  0  0  0  0  0  0  0  0  0  0  0
   55.1480   27.8860   45.8380 H   0  0  0  0  0  0  0  0  0  0  0  0
   55.7923   25.3762   45.0456 H   0  0  0  0  0  0  0  0  0  0  0  0
   57.5256   23.6151   45.3579 H   0  0  0  0  0  0  0  0  0  0  0  0
   59.8081   24.2247   46.1459 H   0  0  0  0  0  0  0  0  0  0  0  0
   61.2103   25.8199   47.2234 H   0  0  0  0  0  0  0  0  0  0  0  0
   61.3536   27.0833   45.9466 H   0  0  0  0  0  0  0  0  0  0  0  0
   59.1395   31.5617   49.7006 H   0  0  0  0  0  0  0  0  0  0  0  0
   60.0678   34.6237   46.3095 H   0  0  0  0  0  0  0  0  0  0  0  0
   59.7631   35.0790   48.0311 H   0  0  0  0  0  0  0  0  0  0  0  0
   61.1456   34.0606   49.8556 H   0  0  0  0  0  0  0  0  0  0  0  0
   63.4614   33.3632   50.4685 H   0  0  0  0  0  0  0  0  0  0  0  0
   65.0948   32.7425   48.6865 H   0  0  0  0  0  0  0  0  0  0  0  0
   64.4142   32.8220   46.2853 H   0  0  0  0  0  0  0  0  0  0  0  0
   62.1000   33.5169   45.6637 H   0  0  0  0  0  0  0  0  0  0  0  0
   60.0062   31.7628   45.4370 H   0  0  0  0  0  0  0  0  0  0  0  0
   60.6998   29.3515   45.4557 H   0  0  0  0  0  0  0  0  0  0  0  0
   58.6404   28.3898   46.2970 H   0  0  0  0  0  0  0  0  0  0  0  0
  1  2  1  0
  2  3  2  0
  2  4  2  0
  2  5  1  0
  5  6  1  0
  6  7  2  0
  7  8  1  0
  8  9  2  0
  9 10  1  0
 10 11  1  0
 11 12  1  0
 12 13  1  0
 13 14  2  0
 13 15  1  0
 15 16  2  0
 15 17  1  0
 17 18  2  0
 18 19  1  0
 19 20  1  0
 20 21  1  0
 21 22  1  0
 22 23  2  0
 23 24  1  0
 24 25  2  0
 25 26  1  0
 26 27  2  0
 19 28  2  0
 28 29  1  0
 29 30  2  0
 10 31  2  0
 31  6  1  0
 30 12  1  0
 30 17  1  0
 27 22  1  0
  1 32  1  0
  1 33  1  0
  1 34  1  0
  5 35  1  0
  7 36  1  0
  8 37  1  0
  9 38  1  0
 11 39  1  0
 11 40  1  0
 18 41  1  0
 21 42  1  0
 21 43  1  0
 23 44  1  0
 24 45  1  0
 25 46  1  0
 26 47  1  0
 27 48  1  0
 28 49  1  0
 29 50  1  0
 31 51  1  0
M  END
>  <UniqueID>  (13) 
13

>  <SMILES>  (13) 
CS(=O)(=O)Nc1cccc(CN2C(=O)C(=O)c3cc(OCc4ccccc4)ccc32)c1

>  <Energy>  (13) 
83.57949625092415

>  <Genealogy>  (13) 
CS(=O)(=O)Nc1cccc(CN2C(=O)C(=O)c3cc(OCc4ccccc4)ccc32)c1 (3D coordinates assigned)
CS(=O)(=O)Nc1cccc(CN2C(=O)C(=O)c3cc(OCc4ccccc4)ccc32)c1 (nonaromatic ring conformer: 83.57949625092415 kcal/mol)

>  <smiles>  (13) 
CS(=O)(=O)Nc1cccc(CN2C(=O)C(=O)c3cc(OCc4ccccc4)ccc32)c1

>  <score_type>  (13) 
oracle

>  <origin>  (13) 
adg

>  <m_score__min__energy>  (13) 
-9.3100000000000005

>  <m_primary>  (13) 
energy

$$$$
13:0
     RDKit          3D

 59 62  0  0  0  0  0  0  0  0999 V2000
   57.6308   23.7110   48.1954 H   0  0  0  0  0  0  0  0  0  0  0  0
   57.3590   24.2830   47.2960 C   0  0  0  0  0  0  0  0  0  0  0  0
   58.0300   25.5720   47.0420 C   0  0  0  0  0  0  0  0  0  0  0  0
   58.8510   26.0460   47.8700 O   0  0  0  0  0  0  0  0  0  0  0  0
   57.7500   26.2710   45.8230 N   0  0  0  0  0  0  0  0  0  0  0  0
   56.5880   27.1280   45.6320 C   0  0  0  0  0  0  0  0  0  0  0  0
   55.9939   26.7537   44.7853 H   0  0  0  0  0  0  0  0  0  0  0  0
   55.9774   27.1197   46.5469 H   0  0  0  0  0  0  0  0  0  0  0  0
   57.0320   28.5350   45.3460 C   0  0  0  0  0  0  0  0  0  0  0  0
   56.2590   29.3620   44.5160 C   0  0  0  0  0  0  0  0  0  0  0  0
   55.2961   28.9996   44.1268 H   0  0  0  0  0  0  0  0  0  0  0  0
   56.7060   30.6440   44.1810 C   0  0  0  0  0  0  0  0  0  0  0  0
   56.0890   31.2887   43.5378 H   0  0  0  0  0  0  0  0  0  0  0  0
   57.9380   31.1110   44.6620 C   0  0  0  0  0  0  0  0  0  0  0  0
   58.4190   32.4870   44.2870 C   0  0  0  0  0  0  0  0  0  0  0  0
   59.4832   32.5829   44.5485 H   0  0  0  0  0  0  0  0  0  0  0  0
   58.2815   32.6308   43.2051 H   0  0  0  0  0  0  0  0  0  0  0  0
   57.6430   33.5200   45.0120 N   0  0  0  0  0  0  0  0  0  0  0  0
   58.2420   34.8630   44.8880 C   0  0  0  0  0  0  0  0  0  0  0  0
   58.3101   35.1264   43.8222 H   0  0  0  0  0  0  0  0  0  0  0  0
   57.6025   35.5759   45.4291 H   0  0  0  0  0  0  0  0  0  0  0  0
   59.6480   34.9150   45.5050 C   0  0  0  0  0  0  0  0  0  0  0  0
   60.3815   34.5826   44.7556 H   0  0  0  0  0  0  0  0  0  0  0  0
   59.8543   35.9496   45.8163 H   0  0  0  0  0  0  0  0  0  0  0  0
   59.7410   34.0470   46.6840 N   0  0  0  0  0  0  0  0  0  0  0  0
   61.0210   33.8760   47.3190 C   0  0  0  0  0  0  0  0  0  0  0  0
   62.1380   33.4780   46.5640 C   0  0  0  0  0  0  0  0  0  0  0  0
   62.0339   33.3056   45.4826 H   0  0  0  0  0  0  0  0  0  0  0  0
   63.3810   33.3000   47.1800 C   0  0  0  0  0  0  0  0  0  0  0  0
   64.2506   32.9877   46.5831 H   0  0  0  0  0  0  0  0  0  0  0  0
   63.5190   33.5190   48.5550 C   0  0  0  0  0  0  0  0  0  0  0  0
   64.4956   33.3728   49.0397 H   0  0  0  0  0  0  0  0  0  0  0  0
   62.4150   33.9240   49.3140 C   0  0  0  0  0  0  0  0  0  0  0  0
   62.5264   34.1012   50.3939 H   0  0  0  0  0  0  0  0  0  0  0  0
   61.1690   34.1040   48.7010 C   0  0  0  0  0  0  0  0  0  0  0  0
   60.1190   34.5280   49.4470 F   0  0  0  0  0  0  0  0  0  0  0  0
   58.5210   33.6460   47.3970 C   0  0  0  0  0  0  0  0  0  0  0  0
   58.7678   32.8258   48.0871 H   0  0  0  0  0  0  0  0  0  0  0  0
   58.1425   34.5256   47.9383 H   0  0  0  0  0  0  0  0  0  0  0  0
   57.4090   33.1680   46.4330 C   0  0  0  0  0  0  0  0  0  0  0  0
   57.3337   32.0732   46.5092 H   0  0  0  0  0  0  0  0  0  0  0  0
   56.4850   33.6813   46.7375 H   0  0  0  0  0  0  0  0  0  0  0  0
   58.7040   30.2910   45.5030 C   0  0  0  0  0  0  0  0  0  0  0  0
   59.6620   30.6580   45.9000 H   0  0  0  0  0  0  0  0  0  0  0  0
   58.2570   29.0090   45.8400 C   0  0  0  0  0  0  0  0  0  0  0  0
   58.8680   28.3701   46.4946 H   0  0  0  0  0  0  0  0  0  0  0  0
   56.4300   23.7850   46.4690 C   0  0  0  0  0  0  0  0  0  0  0  0
   55.3727   23.9983   46.6847 H   0  0  0  0  0  0  0  0  0  0  0  0
   56.7510   22.9620   45.2790 C   0  0  0  0  0  0  0  0  0  0  0  0
   56.2840   23.2790   43.9920 C   0  0  0  0  0  0  0  0  0  0  0  0
   55.6517   24.1663   43.8407 H   0  0  0  0  0  0  0  0  0  0  0  0
   56.6210   22.4700   42.9050 C   0  0  0  0  0  0  0  0  0  0  0  0
   56.2510   22.7107   41.8974 H   0  0  0  0  0  0  0  0  0  0  0  0
   57.4320   21.3530   43.1100 C   0  0  0  0  0  0  0  0  0  0  0  0
   57.6973   20.7047   42.2619 H   0  0  0  0  0  0  0  0  0  0  0  0
   57.8950   21.0640   44.3550 N   0  0  0  0  0  0  0  0  0  0  0  0
   58.5050   20.2270   44.4920 H   0  0  0  0  0  0  0  0  0  0  0  0
   57.5820   21.8410   45.4290 C   0  0  0  0  0  0  0  0  0  0  0  0
   57.9835   21.5880   46.4214 H   0  0  0  0  0  0  0  0  0  0  0  0
  1  2  1  0
  2  3  1  0
  3  4  2  0
  3  5  1  0
  5  6  1  0
  6  7  1  0
  6  8  1  0
  6  9  1  0
  9 10  2  0
 10 11  1  0
 10 12  1  0
 12 13  1  0
 12 14  2  0
 14 15  1  0
 15 16  1  0
 15 17  1  0
 15 18  1  0
 18 19  1  0
 19 20  1  0
 19 21  1  0
 19 22  1  0
 22 23  1  0
 22 24  1  0
 22 25  1  0
 25 26  1  0
 26 27  2  0
 27 28  1  0
 27 29  1  0
 29 30  1  0
 29 31  2  0
 31 32  1  0
 31 33  1  0
 33 34  1  0
 33 35  2  0
 35 36  1  0
 25 37  1  0
 37 38  1  0
 37 39  1  0
 37 40  1  0
 40 41  1  0
 40 42  1  0
 14 43  1  0
 43 44  1  0
 43 45  2  0
 45 46  1  0
  2 47  2  0
 47 48  1  0
 47 49  1  0
 49 50  2  0
 50 51  1  0
 50 52  1  0
 52 53  1  0
 52 54  2  0
 54 55  1  0
 54 56  1  0
 56 57  1  0
 56 58  2  0
 58 59  1  0
 45  9  1  0
 58 49  1  0
 40 18  1  0
 35 26  1  0
M  CHG  2   5  -1  56   1
M  END
>  <UniqueID>  (14) 
14

>  <SMILES>  (14) 
O=C(/C=C/c1ccc[nH+]c1)[N-]Cc1ccc(CN2CCN(c3ccccc3F)CC2)cc1

>  <Energy>  (14) 
74.5636949401574

>  <Genealogy>  (14) 
O=C(C=Cc1ccc[nH+]c1)[N-]Cc1ccc(CN2CCN(c3ccccc3F)CC2)cc1 (protonated)
O=C(/C=C/c1ccc[nH+]c1)[N-]Cc1ccc(CN2CCN(c3ccccc3F)CC2)cc1 (cis-trans isomerization)
O=C(/C=C/c1ccc[nH+]c1)[N-]Cc1ccc(CN2CCN(c3ccccc3F)CC2)cc1 (3D coordinates assigned)
O=C(/C=C/c1ccc[nH+]c1)[N-]Cc1ccc(CN2CCN(c3ccccc3F)CC2)cc1 (nonaromatic ring conformer: 74.5636949401574 kcal/mol)

>  <smiles>  (14) 
O=C(C=Cc1cccnc1)NCc1ccc(CN2CCN(c3ccccc3F)CC2)cc1

>  <score_type>  (14) 
oracle

>  <origin>  (14) 
adg

>  <m_score__min__energy>  (14) 
-11.710000000000001

>  <m_primary>  (14) 
energy

$$$$
14:0
     RDKit          3D

 32 33  0  0  0  0  0  0  0  0999 V2000
   53.4820   27.9620   53.1700 C   0  0  0  0  0  0  0  0  0  0  0  0
   54.3080   28.9420   52.7530 C   0  0  0  0  0  0  0  0  0  0  0  0
   55.6550   28.6920   52.7860 N   0  0  0  0  0  0  0  0  0  0  0  0
   56.5930   29.6230   52.4420 C   0  0  0  0  0  0  0  0  0  0  0  0
   57.9650   29.3200   52.4970 O   0  0  0  0  0  0  0  0  0  0  0  0
   58.8220   29.6230   53.5920 C   0  0  0  0  0  0  0  0  0  0  0  0
   56.1870   30.9040   52.0370 C   0  0  0  0  0  0  0  0  0  0  0  0
   57.1680   31.9510   51.6470 C   0  0  0  0  0  0  0  0  0  0  0  0
   57.4360   32.8900   52.4460 O   0  0  0  0  0  0  0  0  0  0  0  0
   57.7800   31.9180   50.3890 O   0  0  0  0  0  0  0  0  0  0  0  0
   58.8990   31.0840   50.1030 C   0  0  0  0  0  0  0  0  0  0  0  0
   54.8170   31.1910   51.9950 C   0  0  0  0  0  0  0  0  0  0  0  0
   53.8450   30.2270   52.3340 C   0  0  0  0  0  0  0  0  0  0  0  0
   52.5240   30.5220   52.1900 C   0  0  0  0  0  0  0  0  0  0  0  0
   51.8890   30.9610   50.9310 C   0  0  0  0  0  0  0  0  0  0  0  0
   51.7610   30.1730   49.8460 N   0  0  0  0  0  0  0  0  0  0  0  0
   51.0200   30.9260   49.0010 C   0  0  0  0  0  0  0  0  0  0  0  0
   50.6880   30.5270   47.8540 O   0  0  0  0  0  0  0  0  0  0  0  0
   50.6430   32.1260   49.4920 N   0  0  0  0  0  0  0  0  0  0  0  0
   51.1920   32.1300   50.7180 C   0  0  0  0  0  0  0  0  0  0  0  0
   51.0250   33.1580   51.6390 O   0  0  0  0  0  0  0  0  0  0  0  0
   52.3933   28.1192   53.1606 H   0  0  0  0  0  0  0  0  0  0  0  0
   53.8965   27.0050   53.5197 H   0  0  0  0  0  0  0  0  0  0  0  0
   55.9810   27.7520   53.1040 H   0  0  0  0  0  0  0  0  0  0  0  0
   58.2905   29.4351   54.5365 H   0  0  0  0  0  0  0  0  0  0  0  0
   59.7184   28.9873   53.5429 H   0  0  0  0  0  0  0  0  0  0  0  0
   59.1196   30.6808   53.5429 H   0  0  0  0  0  0  0  0  0  0  0  0
   59.3539   30.7449   51.0454 H   0  0  0  0  0  0  0  0  0  0  0  0
   58.5668   30.2114   49.5214 H   0  0  0  0  0  0  0  0  0  0  0  0
   59.6403   31.6517   49.5214 H   0  0  0  0  0  0  0  0  0  0  0  0
   54.4900   32.1958   51.6892 H   0  0  0  0  0  0  0  0  0  0  0  0
   51.8815   30.4263   53.0777 H   0  0  0  0  0  0  0  0  0  0  0  0
  1  2  2  0
  2  3  1  0
  3  4  2  0
  4  5  1  0
  5  6  1  0
  4  7  1  0
  7  8  1  0
  8  9  2  0
  8 10  1  0
 10 11  1  0
  7 12  2  0
 12 13  1  0
 13 14  2  3
 14 15  1  0
 15 16  1  0
 16 17  1  0
 17 18  2  0
 17 19  1  0
 19 20  1  0
 20 21  1  0
 13  2  1  0
 20 15  2  0
  1 22  1  0
  1 23  1  0
  3 24  1  0
  6 25  1  0
  6 26  1  0
  6 27  1  0
 11 28  1  0
 11 29  1  0
 11 30  1  0
 12 31  1  0
 14 32  1  0
M  CHG  4   3   1  16  -1  19  -1  21  -1
M  END
>  <UniqueID>  (15) 
15

>  <SMILES>  (15) 
C=c1[nH+]c(OC)c(C(=O)OC)cc1=Cc1[n-]c(=O)[n-]c1[O-]

>  <Energy>  (15) 
78.78051588683934

>  <Genealogy>  (15) 
C=c1[nH+]c(OC)c(C(=O)OC)cc1=Cc1[n-]c(=O)[n-]c1[O-] (protonated)
C=c1[nH+]c(OC)c(C(=O)OC)cc1=Cc1[n-]c(=O)[n-]c1[O-] (3D coordinates assigned)
C=c1[nH+]c(OC)c(C(=O)OC)cc1=Cc1[n-]c(=O)[n-]c1[O-] (optimized conformer: 78.78051588683934 kcal/mol)

>  <smiles>  (15) 
C=c1nc(OC)c(C(=O)OC)cc1=Cc1[nH]c(=O)[nH]c1O

>  <score_type>  (15) 
oracle

>  <origin>  (15) 
adg

>  <m_score__min__energy>  (15) 
-14.039999999999999

>  <m_primary>  (15) 
energy

$$$$
15:0
     RDKit          3D

 62 65  0  0  0  0  0  0  0  0999 V2000
   61.3220   32.0510   51.1110 C   0  0  0  0  0  0  0  0  0  0  0  0
   59.8370   31.7870   51.2240 C   0  0  0  0  0  0  0  0  0  0  0  0
   59.0430   32.5830   52.0850 C   0  0  0  0  0  0  0  0  0  0  0  0
   59.7370   33.8450   53.1010 Cl  0  0  0  0  0  0  0  0  0  0  0  0
   57.6670   32.3660   52.1760 C   0  0  0  0  0  0  0  0  0  0  0  0
   57.0610   31.3600   51.4270 C   0  0  0  0  0  0  0  0  0  0  0  0
   57.8340   30.5360   50.6110 C   0  0  0  0  0  0  0  0  0  0  0  0
   59.2260   30.7110   50.5210 C   0  0  0  0  0  0  0  0  0  0  0  0
   60.0300   29.6960   49.7250 C   0  0  0  0  0  0  0  0  0  0  0  0
   59.6980   29.7610   48.2920 N   0  0  0  0  0  0  0  0  0  0  0  0
   59.6810   30.8770   47.5130 C   0  0  0  0  0  0  0  0  0  0  0  0
   60.0950   32.2170   47.9600 C   0  0  0  0  0  0  0  0  0  0  0  0
   59.2050   33.0200   48.3550 O   0  0  0  0  0  0  0  0  0  0  0  0
   61.4790   32.6290   47.9280 N   0  0  0  0  0  0  0  0  0  0  0  0
   61.8690   33.9330   48.4810 C   0  0  0  0  0  0  0  0  0  0  0  0
   63.3290   33.8830   48.9500 C   0  0  0  0  0  0  0  0  0  0  0  0
   64.2720   33.4440   47.8970 N   0  0  0  0  0  0  0  0  0  0  0  0
   63.6540   32.7310   46.7650 C   0  0  0  0  0  0  0  0  0  0  0  0
   62.4850   31.8420   47.2010 C   0  0  0  0  0  0  0  0  0  0  0  0
   59.2190   30.5870   46.2350 C   0  0  0  0  0  0  0  0  0  0  0  0
   58.9680   29.2310   46.2360 C   0  0  0  0  0  0  0  0  0  0  0  0
   58.4510   28.4040   45.2320 C   0  0  0  0  0  0  0  0  0  0  0  0
   58.1180   28.9410   43.9420 N   0  0  0  0  0  0  0  0  0  0  0  0
   57.0220   30.2700   43.7140 S   0  0  0  0  0  0  0  0  0  0  0  0
   56.0530   30.3590   44.8590 O   0  0  0  0  0  0  0  0  0  0  0  0
   56.2380   30.0160   42.4560 O   0  0  0  0  0  0  0  0  0  0  0  0
   57.9160   31.8180   43.5250 C   0  0  0  0  0  0  0  0  0  0  0  0
   57.4200   32.8740   44.5170 C   0  0  0  0  0  0  0  0  0  0  0  0
   57.7780   32.3290   42.0880 C   0  0  0  0  0  0  0  0  0  0  0  0
   58.2820   27.0380   45.5400 C   0  0  0  0  0  0  0  0  0  0  0  0
   58.6070   26.5450   46.8200 C   0  0  0  0  0  0  0  0  0  0  0  0
   59.1060   27.4050   47.8110 C   0  0  0  0  0  0  0  0  0  0  0  0
   59.2740   28.7560   47.4920 C   0  0  0  0  0  0  0  0  0  0  0  0
   61.7583   32.1286   52.1178 H   0  0  0  0  0  0  0  0  0  0  0  0
   61.8011   31.2239   50.5665 H   0  0  0  0  0  0  0  0  0  0  0  0
   61.4867   32.9925   50.5665 H   0  0  0  0  0  0  0  0  0  0  0  0
   57.0576   32.9932   52.8432 H   0  0  0  0  0  0  0  0  0  0  0  0
   55.9718   31.2159   51.4796 H   0  0  0  0  0  0  0  0  0  0  0  0
   57.3486   29.7382   50.0297 H   0  0  0  0  0  0  0  0  0  0  0  0
   61.1020   29.9056   49.8550 H   0  0  0  0  0  0  0  0  0  0  0  0
   59.7845   28.6894   50.0946 H   0  0  0  0  0  0  0  0  0  0  0  0
   61.7608   34.7056   47.7055 H   0  0  0  0  0  0  0  0  0  0  0  0
   61.2207   34.1732   49.3366 H   0  0  0  0  0  0  0  0  0  0  0  0
   63.6226   34.8895   49.2829 H   0  0  0  0  0  0  0  0  0  0  0  0
   63.3831   33.1431   49.7621 H   0  0  0  0  0  0  0  0  0  0  0  0
   64.9890   32.8140   48.3340 H   0  0  0  0  0  0  0  0  0  0  0  0
   63.2833   33.4718   46.0412 H   0  0  0  0  0  0  0  0  0  0  0  0
   64.4214   32.0806   46.3199 H   0  0  0  0  0  0  0  0  0  0  0  0
   62.0194   31.3947   46.3104 H   0  0  0  0  0  0  0  0  0  0  0  0
   62.8678   31.0545   47.8668 H   0  0  0  0  0  0  0  0  0  0  0  0
   59.0825   31.2898   45.3999 H   0  0  0  0  0  0  0  0  0  0  0  0
   58.7110   28.6830   43.1230 H   0  0  0  0  0  0  0  0  0  0  0  0
   58.9779   31.6291   43.7411 H   0  0  0  0  0  0  0  0  0  0  0  0
   57.5868   32.5188   45.5446 H   0  0  0  0  0  0  0  0  0  0  0  0
   57.9714   33.8127   44.3595 H   0  0  0  0  0  0  0  0  0  0  0  0
   56.3455   33.0490   44.3595 H   0  0  0  0  0  0  0  0  0  0  0  0
   57.4912   33.3909   42.1024 H   0  0  0  0  0  0  0  0  0  0  0  0
   58.7389   32.2158   41.5647 H   0  0  0  0  0  0  0  0  0  0  0  0
   57.0047   31.7474   41.5647 H   0  0  0  0  0  0  0  0  0  0  0  0
   57.8929   26.3509   44.7742 H   0  0  0  0  0  0  0  0  0  0  0  0
   58.4684   25.4771   47.0443 H   0  0  0  0  0  0  0  0  0  0  0  0
   59.3583   27.0260   48.8123 H   0  0  0  0  0  0  0  0  0  0  0  0
  1  2  1  0
  2  3  2  0
  3  4  1  0
  3  5  1  0
  5  6  2  0
  6  7  1  0
  7  8  2  0
  8  9  1  0
  9 10  1  0
 10 11  1  0
 11 12  1  0
 12 13  2  0
 12 14  1  0
 14 15  1  0
 15 16  1  0
 16 17  1  0
 17 18  1  0
 18 19  1  0
 11 20  2  0
 20 21  1  0
 21 22  2  0
 22 23  1  0
 23 24  1  0
 24 25  2  0
 24 26  2  0
 24 27  1  0
 27 28  1  0
 27 29  1  0
 22 30  1  0
 30 31  2  0
 31 32  1  0
 32 33  2  0
  8  2  1  0
 33 10  1  0
 19 14  1  0
 33 21  1  0
  1 34  1  0
  1 35  1  0
  1 36  1  0
  5 37  1  0
  6 38  1  0
  7 39  1  0
  9 40  1  0
  9 41  1  0
 15 42  1  0
 15 43  1  0
 16 44  1  0
 16 45  1  0
 17 46  1  0
 18 47  1  0
 18 48  1  0
 19 49  1  0
 19 50  1  0
 20 51  1  0
 23 52  1  0
 27 53  1  0
 28 54  1  0
 28 55  1  0
 28 56  1  0
 29 57  1  0
 29 58  1  0
 29 59  1  0
 30 60  1  0
 31 61  1  0
 32 62  1  0
M  END
>  <UniqueID>  (16) 
16

>  <SMILES>  (16) 
Cc1c(Cl)cccc1Cn1c(C(=O)N2CCNCC2)cc2c(NS(=O)(=O)C(C)C)cccc21

>  <Energy>  (16) 
103.37876308800796

>  <Genealogy>  (16) 
Cc1c(Cl)cccc1Cn1c(C(=O)N2CCNCC2)cc2c(NS(=O)(=O)C(C)C)cccc21 (3D coordinates assigned)
Cc1c(Cl)cccc1Cn1c(C(=O)N2CCNCC2)cc2c(NS(=O)(=O)C(C)C)cccc21 (nonaromatic ring conformer: 103.37876308800796 kcal/mol)

>  <smiles>  (16) 
Cc1c(Cl)cccc1Cn1c(C(=O)N2CCNCC2)cc2c(NS(=O)(=O)C(C)C)cccc21

>  <score_type>  (16) 
oracle

>  <origin>  (16) 
adg

>  <m_score__min__energy>  (16) 
-9.9700000000000006

>  <m_primary>  (16) 
energy

$$$$
16:0
     RDKit          3D

 46 49  0  0  0  0  0  0  0  0999 V2000
   64.0044   34.3378   48.0162 H   0  0  0  0  0  0  0  0  0  0  0  0
   63.4440   33.7490   47.2750 C   0  0  0  0  0  0  0  0  0  0  0  0
   63.4339   34.0594   46.2198 H   0  0  0  0  0  0  0  0  0  0  0  0
   62.7800   32.6640   47.6540 C   0  0  0  0  0  0  0  0  0  0  0  0
   62.0410   31.8520   46.7920 O   0  0  0  0  0  0  0  0  0  0  0  0
   61.5010   30.8260   47.5660 C   0  0  0  0  0  0  0  0  0  0  0  0
   60.6960   29.7780   47.1240 C   0  0  0  0  0  0  0  0  0  0  0  0
   60.4246   29.6886   46.0618 H   0  0  0  0  0  0  0  0  0  0  0  0
   60.2370   28.8360   48.0640 C   0  0  0  0  0  0  0  0  0  0  0  0
   59.4360   27.7790   47.6090 O   0  0  0  0  0  0  0  0  0  0  0  0
   58.2840   27.9170   46.8250 C   0  0  0  0  0  0  0  0  0  0  0  0
   58.0610   29.0890   46.1790 N   0  0  0  0  0  0  0  0  0  0  0  0
   56.9370   29.2630   45.4320 C   0  0  0  0  0  0  0  0  0  0  0  0
   56.7210   30.3680   44.7820 N   0  0  0  0  0  0  0  0  0  0  0  0
   57.4760   31.5880   44.8750 C   0  0  0  0  0  0  0  0  0  0  0  0
   57.8100   32.1680   46.1150 C   0  0  0  0  0  0  0  0  0  0  0  0
   57.5147   31.6703   47.0505 H   0  0  0  0  0  0  0  0  0  0  0  0
   58.5160   33.3750   46.1600 C   0  0  0  0  0  0  0  0  0  0  0  0
   58.7897   33.8154   47.1301 H   0  0  0  0  0  0  0  0  0  0  0  0
   58.8740   34.0220   44.9740 C   0  0  0  0  0  0  0  0  0  0  0  0
   59.4362   34.9668   45.0109 H   0  0  0  0  0  0  0  0  0  0  0  0
   58.5180   33.4690   43.7420 C   0  0  0  0  0  0  0  0  0  0  0  0
   58.7929   33.9829   42.8091 H   0  0  0  0  0  0  0  0  0  0  0  0
   57.8120   32.2620   43.6930 C   0  0  0  0  0  0  0  0  0  0  0  0
   57.5188   31.8394   42.7207 H   0  0  0  0  0  0  0  0  0  0  0  0
   56.0440   28.2480   45.3270 N   0  0  0  0  0  0  0  0  0  0  0  0
   56.2530   27.0730   45.9810 C   0  0  0  0  0  0  0  0  0  0  0  0
   55.4000   26.0960   45.8940 N   0  0  0  0  0  0  0  0  0  0  0  0
   55.7470   24.6740   45.9240 C   0  0  0  0  0  0  0  0  0  0  0  0
   56.7393   24.5536   46.3831 H   0  0  0  0  0  0  0  0  0  0  0  0
   54.9884   24.1360   46.5114 H   0  0  0  0  0  0  0  0  0  0  0  0
   55.7750   24.0960   44.5050 C   0  0  0  0  0  0  0  0  0  0  0  0
   55.7160   22.9991   44.5629 H   0  0  0  0  0  0  0  0  0  0  0  0
   54.9183   24.5010   43.9464 H   0  0  0  0  0  0  0  0  0  0  0  0
   57.0570   24.4880   43.7760 C   0  0  0  0  0  0  0  0  0  0  0  0
   57.8388   24.7271   44.5119 H   0  0  0  0  0  0  0  0  0  0  0  0
   57.3908   23.6509   43.1453 H   0  0  0  0  0  0  0  0  0  0  0  0
   56.8655   25.3686   43.1453 H   0  0  0  0  0  0  0  0  0  0  0  0
   57.3720   26.9140   46.7300 N   0  0  0  0  0  0  0  0  0  0  0  0
   60.6300   28.9520   49.4250 C   0  0  0  0  0  0  0  0  0  0  0  0
   60.2938   28.2005   50.1545 H   0  0  0  0  0  0  0  0  0  0  0  0
   61.4430   30.0160   49.8480 C   0  0  0  0  0  0  0  0  0  0  0  0
   61.7419   30.1169   50.9018 H   0  0  0  0  0  0  0  0  0  0  0  0
   61.8590   30.9390   48.8930 C   0  0  0  0  0  0  0  0  0  0  0  0
   62.6930   32.1200   49.0070 C   0  0  0  0  0  0  0  0  0  0  0  0
   63.2300   32.5740   50.0530 O   0  0  0  0  0  0  0  0  0  0  0  0
  1  2  1  0
  2  3  1  0
  2  4  2  0
  4  5  1  0
  5  6  1  0
  6  7  2  0
  7  8  1  0
  7  9  1  0
  9 10  1  0
 10 11  1  0
 11 12  2  0
 12 13  1  0
 13 14  2  0
 14 15  1  0
 15 16  2  0
 16 17  1  0
 16 18  1  0
 18 19  1  0
 18 20  2  0
 20 21  1  0
 20 22  1  0
 22 23  1  0
 22 24  2  0
 24 25  1  0
 13 26  1  0
 26 27  1  0
 27 28  2  3
 28 29  1  0
 29 30  1  0
 29 31  1  0
 29 32  1  0
 32 33  1  0
 32 34  1  0
 32 35  1  0
 35 36  1  0
 35 37  1  0
 35 38  1  0
 27 39  1  0
  9 40  2  0
 40 41  1  0
 40 42  1  0
 42 43  1  0
 42 44  2  0
 44 45  1  0
 45 46  2  0
 45  4  1  0
 44  6  1  0
 39 11  1  0
 24 15  1  0
M  CHG  2  26  -1  39  -1
M  END
>  <UniqueID>  (17) 
17

>  <SMILES>  (17) 
C=C1Oc2cc(Oc3n/c(=N\c4ccccc4)[n-]c(=NCCC)[n-]3)ccc2C1=O

>  <Energy>  (17) 
87.84226160322879

>  <Genealogy>  (17) 
C=C1Oc2cc(Oc3nc(=Nc4ccccc4)[n-]c(=NCCC)[n-]3)ccc2C1=O (protonated)
C=C1Oc2cc(Oc3n/c(=N\c4ccccc4)[n-]c(=NCCC)[n-]3)ccc2C1=O (cis-trans isomerization)
C=C1Oc2cc(Oc3n/c(=N\c4ccccc4)[n-]c(=NCCC)[n-]3)ccc2C1=O (3D coordinates assigned)
C=C1Oc2cc(Oc3n/c(=N\c4ccccc4)[n-]c(=NCCC)[n-]3)ccc2C1=O (nonaromatic ring conformer: 87.84226160322879 kcal/mol)

>  <smiles>  (17) 
C=C1Oc2cc(Oc3nc(=Nc4ccccc4)[nH]c(=NCCC)[nH]3)ccc2C1=O

>  <score_type>  (17) 
oracle

>  <origin>  (17) 
adg

>  <m_score__min__energy>  (17) 
-11.4

>  <m_primary>  (17) 
energy

$$$$
17:0
     RDKit          3D

 30 31  0  0  0  0  0  0  0  0999 V2000
   59.2670   28.6120   46.4490 C   0  0  0  0  0  0  0  0  0  0  0  0
   57.9420   27.9420   46.2760 C   0  0  0  0  0  0  0  0  0  0  0  0
   57.6610   26.7340   46.7980 N   0  0  0  0  0  0  0  0  0  0  0  0
   56.4040   26.4930   46.3740 C   0  0  0  0  0  0  0  0  0  0  0  0
   55.7820   25.4370   46.6590 O   0  0  0  0  0  0  0  0  0  0  0  0
   55.8690   27.4710   45.6170 N   0  0  0  0  0  0  0  0  0  0  0  0
   56.8410   28.4000   45.5670 C   0  0  0  0  0  0  0  0  0  0  0  0
   56.6950   29.6630   44.8190 C   0  0  0  0  0  0  0  0  0  0  0  0
   55.5330   30.0910   44.5790 O   0  0  0  0  0  0  0  0  0  0  0  0
   57.8400   30.4300   44.4130 N   0  0  0  0  0  0  0  0  0  0  0  0
   57.7280   31.6590   43.6290 C   0  0  0  0  0  0  0  0  0  0  0  0
   57.4500   32.8610   44.5370 C   0  0  0  0  0  0  0  0  0  0  0  0
   58.5770   33.0940   45.5010 C   0  0  0  0  0  0  0  0  0  0  0  0
   58.8750   34.3880   45.9550 C   0  0  0  0  0  0  0  0  0  0  0  0
   59.8970   34.5670   46.8900 C   0  0  0  0  0  0  0  0  0  0  0  0
   60.6040   33.4620   47.3680 C   0  0  0  0  0  0  0  0  0  0  0  0
   60.2750   32.1880   46.9000 C   0  0  0  0  0  0  0  0  0  0  0  0
   59.2760   32.0330   45.9900 N   0  0  0  0  0  0  0  0  0  0  0  0
   59.4849   28.7222   47.5216 H   0  0  0  0  0  0  0  0  0  0  0  0
   60.0509   28.0019   45.9764 H   0  0  0  0  0  0  0  0  0  0  0  0
   59.2403   29.6049   45.9764 H   0  0  0  0  0  0  0  0  0  0  0  0
   58.7710   30.2120   44.8310 H   0  0  0  0  0  0  0  0  0  0  0  0
   58.6698   31.8274   43.0862 H   0  0  0  0  0  0  0  0  0  0  0  0
   56.8922   31.5509   42.9220 H   0  0  0  0  0  0  0  0  0  0  0  0
   57.3217   33.7580   43.9134 H   0  0  0  0  0  0  0  0  0  0  0  0
   56.5380   32.6530   45.1157 H   0  0  0  0  0  0  0  0  0  0  0  0
   58.3092   35.2528   45.5782 H   0  0  0  0  0  0  0  0  0  0  0  0
   60.1445   35.5768   47.2492 H   0  0  0  0  0  0  0  0  0  0  0  0
   61.4105   33.5933   48.1044 H   0  0  0  0  0  0  0  0  0  0  0  0
   60.8244   31.3088   47.2677 H   0  0  0  0  0  0  0  0  0  0  0  0
  1  2  1  0
  2  3  1  0
  3  4  1  0
  4  5  2  0
  4  6  1  0
  6  7  1  0
  7  8  1  0
  8  9  2  0
  8 10  1  0
 10 11  1  0
 11 12  1  0
 12 13  1  0
 13 14  2  0
 14 15  1  0
 15 16  2  0
 16 17  1  0
 17 18  2  0
  7  2  2  0
 18 13  1  0
  1 19  1  0
  1 20  1  0
  1 21  1  0
 10 22  1  0
 11 23  1  0
 11 24  1  0
 12 25  1  0
 12 26  1  0
 14 27  1  0
 15 28  1  0
 16 29  1  0
 17 30  1  0
M  CHG  2   3  -1   6  -1
M  END
>  <UniqueID>  (18) 
18

>  <SMILES>  (18) 
Cc1[n-]c(=O)[n-]c1C(=O)NCCc1ccccn1

>  <Energy>  (18) 
55.642886034655774

>  <Genealogy>  (18) 
Cc1[n-]c(=O)[n-]c1C(=O)NCCc1ccccn1 (protonated)
Cc1[n-]c(=O)[n-]c1C(=O)NCCc1ccccn1 (3D coordinates assigned)
Cc1[n-]c(=O)[n-]c1C(=O)NCCc1ccccn1 (optimized conformer: 55.642886034655774 kcal/mol)

>  <smiles>  (18) 
Cc1[nH]c(=O)[nH]c1C(=O)NCCc1ccccn1

>  <score_type>  (18) 
oracle

>  <origin>  (18) 
adg

>  <m_score__min__energy>  (18) 
-10.94

>  <m_primary>  (18) 
energy

$$$$
18:0
     RDKit          3D

 57 60  0  0  0  0  0  0  0  0999 V2000
   64.4460   34.8490   51.9410 C   0  0  0  0  0  0  0  0  0  0  0  0
   63.8070   33.8230   51.0520 C   0  0  0  0  0  0  0  0  0  0  0  0
   64.2600   32.4980   51.0670 C   0  0  0  0  0  0  0  0  0  0  0  0
   63.6480   31.5350   50.2630 C   0  0  0  0  0  0  0  0  0  0  0  0
   62.5680   31.8780   49.4340 C   0  0  0  0  0  0  0  0  0  0  0  0
   61.9330   30.8180   48.5760 C   0  0  0  0  0  0  0  0  0  0  0  0
   62.0740   33.2030   49.4550 C   0  0  0  0  0  0  0  0  0  0  0  0
   60.9470   33.5840   48.6470 N   0  0  0  0  0  0  0  0  0  0  0  0
   59.6030   33.5640   49.2290 C   0  0  0  0  0  0  0  0  0  0  0  0
   58.7180   32.4490   48.6490 C   0  0  0  0  0  0  0  0  0  0  0  0
   58.1630   32.6780   47.2270 C   0  0  0  0  0  0  0  0  0  0  0  0
   59.1460   33.1200   46.2070 N   0  0  1  0  0  0  0  0  0  0  0  0
   58.6400   33.0780   44.8440 C   0  0  0  0  0  0  0  0  0  0  0  0
   58.7180   34.1020   44.1110 O   0  0  0  0  0  0  0  0  0  0  0  0
   58.0010   31.8550   44.2720 C   0  0  0  0  0  0  0  0  0  0  0  0
   57.3610   31.8640   43.0170 C   0  0  0  0  0  0  0  0  0  0  0  0
   56.7740   30.7020   42.5140 C   0  0  0  0  0  0  0  0  0  0  0  0
   56.8250   29.5130   43.2400 C   0  0  0  0  0  0  0  0  0  0  0  0
   57.4840   29.4700   44.4780 C   0  0  0  0  0  0  0  0  0  0  0  0
   57.5380   28.2270   45.2790 C   0  0  0  0  0  0  0  0  0  0  0  0
   56.4310   27.5440   45.5500 O   0  0  0  0  0  0  0  0  0  0  0  0
   56.6390   26.4600   46.2660 C   0  0  0  0  0  0  0  0  0  0  0  0
   55.7190   25.6790   46.6210 O   0  0  0  0  0  0  0  0  0  0  0  0
   58.2620   26.2530   46.6450 S   0  0  0  0  0  0  0  0  0  0  0  0
   58.6980   27.6630   45.8330 C   0  0  0  0  0  0  0  0  0  0  0  0
   60.0970   28.1910   45.7710 C   0  0  0  0  0  0  0  0  0  0  0  0
   58.0530   30.6450   44.9930 C   0  0  0  0  0  0  0  0  0  0  0  0
   59.8490   34.3820   46.5570 C   0  0  0  0  0  0  0  0  0  0  0  0
   61.1560   34.2400   47.3540 C   0  0  0  0  0  0  0  0  0  0  0  0
   62.7050   34.1660   50.2550 C   0  0  0  0  0  0  0  0  0  0  0  0
   64.2773   34.5781   52.9937 H   0  0  0  0  0  0  0  0  0  0  0  0
   65.5270   34.8857   51.7405 H   0  0  0  0  0  0  0  0  0  0  0  0
   64.0022   35.8353   51.7405 H   0  0  0  0  0  0  0  0  0  0  0  0
   65.1022   32.2148   51.7155 H   0  0  0  0  0  0  0  0  0  0  0  0
   64.0151   30.4982   50.2790 H   0  0  0  0  0  0  0  0  0  0  0  0
   61.4742   30.0522   49.2187 H   0  0  0  0  0  0  0  0  0  0  0  0
   61.1597   31.2749   47.9409 H   0  0  0  0  0  0  0  0  0  0  0  0
   62.7007   30.3518   47.9409 H   0  0  0  0  0  0  0  0  0  0  0  0
   59.6927   33.4123   50.3148 H   0  0  0  0  0  0  0  0  0  0  0  0
   59.1243   34.5248   48.9888 H   0  0  0  0  0  0  0  0  0  0  0  0
   59.3146   31.5250   48.6298 H   0  0  0  0  0  0  0  0  0  0  0  0
   57.8343   32.4097   49.3029 H   0  0  0  0  0  0  0  0  0  0  0  0
   57.7225   31.7311   46.8814 H   0  0  0  0  0  0  0  0  0  0  0  0
   57.4418   33.5033   47.3202 H   0  0  0  0  0  0  0  0  0  0  0  0
   59.9200   32.4180   46.2540 H   0  0  0  0  0  0  0  0  0  0  0  0
   57.3237   32.7932   42.4295 H   0  0  0  0  0  0  0  0  0  0  0  0
   56.2675   30.7245   41.5378 H   0  0  0  0  0  0  0  0  0  0  0  0
   56.3473   28.6060   42.8412 H   0  0  0  0  0  0  0  0  0  0  0  0
   60.4799   28.3355   46.7920 H   0  0  0  0  0  0  0  0  0  0  0  0
   60.7368   27.4725   45.2377 H   0  0  0  0  0  0  0  0  0  0  0  0
   60.1025   29.1531   45.2377 H   0  0  0  0  0  0  0  0  0  0  0  0
   58.5476   30.6213   45.9753 H   0  0  0  0  0  0  0  0  0  0  0  0
   60.0849   34.9047   45.6183 H   0  0  0  0  0  0  0  0  0  0  0  0
   59.1602   34.9248   47.2211 H   0  0  0  0  0  0  0  0  0  0  0  0
   61.8673   33.6428   46.7646 H   0  0  0  0  0  0  0  0  0  0  0  0
   61.5454   35.2505   47.5470 H   0  0  0  0  0  0  0  0  0  0  0  0
   62.3321   35.2009   50.2577 H   0  0  0  0  0  0  0  0  0  0  0  0
  1  2  1  0
  2  3  2  0
  3  4  1  0
  4  5  2  0
  5  6  1  0
  5  7  1  0
  7  8  1  0
  8  9  1  0
  9 10  1  0
 10 11  1  0
 11 12  1  0
 12 13  1  0
 13 14  2  0
 13 15  1  0
 15 16  2  0
 16 17  1  0
 17 18  2  0
 18 19  1  0
 19 20  1  0
 20 21  1  0
 21 22  1  0
 22 23  2  0
 22 24  1  0
 24 25  1  0
 25 26  1  0
 19 27  2  0
 12 28  1  0
 28 29  1  0
  7 30  2  0
 30  2  1  0
 29  8  1  0
 27 15  1  0
 25 20  2  0
  1 31  1  0
  1 32  1  0
  1 33  1  0
  3 34  1  0
  4 35  1  0
  6 36  1  0
  6 37  1  0
  6 38  1  0
  9 39  1  0
  9 40  1  0
 10 41  1  0
 10 42  1  0
 11 43  1  0
 11 44  1  0
 12 45  1  6
 16 46  1  0
 17 47  1  0
 18 48  1  0
 26 49  1  0
 26 50  1  0
 26 51  1  0
 27 52  1  0
 28 53  1  0
 28 54  1  0
 29 55  1  0
 29 56  1  0
 30 57  1  0
M  CHG  1  12   1
M  END
>  <UniqueID>  (19) 
19

>  <SMILES>  (19) 
Cc1ccc(C)c(N2CCC[N@@H+](C(=O)c3cccc(-c4oc(=O)sc4C)c3)CC2)c1

>  <Energy>  (19) 
119.20437640965565

>  <Genealogy>  (19) 
Cc1ccc(C)c(N2CCC[NH+](C(=O)c3cccc(-c4oc(=O)sc4C)c3)CC2)c1 (protonated)
Cc1ccc(C)c(N2CCC[N@@H+](C(=O)c3cccc(-c4oc(=O)sc4C)c3)CC2)c1 (chirality)
Cc1ccc(C)c(N2CCC[N@@H+](C(=O)c3cccc(-c4oc(=O)sc4C)c3)CC2)c1 (3D coordinates assigned)
Cc1ccc(C)c(N2CCC[N@@H+](C(=O)c3cccc(-c4oc(=O)sc4C)c3)CC2)c1 (nonaromatic ring conformer: 119.20437640965565 kcal/mol)

>  <smiles>  (19) 
Cc1ccc(C)c(N2CCCN(C(=O)c3cccc(-c4oc(=O)sc4C)c3)CC2)c1

>  <score_type>  (19) 
oracle

>  <origin>  (19) 
adg

>  <m_score__min__energy>  (19) 
-6.6799999999999997

>  <m_primary>  (19) 
energy

$$$$
19:0
     RDKit          3D

 58 61  0  0  0  0  0  0  0  0999 V2000
   54.8070   22.2150   45.2840 C   0  0  0  0  0  0  0  0  0  0  0  0
   55.9870   22.3940   44.4210 N   0  0  0  0  0  0  0  0  0  0  0  0
   57.2360   22.0240   45.1270 C   0  0  0  0  0  0  0  0  0  0  0  0
   57.8510   23.1970   45.9060 C   0  0  0  0  0  0  0  0  0  0  0  0
   57.9720   24.3880   45.0600 N   0  0  0  0  0  0  0  0  0  0  0  0
   58.8070   25.4790   45.4860 C   0  0  0  0  0  0  0  0  0  0  0  0
   59.9330   25.2320   45.9940 O   0  0  0  0  0  0  0  0  0  0  0  0
   58.3630   26.8860   45.3530 C   0  0  0  0  0  0  0  0  0  0  0  0
   58.2320   27.6980   46.4940 C   0  0  0  0  0  0  0  0  0  0  0  0
   57.8020   29.0230   46.3740 C   0  0  0  0  0  0  0  0  0  0  0  0
   57.5060   29.5610   45.1100 C   0  0  0  0  0  0  0  0  0  0  0  0
   57.0200   30.9040   44.9590 N   0  0  0  0  0  0  0  0  0  0  0  0
   57.5900   31.9850   45.4030 C   0  0  0  0  0  0  0  0  0  0  0  0
   58.3590   31.9850   46.5110 N   0  0  0  0  0  0  0  0  0  0  0  0
   58.8170   33.2300   46.8240 C   0  0  0  0  0  0  0  0  0  0  0  0
   59.6830   33.4540   48.0120 C   0  0  0  0  0  0  0  0  0  0  0  0
   60.9810   33.9800   47.8810 C   0  0  0  0  0  0  0  0  0  0  0  0
   61.7670   34.1740   49.0150 C   0  0  0  0  0  0  0  0  0  0  0  0
   61.2660   33.8470   50.2720 C   0  0  0  0  0  0  0  0  0  0  0  0
   59.9730   33.3210   50.3820 C   0  0  0  0  0  0  0  0  0  0  0  0
   59.4100   32.9700   51.7340 C   0  0  0  0  0  0  0  0  0  0  0  0
   58.0470   32.4480   51.6180 N   0  0  0  0  0  0  0  0  0  0  0  0
   58.0370   30.7540   51.2120 S   0  0  0  0  0  0  0  0  0  0  0  0
   59.3870   29.8870   51.9880 C   0  0  0  0  0  0  0  0  0  0  0  0
   58.1770   30.6190   49.7230 O   0  0  0  0  0  0  0  0  0  0  0  0
   56.7350   30.1320   51.6340 O   0  0  0  0  0  0  0  0  0  0  0  0
   59.2190   33.1350   49.2590 N   0  0  0  0  0  0  0  0  0  0  0  0
   58.3870   34.2380   45.9540 C   0  0  0  0  0  0  0  0  0  0  0  0
   57.4160   33.5380   44.7730 S   0  0  0  0  0  0  0  0  0  0  0  0
   57.5880   28.7390   43.9810 C   0  0  0  0  0  0  0  0  0  0  0  0
   58.0200   27.4150   44.0980 C   0  0  0  0  0  0  0  0  0  0  0  0
   57.3840   24.3720   43.7180 C   0  0  0  0  0  0  0  0  0  0  0  0
   55.9900   23.7400   43.7880 C   0  0  0  0  0  0  0  0  0  0  0  0
   55.1140   22.2616   46.3393 H   0  0  0  0  0  0  0  0  0  0  0  0
   54.0781   23.0129   45.0786 H   0  0  0  0  0  0  0  0  0  0  0  0
   54.3475   21.2369   45.0786 H   0  0  0  0  0  0  0  0  0  0  0  0
   57.0123   21.2116   45.8341 H   0  0  0  0  0  0  0  0  0  0  0  0
   57.9666   21.7135   44.3656 H   0  0  0  0  0  0  0  0  0  0  0  0
   57.2085   23.4322   46.7673 H   0  0  0  0  0  0  0  0  0  0  0  0
   58.8567   22.9038   46.2417 H   0  0  0  0  0  0  0  0  0  0  0  0
   58.4693   27.2881   47.4868 H   0  0  0  0  0  0  0  0  0  0  0  0
   57.6949   29.6473   47.2733 H   0  0  0  0  0  0  0  0  0  0  0  0
   61.3743   34.2374   46.8865 H   0  0  0  0  0  0  0  0  0  0  0  0
   62.7825   34.5852   48.9171 H   0  0  0  0  0  0  0  0  0  0  0  0
   61.8807   34.0005   51.1712 H   0  0  0  0  0  0  0  0  0  0  0  0
   60.0486   32.2063   52.2018 H   0  0  0  0  0  0  0  0  0  0  0  0
   59.3838   33.8817   52.3490 H   0  0  0  0  0  0  0  0  0  0  0  0
   59.2848   29.9526   53.0813 H   0  0  0  0  0  0  0  0  0  0  0  0
   59.3694   28.8309   51.6808 H   0  0  0  0  0  0  0  0  0  0  0  0
   60.3401   30.3423   51.6808 H   0  0  0  0  0  0  0  0  0  0  0  0
   58.2550   32.7440   49.3690 H   0  0  0  0  0  0  0  0  0  0  0  0
   58.6407   35.3057   46.0297 H   0  0  0  0  0  0  0  0  0  0  0  0
   57.3105   29.1376   42.9940 H   0  0  0  0  0  0  0  0  0  0  0  0
   58.0919   26.7827   43.2007 H   0  0  0  0  0  0  0  0  0  0  0  0
   57.3029   25.4015   43.3392 H   0  0  0  0  0  0  0  0  0  0  0  0
   58.0227   23.7858   43.0409 H   0  0  0  0  0  0  0  0  0  0  0  0
   55.3349   24.4026   44.3727 H   0  0  0  0  0  0  0  0  0  0  0  0
   55.6358   23.6153   42.7541 H   0  0  0  0  0  0  0  0  0  0  0  0
  1  2  1  0
  2  3  1  0
  3  4  1  0
  4  5  1  0
  5  6  1  0
  6  7  2  0
  6  8  1  0
  8  9  2  0
  9 10  1  0
 10 11  2  0
 11 12  1  0
 12 13  2  3
 13 14  1  0
 14 15  1  0
 15 16  1  0
 16 17  2  0
 17 18  1  0
 18 19  2  0
 19 20  1  0
 20 21  1  0
 21 22  1  0
 22 23  1  0
 23 24  1  0
 23 25  2  0
 23 26  2  0
 20 27  2  0
 15 28  2  0
 28 29  1  0
 11 30  1  0
 30 31  2  0
  5 32  1  0
 32 33  1  0
 33  2  1  0
 31  8  1  0
 29 13  1  0
 27 16  1  0
  1 34  1  0
  1 35  1  0
  1 36  1  0
  3 37  1  0
  3 38  1  0
  4 39  1  0
  4 40  1  0
  9 41  1  0
 10 42  1  0
 17 43  1  0
 18 44  1  0
 19 45  1  0
 21 46  1  0
 21 47  1  0
 24 48  1  0
 24 49  1  0
 24 50  1  0
 27 51  1  0
 28 52  1  0
 30 53  1  0
 31 54  1  0
 32 55  1  0
 32 56  1  0
 33 57  1  0
 33 58  1  0
M  CHG  3  14  -1  22  -1  27   1
M  END
>  <UniqueID>  (20) 
20

>  <SMILES>  (20) 
CN1CCN(C(=O)c2ccc(N=c3[n-]c(-c4cccc(C[N-]S(C)(=O)=O)[nH+]4)cs3)cc2)CC1

>  <Energy>  (20) 
106.98399910481655

>  <Genealogy>  (20) 
CN1CCN(C(=O)c2ccc(N=c3[n-]c(-c4cccc(C[N-]S(C)(=O)=O)[nH+]4)cs3)cc2)CC1 (protonated)
CN1CCN(C(=O)c2ccc(N=c3[n-]c(-c4cccc(C[N-]S(C)(=O)=O)[nH+]4)cs3)cc2)CC1 (3D coordinates assigned)
CN1CCN(C(=O)c2ccc(N=c3[n-]c(-c4cccc(C[N-]S(C)(=O)=O)[nH+]4)cs3)cc2)CC1 (nonaromatic ring conformer: 106.98399910481655 kcal/mol)

>  <smiles>  (20) 
CN1CCN(C(=O)c2ccc(N=c3[nH]c(-c4cccc(CNS(C)(=O)=O)n4)cs3)cc2)CC1

>  <score_type>  (20) 
oracle

>  <origin>  (20) 
adg

>  <m_score__min__energy>  (20) 
-11.1

>  <m_primary>  (20) 
energy

$$$$
20:0
     RDKit          3D

 37 39  0  0  0  0  0  0  0  0999 V2000
   56.2000   29.6170   42.9050 O   0  0  0  0  0  0  0  0  0  0  0  0
   56.8710   29.9890   43.9060 C   0  0  0  0  0  0  0  0  0  0  0  0
   56.6890   29.3070   45.2250 C   0  0  0  0  0  0  0  0  0  0  0  0
   57.8020   28.3130   45.4550 C   0  0  0  0  0  0  0  0  0  0  0  0
   59.0680   28.7700   45.2510 N   0  0  0  0  0  0  0  0  0  0  0  0
   60.1720   28.0220   45.4870 C   0  0  0  0  0  0  0  0  0  0  0  0
   60.0440   26.7300   45.9780 C   0  0  0  0  0  0  0  0  0  0  0  0
   58.7700   26.2030   46.2160 C   0  0  0  0  0  0  0  0  0  0  0  0
   58.6500   24.9000   46.7230 C   0  0  0  0  0  0  0  0  0  0  0  0
   57.3950   24.3550   46.9690 C   0  0  0  0  0  0  0  0  0  0  0  0
   56.2470   25.0970   46.7080 C   0  0  0  0  0  0  0  0  0  0  0  0
   56.3370   26.3980   46.2000 C   0  0  0  0  0  0  0  0  0  0  0  0
   55.1470   27.0660   45.9500 O   0  0  0  0  0  0  0  0  0  0  0  0
   57.6090   26.9850   45.9500 C   0  0  0  0  0  0  0  0  0  0  0  0
   57.7870   31.0410   43.7990 O   0  0  0  0  0  0  0  0  0  0  0  0
   57.3960   32.4090   43.8510 C   0  0  0  0  0  0  0  0  0  0  0  0
   58.0090   33.0570   45.0620 C   0  0  0  0  0  0  0  0  0  0  0  0
   58.7620   34.2370   44.9400 C   0  0  0  0  0  0  0  0  0  0  0  0
   59.2690   34.8700   46.0790 C   0  0  0  0  0  0  0  0  0  0  0  0
   59.0190   34.3350   47.3510 C   0  0  0  0  0  0  0  0  0  0  0  0
   59.5110   34.9620   48.4940 O   0  0  0  0  0  0  0  0  0  0  0  0
   58.2610   33.1670   47.4760 C   0  0  0  0  0  0  0  0  0  0  0  0
   57.7520   32.5330   46.3390 C   0  0  0  0  0  0  0  0  0  0  0  0
   56.7015   30.0589   46.0278 H   0  0  0  0  0  0  0  0  0  0  0  0
   55.7263   28.7748   45.2245 H   0  0  0  0  0  0  0  0  0  0  0  0
   61.1707   28.4385   45.2895 H   0  0  0  0  0  0  0  0  0  0  0  0
   60.9395   26.1236   46.1789 H   0  0  0  0  0  0  0  0  0  0  0  0
   59.5536   24.3068   46.9268 H   0  0  0  0  0  0  0  0  0  0  0  0
   57.3092   23.3347   47.3710 H   0  0  0  0  0  0  0  0  0  0  0  0
   55.2582   24.6562   46.9031 H   0  0  0  0  0  0  0  0  0  0  0  0
   57.7428   32.9248   42.9434 H   0  0  0  0  0  0  0  0  0  0  0  0
   56.2998   32.4762   43.9130 H   0  0  0  0  0  0  0  0  0  0  0  0
   58.9534   34.6644   43.9447 H   0  0  0  0  0  0  0  0  0  0  0  0
   59.8649   35.7890   45.9772 H   0  0  0  0  0  0  0  0  0  0  0  0
   59.0150   35.7300   48.9310 H   0  0  0  0  0  0  0  0  0  0  0  0
   58.0644   32.7454   48.4728 H   0  0  0  0  0  0  0  0  0  0  0  0
   57.1477   31.6200   46.4451 H   0  0  0  0  0  0  0  0  0  0  0  0
  1  2  2  0
  2  3  1  0
  3  4  1  0
  4  5  2  0
  5  6  1  0
  6  7  2  0
  7  8  1  0
  8  9  2  0
  9 10  1  0
 10 11  2  0
 11 12  1  0
 12 13  1  0
 12 14  2  0
  2 15  1  0
 15 16  1  0
 16 17  1  0
 17 18  2  0
 18 19  1  0
 19 20  2  0
 20 21  1  0
 20 22  1  0
 22 23  2  0
 14  4  1  0
 23 17  1  0
 14  8  1  0
  3 24  1  0
  3 25  1  0
  6 26  1  0
  7 27  1  0
  9 28  1  0
 10 29  1  0
 11 30  1  0
 16 31  1  0
 16 32  1  0
 18 33  1  0
 19 34  1  0
 21 35  1  0
 22 36  1  0
 23 37  1  0
M  CHG  1  13  -1
M  END
>  <UniqueID>  (21) 
21

>  <SMILES>  (21) 
O=C(Cc1nccc2cccc([O-])c12)OCc1ccc(O)cc1

>  <Energy>  (21) 
42.05272489255368

>  <Genealogy>  (21) 
O=C(Cc1nccc2cccc([O-])c12)OCc1ccc(O)cc1 (protonated)
O=C(Cc1nccc2cccc([O-])c12)OCc1ccc(O)cc1 (3D coordinates assigned)
O=C(Cc1nccc2cccc([O-])c12)OCc1ccc(O)cc1 (optimized conformer: 42.05272489255368 kcal/mol)

>  <smiles>  (21) 
O=C(Cc1nccc2cccc(O)c12)OCc1ccc(O)cc1

>  <score_type>  (21) 
oracle

>  <origin>  (21) 
adg

>  <m_score__min__energy>  (21) 
-10.529999999999999

>  <m_primary>  (21) 
energy

$$$$
21:0
     RDKit          3D

 42 44  0  0  0  0  0  0  0  0999 V2000
   58.5735   31.9587   46.3999 H   0  0  0  0  0  0  0  0  0  0  0  0
   58.0100   31.1100   45.9850 C   0  0  0  0  0  0  0  0  0  0  0  0
   57.8006   30.2301   46.6111 H   0  0  0  0  0  0  0  0  0  0  0  0
   57.5780   31.1480   44.7150 C   0  0  0  0  0  0  0  0  0  0  0  0
   56.8500   30.1520   44.0400 C   0  0  0  0  0  0  0  0  0  0  0  0
   56.2550   29.0300   44.4910 C   0  0  0  0  0  0  0  0  0  0  0  0
   55.2157   28.8540   44.1766 H   0  0  0  0  0  0  0  0  0  0  0  0
   56.8690   28.0200   45.3650 C   0  0  0  0  0  0  0  0  0  0  0  0
   56.2450   26.9630   45.9940 C   0  0  0  0  0  0  0  0  0  0  0  0
   54.8790   26.7120   45.9980 O   0  0  0  0  0  0  0  0  0  0  0  0
   57.1530   26.1700   46.5940 N   0  0  0  0  0  0  0  0  0  0  0  0
   58.3250   26.7660   46.2850 C   0  0  0  0  0  0  0  0  0  0  0  0
   59.4390   26.3170   46.6600 O   0  0  0  0  0  0  0  0  0  0  0  0
   58.1940   27.8740   45.5320 N   0  0  0  0  0  0  0  0  0  0  0  0
   58.9550   28.4820   45.1540 H   0  0  0  0  0  0  0  0  0  0  0  0
   56.8170   30.5310   42.7090 C   0  0  0  0  0  0  0  0  0  0  0  0
   56.3635   29.9692   41.8791 H   0  0  0  0  0  0  0  0  0  0  0  0
   57.4610   31.7470   42.6220 C   0  0  0  0  0  0  0  0  0  0  0  0
   57.6160   32.5330   41.3530 C   0  0  0  0  0  0  0  0  0  0  0  0
   57.8235   33.5854   41.5966 H   0  0  0  0  0  0  0  0  0  0  0  0
   58.4502   32.1211   40.7661 H   0  0  0  0  0  0  0  0  0  0  0  0
   56.6879   32.4686   40.7661 H   0  0  0  0  0  0  0  0  0  0  0  0
   57.9100   32.1360   43.8380 N   0  0  0  0  0  0  0  0  0  0  0  0
   58.6990   33.3470   44.1120 C   0  0  0  0  0  0  0  0  0  0  0  0
   59.7302   33.0583   44.3636 H   0  0  0  0  0  0  0  0  0  0  0  0
   58.6926   33.9865   43.2170 H   0  0  0  0  0  0  0  0  0  0  0  0
   58.1070   34.1090   45.2570 C   0  0  0  0  0  0  0  0  0  0  0  0
   56.8930   34.4460   45.2210 O   0  0  0  0  0  0  0  0  0  0  0  0
   58.9560   34.5800   46.3110 N   0  0  0  0  0  0  0  0  0  0  0  0
   60.0130   34.0330   46.8520 C   0  0  0  0  0  0  0  0  0  0  0  0
   61.1970   34.2270   46.2090 N   0  0  0  0  0  0  0  0  0  0  0  0
   62.3840   33.7700   46.6840 C   0  0  0  0  0  0  0  0  0  0  0  0
   63.3102   33.9519   46.1191 H   0  0  0  0  0  0  0  0  0  0  0  0
   62.4270   33.0720   47.8850 C   0  0  0  0  0  0  0  0  0  0  0  0
   63.3888   32.7318   48.2963 H   0  0  0  0  0  0  0  0  0  0  0  0
   61.2390   32.8080   48.5620 C   0  0  0  0  0  0  0  0  0  0  0  0
   61.2663   32.2520   49.5107 H   0  0  0  0  0  0  0  0  0  0  0  0
   60.0040   33.2440   48.0470 C   0  0  0  0  0  0  0  0  0  0  0  0
   58.7580   32.7540   48.7440 C   0  0  0  0  0  0  0  0  0  0  0  0
   58.9010   32.8102   49.8332 H   0  0  0  0  0  0  0  0  0  0  0  0
   57.9038   33.3832   48.4534 H   0  0  0  0  0  0  0  0  0  0  0  0
   58.5612   31.7115   48.4534 H   0  0  0  0  0  0  0  0  0  0  0  0
  1  2  1  0
  2  3  1  0
  2  4  2  0
  4  5  1  0
  5  6  2  0
  6  7  1  0
  6  8  1  0
  8  9  2  0
  9 10  1  0
  9 11  1  0
 11 12  1  0
 12 13  2  0
 12 14  1  0
 14 15  1  0
  5 16  1  0
 16 17  1  0
 16 18  2  0
 18 19  1  0
 19 20  1  0
 19 21  1  0
 19 22  1  0
 18 23  1  0
 23 24  1  0
 24 25  1  0
 24 26  1  0
 24 27  1  0
 27 28  2  0
 27 29  1  0
 29 30  2  3
 30 31  1  0
 31 32  1  0
 32 33  1  0
 32 34  2  0
 34 35  1  0
 34 36  1  0
 36 37  1  0
 36 38  2  0
 38 39  1  0
 39 40  1  0
 39 41  1  0
 39 42  1  0
 23  4  1  0
 38 30  1  0
 14  8  1  0
M  CHG  3  10  -1  11  -1  31  -1
M  END
>  <UniqueID>  (22) 
22

>  <SMILES>  (22) 
C=c1/c(=C\c2[nH]c(=O)[n-]c2[O-])cc(C)n1CC(=O)N=c1[n-]cccc1C

>  <Energy>  (22) 
130.60375817586643

>  <Genealogy>  (22) 
C=c1c(=Cc2[nH]c(=O)[n-]c2[O-])cc(C)n1CC(=O)N=c1[n-]cccc1C (protonated)
C=c1/c(=C\c2[nH]c(=O)[n-]c2[O-])cc(C)n1CC(=O)N=c1[n-]cccc1C (cis-trans isomerization)
C=c1/c(=C\c2[nH]c(=O)[n-]c2[O-])cc(C)n1CC(=O)N=c1[n-]cccc1C (3D coordinates assigned)
C=c1/c(=C\c2[nH]c(=O)[n-]c2[O-])cc(C)n1CC(=O)N=c1[n-]cccc1C (optimized conformer: 130.60375817586643 kcal/mol)

>  <smiles>  (22) 
C=c1c(=Cc2[nH]c(=O)[nH]c2O)cc(C)n1CC(=O)N=c1[nH]cccc1C

>  <score_type>  (22) 
oracle

>  <origin>  (22) 
adg

>  <m_score__min__energy>  (22) 
-14.85

>  <m_primary>  (22) 
energy

$$$$
22:0
     RDKit          3D

 64 68  0  0  0  0  0  0  0  0999 V2000
   56.5710   29.3950   44.6850 C   0  0  0  0  0  0  0  0  0  0  0  0
   57.8030   29.1170   45.1430 C   0  0  0  0  0  0  0  0  0  0  0  0
   58.4080   27.8530   45.1910 C   0  0  0  0  0  0  0  0  0  0  0  0
   57.8390   26.6720   44.8610 C   0  0  0  0  0  0  0  0  0  0  0  0
   57.2520   25.6980   45.8120 C   0  0  0  0  0  0  0  0  0  0  0  0
   57.8860   24.6240   46.3180 N   0  0  0  0  0  0  0  0  0  0  0  0
   56.9510   24.0320   47.0890 C   0  0  0  0  0  0  0  0  0  0  0  0
   57.1770   22.9800   47.7410 O   0  0  0  0  0  0  0  0  0  0  0  0
   55.7560   24.6540   47.1040 N   0  0  0  0  0  0  0  0  0  0  0  0
   55.9550   25.7050   46.2910 C   0  0  0  0  0  0  0  0  0  0  0  0
   54.9600   26.6360   46.0030 O   0  0  0  0  0  0  0  0  0  0  0  0
   59.7010   28.0660   45.6550 C   0  0  0  0  0  0  0  0  0  0  0  0
   59.8260   29.4200   45.8840 C   0  0  0  0  0  0  0  0  0  0  0  0
   61.0840   30.0880   46.3530 C   0  0  0  0  0  0  0  0  0  0  0  0
   58.6720   30.0590   45.5870 N   0  0  0  0  0  0  0  0  0  0  0  0
   58.4410   31.4770   45.7140 C   0  0  0  0  0  0  0  0  0  0  0  0
   58.0740   32.2130   44.5750 C   0  0  0  0  0  0  0  0  0  0  0  0
   57.8020   33.5780   44.6710 C   0  0  0  0  0  0  0  0  0  0  0  0
   57.8850   34.2230   45.9050 C   0  0  0  0  0  0  0  0  0  0  0  0
   58.2470   33.5060   47.0470 C   0  0  0  0  0  0  0  0  0  0  0  0
   58.5460   32.1360   46.9640 C   0  0  0  0  0  0  0  0  0  0  0  0
   58.9290   31.4160   48.1990 C   0  0  0  0  0  0  0  0  0  0  0  0
   58.5080   30.2380   48.3670 O   0  0  0  0  0  0  0  0  0  0  0  0
   59.7570   32.0270   49.2070 N   0  0  0  0  0  0  0  0  0  0  0  0
   59.6460   33.4560   49.5180 C   0  0  0  0  0  0  0  0  0  0  0  0
   59.3340   33.6680   51.0170 C   0  0  0  0  0  0  0  0  0  0  0  0
   59.8070   32.5670   51.9060 N   0  0  0  0  0  0  0  0  0  0  0  0
   58.7030   31.6460   52.3260 C   0  0  0  0  0  0  0  0  0  0  0  0
   58.2270   31.8940   53.7810 C   0  0  0  0  0  0  0  0  0  0  0  0
   57.0060   31.0170   54.1480 C   0  0  0  0  0  0  0  0  0  0  0  0
   56.3270   30.4830   53.0240 O   0  0  0  0  0  0  0  0  0  0  0  0
   56.1450   31.4850   52.0500 C   0  0  0  0  0  0  0  0  0  0  0  0
   57.4850   31.8070   51.3700 C   0  0  0  0  0  0  0  0  0  0  0  0
   61.0040   31.9060   51.3320 C   0  0  0  0  0  0  0  0  0  0  0  0
   60.6680   31.2030   50.0080 C   0  0  0  0  0  0  0  0  0  0  0  0
   56.2006   30.4307   44.6967 H   0  0  0  0  0  0  0  0  0  0  0  0
   55.9327   28.5869   44.2983 H   0  0  0  0  0  0  0  0  0  0  0  0
   57.8089   26.4108   43.7929 H   0  0  0  0  0  0  0  0  0  0  0  0
   55.1490   27.4840   45.4860 H   0  0  0  0  0  0  0  0  0  0  0  0
   60.4760   27.3009   45.8098 H   0  0  0  0  0  0  0  0  0  0  0  0
   61.1051   30.0992   47.4527 H   0  0  0  0  0  0  0  0  0  0  0  0
   61.9560   29.5341   45.9751 H   0  0  0  0  0  0  0  0  0  0  0  0
   61.1136   31.1206   45.9751 H   0  0  0  0  0  0  0  0  0  0  0  0
   58.0005   31.7091   43.5999 H   0  0  0  0  0  0  0  0  0  0  0  0
   57.5216   34.1465   43.7720 H   0  0  0  0  0  0  0  0  0  0  0  0
   57.6649   35.2982   45.9785 H   0  0  0  0  0  0  0  0  0  0  0  0
   58.2985   34.0179   48.0193 H   0  0  0  0  0  0  0  0  0  0  0  0
   60.5962   33.9533   49.2734 H   0  0  0  0  0  0  0  0  0  0  0  0
   58.8259   33.8841   48.9228 H   0  0  0  0  0  0  0  0  0  0  0  0
   59.8161   34.6024   51.3401 H   0  0  0  0  0  0  0  0  0  0  0  0
   58.2382   33.6973   51.1088 H   0  0  0  0  0  0  0  0  0  0  0  0
   59.1121   30.6262   52.2753 H   0  0  0  0  0  0  0  0  0  0  0  0
   59.0523   31.6600   54.4696 H   0  0  0  0  0  0  0  0  0  0  0  0
   57.9259   32.9486   53.8653 H   0  0  0  0  0  0  0  0  0  0  0  0
   57.3545   30.1809   54.7722 H   0  0  0  0  0  0  0  0  0  0  0  0
   56.2917   31.6665   54.6752 H   0  0  0  0  0  0  0  0  0  0  0  0
   55.4284   31.1320   51.2938 H   0  0  0  0  0  0  0  0  0  0  0  0
   55.7587   32.3937   52.5348 H   0  0  0  0  0  0  0  0  0  0  0  0
   57.6173   31.1273   50.5153 H   0  0  0  0  0  0  0  0  0  0  0  0
   57.4503   32.8600   51.0537 H   0  0  0  0  0  0  0  0  0  0  0  0
   61.7797   32.6642   51.1491 H   0  0  0  0  0  0  0  0  0  0  0  0
   61.3617   31.1505   52.0470 H   0  0  0  0  0  0  0  0  0  0  0  0
   61.5959   31.0341   49.4420 H   0  0  0  0  0  0  0  0  0  0  0  0
   60.1789   30.2427   50.2286 H   0  0  0  0  0  0  0  0  0  0  0  0
  1  2  2  0
  2  3  1  0
  3  4  2  3
  4  5  1  0
  5  6  1  0
  6  7  1  0
  7  8  2  0
  7  9  1  0
  9 10  1  0
 10 11  1  0
  3 12  1  0
 12 13  2  0
 13 14  1  0
 13 15  1  0
 15 16  1  0
 16 17  2  0
 17 18  1  0
 18 19  2  0
 19 20  1  0
 20 21  2  0
 21 22  1  0
 22 23  2  0
 22 24  1  0
 24 25  1  0
 25 26  1  0
 26 27  1  0
 27 28  1  0
 28 29  1  0
 29 30  1  0
 30 31  1  0
 31 32  1  0
 32 33  1  0
 27 34  1  0
 34 35  1  0
 15  2  1  0
 21 16  1  0
 35 24  1  0
 10  5  2  0
 33 28  1  0
  1 36  1  0
  1 37  1  0
  4 38  1  0
 11 39  1  0
 12 40  1  0
 14 41  1  0
 14 42  1  0
 14 43  1  0
 17 44  1  0
 18 45  1  0
 19 46  1  0
 20 47  1  0
 25 48  1  0
 25 49  1  0
 26 50  1  0
 26 51  1  0
 28 52  1  0
 29 53  1  0
 29 54  1  0
 30 55  1  0
 30 56  1  0
 32 57  1  0
 32 58  1  0
 33 59  1  0
 33 60  1  0
 34 61  1  0
 34 62  1  0
 35 63  1  0
 35 64  1  0
M  CHG  2   6  -1   9  -1
M  END
>  <UniqueID>  (23) 
23

>  <SMILES>  (23) 
C=c1c(=Cc2[n-]c(=O)[n-]c2O)cc(C)n1-c1ccccc1C(=O)N1CCN(C2CCOCC2)CC1

>  <Energy>  (23) 
161.34450363148403

>  <Genealogy>  (23) 
C=c1c(=Cc2[n-]c(=O)[n-]c2O)cc(C)n1-c1ccccc1C(=O)N1CCN(C2CCOCC2)CC1 (protonated)
C=c1c(=Cc2[n-]c(=O)[n-]c2O)cc(C)n1-c1ccccc1C(=O)N1CCN(C2CCOCC2)CC1 (3D coordinates assigned)
C=c1c(=Cc2[n-]c(=O)[n-]c2O)cc(C)n1-c1ccccc1C(=O)N1CCN(C2CCOCC2)CC1 (nonaromatic ring conformer: 161.34450363148403 kcal/mol)

>  <smiles>  (23) 
C=c1c(=Cc2[nH]c(=O)[nH]c2O)cc(C)n1-c1ccccc1C(=O)N1CCN(C2CCOCC2)CC1

>  <score_type>  (23) 
oracle

>  <origin>  (23) 
adg

>  <m_score__min__energy>  (23) 
-14.58

>  <m_primary>  (23) 
energy

$$$$
23:0
     RDKit          3D

 63 66  0  0  0  0  0  0  0  0999 V2000
   59.7080   30.4100   45.6910 O   0  0  0  0  0  0  0  0  0  0  0  0
   59.3570   31.0540   46.7160 C   0  0  0  0  0  0  0  0  0  0  0  0
   60.1810   31.0080   47.9470 C   0  0  0  0  0  0  0  0  0  0  0  0
   59.8370   30.4150   49.1010 C   0  0  0  0  0  0  0  0  0  0  0  0
   58.9720   30.9870   50.1570 C   0  0  0  0  0  0  0  0  0  0  0  0
   59.3700   32.1000   50.9160 C   0  0  0  0  0  0  0  0  0  0  0  0
   58.5600   32.5690   51.9560 C   0  0  0  0  0  0  0  0  0  0  0  0
   57.3690   31.9050   52.2730 C   0  0  0  0  0  0  0  0  0  0  0  0
   56.9950   30.7570   51.5700 C   0  0  0  0  0  0  0  0  0  0  0  0
   55.7900   30.0690   51.9380 N   0  0  0  0  0  0  0  0  0  0  0  0
   54.5360   30.7020   52.2640 C   0  0  0  0  0  0  0  0  0  0  0  0
   54.3620   31.1670   53.4300 O   0  0  0  0  0  0  0  0  0  0  0  0
   53.4250   30.8200   51.2510 C   0  0  0  0  0  0  0  0  0  0  0  0
   52.2040   31.4740   51.8300 C   0  0  0  0  0  0  0  0  0  0  0  0
   51.7580   31.2560   53.0820 N   0  0  0  0  0  0  0  0  0  0  0  0
   50.6470   32.0240   53.1580 C   0  0  0  0  0  0  0  0  0  0  0  0
   49.9410   32.0930   54.1980 O   0  0  0  0  0  0  0  0  0  0  0  0
   50.3540   32.7060   52.0320 N   0  0  0  0  0  0  0  0  0  0  0  0
   51.3520   32.3500   51.2000 C   0  0  0  0  0  0  0  0  0  0  0  0
   51.4650   32.7970   49.8880 O   0  0  0  0  0  0  0  0  0  0  0  0
   57.7860   30.3170   50.4930 C   0  0  0  0  0  0  0  0  0  0  0  0
   58.1700   31.8580   46.6420 N   0  0  0  0  0  0  0  0  0  0  0  0
   58.1450   33.3120   46.5130 C   0  0  0  0  0  0  0  0  0  0  0  0
   59.4820   33.8410   45.9790 C   0  0  0  0  0  0  0  0  0  0  0  0
   60.5330   33.8840   47.0600 C   0  0  0  0  0  0  0  0  0  0  0  0
   60.1980   34.2650   48.3690 C   0  0  0  0  0  0  0  0  0  0  0  0
   61.1820   34.3170   49.3640 C   0  0  0  0  0  0  0  0  0  0  0  0
   62.5110   33.9640   49.0690 C   0  0  0  0  0  0  0  0  0  0  0  0
   63.5540   34.0480   50.1180 C   0  0  0  0  0  0  0  0  0  0  0  0
   63.5640   35.0420   50.8960 O   0  0  0  0  0  0  0  0  0  0  0  0
   64.5560   33.0220   50.2700 N   0  0  0  0  0  0  0  0  0  0  0  0
   64.2300   31.6000   50.1110 C   0  0  0  0  0  0  0  0  0  0  0  0
   64.8400   30.8100   51.2770 C   0  0  0  0  0  0  0  0  0  0  0  0
   66.2220   31.0870   51.4070 O   0  0  0  0  0  0  0  0  0  0  0  0
   66.4140   32.4510   51.7510 C   0  0  0  0  0  0  0  0  0  0  0  0
   65.9400   33.3630   50.6170 C   0  0  0  0  0  0  0  0  0  0  0  0
   62.8410   33.5770   47.7580 C   0  0  0  0  0  0  0  0  0  0  0  0
   61.8580   33.5290   46.7640 C   0  0  0  0  0  0  0  0  0  0  0  0
   61.1621   31.5041   47.9118 H   0  0  0  0  0  0  0  0  0  0  0  0
   60.2368   29.4059   49.2792 H   0  0  0  0  0  0  0  0  0  0  0  0
   60.3215   32.6044   50.6920 H   0  0  0  0  0  0  0  0  0  0  0  0
   58.8596   33.4611   52.5256 H   0  0  0  0  0  0  0  0  0  0  0  0
   56.7254   32.2885   53.0784 H   0  0  0  0  0  0  0  0  0  0  0  0
   53.7811   31.4214   50.4016 H   0  0  0  0  0  0  0  0  0  0  0  0
   53.1475   29.8049   50.9308 H   0  0  0  0  0  0  0  0  0  0  0  0
   52.3610   33.0800   49.5120 H   0  0  0  0  0  0  0  0  0  0  0  0
   57.4717   29.4395   49.9089 H   0  0  0  0  0  0  0  0  0  0  0  0
   57.3420   33.5974   45.8175 H   0  0  0  0  0  0  0  0  0  0  0  0
   57.9681   33.7484   47.5071 H   0  0  0  0  0  0  0  0  0  0  0  0
   59.8291   33.1820   45.1695 H   0  0  0  0  0  0  0  0  0  0  0  0
   59.3246   34.8655   45.6109 H   0  0  0  0  0  0  0  0  0  0  0  0
   59.1574   34.5240   48.6143 H   0  0  0  0  0  0  0  0  0  0  0  0
   60.9139   34.6358   50.3821 H   0  0  0  0  0  0  0  0  0  0  0  0
   63.1376   31.4706   50.1103 H   0  0  0  0  0  0  0  0  0  0  0  0
   64.6398   31.2306   49.1593 H   0  0  0  0  0  0  0  0  0  0  0  0
   64.3274   31.0902   52.2090 H   0  0  0  0  0  0  0  0  0  0  0  0
   64.7143   29.7356   51.0772 H   0  0  0  0  0  0  0  0  0  0  0  0
   65.8407   32.6785   52.6618 H   0  0  0  0  0  0  0  0  0  0  0  0
   67.4862   32.6264   51.9233 H   0  0  0  0  0  0  0  0  0  0  0  0
   65.9895   34.4122   50.9436 H   0  0  0  0  0  0  0  0  0  0  0  0
   66.5861   33.2252   49.7375 H   0  0  0  0  0  0  0  0  0  0  0  0
   63.8795   33.3101   47.5124 H   0  0  0  0  0  0  0  0  0  0  0  0
   62.1249   33.2114   45.7452 H   0  0  0  0  0  0  0  0  0  0  0  0
  1  2  2  0
  2  3  1  0
  3  4  2  3
  4  5  1  0
  5  6  2  0
  6  7  1  0
  7  8  2  0
  8  9  1  0
  9 10  1  0
 10 11  1  0
 11 12  2  0
 11 13  1  0
 13 14  1  0
 14 15  1  0
 15 16  1  0
 16 17  2  0
 16 18  1  0
 18 19  1  0
 19 20  1  0
  9 21  2  0
  2 22  1  0
 22 23  1  0
 23 24  1  0
 24 25  1  0
 25 26  2  0
 26 27  1  0
 27 28  2  0
 28 29  1  0
 29 30  2  0
 29 31  1  0
 31 32  1  0
 32 33  1  0
 33 34  1  0
 34 35  1  0
 35 36  1  0
 28 37  1  0
 37 38  2  0
 21  5  1  0
 38 25  1  0
 19 14  2  0
 36 31  1  0
  3 39  1  0
  4 40  1  0
  6 41  1  0
  7 42  1  0
  8 43  1  0
 13 44  1  0
 13 45  1  0
 20 46  1  0
 21 47  1  0
 23 48  1  0
 23 49  1  0
 24 50  1  0
 24 51  1  0
 26 52  1  0
 27 53  1  0
 32 54  1  0
 32 55  1  0
 33 56  1  0
 33 57  1  0
 35 58  1  0
 35 59  1  0
 36 60  1  0
 36 61  1  0
 37 62  1  0
 38 63  1  0
M  CHG  4  10  -1  15  -1  18  -1  22  -1
M  END
>  <UniqueID>  (24) 
24

>  <SMILES>  (24) 
O=C(C=Cc1cccc([N-]C(=O)Cc2[n-]c(=O)[n-]c2O)c1)[N-]CCc1ccc(C(=O)N2CCOCC2)cc1

>  <Energy>  (24) 
111.03606078811373

>  <Genealogy>  (24) 
O=C(C=Cc1cccc([N-]C(=O)Cc2[n-]c(=O)[n-]c2O)c1)[N-]CCc1ccc(C(=O)N2CCOCC2)cc1 (protonated)
O=C(C=Cc1cccc([N-]C(=O)Cc2[n-]c(=O)[n-]c2O)c1)[N-]CCc1ccc(C(=O)N2CCOCC2)cc1 (3D coordinates assigned)
O=C(C=Cc1cccc([N-]C(=O)Cc2[n-]c(=O)[n-]c2O)c1)[N-]CCc1ccc(C(=O)N2CCOCC2)cc1 (nonaromatic ring conformer: 111.03606078811373 kcal/mol)

>  <smiles>  (24) 
O=C(C=Cc1cccc(NC(=O)Cc2[nH]c(=O)[nH]c2O)c1)NCCc1ccc(C(=O)N2CCOCC2)cc1

>  <score_type>  (24) 
oracle

>  <origin>  (24) 
adg

>  <m_score__min__energy>  (24) 
-18.649999999999999

>  <m_primary>  (24) 
energy

$$$$
24:0
     RDKit          3D

 74 78  0  0  0  0  0  0  0  0999 V2000
   57.4830   32.6180   40.8770 C   0  0  0  0  0  0  0  0  0  0  0  0
   57.1230   31.5490   41.8060 C   0  0  0  0  0  0  0  0  0  0  0  0
   56.8320   30.6600   42.5660 C   0  0  0  0  0  0  0  0  0  0  0  0
   56.4940   29.5900   43.5090 C   0  0  0  0  0  0  0  0  0  0  0  0
   56.6540   30.0450   44.8510 O   0  0  0  0  0  0  0  0  0  0  0  0
   57.3980   31.1680   45.2540 C   0  0  0  0  0  0  0  0  0  0  0  0
   56.9940   32.4810   44.9480 C   0  0  0  0  0  0  0  0  0  0  0  0
   57.7280   33.5740   45.4130 C   0  0  0  0  0  0  0  0  0  0  0  0
   58.8700   33.3780   46.1970 C   0  0  0  0  0  0  0  0  0  0  0  0
   59.7970   34.7580   46.7880 S   0  0  0  0  0  0  0  0  0  0  0  0
   60.2870   35.5710   45.6210 O   0  0  0  0  0  0  0  0  0  0  0  0
   58.8990   35.6330   47.6190 O   0  0  0  0  0  0  0  0  0  0  0  0
   61.1680   34.2450   47.7430 N   0  0  0  0  0  0  0  0  0  0  0  0
   60.7220   33.4520   48.9030 C   0  0  0  0  0  0  0  0  0  0  0  0
   61.9300   33.0920   49.7670 C   0  0  0  0  0  0  0  0  0  0  0  0
   63.0030   32.3040   48.9760 C   0  0  0  0  0  0  0  0  0  0  0  0
   64.6670   33.0380   49.2260 S   0  0  0  0  0  0  0  0  0  0  0  0
   65.2440   31.7500   50.3370 C   0  0  0  0  0  0  0  0  0  0  0  0
   64.3200   30.9100   50.9730 C   0  0  0  0  0  0  0  0  0  0  0  0
   64.7670   29.9060   51.8380 C   0  0  0  0  0  0  0  0  0  0  0  0
   66.1370   29.7300   52.0640 C   0  0  0  0  0  0  0  0  0  0  0  0
   66.5670   28.7260   52.9290 O   0  0  0  0  0  0  0  0  0  0  0  0
   67.0620   30.5640   51.4190 C   0  0  0  0  0  0  0  0  0  0  0  0
   66.6150   31.5680   50.5550 C   0  0  0  0  0  0  0  0  0  0  0  0
   62.6900   32.2290   47.4690 C   0  0  0  0  0  0  0  0  0  0  0  0
   62.1960   33.5760   46.9050 C   0  0  0  0  0  0  0  0  0  0  0  0
   59.2810   32.0750   46.5030 C   0  0  0  0  0  0  0  0  0  0  0  0
   58.5730   30.9690   46.0070 C   0  0  0  0  0  0  0  0  0  0  0  0
   59.0820   29.6070   46.2720 C   0  0  0  0  0  0  0  0  0  0  0  0
   59.1260   28.7730   45.3280 O   0  0  0  0  0  0  0  0  0  0  0  0
   59.5130   29.2170   47.5880 N   0  0  0  0  0  0  0  0  0  0  0  0
   58.7600   29.6300   48.7790 C   0  0  0  0  0  0  0  0  0  0  0  0
   59.7390   29.8610   49.9250 C   0  0  0  0  0  0  0  0  0  0  0  0
   60.4840   28.6240   50.2520 N   0  0  0  0  0  0  0  0  0  0  0  0
   61.6420   28.7210   51.1770 C   0  0  0  0  0  0  0  0  0  0  0  0
   61.2890   28.5810   52.6530 C   0  0  0  0  0  0  0  0  0  0  0  0
   62.0920   27.4850   51.9590 C   0  0  0  0  0  0  0  0  0  0  0  0
   60.7250   27.6870   49.1270 C   0  0  0  0  0  0  0  0  0  0  0  0
   60.6980   28.3640   47.7450 C   0  0  0  0  0  0  0  0  0  0  0  0
   57.7838   33.5111   41.4444 H   0  0  0  0  0  0  0  0  0  0  0  0
   58.3193   32.2872   40.2436 H   0  0  0  0  0  0  0  0  0  0  0  0
   56.6169   32.8605   40.2436 H   0  0  0  0  0  0  0  0  0  0  0  0
   55.4492   29.2841   43.3516 H   0  0  0  0  0  0  0  0  0  0  0  0
   57.1662   28.7363   43.3378 H   0  0  0  0  0  0  0  0  0  0  0  0
   56.0937   32.6473   44.3382 H   0  0  0  0  0  0  0  0  0  0  0  0
   57.4064   34.5954   45.1614 H   0  0  0  0  0  0  0  0  0  0  0  0
   60.0082   34.0410   49.4975 H   0  0  0  0  0  0  0  0  0  0  0  0
   60.2338   32.5308   48.5523 H   0  0  0  0  0  0  0  0  0  0  0  0
   62.3816   34.0198   50.1482 H   0  0  0  0  0  0  0  0  0  0  0  0
   61.5778   32.4504   50.5881 H   0  0  0  0  0  0  0  0  0  0  0  0
   62.9906   31.2775   49.3710 H   0  0  0  0  0  0  0  0  0  0  0  0
   63.2429   31.0403   50.7918 H   0  0  0  0  0  0  0  0  0  0  0  0
   64.0397   29.2527   52.3422 H   0  0  0  0  0  0  0  0  0  0  0  0
   67.0340   28.9460   53.8020 H   0  0  0  0  0  0  0  0  0  0  0  0
   68.1396   30.4280   51.5931 H   0  0  0  0  0  0  0  0  0  0  0  0
   67.3424   32.2168   50.0451 H   0  0  0  0  0  0  0  0  0  0  0  0
   63.6041   31.9349   46.9323 H   0  0  0  0  0  0  0  0  0  0  0  0
   61.8862   31.4912   47.3291 H   0  0  0  0  0  0  0  0  0  0  0  0
   63.0603   34.2504   46.8149 H   0  0  0  0  0  0  0  0  0  0  0  0
   61.7228   33.3592   45.9359 H   0  0  0  0  0  0  0  0  0  0  0  0
   60.1658   31.9167   47.1371 H   0  0  0  0  0  0  0  0  0  0  0  0
   58.2137   30.5608   48.5664 H   0  0  0  0  0  0  0  0  0  0  0  0
   58.0397   28.8460   49.0557 H   0  0  0  0  0  0  0  0  0  0  0  0
   60.4544   30.6439   49.6331 H   0  0  0  0  0  0  0  0  0  0  0  0
   59.1680   30.1682   50.8136 H   0  0  0  0  0  0  0  0  0  0  0  0
   62.1764   29.4400   50.5386 H   0  0  0  0  0  0  0  0  0  0  0  0
   61.7738   29.2294   53.3977 H   0  0  0  0  0  0  0  0  0  0  0  0
   60.3555   28.6099   53.2342 H   0  0  0  0  0  0  0  0  0  0  0  0
   63.1556   27.3443   52.2017 H   0  0  0  0  0  0  0  0  0  0  0  0
   61.9781   26.3984   51.8311 H   0  0  0  0  0  0  0  0  0  0  0  0
   61.7119   27.2218   49.2672 H   0  0  0  0  0  0  0  0  0  0  0  0
   59.9091   26.9494   49.1410 H   0  0  0  0  0  0  0  0  0  0  0  0
   61.6010   28.9819   47.6317 H   0  0  0  0  0  0  0  0  0  0  0  0
   60.6628   27.5784   46.9759 H   0  0  0  0  0  0  0  0  0  0  0  0
  1  2  1  0
  2  3  3  0
  3  4  1  0
  4  5  1  0
  5  6  1  0
  6  7  2  0
  7  8  1  0
  8  9  2  0
  9 10  1  0
 10 11  2  0
 10 12  2  0
 10 13  1  0
 13 14  1  0
 14 15  1  0
 15 16  1  0
 16 17  1  0
 17 18  1  0
 18 19  2  0
 19 20  1  0
 20 21  2  0
 21 22  1  0
 21 23  1  0
 23 24  2  0
 16 25  1  0
 25 26  1  0
  9 27  1  0
 27 28  2  0
 28 29  1  0
 29 30  2  0
 29 31  1  0
 31 32  1  0
 32 33  1  0
 33 34  1  0
 34 35  1  0
 35 36  1  0
 36 37  1  0
 34 38  1  0
 38 39  1  0
 28  6  1  0
 39 31  1  0
 26 13  1  0
 37 35  1  0
 24 18  1  0
  1 40  1  0
  1 41  1  0
  1 42  1  0
  4 43  1  0
  4 44  1  0
  7 45  1  0
  8 46  1  0
 14 47  1  0
 14 48  1  0
 15 49  1  0
 15 50  1  0
 16 51  1  0
 19 52  1  0
 20 53  1  0
 22 54  1  0
 23 55  1  0
 24 56  1  0
 25 57  1  0
 25 58  1  0
 26 59  1  0
 26 60  1  0
 27 61  1  0
 32 62  1  0
 32 63  1  0
 33 64  1  0
 33 65  1  0
 35 66  1  0
 36 67  1  0
 36 68  1  0
 37 69  1  0
 37 70  1  0
 38 71  1  0
 38 72  1  0
 39 73  1  0
 39 74  1  0
M  END
>  <UniqueID>  (25) 
25

>  <SMILES>  (25) 
CC#CCOc1ccc(S(=O)(=O)N2CCC(Sc3ccc(O)cc3)CC2)cc1C(=O)N1CCN(C2CC2)CC1

>  <Energy>  (25) 
359.4654048868309

>  <Genealogy>  (25) 
CC#CCOc1ccc(S(=O)(=O)N2CCC(Sc3ccc(O)cc3)CC2)cc1C(=O)N1CCN(C2CC2)CC1 (3D coordinates assigned)
CC#CCOc1ccc(S(=O)(=O)N2CCC(Sc3ccc(O)cc3)CC2)cc1C(=O)N1CCN(C2CC2)CC1 (nonaromatic ring conformer: 359.4654048868309 kcal/mol)

>  <smiles>  (25) 
CC#CCOc1ccc(S(=O)(=O)N2CCC(Sc3ccc(O)cc3)CC2)cc1C(=O)N1CCN(C2CC2)CC1

>  <score_type>  (25) 
oracle

>  <origin>  (25) 
adg

>  <m_score__min__energy>  (25) 
-10.279999999999999

>  <m_primary>  (25) 
energy

$$$$
25:0
     RDKit          3D

 28 29  0  0  0  0  0  0  0  0999 V2000
   56.9670   23.9750   45.9160 C   0  0  0  0  0  0  0  0  0  0  0  0
   57.2680   25.2500   45.6950 C   0  0  0  0  0  0  0  0  0  0  0  0
   58.5610   25.7310   45.3630 N   0  0  0  0  0  0  0  0  0  0  0  0
   58.4330   27.1500   45.2140 C   0  0  0  0  0  0  0  0  0  0  0  0
   59.6020   28.0160   44.8540 C   0  0  0  0  0  0  0  0  0  0  0  0
   57.1700   27.5680   45.4290 C   0  0  0  0  0  0  0  0  0  0  0  0
   56.6450   28.9510   45.3650 C   0  0  0  0  0  0  0  0  0  0  0  0
   55.5250   29.1580   44.8260 O   0  0  0  0  0  0  0  0  0  0  0  0
   57.3690   30.0370   45.9560 N   0  0  0  0  0  0  0  0  0  0  0  0
   57.7440   31.2670   45.3200 C   0  0  0  0  0  0  0  0  0  0  0  0
   57.6120   31.4610   43.9310 C   0  0  0  0  0  0  0  0  0  0  0  0
   58.0140   32.6680   43.3490 C   0  0  0  0  0  0  0  0  0  0  0  0
   58.5600   33.6820   44.1400 C   0  0  0  0  0  0  0  0  0  0  0  0
   58.7170   33.4870   45.5160 C   0  0  0  0  0  0  0  0  0  0  0  0
   59.4800   34.8640   46.5960 Br  0  0  0  0  0  0  0  0  0  0  0  0
   58.3170   32.2790   46.1000 C   0  0  0  0  0  0  0  0  0  0  0  0
   56.3690   26.3840   45.7430 C   0  0  0  0  0  0  0  0  0  0  0  0
   55.1370   26.3540   46.0050 O   0  0  0  0  0  0  0  0  0  0  0  0
   55.9353   23.6893   46.1688 H   0  0  0  0  0  0  0  0  0  0  0  0
   57.7495   23.2051   45.8462 H   0  0  0  0  0  0  0  0  0  0  0  0
   59.4320   25.1650   45.2490 H   0  0  0  0  0  0  0  0  0  0  0  0
   60.0882   28.3762   45.7727 H   0  0  0  0  0  0  0  0  0  0  0  0
   60.3225   27.4320   44.2626 H   0  0  0  0  0  0  0  0  0  0  0  0
   59.2533   28.8754   44.2626 H   0  0  0  0  0  0  0  0  0  0  0  0
   57.1920   30.6618   43.3027 H   0  0  0  0  0  0  0  0  0  0  0  0
   57.8999   32.8191   42.2654 H   0  0  0  0  0  0  0  0  0  0  0  0
   58.8663   34.6334   43.6807 H   0  0  0  0  0  0  0  0  0  0  0  0
   58.4540   32.1236   47.1803 H   0  0  0  0  0  0  0  0  0  0  0  0
  1  2  2  0
  2  3  1  0
  3  4  1  0
  4  5  1  0
  4  6  2  0
  6  7  1  0
  7  8  2  0
  7  9  1  0
  9 10  1  0
 10 11  2  0
 11 12  1  0
 12 13  2  0
 13 14  1  0
 14 15  1  0
 14 16  2  0
  6 17  1  0
 17 18  2  0
 17  2  1  0
 16 10  1  0
  1 19  1  0
  1 20  1  0
  3 21  1  0
  5 22  1  0
  5 23  1  0
  5 24  1  0
 11 25  1  0
 12 26  1  0
 13 27  1  0
 16 28  1  0
M  CHG  1   9  -1
M  END
>  <UniqueID>  (26) 
26

>  <SMILES>  (26) 
C=C1NC(C)=C(C(=O)[N-]c2cccc(Br)c2)C1=O

>  <Energy>  (26) 
56.52913505821633

>  <Genealogy>  (26) 
C=C1NC(C)=C(C(=O)[N-]c2cccc(Br)c2)C1=O (protonated)
C=C1NC(C)=C(C(=O)[N-]c2cccc(Br)c2)C1=O (3D coordinates assigned)
C=C1NC(C)=C(C(=O)[N-]c2cccc(Br)c2)C1=O (nonaromatic ring conformer: 56.52913505821633 kcal/mol)

>  <smiles>  (26) 
C=C1NC(C)=C(C(=O)Nc2cccc(Br)c2)C1=O

>  <score_type>  (26) 
oracle

>  <origin>  (26) 
adg

>  <m_score__min__energy>  (26) 
-9.3100000000000005

>  <m_primary>  (26) 
energy

$$$$
26:0
     RDKit          3D

 32 33  0  0  0  0  0  0  0  0999 V2000
   60.8060   34.2360   47.3390 C   0  0  0  0  0  0  0  0  0  0  0  0
   59.6690   35.0600   46.7430 C   0  0  0  0  0  0  0  0  0  0  0  0
   59.2730   34.5270   45.4380 N   0  0  0  0  0  0  0  0  0  0  0  0
   58.6350   33.2500   45.2310 C   0  0  0  0  0  0  0  0  0  0  0  0
   58.1190   32.9430   43.9610 C   0  0  0  0  0  0  0  0  0  0  0  0
   57.4980   31.7140   43.7230 C   0  0  0  0  0  0  0  0  0  0  0  0
   57.3820   30.7720   44.7510 C   0  0  0  0  0  0  0  0  0  0  0  0
   56.6150   29.2180   44.4470 S   0  0  0  0  0  0  0  0  0  0  0  0
   55.1290   29.4080   44.3190 O   0  0  0  0  0  0  0  0  0  0  0  0
   57.1490   28.6360   43.1680 O   0  0  0  0  0  0  0  0  0  0  0  0
   56.9620   28.1520   45.7700 N   0  0  0  0  0  0  0  0  0  0  0  0
   56.7750   26.8680   45.7300 C   0  0  0  0  0  0  0  0  0  0  0  0
   55.5430   26.3640   46.0090 N   0  0  0  0  0  0  0  0  0  0  0  0
   55.3090   25.0270   45.9780 C   0  0  0  0  0  0  0  0  0  0  0  0
   56.3420   24.1470   45.6550 C   0  0  0  0  0  0  0  0  0  0  0  0
   57.6000   24.6770   45.3720 C   0  0  0  0  0  0  0  0  0  0  0  0
   57.7940   26.0210   45.4140 N   0  0  0  0  0  0  0  0  0  0  0  0
   57.9060   31.0640   46.0170 C   0  0  0  0  0  0  0  0  0  0  0  0
   58.5270   32.2920   46.2580 C   0  0  0  0  0  0  0  0  0  0  0  0
   60.7512   34.2757   48.4369 H   0  0  0  0  0  0  0  0  0  0  0  0
   60.7163   33.1918   47.0049 H   0  0  0  0  0  0  0  0  0  0  0  0
   61.7704   34.6463   47.0049 H   0  0  0  0  0  0  0  0  0  0  0  0
   58.8051   35.0286   47.4232 H   0  0  0  0  0  0  0  0  0  0  0  0
   60.0139   36.0963   46.6121 H   0  0  0  0  0  0  0  0  0  0  0  0
   59.4810   35.1180   44.6020 H   0  0  0  0  0  0  0  0  0  0  0  0
   58.2046   33.6770   43.1462 H   0  0  0  0  0  0  0  0  0  0  0  0
   57.0988   31.4863   42.7236 H   0  0  0  0  0  0  0  0  0  0  0  0
   54.3059   24.6381   46.2073 H   0  0  0  0  0  0  0  0  0  0  0  0
   56.1682   23.0612   45.6243 H   0  0  0  0  0  0  0  0  0  0  0  0
   58.4344   24.0079   45.1150 H   0  0  0  0  0  0  0  0  0  0  0  0
   57.8281   30.3224   46.8257 H   0  0  0  0  0  0  0  0  0  0  0  0
   58.9341   32.5121   47.2559 H   0  0  0  0  0  0  0  0  0  0  0  0
  1  2  1  0
  2  3  1  0
  3  4  1  0
  4  5  2  0
  5  6  1  0
  6  7  2  0
  7  8  1  0
  8  9  2  0
  8 10  2  0
  8 11  1  0
 11 12  2  3
 12 13  1  0
 13 14  2  0
 14 15  1  0
 15 16  2  0
 16 17  1  0
  7 18  1  0
 18 19  2  0
 19  4  1  0
 17 12  1  0
  1 20  1  0
  1 21  1  0
  1 22  1  0
  2 23  1  0
  2 24  1  0
  3 25  1  0
  5 26  1  0
  6 27  1  0
 14 28  1  0
 15 29  1  0
 16 30  1  0
 18 31  1  0
 19 32  1  0
M  CHG  1  17  -1
M  END
>  <UniqueID>  (27) 
27

>  <SMILES>  (27) 
CCNc1ccc(S(=O)(=O)N=c2nccc[n-]2)cc1

>  <Energy>  (27) 
34.40140520850296

>  <Genealogy>  (27) 
CCNc1ccc(S(=O)(=O)N=c2nccc[n-]2)cc1 (protonated)
CCNc1ccc(S(=O)(=O)N=c2nccc[n-]2)cc1 (3D coordinates assigned)
CCNc1ccc(S(=O)(=O)N=c2nccc[n-]2)cc1 (optimized conformer: 34.40140520850296 kcal/mol)

>  <smiles>  (27) 
CCNc1ccc(S(=O)(=O)N=c2nccc[nH]2)cc1

>  <score_type>  (27) 
oracle

>  <origin>  (27) 
adg

>  <m_score__min__energy>  (27) 
-8.1300000000000008

>  <m_primary>  (27) 
energy

$$$$
27:0
     RDKit          3D

 39 41  0  0  0  0  0  0  0  0999 V2000
   54.3720   26.7160   46.7740 H   0  0  0  0  0  0  0  0  0  0  0  0
   55.1250   26.5060   46.1290 O   0  0  0  0  0  0  0  0  0  0  0  0
   56.0870   25.5430   46.4230 C   0  0  0  0  0  0  0  0  0  0  0  0
   55.8240   24.4250   47.1170 N   0  0  0  0  0  0  0  0  0  0  0  0
   57.0350   23.8320   47.2000 C   0  0  0  0  0  0  0  0  0  0  0  0
   57.2140   22.7390   47.7950 O   0  0  0  0  0  0  0  0  0  0  0  0
   58.0400   24.5110   46.6050 N   0  0  0  0  0  0  0  0  0  0  0  0
   57.4250   25.5870   46.0870 C   0  0  0  0  0  0  0  0  0  0  0  0
   58.1400   26.6850   45.4210 C   0  0  0  0  0  0  0  0  0  0  0  0
   58.6601   26.4471   44.4814 H   0  0  0  0  0  0  0  0  0  0  0  0
   58.2150   27.9570   45.8590 C   0  0  0  0  0  0  0  0  0  0  0  0
   58.6850   28.2860   47.1200 C   0  0  0  0  0  0  0  0  0  0  0  0
   59.0813   27.5887   47.8728 H   0  0  0  0  0  0  0  0  0  0  0  0
   58.5620   29.6530   47.2530 C   0  0  0  0  0  0  0  0  0  0  0  0
   58.9540   30.4390   48.4660 C   0  0  0  0  0  0  0  0  0  0  0  0
   58.6751   29.8797   49.3712 H   0  0  0  0  0  0  0  0  0  0  0  0
   60.0412   30.6064   48.4589 H   0  0  0  0  0  0  0  0  0  0  0  0
   58.4337   31.4081   48.4589 H   0  0  0  0  0  0  0  0  0  0  0  0
   58.0670   30.1890   46.1180 N   0  0  0  0  0  0  0  0  0  0  0  0
   57.8560   31.5920   45.8880 C   0  0  0  0  0  0  0  0  0  0  0  0
   56.8620   31.9600   45.2060 O   0  0  0  0  0  0  0  0  0  0  0  0
   58.7520   32.5710   46.4480 N   0  0  0  0  0  0  0  0  0  0  0  0
   60.2070   32.3380   46.3770 C   0  0  0  0  0  0  0  0  0  0  0  0
   60.4075   31.2685   46.5380 H   0  0  0  0  0  0  0  0  0  0  0  0
   60.5626   32.6540   45.3852 H   0  0  0  0  0  0  0  0  0  0  0  0
   60.9370   33.1370   47.4220 C   0  0  0  0  0  0  0  0  0  0  0  0
   61.8311   32.7187   47.9074 H   0  0  0  0  0  0  0  0  0  0  0  0
   60.5010   34.3550   47.7620 C   0  0  0  0  0  0  0  0  0  0  0  0
   61.0338   34.9392   48.5267 H   0  0  0  0  0  0  0  0  0  0  0  0
   59.2830   34.9200   47.0960 C   0  0  0  0  0  0  0  0  0  0  0  0
   58.8932   35.7540   47.6981 H   0  0  0  0  0  0  0  0  0  0  0  0
   59.5554   35.2777   46.0921 H   0  0  0  0  0  0  0  0  0  0  0  0
   58.2020   33.8390   46.9670 C   0  0  0  0  0  0  0  0  0  0  0  0
   57.7613   33.6564   47.9582 H   0  0  0  0  0  0  0  0  0  0  0  0
   57.4432   34.1982   46.2563 H   0  0  0  0  0  0  0  0  0  0  0  0
   57.8630   29.1720   45.2430 C   0  0  0  0  0  0  0  0  0  0  0  0
   57.4580   29.3630   43.9770 C   0  0  0  0  0  0  0  0  0  0  0  0
   57.2128   30.3759   43.6249 H   0  0  0  0  0  0  0  0  0  0  0  0
   57.3714   28.5066   43.2921 H   0  0  0  0  0  0  0  0  0  0  0  0
  1  2  1  0
  2  3  1  0
  3  4  1  0
  4  5  1  0
  5  6  2  0
  5  7  1  0
  7  8  1  0
  8  9  1  0
  9 10  1  0
  9 11  2  0
 11 12  1  0
 12 13  1  0
 12 14  2  0
 14 15  1  0
 15 16  1  0
 15 17  1  0
 15 18  1  0
 14 19  1  0
 19 20  1  0
 20 21  2  0
 20 22  1  0
 22 23  1  0
 23 24  1  0
 23 25  1  0
 23 26  1  0
 26 27  1  0
 26 28  2  0
 28 29  1  0
 28 30  1  0
 30 31  1  0
 30 32  1  0
 30 33  1  0
 33 34  1  0
 33 35  1  0
 19 36  1  0
 36 37  2  0
 37 38  1  0
 37 39  1  0
  8  3  2  0
 36 11  1  0
 33 22  1  0
M  CHG  2   4  -1   7  -1
M  END
>  <UniqueID>  (28) 
28

>  <SMILES>  (28) 
C=c1/c(=C\c2[n-]c(=O)[n-]c2O)cc(C)n1C(=O)N1CC=CCC1

>  <Energy>  (28) 
114.0042270881319

>  <Genealogy>  (28) 
C=c1c(=Cc2[n-]c(=O)[n-]c2O)cc(C)n1C(=O)N1CC=CCC1 (protonated)
C=c1/c(=C\c2[n-]c(=O)[n-]c2O)cc(C)n1C(=O)N1CC=CCC1 (cis-trans isomerization)
C=c1/c(=C\c2[n-]c(=O)[n-]c2O)cc(C)n1C(=O)N1CC=CCC1 (3D coordinates assigned)
C=c1/c(=C\c2[n-]c(=O)[n-]c2O)cc(C)n1C(=O)N1CC=CCC1 (nonaromatic ring conformer: 114.0042270881319 kcal/mol)

>  <smiles>  (28) 
C=c1c(=Cc2[nH]c(=O)[nH]c2O)cc(C)n1C(=O)N1CC=CCC1

>  <score_type>  (28) 
oracle

>  <origin>  (28) 
adg

>  <m_score__min__energy>  (28) 
-12.77

>  <m_primary>  (28) 
energy

$$$$
28:0
     RDKit          3D

 38 39  0  0  0  0  0  0  0  0999 V2000
   57.6550   34.2070   44.9930 C   0  0  0  0  0  0  0  0  0  0  0  0
   57.1840   32.5580   45.6020 S   0  0  0  0  0  0  0  0  0  0  0  0
   58.0960   31.6510   44.3040 C   0  0  0  0  0  0  0  0  0  0  0  0
   57.2960   30.4420   43.8100 C   0  0  0  0  0  0  0  0  0  0  0  0
   57.5300   29.2610   44.6670 N   0  0  0  0  0  0  0  0  0  0  0  0
   56.4570   28.5740   45.1700 C   0  0  0  0  0  0  0  0  0  0  0  0
   55.1550   28.9480   44.8490 O   0  0  0  0  0  0  0  0  0  0  0  0
   56.6510   27.4910   46.0150 C   0  0  0  0  0  0  0  0  0  0  0  0
   57.9450   27.1190   46.3520 C   0  0  0  0  0  0  0  0  0  0  0  0
   58.1120   26.1460   47.1370 O   0  0  0  0  0  0  0  0  0  0  0  0
   59.0170   27.8070   45.8420 N   0  0  0  0  0  0  0  0  0  0  0  0
   60.3950   27.4490   46.2460 C   0  0  0  0  0  0  0  0  0  0  0  0
   60.7170   27.9670   47.6560 C   0  0  0  0  0  0  0  0  0  0  0  0
   60.4070   29.4340   47.7970 C   0  0  0  0  0  0  0  0  0  0  0  0
   61.2170   30.3930   47.1660 C   0  0  0  0  0  0  0  0  0  0  0  0
   60.8970   31.7510   47.2520 C   0  0  0  0  0  0  0  0  0  0  0  0
   59.7650   32.1620   47.9650 C   0  0  0  0  0  0  0  0  0  0  0  0
   59.3630   33.8660   48.0680 Cl  0  0  0  0  0  0  0  0  0  0  0  0
   58.9520   31.2120   48.5900 C   0  0  0  0  0  0  0  0  0  0  0  0
   59.2680   29.8520   48.5040 C   0  0  0  0  0  0  0  0  0  0  0  0
   58.8050   28.8710   44.9970 C   0  0  0  0  0  0  0  0  0  0  0  0
   59.7960   29.4980   44.5260 O   0  0  0  0  0  0  0  0  0  0  0  0
   57.8452   34.8729   45.8476 H   0  0  0  0  0  0  0  0  0  0  0  0
   58.5658   34.1257   44.3816 H   0  0  0  0  0  0  0  0  0  0  0  0
   56.8386   34.6191   44.3816 H   0  0  0  0  0  0  0  0  0  0  0  0
   58.2838   32.3277   43.4574 H   0  0  0  0  0  0  0  0  0  0  0  0
   59.0445   31.2918   44.7298 H   0  0  0  0  0  0  0  0  0  0  0  0
   56.2244   30.6900   43.8254 H   0  0  0  0  0  0  0  0  0  0  0  0
   57.6233   30.2014   42.7878 H   0  0  0  0  0  0  0  0  0  0  0  0
   55.7900   26.9340   46.4130 H   0  0  0  0  0  0  0  0  0  0  0  0
   60.4985   26.3539   46.2345 H   0  0  0  0  0  0  0  0  0  0  0  0
   61.0960   27.9142   45.5373 H   0  0  0  0  0  0  0  0  0  0  0  0
   60.1180   27.4046   48.3874 H   0  0  0  0  0  0  0  0  0  0  0  0
   61.7932   27.8262   47.8346 H   0  0  0  0  0  0  0  0  0  0  0  0
   62.1061   30.0741   46.6023 H   0  0  0  0  0  0  0  0  0  0  0  0
   61.5361   32.4980   46.7584 H   0  0  0  0  0  0  0  0  0  0  0  0
   58.0621   31.5345   49.1505 H   0  0  0  0  0  0  0  0  0  0  0  0
   58.6219   29.1073   48.9919 H   0  0  0  0  0  0  0  0  0  0  0  0
  1  2  1  0
  2  3  1  0
  3  4  1  0
  4  5  1  0
  5  6  1  0
  6  7  1  0
  6  8  2  0
  8  9  1  0
  9 10  2  0
  9 11  1  0
 11 12  1  0
 12 13  1  0
 13 14  1  0
 14 15  2  0
 15 16  1  0
 16 17  2  0
 17 18  1  0
 17 19  1  0
 19 20  2  0
 11 21  1  0
 21 22  2  0
 21  5  1  0
 20 14  1  0
  1 23  1  0
  1 24  1  0
  1 25  1  0
  3 26  1  0
  3 27  1  0
  4 28  1  0
  4 29  1  0
  8 30  1  0
 12 31  1  0
 12 32  1  0
 13 33  1  0
 13 34  1  0
 15 35  1  0
 16 36  1  0
 19 37  1  0
 20 38  1  0
M  CHG  1   7  -1
M  END
>  <UniqueID>  (29) 
29

>  <SMILES>  (29) 
CSCCn1c([O-])cc(=O)n(CCc2ccc(Cl)cc2)c1=O

>  <Energy>  (29) 
35.07019178269192

>  <Genealogy>  (29) 
CSCCn1c([O-])cc(=O)n(CCc2ccc(Cl)cc2)c1=O (protonated)
CSCCn1c([O-])cc(=O)n(CCc2ccc(Cl)cc2)c1=O (3D coordinates assigned)
CSCCn1c([O-])cc(=O)n(CCc2ccc(Cl)cc2)c1=O (optimized conformer: 35.07019178269192 kcal/mol)

>  <smiles>  (29) 
CSCCn1c(O)cc(=O)n(CCc2ccc(Cl)cc2)c1=O

>  <score_type>  (29) 
oracle

>  <origin>  (29) 
adg

>  <m_score__min__energy>  (29) 
-9.5299999999999994

>  <m_primary>  (29) 
energy

$$$$
29:0
     RDKit          3D

 56 59  0  0  0  0  0  0  0  0999 V2000
   57.0540   24.4170   45.4030 C   0  0  0  0  0  0  0  0  0  0  0  0
   56.6840   26.1090   45.8120 S   0  0  0  0  0  0  0  0  0  0  0  0
   57.3830   26.4610   47.0930 O   0  0  0  0  0  0  0  0  0  0  0  0
   55.2070   26.2890   46.0080 O   0  0  0  0  0  0  0  0  0  0  0  0
   57.2460   27.1630   44.5510 N   0  0  0  0  0  0  0  0  0  0  0  0
   57.6320   28.5350   44.7500 C   0  0  0  0  0  0  0  0  0  0  0  0
   58.8600   28.8180   45.3650 C   0  0  0  0  0  0  0  0  0  0  0  0
   59.2630   30.1370   45.5860 C   0  0  0  0  0  0  0  0  0  0  0  0
   58.4440   31.2070   45.1830 C   0  0  0  0  0  0  0  0  0  0  0  0
   58.8320   32.6140   45.4410 C   0  0  0  0  0  0  0  0  0  0  0  0
   59.5320   32.9040   46.5710 N   0  0  0  0  0  0  0  0  0  0  0  0
   59.9080   34.1760   46.8780 C   0  0  0  0  0  0  0  0  0  0  0  0
   60.5990   34.4330   47.9490 N   0  0  0  0  0  0  0  0  0  0  0  0
   61.8400   33.8140   48.3290 C   0  0  0  0  0  0  0  0  0  0  0  0
   62.9120   33.8410   47.4270 C   0  0  0  0  0  0  0  0  0  0  0  0
   64.1350   33.2550   47.7660 C   0  0  0  0  0  0  0  0  0  0  0  0
   64.2980   32.6420   49.0120 C   0  0  0  0  0  0  0  0  0  0  0  0
   63.2370   32.6180   49.9350 C   0  0  0  0  0  0  0  0  0  0  0  0
   63.3820   32.0310   51.2320 N   0  0  0  0  0  0  0  0  0  0  0  0
   63.5890   30.6380   51.4780 C   0  0  0  0  0  0  0  0  0  0  0  0
   64.7640   30.1830   51.4970 O   0  0  0  0  0  0  0  0  0  0  0  0
   62.4970   29.8020   51.7410 O   0  0  0  0  0  0  0  0  0  0  0  0
   61.6650   29.2520   50.7220 C   0  0  0  0  0  0  0  0  0  0  0  0
   60.5610   30.2140   50.3820 C   0  0  0  0  0  0  0  0  0  0  0  0
   60.1190   31.1620   51.3180 C   0  0  0  0  0  0  0  0  0  0  0  0
   59.0890   32.0490   50.9880 C   0  0  0  0  0  0  0  0  0  0  0  0
   58.4900   31.9920   49.7250 C   0  0  0  0  0  0  0  0  0  0  0  0
   58.9220   31.0460   48.7940 C   0  0  0  0  0  0  0  0  0  0  0  0
   59.9500   30.1550   49.1200 C   0  0  0  0  0  0  0  0  0  0  0  0
   62.0250   33.2370   49.6010 C   0  0  0  0  0  0  0  0  0  0  0  0
   59.5930   35.1880   46.0290 N   0  0  0  0  0  0  0  0  0  0  0  0
   58.8890   34.9560   44.8910 C   0  0  0  0  0  0  0  0  0  0  0  0
   58.4840   33.6610   44.5690 C   0  0  0  0  0  0  0  0  0  0  0  0
   57.7380   33.4500   43.4590 F   0  0  0  0  0  0  0  0  0  0  0  0
   57.2130   30.9260   44.5710 C   0  0  0  0  0  0  0  0  0  0  0  0
   56.8130   29.6040   44.3470 C   0  0  0  0  0  0  0  0  0  0  0  0
   57.1812   23.8355   46.3281 H   0  0  0  0  0  0  0  0  0  0  0  0
   56.2274   23.9929   44.8141 H   0  0  0  0  0  0  0  0  0  0  0  0
   57.9822   24.3767   44.8141 H   0  0  0  0  0  0  0  0  0  0  0  0
   57.3550   26.7430   43.6040 H   0  0  0  0  0  0  0  0  0  0  0  0
   59.5143   27.9907   45.6774 H   0  0  0  0  0  0  0  0  0  0  0  0
   60.2258   30.3399   46.0777 H   0  0  0  0  0  0  0  0  0  0  0  0
   62.7905   34.3258   46.4471 H   0  0  0  0  0  0  0  0  0  0  0  0
   64.9708   33.2762   47.0511 H   0  0  0  0  0  0  0  0  0  0  0  0
   65.2602   32.1765   49.2716 H   0  0  0  0  0  0  0  0  0  0  0  0
   62.2694   29.0593   49.8233 H   0  0  0  0  0  0  0  0  0  0  0  0
   61.2244   28.3118   51.0851 H   0  0  0  0  0  0  0  0  0  0  0  0
   60.5839   31.2075   52.3139 H   0  0  0  0  0  0  0  0  0  0  0  0
   58.7492   32.7932   51.7233 H   0  0  0  0  0  0  0  0  0  0  0  0
   57.6808   32.6908   49.4663 H   0  0  0  0  0  0  0  0  0  0  0  0
   58.4524   31.0009   47.8003 H   0  0  0  0  0  0  0  0  0  0  0  0
   60.2803   29.4061   48.3851 H   0  0  0  0  0  0  0  0  0  0  0  0
   61.2101   33.2728   50.3391 H   0  0  0  0  0  0  0  0  0  0  0  0
   58.6376   35.7918   44.2215 H   0  0  0  0  0  0  0  0  0  0  0  0
   56.5559   31.7532   44.2643 H   0  0  0  0  0  0  0  0  0  0  0  0
   55.8518   29.4000   43.8525 H   0  0  0  0  0  0  0  0  0  0  0  0
  1  2  1  0
  2  3  2  0
  2  4  2  0
  2  5  1  0
  5  6  1  0
  6  7  2  0
  7  8  1  0
  8  9  2  0
  9 10  1  0
 10 11  2  0
 11 12  1  0
 12 13  2  3
 13 14  1  0
 14 15  2  0
 15 16  1  0
 16 17  2  0
 17 18  1  0
 18 19  1  0
 19 20  1  0
 20 21  2  0
 20 22  1  0
 22 23  1  0
 23 24  1  0
 24 25  2  0
 25 26  1  0
 26 27  2  0
 27 28  1  0
 28 29  2  0
 18 30  2  0
 12 31  1  0
 31 32  1  0
 32 33  2  0
 33 34  1  0
  9 35  1  0
 35 36  2  0
 36  6  1  0
 33 10  1  0
 30 14  1  0
 29 24  1  0
  1 37  1  0
  1 38  1  0
  1 39  1  0
  5 40  1  0
  7 41  1  0
  8 42  1  0
 15 43  1  0
 16 44  1  0
 17 45  1  0
 23 46  1  0
 23 47  1  0
 25 48  1  0
 26 49  1  0
 27 50  1  0
 28 51  1  0
 29 52  1  0
 30 53  1  0
 32 54  1  0
 35 55  1  0
 36 56  1  0
M  CHG  2  19  -1  31  -1
M  END
>  <UniqueID>  (30) 
30

>  <SMILES>  (30) 
CS(=O)(=O)Nc1ccc(-c2nc(=Nc3cccc([N-]C(=O)OCc4ccccc4)c3)[n-]cc2F)cc1

>  <Energy>  (30) 
72.10062114822658

>  <Genealogy>  (30) 
CS(=O)(=O)Nc1ccc(-c2nc(=Nc3cccc([N-]C(=O)OCc4ccccc4)c3)[n-]cc2F)cc1 (protonated)
CS(=O)(=O)Nc1ccc(-c2nc(=Nc3cccc([N-]C(=O)OCc4ccccc4)c3)[n-]cc2F)cc1 (3D coordinates assigned)
CS(=O)(=O)Nc1ccc(-c2nc(=Nc3cccc([N-]C(=O)OCc4ccccc4)c3)[n-]cc2F)cc1 (optimized conformer: 72.10062114822658 kcal/mol)

>  <smiles>  (30) 
CS(=O)(=O)Nc1ccc(-c2nc(=Nc3cccc(NC(=O)OCc4ccccc4)c3)[nH]cc2F)cc1

>  <score_type>  (30) 
oracle

>  <origin>  (30) 
adg

>  <m_score__min__energy>  (30) 
-12.779999999999999

>  <m_primary>  (30) 
energy

$$$$
30:0
     RDKit          3D

 44 46  0  0  0  0  0  0  0  0999 V2000
   55.1470   29.4340   45.0140 N   0  0  0  0  0  0  0  0  0  0  0  0
   55.9620   29.7500   43.8900 C   0  0  0  0  0  0  0  0  0  0  0  0
   55.6300   29.3510   42.7410 O   0  0  0  0  0  0  0  0  0  0  0  0
   57.1930   30.5820   44.0680 C   0  0  0  0  0  0  0  0  0  0  0  0
   57.3520   30.9590   45.4350 O   0  0  0  0  0  0  0  0  0  0  0  0
   57.9850   32.1300   45.8940 C   0  0  0  0  0  0  0  0  0  0  0  0
   57.8530   33.3590   45.2160 C   0  0  0  0  0  0  0  0  0  0  0  0
   58.4780   34.5080   45.7040 C   0  0  0  0  0  0  0  0  0  0  0  0
   59.2440   34.4480   46.8680 C   0  0  0  0  0  0  0  0  0  0  0  0
   59.3860   33.2390   47.5480 C   0  0  0  0  0  0  0  0  0  0  0  0
   58.7570   32.0720   47.0760 C   0  0  0  0  0  0  0  0  0  0  0  0
   58.9450   30.7950   47.8060 C   0  0  0  0  0  0  0  0  0  0  0  0
   58.5090   30.6900   48.9850 O   0  0  0  0  0  0  0  0  0  0  0  0
   59.5730   29.6600   47.1810 N   0  0  0  0  0  0  0  0  0  0  0  0
   60.7740   29.8180   46.3540 C   0  0  0  0  0  0  0  0  0  0  0  0
   60.6870   28.9420   45.0860 C   0  0  0  0  0  0  0  0  0  0  0  0
   59.8480   27.7240   45.2440 N   0  0  0  0  0  0  0  0  0  0  0  0
   58.5110   27.8880   44.6280 C   0  0  0  0  0  0  0  0  0  0  0  0
   57.5870   26.7760   45.0260 C   0  0  0  0  0  0  0  0  0  0  0  0
   57.6430   25.5060   44.4590 C   0  0  0  0  0  0  0  0  0  0  0  0
   56.4690   24.5660   45.2090 S   0  0  0  0  0  0  0  0  0  0  0  0
   55.9450   25.8030   46.2180 C   0  0  0  0  0  0  0  0  0  0  0  0
   56.6510   26.9340   46.0000 N   0  0  0  0  0  0  0  0  0  0  0  0
   59.7920   27.2550   46.6490 C   0  0  0  0  0  0  0  0  0  0  0  0
   59.1690   28.3080   47.5790 C   0  0  0  0  0  0  0  0  0  0  0  0
   55.3650   28.6120   45.6210 H   0  0  0  0  0  0  0  0  0  0  0  0
   58.0710   30.0012   43.7489 H   0  0  0  0  0  0  0  0  0  0  0  0
   57.0964   31.4925   43.4583 H   0  0  0  0  0  0  0  0  0  0  0  0
   57.2531   33.4130   44.2956 H   0  0  0  0  0  0  0  0  0  0  0  0
   58.3661   35.4628   45.1693 H   0  0  0  0  0  0  0  0  0  0  0  0
   59.7362   35.3547   47.2497 H   0  0  0  0  0  0  0  0  0  0  0  0
   59.9958   33.1970   48.4625 H   0  0  0  0  0  0  0  0  0  0  0  0
   60.8711   30.8728   46.0574 H   0  0  0  0  0  0  0  0  0  0  0  0
   61.6494   29.5024   46.9406 H   0  0  0  0  0  0  0  0  0  0  0  0
   60.2622   29.5509   44.2743 H   0  0  0  0  0  0  0  0  0  0  0  0
   61.7086   28.5967   44.8691 H   0  0  0  0  0  0  0  0  0  0  0  0
   58.0807   28.8459   44.9556 H   0  0  0  0  0  0  0  0  0  0  0  0
   58.6279   27.8673   43.5344 H   0  0  0  0  0  0  0  0  0  0  0  0
   58.3301   25.1777   43.6652 H   0  0  0  0  0  0  0  0  0  0  0  0
   55.1359   25.7051   46.9568 H   0  0  0  0  0  0  0  0  0  0  0  0
   59.1866   26.3377   46.6941 H   0  0  0  0  0  0  0  0  0  0  0  0
   60.8216   27.0669   46.9875 H   0  0  0  0  0  0  0  0  0  0  0  0
   58.0729   28.2299   47.5288 H   0  0  0  0  0  0  0  0  0  0  0  0
   59.5200   28.1233   48.6050 H   0  0  0  0  0  0  0  0  0  0  0  0
  1  2  1  0
  2  3  2  0
  2  4  1  0
  4  5  1  0
  5  6  1  0
  6  7  2  0
  7  8  1  0
  8  9  2  0
  9 10  1  0
 10 11  2  0
 11 12  1  0
 12 13  2  0
 12 14  1  0
 14 15  1  0
 15 16  1  0
 16 17  1  0
 17 18  1  0
 18 19  1  0
 19 20  2  0
 20 21  1  0
 21 22  1  0
 22 23  2  0
 17 24  1  0
 24 25  1  0
 11  6  1  0
 25 14  1  0
 23 19  1  0
  1 26  1  0
  4 27  1  0
  4 28  1  0
  7 29  1  0
  8 30  1  0
  9 31  1  0
 10 32  1  0
 15 33  1  0
 15 34  1  0
 16 35  1  0
 16 36  1  0
 18 37  1  0
 18 38  1  0
 20 39  1  0
 22 40  1  0
 24 41  1  0
 24 42  1  0
 25 43  1  0
 25 44  1  0
M  CHG  1   1  -1
M  END
>  <UniqueID>  (31) 
31

>  <SMILES>  (31) 
[NH-]C(=O)COc1ccccc1C(=O)N1CCN(Cc2cscn2)CC1

>  <Energy>  (31) 
86.52711816020714

>  <Genealogy>  (31) 
[NH-]C(=O)COc1ccccc1C(=O)N1CCN(Cc2cscn2)CC1 (protonated)
[NH-]C(=O)COc1ccccc1C(=O)N1CCN(Cc2cscn2)CC1 (3D coordinates assigned)
[NH-]C(=O)COc1ccccc1C(=O)N1CCN(Cc2cscn2)CC1 (nonaromatic ring conformer: 86.52711816020714 kcal/mol)

>  <smiles>  (31) 
NC(=O)COc1ccccc1C(=O)N1CCN(Cc2cscn2)CC1

>  <score_type>  (31) 
oracle

>  <origin>  (31) 
adg

>  <m_score__min__energy>  (31) 
-10.890000000000001

>  <m_primary>  (31) 
energy

$$$$
31:0
     RDKit          3D

 54 57  0  0  0  0  0  0  0  0999 V2000
   57.1920   20.8700   42.9590 C   0  0  0  0  0  0  0  0  0  0  0  0
   57.0700   22.1800   43.6770 C   0  0  0  0  0  0  0  0  0  0  0  0
   55.9190   22.9640   43.5140 C   0  0  0  0  0  0  0  0  0  0  0  0
   55.8260   24.2110   44.1360 C   0  0  0  0  0  0  0  0  0  0  0  0
   56.8850   24.6890   44.9220 C   0  0  0  0  0  0  0  0  0  0  0  0
   56.7960   26.2690   45.6910 S   0  0  0  0  0  0  0  0  0  0  0  0
   55.3530   26.5580   45.9970 O   0  0  0  0  0  0  0  0  0  0  0  0
   57.5590   26.2540   46.9880 O   0  0  0  0  0  0  0  0  0  0  0  0
   57.4130   27.5260   44.6380 N   0  0  0  0  0  0  0  0  0  0  0  0
   58.8790   27.4650   44.4880 C   0  0  0  0  0  0  0  0  0  0  0  0
   59.6150   27.7870   45.7950 C   0  0  0  0  0  0  0  0  0  0  0  0
   58.9260   28.8400   46.5460 N   0  0  0  0  0  0  0  0  0  0  0  0
   59.3780   29.1970   47.8630 C   0  0  0  0  0  0  0  0  0  0  0  0
   58.5310   29.4160   48.7720 O   0  0  0  0  0  0  0  0  0  0  0  0
   60.8320   29.3310   48.1730 C   0  0  0  0  0  0  0  0  0  0  0  0
   61.1080   30.6330   49.4170 S   0  0  0  0  0  0  0  0  0  0  0  0
   61.6100   31.8450   48.1880 C   0  0  0  0  0  0  0  0  0  0  0  0
   62.9740   32.0650   47.9700 C   0  0  0  0  0  0  0  0  0  0  0  0
   63.3980   33.0520   47.0780 C   0  0  0  0  0  0  0  0  0  0  0  0
   62.4660   33.8460   46.4080 C   0  0  0  0  0  0  0  0  0  0  0  0
   61.0920   33.6410   46.6180 C   0  0  0  0  0  0  0  0  0  0  0  0
   60.1390   34.4210   45.9580 C   0  0  0  0  0  0  0  0  0  0  0  0
   58.7800   34.2010   46.1990 C   0  0  0  0  0  0  0  0  0  0  0  0
   58.3920   33.2060   47.1000 C   0  0  0  0  0  0  0  0  0  0  0  0
   59.3310   32.4350   47.7110 N   0  0  0  0  0  0  0  0  0  0  0  0
   60.6630   32.6190   47.4960 C   0  0  0  0  0  0  0  0  0  0  0  0
   57.9540   29.6930   45.8650 C   0  0  0  0  0  0  0  0  0  0  0  0
   56.9280   28.8630   45.0650 C   0  0  0  0  0  0  0  0  0  0  0  0
   58.0340   23.9120   45.0830 C   0  0  0  0  0  0  0  0  0  0  0  0
   58.1310   22.6690   44.4570 C   0  0  0  0  0  0  0  0  0  0  0  0
   57.2679   20.0549   43.6937 H   0  0  0  0  0  0  0  0  0  0  0  0
   56.3045   20.7136   42.3282 H   0  0  0  0  0  0  0  0  0  0  0  0
   58.0931   20.8801   42.3282 H   0  0  0  0  0  0  0  0  0  0  0  0
   55.0875   22.5961   42.8949 H   0  0  0  0  0  0  0  0  0  0  0  0
   54.9191   24.8205   44.0091 H   0  0  0  0  0  0  0  0  0  0  0  0
   57.0050   27.3280   43.6940 H   0  0  0  0  0  0  0  0  0  0  0  0
   59.1591   26.4514   44.1654 H   0  0  0  0  0  0  0  0  0  0  0  0
   59.1715   28.2203   43.7438 H   0  0  0  0  0  0  0  0  0  0  0  0
   59.6629   26.8783   46.4130 H   0  0  0  0  0  0  0  0  0  0  0  0
   60.6264   28.1412   45.5469 H   0  0  0  0  0  0  0  0  0  0  0  0
   61.2078   28.3735   48.5630 H   0  0  0  0  0  0  0  0  0  0  0  0
   61.3664   29.6038   47.2511 H   0  0  0  0  0  0  0  0  0  0  0  0
   63.7178   31.4563   48.5050 H   0  0  0  0  0  0  0  0  0  0  0  0
   64.4731   33.2047   46.9023 H   0  0  0  0  0  0  0  0  0  0  0  0
   62.8066   34.6309   45.7167 H   0  0  0  0  0  0  0  0  0  0  0  0
   60.4564   35.2035   45.2530 H   0  0  0  0  0  0  0  0  0  0  0  0
   58.0209   34.8071   45.6828 H   0  0  0  0  0  0  0  0  0  0  0  0
   57.3252   33.0460   47.3155 H   0  0  0  0  0  0  0  0  0  0  0  0
   57.4192   30.2936   46.6155 H   0  0  0  0  0  0  0  0  0  0  0  0
   58.4985   30.3377   45.1594 H   0  0  0  0  0  0  0  0  0  0  0  0
   56.0370   28.7200   45.6941 H   0  0  0  0  0  0  0  0  0  0  0  0
   56.7199   29.4279   44.1443 H   0  0  0  0  0  0  0  0  0  0  0  0
   58.8637   24.2804   45.7042 H   0  0  0  0  0  0  0  0  0  0  0  0
   59.0446   22.0678   44.5750 H   0  0  0  0  0  0  0  0  0  0  0  0
  1  2  1  0
  2  3  2  0
  3  4  1  0
  4  5  2  0
  5  6  1  0
  6  7  2  0
  6  8  2  0
  6  9  1  0
  9 10  1  0
 10 11  1  0
 11 12  1  0
 12 13  1  0
 13 14  2  0
 13 15  1  0
 15 16  1  0
 16 17  1  0
 17 18  2  0
 18 19  1  0
 19 20  2  0
 20 21  1  0
 21 22  2  0
 22 23  1  0
 23 24  2  0
 24 25  1  0
 25 26  2  0
 12 27  1  0
 27 28  1  0
  5 29  1  0
 29 30  2  0
 30  2  1  0
 28  9  1  0
 26 17  1  0
 26 21  1  0
  1 31  1  0
  1 32  1  0
  1 33  1  0
  3 34  1  0
  4 35  1  0
  9 36  1  0
 10 37  1  0
 10 38  1  0
 11 39  1  0
 11 40  1  0
 15 41  1  0
 15 42  1  0
 18 43  1  0
 19 44  1  0
 20 45  1  0
 22 46  1  0
 23 47  1  0
 24 48  1  0
 27 49  1  0
 27 50  1  0
 28 51  1  0
 28 52  1  0
 29 53  1  0
 30 54  1  0
M  CHG  1   9   1
M  END
>  <UniqueID>  (32) 
32

>  <SMILES>  (32) 
Cc1ccc(S(=O)(=O)[NH+]2CCN(C(=O)CSc3cccc4cccnc34)CC2)cc1

>  <Energy>  (32) 
64.69986367083524

>  <Genealogy>  (32) 
Cc1ccc(S(=O)(=O)[NH+]2CCN(C(=O)CSc3cccc4cccnc34)CC2)cc1 (protonated)
Cc1ccc(S(=O)(=O)[NH+]2CCN(C(=O)CSc3cccc4cccnc34)CC2)cc1 (3D coordinates assigned)
Cc1ccc(S(=O)(=O)[NH+]2CCN(C(=O)CSc3cccc4cccnc34)CC2)cc1 (nonaromatic ring conformer: 64.69986367083524 kcal/mol)

>  <smiles>  (32) 
Cc1ccc(S(=O)(=O)N2CCN(C(=O)CSc3cccc4cccnc34)CC2)cc1

>  <score_type>  (32) 
oracle

>  <origin>  (32) 
adg

>  <m_score__min__energy>  (32) 
-8.2799999999999994

>  <m_primary>  (32) 
energy

$$$$
32:0
     RDKit          3D

 50 52  0  0  0  0  0  0  0  0999 V2000
   61.8700   30.8480   51.6400 C   0  0  0  0  0  0  0  0  0  0  0  0
   62.3450   30.9460   50.2200 C   0  0  0  0  0  0  0  0  0  0  0  0
   63.5360   31.3020   50.0100 O   0  0  0  0  0  0  0  0  0  0  0  0
   61.4790   30.6410   49.1040 N   0  0  0  0  0  0  0  0  0  0  0  0
   61.8970   31.0610   47.7560 C   0  0  0  0  0  0  0  0  0  0  0  0
   60.7570   30.9470   46.7400 C   0  0  0  0  0  0  0  0  0  0  0  0
   60.1160   29.6280   46.8490 N   0  0  0  0  0  0  0  0  0  0  0  0
   59.7900   28.8650   45.6670 C   0  0  0  0  0  0  0  0  0  0  0  0
   60.2280   29.2170   44.5360 O   0  0  0  0  0  0  0  0  0  0  0  0
   58.9410   27.6660   45.7430 C   0  0  0  0  0  0  0  0  0  0  0  0
   59.3670   26.3760   46.0080 C   0  0  0  0  0  0  0  0  0  0  0  0
   60.7780   25.9460   46.2560 C   0  0  0  0  0  0  0  0  0  0  0  0
   58.3050   25.5620   46.1530 N   0  0  0  0  0  0  0  0  0  0  0  0
   57.2000   26.3130   45.9700 C   0  0  0  0  0  0  0  0  0  0  0  0
   55.8100   25.7640   46.0510 C   0  0  0  0  0  0  0  0  0  0  0  0
   57.5540   27.6320   45.7230 C   0  0  0  0  0  0  0  0  0  0  0  0
   56.6520   28.7710   45.4760 C   0  0  0  0  0  0  0  0  0  0  0  0
   55.5680   28.5870   44.8580 O   0  0  0  0  0  0  0  0  0  0  0  0
   57.0280   30.0900   45.8890 N   0  0  0  0  0  0  0  0  0  0  0  0
   57.5030   31.1220   45.0130 C   0  0  0  0  0  0  0  0  0  0  0  0
   57.4480   30.9170   43.6280 C   0  0  0  0  0  0  0  0  0  0  0  0
   57.9100   31.9020   42.7490 C   0  0  0  0  0  0  0  0  0  0  0  0
   58.4540   33.0880   43.2510 C   0  0  0  0  0  0  0  0  0  0  0  0
   58.5380   33.2900   44.6330 C   0  0  0  0  0  0  0  0  0  0  0  0
   59.2600   34.7610   45.2630 Cl  0  0  0  0  0  0  0  0  0  0  0  0
   58.0670   32.3100   45.5130 C   0  0  0  0  0  0  0  0  0  0  0  0
   59.7720   29.0990   48.1780 C   0  0  0  0  0  0  0  0  0  0  0  0
   60.1360   30.0730   49.3090 C   0  0  0  0  0  0  0  0  0  0  0  0
   62.7151   31.0224   52.3222 H   0  0  0  0  0  0  0  0  0  0  0  0
   61.0919   31.6045   51.8194 H   0  0  0  0  0  0  0  0  0  0  0  0
   61.4548   29.8453   51.8194 H   0  0  0  0  0  0  0  0  0  0  0  0
   62.2317   32.1080   47.7981 H   0  0  0  0  0  0  0  0  0  0  0  0
   62.7103   30.3959   47.4300 H   0  0  0  0  0  0  0  0  0  0  0  0
   60.0121   31.7316   46.9388 H   0  0  0  0  0  0  0  0  0  0  0  0
   61.1643   31.0677   45.7253 H   0  0  0  0  0  0  0  0  0  0  0  0
   60.9594   25.8907   47.3395 H   0  0  0  0  0  0  0  0  0  0  0  0
   60.9443   24.9564   45.8054 H   0  0  0  0  0  0  0  0  0  0  0  0
   61.4680   26.6747   45.8054 H   0  0  0  0  0  0  0  0  0  0  0  0
   58.3310   24.5440   46.3850 H   0  0  0  0  0  0  0  0  0  0  0  0
   55.5217   25.6501   47.1064 H   0  0  0  0  0  0  0  0  0  0  0  0
   55.1134   26.4545   45.5531 H   0  0  0  0  0  0  0  0  0  0  0  0
   55.7733   24.7838   45.5531 H   0  0  0  0  0  0  0  0  0  0  0  0
   57.0394   29.9765   43.2299 H   0  0  0  0  0  0  0  0  0  0  0  0
   57.8453   31.7435   41.6624 H   0  0  0  0  0  0  0  0  0  0  0  0
   58.8162   33.8627   42.5592 H   0  0  0  0  0  0  0  0  0  0  0  0
   58.1378   32.4686   46.5992 H   0  0  0  0  0  0  0  0  0  0  0  0
   58.6895   28.9068   48.2122 H   0  0  0  0  0  0  0  0  0  0  0  0
   60.3506   28.1761   48.3314 H   0  0  0  0  0  0  0  0  0  0  0  0
   59.3995   30.8898   49.3314 H   0  0  0  0  0  0  0  0  0  0  0  0
   60.1298   29.5225   50.2613 H   0  0  0  0  0  0  0  0  0  0  0  0
  1  2  1  0
  2  3  2  0
  2  4  1  0
  4  5  1  0
  5  6  1  0
  6  7  1  0
  7  8  1  0
  8  9  2  0
  8 10  1  0
 10 11  2  0
 11 12  1  0
 11 13  1  0
 13 14  1  0
 14 15  1  0
 14 16  2  0
 16 17  1  0
 17 18  2  0
 17 19  1  0
 19 20  1  0
 20 21  2  0
 21 22  1  0
 22 23  2  0
 23 24  1  0
 24 25  1  0
 24 26  2  0
  7 27  1  0
 27 28  1  0
 28  4  1  0
 16 10  1  0
 26 20  1  0
  1 29  1  0
  1 30  1  0
  1 31  1  0
  5 32  1  0
  5 33  1  0
  6 34  1  0
  6 35  1  0
 12 36  1  0
 12 37  1  0
 12 38  1  0
 13 39  1  0
 15 40  1  0
 15 41  1  0
 15 42  1  0
 21 43  1  0
 22 44  1  0
 23 45  1  0
 26 46  1  0
 27 47  1  0
 27 48  1  0
 28 49  1  0
 28 50  1  0
M  CHG  1  19  -1
M  END
>  <UniqueID>  (33) 
33

>  <SMILES>  (33) 
CC(=O)N1CCN(C(=O)c2c(C)[nH]c(C)c2C(=O)[N-]c2cccc(Cl)c2)CC1

>  <Energy>  (33) 
86.37891383082726

>  <Genealogy>  (33) 
CC(=O)N1CCN(C(=O)c2c(C)[nH]c(C)c2C(=O)[N-]c2cccc(Cl)c2)CC1 (protonated)
CC(=O)N1CCN(C(=O)c2c(C)[nH]c(C)c2C(=O)[N-]c2cccc(Cl)c2)CC1 (3D coordinates assigned)
CC(=O)N1CCN(C(=O)c2c(C)[nH]c(C)c2C(=O)[N-]c2cccc(Cl)c2)CC1 (nonaromatic ring conformer: 86.37891383082726 kcal/mol)

>  <smiles>  (33) 
CC(=O)N1CCN(C(=O)c2c(C)[nH]c(C)c2C(=O)Nc2cccc(Cl)c2)CC1

>  <score_type>  (33) 
oracle

>  <origin>  (33) 
adg

>  <m_score__min__energy>  (33) 
-9.8100000000000005

>  <m_primary>  (33) 
energy

$$$$
33:0
     RDKit          3D

 51 55  0  0  0  0  0  0  0  0999 V2000
   57.1190   32.5960   46.3530 O   0  0  0  0  0  0  0  0  0  0  0  0
   58.4860   32.3250   45.7920 S   0  0  0  0  0  0  0  0  0  0  0  0
   59.0510   33.6390   45.3280 O   0  0  0  0  0  0  0  0  0  0  0  0
   59.5030   31.6480   47.0770 C   0  0  0  0  0  0  0  0  0  0  0  0
   58.9750   30.6410   47.9000 C   0  0  0  0  0  0  0  0  0  0  0  0
   59.7500   30.0680   48.9120 C   0  0  0  0  0  0  0  0  0  0  0  0
   61.0620   30.4960   49.1220 C   0  0  0  0  0  0  0  0  0  0  0  0
   61.6030   31.5100   48.3230 C   0  0  0  0  0  0  0  0  0  0  0  0
   62.9180   31.9550   48.5160 C   0  0  0  0  0  0  0  0  0  0  0  0
   63.4380   32.9630   47.7050 C   0  0  0  0  0  0  0  0  0  0  0  0
   62.6380   33.5200   46.7060 C   0  0  0  0  0  0  0  0  0  0  0  0
   61.3650   33.0810   46.5270 N   0  0  0  0  0  0  0  0  0  0  0  0
   60.8220   32.0980   47.2980 C   0  0  0  0  0  0  0  0  0  0  0  0
   58.3360   31.2450   44.4220 N   0  0  0  0  0  0  0  0  0  0  0  0
   59.2590   30.0930   44.4790 C   0  0  0  0  0  0  0  0  0  0  0  0
   58.7180   28.8820   45.2710 C   0  0  0  0  0  0  0  0  0  0  0  0
   57.1830   28.7480   45.2270 C   0  0  0  0  0  0  0  0  0  0  0  0
   56.7680   27.3030   45.2680 C   0  0  0  0  0  0  0  0  0  0  0  0
   57.4350   26.3220   44.6240 N   0  0  0  0  0  0  0  0  0  0  0  0
   56.7660   25.2010   44.9540 C   0  0  0  0  0  0  0  0  0  0  0  0
   57.1380   23.8490   44.4700 C   0  0  0  0  0  0  0  0  0  0  0  0
   56.3630   23.2240   43.4750 C   0  0  0  0  0  0  0  0  0  0  0  0
   56.7010   21.9490   43.0080 C   0  0  0  0  0  0  0  0  0  0  0  0
   57.8130   21.2840   43.5290 C   0  0  0  0  0  0  0  0  0  0  0  0
   58.5900   21.8930   44.5170 C   0  0  0  0  0  0  0  0  0  0  0  0
   58.2570   23.1680   44.9870 C   0  0  0  0  0  0  0  0  0  0  0  0
   55.7200   25.5330   45.7940 C   0  0  0  0  0  0  0  0  0  0  0  0
   55.7240   26.8610   45.9990 N   0  0  0  0  0  0  0  0  0  0  0  0
   56.6080   29.4490   43.9950 C   0  0  0  0  0  0  0  0  0  0  0  0
   56.9290   30.9490   44.0610 C   0  0  0  0  0  0  0  0  0  0  0  0
   57.9407   30.2994   47.7469 H   0  0  0  0  0  0  0  0  0  0  0  0
   59.3243   29.2762   49.5459 H   0  0  0  0  0  0  0  0  0  0  0  0
   61.6704   30.0366   49.9150 H   0  0  0  0  0  0  0  0  0  0  0  0
   63.5394   31.5093   49.3067 H   0  0  0  0  0  0  0  0  0  0  0  0
   64.4695   33.3161   47.8512 H   0  0  0  0  0  0  0  0  0  0  0  0
   63.0394   34.3164   46.0621 H   0  0  0  0  0  0  0  0  0  0  0  0
   59.4658   29.7663   43.4492 H   0  0  0  0  0  0  0  0  0  0  0  0
   60.1598   30.4376   45.0079 H   0  0  0  0  0  0  0  0  0  0  0  0
   59.1587   27.9665   44.8494 H   0  0  0  0  0  0  0  0  0  0  0  0
   58.9970   29.0361   46.3238 H   0  0  0  0  0  0  0  0  0  0  0  0
   56.7733   29.2430   46.1198 H   0  0  0  0  0  0  0  0  0  0  0  0
   55.4850   23.7418   43.0614 H   0  0  0  0  0  0  0  0  0  0  0  0
   56.0897   21.4697   42.2291 H   0  0  0  0  0  0  0  0  0  0  0  0
   58.0768   20.2813   43.1615 H   0  0  0  0  0  0  0  0  0  0  0  0
   59.4660   21.3688   44.9267 H   0  0  0  0  0  0  0  0  0  0  0  0
   58.8732   23.6416   45.7654 H   0  0  0  0  0  0  0  0  0  0  0  0
   54.9991   24.8233   46.2259 H   0  0  0  0  0  0  0  0  0  0  0  0
   57.0547   29.0184   43.0867 H   0  0  0  0  0  0  0  0  0  0  0  0
   55.5172   29.3090   43.9701 H   0  0  0  0  0  0  0  0  0  0  0  0
   56.7237   31.3912   43.0749 H   0  0  0  0  0  0  0  0  0  0  0  0
   56.2982   31.3768   44.8542 H   0  0  0  0  0  0  0  0  0  0  0  0
  1  2  2  0
  2  3  2  0
  2  4  1  0
  4  5  2  0
  5  6  1  0
  6  7  2  0
  7  8  1  0
  8  9  2  0
  9 10  1  0
 10 11  2  0
 11 12  1  0
 12 13  2  0
  2 14  1  0
 14 15  1  0
 15 16  1  0
 16 17  1  0
 17 18  1  0
 18 19  2  0
 19 20  1  0
 20 21  1  0
 21 22  2  0
 22 23  1  0
 23 24  2  0
 24 25  1  0
 25 26  2  0
 20 27  2  0
 27 28  1  0
 17 29  1  0
 29 30  1  0
 13  4  1  0
 30 14  1  0
 13  8  1  0
 28 18  1  0
 26 21  1  0
  5 31  1  0
  6 32  1  0
  7 33  1  0
  9 34  1  0
 10 35  1  0
 11 36  1  0
 15 37  1  0
 15 38  1  0
 16 39  1  0
 16 40  1  0
 17 41  1  0
 22 42  1  0
 23 43  1  0
 24 44  1  0
 25 45  1  0
 26 46  1  0
 27 47  1  0
 29 48  1  0
 29 49  1  0
 30 50  1  0
 30 51  1  0
M  CHG  1  28  -1
M  END
>  <UniqueID>  (34) 
34

>  <SMILES>  (34) 
O=S(=O)(c1cccc2cccnc12)N1CCC(c2nc(-c3ccccc3)c[n-]2)CC1

>  <Energy>  (34) 
97.33780725536343

>  <Genealogy>  (34) 
O=S(=O)(c1cccc2cccnc12)N1CCC(c2nc(-c3ccccc3)c[n-]2)CC1 (protonated)
O=S(=O)(c1cccc2cccnc12)N1CCC(c2nc(-c3ccccc3)c[n-]2)CC1 (3D coordinates assigned)
O=S(=O)(c1cccc2cccnc12)N1CCC(c2nc(-c3ccccc3)c[n-]2)CC1 (nonaromatic ring conformer: 97.33780725536343 kcal/mol)

>  <smiles>  (34) 
O=S(=O)(c1cccc2cccnc12)N1CCC(c2nc(-c3ccccc3)c[nH]2)CC1

>  <score_type>  (34) 
oracle

>  <origin>  (34) 
adg

>  <m_score__min__energy>  (34) 
-11.23

>  <m_primary>  (34) 
energy

$$$$
34:0
     RDKit          3D

 38 40  0  0  0  0  0  0  0  0999 V2000
   60.7420   31.1140   50.8680 O   0  0  0  0  0  0  0  0  0  0  0  0
   59.6200   31.4970   50.4380 C   0  0  0  0  0  0  0  0  0  0  0  0
   58.4130   30.8860   50.9310 N   0  0  0  0  0  0  0  0  0  0  0  0
   58.3630   30.0280   52.0840 C   0  0  0  0  0  0  0  0  0  0  0  0
   59.4290   29.6530   52.6460 O   0  0  0  0  0  0  0  0  0  0  0  0
   57.0600   29.5580   52.6150 C   0  0  0  0  0  0  0  0  0  0  0  0
   56.9790   28.3740   53.3620 C   0  0  0  0  0  0  0  0  0  0  0  0
   58.1160   27.6080   53.6070 O   0  0  0  0  0  0  0  0  0  0  0  0
   55.7800   27.9570   53.8390 N   0  0  0  0  0  0  0  0  0  0  0  0
   54.6420   28.6580   53.6150 C   0  0  0  0  0  0  0  0  0  0  0  0
   53.5520   28.2130   54.0670 O   0  0  0  0  0  0  0  0  0  0  0  0
   54.6800   29.8260   52.9010 N   0  0  0  0  0  0  0  0  0  0  0  0
   53.4660   30.5730   52.6720 C   0  0  0  0  0  0  0  0  0  0  0  0
   53.1360   31.0100   51.3770 C   0  0  0  0  0  0  0  0  0  0  0  0
   51.9620   31.7350   51.1570 C   0  0  0  0  0  0  0  0  0  0  0  0
   51.1080   32.0290   52.2250 C   0  0  0  0  0  0  0  0  0  0  0  0
   49.9410   32.7500   52.0050 O   0  0  0  0  0  0  0  0  0  0  0  0
   51.4300   31.5980   53.5170 C   0  0  0  0  0  0  0  0  0  0  0  0
   52.6040   30.8730   53.7410 C   0  0  0  0  0  0  0  0  0  0  0  0
   55.8740   30.2890   52.4090 C   0  0  0  0  0  0  0  0  0  0  0  0
   55.9190   31.3950   51.7970 O   0  0  0  0  0  0  0  0  0  0  0  0
   59.5670   32.5630   49.4080 C   0  0  0  0  0  0  0  0  0  0  0  0
   60.5550   33.5650   49.3480 C   0  0  0  0  0  0  0  0  0  0  0  0
   60.4950   34.5590   48.3670 C   0  0  0  0  0  0  0  0  0  0  0  0
   59.4560   34.5630   47.4340 C   0  0  0  0  0  0  0  0  0  0  0  0
   58.4780   33.5680   47.4760 C   0  0  0  0  0  0  0  0  0  0  0  0
   58.5320   32.5700   48.4540 C   0  0  0  0  0  0  0  0  0  0  0  0
   57.5310   31.0260   50.3910 H   0  0  0  0  0  0  0  0  0  0  0  0
   59.0430   27.9960   53.4730 H   0  0  0  0  0  0  0  0  0  0  0  0
   53.8044   30.7803   50.5341 H   0  0  0  0  0  0  0  0  0  0  0  0
   51.7089   32.0752   50.1420 H   0  0  0  0  0  0  0  0  0  0  0  0
   50.7587   31.8300   54.3569 H   0  0  0  0  0  0  0  0  0  0  0  0
   52.8542   30.5360   54.7578 H   0  0  0  0  0  0  0  0  0  0  0  0
   61.3785   33.5654   50.0773 H   0  0  0  0  0  0  0  0  0  0  0  0
   61.2684   35.3403   48.3299 H   0  0  0  0  0  0  0  0  0  0  0  0
   59.4083   35.3496   46.6666 H   0  0  0  0  0  0  0  0  0  0  0  0
   57.6625   33.5689   46.7377 H   0  0  0  0  0  0  0  0  0  0  0  0
   57.7611   31.7857   48.4780 H   0  0  0  0  0  0  0  0  0  0  0  0
  1  2  2  0
  2  3  1  0
  3  4  1  0
  4  5  2  0
  4  6  1  0
  6  7  2  0
  7  8  1  0
  7  9  1  0
  9 10  1  0
 10 11  2  0
 10 12  1  0
 12 13  1  0
 13 14  2  0
 14 15  1  0
 15 16  2  0
 16 17  1  0
 16 18  1  0
 18 19  2  0
 12 20  1  0
 20 21  2  0
  2 22  1  0
 22 23  2  0
 23 24  1  0
 24 25  2  0
 25 26  1  0
 26 27  2  0
 20  6  1  0
 27 22  1  0
 19 13  1  0
  3 28  1  0
  8 29  1  0
 14 30  1  0
 15 31  1  0
 18 32  1  0
 19 33  1  0
 23 34  1  0
 24 35  1  0
 25 36  1  0
 26 37  1  0
 27 38  1  0
M  CHG  2   9  -1  17  -1
M  END
>  <UniqueID>  (35) 
35

>  <SMILES>  (35) 
O=C(NC(=O)c1c(O)[n-]c(=O)n(-c2ccc([O-])cc2)c1=O)c1ccccc1

>  <Energy>  (35) 
60.09701910540723

>  <Genealogy>  (35) 
O=C(NC(=O)c1c(O)[n-]c(=O)n(-c2ccc([O-])cc2)c1=O)c1ccccc1 (protonated)
O=C(NC(=O)c1c(O)[n-]c(=O)n(-c2ccc([O-])cc2)c1=O)c1ccccc1 (3D coordinates assigned)
O=C(NC(=O)c1c(O)[n-]c(=O)n(-c2ccc([O-])cc2)c1=O)c1ccccc1 (optimized conformer: 60.09701910540723 kcal/mol)

>  <smiles>  (35) 
O=C(NC(=O)c1c(O)[nH]c(=O)n(-c2ccc(O)cc2)c1=O)c1ccccc1

>  <score_type>  (35) 
oracle

>  <origin>  (35) 
adg

>  <m_score__min__energy>  (35) 
-11.56

>  <m_primary>  (35) 
energy

$$$$
35:0
     RDKit          3D

 49 51  0  0  0  0  0  0  0  0999 V2000
   64.2650   33.4250   49.1170 C   0  0  0  0  0  0  0  0  0  0  0  0
   63.4080   32.2800   48.7630 N   0  0  0  0  0  0  0  0  0  0  0  0
   63.0350   32.2710   47.3320 C   0  0  0  0  0  0  0  0  0  0  0  0
   61.9870   33.3380   46.9890 C   0  0  0  0  0  0  0  0  0  0  0  0
   60.8580   33.2510   47.9180 N   0  0  0  0  0  0  0  0  0  0  0  0
   59.5440   33.6440   47.4820 C   0  0  0  0  0  0  0  0  0  0  0  0
   58.9110   34.5200   48.1320 O   0  0  0  0  0  0  0  0  0  0  0  0
   58.9130   33.0220   46.2930 C   0  0  0  0  0  0  0  0  0  0  0  0
   59.1160   31.6620   46.0110 C   0  0  0  0  0  0  0  0  0  0  0  0
   58.5230   31.0730   44.8900 C   0  0  0  0  0  0  0  0  0  0  0  0
   57.7150   31.8320   44.0250 C   0  0  0  0  0  0  0  0  0  0  0  0
   57.0870   31.1870   42.8410 C   0  0  0  0  0  0  0  0  0  0  0  0
   57.3870   31.5980   41.6860 O   0  0  0  0  0  0  0  0  0  0  0  0
   56.0550   30.0970   42.9930 C   0  0  0  0  0  0  0  0  0  0  0  0
   56.3010   29.2620   44.2130 C   0  0  0  0  0  0  0  0  0  0  0  0
   55.7340   29.5610   45.2990 O   0  0  0  0  0  0  0  0  0  0  0  0
   57.2350   28.1790   44.1540 N   0  0  0  0  0  0  0  0  0  0  0  0
   58.0190   27.7300   45.2650 C   0  0  0  0  0  0  0  0  0  0  0  0
   59.6160   28.1840   45.5060 S   0  0  0  0  0  0  0  0  0  0  0  0
   59.8160   27.3690   46.9620 C   0  0  0  0  0  0  0  0  0  0  0  0
   58.6280   26.7160   47.2700 C   0  0  0  0  0  0  0  0  0  0  0  0
   57.6120   26.8970   46.3150 C   0  0  0  0  0  0  0  0  0  0  0  0
   56.3200   26.1830   46.3950 C   0  0  0  0  0  0  0  0  0  0  0  0
   55.1710   26.7130   45.7380 N   0  0  0  0  0  0  0  0  0  0  0  0
   56.2120   25.1260   47.0700 O   0  0  0  0  0  0  0  0  0  0  0  0
   57.5310   33.2000   44.2980 C   0  0  0  0  0  0  0  0  0  0  0  0
   58.1260   33.7880   45.4160 C   0  0  0  0  0  0  0  0  0  0  0  0
   61.1580   33.2230   49.3520 C   0  0  0  0  0  0  0  0  0  0  0  0
   62.2280   32.1610   49.6450 C   0  0  0  0  0  0  0  0  0  0  0  0
   64.3290   33.5105   50.2118 H   0  0  0  0  0  0  0  0  0  0  0  0
   65.2720   33.2715   48.7017 H   0  0  0  0  0  0  0  0  0  0  0  0
   63.8339   34.3479   48.7017 H   0  0  0  0  0  0  0  0  0  0  0  0
   63.9375   32.4576   46.7314 H   0  0  0  0  0  0  0  0  0  0  0  0
   62.5952   31.2879   47.1084 H   0  0  0  0  0  0  0  0  0  0  0  0
   62.4448   34.3353   47.0650 H   0  0  0  0  0  0  0  0  0  0  0  0
   61.6240   33.1701   45.9643 H   0  0  0  0  0  0  0  0  0  0  0  0
   59.7466   31.0548   46.6771 H   0  0  0  0  0  0  0  0  0  0  0  0
   58.6902   30.0057   44.6828 H   0  0  0  0  0  0  0  0  0  0  0  0
   55.0595   30.5581   43.0723 H   0  0  0  0  0  0  0  0  0  0  0  0
   56.1188   29.4413   42.1121 H   0  0  0  0  0  0  0  0  0  0  0  0
   60.7330   27.3546   47.5694 H   0  0  0  0  0  0  0  0  0  0  0  0
   58.4947   26.1118   48.1795 H   0  0  0  0  0  0  0  0  0  0  0  0
   55.2660   27.4130   44.9690 H   0  0  0  0  0  0  0  0  0  0  0  0
   56.9128   33.8118   43.6246 H   0  0  0  0  0  0  0  0  0  0  0  0
   57.9775   34.8601   45.6121 H   0  0  0  0  0  0  0  0  0  0  0  0
   61.5290   34.2099   49.6657 H   0  0  0  0  0  0  0  0  0  0  0  0
   60.2416   32.9746   49.9075 H   0  0  0  0  0  0  0  0  0  0  0  0
   62.5566   32.2716   50.6889 H   0  0  0  0  0  0  0  0  0  0  0  0
   61.7756   31.1751   49.4625 H   0  0  0  0  0  0  0  0  0  0  0  0
  1  2  1  0
  2  3  1  0
  3  4  1  0
  4  5  1  0
  5  6  1  0
  6  7  2  0
  6  8  1  0
  8  9  2  0
  9 10  1  0
 10 11  2  0
 11 12  1  0
 12 13  2  0
 12 14  1  0
 14 15  1  0
 15 16  2  0
 15 17  1  0
 17 18  1  0
 18 19  1  0
 19 20  1  0
 20 21  2  0
 21 22  1  0
 22 23  1  0
 23 24  1  0
 23 25  2  0
 11 26  1  0
 26 27  2  0
  5 28  1  0
 28 29  1  0
 29  2  1  0
 27  8  1  0
 22 18  2  0
  1 30  1  0
  1 31  1  0
  1 32  1  0
  3 33  1  0
  3 34  1  0
  4 35  1  0
  4 36  1  0
  9 37  1  0
 10 38  1  0
 14 39  1  0
 14 40  1  0
 20 41  1  0
 21 42  1  0
 24 43  1  0
 26 44  1  0
 27 45  1  0
 28 46  1  0
 28 47  1  0
 29 48  1  0
 29 49  1  0
M  CHG  2  17  -1  24  -1
M  END
>  <UniqueID>  (36) 
36

>  <SMILES>  (36) 
CN1CCN(C(=O)c2ccc(C(=O)CC(=O)[N-]c3sccc3C([NH-])=O)cc2)CC1

>  <Energy>  (36) 
91.08990538315167

>  <Genealogy>  (36) 
CN1CCN(C(=O)c2ccc(C(=O)CC(=O)[N-]c3sccc3C([NH-])=O)cc2)CC1 (protonated)
CN1CCN(C(=O)c2ccc(C(=O)CC(=O)[N-]c3sccc3C([NH-])=O)cc2)CC1 (3D coordinates assigned)
CN1CCN(C(=O)c2ccc(C(=O)CC(=O)[N-]c3sccc3C([NH-])=O)cc2)CC1 (nonaromatic ring conformer: 91.08990538315167 kcal/mol)

>  <smiles>  (36) 
CN1CCN(C(=O)c2ccc(C(=O)CC(=O)Nc3sccc3C(N)=O)cc2)CC1

>  <score_type>  (36) 
oracle

>  <origin>  (36) 
adg

>  <m_score__min__energy>  (36) 
-15.140000000000001

>  <m_primary>  (36) 
energy

$$$$
36:0
     RDKit          3D

 39 41  0  0  0  0  0  0  0  0999 V2000
   59.2000   29.9840   44.2970 O   0  0  0  0  0  0  0  0  0  0  0  0
   58.0640   29.9550   44.8370 C   0  0  0  0  0  0  0  0  0  0  0  0
   57.4020   31.1970   45.1220 N   0  0  0  0  0  0  0  0  0  0  0  0
   58.0360   32.4540   45.4010 C   0  0  0  0  0  0  0  0  0  0  0  0
   57.8780   33.5660   44.5550 C   0  0  0  0  0  0  0  0  0  0  0  0
   58.5060   34.7750   44.8610 C   0  0  0  0  0  0  0  0  0  0  0  0
   59.2750   34.8930   46.0210 C   0  0  0  0  0  0  0  0  0  0  0  0
   59.4070   33.8050   46.8990 C   0  0  0  0  0  0  0  0  0  0  0  0
   60.2210   33.9200   48.1300 C   0  0  0  0  0  0  0  0  0  0  0  0
   59.7700   34.5890   49.1000 O   0  0  0  0  0  0  0  0  0  0  0  0
   61.5150   33.2970   48.2430 N   0  0  0  0  0  0  0  0  0  0  0  0
   62.4110   33.1760   47.0880 C   0  0  0  0  0  0  0  0  0  0  0  0
   63.8520   33.4490   47.5300 C   0  0  0  0  0  0  0  0  0  0  0  0
   64.2020   32.6330   48.6340 O   0  0  0  0  0  0  0  0  0  0  0  0
   63.4150   32.9840   49.7580 C   0  0  0  0  0  0  0  0  0  0  0  0
   61.9360   32.6760   49.5030 C   0  0  0  0  0  0  0  0  0  0  0  0
   58.7860   32.5850   46.5750 C   0  0  0  0  0  0  0  0  0  0  0  0
   57.4610   28.6470   45.1600 C   0  0  0  0  0  0  0  0  0  0  0  0
   58.2910   27.5950   45.3920 N   0  0  0  0  0  0  0  0  0  0  0  0
   57.8170   26.3730   45.7460 C   0  0  0  0  0  0  0  0  0  0  0  0
   58.6190   25.4250   45.9590 O   0  0  0  0  0  0  0  0  0  0  0  0
   56.4370   26.1860   45.8760 C   0  0  0  0  0  0  0  0  0  0  0  0
   55.9660   25.0680   46.2160 O   0  0  0  0  0  0  0  0  0  0  0  0
   55.5980   27.2220   45.6200 N   0  0  0  0  0  0  0  0  0  0  0  0
   56.0650   28.4450   45.2500 C   0  0  0  0  0  0  0  0  0  0  0  0
   55.1410   29.4440   44.9410 O   0  0  0  0  0  0  0  0  0  0  0  0
   57.2582   33.4833   43.6500 H   0  0  0  0  0  0  0  0  0  0  0  0
   58.3948   35.6369   44.1866 H   0  0  0  0  0  0  0  0  0  0  0  0
   59.7800   35.8435   46.2481 H   0  0  0  0  0  0  0  0  0  0  0  0
   62.3406   32.1593   46.6741 H   0  0  0  0  0  0  0  0  0  0  0  0
   62.1186   33.9057   46.3186 H   0  0  0  0  0  0  0  0  0  0  0  0
   64.5328   33.2349   46.6929 H   0  0  0  0  0  0  0  0  0  0  0  0
   63.9351   34.5039   47.8305 H   0  0  0  0  0  0  0  0  0  0  0  0
   63.7576   32.4102   50.6317 H   0  0  0  0  0  0  0  0  0  0  0  0
   63.5242   34.0629   49.9423 H   0  0  0  0  0  0  0  0  0  0  0  0
   61.7943   31.5870   49.4398 H   0  0  0  0  0  0  0  0  0  0  0  0
   61.3311   33.0784   50.3289 H   0  0  0  0  0  0  0  0  0  0  0  0
   58.8912   31.7245   47.2521 H   0  0  0  0  0  0  0  0  0  0  0  0
   55.2910   30.4200   45.1600 H   0  0  0  0  0  0  0  0  0  0  0  0
  1  2  2  0
  2  3  1  0
  3  4  1  0
  4  5  2  0
  5  6  1  0
  6  7  2  0
  7  8  1  0
  8  9  1  0
  9 10  2  0
  9 11  1  0
 11 12  1  0
 12 13  1  0
 13 14  1  0
 14 15  1  0
 15 16  1  0
  8 17  2  0
  2 18  1  0
 18 19  1  0
 19 20  1  0
 20 21  2  0
 20 22  1  0
 22 23  2  0
 22 24  1  0
 24 25  1  0
 25 26  1  0
 17  4  1  0
 25 18  2  0
 16 11  1  0
  5 27  1  0
  6 28  1  0
  7 29  1  0
 12 30  1  0
 12 31  1  0
 13 32  1  0
 13 33  1  0
 15 34  1  0
 15 35  1  0
 16 36  1  0
 16 37  1  0
 17 38  1  0
 26 39  1  0
M  CHG  3   3  -1  19  -1  24  -1
M  END
>  <UniqueID>  (37) 
37

>  <SMILES>  (37) 
O=C([N-]c1cccc(C(=O)N2CCOCC2)c1)c1[n-]c(=O)c(=O)[n-]c1O

>  <Energy>  (37) 
59.338334799008976

>  <Genealogy>  (37) 
O=C([N-]c1cccc(C(=O)N2CCOCC2)c1)c1[n-]c(=O)c(=O)[n-]c1O (protonated)
O=C([N-]c1cccc(C(=O)N2CCOCC2)c1)c1[n-]c(=O)c(=O)[n-]c1O (3D coordinates assigned)
O=C([N-]c1cccc(C(=O)N2CCOCC2)c1)c1[n-]c(=O)c(=O)[n-]c1O (nonaromatic ring conformer: 59.338334799008976 kcal/mol)

>  <smiles>  (37) 
O=C(Nc1cccc(C(=O)N2CCOCC2)c1)c1[nH]c(=O)c(=O)[nH]c1O

>  <score_type>  (37) 
oracle

>  <origin>  (37) 
adg

>  <m_score__min__energy>  (37) 
-13.199999999999999

>  <m_primary>  (37) 
energy

$$$$
37:0
     RDKit          3D

 54 56  0  0  0  0  0  0  0  0999 V2000
   56.8200   20.7530   43.0370 C   0  0  0  0  0  0  0  0  0  0  0  0
   55.9590   21.7910   43.4950 O   0  0  0  0  0  0  0  0  0  0  0  0
   56.3960   23.0580   43.9100 C   0  0  0  0  0  0  0  0  0  0  0  0
   56.9720   23.9860   43.0240 C   0  0  0  0  0  0  0  0  0  0  0  0
   57.3910   25.2380   43.4850 C   0  0  0  0  0  0  0  0  0  0  0  0
   57.2520   25.5850   44.8400 C   0  0  0  0  0  0  0  0  0  0  0  0
   57.6870   26.9220   45.3160 C   0  0  0  0  0  0  0  0  0  0  0  0
   57.3140   27.9510   44.6900 O   0  0  0  0  0  0  0  0  0  0  0  0
   58.5520   27.0540   46.4570 N   0  0  0  0  0  0  0  0  0  0  0  0
   58.6940   28.2700   47.2080 C   0  0  0  0  0  0  0  0  0  0  0  0
   57.9730   29.2720   46.9400 O   0  0  0  0  0  0  0  0  0  0  0  0
   59.6830   28.3520   48.2430 N   0  0  0  0  0  0  0  0  0  0  0  0
   59.6780   29.3440   49.2840 C   0  0  0  0  0  0  0  0  0  0  0  0
   60.1470   29.0520   50.5780 C   0  0  0  0  0  0  0  0  0  0  0  0
   60.1740   30.0460   51.5590 C   0  0  0  0  0  0  0  0  0  0  0  0
   59.7480   31.3410   51.2590 C   0  0  0  0  0  0  0  0  0  0  0  0
   59.2930   31.6550   49.9640 C   0  0  0  0  0  0  0  0  0  0  0  0
   58.8610   32.9440   49.6100 O   0  0  0  0  0  0  0  0  0  0  0  0
   59.7090   33.9580   49.0770 C   0  0  0  0  0  0  0  0  0  0  0  0
   59.3800   34.1820   47.6290 C   0  0  0  0  0  0  0  0  0  0  0  0
   59.7860   35.1980   47.0780 O   0  0  0  0  0  0  0  0  0  0  0  0
   58.6260   33.1950   46.8800 N   0  0  0  0  0  0  0  0  0  0  0  0
   57.5680   33.8500   46.0790 C   0  0  0  0  0  0  0  0  0  0  0  0
   57.0320   32.9160   44.9740 C   0  0  0  0  0  0  0  0  0  0  0  0
   57.3180   31.5700   45.2790 O   0  0  0  0  0  0  0  0  0  0  0  0
   58.7160   31.3490   45.2210 C   0  0  0  0  0  0  0  0  0  0  0  0
   59.5210   32.4000   46.0240 C   0  0  0  0  0  0  0  0  0  0  0  0
   59.2650   30.6530   48.9860 C   0  0  0  0  0  0  0  0  0  0  0  0
   56.6660   24.6580   45.7190 C   0  0  0  0  0  0  0  0  0  0  0  0
   56.2450   23.4070   45.2560 C   0  0  0  0  0  0  0  0  0  0  0  0
   57.2546   20.2291   43.9011 H   0  0  0  0  0  0  0  0  0  0  0  0
   56.2439   20.0407   42.4281 H   0  0  0  0  0  0  0  0  0  0  0  0
   57.6265   21.1875   42.4281 H   0  0  0  0  0  0  0  0  0  0  0  0
   57.0936   23.7255   41.9622 H   0  0  0  0  0  0  0  0  0  0  0  0
   57.8334   25.9579   42.7807 H   0  0  0  0  0  0  0  0  0  0  0  0
   59.1210   26.2310   46.7570 H   0  0  0  0  0  0  0  0  0  0  0  0
   60.4690   27.6610   48.2210 H   0  0  0  0  0  0  0  0  0  0  0  0
   60.4940   28.0362   50.8182 H   0  0  0  0  0  0  0  0  0  0  0  0
   60.5322   29.8075   52.5713 H   0  0  0  0  0  0  0  0  0  0  0  0
   59.7678   32.1187   52.0367 H   0  0  0  0  0  0  0  0  0  0  0  0
   59.5567   34.8932   49.6357 H   0  0  0  0  0  0  0  0  0  0  0  0
   60.7584   33.6408   49.1678 H   0  0  0  0  0  0  0  0  0  0  0  0
   58.1670   32.5390   47.5560 H   0  0  0  0  0  0  0  0  0  0  0  0
   56.7377   34.1290   46.7444 H   0  0  0  0  0  0  0  0  0  0  0  0
   58.0015   34.7391   45.5977 H   0  0  0  0  0  0  0  0  0  0  0  0
   55.9427   33.0438   44.8898 H   0  0  0  0  0  0  0  0  0  0  0  0
   57.5207   33.1753   44.0232 H   0  0  0  0  0  0  0  0  0  0  0  0
   58.9319   30.3516   45.6315 H   0  0  0  0  0  0  0  0  0  0  0  0
   59.0218   31.4303   44.1675 H   0  0  0  0  0  0  0  0  0  0  0  0
   60.2604   31.8845   46.6545 H   0  0  0  0  0  0  0  0  0  0  0  0
   60.0272   33.0743   45.3175 H   0  0  0  0  0  0  0  0  0  0  0  0
   58.9151   30.8942   47.9714 H   0  0  0  0  0  0  0  0  0  0  0  0
   56.5374   24.9184   46.7800 H   0  0  0  0  0  0  0  0  0  0  0  0
   55.7910   22.6911   45.9569 H   0  0  0  0  0  0  0  0  0  0  0  0
  1  2  1  0
  2  3  1  0
  3  4  2  0
  4  5  1  0
  5  6  2  0
  6  7  1  0
  7  8  2  0
  7  9  1  0
  9 10  1  0
 10 11  2  0
 10 12  1  0
 12 13  1  0
 13 14  2  0
 14 15  1  0
 15 16  2  0
 16 17  1  0
 17 18  1  0
 18 19  1  0
 19 20  1  0
 20 21  2  0
 20 22  1  0
 22 23  1  0
 23 24  1  0
 24 25  1  0
 25 26  1  0
 26 27  1  0
 17 28  2  0
  6 29  1  0
 29 30  2  0
 30  3  1  0
 28 13  1  0
 27 22  1  0
  1 31  1  0
  1 32  1  0
  1 33  1  0
  4 34  1  0
  5 35  1  0
  9 36  1  0
 12 37  1  0
 14 38  1  0
 15 39  1  0
 16 40  1  0
 19 41  1  0
 19 42  1  0
 22 43  1  0
 23 44  1  0
 23 45  1  0
 24 46  1  0
 24 47  1  0
 26 48  1  0
 26 49  1  0
 27 50  1  0
 27 51  1  0
 28 52  1  0
 29 53  1  0
 30 54  1  0
M  CHG  1  22   1
M  END
>  <UniqueID>  (38) 
38

>  <SMILES>  (38) 
COc1ccc(C(=O)NC(=O)Nc2cccc(OCC(=O)[NH+]3CCOCC3)c2)cc1

>  <Energy>  (38) 
69.40634435751278

>  <Genealogy>  (38) 
COc1ccc(C(=O)NC(=O)Nc2cccc(OCC(=O)[NH+]3CCOCC3)c2)cc1 (protonated)
COc1ccc(C(=O)NC(=O)Nc2cccc(OCC(=O)[NH+]3CCOCC3)c2)cc1 (3D coordinates assigned)
COc1ccc(C(=O)NC(=O)Nc2cccc(OCC(=O)[NH+]3CCOCC3)c2)cc1 (nonaromatic ring conformer: 69.40634435751278 kcal/mol)

>  <smiles>  (38) 
COc1ccc(C(=O)NC(=O)Nc2cccc(OCC(=O)N3CCOCC3)c2)cc1

>  <score_type>  (38) 
oracle

>  <origin>  (38) 
adg

>  <m_score__min__energy>  (38) 
-6.6500000000000004

>  <m_primary>  (38) 
energy

$$$$
38:0
     RDKit          3D

 37 38  0  0  0  0  0  0  0  0999 V2000
   54.7560   27.0660   46.6520 H   0  0  0  0  0  0  0  0  0  0  0  0
   55.1210   26.3930   45.9410 N   0  0  0  0  0  0  0  0  0  0  0  0
   56.8210   26.6660   45.8130 S   0  0  0  0  0  0  0  0  0  0  0  0
   57.4600   26.5040   47.1640 O   0  0  0  0  0  0  0  0  0  0  0  0
   57.4200   25.6570   44.8730 O   0  0  0  0  0  0  0  0  0  0  0  0
   57.1120   28.2940   45.2080 C   0  0  0  0  0  0  0  0  0  0  0  0
   56.0480   29.0710   44.7310 C   0  0  0  0  0  0  0  0  0  0  0  0
   55.0285   28.6580   44.7217 H   0  0  0  0  0  0  0  0  0  0  0  0
   56.2780   30.3690   44.2670 C   0  0  0  0  0  0  0  0  0  0  0  0
   55.4379   30.9745   43.8960 H   0  0  0  0  0  0  0  0  0  0  0  0
   57.5760   30.9040   44.2720 C   0  0  0  0  0  0  0  0  0  0  0  0
   57.8160   32.3210   43.8180 C   0  0  0  0  0  0  0  0  0  0  0  0
   57.2364   32.5060   42.9016 H   0  0  0  0  0  0  0  0  0  0  0  0
   58.8928   32.4466   43.6315 H   0  0  0  0  0  0  0  0  0  0  0  0
   57.3910   33.3330   44.8900 C   0  0  0  0  0  0  0  0  0  0  0  0
   56.2990   33.4592   44.8510 H   0  0  0  0  0  0  0  0  0  0  0  0
   57.9001   34.2871   44.6885 H   0  0  0  0  0  0  0  0  0  0  0  0
   57.7710   32.8800   46.2280 N   0  0  0  0  0  0  0  0  0  0  0  0
   58.7530   33.3580   46.9360 C   0  0  0  0  0  0  0  0  0  0  0  0
   59.6490   34.7400   46.5680 S   0  0  0  0  0  0  0  0  0  0  0  0
   60.6190   34.6160   47.9380 C   0  0  0  0  0  0  0  0  0  0  0  0
   61.4313   35.3015   48.2213 H   0  0  0  0  0  0  0  0  0  0  0  0
   60.2100   33.4920   48.6480 C   0  0  0  0  0  0  0  0  0  0  0  0
   60.8110   33.1140   49.8430 O   0  0  0  0  0  0  0  0  0  0  0  0
   59.1810   32.7900   48.0910 N   0  0  0  0  0  0  0  0  0  0  0  0
   58.5980   31.5870   48.7000 C   0  0  0  0  0  0  0  0  0  0  0  0
   57.5400   31.5101   48.4090 H   0  0  0  0  0  0  0  0  0  0  0  0
   58.6851   31.6634   49.7939 H   0  0  0  0  0  0  0  0  0  0  0  0
   59.3290   30.3580   48.2380 C   0  0  0  0  0  0  0  0  0  0  0  0
   60.2020   30.4702   47.5782 H   0  0  0  0  0  0  0  0  0  0  0  0
   58.9460   29.1320   48.6080 C   0  0  0  0  0  0  0  0  0  0  0  0
   59.5018   28.2516   48.2530 H   0  0  0  0  0  0  0  0  0  0  0  0
   58.0750   29.0035   49.2675 H   0  0  0  0  0  0  0  0  0  0  0  0
   58.6370   30.1280   44.7670 C   0  0  0  0  0  0  0  0  0  0  0  0
   59.6552   30.5437   44.7886 H   0  0  0  0  0  0  0  0  0  0  0  0
   58.4060   28.8310   45.2320 C   0  0  0  0  0  0  0  0  0  0  0  0
   59.2423   28.2297   45.6180 H   0  0  0  0  0  0  0  0  0  0  0  0
  1  2  1  0
  2  3  1  0
  3  4  2  0
  3  5  2  0
  3  6  1  0
  6  7  2  0
  7  8  1  0
  7  9  1  0
  9 10  1  0
  9 11  2  0
 11 12  1  0
 12 13  1  0
 12 14  1  0
 12 15  1  0
 15 16  1  0
 15 17  1  0
 15 18  1  0
 18 19  2  0
 19 20  1  0
 20 21  1  0
 21 22  1  0
 21 23  2  0
 23 24  1  0
 23 25  1  0
 25 26  1  0
 26 27  1  0
 26 28  1  0
 26 29  1  0
 29 30  1  0
 29 31  2  0
 31 32  1  0
 31 33  1  0
 11 34  1  0
 34 35  1  0
 34 36  2  0
 36 37  1  0
 36  6  1  0
 25 19  1  0
M  CHG  2   2  -1  24  -1
M  END
>  <UniqueID>  (39) 
39

>  <SMILES>  (39) 
C=CCn1c([O-])cs/c1=N\CCc1ccc(S([NH-])(=O)=O)cc1

>  <Energy>  (39) 
61.474731568062666

>  <Genealogy>  (39) 
C=CCn1c([O-])csc1=NCCc1ccc(S([NH-])(=O)=O)cc1 (protonated)
C=CCn1c([O-])cs/c1=N\CCc1ccc(S([NH-])(=O)=O)cc1 (cis-trans isomerization)
C=CCn1c([O-])cs/c1=N\CCc1ccc(S([NH-])(=O)=O)cc1 (3D coordinates assigned)
C=CCn1c([O-])cs/c1=N\CCc1ccc(S([NH-])(=O)=O)cc1 (optimized conformer: 61.474731568062666 kcal/mol)

>  <smiles>  (39) 
C=CCn1c(O)csc1=NCCc1ccc(S(N)(=O)=O)cc1

>  <score_type>  (39) 
oracle

>  <origin>  (39) 
adg

>  <m_score__min__energy>  (39) 
-10.9

>  <m_primary>  (39) 
energy

$$$$
39:0
     RDKit          3D

 60 64  0  0  0  0  0  0  0  0999 V2000
   54.7740   29.8790   43.7490 O   0  0  0  0  0  0  0  0  0  0  0  0
   55.9040   29.7210   44.2840 C   0  0  0  0  0  0  0  0  0  0  0  0
   57.0390   30.6090   43.8400 C   0  0  0  0  0  0  0  0  0  0  0  0
   57.4190   31.6560   44.8490 C   0  0  0  0  0  0  0  0  0  0  0  0
   56.6840   32.7770   45.2440 C   0  0  0  0  0  0  0  0  0  0  0  0
   57.3960   33.6440   46.0800 C   0  0  0  0  0  0  0  0  0  0  0  0
   58.6910   33.2170   46.3290 C   0  0  0  0  0  0  0  0  0  0  0  0
   59.8980   34.0810   47.2710 S   0  0  0  0  0  0  0  0  0  0  0  0
   60.3260   35.3050   46.5130 O   0  0  0  0  0  0  0  0  0  0  0  0
   59.2720   34.5210   48.5640 O   0  0  0  0  0  0  0  0  0  0  0  0
   61.2970   33.0880   47.6030 N   0  0  0  0  0  0  0  0  0  0  0  0
   61.5980   33.0770   49.0490 C   0  0  0  0  0  0  0  0  0  0  0  0
   63.0000   32.4930   49.3240 C   0  0  0  0  0  0  0  0  0  0  0  0
   63.4810   31.7760   48.2040 O   0  0  0  0  0  0  0  0  0  0  0  0
   63.6920   32.6600   47.1190 C   0  0  0  0  0  0  0  0  0  0  0  0
   62.4650   33.5540   46.8360 C   0  0  0  0  0  0  0  0  0  0  0  0
   58.9520   31.7660   45.5290 S   0  0  0  0  0  0  0  0  0  0  0  0
   56.0680   28.6550   45.2330 N   0  0  0  0  0  0  0  0  0  0  0  0
   57.2990   28.1750   45.7880 C   0  0  0  0  0  0  0  0  0  0  0  0
   57.6830   26.8540   45.5320 C   0  0  0  0  0  0  0  0  0  0  0  0
   58.8970   26.3670   46.0180 C   0  0  0  0  0  0  0  0  0  0  0  0
   59.7430   27.1990   46.7570 C   0  0  0  0  0  0  0  0  0  0  0  0
   59.3610   28.5190   47.0440 C   0  0  0  0  0  0  0  0  0  0  0  0
   60.2720   29.4150   47.7800 C   0  0  0  0  0  0  0  0  0  0  0  0
   61.1410   30.0670   47.1410 O   0  0  0  0  0  0  0  0  0  0  0  0
   60.2250   29.4900   49.2190 N   0  0  0  0  0  0  0  0  0  0  0  0
   61.1430   28.7590   50.1030 C   0  0  0  0  0  0  0  0  0  0  0  0
   60.9970   29.3940   51.5050 C   0  0  0  0  0  0  0  0  0  0  0  0
   59.9990   30.4740   51.2900 C   0  0  0  0  0  0  0  0  0  0  0  0
   59.4930   31.3690   52.2340 C   0  0  0  0  0  0  0  0  0  0  0  0
   58.5320   32.3060   51.8220 C   0  0  0  0  0  0  0  0  0  0  0  0
   58.0910   32.3260   50.4870 C   0  0  0  0  0  0  0  0  0  0  0  0
   58.6130   31.4150   49.5550 C   0  0  0  0  0  0  0  0  0  0  0  0
   59.5830   30.5010   49.9860 C   0  0  0  0  0  0  0  0  0  0  0  0
   58.1120   28.9860   46.6000 C   0  0  0  0  0  0  0  0  0  0  0  0
   57.9187   29.9774   43.6472 H   0  0  0  0  0  0  0  0  0  0  0  0
   56.6973   31.1403   42.9395 H   0  0  0  0  0  0  0  0  0  0  0  0
   55.6463   32.9600   44.9283 H   0  0  0  0  0  0  0  0  0  0  0  0
   56.9717   34.5693   46.4968 H   0  0  0  0  0  0  0  0  0  0  0  0
   61.0580   32.1160   47.2960 H   0  0  0  0  0  0  0  0  0  0  0  0
   61.5574   34.1075   49.4316 H   0  0  0  0  0  0  0  0  0  0  0  0
   60.8528   32.4454   49.5546 H   0  0  0  0  0  0  0  0  0  0  0  0
   63.6943   33.3160   49.5490 H   0  0  0  0  0  0  0  0  0  0  0  0
   62.9298   31.8024   50.1774 H   0  0  0  0  0  0  0  0  0  0  0  0
   64.5520   33.3051   47.3519 H   0  0  0  0  0  0  0  0  0  0  0  0
   63.8745   32.0500   46.2220 H   0  0  0  0  0  0  0  0  0  0  0  0
   62.6977   34.5895   47.1250 H   0  0  0  0  0  0  0  0  0  0  0  0
   62.2284   33.5028   45.7630 H   0  0  0  0  0  0  0  0  0  0  0  0
   57.0249   26.1965   44.9450 H   0  0  0  0  0  0  0  0  0  0  0  0
   59.1891   25.3253   45.8190 H   0  0  0  0  0  0  0  0  0  0  0  0
   60.7110   26.8182   47.1147 H   0  0  0  0  0  0  0  0  0  0  0  0
   60.8705   27.6939   50.1375 H   0  0  0  0  0  0  0  0  0  0  0  0
   62.1801   28.8234   49.7421 H   0  0  0  0  0  0  0  0  0  0  0  0
   60.6293   28.6575   52.2346 H   0  0  0  0  0  0  0  0  0  0  0  0
   61.9501   29.7638   51.9110 H   0  0  0  0  0  0  0  0  0  0  0  0
   59.8395   31.3408   53.2776 H   0  0  0  0  0  0  0  0  0  0  0  0
   58.1229   33.0265   52.5456 H   0  0  0  0  0  0  0  0  0  0  0  0
   57.3336   33.0587   50.1714 H   0  0  0  0  0  0  0  0  0  0  0  0
   58.2682   31.4189   48.5104 H   0  0  0  0  0  0  0  0  0  0  0  0
   57.7687   29.9904   46.8889 H   0  0  0  0  0  0  0  0  0  0  0  0
  1  2  2  0
  2  3  1  0
  3  4  1  0
  4  5  2  0
  5  6  1  0
  6  7  2  0
  7  8  1  0
  8  9  2  0
  8 10  2  0
  8 11  1  0
 11 12  1  0
 12 13  1  0
 13 14  1  0
 14 15  1  0
 15 16  1  0
  7 17  1  0
  2 18  1  0
 18 19  1  0
 19 20  2  0
 20 21  1  0
 21 22  2  0
 22 23  1  0
 23 24  1  0
 24 25  2  0
 24 26  1  0
 26 27  1  0
 27 28  1  0
 28 29  1  0
 29 30  2  0
 30 31  1  0
 31 32  2  0
 32 33  1  0
 33 34  2  0
 23 35  2  0
 17  4  1  0
 35 19  1  0
 16 11  1  0
 34 26  1  0
 34 29  1  0
  3 36  1  0
  3 37  1  0
  5 38  1  0
  6 39  1  0
 11 40  1  0
 12 41  1  0
 12 42  1  0
 13 43  1  0
 13 44  1  0
 15 45  1  0
 15 46  1  0
 16 47  1  0
 16 48  1  0
 20 49  1  0
 21 50  1  0
 22 51  1  0
 27 52  1  0
 27 53  1  0
 28 54  1  0
 28 55  1  0
 30 56  1  0
 31 57  1  0
 32 58  1  0
 33 59  1  0
 35 60  1  0
M  CHG  2  11   1  18  -1
M  END
>  <UniqueID>  (40) 
40

>  <SMILES>  (40) 
O=C(Cc1ccc(S(=O)(=O)[NH+]2CCOCC2)s1)[N-]c1cccc(C(=O)N2CCc3ccccc32)c1

>  <Energy>  (40) 
122.26917018910238

>  <Genealogy>  (40) 
O=C(Cc1ccc(S(=O)(=O)[NH+]2CCOCC2)s1)[N-]c1cccc(C(=O)N2CCc3ccccc32)c1 (protonated)
O=C(Cc1ccc(S(=O)(=O)[NH+]2CCOCC2)s1)[N-]c1cccc(C(=O)N2CCc3ccccc32)c1 (3D coordinates assigned)
O=C(Cc1ccc(S(=O)(=O)[NH+]2CCOCC2)s1)[N-]c1cccc(C(=O)N2CCc3ccccc32)c1 (nonaromatic ring conformer: 122.26917018910238 kcal/mol)

>  <smiles>  (40) 
O=C(Cc1ccc(S(=O)(=O)N2CCOCC2)s1)Nc1cccc(C(=O)N2CCc3ccccc32)c1

>  <score_type>  (40) 
oracle

>  <origin>  (40) 
adg

>  <m_score__min__energy>  (40) 
-10.380000000000001

>  <m_primary>  (40) 
energy

$$$$
40:0
     RDKit          3D

 29 31  0  0  0  0  0  0  0  0999 V2000
   55.8800   27.2280   45.6380 N   0  0  0  0  0  0  0  0  0  0  0  0
   56.5340   28.4440   45.2810 C   0  0  0  0  0  0  0  0  0  0  0  0
   56.3120   29.0030   44.0670 N   0  0  0  0  0  0  0  0  0  0  0  0
   56.9130   30.1660   43.7040 C   0  0  0  0  0  0  0  0  0  0  0  0
   57.7670   30.8350   44.6080 C   0  0  0  0  0  0  0  0  0  0  0  0
   58.0410   30.1830   45.8330 C   0  0  0  0  0  0  0  0  0  0  0  0
   58.8840   30.6480   46.6440 O   0  0  0  0  0  0  0  0  0  0  0  0
   57.4050   29.0250   46.1430 N   0  0  0  0  0  0  0  0  0  0  0  0
   58.4950   32.1110   44.1660 C   0  0  2  0  0  0  0  0  0  0  0  0
   58.7520   33.0790   45.3090 C   0  0  0  0  0  0  0  0  0  0  0  0
   59.9310   33.8400   45.3470 C   0  0  0  0  0  0  0  0  0  0  0  0
   60.1500   34.7410   46.3890 C   0  0  0  0  0  0  0  0  0  0  0  0
   59.1830   34.8840   47.3850 C   0  0  0  0  0  0  0  0  0  0  0  0
   58.0400   34.1520   47.3340 N   0  0  0  0  0  0  0  0  0  0  0  0
   57.8020   33.2670   46.3300 C   0  0  0  0  0  0  0  0  0  0  0  0
   57.7490   32.8700   43.0460 C   0  0  0  0  0  0  0  0  0  0  0  0
   57.2360   31.9400   41.9970 C   0  0  0  0  0  0  0  0  0  0  0  0
   57.1910   32.3040   40.7910 O   0  0  0  0  0  0  0  0  0  0  0  0
   56.7100   30.6710   42.3810 N   0  0  0  0  0  0  0  0  0  0  0  0
   55.7550   26.4680   44.9330 H   0  0  0  0  0  0  0  0  0  0  0  0
   55.5190   27.0880   46.6080 H   0  0  0  0  0  0  0  0  0  0  0  0
   59.4592   31.7483   43.7803 H   0  0  0  0  0  0  0  0  0  0  0  0
   60.6839   33.7255   44.5532 H   0  0  0  0  0  0  0  0  0  0  0  0
   61.0762   35.3333   46.4253 H   0  0  0  0  0  0  0  0  0  0  0  0
   59.3466   35.5903   48.2123 H   0  0  0  0  0  0  0  0  0  0  0  0
   56.8624   32.6951   46.3156 H   0  0  0  0  0  0  0  0  0  0  0  0
   56.9002   33.4129   43.4873 H   0  0  0  0  0  0  0  0  0  0  0  0
   58.4574   33.5652   42.5718 H   0  0  0  0  0  0  0  0  0  0  0  0
   56.1930   30.0940   41.6800 H   0  0  0  0  0  0  0  0  0  0  0  0
  1  2  1  0
  2  3  2  0
  3  4  1  0
  4  5  2  0
  5  6  1  0
  6  7  2  0
  6  8  1  0
  5  9  1  0
  9 10  1  0
 10 11  2  0
 11 12  1  0
 12 13  2  0
 13 14  1  0
 14 15  2  0
  9 16  1  0
 16 17  1  0
 17 18  2  0
 17 19  1  0
  8  2  1  0
 15 10  1  0
 19  4  1  0
  1 20  1  0
  1 21  1  0
  9 22  1  6
 11 23  1  0
 12 24  1  0
 13 25  1  0
 15 26  1  0
 16 27  1  0
 16 28  1  0
 19 29  1  0
M  CHG  1   8  -1
M  END
>  <UniqueID>  (41) 
41

>  <SMILES>  (41) 
Nc1nc2c(c(=O)[n-]1)[C@H](c1cccnc1)CC(=O)N2

>  <Energy>  (41) 
36.723645372455586

>  <Genealogy>  (41) 
Nc1nc2c(c(=O)[n-]1)C(c1cccnc1)CC(=O)N2 (protonated)
Nc1nc2c(c(=O)[n-]1)[C@H](c1cccnc1)CC(=O)N2 (chirality)
Nc1nc2c(c(=O)[n-]1)[C@H](c1cccnc1)CC(=O)N2 (3D coordinates assigned)
Nc1nc2c(c(=O)[n-]1)[C@H](c1cccnc1)CC(=O)N2 (nonaromatic ring conformer: 36.723645372455586 kcal/mol)

>  <smiles>  (41) 
Nc1nc2c(c(=O)[nH]1)C(c1cccnc1)CC(=O)N2

>  <score_type>  (41) 
oracle

>  <origin>  (41) 
adg

>  <m_score__min__energy>  (41) 
-8.4900000000000002

>  <m_primary>  (41) 
energy

$$$$
41:0
     RDKit          3D

 50 52  0  0  0  0  0  0  0  0999 V2000
   59.1060   34.2000   45.2450 C   0  0  0  0  0  0  0  0  0  0  0  0
   57.3760   33.7950   45.3470 S   0  0  0  0  0  0  0  0  0  0  0  0
   56.5380   34.9420   44.8550 O   0  0  0  0  0  0  0  0  0  0  0  0
   57.0290   33.5240   46.7840 O   0  0  0  0  0  0  0  0  0  0  0  0
   57.0400   32.3710   44.4150 N   0  0  0  0  0  0  0  0  0  0  0  0
   57.3880   31.0280   44.7770 C   0  0  0  0  0  0  0  0  0  0  0  0
   58.5020   30.8260   45.5980 C   0  0  0  0  0  0  0  0  0  0  0  0
   58.8830   29.5350   45.9760 C   0  0  0  0  0  0  0  0  0  0  0  0
   58.1490   28.4180   45.5380 C   0  0  0  0  0  0  0  0  0  0  0  0
   58.5490   27.0490   45.9390 C   0  0  0  0  0  0  0  0  0  0  0  0
   59.7370   26.6620   45.7620 O   0  0  0  0  0  0  0  0  0  0  0  0
   57.6020   26.1790   46.5720 N   0  0  0  0  0  0  0  0  0  0  0  0
   56.7050   25.2880   45.8940 C   0  0  0  0  0  0  0  0  0  0  0  0
   57.2120   24.0840   45.3910 C   0  0  0  0  0  0  0  0  0  0  0  0
   56.3720   23.1720   44.7380 C   0  0  0  0  0  0  0  0  0  0  0  0
   57.0220   21.6540   44.1120 S   0  0  0  0  0  0  0  0  0  0  0  0
   56.2780   21.2750   42.8600 O   0  0  0  0  0  0  0  0  0  0  0  0
   58.4680   21.8450   43.7530 O   0  0  0  0  0  0  0  0  0  0  0  0
   56.8830   20.3640   45.2850 N   0  0  0  0  0  0  0  0  0  0  0  0
   57.5590   20.7100   46.5600 C   0  0  0  0  0  0  0  0  0  0  0  0
   56.5770   21.1130   47.6710 C   0  0  0  0  0  0  0  0  0  0  0  0
   55.5700   19.9860   47.9570 C   0  0  0  0  0  0  0  0  0  0  0  0
   55.2510   19.1410   46.7100 C   0  0  0  0  0  0  0  0  0  0  0  0
   55.4700   19.9480   45.4270 C   0  0  0  0  0  0  0  0  0  0  0  0
   55.0100   23.4700   44.5920 C   0  0  0  0  0  0  0  0  0  0  0  0
   54.4900   24.6540   45.1190 C   0  0  0  0  0  0  0  0  0  0  0  0
   55.3250   25.5560   45.7850 C   0  0  0  0  0  0  0  0  0  0  0  0
   54.7690   26.6930   46.3600 O   0  0  0  0  0  0  0  0  0  0  0  0
   57.0280   28.6240   44.7150 C   0  0  0  0  0  0  0  0  0  0  0  0
   56.6500   29.9160   44.3380 C   0  0  0  0  0  0  0  0  0  0  0  0
   59.5203   34.2970   46.2594 H   0  0  0  0  0  0  0  0  0  0  0  0
   59.6382   33.4022   44.7063 H   0  0  0  0  0  0  0  0  0  0  0  0
   59.2288   35.1512   44.7063 H   0  0  0  0  0  0  0  0  0  0  0  0
   59.0838   31.6908   45.9496 H   0  0  0  0  0  0  0  0  0  0  0  0
   59.7629   29.3919   46.6204 H   0  0  0  0  0  0  0  0  0  0  0  0
   58.2806   23.8515   45.5095 H   0  0  0  0  0  0  0  0  0  0  0  0
   58.1336   19.8359   46.9004 H   0  0  0  0  0  0  0  0  0  0  0  0
   58.2070   21.5769   46.3637 H   0  0  0  0  0  0  0  0  0  0  0  0
   57.1429   21.3304   48.5889 H   0  0  0  0  0  0  0  0  0  0  0  0
   56.0207   22.0022   47.3394 H   0  0  0  0  0  0  0  0  0  0  0  0
   55.9907   19.3265   48.7303 H   0  0  0  0  0  0  0  0  0  0  0  0
   54.6320   20.4557   48.2879 H   0  0  0  0  0  0  0  0  0  0  0  0
   55.9078   18.2587   46.6961 H   0  0  0  0  0  0  0  0  0  0  0  0
   54.1951   18.8359   46.7552 H   0  0  0  0  0  0  0  0  0  0  0  0
   55.1909   19.3280   44.5623 H   0  0  0  0  0  0  0  0  0  0  0  0
   54.8462   20.8527   45.4765 H   0  0  0  0  0  0  0  0  0  0  0  0
   54.3491   22.7692   44.0608 H   0  0  0  0  0  0  0  0  0  0  0  0
   53.4186   24.8779   45.0096 H   0  0  0  0  0  0  0  0  0  0  0  0
   56.4431   27.7608   44.3646 H   0  0  0  0  0  0  0  0  0  0  0  0
   55.7702   30.0628   43.6943 H   0  0  0  0  0  0  0  0  0  0  0  0
  1  2  1  0
  2  3  2  0
  2  4  2  0
  2  5  1  0
  5  6  1  0
  6  7  2  0
  7  8  1  0
  8  9  2  0
  9 10  1  0
 10 11  2  0
 10 12  1  0
 12 13  1  0
 13 14  2  0
 14 15  1  0
 15 16  1  0
 16 17  2  0
 16 18  2  0
 16 19  1  0
 19 20  1  0
 20 21  1  0
 21 22  1  0
 22 23  1  0
 23 24  1  0
 15 25  2  0
 25 26  1  0
 26 27  2  0
 27 28  1  0
  9 29  1  0
 29 30  2  0
 30  6  1  0
 27 13  1  0
 24 19  1  0
  1 31  1  0
  1 32  1  0
  1 33  1  0
  7 34  1  0
  8 35  1  0
 14 36  1  0
 20 37  1  0
 20 38  1  0
 21 39  1  0
 21 40  1  0
 22 41  1  0
 22 42  1  0
 23 43  1  0
 23 44  1  0
 24 45  1  0
 24 46  1  0
 25 47  1  0
 26 48  1  0
 29 49  1  0
 30 50  1  0
M  CHG  3   5  -1  12  -1  28  -1
M  END
>  <UniqueID>  (42) 
42

>  <SMILES>  (42) 
CS(=O)(=O)[N-]c1ccc(C(=O)[N-]c2cc(S(=O)(=O)N3CCCCC3)ccc2[O-])cc1

>  <Energy>  (42) 
61.13796766397847

>  <Genealogy>  (42) 
CS(=O)(=O)[N-]c1ccc(C(=O)[N-]c2cc(S(=O)(=O)N3CCCCC3)ccc2[O-])cc1 (protonated)
CS(=O)(=O)[N-]c1ccc(C(=O)[N-]c2cc(S(=O)(=O)N3CCCCC3)ccc2[O-])cc1 (3D coordinates assigned)
CS(=O)(=O)[N-]c1ccc(C(=O)[N-]c2cc(S(=O)(=O)N3CCCCC3)ccc2[O-])cc1 (nonaromatic ring conformer: 61.13796766397847 kcal/mol)

>  <smiles>  (42) 
CS(=O)(=O)Nc1ccc(C(=O)Nc2cc(S(=O)(=O)N3CCCCC3)ccc2O)cc1

>  <score_type>  (42) 
oracle

>  <origin>  (42) 
adg

>  <m_score__min__energy>  (42) 
-15.869999999999999

>  <m_primary>  (42) 
energy

$$$$
42:0
     RDKit          3D

 55 57  0  0  0  0  0  0  0  0999 V2000
   57.3750   33.8780   44.5930 C   0  0  0  0  0  0  0  0  0  0  0  0
   58.4680   33.7410   45.6100 C   0  0  0  0  0  0  0  0  0  0  0  0
   59.3220   34.8210   45.8760 C   0  0  0  0  0  0  0  0  0  0  0  0
   60.3590   34.6880   46.8040 C   0  0  0  0  0  0  0  0  0  0  0  0
   60.5580   33.4710   47.4710 C   0  0  0  0  0  0  0  0  0  0  0  0
   61.8430   33.3120   48.6730 S   0  0  0  0  0  0  0  0  0  0  0  0
   62.7880   32.2230   48.2450 O   0  0  0  0  0  0  0  0  0  0  0  0
   62.6200   34.5990   48.7450 O   0  0  0  0  0  0  0  0  0  0  0  0
   61.2000   32.9310   50.2540 N   0  0  0  0  0  0  0  0  0  0  0  0
   59.7750   33.3120   50.3330 C   0  0  0  0  0  0  0  0  0  0  0  0
   59.0810   32.6070   51.5060 C   0  0  0  0  0  0  0  0  0  0  0  0
   59.1260   31.1250   51.3840 N   0  0  0  0  0  0  0  0  0  0  0  0
   57.8300   30.5630   50.9550 C   0  0  0  0  0  0  0  0  0  0  0  0
   56.7640   30.8680   51.9680 C   0  0  0  0  0  0  0  0  0  0  0  0
   56.2860   32.0340   52.0290 O   0  0  0  0  0  0  0  0  0  0  0  0
   56.3170   29.8520   52.8790 N   0  0  0  0  0  0  0  0  0  0  0  0
   55.2900   30.0990   53.8880 C   0  0  0  0  0  0  0  0  0  0  0  0
   54.0210   29.3010   53.5720 C   0  0  0  0  0  0  0  0  0  0  0  0
   53.1140   30.0850   52.6630 C   0  0  0  0  0  0  0  0  0  0  0  0
   52.3520   31.1520   53.1710 C   0  0  0  0  0  0  0  0  0  0  0  0
   51.5280   31.8980   52.3220 C   0  0  0  0  0  0  0  0  0  0  0  0
   51.4680   31.5910   50.9580 C   0  0  0  0  0  0  0  0  0  0  0  0
   50.6480   32.3310   50.1150 O   0  0  0  0  0  0  0  0  0  0  0  0
   52.2350   30.5410   50.4440 C   0  0  0  0  0  0  0  0  0  0  0  0
   53.0600   29.7940   51.2900 C   0  0  0  0  0  0  0  0  0  0  0  0
   60.2150   30.6380   50.5050 C   0  0  0  0  0  0  0  0  0  0  0  0
   61.4660   31.5200   50.6260 C   0  0  0  0  0  0  0  0  0  0  0  0
   59.7220   32.3830   47.1860 C   0  0  0  0  0  0  0  0  0  0  0  0
   58.6840   32.5160   46.2580 C   0  0  0  0  0  0  0  0  0  0  0  0
   56.4096   33.9990   45.1063 H   0  0  0  0  0  0  0  0  0  0  0  0
   57.5684   34.7589   43.9633 H   0  0  0  0  0  0  0  0  0  0  0  0
   57.3450   32.9766   43.9633 H   0  0  0  0  0  0  0  0  0  0  0  0
   59.1753   35.7770   45.3521 H   0  0  0  0  0  0  0  0  0  0  0  0
   61.0213   35.5414   47.0117 H   0  0  0  0  0  0  0  0  0  0  0  0
   59.7010   34.4005   50.4730 H   0  0  0  0  0  0  0  0  0  0  0  0
   59.2791   33.0087   49.3991 H   0  0  0  0  0  0  0  0  0  0  0  0
   59.5820   32.8999   52.4405 H   0  0  0  0  0  0  0  0  0  0  0  0
   58.0241   32.9118   51.5025 H   0  0  0  0  0  0  0  0  0  0  0  0
   57.5468   31.0033   49.9876 H   0  0  0  0  0  0  0  0  0  0  0  0
   57.9291   29.4716   50.8601 H   0  0  0  0  0  0  0  0  0  0  0  0
   56.6920   28.8810   52.7830 H   0  0  0  0  0  0  0  0  0  0  0  0
   55.6716   29.7957   54.8741 H   0  0  0  0  0  0  0  0  0  0  0  0
   55.0439   31.1711   53.8886 H   0  0  0  0  0  0  0  0  0  0  0  0
   54.3004   28.3585   53.0784 H   0  0  0  0  0  0  0  0  0  0  0  0
   53.4885   29.0954   54.5123 H   0  0  0  0  0  0  0  0  0  0  0  0
   52.4042   31.4012   54.2411 H   0  0  0  0  0  0  0  0  0  0  0  0
   50.9272   32.7259   52.7264 H   0  0  0  0  0  0  0  0  0  0  0  0
   52.1892   30.3021   49.3712 H   0  0  0  0  0  0  0  0  0  0  0  0
   53.6690   28.9754   50.8789 H   0  0  0  0  0  0  0  0  0  0  0  0
   60.4736   29.6080   50.7919 H   0  0  0  0  0  0  0  0  0  0  0  0
   59.8634   30.6751   49.4634 H   0  0  0  0  0  0  0  0  0  0  0  0
   61.8205   31.4897   51.6669 H   0  0  0  0  0  0  0  0  0  0  0  0
   62.2228   31.1265   49.9314 H   0  0  0  0  0  0  0  0  0  0  0  0
   59.8827   31.4207   47.6941 H   0  0  0  0  0  0  0  0  0  0  0  0
   58.0345   31.6565   46.0355 H   0  0  0  0  0  0  0  0  0  0  0  0
  1  2  1  0
  2  3  2  0
  3  4  1  0
  4  5  2  0
  5  6  1  0
  6  7  2  0
  6  8  2  0
  6  9  1  0
  9 10  1  0
 10 11  1  0
 11 12  1  0
 12 13  1  0
 13 14  1  0
 14 15  2  0
 14 16  1  0
 16 17  1  0
 17 18  1  0
 18 19  1  0
 19 20  2  0
 20 21  1  0
 21 22  2  0
 22 23  1  0
 22 24  1  0
 24 25  2  0
 12 26  1  0
 26 27  1  0
  5 28  1  0
 28 29  2  0
 29  2  1  0
 27  9  1  0
 25 19  1  0
  1 30  1  0
  1 31  1  0
  1 32  1  0
  3 33  1  0
  4 34  1  0
 10 35  1  0
 10 36  1  0
 11 37  1  0
 11 38  1  0
 13 39  1  0
 13 40  1  0
 16 41  1  0
 17 42  1  0
 17 43  1  0
 18 44  1  0
 18 45  1  0
 20 46  1  0
 21 47  1  0
 24 48  1  0
 25 49  1  0
 26 50  1  0
 26 51  1  0
 27 52  1  0
 27 53  1  0
 28 54  1  0
 29 55  1  0
M  CHG  1  23  -1
M  END
>  <UniqueID>  (43) 
43

>  <SMILES>  (43) 
Cc1ccc(S(=O)(=O)N2CCN(CC(=O)NCCc3ccc([O-])cc3)CC2)cc1

>  <Energy>  (43) 
59.84074778434515

>  <Genealogy>  (43) 
Cc1ccc(S(=O)(=O)N2CCN(CC(=O)NCCc3ccc([O-])cc3)CC2)cc1 (protonated)
Cc1ccc(S(=O)(=O)N2CCN(CC(=O)NCCc3ccc([O-])cc3)CC2)cc1 (3D coordinates assigned)
Cc1ccc(S(=O)(=O)N2CCN(CC(=O)NCCc3ccc([O-])cc3)CC2)cc1 (nonaromatic ring conformer: 59.84074778434515 kcal/mol)

>  <smiles>  (43) 
Cc1ccc(S(=O)(=O)N2CCN(CC(=O)NCCc3ccc(O)cc3)CC2)cc1

>  <score_type>  (43) 
oracle

>  <origin>  (43) 
adg

>  <m_score__min__energy>  (43) 
-13.449999999999999

>  <m_primary>  (43) 
energy

$$$$
43:0
     RDKit          3D

 46 48  0  0  0  0  0  0  0  0999 V2000
   57.5590   32.3460   50.3300 O   0  0  0  0  0  0  0  0  0  0  0  0
   58.1890   31.7460   51.2410 C   0  0  0  0  0  0  0  0  0  0  0  0
   57.6020   31.7100   52.6310 C   0  0  0  0  0  0  0  0  0  0  0  0
   56.4920   30.7400   52.7240 N   0  0  0  0  0  0  0  0  0  0  0  0
   55.2090   31.1900   52.5490 C   0  0  0  0  0  0  0  0  0  0  0  0
   54.1110   30.3180   52.6470 C   0  0  0  0  0  0  0  0  0  0  0  0
   52.7240   30.7980   52.4280 C   0  0  0  0  0  0  0  0  0  0  0  0
   52.0620   31.2230   53.4150 O   0  0  0  0  0  0  0  0  0  0  0  0
   52.0960   30.8110   51.0840 C   0  0  0  0  0  0  0  0  0  0  0  0
   52.3370   29.7580   50.1830 C   0  0  0  0  0  0  0  0  0  0  0  0
   51.7710   29.7730   48.9070 C   0  0  0  0  0  0  0  0  0  0  0  0
   50.9650   30.8420   48.5110 C   0  0  0  0  0  0  0  0  0  0  0  0
   50.7230   31.9000   49.3910 C   0  0  0  0  0  0  0  0  0  0  0  0
   49.9200   32.9610   48.9880 O   0  0  0  0  0  0  0  0  0  0  0  0
   51.2850   31.8910   50.6750 C   0  0  0  0  0  0  0  0  0  0  0  0
   51.0230   32.9480   51.5400 O   0  0  0  0  0  0  0  0  0  0  0  0
   54.3550   28.9690   52.9240 C   0  0  0  0  0  0  0  0  0  0  0  0
   55.6550   28.5240   53.1350 C   0  0  0  0  0  0  0  0  0  0  0  0
   56.7200   29.4230   53.0440 C   0  0  0  0  0  0  0  0  0  0  0  0
   57.8890   29.0020   53.2640 O   0  0  0  0  0  0  0  0  0  0  0  0
   59.4180   31.0870   50.9060 N   0  0  0  0  0  0  0  0  0  0  0  0
   60.3370   31.4840   49.8450 C   0  0  0  0  0  0  0  0  0  0  0  0
   59.7840   31.0750   48.4780 C   0  0  0  0  0  0  0  0  0  0  0  0
   59.3830   32.2900   47.6860 C   0  0  0  0  0  0  0  0  0  0  0  0
   59.8940   33.5550   48.0210 C   0  0  0  0  0  0  0  0  0  0  0  0
   59.4880   34.6890   47.3090 C   0  0  0  0  0  0  0  0  0  0  0  0
   58.5690   34.5680   46.2650 C   0  0  0  0  0  0  0  0  0  0  0  0
   58.0470   33.3140   45.9330 C   0  0  0  0  0  0  0  0  0  0  0  0
   58.4480   32.1780   46.6440 C   0  0  0  0  0  0  0  0  0  0  0  0
   58.3887   31.4226   53.3441 H   0  0  0  0  0  0  0  0  0  0  0  0
   57.2077   32.7098   52.8655 H   0  0  0  0  0  0  0  0  0  0  0  0
   55.0355   32.2535   52.3277 H   0  0  0  0  0  0  0  0  0  0  0  0
   52.9766   28.9160   50.4863 H   0  0  0  0  0  0  0  0  0  0  0  0
   51.9603   28.9413   48.2125 H   0  0  0  0  0  0  0  0  0  0  0  0
   50.5200   30.8513   47.5051 H   0  0  0  0  0  0  0  0  0  0  0  0
   53.5166   28.2587   52.9750 H   0  0  0  0  0  0  0  0  0  0  0  0
   55.8443   27.4669   53.3729 H   0  0  0  0  0  0  0  0  0  0  0  0
   60.4696   32.5757   49.8703 H   0  0  0  0  0  0  0  0  0  0  0  0
   61.3027   30.9817   50.0036 H   0  0  0  0  0  0  0  0  0  0  0  0
   60.5578   30.5220   47.9254 H   0  0  0  0  0  0  0  0  0  0  0  0
   58.8982   30.4404   48.6283 H   0  0  0  0  0  0  0  0  0  0  0  0
   60.6154   33.6543   48.8455 H   0  0  0  0  0  0  0  0  0  0  0  0
   59.8934   35.6771   47.5722 H   0  0  0  0  0  0  0  0  0  0  0  0
   58.2552   35.4601   45.7030 H   0  0  0  0  0  0  0  0  0  0  0  0
   57.3206   33.2208   45.1122 H   0  0  0  0  0  0  0  0  0  0  0  0
   58.0297   31.1939   46.3862 H   0  0  0  0  0  0  0  0  0  0  0  0
  1  2  2  0
  2  3  1  0
  3  4  1  0
  4  5  1  0
  5  6  2  0
  6  7  1  0
  7  8  2  0
  7  9  1  0
  9 10  2  0
 10 11  1  0
 11 12  2  0
 12 13  1  0
 13 14  1  0
 13 15  2  0
 15 16  1  0
  6 17  1  0
 17 18  2  0
 18 19  1  0
 19 20  2  0
  2 21  1  0
 21 22  1  0
 22 23  1  0
 23 24  1  0
 24 25  2  0
 25 26  1  0
 26 27  2  0
 27 28  1  0
 28 29  2  0
 19  4  1  0
 29 24  1  0
 15  9  1  0
  3 30  1  0
  3 31  1  0
  5 32  1  0
 10 33  1  0
 11 34  1  0
 12 35  1  0
 17 36  1  0
 18 37  1  0
 22 38  1  0
 22 39  1  0
 23 40  1  0
 23 41  1  0
 25 42  1  0
 26 43  1  0
 27 44  1  0
 28 45  1  0
 29 46  1  0
M  CHG  3  14  -1  16  -1  21  -1
M  END
>  <UniqueID>  (44) 
44

>  <SMILES>  (44) 
O=C(Cn1cc(C(=O)c2cccc([O-])c2[O-])ccc1=O)[N-]CCc1ccccc1

>  <Energy>  (44) 
54.715565060808835

>  <Genealogy>  (44) 
O=C(Cn1cc(C(=O)c2cccc([O-])c2[O-])ccc1=O)[N-]CCc1ccccc1 (protonated)
O=C(Cn1cc(C(=O)c2cccc([O-])c2[O-])ccc1=O)[N-]CCc1ccccc1 (3D coordinates assigned)
O=C(Cn1cc(C(=O)c2cccc([O-])c2[O-])ccc1=O)[N-]CCc1ccccc1 (optimized conformer: 54.715565060808835 kcal/mol)

>  <smiles>  (44) 
O=C(Cn1cc(C(=O)c2cccc(O)c2O)ccc1=O)NCCc1ccccc1

>  <score_type>  (44) 
oracle

>  <origin>  (44) 
adg

>  <m_score__min__energy>  (44) 
-17.609999999999999

>  <m_primary>  (44) 
energy

$$$$
44:0
     RDKit          3D

 78 82  0  0  0  0  0  0  0  0999 V2000
   65.3160   26.8470   52.4590 C   0  0  0  0  0  0  0  0  0  0  0  0
   63.8480   26.5900   52.2350 C   0  0  0  0  0  0  0  0  0  0  0  0
   63.3900   25.2630   52.2110 C   0  0  0  0  0  0  0  0  0  0  0  0
   62.0400   24.9820   52.0170 C   0  0  0  0  0  0  0  0  0  0  0  0
   61.1260   26.0190   51.8510 C   0  0  0  0  0  0  0  0  0  0  0  0
   61.5540   27.3520   51.8630 C   0  0  0  0  0  0  0  0  0  0  0  0
   60.5720   28.3920   51.7410 N   0  0  0  0  0  0  0  0  0  0  0  0
   60.1410   28.8360   50.4120 C   0  0  0  0  0  0  0  0  0  0  0  0
   59.9720   30.3710   50.3540 C   0  0  0  0  0  0  0  0  0  0  0  0
   59.7170   31.0010   51.6770 N   0  0  0  0  0  0  0  0  0  0  0  0
   58.9600   32.2290   51.5150 C   0  0  0  0  0  0  0  0  0  0  0  0
   57.7620   32.2460   51.7770 O   0  0  0  0  0  0  0  0  0  0  0  0
   59.6260   33.4830   50.9660 C   0  0  0  0  0  0  0  0  0  0  0  0
   59.3460   33.6680   49.4510 C   0  0  0  0  0  0  0  0  0  0  0  0
   60.4730   34.4580   48.7660 C   0  0  0  0  0  0  0  0  0  0  0  0
   61.8030   33.8130   48.9110 N   0  0  0  0  0  0  0  0  0  0  0  0
   62.2650   32.9460   47.4640 S   0  0  0  0  0  0  0  0  0  0  0  0
   62.6590   33.9310   46.3970 O   0  0  0  0  0  0  0  0  0  0  0  0
   63.4570   32.0780   47.7590 O   0  0  0  0  0  0  0  0  0  0  0  0
   60.9460   31.9350   46.8690 C   0  0  0  0  0  0  0  0  0  0  0  0
   59.9020   32.5010   46.1310 C   0  0  0  0  0  0  0  0  0  0  0  0
   58.8840   31.6980   45.6140 C   0  0  0  0  0  0  0  0  0  0  0  0
   58.8840   30.3030   45.8280 C   0  0  0  0  0  0  0  0  0  0  0  0
   59.9410   29.7380   46.5800 C   0  0  0  0  0  0  0  0  0  0  0  0
   60.9510   30.5570   47.1070 C   0  0  0  0  0  0  0  0  0  0  0  0
   59.9620   28.2640   46.8830 C   0  0  0  0  0  0  0  0  0  0  0  0
   59.2610   27.4740   45.7860 C   0  0  0  0  0  0  0  0  0  0  0  0
   57.8460   28.0060   45.5730 C   0  0  0  0  0  0  0  0  0  0  0  0
   57.8480   29.4440   45.2740 N   0  0  0  0  0  0  0  0  0  0  0  0
   56.4490   30.1150   44.4670 S   0  0  0  0  0  0  0  0  0  0  0  0
   56.5940   30.0530   42.6920 C   0  0  0  0  0  0  0  0  0  0  0  0
   56.2860   31.5570   44.8600 O   0  0  0  0  0  0  0  0  0  0  0  0
   55.2250   29.3400   44.8620 O   0  0  0  0  0  0  0  0  0  0  0  0
   61.9430   32.9370   50.0960 C   0  0  0  0  0  0  0  0  0  0  0  0
   61.1390   33.4720   51.2840 C   0  0  0  0  0  0  0  0  0  0  0  0
   59.0160   30.0970   52.6090 C   0  0  0  0  0  0  0  0  0  0  0  0
   59.9140   28.9010   52.9470 C   0  0  0  0  0  0  0  0  0  0  0  0
   62.9300   27.6520   52.0240 C   0  0  0  0  0  0  0  0  0  0  0  0
   63.3940   29.0910   52.0250 C   0  0  0  0  0  0  0  0  0  0  0  0
   65.5213   26.8829   53.5391 H   0  0  0  0  0  0  0  0  0  0  0  0
   65.9040   26.0381   52.0007 H   0  0  0  0  0  0  0  0  0  0  0  0
   65.5942   27.8075   52.0007 H   0  0  0  0  0  0  0  0  0  0  0  0
   64.1043   24.4376   52.3467 H   0  0  0  0  0  0  0  0  0  0  0  0
   61.6948   23.9378   51.9948 H   0  0  0  0  0  0  0  0  0  0  0  0
   60.0596   25.7893   51.7094 H   0  0  0  0  0  0  0  0  0  0  0  0
   60.8952   28.5314   49.6715 H   0  0  0  0  0  0  0  0  0  0  0  0
   59.1673   28.3734   50.1929 H   0  0  0  0  0  0  0  0  0  0  0  0
   60.8922   30.8049   49.9357 H   0  0  0  0  0  0  0  0  0  0  0  0
   59.0883   30.5710   49.7302 H   0  0  0  0  0  0  0  0  0  0  0  0
   60.6470   31.2320   52.1000 H   0  0  0  0  0  0  0  0  0  0  0  0
   59.1837   34.3557   51.4688 H   0  0  0  0  0  0  0  0  0  0  0  0
   59.2642   32.6781   48.9784 H   0  0  0  0  0  0  0  0  0  0  0  0
   58.4086   34.2324   49.3380 H   0  0  0  0  0  0  0  0  0  0  0  0
   60.2398   34.5441   47.6944 H   0  0  0  0  0  0  0  0  0  0  0  0
   60.5291   35.4424   49.2537 H   0  0  0  0  0  0  0  0  0  0  0  0
   59.8827   33.5869   45.9566 H   0  0  0  0  0  0  0  0  0  0  0  0
   58.0716   32.1583   45.0325 H   0  0  0  0  0  0  0  0  0  0  0  0
   61.7538   30.1113   47.7127 H   0  0  0  0  0  0  0  0  0  0  0  0
   61.0063   27.9267   46.9586 H   0  0  0  0  0  0  0  0  0  0  0  0
   59.4333   28.0926   47.8323 H   0  0  0  0  0  0  0  0  0  0  0  0
   59.8298   27.5700   44.8494 H   0  0  0  0  0  0  0  0  0  0  0  0
   59.2050   26.4171   46.0856 H   0  0  0  0  0  0  0  0  0  0  0  0
   57.3849   27.4672   44.7321 H   0  0  0  0  0  0  0  0  0  0  0  0
   57.2761   27.8484   46.5005 H   0  0  0  0  0  0  0  0  0  0  0  0
   57.5737   29.6341   42.4186 H   0  0  0  0  0  0  0  0  0  0  0  0
   55.7958   29.4175   42.2809 H   0  0  0  0  0  0  0  0  0  0  0  0
   56.5020   31.0691   42.2809 H   0  0  0  0  0  0  0  0  0  0  0  0
   61.5794   31.9304   49.8420 H   0  0  0  0  0  0  0  0  0  0  0  0
   63.0049   32.9078   50.3815 H   0  0  0  0  0  0  0  0  0  0  0  0
   61.3185   32.8298   52.1588 H   0  0  0  0  0  0  0  0  0  0  0  0
   61.4621   34.5028   51.4914 H   0  0  0  0  0  0  0  0  0  0  0  0
   58.7716   30.6425   53.5324 H   0  0  0  0  0  0  0  0  0  0  0  0
   58.0911   29.7345   52.1366 H   0  0  0  0  0  0  0  0  0  0  0  0
   60.6800   29.2173   53.6704 H   0  0  0  0  0  0  0  0  0  0  0  0
   59.2923   28.1012   53.3757 H   0  0  0  0  0  0  0  0  0  0  0  0
   63.5063   29.4393   53.0623 H   0  0  0  0  0  0  0  0  0  0  0  0
   64.3614   29.1647   51.5067 H   0  0  0  0  0  0  0  0  0  0  0  0
   62.6518   29.7159   51.5067 H   0  0  0  0  0  0  0  0  0  0  0  0
  1  2  1  0
  2  3  2  0
  3  4  1  0
  4  5  2  0
  5  6  1  0
  6  7  1  0
  7  8  1  0
  8  9  1  0
  9 10  1  0
 10 11  1  0
 11 12  2  0
 11 13  1  0
 13 14  1  0
 14 15  1  0
 15 16  1  0
 16 17  1  0
 17 18  2  0
 17 19  2  0
 17 20  1  0
 20 21  2  0
 21 22  1  0
 22 23  2  0
 23 24  1  0
 24 25  2  0
 24 26  1  0
 26 27  1  0
 27 28  1  0
 28 29  1  0
 29 30  1  0
 30 31  1  0
 30 32  2  0
 30 33  2  0
 16 34  1  0
 34 35  1  0
 10 36  1  0
 36 37  1  0
  6 38  2  0
 38 39  1  0
 38  2  1  0
 37  7  1  0
 35 13  1  0
 25 20  1  0
 29 23  1  0
  1 40  1  0
  1 41  1  0
  1 42  1  0
  3 43  1  0
  4 44  1  0
  5 45  1  0
  8 46  1  0
  8 47  1  0
  9 48  1  0
  9 49  1  0
 10 50  1  0
 13 51  1  0
 14 52  1  0
 14 53  1  0
 15 54  1  0
 15 55  1  0
 21 56  1  0
 22 57  1  0
 25 58  1  0
 26 59  1  0
 26 60  1  0
 27 61  1  0
 27 62  1  0
 28 63  1  0
 28 64  1  0
 31 65  1  0
 31 66  1  0
 31 67  1  0
 34 68  1  0
 34 69  1  0
 35 70  1  0
 35 71  1  0
 36 72  1  0
 36 73  1  0
 37 74  1  0
 37 75  1  0
 39 76  1  0
 39 77  1  0
 39 78  1  0
M  CHG  1  10   1
M  END
>  <UniqueID>  (45) 
45

>  <SMILES>  (45) 
Cc1cccc(N2CC[NH+](C(=O)C3CCN(S(=O)(=O)c4ccc5c(c4)CCCN5S(C)(=O)=O)CC3)CC2)c1C

>  <Energy>  (45) 
99.66329175941638

>  <Genealogy>  (45) 
Cc1cccc(N2CC[NH+](C(=O)C3CCN(S(=O)(=O)c4ccc5c(c4)CCCN5S(C)(=O)=O)CC3)CC2)c1C (protonated)
Cc1cccc(N2CC[NH+](C(=O)C3CCN(S(=O)(=O)c4ccc5c(c4)CCCN5S(C)(=O)=O)CC3)CC2)c1C (3D coordinates assigned)
Cc1cccc(N2CC[NH+](C(=O)C3CCN(S(=O)(=O)c4ccc5c(c4)CCCN5S(C)(=O)=O)CC3)CC2)c1C (nonaromatic ring conformer: 99.66329175941638 kcal/mol)

>  <smiles>  (45) 
Cc1cccc(N2CCN(C(=O)C3CCN(S(=O)(=O)c4ccc5c(c4)CCCN5S(C)(=O)=O)CC3)CC2)c1C

>  <score_type>  (45) 
oracle

>  <origin>  (45) 
adg

>  <m_score__min__energy>  (45) 
-9.2799999999999994

>  <m_primary>  (45) 
energy

$$$$
45:0
     RDKit          3D

 39 41  0  0  0  0  0  0  0  0999 V2000
   63.7410   33.8470   47.1840 C   0  0  0  0  0  0  0  0  0  0  0  0
   63.5060   32.9690   48.3370 N   0  0  0  0  0  0  0  0  0  0  0  0
   64.3540   33.1180   49.5260 C   0  0  0  0  0  0  0  0  0  0  0  0
   62.4480   31.9750   48.3050 C   0  0  0  0  0  0  0  0  0  0  0  0
   62.2240   31.1200   49.4050 C   0  0  0  0  0  0  0  0  0  0  0  0
   61.2120   30.1570   49.3680 C   0  0  0  0  0  0  0  0  0  0  0  0
   60.3950   30.0280   48.2370 C   0  0  0  0  0  0  0  0  0  0  0  0
   59.3480   28.9420   48.1750 C   0  0  0  0  0  0  0  0  0  0  0  0
   59.3680   28.2360   46.8810 N   0  0  0  0  0  0  0  0  0  0  0  0
   58.0940   27.6100   46.6020 C   0  0  0  0  0  0  0  0  0  0  0  0
   57.8680   26.2740   46.9740 C   0  0  0  0  0  0  0  0  0  0  0  0
   56.6560   25.6480   46.6510 C   0  0  0  0  0  0  0  0  0  0  0  0
   56.3740   24.3120   46.9820 C   0  0  0  0  0  0  0  0  0  0  0  0
   57.2180   23.6040   47.5950 O   0  0  0  0  0  0  0  0  0  0  0  0
   55.1760   23.7740   46.6360 N   0  0  0  0  0  0  0  0  0  0  0  0
   54.2410   24.5030   45.9730 C   0  0  0  0  0  0  0  0  0  0  0  0
   52.8120   23.8220   45.5730 S   0  0  0  0  0  0  0  0  0  0  0  0
   54.4920   25.7950   45.6390 N   0  0  0  0  0  0  0  0  0  0  0  0
   55.6730   26.3820   45.9610 C   0  0  0  0  0  0  0  0  0  0  0  0
   55.9070   27.6720   45.6110 N   0  0  0  0  0  0  0  0  0  0  0  0
   57.0780   28.2980   45.9050 C   0  0  0  0  0  0  0  0  0  0  0  0
   57.2450   29.4930   45.5460 O   0  0  0  0  0  0  0  0  0  0  0  0
   60.6100   30.8710   47.1380 C   0  0  0  0  0  0  0  0  0  0  0  0
   61.6210   31.8340   47.1700 C   0  0  0  0  0  0  0  0  0  0  0  0
   64.0103   34.8530   47.5381 H   0  0  0  0  0  0  0  0  0  0  0  0
   64.5620   33.4407   46.5750 H   0  0  0  0  0  0  0  0  0  0  0  0
   62.8268   33.9051   46.5750 H   0  0  0  0  0  0  0  0  0  0  0  0
   63.7385   33.0099   50.4312 H   0  0  0  0  0  0  0  0  0  0  0  0
   65.1349   32.3433   49.5189 H   0  0  0  0  0  0  0  0  0  0  0  0
   64.8240   34.1125   49.5189 H   0  0  0  0  0  0  0  0  0  0  0  0
   62.8535   31.2126   50.3023 H   0  0  0  0  0  0  0  0  0  0  0  0
   61.0557   29.4956   50.2329 H   0  0  0  0  0  0  0  0  0  0  0  0
   59.5393   28.2166   48.9795 H   0  0  0  0  0  0  0  0  0  0  0  0
   58.3604   29.4118   48.2931 H   0  0  0  0  0  0  0  0  0  0  0  0
   60.1170   27.5070   46.9060 H   0  0  0  0  0  0  0  0  0  0  0  0
   59.6230   28.9050   46.1170 H   0  0  0  0  0  0  0  0  0  0  0  0
   58.6442   25.7178   47.5201 H   0  0  0  0  0  0  0  0  0  0  0  0
   59.9775   30.7733   46.2433 H   0  0  0  0  0  0  0  0  0  0  0  0
   61.7745   32.4902   46.3006 H   0  0  0  0  0  0  0  0  0  0  0  0
  1  2  1  0
  2  3  1  0
  2  4  1  0
  4  5  2  0
  5  6  1  0
  6  7  2  0
  7  8  1  0
  8  9  1  0
  9 10  1  0
 10 11  2  0
 11 12  1  0
 12 13  1  0
 13 14  2  0
 13 15  1  0
 15 16  1  0
 16 17  2  0
 16 18  1  0
 18 19  1  0
 19 20  1  0
 20 21  1  0
 21 22  2  0
  7 23  1  0
 23 24  2  0
 24  4  1  0
 21 10  1  0
 19 12  2  0
  1 25  1  0
  1 26  1  0
  1 27  1  0
  3 28  1  0
  3 29  1  0
  3 30  1  0
  5 31  1  0
  6 32  1  0
  8 33  1  0
  8 34  1  0
  9 35  1  0
  9 36  1  0
 11 37  1  0
 23 38  1  0
 24 39  1  0
M  CHG  4   9   1  15  -1  18  -1  20  -1
M  END
>  <UniqueID>  (46) 
46

>  <SMILES>  (46) 
CN(C)c1ccc(C[NH2+]c2cc3c(=O)[n-]c(=S)[n-]c3[n-]c2=O)cc1

>  <Energy>  (46) 
48.4273642640982

>  <Genealogy>  (46) 
CN(C)c1ccc(C[NH2+]c2cc3c(=O)[n-]c(=S)[n-]c3[n-]c2=O)cc1 (protonated)
CN(C)c1ccc(C[NH2+]c2cc3c(=O)[n-]c(=S)[n-]c3[n-]c2=O)cc1 (3D coordinates assigned)
CN(C)c1ccc(C[NH2+]c2cc3c(=O)[n-]c(=S)[n-]c3[n-]c2=O)cc1 (optimized conformer: 48.4273642640982 kcal/mol)

>  <smiles>  (46) 
CN(C)c1ccc(CNc2cc3c(=O)[nH]c(=S)[nH]c3[nH]c2=O)cc1

>  <score_type>  (46) 
oracle

>  <origin>  (46) 
adg

>  <m_score__min__energy>  (46) 
-12.02

>  <m_primary>  (46) 
energy

$$$$
46:0
     RDKit          3D

 66 69  0  0  0  0  0  0  0  0999 V2000
   55.0240   24.0220   45.0690 C   0  0  0  0  0  0  0  0  0  0  0  0
   56.4690   23.6130   45.0050 C   0  0  0  0  0  0  0  0  0  0  0  0
   56.8440   22.4800   44.2630 C   0  0  0  0  0  0  0  0  0  0  0  0
   58.1810   22.0680   44.2260 C   0  0  0  0  0  0  0  0  0  0  0  0
   59.1530   22.7870   44.9230 C   0  0  0  0  0  0  0  0  0  0  0  0
   58.7950   23.9210   45.6580 C   0  0  0  0  0  0  0  0  0  0  0  0
   57.4520   24.3370   45.7140 C   0  0  0  0  0  0  0  0  0  0  0  0
   57.0710   25.4950   46.4720 N   0  0  0  0  0  0  0  0  0  0  0  0
   56.4040   26.6540   45.9470 C   0  0  0  0  0  0  0  0  0  0  0  0
   55.1460   26.6980   45.9950 O   0  0  0  0  0  0  0  0  0  0  0  0
   57.1580   27.8170   45.4120 C   0  0  0  0  0  0  0  0  0  0  0  0
   58.4870   27.6770   44.9780 C   0  0  0  0  0  0  0  0  0  0  0  0
   59.1890   28.7800   44.4900 C   0  0  0  0  0  0  0  0  0  0  0  0
   58.5850   30.0380   44.4540 C   0  0  0  0  0  0  0  0  0  0  0  0
   57.2800   30.2110   44.9230 C   0  0  0  0  0  0  0  0  0  0  0  0
   56.7210   31.5320   44.9110 N   0  0  0  0  0  0  0  0  0  0  0  0
   57.6070   33.0110   44.7080 S   0  0  0  0  0  0  0  0  0  0  0  0
   58.4690   32.9250   43.4800 O   0  0  0  0  0  0  0  0  0  0  0  0
   56.6420   34.1450   44.5210 O   0  0  0  0  0  0  0  0  0  0  0  0
   58.5800   33.3150   46.1430 C   0  0  0  0  0  0  0  0  0  0  0  0
   59.6950   34.1560   46.0570 C   0  0  0  0  0  0  0  0  0  0  0  0
   60.4870   34.3950   47.1850 C   0  0  0  0  0  0  0  0  0  0  0  0
   60.1740   33.7850   48.4110 C   0  0  0  0  0  0  0  0  0  0  0  0
   61.0120   34.0120   49.6060 C   0  0  0  0  0  0  0  0  0  0  0  0
   60.5010   33.8620   50.7470 O   0  0  0  0  0  0  0  0  0  0  0  0
   62.4050   34.3440   49.5110 N   0  0  0  0  0  0  0  0  0  0  0  0
   63.2900   33.9300   48.4250 C   0  0  0  0  0  0  0  0  0  0  0  0
   63.6520   32.4500   48.5670 C   0  0  0  0  0  0  0  0  0  0  0  0
   63.0010   31.5930   47.4710 C   0  0  0  0  0  0  0  0  0  0  0  0
   61.6040   31.2590   47.8150 N   0  0  0  0  0  0  0  0  0  0  0  0
   61.5260   30.5770   49.1100 C   0  0  0  0  0  0  0  0  0  0  0  0
   60.2700   29.7200   49.0840 C   0  0  0  0  0  0  0  0  0  0  0  0
   59.9300   29.5470   47.6130 C   0  0  0  0  0  0  0  0  0  0  0  0
   60.9860   30.3370   46.8540 C   0  0  0  0  0  0  0  0  0  0  0  0
   59.0380   32.9680   48.5010 C   0  0  0  0  0  0  0  0  0  0  0  0
   58.2500   32.7290   47.3720 C   0  0  0  0  0  0  0  0  0  0  0  0
   56.5570   29.0910   45.3760 C   0  0  0  0  0  0  0  0  0  0  0  0
   54.7140   24.1097   46.1208 H   0  0  0  0  0  0  0  0  0  0  0  0
   54.8949   24.9920   44.5665 H   0  0  0  0  0  0  0  0  0  0  0  0
   54.4057   23.2636   44.5665 H   0  0  0  0  0  0  0  0  0  0  0  0
   56.0819   21.9134   43.7078 H   0  0  0  0  0  0  0  0  0  0  0  0
   58.4658   21.1770   43.6472 H   0  0  0  0  0  0  0  0  0  0  0  0
   60.2031   22.4607   44.8940 H   0  0  0  0  0  0  0  0  0  0  0  0
   59.5672   24.4910   46.1953 H   0  0  0  0  0  0  0  0  0  0  0  0
   58.9766   26.6930   45.0231 H   0  0  0  0  0  0  0  0  0  0  0  0
   60.2220   28.6577   44.1324 H   0  0  0  0  0  0  0  0  0  0  0  0
   59.1401   30.8991   44.0537 H   0  0  0  0  0  0  0  0  0  0  0  0
   59.9498   34.6312   45.0982 H   0  0  0  0  0  0  0  0  0  0  0  0
   61.3579   35.0629   47.1117 H   0  0  0  0  0  0  0  0  0  0  0  0
   62.7813   34.0880   47.4626 H   0  0  0  0  0  0  0  0  0  0  0  0
   64.2118   34.5286   48.4679 H   0  0  0  0  0  0  0  0  0  0  0  0
   64.7447   32.3432   48.4998 H   0  0  0  0  0  0  0  0  0  0  0  0
   63.2783   32.0997   49.5405 H   0  0  0  0  0  0  0  0  0  0  0  0
   63.0137   32.1516   46.5235 H   0  0  0  0  0  0  0  0  0  0  0  0
   63.5703   30.6566   47.3762 H   0  0  0  0  0  0  0  0  0  0  0  0
   62.4130   29.9435   49.2577 H   0  0  0  0  0  0  0  0  0  0  0  0
   61.4897   31.3032   49.9355 H   0  0  0  0  0  0  0  0  0  0  0  0
   60.4608   28.7432   49.5524 H   0  0  0  0  0  0  0  0  0  0  0  0
   59.4450   30.1862   49.6425 H   0  0  0  0  0  0  0  0  0  0  0  0
   59.9697   28.4842   47.3320 H   0  0  0  0  0  0  0  0  0  0  0  0
   58.9140   29.9019   47.3853 H   0  0  0  0  0  0  0  0  0  0  0  0
   61.7449   29.6553   46.4426 H   0  0  0  0  0  0  0  0  0  0  0  0
   60.5368   30.8875   46.0143 H   0  0  0  0  0  0  0  0  0  0  0  0
   58.7658   32.5131   49.4648 H   0  0  0  0  0  0  0  0  0  0  0  0
   57.3667   32.0779   47.4486 H   0  0  0  0  0  0  0  0  0  0  0  0
   55.5142   29.2115   45.7046 H   0  0  0  0  0  0  0  0  0  0  0  0
  1  2  1  0
  2  3  2  0
  3  4  1  0
  4  5  2  0
  5  6  1  0
  6  7  2  0
  7  8  1  0
  8  9  1  0
  9 10  2  0
  9 11  1  0
 11 12  2  0
 12 13  1  0
 13 14  2  0
 14 15  1  0
 15 16  1  0
 16 17  1  0
 17 18  2  0
 17 19  2  0
 17 20  1  0
 20 21  2  0
 21 22  1  0
 22 23  2  0
 23 24  1  0
 24 25  2  0
 24 26  1  0
 26 27  1  0
 27 28  1  0
 28 29  1  0
 29 30  1  0
 30 31  1  0
 31 32  1  0
 32 33  1  0
 33 34  1  0
 23 35  1  0
 35 36  2  0
 15 37  2  0
  7  2  1  0
 37 11  1  0
 36 20  1  0
 34 30  1  0
  1 38  1  0
  1 39  1  0
  1 40  1  0
  3 41  1  0
  4 42  1  0
  5 43  1  0
  6 44  1  0
 12 45  1  0
 13 46  1  0
 14 47  1  0
 21 48  1  0
 22 49  1  0
 27 50  1  0
 27 51  1  0
 28 52  1  0
 28 53  1  0
 29 54  1  0
 29 55  1  0
 31 56  1  0
 31 57  1  0
 32 58  1  0
 32 59  1  0
 33 60  1  0
 33 61  1  0
 34 62  1  0
 34 63  1  0
 35 64  1  0
 36 65  1  0
 37 66  1  0
M  CHG  3   8  -1  16  -1  26  -1
M  END
>  <UniqueID>  (47) 
47

>  <SMILES>  (47) 
Cc1ccccc1[N-]C(=O)c1cccc([N-]S(=O)(=O)c2ccc(C(=O)[N-]CCCN3CCCC3)cc2)c1

>  <Energy>  (47) 
82.34260878914512

>  <Genealogy>  (47) 
Cc1ccccc1[N-]C(=O)c1cccc([N-]S(=O)(=O)c2ccc(C(=O)[N-]CCCN3CCCC3)cc2)c1 (protonated)
Cc1ccccc1[N-]C(=O)c1cccc([N-]S(=O)(=O)c2ccc(C(=O)[N-]CCCN3CCCC3)cc2)c1 (3D coordinates assigned)
Cc1ccccc1[N-]C(=O)c1cccc([N-]S(=O)(=O)c2ccc(C(=O)[N-]CCCN3CCCC3)cc2)c1 (nonaromatic ring conformer: 82.34260878914512 kcal/mol)

>  <smiles>  (47) 
Cc1ccccc1NC(=O)c1cccc(NS(=O)(=O)c2ccc(C(=O)NCCCN3CCCC3)cc2)c1

>  <score_type>  (47) 
oracle

>  <origin>  (47) 
adg

>  <m_score__min__energy>  (47) 
-13.92

>  <m_primary>  (47) 
energy

$$$$
47:0
     RDKit          3D

 49 51  0  0  0  0  0  0  0  0999 V2000
   56.6370   30.8400   42.7480 C   0  0  0  0  0  0  0  0  0  0  0  0
   56.6110   29.9190   44.2740 S   0  0  0  0  0  0  0  0  0  0  0  0
   55.2120   29.4310   44.5270 O   0  0  0  0  0  0  0  0  0  0  0  0
   57.0330   30.8160   45.4030 O   0  0  0  0  0  0  0  0  0  0  0  0
   57.7040   28.5110   44.1620 C   0  0  0  0  0  0  0  0  0  0  0  0
   57.6230   27.6660   45.4150 C   0  0  0  0  0  0  0  0  0  0  0  0
   56.7170   26.5930   45.4420 C   0  0  0  0  0  0  0  0  0  0  0  0
   56.6880   25.7190   46.5450 C   0  0  0  0  0  0  0  0  0  0  0  0
   55.8790   24.6980   46.6140 N   0  0  0  0  0  0  0  0  0  0  0  0
   55.3730   23.8810   45.5100 C   0  0  0  0  0  0  0  0  0  0  0  0
   56.4850   23.5750   44.4890 C   0  0  0  0  0  0  0  0  0  0  0  0
   57.2730   22.3050   44.8580 C   0  0  0  0  0  0  0  0  0  0  0  0
   57.3530   21.5410   43.5850 C   0  0  0  0  0  0  0  0  0  0  0  0
   56.6340   22.0930   42.6230 C   0  0  0  0  0  0  0  0  0  0  0  0
   55.9380   23.3250   43.0710 C   0  0  0  0  0  0  0  0  0  0  0  0
   57.5490   25.9280   47.5740 N   0  0  0  0  0  0  0  0  0  0  0  0
   58.4420   26.9510   47.5820 C   0  0  0  0  0  0  0  0  0  0  0  0
   58.4990   27.8510   46.5110 C   0  0  0  0  0  0  0  0  0  0  0  0
   59.5000   28.9310   46.5540 C   0  0  0  0  0  0  0  0  0  0  0  0
   60.6850   28.6780   46.2110 O   0  0  0  0  0  0  0  0  0  0  0  0
   59.1290   30.2480   46.9930 N   0  0  0  0  0  0  0  0  0  0  0  0
   59.9980   31.3890   46.9090 C   0  0  0  0  0  0  0  0  0  0  0  0
   61.3670   31.2800   47.2060 C   0  0  0  0  0  0  0  0  0  0  0  0
   62.2000   32.3980   47.1070 C   0  0  0  0  0  0  0  0  0  0  0  0
   61.6720   33.6360   46.7310 C   0  0  0  0  0  0  0  0  0  0  0  0
   60.3060   33.7620   46.4610 C   0  0  0  0  0  0  0  0  0  0  0  0
   59.6520   35.3230   45.9910 Cl  0  0  0  0  0  0  0  0  0  0  0  0
   59.4680   32.6420   46.5580 C   0  0  0  0  0  0  0  0  0  0  0  0
   58.1440   32.7680   46.2860 F   0  0  0  0  0  0  0  0  0  0  0  0
   56.6674   31.9169   42.9702 H   0  0  0  0  0  0  0  0  0  0  0  0
   57.5276   30.5604   42.1661 H   0  0  0  0  0  0  0  0  0  0  0  0
   55.7320   30.6111   42.1661 H   0  0  0  0  0  0  0  0  0  0  0  0
   57.4154   27.8987   43.2949 H   0  0  0  0  0  0  0  0  0  0  0  0
   58.7360   28.8743   44.0481 H   0  0  0  0  0  0  0  0  0  0  0  0
   56.0283   26.4353   44.5989 H   0  0  0  0  0  0  0  0  0  0  0  0
   54.9851   22.9338   45.9129 H   0  0  0  0  0  0  0  0  0  0  0  0
   54.5754   24.4405   44.9994 H   0  0  0  0  0  0  0  0  0  0  0  0
   57.1257   24.4689   44.5095 H   0  0  0  0  0  0  0  0  0  0  0  0
   58.2786   22.5621   45.2222 H   0  0  0  0  0  0  0  0  0  0  0  0
   56.7924   21.7309   45.6638 H   0  0  0  0  0  0  0  0  0  0  0  0
   57.9432   20.6214   43.4582 H   0  0  0  0  0  0  0  0  0  0  0  0
   56.5598   21.6849   41.6042 H   0  0  0  0  0  0  0  0  0  0  0  0
   56.1745   24.1697   42.4073 H   0  0  0  0  0  0  0  0  0  0  0  0
   54.8432   23.2195   43.0548 H   0  0  0  0  0  0  0  0  0  0  0  0
   59.1251   27.0734   48.4355 H   0  0  0  0  0  0  0  0  0  0  0  0
   58.1300   30.4120   47.2540 H   0  0  0  0  0  0  0  0  0  0  0  0
   61.7847   30.3113   47.5176 H   0  0  0  0  0  0  0  0  0  0  0  0
   63.2739   32.3031   47.3256 H   0  0  0  0  0  0  0  0  0  0  0  0
   62.3317   34.5122   46.6474 H   0  0  0  0  0  0  0  0  0  0  0  0
  1  2  1  0
  2  3  2  0
  2  4  2  0
  2  5  1  0
  5  6  1  0
  6  7  2  0
  7  8  1  0
  8  9  2  3
  9 10  1  0
 10 11  1  0
 11 12  1  0
 12 13  1  0
 13 14  2  0
 14 15  1  0
  8 16  1  0
 16 17  1  0
 17 18  2  0
 18 19  1  0
 19 20  2  0
 19 21  1  0
 21 22  1  0
 22 23  2  0
 23 24  1  0
 24 25  2  0
 25 26  1  0
 26 27  1  0
 26 28  2  0
 28 29  1  0
 18  6  1  0
 28 22  1  0
 15 11  1  0
  1 30  1  0
  1 31  1  0
  1 32  1  0
  5 33  1  0
  5 34  1  0
  7 35  1  0
 10 36  1  0
 10 37  1  0
 11 38  1  0
 12 39  1  0
 12 40  1  0
 13 41  1  0
 14 42  1  0
 15 43  1  0
 15 44  1  0
 17 45  1  0
 21 46  1  0
 23 47  1  0
 24 48  1  0
 25 49  1  0
M  CHG  1  16  -1
M  END
>  <UniqueID>  (48) 
48

>  <SMILES>  (48) 
CS(=O)(=O)Cc1cc(=NCC2CC=CC2)[n-]cc1C(=O)Nc1cccc(Cl)c1F

>  <Energy>  (48) 
59.71033170221535

>  <Genealogy>  (48) 
CS(=O)(=O)Cc1cc(=NCC2CC=CC2)[n-]cc1C(=O)Nc1cccc(Cl)c1F (protonated)
CS(=O)(=O)Cc1cc(=NCC2CC=CC2)[n-]cc1C(=O)Nc1cccc(Cl)c1F (3D coordinates assigned)
CS(=O)(=O)Cc1cc(=NCC2CC=CC2)[n-]cc1C(=O)Nc1cccc(Cl)c1F (nonaromatic ring conformer: 59.71033170221535 kcal/mol)

>  <smiles>  (48) 
CS(=O)(=O)Cc1cc(=NCC2CC=CC2)[nH]cc1C(=O)Nc1cccc(Cl)c1F

>  <score_type>  (48) 
oracle

>  <origin>  (48) 
adg

>  <m_score__min__energy>  (48) 
-10.970000000000001

>  <m_primary>  (48) 
energy

$$$$
48:0
     RDKit          3D

 34 36  0  0  0  0  0  0  0  0999 V2000
   57.4510   23.4860   47.2680 O   0  0  0  0  0  0  0  0  0  0  0  0
   56.6130   24.3500   46.9000 C   0  0  0  0  0  0  0  0  0  0  0  0
   55.2180   24.0160   46.8970 N   0  0  0  0  0  0  0  0  0  0  0  0
   54.6050   22.9740   46.0750 C   0  0  0  0  0  0  0  0  0  0  0  0
   55.5430   22.5200   44.9860 C   0  0  0  0  0  0  0  0  0  0  0  0
   55.5750   23.1860   43.7490 C   0  0  0  0  0  0  0  0  0  0  0  0
   56.4820   22.7930   42.7610 C   0  0  0  0  0  0  0  0  0  0  0  0
   57.3530   21.7250   42.9950 C   0  0  0  0  0  0  0  0  0  0  0  0
   57.3150   21.0460   44.2160 C   0  0  0  0  0  0  0  0  0  0  0  0
   56.4130   21.4390   45.2090 C   0  0  0  0  0  0  0  0  0  0  0  0
   57.0910   25.6670   46.4360 C   0  0  0  0  0  0  0  0  0  0  0  0
   56.1840   26.6700   46.0360 C   0  0  0  0  0  0  0  0  0  0  0  0
   54.8040   26.4970   46.1400 O   0  0  0  0  0  0  0  0  0  0  0  0
   56.6530   27.8430   45.5360 N   0  0  0  0  0  0  0  0  0  0  0  0
   57.9810   28.0990   45.4070 C   0  0  0  0  0  0  0  0  0  0  0  0
   58.4060   29.3190   44.8690 C   0  0  0  0  0  0  0  0  0  0  0  0
   59.7700   29.5850   44.7250 C   0  0  0  0  0  0  0  0  0  0  0  0
   60.7150   28.6340   45.1180 C   0  0  0  0  0  0  0  0  0  0  0  0
   60.3020   27.4130   45.6600 C   0  0  0  0  0  0  0  0  0  0  0  0
   58.9310   27.1330   45.8100 C   0  0  0  0  0  0  0  0  0  0  0  0
   58.4730   25.9120   46.3360 C   0  0  0  0  0  0  0  0  0  0  0  0
   59.2970   25.0260   46.6970 O   0  0  0  0  0  0  0  0  0  0  0  0
   54.3530   22.1145   46.7135 H   0  0  0  0  0  0  0  0  0  0  0  0
   53.6992   23.3863   45.6065 H   0  0  0  0  0  0  0  0  0  0  0  0
   54.8835   24.0198   43.5576 H   0  0  0  0  0  0  0  0  0  0  0  0
   56.5105   23.3246   41.7984 H   0  0  0  0  0  0  0  0  0  0  0  0
   58.0687   21.4188   42.2178 H   0  0  0  0  0  0  0  0  0  0  0  0
   57.9959   20.2010   44.3959 H   0  0  0  0  0  0  0  0  0  0  0  0
   56.3841   20.9006   46.1678 H   0  0  0  0  0  0  0  0  0  0  0  0
   54.3780   25.6020   46.3530 H   0  0  0  0  0  0  0  0  0  0  0  0
   57.6646   30.0701   44.5588 H   0  0  0  0  0  0  0  0  0  0  0  0
   60.1005   30.5449   44.3014 H   0  0  0  0  0  0  0  0  0  0  0  0
   61.7879   28.8466   45.0006 H   0  0  0  0  0  0  0  0  0  0  0  0
   61.0508   26.6692   45.9700 H   0  0  0  0  0  0  0  0  0  0  0  0
  1  2  2  0
  2  3  1  0
  3  4  1  0
  4  5  1  0
  5  6  2  0
  6  7  1  0
  7  8  2  0
  8  9  1  0
  9 10  2  0
  2 11  1  0
 11 12  2  0
 12 13  1  0
 12 14  1  0
 14 15  1  0
 15 16  2  0
 16 17  1  0
 17 18  2  0
 18 19  1  0
 19 20  2  0
 20 21  1  0
 21 22  2  0
 10  5  1  0
 21 11  1  0
 20 15  1  0
  4 23  1  0
  4 24  1  0
  6 25  1  0
  7 26  1  0
  8 27  1  0
  9 28  1  0
 10 29  1  0
 13 30  1  0
 16 31  1  0
 17 32  1  0
 18 33  1  0
 19 34  1  0
M  CHG  2   3  -1  14  -1
M  END
>  <UniqueID>  (49) 
49

>  <SMILES>  (49) 
O=C([N-]Cc1ccccc1)c1c(O)[n-]c2ccccc2c1=O

>  <Energy>  (49) 
45.014650023277575

>  <Genealogy>  (49) 
O=C([N-]Cc1ccccc1)c1c(O)[n-]c2ccccc2c1=O (protonated)
O=C([N-]Cc1ccccc1)c1c(O)[n-]c2ccccc2c1=O (3D coordinates assigned)
O=C([N-]Cc1ccccc1)c1c(O)[n-]c2ccccc2c1=O (optimized conformer: 45.014650023277575 kcal/mol)

>  <smiles>  (49) 
O=C(NCc1ccccc1)c1c(O)[nH]c2ccccc2c1=O

>  <score_type>  (49) 
oracle

>  <origin>  (49) 
adg

>  <m_score__min__energy>  (49) 
-11.35

>  <m_primary>  (49) 
energy

$$$$
49:0
     RDKit          3D

 59 62  0  0  0  0  0  0  0  0999 V2000
   66.0190   32.8760   50.1090 C   0  0  0  0  0  0  0  0  0  0  0  0
   64.6900   32.1640   50.0220 C   0  0  0  0  0  0  0  0  0  0  0  0
   64.3810   31.2100   51.0030 C   0  0  0  0  0  0  0  0  0  0  0  0
   63.1640   30.5340   50.9800 C   0  0  0  0  0  0  0  0  0  0  0  0
   62.2310   30.8100   49.9850 C   0  0  0  0  0  0  0  0  0  0  0  0
   62.5060   31.7490   48.9770 C   0  0  0  0  0  0  0  0  0  0  0  0
   61.4410   32.0280   47.9770 C   0  0  0  0  0  0  0  0  0  0  0  0
   61.1400   31.1500   47.1240 O   0  0  0  0  0  0  0  0  0  0  0  0
   60.7550   33.2950   47.9840 N   0  0  0  0  0  0  0  0  0  0  0  0
   59.8730   33.7480   46.9410 C   0  0  0  0  0  0  0  0  0  0  0  0
   60.1240   34.9330   46.2260 C   0  0  0  0  0  0  0  0  0  0  0  0
   59.2680   35.3300   45.1960 C   0  0  0  0  0  0  0  0  0  0  0  0
   58.1510   34.5560   44.8750 C   0  0  0  0  0  0  0  0  0  0  0  0
   57.8640   33.3890   45.6000 C   0  0  0  0  0  0  0  0  0  0  0  0
   56.6680   32.5400   45.2220 C   0  0  0  0  0  0  0  0  0  0  0  0
   56.9840   31.4590   44.2560 N   0  0  0  0  0  0  0  0  0  0  0  0
   56.0910   30.2740   44.3090 C   0  0  0  0  0  0  0  0  0  0  0  0
   56.8450   28.9840   44.6430 C   0  0  0  0  0  0  0  0  0  0  0  0
   57.8680   29.2990   45.6550 N   0  0  0  0  0  0  0  0  0  0  0  0
   58.3970   28.1720   46.4670 C   0  0  0  0  0  0  0  0  0  0  0  0
   58.9180   28.5200   47.8640 C   0  0  0  0  0  0  0  0  0  0  0  0
   60.3180   28.0890   47.4360 C   0  0  0  0  0  0  0  0  0  0  0  0
   59.7980   27.7270   46.0490 C   0  0  0  0  0  0  0  0  0  0  0  0
   58.9590   30.0930   45.0560 C   0  0  0  0  0  0  0  0  0  0  0  0
   58.4250   31.1660   44.0700 C   0  0  0  0  0  0  0  0  0  0  0  0
   58.7140   33.0090   46.6520 C   0  0  0  0  0  0  0  0  0  0  0  0
   63.7690   32.4130   48.9650 C   0  0  0  0  0  0  0  0  0  0  0  0
   64.1230   33.3950   47.8670 C   0  0  0  0  0  0  0  0  0  0  0  0
   66.2890   33.0207   51.1655 H   0  0  0  0  0  0  0  0  0  0  0  0
   66.7921   32.2713   49.6124 H   0  0  0  0  0  0  0  0  0  0  0  0
   65.9439   33.8547   49.6124 H   0  0  0  0  0  0  0  0  0  0  0  0
   65.1083   30.9936   51.7993 H   0  0  0  0  0  0  0  0  0  0  0  0
   62.9397   29.7806   51.7495 H   0  0  0  0  0  0  0  0  0  0  0  0
   61.2642   30.2853   49.9879 H   0  0  0  0  0  0  0  0  0  0  0  0
   60.8040   33.8640   48.8590 H   0  0  0  0  0  0  0  0  0  0  0  0
   60.9987   35.5501   46.4792 H   0  0  0  0  0  0  0  0  0  0  0  0
   59.4743   36.2544   44.6366 H   0  0  0  0  0  0  0  0  0  0  0  0
   57.4922   34.8627   44.0492 H   0  0  0  0  0  0  0  0  0  0  0  0
   56.2651   32.0810   46.1369 H   0  0  0  0  0  0  0  0  0  0  0  0
   55.9432   33.2066   44.7319 H   0  0  0  0  0  0  0  0  0  0  0  0
   55.3250   30.4442   45.0799 H   0  0  0  0  0  0  0  0  0  0  0  0
   55.6424   30.1496   43.3123 H   0  0  0  0  0  0  0  0  0  0  0  0
   56.1444   28.2356   45.0418 H   0  0  0  0  0  0  0  0  0  0  0  0
   57.3182   28.5748   43.7382 H   0  0  0  0  0  0  0  0  0  0  0  0
   57.5285   27.5028   46.3777 H   0  0  0  0  0  0  0  0  0  0  0  0
   58.8341   29.5855   48.1240 H   0  0  0  0  0  0  0  0  0  0  0  0
   58.4485   28.0897   48.7609 H   0  0  0  0  0  0  0  0  0  0  0  0
   61.0567   28.9041   47.4377 H   0  0  0  0  0  0  0  0  0  0  0  0
   60.8724   27.3465   48.0288 H   0  0  0  0  0  0  0  0  0  0  0  0
   60.2354   28.3230   45.2344 H   0  0  0  0  0  0  0  0  0  0  0  0
   59.9651   26.7223   45.6335 H   0  0  0  0  0  0  0  0  0  0  0  0
   59.5151   30.5960   45.8608 H   0  0  0  0  0  0  0  0  0  0  0  0
   59.6078   29.4068   44.4919 H   0  0  0  0  0  0  0  0  0  0  0  0
   58.9938   32.0952   44.2217 H   0  0  0  0  0  0  0  0  0  0  0  0
   58.5507   30.7684   43.0521 H   0  0  0  0  0  0  0  0  0  0  0  0
   58.4692   32.1229   47.2561 H   0  0  0  0  0  0  0  0  0  0  0  0
   64.4636   34.3398   48.3158 H   0  0  0  0  0  0  0  0  0  0  0  0
   64.9262   32.9745   47.2440 H   0  0  0  0  0  0  0  0  0  0  0  0
   63.2363   33.5837   47.2440 H   0  0  0  0  0  0  0  0  0  0  0  0
  1  2  1  0
  2  3  2  0
  3  4  1  0
  4  5  2  0
  5  6  1  0
  6  7  1  0
  7  8  2  0
  7  9  1  0
  9 10  1  0
 10 11  2  0
 11 12  1  0
 12 13  2  0
 13 14  1  0
 14 15  1  0
 15 16  1  0
 16 17  1  0
 17 18  1  0
 18 19  1  0
 19 20  1  0
 20 21  1  0
 21 22  1  0
 22 23  1  0
 19 24  1  0
 24 25  1  0
 14 26  2  0
  6 27  2  0
 27 28  1  0
 27  2  1  0
 26 10  1  0
 25 16  1  0
 23 20  1  0
  1 29  1  0
  1 30  1  0
  1 31  1  0
  3 32  1  0
  4 33  1  0
  5 34  1  0
  9 35  1  0
 11 36  1  0
 12 37  1  0
 13 38  1  0
 15 39  1  0
 15 40  1  0
 17 41  1  0
 17 42  1  0
 18 43  1  0
 18 44  1  0
 20 45  1  0
 21 46  1  0
 21 47  1  0
 22 48  1  0
 22 49  1  0
 23 50  1  0
 23 51  1  0
 24 52  1  0
 24 53  1  0
 25 54  1  0
 25 55  1  0
 26 56  1  0
 28 57  1  0
 28 58  1  0
 28 59  1  0
M  END
>  <UniqueID>  (50) 
50

>  <SMILES>  (50) 
Cc1cccc(C(=O)Nc2cccc(CN3CCN(C4CCC4)CC3)c2)c1C

>  <Energy>  (50) 
149.73465474474068

>  <Genealogy>  (50) 
Cc1cccc(C(=O)Nc2cccc(CN3CCN(C4CCC4)CC3)c2)c1C (3D coordinates assigned)
Cc1cccc(C(=O)Nc2cccc(CN3CCN(C4CCC4)CC3)c2)c1C (nonaromatic ring conformer: 149.73465474474068 kcal/mol)

>  <smiles>  (50) 
Cc1cccc(C(=O)Nc2cccc(CN3CCN(C4CCC4)CC3)c2)c1C

>  <score_type>  (50) 
oracle

>  <origin>  (50) 
adg

>  <m_score__min__energy>  (50) 
-8.3699999999999992

>  <m_primary>  (50) 
energy

$$$$
50:0
     RDKit          3D

 53 56  0  0  0  0  0  0  0  0999 V2000
   64.2275   32.5997   47.5526 H   0  0  0  0  0  0  0  0  0  0  0  0
   63.1300   32.5860   47.4790 C   0  0  0  0  0  0  0  0  0  0  0  0
   62.4830   31.4250   47.2000 N   0  0  0  0  0  0  0  0  0  0  0  0
   61.1270   31.3550   47.1010 C   0  0  0  0  0  0  0  0  0  0  0  0
   60.5160   30.0840   46.8320 N   0  0  0  0  0  0  0  0  0  0  0  0
   60.7610   29.4460   45.5310 C   0  0  0  0  0  0  0  0  0  0  0  0
   60.2336   30.0134   44.7500 H   0  0  0  0  0  0  0  0  0  0  0  0
   61.8457   29.4419   45.3480 H   0  0  0  0  0  0  0  0  0  0  0  0
   60.2660   27.9970   45.5130 C   0  0  0  0  0  0  0  0  0  0  0  0
   60.2188   27.6415   44.4731 H   0  0  0  0  0  0  0  0  0  0  0  0
   60.9621   27.3714   46.0910 H   0  0  0  0  0  0  0  0  0  0  0  0
   58.9280   27.9130   46.1170 N   0  0  0  0  0  0  0  0  0  0  0  0
   57.8620   27.1970   45.4600 C   0  0  0  0  0  0  0  0  0  0  0  0
   58.0360   26.6980   44.3160 O   0  0  0  0  0  0  0  0  0  0  0  0
   56.5800   27.0640   46.0850 N   0  0  0  0  0  0  0  0  0  0  0  0
   55.8890   25.9630   46.0800 C   0  0  0  0  0  0  0  0  0  0  0  0
   54.5980   25.9490   45.6350 N   0  0  0  0  0  0  0  0  0  0  0  0
   53.8550   24.8110   45.6250 C   0  0  0  0  0  0  0  0  0  0  0  0
   52.8175   24.8345   45.2602 H   0  0  0  0  0  0  0  0  0  0  0  0
   54.4090   23.6120   46.0780 C   0  0  0  0  0  0  0  0  0  0  0  0
   53.8136   22.6871   46.0720 H   0  0  0  0  0  0  0  0  0  0  0  0
   55.7280   23.6000   46.5390 C   0  0  0  0  0  0  0  0  0  0  0  0
   56.1774   22.6627   46.8989 H   0  0  0  0  0  0  0  0  0  0  0  0
   56.4740   24.7790   46.5420 C   0  0  0  0  0  0  0  0  0  0  0  0
   57.5126   24.7777   46.9043 H   0  0  0  0  0  0  0  0  0  0  0  0
   58.6760   28.5550   47.4180 C   0  0  0  0  0  0  0  0  0  0  0  0
   57.8354   29.2564   47.3109 H   0  0  0  0  0  0  0  0  0  0  0  0
   58.4448   27.7647   48.1474 H   0  0  0  0  0  0  0  0  0  0  0  0
   59.9000   29.3240   47.9260 C   0  0  0  0  0  0  0  0  0  0  0  0
   59.5879   30.0190   48.7195 H   0  0  0  0  0  0  0  0  0  0  0  0
   60.6345   28.6062   48.3201 H   0  0  0  0  0  0  0  0  0  0  0  0
   60.3510   32.5230   47.2850 C   0  0  0  0  0  0  0  0  0  0  0  0
   58.8790   32.5170   47.1210 C   0  0  0  0  0  0  0  0  0  0  0  0
   58.1590   32.0390   48.0360 O   0  0  0  0  0  0  0  0  0  0  0  0
   58.2410   32.9610   45.9130 N   0  0  0  0  0  0  0  0  0  0  0  0
   57.8200   32.1500   44.8060 C   0  0  0  0  0  0  0  0  0  0  0  0
   57.3370   30.8620   45.0630 C   0  0  0  0  0  0  0  0  0  0  0  0
   57.3042   30.4864   46.0963 H   0  0  0  0  0  0  0  0  0  0  0  0
   56.8960   30.0500   44.0140 C   0  0  0  0  0  0  0  0  0  0  0  0
   56.5231   29.0366   44.2237 H   0  0  0  0  0  0  0  0  0  0  0  0
   56.9280   30.5230   42.7000 C   0  0  0  0  0  0  0  0  0  0  0  0
   56.5799   29.8809   41.8775 H   0  0  0  0  0  0  0  0  0  0  0  0
   57.4030   31.8150   42.4260 C   0  0  0  0  0  0  0  0  0  0  0  0
   57.3910   32.3440   41.0220 C   0  0  0  0  0  0  0  0  0  0  0  0
   57.3661   33.4435   41.0446 H   0  0  0  0  0  0  0  0  0  0  0  0
   58.2970   32.0085   40.4960 H   0  0  0  0  0  0  0  0  0  0  0  0
   56.5012   31.9678   40.4960 H   0  0  0  0  0  0  0  0  0  0  0  0
   57.8220   32.6350   43.4850 C   0  0  0  0  0  0  0  0  0  0  0  0
   58.1542   33.6636   43.2811 H   0  0  0  0  0  0  0  0  0  0  0  0
   61.0150   33.7280   47.5680 C   0  0  0  0  0  0  0  0  0  0  0  0
   60.4352   34.6522   47.7083 H   0  0  0  0  0  0  0  0  0  0  0  0
   62.4050   33.7590   47.6720 C   0  0  0  0  0  0  0  0  0  0  0  0
   62.9238   34.7008   47.9042 H   0  0  0  0  0  0  0  0  0  0  0  0
  1  2  1  0
  2  3  2  0
  3  4  1  0
  4  5  1  0
  5  6  1  0
  6  7  1  0
  6  8  1  0
  6  9  1  0
  9 10  1  0
  9 11  1  0
  9 12  1  0
 12 13  1  0
 13 14  2  0
 13 15  1  0
 15 16  2  0
 16 17  1  0
 17 18  1  0
 18 19  1  0
 18 20  2  0
 20 21  1  0
 20 22  1  0
 22 23  1  0
 22 24  2  0
 24 25  1  0
 12 26  1  0
 26 27  1  0
 26 28  1  0
 26 29  1  0
 29 30  1  0
 29 31  1  0
  4 32  2  0
 32 33  1  0
 33 34  2  0
 33 35  1  0
 35 36  1  0
 36 37  2  0
 37 38  1  0
 37 39  1  0
 39 40  1  0
 39 41  2  0
 41 42  1  0
 41 43  1  0
 43 44  1  0
 44 45  1  0
 44 46  1  0
 44 47  1  0
 43 48  2  0
 48 49  1  0
 32 50  1  0
 50 51  1  0
 50 52  2  0
 52 53  1  0
 52  2  1  0
 29  5  1  0
 48 36  1  0
 24 16  1  0
M  CHG  2  17  -1  35  -1
M  END
>  <UniqueID>  (51) 
51

>  <SMILES>  (51) 
Cc1cccc([N-]C(=O)c2cccnc2N2CCN(C(=O)/N=c3/cccc[n-]3)CC2)c1

>  <Energy>  (51) 
78.00791461633871

>  <Genealogy>  (51) 
Cc1cccc([N-]C(=O)c2cccnc2N2CCN(C(=O)N=c3cccc[n-]3)CC2)c1 (protonated)
Cc1cccc([N-]C(=O)c2cccnc2N2CCN(C(=O)/N=c3/cccc[n-]3)CC2)c1 (cis-trans isomerization)
Cc1cccc([N-]C(=O)c2cccnc2N2CCN(C(=O)/N=c3/cccc[n-]3)CC2)c1 (3D coordinates assigned)
Cc1cccc([N-]C(=O)c2cccnc2N2CCN(C(=O)/N=c3/cccc[n-]3)CC2)c1 (nonaromatic ring conformer: 78.00791461633871 kcal/mol)

>  <smiles>  (51) 
Cc1cccc(NC(=O)c2cccnc2N2CCN(C(=O)N=c3cccc[nH]3)CC2)c1

>  <score_type>  (51) 
oracle

>  <origin>  (51) 
adg

>  <m_score__min__energy>  (51) 
-11.960000000000001

>  <m_primary>  (51) 
energy

$$$$
51:0
     RDKit          3D

 61 64  0  0  0  0  0  0  0  0999 V2000
   56.8140   29.4520   43.6120 C   0  0  0  0  0  0  0  0  0  0  0  0
   56.4230   28.9840   44.7990 C   0  0  0  0  0  0  0  0  0  0  0  0
   57.3720   28.4950   45.8300 C   0  0  0  0  0  0  0  0  0  0  0  0
   58.3530   29.3480   46.3730 C   0  0  0  0  0  0  0  0  0  0  0  0
   59.2430   28.8840   47.3550 C   0  0  0  0  0  0  0  0  0  0  0  0
   60.2220   29.7560   47.9440 N   0  0  0  0  0  0  0  0  0  0  0  0
   61.2070   30.4700   47.1790 C   0  0  0  0  0  0  0  0  0  0  0  0
   61.4420   30.1310   45.9870 O   0  0  0  0  0  0  0  0  0  0  0  0
   61.9750   31.5810   47.7880 C   0  0  0  0  0  0  0  0  0  0  0  0
   62.7440   32.4040   47.0940 C   0  0  0  0  0  0  0  0  0  0  0  0
   63.4380   33.3950   47.9540 C   0  0  0  0  0  0  0  0  0  0  0  0
   63.1040   32.9570   49.3820 C   0  0  0  0  0  0  0  0  0  0  0  0
   61.9910   31.9040   49.2480 C   0  0  1  0  0  0  0  0  0  0  0  0
   60.6510   32.4190   49.7250 C   0  0  0  0  0  0  0  0  0  0  0  0
   60.2840   32.1750   50.9050 O   0  0  0  0  0  0  0  0  0  0  0  0
   59.7770   33.1570   48.8560 N   0  0  0  0  0  0  0  0  0  0  0  0
   59.9630   34.5940   48.6610 C   0  0  0  0  0  0  0  0  0  0  0  0
   59.6890   34.9710   47.1930 C   0  0  0  0  0  0  0  0  0  0  0  0
   58.6030   34.1820   46.5400 N   0  0  0  0  0  0  0  0  0  0  0  0
   59.1380   33.2490   45.5190 C   0  0  0  0  0  0  0  0  0  0  0  0
   58.1270   32.1920   45.0620 C   0  0  0  0  0  0  0  0  0  0  0  0
   58.1520   32.7630   43.6540 C   0  0  0  0  0  0  0  0  0  0  0  0
   59.1250   33.8380   44.1050 C   0  0  0  0  0  0  0  0  0  0  0  0
   57.7250   33.4970   47.5210 C   0  0  0  0  0  0  0  0  0  0  0  0
   58.5100   32.5510   48.4430 C   0  0  0  0  0  0  0  0  0  0  0  0
   59.1380   27.5640   47.8060 C   0  0  0  0  0  0  0  0  0  0  0  0
   58.1940   26.7000   47.2510 C   0  0  0  0  0  0  0  0  0  0  0  0
   57.3080   27.1520   46.2550 C   0  0  0  0  0  0  0  0  0  0  0  0
   56.3470   26.3000   45.6820 O   0  0  0  0  0  0  0  0  0  0  0  0
   56.6490   25.1240   44.9380 C   0  0  0  0  0  0  0  0  0  0  0  0
   56.0661   29.8018   42.8852 H   0  0  0  0  0  0  0  0  0  0  0  0
   57.8842   29.4880   43.3604 H   0  0  0  0  0  0  0  0  0  0  0  0
   55.3465   28.9595   45.0239 H   0  0  0  0  0  0  0  0  0  0  0  0
   58.4225   30.3888   46.0239 H   0  0  0  0  0  0  0  0  0  0  0  0
   60.2750   29.7880   48.9860 H   0  0  0  0  0  0  0  0  0  0  0  0
   62.8566   32.3589   46.0007 H   0  0  0  0  0  0  0  0  0  0  0  0
   64.5241   33.3672   47.7820 H   0  0  0  0  0  0  0  0  0  0  0  0
   63.1200   34.4273   47.7461 H   0  0  0  0  0  0  0  0  0  0  0  0
   63.9897   32.5188   49.8653 H   0  0  0  0  0  0  0  0  0  0  0  0
   62.7841   33.8075   50.0019 H   0  0  0  0  0  0  0  0  0  0  0  0
   62.1798   31.0201   49.8750 H   0  0  0  0  0  0  0  0  0  0  0  0
   59.2671   35.1423   49.3130 H   0  0  0  0  0  0  0  0  0  0  0  0
   61.0006   34.8591   48.9122 H   0  0  0  0  0  0  0  0  0  0  0  0
   59.4086   36.0341   47.1586 H   0  0  0  0  0  0  0  0  0  0  0  0
   60.6120   34.7494   46.6372 H   0  0  0  0  0  0  0  0  0  0  0  0
   60.0788   32.9529   46.0061 H   0  0  0  0  0  0  0  0  0  0  0  0
   58.4971   31.1585   45.1326 H   0  0  0  0  0  0  0  0  0  0  0  0
   57.1717   32.0731   45.5942 H   0  0  0  0  0  0  0  0  0  0  0  0
   58.5608   32.0761   42.8984 H   0  0  0  0  0  0  0  0  0  0  0  0
   57.2144   33.0381   43.1488 H   0  0  0  0  0  0  0  0  0  0  0  0
   60.0995   33.8014   43.5961 H   0  0  0  0  0  0  0  0  0  0  0  0
   58.8856   34.9005   43.9507 H   0  0  0  0  0  0  0  0  0  0  0  0
   57.2231   34.2569   48.1380 H   0  0  0  0  0  0  0  0  0  0  0  0
   56.9978   32.8930   46.9585 H   0  0  0  0  0  0  0  0  0  0  0  0
   57.9057   32.3353   49.3365 H   0  0  0  0  0  0  0  0  0  0  0  0
   58.7267   31.6234   47.8928 H   0  0  0  0  0  0  0  0  0  0  0  0
   59.8046   27.2048   48.6039 H   0  0  0  0  0  0  0  0  0  0  0  0
   58.1415   25.6564   47.5946 H   0  0  0  0  0  0  0  0  0  0  0  0
   56.8615   24.2964   45.6307 H   0  0  0  0  0  0  0  0  0  0  0  0
   55.7895   24.8602   44.3043 H   0  0  0  0  0  0  0  0  0  0  0  0
   57.5293   25.3070   44.3043 H   0  0  0  0  0  0  0  0  0  0  0  0
  1  2  2  0
  2  3  1  0
  3  4  2  0
  4  5  1  0
  5  6  1  0
  6  7  1  0
  7  8  2  0
  7  9  1  0
  9 10  2  0
 10 11  1  0
 11 12  1  0
 12 13  1  0
 13 14  1  0
 14 15  2  0
 14 16  1  0
 16 17  1  0
 17 18  1  0
 18 19  1  0
 19 20  1  0
 20 21  1  0
 21 22  1  0
 22 23  1  0
 19 24  1  0
 24 25  1  0
  5 26  2  0
 26 27  1  0
 27 28  2  0
 28 29  1  0
 29 30  1  0
 28  3  1  0
 13  9  1  0
 25 16  1  0
 23 20  1  0
  1 31  1  0
  1 32  1  0
  2 33  1  0
  4 34  1  0
  6 35  1  0
 10 36  1  0
 11 37  1  0
 11 38  1  0
 12 39  1  0
 12 40  1  0
 13 41  1  1
 17 42  1  0
 17 43  1  0
 18 44  1  0
 18 45  1  0
 20 46  1  0
 21 47  1  0
 21 48  1  0
 22 49  1  0
 22 50  1  0
 23 51  1  0
 23 52  1  0
 24 53  1  0
 24 54  1  0
 25 55  1  0
 25 56  1  0
 26 57  1  0
 27 58  1  0
 30 59  1  0
 30 60  1  0
 30 61  1  0
M  END
>  <UniqueID>  (52) 
52

>  <SMILES>  (52) 
C=Cc1cc(NC(=O)C2=CCC[C@H]2C(=O)N2CCN(C3CCC3)CC2)ccc1OC

>  <Energy>  (52) 
139.69565962836836

>  <Genealogy>  (52) 
C=Cc1cc(NC(=O)C2=CCC[C@H]2C(=O)N2CCN(C3CCC3)CC2)ccc1OC (chirality)
C=Cc1cc(NC(=O)C2=CCC[C@H]2C(=O)N2CCN(C3CCC3)CC2)ccc1OC (3D coordinates assigned)
C=Cc1cc(NC(=O)C2=CCC[C@H]2C(=O)N2CCN(C3CCC3)CC2)ccc1OC (nonaromatic ring conformer: 139.69565962836836 kcal/mol)

>  <smiles>  (52) 
C=Cc1cc(NC(=O)C2=CCCC2C(=O)N2CCN(C3CCC3)CC2)ccc1OC

>  <score_type>  (52) 
oracle

>  <origin>  (52) 
adg

>  <m_score__min__energy>  (52) 
-9.5500000000000007

>  <m_primary>  (52) 
energy

$$$$
52:0
     RDKit          3D

 53 54  0  0  0  0  0  0  0  0999 V2000
   62.6640   33.8910   50.4270 C   0  0  0  0  0  0  0  0  0  0  0  0
   63.4880   32.8380   49.6880 C   0  0  0  0  0  0  0  0  0  0  0  0
   64.0780   33.3720   48.3670 C   0  0  0  0  0  0  0  0  0  0  0  0
   63.3670   32.8370   47.1120 C   0  0  0  0  0  0  0  0  0  0  0  0
   62.3490   33.8290   46.5340 C   0  0  0  0  0  0  0  0  0  0  0  0
   61.0850   33.8940   47.4030 C   0  0  0  0  0  0  0  0  0  0  0  0
   59.7890   33.9440   46.5750 C   0  0  0  0  0  0  0  0  0  0  0  0
   58.8150   32.7770   46.8240 C   0  0  0  0  0  0  0  0  0  0  0  0
   58.6550   31.8600   45.6040 C   0  0  0  0  0  0  0  0  0  0  0  0
   58.6420   30.4510   46.0210 N   0  0  0  0  0  0  0  0  0  0  0  0
   59.6050   29.8010   46.7310 C   0  0  0  0  0  0  0  0  0  0  0  0
   60.8620   30.4190   47.2020 C   0  0  0  0  0  0  0  0  0  0  0  0
   61.8830   30.4150   46.4640 O   0  0  0  0  0  0  0  0  0  0  0  0
   60.9130   31.0040   48.4700 O   0  0  0  0  0  0  0  0  0  0  0  0
   60.5760   30.2940   49.6560 C   0  0  0  0  0  0  0  0  0  0  0  0
   59.2260   28.4760   46.9690 C   0  0  0  0  0  0  0  0  0  0  0  0
   60.0270   27.4280   47.6870 C   0  0  0  0  0  0  0  0  0  0  0  0
   57.9710   28.3330   46.3850 C   0  0  0  0  0  0  0  0  0  0  0  0
   57.0680   27.2590   46.3100 C   0  0  0  0  0  0  0  0  0  0  0  0
   57.3210   25.9210   46.9320 C   0  0  0  0  0  0  0  0  0  0  0  0
   55.9060   27.4570   45.6230 N   0  0  0  0  0  0  0  0  0  0  0  0
   55.6100   28.6280   45.0450 N   0  0  0  0  0  0  0  0  0  0  0  0
   56.4530   29.6940   45.1110 C   0  0  0  0  0  0  0  0  0  0  0  0
   56.1380   30.7740   44.5470 O   0  0  0  0  0  0  0  0  0  0  0  0
   57.6590   29.5410   45.8060 C   0  0  0  0  0  0  0  0  0  0  0  0
   62.7754   33.7486   51.5120 H   0  0  0  0  0  0  0  0  0  0  0  0
   63.0190   34.8948   50.1505 H   0  0  0  0  0  0  0  0  0  0  0  0
   61.6043   33.7878   50.1505 H   0  0  0  0  0  0  0  0  0  0  0  0
   64.3142   32.5156   50.3388 H   0  0  0  0  0  0  0  0  0  0  0  0
   62.8181   32.0011   49.4414 H   0  0  0  0  0  0  0  0  0  0  0  0
   63.9992   34.4692   48.3698 H   0  0  0  0  0  0  0  0  0  0  0  0
   65.1212   33.0266   48.3177 H   0  0  0  0  0  0  0  0  0  0  0  0
   64.1245   32.6237   46.3435 H   0  0  0  0  0  0  0  0  0  0  0  0
   62.8156   31.9316   47.4056 H   0  0  0  0  0  0  0  0  0  0  0  0
   62.8064   34.8284   46.4901 H   0  0  0  0  0  0  0  0  0  0  0  0
   62.0636   33.4896   45.5274 H   0  0  0  0  0  0  0  0  0  0  0  0
   61.0557   33.0025   48.0467 H   0  0  0  0  0  0  0  0  0  0  0  0
   61.1366   34.8226   47.9905 H   0  0  0  0  0  0  0  0  0  0  0  0
   59.2666   34.8820   46.8142 H   0  0  0  0  0  0  0  0  0  0  0  0
   60.0936   33.8720   45.5205 H   0  0  0  0  0  0  0  0  0  0  0  0
   59.1931   32.1781   47.6657 H   0  0  0  0  0  0  0  0  0  0  0  0
   57.8282   33.2120   47.0408 H   0  0  0  0  0  0  0  0  0  0  0  0
   57.7091   32.0961   45.0946 H   0  0  0  0  0  0  0  0  0  0  0  0
   59.5023   32.0226   44.9216 H   0  0  0  0  0  0  0  0  0  0  0  0
   60.8598   30.8920   50.5345 H   0  0  0  0  0  0  0  0  0  0  0  0
   59.4924   30.1056   49.6752 H   0  0  0  0  0  0  0  0  0  0  0  0
   61.1152   29.3354   49.6752 H   0  0  0  0  0  0  0  0  0  0  0  0
   59.9215   27.5661   48.7732 H   0  0  0  0  0  0  0  0  0  0  0  0
   59.6595   26.4298   47.4069 H   0  0  0  0  0  0  0  0  0  0  0  0
   61.0867   27.5206   47.4069 H   0  0  0  0  0  0  0  0  0  0  0  0
   57.3029   26.0167   48.0277 H   0  0  0  0  0  0  0  0  0  0  0  0
   56.5405   25.2147   46.6127 H   0  0  0  0  0  0  0  0  0  0  0  0
   58.3055   25.5485   46.6127 H   0  0  0  0  0  0  0  0  0  0  0  0
  1  2  1  0
  2  3  1  0
  3  4  1  0
  4  5  1  0
  5  6  1  0
  6  7  1  0
  7  8  1  0
  8  9  1  0
  9 10  1  0
 10 11  1  0
 11 12  1  0
 12 13  2  0
 12 14  1  0
 14 15  1  0
 11 16  2  0
 16 17  1  0
 16 18  1  0
 18 19  1  0
 19 20  1  0
 19 21  2  0
 21 22  1  0
 22 23  1  0
 23 24  2  0
 23 25  1  0
 25 10  1  0
 25 18  2  0
  1 26  1  0
  1 27  1  0
  1 28  1  0
  2 29  1  0
  2 30  1  0
  3 31  1  0
  3 32  1  0
  4 33  1  0
  4 34  1  0
  5 35  1  0
  5 36  1  0
  6 37  1  0
  6 38  1  0
  7 39  1  0
  7 40  1  0
  8 41  1  0
  8 42  1  0
  9 43  1  0
  9 44  1  0
 15 45  1  0
 15 46  1  0
 15 47  1  0
 17 48  1  0
 17 49  1  0
 17 50  1  0
 20 51  1  0
 20 52  1  0
 20 53  1  0
M  CHG  1  22  -1
M  END
>  <UniqueID>  (53) 
53

>  <SMILES>  (53) 
CCCCCCCCCn1c(C(=O)OC)c(C)c2c(C)n[n-]c(=O)c21

>  <Energy>  (53) 
79.35712715876856

>  <Genealogy>  (53) 
CCCCCCCCCn1c(C(=O)OC)c(C)c2c(C)n[n-]c(=O)c21 (protonated)
CCCCCCCCCn1c(C(=O)OC)c(C)c2c(C)n[n-]c(=O)c21 (3D coordinates assigned)
CCCCCCCCCn1c(C(=O)OC)c(C)c2c(C)n[n-]c(=O)c21 (optimized conformer: 79.35712715876856 kcal/mol)

>  <smiles>  (53) 
CCCCCCCCCn1c(C(=O)OC)c(C)c2c(C)n[nH]c(=O)c21

>  <score_type>  (53) 
oracle

>  <origin>  (53) 
adg

>  <m_score__min__energy>  (53) 
-9.0600000000000005

>  <m_primary>  (53) 
energy

$$$$
53:0
     RDKit          3D

 53 56  0  0  0  0  0  0  0  0999 V2000
   58.6922   32.5769   47.8314 H   0  0  0  0  0  0  0  0  0  0  0  0
   58.5250   32.6550   46.7470 C   0  0  0  0  0  0  0  0  0  0  0  0
   57.6810   31.7880   46.1280 N   0  0  0  0  0  0  0  0  0  0  0  0
   57.4330   31.8420   44.7910 C   0  0  0  0  0  0  0  0  0  0  0  0
   56.6680   30.9280   44.2640 N   0  0  0  0  0  0  0  0  0  0  0  0
   56.2770   29.6500   44.8640 C   0  0  0  0  0  0  0  0  0  0  0  0
   55.6541   29.8418   45.7501 H   0  0  0  0  0  0  0  0  0  0  0  0
   55.7120   29.0669   44.1219 H   0  0  0  0  0  0  0  0  0  0  0  0
   57.4980   28.8630   45.2760 C   0  0  0  0  0  0  0  0  0  0  0  0
   57.4310   27.9340   46.3260 C   0  0  0  0  0  0  0  0  0  0  0  0
   56.4868   27.7935   46.8727 H   0  0  0  0  0  0  0  0  0  0  0  0
   58.5580   27.1860   46.6810 C   0  0  0  0  0  0  0  0  0  0  0  0
   58.4915   26.4478   47.4938 H   0  0  0  0  0  0  0  0  0  0  0  0
   59.7730   27.3730   46.0050 C   0  0  0  0  0  0  0  0  0  0  0  0
   60.9720   26.5430   46.3540 C   0  0  0  0  0  0  0  0  0  0  0  0
   61.0667   26.4774   47.4480 H   0  0  0  0  0  0  0  0  0  0  0  0
   60.8532   25.5329   45.9350 H   0  0  0  0  0  0  0  0  0  0  0  0
   61.8756   27.0098   45.9350 H   0  0  0  0  0  0  0  0  0  0  0  0
   59.8410   28.3020   44.9560 C   0  0  0  0  0  0  0  0  0  0  0  0
   60.7859   28.4440   44.4110 H   0  0  0  0  0  0  0  0  0  0  0  0
   58.7140   29.0480   44.6000 C   0  0  0  0  0  0  0  0  0  0  0  0
   58.7804   29.7843   43.7854 H   0  0  0  0  0  0  0  0  0  0  0  0
   58.0370   32.8580   44.0250 C   0  0  0  0  0  0  0  0  0  0  0  0
   57.8257   32.9397   42.9486 H   0  0  0  0  0  0  0  0  0  0  0  0
   58.9040   33.7590   44.6400 C   0  0  0  0  0  0  0  0  0  0  0  0
   59.3712   34.5604   44.0488 H   0  0  0  0  0  0  0  0  0  0  0  0
   59.1830   33.6480   46.0090 C   0  0  0  0  0  0  0  0  0  0  0  0
   60.2190   34.5260   46.6570 C   0  0  0  0  0  0  0  0  0  0  0  0
   59.7935   34.9785   47.5648 H   0  0  0  0  0  0  0  0  0  0  0  0
   60.5157   35.3107   45.9456 H   0  0  0  0  0  0  0  0  0  0  0  0
   61.4340   33.7210   47.0280 C   0  0  0  0  0  0  0  0  0  0  0  0
   62.6610   33.7310   46.3730 C   0  0  0  0  0  0  0  0  0  0  0  0
   62.8799   34.3023   45.4588 H   0  0  0  0  0  0  0  0  0  0  0  0
   63.5470   32.9390   47.0190 N   0  0  0  0  0  0  0  0  0  0  0  0
   64.5430   32.7730   46.7560 H   0  0  0  0  0  0  0  0  0  0  0  0
   62.8920   32.4350   48.0790 C   0  0  0  0  0  0  0  0  0  0  0  0
   63.4030   31.5920   49.0620 C   0  0  0  0  0  0  0  0  0  0  0  0
   64.4422   31.2346   49.0138 H   0  0  0  0  0  0  0  0  0  0  0  0
   62.5510   31.2060   50.1260 C   0  0  0  0  0  0  0  0  0  0  0  0
   62.9930   30.3670   51.1610 O   0  0  0  0  0  0  0  0  0  0  0  0
   64.3230   30.3460   51.6670 C   0  0  0  0  0  0  0  0  0  0  0  0
   64.2970   30.3464   52.7667 H   0  0  0  0  0  0  0  0  0  0  0  0
   64.8358   29.4396   51.3127 H   0  0  0  0  0  0  0  0  0  0  0  0
   64.8642   31.2357   51.3127 H   0  0  0  0  0  0  0  0  0  0  0  0
   61.2130   31.6750   50.1680 C   0  0  0  0  0  0  0  0  0  0  0  0
   60.4040   31.2890   51.2480 O   0  0  0  0  0  0  0  0  0  0  0  0
   60.1660   32.0900   52.4020 C   0  0  0  0  0  0  0  0  0  0  0  0
   60.3440   31.4909   53.3072 H   0  0  0  0  0  0  0  0  0  0  0  0
   60.8461   32.9546   52.3949 H   0  0  0  0  0  0  0  0  0  0  0  0
   59.1242   32.4429   52.3949 H   0  0  0  0  0  0  0  0  0  0  0  0
   60.7280   32.5180   49.1390 C   0  0  0  0  0  0  0  0  0  0  0  0
   59.6878   32.8757   49.1469 H   0  0  0  0  0  0  0  0  0  0  0  0
   61.6000   32.8830   48.1170 C   0  0  0  0  0  0  0  0  0  0  0  0
  1  2  1  0
  2  3  1  0
  3  4  1  0
  4  5  2  0
  5  6  1  0
  6  7  1  0
  6  8  1  0
  6  9  1  0
  9 10  2  0
 10 11  1  0
 10 12  1  0
 12 13  1  0
 12 14  2  0
 14 15  1  0
 15 16  1  0
 15 17  1  0
 15 18  1  0
 14 19  1  0
 19 20  1  0
 19 21  2  0
 21 22  1  0
  4 23  1  0
 23 24  1  0
 23 25  2  0
 25 26  1  0
 25 27  1  0
 27 28  1  0
 28 29  1  0
 28 30  1  0
 28 31  1  0
 31 32  2  0
 32 33  1  0
 32 34  1  0
 34 35  1  0
 34 36  1  0
 36 37  2  0
 37 38  1  0
 37 39  1  0
 39 40  1  0
 40 41  1  0
 41 42  1  0
 41 43  1  0
 41 44  1  0
 39 45  2  0
 45 46  1  0
 46 47  1  0
 47 48  1  0
 47 49  1  0
 47 50  1  0
 45 51  1  0
 51 52  1  0
 51 53  2  0
 27  2  2  0
 53 31  1  0
 21  9  1  0
 53 36  1  0
M  CHG  1   3  -1
M  END
>  <UniqueID>  (54) 
54

>  <SMILES>  (54) 
COc1cc2[nH]cc(Cc3cc/c(=N\Cc4ccc(C)cc4)[n-]c3)c2cc1OC

>  <Energy>  (54) 
86.76296098087029

>  <Genealogy>  (54) 
COc1cc2[nH]cc(Cc3ccc(=NCc4ccc(C)cc4)[n-]c3)c2cc1OC (protonated)
COc1cc2[nH]cc(Cc3cc/c(=N\Cc4ccc(C)cc4)[n-]c3)c2cc1OC (cis-trans isomerization)
COc1cc2[nH]cc(Cc3cc/c(=N\Cc4ccc(C)cc4)[n-]c3)c2cc1OC (3D coordinates assigned)
COc1cc2[nH]cc(Cc3cc/c(=N\Cc4ccc(C)cc4)[n-]c3)c2cc1OC (optimized conformer: 86.76296098087029 kcal/mol)

>  <smiles>  (54) 
COc1cc2[nH]cc(Cc3ccc(=NCc4ccc(C)cc4)[nH]c3)c2cc1OC

>  <score_type>  (54) 
oracle

>  <origin>  (54) 
adg

>  <m_score__min__energy>  (54) 
-10.31

>  <m_primary>  (54) 
energy

$$$$
54:0
     RDKit          3D

 55 58  0  0  0  0  0  0  0  0999 V2000
   57.6570   27.0120   44.4450 C   0  0  0  0  0  0  0  0  0  0  0  0
   58.1560   27.2040   45.6760 C   0  0  0  0  0  0  0  0  0  0  0  0
   57.8320   26.4990   46.8470 C   0  0  0  0  0  0  0  0  0  0  0  0
   57.1300   25.3640   47.0330 C   0  0  0  0  0  0  0  0  0  0  0  0
   56.2510   24.7170   46.0460 C   0  0  0  0  0  0  0  0  0  0  0  0
   56.6140   23.6430   45.3250 N   0  0  0  0  0  0  0  0  0  0  0  0
   55.5840   23.4770   44.4650 C   0  0  0  0  0  0  0  0  0  0  0  0
   55.5470   22.5430   43.6190 O   0  0  0  0  0  0  0  0  0  0  0  0
   54.6010   24.3980   44.5720 N   0  0  0  0  0  0  0  0  0  0  0  0
   55.0470   25.1870   45.5630 C   0  0  0  0  0  0  0  0  0  0  0  0
   54.3900   26.3370   45.9860 O   0  0  0  0  0  0  0  0  0  0  0  0
   58.3980   27.2140   47.8950 C   0  0  0  0  0  0  0  0  0  0  0  0
   59.1110   28.2530   47.3330 C   0  0  0  0  0  0  0  0  0  0  0  0
   59.8130   29.3280   48.1060 C   0  0  0  0  0  0  0  0  0  0  0  0
   58.9710   28.2400   45.9920 N   0  0  0  0  0  0  0  0  0  0  0  0
   59.5240   29.2150   45.0950 C   0  0  0  0  0  0  0  0  0  0  0  0
   60.4890   28.8820   44.3540 O   0  0  0  0  0  0  0  0  0  0  0  0
   58.9680   30.5890   45.0310 C   0  0  0  0  0  0  0  0  0  0  0  0
   58.0140   30.9260   44.0530 C   0  0  0  0  0  0  0  0  0  0  0  0
   57.4650   32.2110   44.0120 C   0  0  0  0  0  0  0  0  0  0  0  0
   57.8550   33.1770   44.9480 C   0  0  0  0  0  0  0  0  0  0  0  0
   57.2820   34.4490   44.9200 O   0  0  0  0  0  0  0  0  0  0  0  0
   58.8170   32.8590   45.9250 C   0  0  0  0  0  0  0  0  0  0  0  0
   59.2410   33.8780   46.9040 C   0  0  0  0  0  0  0  0  0  0  0  0
   58.3480   34.5870   47.4510 O   0  0  0  0  0  0  0  0  0  0  0  0
   60.6190   34.0050   47.3240 N   0  0  0  0  0  0  0  0  0  0  0  0
   60.9410   34.5940   48.6310 C   0  0  0  0  0  0  0  0  0  0  0  0
   61.9990   33.7250   49.3210 C   0  0  0  0  0  0  0  0  0  0  0  0
   63.2330   33.5460   48.5070 N   0  0  0  0  0  0  0  0  0  0  0  0
   63.8030   32.2020   48.7030 C   0  0  0  0  0  0  0  0  0  0  0  0
   63.0850   33.8690   47.0650 C   0  0  0  0  0  0  0  0  0  0  0  0
   61.7150   33.4750   46.4980 C   0  0  0  0  0  0  0  0  0  0  0  0
   59.3810   31.5710   45.9470 C   0  0  0  0  0  0  0  0  0  0  0  0
   57.9996   27.6391   43.6087 H   0  0  0  0  0  0  0  0  0  0  0  0
   56.9054   26.2276   44.2724 H   0  0  0  0  0  0  0  0  0  0  0  0
   57.2226   24.8755   48.0142 H   0  0  0  0  0  0  0  0  0  0  0  0
   58.2970   26.9939   48.9680 H   0  0  0  0  0  0  0  0  0  0  0  0
   59.6923   29.1431   49.1836 H   0  0  0  0  0  0  0  0  0  0  0  0
   60.8830   29.3239   47.8509 H   0  0  0  0  0  0  0  0  0  0  0  0
   59.3790   30.3060   47.8509 H   0  0  0  0  0  0  0  0  0  0  0  0
   57.6981   30.1732   43.3158 H   0  0  0  0  0  0  0  0  0  0  0  0
   56.7229   32.4647   43.2406 H   0  0  0  0  0  0  0  0  0  0  0  0
   57.0400   34.9400   45.7710 H   0  0  0  0  0  0  0  0  0  0  0  0
   61.3337   35.6119   48.4905 H   0  0  0  0  0  0  0  0  0  0  0  0
   60.0343   34.6404   49.2521 H   0  0  0  0  0  0  0  0  0  0  0  0
   62.2747   34.2004   50.2739 H   0  0  0  0  0  0  0  0  0  0  0  0
   61.5576   32.7284   49.4689 H   0  0  0  0  0  0  0  0  0  0  0  0
   63.8910   31.9945   49.7797 H   0  0  0  0  0  0  0  0  0  0  0  0
   63.1450   31.4532   48.2379 H   0  0  0  0  0  0  0  0  0  0  0  0
   64.7987   32.1546   48.2379 H   0  0  0  0  0  0  0  0  0  0  0  0
   63.2200   34.9527   46.9332 H   0  0  0  0  0  0  0  0  0  0  0  0
   63.8448   33.2902   46.5194 H   0  0  0  0  0  0  0  0  0  0  0  0
   61.6209   33.8765   45.4782 H   0  0  0  0  0  0  0  0  0  0  0  0
   61.6452   32.3772   46.4935 H   0  0  0  0  0  0  0  0  0  0  0  0
   60.1549   31.3294   46.6904 H   0  0  0  0  0  0  0  0  0  0  0  0
  1  2  2  0
  2  3  1  0
  3  4  2  3
  4  5  1  0
  5  6  1  0
  6  7  1  0
  7  8  2  0
  7  9  1  0
  9 10  1  0
 10 11  1  0
  3 12  1  0
 12 13  2  0
 13 14  1  0
 13 15  1  0
 15 16  1  0
 16 17  2  0
 16 18  1  0
 18 19  2  0
 19 20  1  0
 20 21  2  0
 21 22  1  0
 21 23  1  0
 23 24  1  0
 24 25  2  0
 24 26  1  0
 26 27  1  0
 27 28  1  0
 28 29  1  0
 29 30  1  0
 29 31  1  0
 31 32  1  0
 23 33  2  0
 15  2  1  0
 33 18  1  0
 10  5  2  0
 32 26  1  0
  1 34  1  0
  1 35  1  0
  4 36  1  0
 12 37  1  0
 14 38  1  0
 14 39  1  0
 14 40  1  0
 19 41  1  0
 20 42  1  0
 22 43  1  0
 27 44  1  0
 27 45  1  0
 28 46  1  0
 28 47  1  0
 30 48  1  0
 30 49  1  0
 30 50  1  0
 31 51  1  0
 31 52  1  0
 32 53  1  0
 32 54  1  0
 33 55  1  0
M  CHG  3   6  -1   9  -1  11  -1
M  END
>  <UniqueID>  (55) 
55

>  <SMILES>  (55) 
C=c1c(=Cc2[n-]c(=O)[n-]c2[O-])cc(C)n1C(=O)c1ccc(O)c(C(=O)N2CCN(C)CC2)c1

>  <Energy>  (55) 
148.96382134291346

>  <Genealogy>  (55) 
C=c1c(=Cc2[n-]c(=O)[n-]c2[O-])cc(C)n1C(=O)c1ccc(O)c(C(=O)N2CCN(C)CC2)c1 (protonated)
C=c1c(=Cc2[n-]c(=O)[n-]c2[O-])cc(C)n1C(=O)c1ccc(O)c(C(=O)N2CCN(C)CC2)c1 (3D coordinates assigned)
C=c1c(=Cc2[n-]c(=O)[n-]c2[O-])cc(C)n1C(=O)c1ccc(O)c(C(=O)N2CCN(C)CC2)c1 (nonaromatic ring conformer: 148.96382134291346 kcal/mol)

>  <smiles>  (55) 
C=c1c(=Cc2[nH]c(=O)[nH]c2O)cc(C)n1C(=O)c1ccc(O)c(C(=O)N2CCN(C)CC2)c1

>  <score_type>  (55) 
oracle

>  <origin>  (55) 
adg

>  <m_score__min__energy>  (55) 
-16.77

>  <m_primary>  (55) 
energy

$$$$
55:0
     RDKit          3D

 29 30  0  0  0  0  0  0  0  0999 V2000
   59.3920   21.8540   44.5980 C   0  0  0  0  0  0  0  0  0  0  0  0
   58.4960   22.7890   44.9530 C   0  0  0  0  0  0  0  0  0  0  0  0
   58.9250   23.6950   45.8710 N   0  0  0  0  0  0  0  0  0  0  0  0
   58.2330   24.8040   46.2190 C   0  0  0  0  0  0  0  0  0  0  0  0
   58.8340   25.7320   47.2340 C   0  0  0  0  0  0  0  0  0  0  0  0
   57.0160   25.0850   45.5810 C   0  0  0  0  0  0  0  0  0  0  0  0
   56.2590   26.3250   45.8930 C   0  0  0  0  0  0  0  0  0  0  0  0
   55.0070   26.2610   46.0150 O   0  0  0  0  0  0  0  0  0  0  0  0
   56.8970   27.6080   46.0010 N   0  0  0  0  0  0  0  0  0  0  0  0
   56.7170   28.6300   45.2180 C   0  0  0  0  0  0  0  0  0  0  0  0
   55.5160   29.1910   44.9550 N   0  0  0  0  0  0  0  0  0  0  0  0
   55.6300   30.2270   44.0830 C   0  0  0  0  0  0  0  0  0  0  0  0
   56.9240   30.4870   43.6430 C   0  0  0  0  0  0  0  0  0  0  0  0
   57.9590   29.3790   44.3740 S   0  0  0  0  0  0  0  0  0  0  0  0
   56.4960   24.1550   44.6600 C   0  0  0  0  0  0  0  0  0  0  0  0
   55.3740   24.4010   44.1350 O   0  0  0  0  0  0  0  0  0  0  0  0
   57.1960   22.9440   44.3630 C   0  0  0  0  0  0  0  0  0  0  0  0
   56.5930   21.9740   43.6090 C   0  0  0  0  0  0  0  0  0  0  0  0
   56.6350   20.6300   43.9740 O   0  0  0  0  0  0  0  0  0  0  0  0
   55.8530   22.3010   42.4710 O   0  0  0  0  0  0  0  0  0  0  0  0
   59.1211   21.0848   43.8599 H   0  0  0  0  0  0  0  0  0  0  0  0
   60.3969   21.8573   45.0453 H   0  0  0  0  0  0  0  0  0  0  0  0
   58.5996   25.3700   48.2459 H   0  0  0  0  0  0  0  0  0  0  0  0
   59.9253   25.7648   47.1000 H   0  0  0  0  0  0  0  0  0  0  0  0
   58.4176   26.7413   47.1000 H   0  0  0  0  0  0  0  0  0  0  0  0
   54.7632   30.8165   43.7496 H   0  0  0  0  0  0  0  0  0  0  0  0
   57.2195   31.2793   42.9394 H   0  0  0  0  0  0  0  0  0  0  0  0
   57.4570   20.0630   43.8050 H   0  0  0  0  0  0  0  0  0  0  0  0
   55.6490   23.2650   42.2360 H   0  0  0  0  0  0  0  0  0  0  0  0
  1  2  2  0
  2  3  1  0
  3  4  1  0
  4  5  1  0
  4  6  2  0
  6  7  1  0
  7  8  2  0
  7  9  1  0
  9 10  2  3
 10 11  1  0
 11 12  1  0
 12 13  2  0
 13 14  1  0
  6 15  1  0
 15 16  2  0
 15 17  1  0
 17 18  2  3
 18 19  1  0
 18 20  1  0
 17  2  1  0
 14 10  1  0
  1 21  1  0
  1 22  1  0
  5 23  1  0
  5 24  1  0
  5 25  1  0
 12 26  1  0
 13 27  1  0
 19 28  1  0
 20 29  1  0
M  CHG  2   3  -1  11  -1
M  END
>  <UniqueID>  (56) 
56

>  <SMILES>  (56) 
C=c1[n-]c(C)c(C(=O)N=c2[n-]ccs2)c(=O)c1=C(O)O

>  <Energy>  (56) 
87.14096545707251

>  <Genealogy>  (56) 
C=c1[n-]c(C)c(C(=O)N=c2[n-]ccs2)c(=O)c1=C(O)O (protonated)
C=c1[n-]c(C)c(C(=O)N=c2[n-]ccs2)c(=O)c1=C(O)O (3D coordinates assigned)
C=c1[n-]c(C)c(C(=O)N=c2[n-]ccs2)c(=O)c1=C(O)O (optimized conformer: 87.14096545707251 kcal/mol)

>  <smiles>  (56) 
C=c1[nH]c(C)c(C(=O)N=c2[nH]ccs2)c(=O)c1=C(O)O

>  <score_type>  (56) 
oracle

>  <origin>  (56) 
adg

>  <m_score__min__energy>  (56) 
-10.65

>  <m_primary>  (56) 
energy

$$$$
56:0
     RDKit          3D

 30 32  0  0  0  0  0  0  0  0999 V2000
   59.5210   28.8520   54.2650 H   0  0  0  0  0  0  0  0  0  0  0  0
   60.1140   28.8430   53.4440 O   0  0  0  0  0  0  0  0  0  0  0  0
   59.5940   29.1530   52.1910 C   0  0  0  0  0  0  0  0  0  0  0  0
   60.3480   29.3160   51.0910 N   0  0  0  0  0  0  0  0  0  0  0  0
   59.4380   29.6670   50.1570 C   0  0  0  0  0  0  0  0  0  0  0  0
   59.7530   29.9180   48.9650 O   0  0  0  0  0  0  0  0  0  0  0  0
   58.1660   29.7370   50.6040 N   0  0  0  0  0  0  0  0  0  0  0  0
   58.2680   29.3850   51.8970 C   0  0  0  0  0  0  0  0  0  0  0  0
   57.1260   29.3910   52.8290 C   0  0  0  0  0  0  0  0  0  0  0  0
   57.2401   28.8655   53.7886 H   0  0  0  0  0  0  0  0  0  0  0  0
   55.9520   30.0000   52.5780 C   0  0  0  0  0  0  0  0  0  0  0  0
   54.7120   29.3870   52.4370 C   0  0  0  0  0  0  0  0  0  0  0  0
   54.4915   28.3142   52.5392 H   0  0  0  0  0  0  0  0  0  0  0  0
   53.8120   30.3930   52.1430 C   0  0  0  0  0  0  0  0  0  0  0  0
   52.3640   30.1900   51.8230 C   0  0  0  0  0  0  0  0  0  0  0  0
   52.2373   30.1253   50.7322 H   0  0  0  0  0  0  0  0  0  0  0  0
   52.0166   29.2587   52.2942 H   0  0  0  0  0  0  0  0  0  0  0  0
   51.5600   31.3360   52.3480 C   0  0  0  0  0  0  0  0  0  0  0  0
   51.2370   31.5010   53.6430 N   0  0  0  0  0  0  0  0  0  0  0  0
   50.4610   32.6070   53.6310 C   0  0  0  0  0  0  0  0  0  0  0  0
   49.9600   33.0930   54.6780 O   0  0  0  0  0  0  0  0  0  0  0  0
   50.2610   33.1470   52.4090 N   0  0  0  0  0  0  0  0  0  0  0  0
   50.9580   32.3270   51.6080 C   0  0  0  0  0  0  0  0  0  0  0  0
   51.0380   32.4740   50.2300 O   0  0  0  0  0  0  0  0  0  0  0  0
   54.4360   31.5840   52.0740 N   0  0  0  0  0  0  0  0  0  0  0  0
   53.9910   32.5010   51.8430 H   0  0  0  0  0  0  0  0  0  0  0  0
   55.7390   31.3600   52.3380 C   0  0  0  0  0  0  0  0  0  0  0  0
   56.6500   32.3370   52.3530 C   0  0  0  0  0  0  0  0  0  0  0  0
   57.7022   32.1045   52.5739 H   0  0  0  0  0  0  0  0  0  0  0  0
   56.3479   33.3739   52.1444 H   0  0  0  0  0  0  0  0  0  0  0  0
  1  2  1  0
  2  3  1  0
  3  4  1  0
  4  5  1  0
  5  6  2  0
  5  7  1  0
  7  8  1  0
  8  9  1  0
  9 10  1  0
  9 11  2  0
 11 12  1  0
 12 13  1  0
 12 14  2  0
 14 15  1  0
 15 16  1  0
 15 17  1  0
 15 18  1  0
 18 19  1  0
 19 20  1  0
 20 21  2  0
 20 22  1  0
 22 23  1  0
 23 24  1  0
 14 25  1  0
 25 26  1  0
 25 27  1  0
 27 28  2  0
 28 29  1  0
 28 30  1  0
  8  3  2  0
 27 11  1  0
 23 18  2  0
M  CHG  5   4  -1   7  -1  19  -1  22  -1  24  -1
M  END
>  <UniqueID>  (57) 
57

>  <SMILES>  (57) 
C=c1[nH]c(Cc2[n-]c(=O)[n-]c2[O-])c/c1=C\c1[n-]c(=O)[n-]c1O

>  <Energy>  (57) 
121.35189523507285

>  <Genealogy>  (57) 
C=c1[nH]c(Cc2[n-]c(=O)[n-]c2[O-])cc1=Cc1[n-]c(=O)[n-]c1O (protonated)
C=c1[nH]c(Cc2[n-]c(=O)[n-]c2[O-])c/c1=C\c1[n-]c(=O)[n-]c1O (cis-trans isomerization)
C=c1[nH]c(Cc2[n-]c(=O)[n-]c2[O-])c/c1=C\c1[n-]c(=O)[n-]c1O (3D coordinates assigned)
C=c1[nH]c(Cc2[n-]c(=O)[n-]c2[O-])c/c1=C\c1[n-]c(=O)[n-]c1O (optimized conformer: 121.35189523507285 kcal/mol)

>  <smiles>  (57) 
C=c1[nH]c(Cc2[nH]c(=O)[nH]c2O)cc1=Cc1[nH]c(=O)[nH]c1O

>  <score_type>  (57) 
oracle

>  <origin>  (57) 
adg

>  <m_score__min__energy>  (57) 
-17.550000000000001

>  <m_primary>  (57) 
energy

$$$$
57:0
     RDKit          3D

 48 51  0  0  1  0  0  0  0  0999 V2000
   57.6970   31.3680   42.9520 N   0  0  0  0  0  0  0  0  0  0  0  0
   57.4070   31.6100   44.3190 C   0  0  0  0  0  0  0  0  0  0  0  0
   56.5000   30.9130   44.8520 O   0  0  0  0  0  0  0  0  0  0  0  0
   58.1000   32.6140   45.1200 C   0  0  0  0  0  0  0  0  0  0  0  0
   58.3990   33.8120   44.5060 C   0  0  0  0  0  0  0  0  0  0  0  0
   59.0520   34.7930   45.2100 C   0  0  0  0  0  0  0  0  0  0  0  0
   59.3880   34.5420   46.5250 C   0  0  0  0  0  0  0  0  0  0  0  0
   59.0840   33.3270   47.1460 C   0  0  0  0  0  0  0  0  0  0  0  0
   59.4790   33.1910   48.4930 N   0  0  0  0  0  0  0  0  0  0  0  0
   59.7570   32.0490   48.9840 C   0  0  0  0  0  0  0  0  0  0  0  0
   60.8250   31.3290   48.6060 N   0  0  0  0  0  0  0  0  0  0  0  0
   61.0190   30.1340   49.1960 C   0  0  0  0  0  0  0  0  0  0  0  0
   60.2100   29.6270   50.1350 N   0  0  0  0  0  0  0  0  0  0  0  0
   59.1240   30.3220   50.5440 C   0  0  0  0  0  0  0  0  0  0  0  0
   58.3040   29.7850   51.5110 C   0  0  0  0  0  0  0  0  0  0  0  0
   57.2130   30.5290   51.8940 C   0  0  0  0  0  0  0  0  0  0  0  0
   56.4120   30.1000   52.7790 N   0  0  0  0  0  0  0  0  0  0  0  0
   55.3380   29.2070   52.5420 C   0  0  0  0  0  0  0  0  0  0  0  0
   54.0150   29.8970   52.5370 C   0  0  0  0  0  0  0  0  0  0  0  0
   53.3690   30.2960   53.6850 C   0  0  0  0  0  0  0  0  0  0  0  0
   52.1460   30.9330   53.6370 C   0  0  0  0  0  0  0  0  0  0  0  0
   51.5140   31.2030   52.4540 C   0  0  0  0  0  0  0  0  0  0  0  0
   52.1420   30.8140   51.2910 C   0  0  0  0  0  0  0  0  0  0  0  0
   51.5190   31.0730   50.0260 N   0  0  0  0  0  0  0  0  0  0  0  0
   51.4400   30.1760   49.1750 O   0  0  0  0  0  0  0  0  0  0  0  0
   51.0080   32.3350   49.7630 O   0  0  0  0  0  0  0  0  0  0  0  0
   53.3470   30.1850   51.3400 C   0  0  0  0  0  0  0  0  0  0  0  0
   56.9850   31.7280   51.3280 N   0  0  0  0  0  0  0  0  0  0  0  0
   57.7890   32.2470   50.3840 C   0  0  0  0  0  0  0  0  0  0  0  0
   58.8910   31.5510   49.9630 C   0  0  0  0  0  0  0  0  0  0  0  0
   58.4290   32.3470   46.4300 C   0  0  0  0  0  0  0  0  0  0  0  0
   57.8670   30.3790   42.6320 H   0  0  0  0  0  0  0  0  0  0  0  0
   57.7530   32.1170   42.2440 H   0  0  0  0  0  0  0  0  0  0  0  0
   58.1155   33.9808   43.4567 H   0  0  0  0  0  0  0  0  0  0  0  0
   59.3012   35.7549   44.7381 H   0  0  0  0  0  0  0  0  0  0  0  0
   59.9100   35.3204   47.1009 H   0  0  0  0  0  0  0  0  0  0  0  0
   61.8925   29.5401   48.8888 H   0  0  0  0  0  0  0  0  0  0  0  0
   60.3970   28.7080   50.5620 H   0  0  0  0  0  0  0  0  0  0  0  0
   58.5130   28.8020   51.9583 H   0  0  0  0  0  0  0  0  0  0  0  0
   55.4886   28.7248   51.5649 H   0  0  0  0  0  0  0  0  0  0  0  0
   55.3286   28.4696   53.3582 H   0  0  0  0  0  0  0  0  0  0  0  0
   53.8376   30.1030   54.6613 H   0  0  0  0  0  0  0  0  0  0  0  0
   51.6641   31.2331   54.5792 H   0  0  0  0  0  0  0  0  0  0  0  0
   50.5393   31.7124   52.4322 H   0  0  0  0  0  0  0  0  0  0  0  0
   53.8204   29.8877   50.3926 H   0  0  0  0  0  0  0  0  0  0  0  0
   56.1560   32.2930   51.6190 H   0  0  0  0  0  0  0  0  0  0  0  0
   57.5617   33.2315   49.9492 H   0  0  0  0  0  0  0  0  0  0  0  0
   58.1770   31.3809   46.8917 H   0  0  0  0  0  0  0  0  0  0  0  0
  1  2  1  0
  2  3  2  0
  2  4  1  0
  4  5  2  0
  5  6  1  0
  6  7  2  0
  7  8  1  0
  8  9  1  0
  9 10  2  0
 10 11  1  0
 11 12  2  0
 12 13  1  0
 13 14  1  0
 14 15  2  0
 15 16  1  0
 16 17  2  0
 17 18  1  0
 18 19  1  0
 19 20  2  0
 20 21  1  0
 21 22  2  0
 22 23  1  0
 23 24  1  0
 24 25  2  0
 24 26  1  0
 23 27  2  0
 16 28  1  0
 28 29  1  0
 29 30  2  0
  8 31  2  0
 31  4  1  0
 30 10  1  0
 30 14  1  0
 27 19  1  0
  1 32  1  0
  1 33  1  0
  5 34  1  0
  6 35  1  0
  7 36  1  0
 12 37  1  0
 13 38  1  0
 15 39  1  0
 18 40  1  0
 18 41  1  0
 20 42  1  0
 21 43  1  0
 22 44  1  0
 27 45  1  0
 28 46  1  0
 29 47  1  0
 31 48  1  0
M  CHG  2  24   1  26  -1
M  END
>  <smiles>  (58) 
NC(=O)c1cccc(N=c2nc[nH]c3cc(=NCc4cccc([N+](=O)[O-])c4)[nH]cc23)c1

>  <score_type>  (58) 
oracle

>  <origin>  (58) 
adg

>  <m_score__min__energy>  (58) 
-10.69

>  <m_primary>  (58) 
energy

$$$$
58:0
     RDKit          3D

 62 65  0  0  0  0  0  0  0  0999 V2000
   63.1890   28.6220   51.9690 C   0  0  0  0  0  0  0  0  0  0  0  0
   62.1360   27.7310   52.4840 N   0  0  0  0  0  0  0  0  0  0  0  0
   60.9580   28.4920   52.9790 C   0  0  0  0  0  0  0  0  0  0  0  0
   59.7450   28.4620   52.0270 C   0  0  0  0  0  0  0  0  0  0  0  0
   60.1850   28.3410   50.6350 N   0  0  0  0  0  0  0  0  0  0  0  0
   59.6580   29.2120   49.6220 C   0  0  0  0  0  0  0  0  0  0  0  0
   59.5980   30.5960   49.8540 C   0  0  0  0  0  0  0  0  0  0  0  0
   59.0930   31.4560   48.8760 C   0  0  0  0  0  0  0  0  0  0  0  0
   58.6240   30.9410   47.6620 C   0  0  0  0  0  0  0  0  0  0  0  0
   57.9990   32.0080   46.4080 S   0  0  0  0  0  0  0  0  0  0  0  0
   57.1540   33.0870   47.0260 O   0  0  0  0  0  0  0  0  0  0  0  0
   57.1350   31.1930   45.4860 O   0  0  0  0  0  0  0  0  0  0  0  0
   59.3370   32.6960   45.5110 N   0  0  0  0  0  0  0  0  0  0  0  0
   60.3140   33.3750   46.3840 C   0  0  0  0  0  0  0  0  0  0  0  0
   59.8850   34.8100   46.7350 C   0  0  0  0  0  0  0  0  0  0  0  0
   59.6210   35.5570   45.5650 O   0  0  0  0  0  0  0  0  0  0  0  0
   58.5360   34.9760   44.8720 C   0  0  0  0  0  0  0  0  0  0  0  0
   58.8860   33.5560   44.4010 C   0  0  0  0  0  0  0  0  0  0  0  0
   58.6700   29.5630   47.4290 C   0  0  0  0  0  0  0  0  0  0  0  0
   59.2070   28.6920   48.3930 C   0  0  0  0  0  0  0  0  0  0  0  0
   59.2050   27.2730   48.1850 N   0  0  0  0  0  0  0  0  0  0  0  0
   58.9440   26.5920   46.9500 C   0  0  0  0  0  0  0  0  0  0  0  0
   59.7700   25.7280   46.5500 O   0  0  0  0  0  0  0  0  0  0  0  0
   57.7330   26.9010   46.1110 C   0  0  0  0  0  0  0  0  0  0  0  0
   57.0320   25.6330   45.6910 C   0  0  0  0  0  0  0  0  0  0  0  0
   57.7860   24.5170   45.2910 C   0  0  0  0  0  0  0  0  0  0  0  0
   57.1500   23.3440   44.8710 C   0  0  0  0  0  0  0  0  0  0  0  0
   58.1220   21.9640   44.3830 Cl  0  0  0  0  0  0  0  0  0  0  0  0
   55.7510   23.2760   44.8390 C   0  0  0  0  0  0  0  0  0  0  0  0
   55.1190   22.1070   44.4210 O   0  0  0  0  0  0  0  0  0  0  0  0
   54.9930   24.3900   45.2260 C   0  0  0  0  0  0  0  0  0  0  0  0
   55.6260   25.5650   45.6460 C   0  0  0  0  0  0  0  0  0  0  0  0
   54.8500   26.6590   46.0160 O   0  0  0  0  0  0  0  0  0  0  0  0
   61.0920   27.2510   50.2660 C   0  0  0  0  0  0  0  0  0  0  0  0
   61.7830   26.6740   51.5120 C   0  0  0  0  0  0  0  0  0  0  0  0
   63.7281   29.0782   52.8123 H   0  0  0  0  0  0  0  0  0  0  0  0
   63.8929   28.0411   51.3550 H   0  0  0  0  0  0  0  0  0  0  0  0
   62.7326   29.4124   51.3550 H   0  0  0  0  0  0  0  0  0  0  0  0
   60.6505   28.0635   53.9443 H   0  0  0  0  0  0  0  0  0  0  0  0
   61.2709   29.5433   53.0618 H   0  0  0  0  0  0  0  0  0  0  0  0
   59.1075   27.6022   52.2807 H   0  0  0  0  0  0  0  0  0  0  0  0
   59.1817   29.4000   52.1406 H   0  0  0  0  0  0  0  0  0  0  0  0
   59.9510   31.0053   50.8121 H   0  0  0  0  0  0  0  0  0  0  0  0
   59.0638   32.5401   49.0603 H   0  0  0  0  0  0  0  0  0  0  0  0
   60.4166   32.7987   47.3153 H   0  0  0  0  0  0  0  0  0  0  0  0
   61.2683   33.4327   45.8400 H   0  0  0  0  0  0  0  0  0  0  0  0
   58.9751   34.7733   47.3520 H   0  0  0  0  0  0  0  0  0  0  0  0
   60.7031   35.2969   47.2861 H   0  0  0  0  0  0  0  0  0  0  0  0
   57.6643   34.9292   45.5413 H   0  0  0  0  0  0  0  0  0  0  0  0
   58.3096   35.5938   43.9905 H   0  0  0  0  0  0  0  0  0  0  0  0
   57.9934   33.1046   43.9433 H   0  0  0  0  0  0  0  0  0  0  0  0
   59.7110   33.6340   43.6776 H   0  0  0  0  0  0  0  0  0  0  0  0
   58.2825   29.1569   46.4830 H   0  0  0  0  0  0  0  0  0  0  0  0
   57.0375   27.5201   46.6966 H   0  0  0  0  0  0  0  0  0  0  0  0
   58.0585   27.4385   45.2081 H   0  0  0  0  0  0  0  0  0  0  0  0
   58.8848   24.5660   45.3082 H   0  0  0  0  0  0  0  0  0  0  0  0
   55.5310   21.5050   43.7170 H   0  0  0  0  0  0  0  0  0  0  0  0
   53.8945   24.3401   45.1993 H   0  0  0  0  0  0  0  0  0  0  0  0
   60.5170   26.4548   49.7707 H   0  0  0  0  0  0  0  0  0  0  0  0
   61.8612   27.6458   49.5859 H   0  0  0  0  0  0  0  0  0  0  0  0
   61.1032   25.9577   51.9964 H   0  0  0  0  0  0  0  0  0  0  0  0
   62.7125   26.1817   51.1900 H   0  0  0  0  0  0  0  0  0  0  0  0
  1  2  1  0
  2  3  1  0
  3  4  1  0
  4  5  1  0
  5  6  1  0
  6  7  2  0
  7  8  1  0
  8  9  2  0
  9 10  1  0
 10 11  2  0
 10 12  2  0
 10 13  1  0
 13 14  1  0
 14 15  1  0
 15 16  1  0
 16 17  1  0
 17 18  1  0
  9 19  1  0
 19 20  2  0
 20 21  1  0
 21 22  1  0
 22 23  2  0
 22 24  1  0
 24 25  1  0
 25 26  2  0
 26 27  1  0
 27 28  1  0
 27 29  2  0
 29 30  1  0
 29 31  1  0
 31 32  2  0
 32 33  1  0
  5 34  1  0
 34 35  1  0
 35  2  1  0
 20  6  1  0
 32 25  1  0
 18 13  1  0
  1 36  1  0
  1 37  1  0
  1 38  1  0
  3 39  1  0
  3 40  1  0
  4 41  1  0
  4 42  1  0
  7 43  1  0
  8 44  1  0
 14 45  1  0
 14 46  1  0
 15 47  1  0
 15 48  1  0
 17 49  1  0
 17 50  1  0
 18 51  1  0
 18 52  1  0
 19 53  1  0
 24 54  1  0
 24 55  1  0
 26 56  1  0
 30 57  1  0
 31 58  1  0
 34 59  1  0
 34 60  1  0
 35 61  1  0
 35 62  1  0
M  CHG  2  21  -1  33  -1
M  END
>  <UniqueID>  (59) 
58

>  <SMILES>  (59) 
CN1CCN(c2ccc(S(=O)(=O)N3CCOCC3)cc2[N-]C(=O)Cc2cc(Cl)c(O)cc2[O-])CC1

>  <Energy>  (59) 
83.48087800359825

>  <Genealogy>  (59) 
CN1CCN(c2ccc(S(=O)(=O)N3CCOCC3)cc2[N-]C(=O)Cc2cc(Cl)c(O)cc2[O-])CC1 (protonated)
CN1CCN(c2ccc(S(=O)(=O)N3CCOCC3)cc2[N-]C(=O)Cc2cc(Cl)c(O)cc2[O-])CC1 (3D coordinates assigned)
CN1CCN(c2ccc(S(=O)(=O)N3CCOCC3)cc2[N-]C(=O)Cc2cc(Cl)c(O)cc2[O-])CC1 (nonaromatic ring conformer: 83.48087800359825 kcal/mol)

>  <smiles>  (59) 
CN1CCN(c2ccc(S(=O)(=O)N3CCOCC3)cc2NC(=O)Cc2cc(Cl)c(O)cc2O)CC1

>  <score_type>  (59) 
oracle

>  <origin>  (59) 
adg

>  <m_score__min__energy>  (59) 
-13.539999999999999

>  <m_primary>  (59) 
energy

$$$$
59:0
     RDKit          3D

 47 49  0  0  0  0  0  0  0  0999 V2000
   65.2990   33.1720   50.0350 C   0  0  0  0  0  0  0  0  0  0  0  0
   63.9710   33.3340   49.3580 C   0  0  0  0  0  0  0  0  0  0  0  0
   63.8350   33.0530   47.9890 C   0  0  0  0  0  0  0  0  0  0  0  0
   62.6060   33.2410   47.3490 C   0  0  0  0  0  0  0  0  0  0  0  0
   61.5030   33.7210   48.0680 C   0  0  0  0  0  0  0  0  0  0  0  0
   59.9520   33.9820   47.2720 S   0  0  0  0  0  0  0  0  0  0  0  0
   59.8970   35.4030   46.7840 O   0  0  0  0  0  0  0  0  0  0  0  0
   58.8290   33.7670   48.2500 O   0  0  0  0  0  0  0  0  0  0  0  0
   59.7870   32.8820   45.9240 N   0  0  0  0  0  0  0  0  0  0  0  0
   59.7760   31.4680   46.3830 C   0  0  0  0  0  0  0  0  0  0  0  0
   58.3530   30.8890   46.4720 C   0  0  0  0  0  0  0  0  0  0  0  0
   57.6270   30.9630   45.1760 N   0  0  0  0  0  0  0  0  0  0  0  0
   57.6450   29.6740   44.4540 C   0  0  0  0  0  0  0  0  0  0  0  0
   56.6650   28.7020   45.0620 C   0  0  0  0  0  0  0  0  0  0  0  0
   55.4500   29.0320   45.1370 O   0  0  0  0  0  0  0  0  0  0  0  0
   57.0910   27.3540   45.5170 C   0  0  0  0  0  0  0  0  0  0  0  0
   58.4480   26.9860   45.4970 C   0  0  0  0  0  0  0  0  0  0  0  0
   58.8400   25.7140   45.9160 C   0  0  0  0  0  0  0  0  0  0  0  0
   57.8730   24.8080   46.3520 C   0  0  0  0  0  0  0  0  0  0  0  0
   58.2100   23.6560   46.7320 O   0  0  0  0  0  0  0  0  0  0  0  0
   56.5640   25.1700   46.3670 N   0  0  0  0  0  0  0  0  0  0  0  0
   56.1500   26.4010   45.9660 C   0  0  0  0  0  0  0  0  0  0  0  0
   54.7940   26.7060   46.0220 O   0  0  0  0  0  0  0  0  0  0  0  0
   58.0990   32.0580   44.2970 C   0  0  0  0  0  0  0  0  0  0  0  0
   58.6000   33.2520   45.1180 C   0  0  0  0  0  0  0  0  0  0  0  0
   61.6420   34.0220   49.4290 C   0  0  0  0  0  0  0  0  0  0  0  0
   62.8710   33.8350   50.0710 C   0  0  0  0  0  0  0  0  0  0  0  0
   65.1589   33.1891   51.1259 H   0  0  0  0  0  0  0  0  0  0  0  0
   65.7474   32.2125   49.7379 H   0  0  0  0  0  0  0  0  0  0  0  0
   65.9649   33.9956   49.7379 H   0  0  0  0  0  0  0  0  0  0  0  0
   64.6991   32.6833   47.4174 H   0  0  0  0  0  0  0  0  0  0  0  0
   62.5047   33.0114   46.2780 H   0  0  0  0  0  0  0  0  0  0  0  0
   60.6360   33.0170   45.3250 H   0  0  0  0  0  0  0  0  0  0  0  0
   60.3597   30.8623   45.6741 H   0  0  0  0  0  0  0  0  0  0  0  0
   60.2120   31.4406   47.3925 H   0  0  0  0  0  0  0  0  0  0  0  0
   58.4194   29.8350   46.7797 H   0  0  0  0  0  0  0  0  0  0  0  0
   57.7927   31.4890   47.2042 H   0  0  0  0  0  0  0  0  0  0  0  0
   57.3748   29.8469   43.4018 H   0  0  0  0  0  0  0  0  0  0  0  0
   58.6554   29.2452   44.5261 H   0  0  0  0  0  0  0  0  0  0  0  0
   59.2046   27.7047   45.1492 H   0  0  0  0  0  0  0  0  0  0  0  0
   59.9021   25.4282   45.9026 H   0  0  0  0  0  0  0  0  0  0  0  0
   58.9210   31.6845   43.6687 H   0  0  0  0  0  0  0  0  0  0  0  0
   57.2560   32.3927   43.6747 H   0  0  0  0  0  0  0  0  0  0  0  0
   58.8703   34.0704   44.4345 H   0  0  0  0  0  0  0  0  0  0  0  0
   57.7979   33.5689   45.8008 H   0  0  0  0  0  0  0  0  0  0  0  0
   60.7812   34.4070   49.9954 H   0  0  0  0  0  0  0  0  0  0  0  0
   62.9753   34.0815   51.1379 H   0  0  0  0  0  0  0  0  0  0  0  0
  1  2  1  0
  2  3  2  0
  3  4  1  0
  4  5  2  0
  5  6  1  0
  6  7  2  0
  6  8  2  0
  6  9  1  0
  9 10  1  0
 10 11  1  0
 11 12  1  0
 12 13  1  0
 13 14  1  0
 14 15  2  0
 14 16  1  0
 16 17  1  0
 17 18  2  0
 18 19  1  0
 19 20  2  0
 19 21  1  0
 21 22  1  0
 22 23  1  0
 12 24  1  0
 24 25  1  0
  5 26  1  0
 26 27  2  0
 27  2  1  0
 25  9  1  0
 22 16  2  0
  1 28  1  0
  1 29  1  0
  1 30  1  0
  3 31  1  0
  4 32  1  0
  9 33  1  0
 10 34  1  0
 10 35  1  0
 11 36  1  0
 11 37  1  0
 13 38  1  0
 13 39  1  0
 17 40  1  0
 18 41  1  0
 24 42  1  0
 24 43  1  0
 25 44  1  0
 25 45  1  0
 26 46  1  0
 27 47  1  0
M  CHG  3   9   1  21  -1  23  -1
M  END
>  <UniqueID>  (60) 
59

>  <SMILES>  (60) 
Cc1ccc(S(=O)(=O)[NH+]2CCN(CC(=O)c3ccc(=O)[n-]c3[O-])CC2)cc1

>  <Energy>  (60) 
63.1227617425404

>  <Genealogy>  (60) 
Cc1ccc(S(=O)(=O)[NH+]2CCN(CC(=O)c3ccc(=O)[n-]c3[O-])CC2)cc1 (protonated)
Cc1ccc(S(=O)(=O)[NH+]2CCN(CC(=O)c3ccc(=O)[n-]c3[O-])CC2)cc1 (3D coordinates assigned)
Cc1ccc(S(=O)(=O)[NH+]2CCN(CC(=O)c3ccc(=O)[n-]c3[O-])CC2)cc1 (nonaromatic ring conformer: 63.1227617425404 kcal/mol)

>  <smiles>  (60) 
Cc1ccc(S(=O)(=O)N2CCN(CC(=O)c3ccc(=O)[nH]c3O)CC2)cc1

>  <score_type>  (60) 
oracle

>  <origin>  (60) 
adg

>  <m_score__min__energy>  (60) 
-14.130000000000001

>  <m_primary>  (60) 
energy

$$$$
60:0
     RDKit          3D

 40 41  0  0  0  0  0  0  0  0999 V2000
   56.5897   32.7992   45.9985 H   0  0  0  0  0  0  0  0  0  0  0  0
   57.6710   32.6680   45.8450 C   0  0  0  0  0  0  0  0  0  0  0  0
   58.1800   32.7930   44.4590 C   0  0  0  0  0  0  0  0  0  0  0  0
   58.9610   33.7480   44.1970 O   0  0  0  0  0  0  0  0  0  0  0  0
   57.8360   31.8550   43.4200 N   0  0  0  0  0  0  0  0  0  0  0  0
   57.8110   32.3190   42.0300 C   0  0  0  0  0  0  0  0  0  0  0  0
   57.7518   33.4172   42.0111 H   0  0  0  0  0  0  0  0  0  0  0  0
   58.7280   31.9923   41.5178 H   0  0  0  0  0  0  0  0  0  0  0  0
   56.9344   31.8957   41.5178 H   0  0  0  0  0  0  0  0  0  0  0  0
   57.6890   30.4220   43.7060 C   0  0  0  0  0  0  0  0  0  0  0  0
   57.7949   29.8527   42.7707 H   0  0  0  0  0  0  0  0  0  0  0  0
   58.4668   30.1188   44.4223 H   0  0  0  0  0  0  0  0  0  0  0  0
   56.3450   30.1460   44.3020 C   0  0  0  0  0  0  0  0  0  0  0  0
   55.5460   31.1020   44.4990 O   0  0  0  0  0  0  0  0  0  0  0  0
   56.0080   28.8000   44.6820 N   0  0  0  0  0  0  0  0  0  0  0  0
   56.7670   27.9510   45.3140 C   0  0  0  0  0  0  0  0  0  0  0  0
   58.1240   28.0940   45.3310 N   0  0  0  0  0  0  0  0  0  0  0  0
   58.9330   27.2230   45.9920 C   0  0  0  0  0  0  0  0  0  0  0  0
   60.0230   27.3705   45.9826 H   0  0  0  0  0  0  0  0  0  0  0  0
   58.3810   26.1410   46.6830 C   0  0  0  0  0  0  0  0  0  0  0  0
   59.0296   25.4383   47.2266 H   0  0  0  0  0  0  0  0  0  0  0  0
   56.9980   25.9630   46.6750 C   0  0  0  0  0  0  0  0  0  0  0  0
   56.5499   25.1084   47.2031 H   0  0  0  0  0  0  0  0  0  0  0  0
   56.1810   26.8720   45.9950 C   0  0  0  0  0  0  0  0  0  0  0  0
   54.8010   26.6980   45.9950 O   0  0  0  0  0  0  0  0  0  0  0  0
   58.4190   32.4080   46.9290 C   0  0  0  0  0  0  0  0  0  0  0  0
   57.8979   32.0748   47.8387 H   0  0  0  0  0  0  0  0  0  0  0  0
   59.8920   32.5360   46.9920 C   0  0  0  0  0  0  0  0  0  0  0  0
   60.6730   31.3720   47.1140 C   0  0  0  0  0  0  0  0  0  0  0  0
   60.1836   30.3869   47.1139 H   0  0  0  0  0  0  0  0  0  0  0  0
   62.0590   31.4520   47.2350 C   0  0  0  0  0  0  0  0  0  0  0  0
   62.6584   30.5330   47.3131 H   0  0  0  0  0  0  0  0  0  0  0  0
   62.6850   32.6960   47.2570 C   0  0  0  0  0  0  0  0  0  0  0  0
   63.7796   32.7582   47.3463 H   0  0  0  0  0  0  0  0  0  0  0  0
   61.9260   33.8640   47.1660 C   0  0  0  0  0  0  0  0  0  0  0  0
   62.4292   34.8417   47.1972 H   0  0  0  0  0  0  0  0  0  0  0  0
   60.5270   33.8080   47.0350 C   0  0  0  0  0  0  0  0  0  0  0  0
   59.7880   35.0440   46.9330 N   0  0  0  0  0  0  0  0  0  0  0  0
   58.9110   35.3450   47.7690 O   0  0  0  0  0  0  0  0  0  0  0  0
   59.9780   35.8760   45.8510 O   0  0  0  0  0  0  0  0  0  0  0  0
  1  2  1  0
  2  3  1  0
  3  4  2  0
  3  5  1  0
  5  6  1  0
  6  7  1  0
  6  8  1  0
  6  9  1  0
  5 10  1  0
 10 11  1  0
 10 12  1  0
 10 13  1  0
 13 14  2  0
 13 15  1  0
 15 16  2  3
 16 17  1  0
 17 18  1  0
 18 19  1  0
 18 20  2  0
 20 21  1  0
 20 22  1  0
 22 23  1  0
 22 24  2  0
 24 25  1  0
  2 26  2  0
 26 27  1  0
 26 28  1  0
 28 29  2  0
 29 30  1  0
 29 31  1  0
 31 32  1  0
 31 33  2  0
 33 34  1  0
 33 35  1  0
 35 36  1  0
 35 37  2  0
 37 38  1  0
 38 39  2  0
 38 40  1  0
 24 16  1  0
 37 28  1  0
M  CHG  4  17  -1  25  -1  38   1  40  -1
M  END
>  <UniqueID>  (61) 
60

>  <SMILES>  (61) 
CN(CC(=O)N=c1[n-]cccc1[O-])C(=O)/C=C\c1ccccc1[N+](=O)[O-]

>  <Energy>  (61) 
55.446543536965244

>  <Genealogy>  (61) 
CN(CC(=O)N=c1[n-]cccc1[O-])C(=O)C=Cc1ccccc1[N+](=O)[O-] (protonated)
CN(CC(=O)N=c1[n-]cccc1[O-])C(=O)/C=C\c1ccccc1[N+](=O)[O-] (cis-trans isomerization)
CN(CC(=O)N=c1[n-]cccc1[O-])C(=O)/C=C\c1ccccc1[N+](=O)[O-] (3D coordinates assigned)
CN(CC(=O)N=c1[n-]cccc1[O-])C(=O)/C=C\c1ccccc1[N+](=O)[O-] (optimized conformer: 55.446543536965244 kcal/mol)

>  <smiles>  (61) 
CN(CC(=O)N=c1[nH]cccc1O)C(=O)C=Cc1ccccc1[N+](=O)[O-]

>  <score_type>  (61) 
oracle

>  <origin>  (61) 
adg

>  <m_score__min__energy>  (61) 
-13.550000000000001

>  <m_primary>  (61) 
energy

$$$$
61:0
     RDKit          3D

 37 39  0  0  0  0  0  0  0  0999 V2000
   57.8011   25.9427   47.0494 H   0  0  0  0  0  0  0  0  0  0  0  0
   56.9670   26.3040   46.4300 C   0  0  0  0  0  0  0  0  0  0  0  0
   56.1436   25.6242   46.1656 H   0  0  0  0  0  0  0  0  0  0  0  0
   56.9540   27.5680   45.9990 C   0  0  0  0  0  0  0  0  0  0  0  0
   55.9500   28.0460   45.2390 N   0  0  0  0  0  0  0  0  0  0  0  0
   56.2300   29.3570   45.1280 C   0  0  0  0  0  0  0  0  0  0  0  0
   55.5010   30.1570   44.4840 O   0  0  0  0  0  0  0  0  0  0  0  0
   57.3500   29.7480   45.7660 N   0  0  0  0  0  0  0  0  0  0  0  0
   57.8310   28.6120   46.3060 C   0  0  0  0  0  0  0  0  0  0  0  0
   58.9840   28.6010   46.9980 C   0  0  0  0  0  0  0  0  0  0  0  0
   59.5684   27.6692   47.0149 H   0  0  0  0  0  0  0  0  0  0  0  0
   59.4960   29.7300   47.7140 N   0  0  0  0  0  0  0  0  0  0  0  0
   59.2050   30.0530   48.9900 C   0  0  0  0  0  0  0  0  0  0  0  0
   58.6600   29.4248   49.7099 H   0  0  0  0  0  0  0  0  0  0  0  0
   59.7130   31.3120   49.2310 C   0  0  0  0  0  0  0  0  0  0  0  0
   59.6340   31.9990   50.4350 O   0  0  0  0  0  0  0  0  0  0  0  0
   60.2850   31.7950   48.1090 N   0  0  0  0  0  0  0  0  0  0  0  0
   60.8980   33.1110   47.9120 C   0  0  0  0  0  0  0  0  0  0  0  0
   61.8571   33.1408   48.4498 H   0  0  0  0  0  0  0  0  0  0  0  0
   61.0443   33.2609   46.8321 H   0  0  0  0  0  0  0  0  0  0  0  0
   60.0010   34.2440   48.4330 C   0  0  0  0  0  0  0  0  0  0  0  0
   59.2757   33.8152   49.1402 H   0  0  0  0  0  0  0  0  0  0  0  0
   60.6620   34.9849   48.9065 H   0  0  0  0  0  0  0  0  0  0  0  0
   59.2240   34.9780   47.3260 C   0  0  0  0  0  0  0  0  0  0  0  0
   58.4520   35.6074   47.7929 H   0  0  0  0  0  0  0  0  0  0  0  0
   59.9425   35.5834   46.7540 H   0  0  0  0  0  0  0  0  0  0  0  0
   58.5780   34.0520   46.3970 N   0  0  0  0  0  0  0  0  0  0  0  0
   58.8540   33.8780   45.0880 C   0  0  0  0  0  0  0  0  0  0  0  0
   59.5833   34.4550   44.5005 H   0  0  0  0  0  0  0  0  0  0  0  0
   58.0650   32.8530   44.6140 C   0  0  0  0  0  0  0  0  0  0  0  0
   58.0468   32.4835   43.5781 H   0  0  0  0  0  0  0  0  0  0  0  0
   57.3200   32.3790   45.6300 N   0  0  0  0  0  0  0  0  0  0  0  0
   56.6300   31.5960   45.5940 H   0  0  0  0  0  0  0  0  0  0  0  0
   57.6590   33.1130   46.7050 C   0  0  0  0  0  0  0  0  0  0  0  0
   57.2390   32.9660   47.7110 H   0  0  0  0  0  0  0  0  0  0  0  0
   60.1260   30.8100   47.2010 C   0  0  0  0  0  0  0  0  0  0  0  0
   60.4940   30.9000   45.9980 O   0  0  0  0  0  0  0  0  0  0  0  0
  1  2  1  0
  2  3  1  0
  2  4  2  0
  4  5  1  0
  5  6  1  0
  6  7  2  0
  6  8  1  0
  8  9  1  0
  9 10  2  0
 10 11  1  0
 10 12  1  0
 12 13  1  0
 13 14  1  0
 13 15  2  0
 15 16  1  0
 15 17  1  0
 17 18  1  0
 18 19  1  0
 18 20  1  0
 18 21  1  0
 21 22  1  0
 21 23  1  0
 21 24  1  0
 24 25  1  0
 24 26  1  0
 24 27  1  0
 27 28  1  0
 28 29  1  0
 28 30  2  0
 30 31  1  0
 30 32  1  0
 32 33  1  0
 32 34  2  0
 34 35  1  0
 17 36  1  0
 36 37  2  0
  9  4  1  0
 36 12  1  0
 34 27  1  0
M  CHG  4   5  -1   8  -1  16  -1  32   1
M  END
>  <UniqueID>  (62) 
61

>  <SMILES>  (62) 
C=c1[n-]c(=O)[n-]/c1=C/n1cc([O-])n(CCCn2cc[nH+]c2)c1=O

>  <Energy>  (62) 
137.39479792736262

>  <Genealogy>  (62) 
C=c1[n-]c(=O)[n-]c1=Cn1cc([O-])n(CCCn2cc[nH+]c2)c1=O (protonated)
C=c1[n-]c(=O)[n-]/c1=C/n1cc([O-])n(CCCn2cc[nH+]c2)c1=O (cis-trans isomerization)
C=c1[n-]c(=O)[n-]/c1=C/n1cc([O-])n(CCCn2cc[nH+]c2)c1=O (3D coordinates assigned)
C=c1[n-]c(=O)[n-]/c1=C/n1cc([O-])n(CCCn2cc[nH+]c2)c1=O (optimized conformer: 137.39479792736262 kcal/mol)

>  <smiles>  (62) 
C=c1[nH]c(=O)[nH]c1=Cn1cc(O)n(CCCn2ccnc2)c1=O

>  <score_type>  (62) 
oracle

>  <origin>  (62) 
adg

>  <m_score__min__energy>  (62) 
-10.67

>  <m_primary>  (62) 
energy

$$$$
62:0
     RDKit          3D

 56 59  0  0  0  0  0  0  0  0999 V2000
   55.1940   29.3300   44.8710 N   0  0  0  0  0  0  0  0  0  0  0  0
   56.3290   30.1750   44.6920 C   0  0  0  0  0  0  0  0  0  0  0  0
   56.1560   31.4090   44.5090 O   0  0  0  0  0  0  0  0  0  0  0  0
   57.6970   29.6240   44.7750 C   0  0  0  0  0  0  0  0  0  0  0  0
   57.9440   28.3380   44.2710 C   0  0  0  0  0  0  0  0  0  0  0  0
   59.2410   27.8340   44.2320 C   0  0  0  0  0  0  0  0  0  0  0  0
   60.2930   28.6200   44.6930 C   0  0  0  0  0  0  0  0  0  0  0  0
   60.0490   29.8510   45.2130 N   0  0  0  0  0  0  0  0  0  0  0  0
   58.7880   30.3710   45.2830 C   0  0  0  0  0  0  0  0  0  0  0  0
   58.5880   31.6410   45.9330 N   0  0  0  0  0  0  0  0  0  0  0  0
   58.1570   31.6920   47.3370 C   0  0  0  0  0  0  0  0  0  0  0  0
   58.8940   32.8050   48.1080 C   0  0  0  0  0  0  0  0  0  0  0  0
   60.3270   33.0770   47.5800 C   0  0  0  0  0  0  0  0  0  0  0  0
   60.2680   33.4570   46.0530 C   0  0  0  0  0  0  0  0  0  0  0  0
   59.0560   32.8740   45.3000 C   0  0  0  0  0  0  0  0  0  0  0  0
   61.2080   31.7860   47.7830 C   0  0  0  0  0  0  0  0  0  0  0  0
   61.8380   31.7850   49.1050 N   0  0  0  0  0  0  0  0  0  0  0  0
   61.6690   30.6720   50.0450 C   0  0  0  0  0  0  0  0  0  0  0  0
   60.2010   30.2390   50.1310 C   0  0  0  0  0  0  0  0  0  0  0  0
   59.9340   29.0230   49.2830 C   0  0  0  0  0  0  0  0  0  0  0  0
   60.7870   27.9080   49.3600 C   0  0  0  0  0  0  0  0  0  0  0  0
   60.5400   26.7760   48.5750 C   0  0  0  0  0  0  0  0  0  0  0  0
   59.4400   26.7490   47.7130 C   0  0  0  0  0  0  0  0  0  0  0  0
   59.2160   25.6620   46.9360 F   0  0  0  0  0  0  0  0  0  0  0  0
   58.5730   27.8450   47.6510 C   0  0  0  0  0  0  0  0  0  0  0  0
   58.8150   28.9770   48.4340 C   0  0  0  0  0  0  0  0  0  0  0  0
   62.5680   32.9650   49.4510 C   0  0  0  0  0  0  0  0  0  0  0  0
   63.4050   32.9700   50.3940 O   0  0  0  0  0  0  0  0  0  0  0  0
   62.2920   34.1950   48.6580 C   0  0  0  0  0  0  0  0  0  0  0  0
   60.8520   34.2300   48.3750 N   0  0  0  0  0  0  0  0  0  0  0  0
   55.1550   28.6440   45.6590 H   0  0  0  0  0  0  0  0  0  0  0  0
   57.1078   27.7245   43.9045 H   0  0  0  0  0  0  0  0  0  0  0  0
   59.4326   26.8240   43.8405 H   0  0  0  0  0  0  0  0  0  0  0  0
   61.3249   28.2433   44.6361 H   0  0  0  0  0  0  0  0  0  0  0  0
   60.8580   30.3950   45.5870 H   0  0  0  0  0  0  0  0  0  0  0  0
   57.0750   31.8870   47.3730 H   0  0  0  0  0  0  0  0  0  0  0  0
   58.3939   30.7269   47.8087 H   0  0  0  0  0  0  0  0  0  0  0  0
   58.3096   33.7331   48.0236 H   0  0  0  0  0  0  0  0  0  0  0  0
   58.9913   32.4674   49.1504 H   0  0  0  0  0  0  0  0  0  0  0  0
   60.2288   34.5533   45.9722 H   0  0  0  0  0  0  0  0  0  0  0  0
   61.1658   33.0254   45.5864 H   0  0  0  0  0  0  0  0  0  0  0  0
   58.2407   33.6124   45.3046 H   0  0  0  0  0  0  0  0  0  0  0  0
   59.3622   32.6437   44.2689 H   0  0  0  0  0  0  0  0  0  0  0  0
   60.5692   30.8956   47.6880 H   0  0  0  0  0  0  0  0  0  0  0  0
   61.9979   31.7760   47.0176 H   0  0  0  0  0  0  0  0  0  0  0  0
   62.2755   29.8196   49.7050 H   0  0  0  0  0  0  0  0  0  0  0  0
   61.9936   31.0049   51.0419 H   0  0  0  0  0  0  0  0  0  0  0  0
   59.9580   30.0051   51.1780 H   0  0  0  0  0  0  0  0  0  0  0  0
   59.5754   31.0637   49.7589 H   0  0  0  0  0  0  0  0  0  0  0  0
   61.6517   27.9255   50.0397 H   0  0  0  0  0  0  0  0  0  0  0  0
   61.2118   25.9071   48.6364 H   0  0  0  0  0  0  0  0  0  0  0  0
   57.6986   27.8158   46.9843 H   0  0  0  0  0  0  0  0  0  0  0  0
   58.1277   29.8345   48.3856 H   0  0  0  0  0  0  0  0  0  0  0  0
   62.5822   35.0856   49.2348 H   0  0  0  0  0  0  0  0  0  0  0  0
   62.8686   34.1868   47.7213 H   0  0  0  0  0  0  0  0  0  0  0  0
   60.5960   35.1580   47.9630 H   0  0  0  0  0  0  0  0  0  0  0  0
  1  2  1  0
  2  3  2  0
  2  4  1  0
  4  5  2  0
  5  6  1  0
  6  7  2  0
  7  8  1  0
  8  9  2  0
  9 10  1  0
 10 11  1  0
 11 12  1  0
 12 13  1  0
 13 14  1  0
 14 15  1  0
 13 16  1  0
 16 17  1  0
 17 18  1  0
 18 19  1  0
 19 20  1  0
 20 21  2  0
 21 22  1  0
 22 23  2  0
 23 24  1  0
 23 25  1  0
 25 26  2  0
 17 27  1  0
 27 28  2  0
 27 29  1  0
 29 30  1  0
  9  4  1  0
 15 10  1  0
 26 20  1  0
 30 13  1  0
  1 31  1  0
  5 32  1  0
  6 33  1  0
  7 34  1  0
  8 35  1  0
 11 36  1  0
 11 37  1  0
 12 38  1  0
 12 39  1  0
 14 40  1  0
 14 41  1  0
 15 42  1  0
 15 43  1  0
 16 44  1  0
 16 45  1  0
 18 46  1  0
 18 47  1  0
 19 48  1  0
 19 49  1  0
 21 50  1  0
 22 51  1  0
 25 52  1  0
 26 53  1  0
 29 54  1  0
 29 55  1  0
 30 56  1  0
M  CHG  2   1  -1   8   1
M  END
>  <UniqueID>  (63) 
62

>  <SMILES>  (63) 
[NH-]C(=O)c1ccc[nH+]c1N1CCC2(CC1)CN(CCc1ccc(F)cc1)C(=O)CN2

>  <Energy>  (63) 
75.16898512335463

>  <Genealogy>  (63) 
[NH-]C(=O)c1ccc[nH+]c1N1CCC2(CC1)CN(CCc1ccc(F)cc1)C(=O)CN2 (protonated)
[NH-]C(=O)c1ccc[nH+]c1N1CCC2(CC1)CN(CCc1ccc(F)cc1)C(=O)CN2 (3D coordinates assigned)
[NH-]C(=O)c1ccc[nH+]c1N1CCC2(CC1)CN(CCc1ccc(F)cc1)C(=O)CN2 (nonaromatic ring conformer: 75.16898512335463 kcal/mol)

>  <smiles>  (63) 
NC(=O)c1cccnc1N1CCC2(CC1)CN(CCc1ccc(F)cc1)C(=O)CN2

>  <score_type>  (63) 
oracle

>  <origin>  (63) 
adg

>  <m_score__min__energy>  (63) 
-9.3499999999999996

>  <m_primary>  (63) 
energy

$$$$
63:0
     RDKit          3D

 57 61  0  0  0  0  0  0  0  0999 V2000
   60.2559   34.6890   45.7158 H   0  0  0  0  0  0  0  0  0  0  0  0
   60.8210   34.1730   46.5060 C   0  0  0  0  0  0  0  0  0  0  0  0
   60.2974   33.7824   47.3911 H   0  0  0  0  0  0  0  0  0  0  0  0
   62.1400   34.0210   46.3910 C   0  0  0  0  0  0  0  0  0  0  0  0
   62.6362   34.4219   45.4949 H   0  0  0  0  0  0  0  0  0  0  0  0
   62.9660   33.3430   47.4040 C   0  0  0  0  0  0  0  0  0  0  0  0
   63.5470   33.9840   48.3930 O   0  0  0  0  0  0  0  0  0  0  0  0
   64.2090   33.1150   49.1220 C   0  0  0  0  0  0  0  0  0  0  0  0
   64.9860   33.4700   50.3150 C   0  0  0  0  0  0  0  0  0  0  0  0
   66.2250   33.6780   50.2110 O   0  0  0  0  0  0  0  0  0  0  0  0
   64.3370   33.5820   51.5860 N   0  0  0  0  0  0  0  0  0  0  0  0
   62.9850   34.0980   51.7600 C   0  0  0  0  0  0  0  0  0  0  0  0
   62.7359   34.1099   52.8313 H   0  0  0  0  0  0  0  0  0  0  0  0
   62.9351   35.1180   51.3511 H   0  0  0  0  0  0  0  0  0  0  0  0
   61.9980   33.2280   51.0300 C   0  0  0  0  0  0  0  0  0  0  0  0
   62.0660   31.8330   51.1560 C   0  0  0  0  0  0  0  0  0  0  0  0
   62.8572   31.3768   51.7692 H   0  0  0  0  0  0  0  0  0  0  0  0
   61.1330   31.0190   50.5060 C   0  0  0  0  0  0  0  0  0  0  0  0
   61.2026   29.9250   50.5967 H   0  0  0  0  0  0  0  0  0  0  0  0
   60.1090   31.5930   49.7390 C   0  0  0  0  0  0  0  0  0  0  0  0
   59.1320   30.7310   49.0510 C   0  0  0  0  0  0  0  0  0  0  0  0
   58.1280   30.3420   49.7070 O   0  0  0  0  0  0  0  0  0  0  0  0
   59.3120   30.3150   47.6740 N   0  0  0  0  0  0  0  0  0  0  0  0
   58.4910   30.8210   46.6030 C   0  0  0  0  0  0  0  0  0  0  0  0
   58.2290   32.1960   46.4640 C   0  0  0  0  0  0  0  0  0  0  0  0
   58.6120   32.9051   47.2126 H   0  0  0  0  0  0  0  0  0  0  0  0
   57.4850   32.6640   45.3800 C   0  0  0  0  0  0  0  0  0  0  0  0
   57.2594   33.7370   45.2913 H   0  0  0  0  0  0  0  0  0  0  0  0
   57.0270   31.7740   44.4090 C   0  0  0  0  0  0  0  0  0  0  0  0
   56.4398   32.1464   43.5567 H   0  0  0  0  0  0  0  0  0  0  0  0
   57.3120   30.4110   44.5160 C   0  0  0  0  0  0  0  0  0  0  0  0
   56.9665   29.7178   43.7349 H   0  0  0  0  0  0  0  0  0  0  0  0
   58.0400   29.9170   45.6190 C   0  0  0  0  0  0  0  0  0  0  0  0
   58.3920   28.4690   45.7580 C   0  0  0  0  0  0  0  0  0  0  0  0
   57.6080   27.5180   45.2060 C   0  0  0  0  0  0  0  0  0  0  0  0
   57.2595   27.6685   44.1736 H   0  0  0  0  0  0  0  0  0  0  0  0
   57.1930   26.2920   45.9060 C   0  0  0  0  0  0  0  0  0  0  0  0
   58.2560   25.1410   46.5220 S   0  0  0  0  0  0  0  0  0  0  0  0
   57.0080   24.2280   47.1840 C   0  0  0  0  0  0  0  0  0  0  0  0
   57.1760   23.1510   47.8130 O   0  0  0  0  0  0  0  0  0  0  0  0
   55.7940   24.7790   46.9800 N   0  0  0  0  0  0  0  0  0  0  0  0
   55.8970   25.9370   46.2770 C   0  0  0  0  0  0  0  0  0  0  0  0
   54.7840   26.7160   45.9920 O   0  0  0  0  0  0  0  0  0  0  0  0
   59.5380   28.0710   46.6810 C   0  0  0  0  0  0  0  0  0  0  0  0
   60.2599   27.4737   46.1047 H   0  0  0  0  0  0  0  0  0  0  0  0
   59.1032   27.5010   47.5153 H   0  0  0  0  0  0  0  0  0  0  0  0
   60.2730   29.2750   47.2850 C   0  0  0  0  0  0  0  0  0  0  0  0
   60.9705   29.6856   46.5401 H   0  0  0  0  0  0  0  0  0  0  0  0
   60.8259   28.9463   48.1774 H   0  0  0  0  0  0  0  0  0  0  0  0
   60.0510   32.9870   49.5970 C   0  0  0  0  0  0  0  0  0  0  0  0
   59.2681   33.4418   48.9723 H   0  0  0  0  0  0  0  0  0  0  0  0
   60.9840   33.8010   50.2460 C   0  0  0  0  0  0  0  0  0  0  0  0
   60.9235   34.8944   50.1420 H   0  0  0  0  0  0  0  0  0  0  0  0
   64.0640   31.8460   48.5960 C   0  0  0  0  0  0  0  0  0  0  0  0
   64.4996   30.9131   48.9831 H   0  0  0  0  0  0  0  0  0  0  0  0
   63.2600   31.9910   47.4850 C   0  0  0  0  0  0  0  0  0  0  0  0
   62.9216   31.1969   46.8032 H   0  0  0  0  0  0  0  0  0  0  0  0
  1  2  1  0
  2  3  1  0
  2  4  2  0
  4  5  1  0
  4  6  1  0
  6  7  1  0
  7  8  1  0
  8  9  1  0
  9 10  2  0
  9 11  1  0
 11 12  1  0
 12 13  1  0
 12 14  1  0
 12 15  1  0
 15 16  2  0
 16 17  1  0
 16 18  1  0
 18 19  1  0
 18 20  2  0
 20 21  1  0
 21 22  2  0
 21 23  1  0
 23 24  1  0
 24 25  2  0
 25 26  1  0
 25 27  1  0
 27 28  1  0
 27 29  2  0
 29 30  1  0
 29 31  1  0
 31 32  1  0
 31 33  2  0
 33 34  1  0
 34 35  2  0
 35 36  1  0
 35 37  1  0
 37 38  1  0
 38 39  1  0
 39 40  2  0
 39 41  1  0
 41 42  1  0
 42 43  1  0
 34 44  1  0
 44 45  1  0
 44 46  1  0
 44 47  1  0
 47 48  1  0
 47 49  1  0
 20 50  1  0
 50 51  1  0
 50 52  2  0
 52 53  1  0
  8 54  2  0
 54 55  1  0
 54 56  1  0
 56 57  1  0
 56  6  2  0
 52 15  1  0
 47 23  1  0
 33 24  1  0
 42 37  2  0
M  CHG  3  11  -1  41  -1  43  -1
M  END
>  <UniqueID>  (64) 
63

>  <SMILES>  (64) 
C=Cc1ccc(C(=O)[N-]Cc2ccc(C(=O)N3CC/C(=C\c4sc(=O)[n-]c4[O-])c4ccccc43)cc2)o1

>  <Energy>  (64) 
141.32687288660134

>  <Genealogy>  (64) 
C=Cc1ccc(C(=O)[N-]Cc2ccc(C(=O)N3CCC(=Cc4sc(=O)[n-]c4[O-])c4ccccc43)cc2)o1 (protonated)
C=Cc1ccc(C(=O)[N-]Cc2ccc(C(=O)N3CC/C(=C\c4sc(=O)[n-]c4[O-])c4ccccc43)cc2)o1 (cis-trans isomerization)
C=Cc1ccc(C(=O)[N-]Cc2ccc(C(=O)N3CC/C(=C\c4sc(=O)[n-]c4[O-])c4ccccc43)cc2)o1 (3D coordinates assigned)
C=Cc1ccc(C(=O)[N-]Cc2ccc(C(=O)N3CC/C(=C\c4sc(=O)[n-]c4[O-])c4ccccc43)cc2)o1 (nonaromatic ring conformer: 141.32687288660134 kcal/mol)

>  <smiles>  (64) 
C=Cc1ccc(C(=O)NCc2ccc(C(=O)N3CCC(=Cc4sc(=O)[nH]c4O)c4ccccc43)cc2)o1

>  <score_type>  (64) 
oracle

>  <origin>  (64) 
adg

>  <m_score__min__energy>  (64) 
-17.449999999999999

>  <m_primary>  (64) 
energy

$$$$
64:0
     RDKit          3D

 70 74  0  0  0  0  0  0  0  0999 V2000
   57.6160   22.2350   44.2080 C   0  0  0  0  0  0  0  0  0  0  0  0
   56.4130   22.1880   45.0480 N   0  0  0  0  0  0  0  0  0  0  0  0
   56.2510   20.8480   45.6280 C   0  0  0  0  0  0  0  0  0  0  0  0
   56.5330   23.3760   46.3240 S   0  0  0  0  0  0  0  0  0  0  0  0
   55.1540   23.7650   46.7740 O   0  0  0  0  0  0  0  0  0  0  0  0
   57.2520   22.7760   47.5000 O   0  0  0  0  0  0  0  0  0  0  0  0
   57.4000   24.8180   45.7900 C   0  0  0  0  0  0  0  0  0  0  0  0
   58.4640   25.3280   46.5410 C   0  0  0  0  0  0  0  0  0  0  0  0
   59.1270   26.4820   46.1200 C   0  0  0  0  0  0  0  0  0  0  0  0
   58.7210   27.1170   44.9380 C   0  0  0  0  0  0  0  0  0  0  0  0
   59.3750   28.3990   44.4980 C   0  0  0  0  0  0  0  0  0  0  0  0
   59.1750   29.4290   45.5180 N   0  0  0  0  0  0  0  0  0  0  0  0
   59.6250   29.3620   46.7920 C   0  0  0  0  0  0  0  0  0  0  0  0
   59.4030   30.5680   47.4500 C   0  0  0  0  0  0  0  0  0  0  0  0
   59.7800   30.8890   48.8400 C   0  0  0  0  0  0  0  0  0  0  0  0
   60.9600   31.2540   49.0740 O   0  0  0  0  0  0  0  0  0  0  0  0
   58.7890   30.8060   49.9430 C   0  0  0  0  0  0  0  0  0  0  0  0
   58.1700   29.7210   50.1240 O   0  0  0  0  0  0  0  0  0  0  0  0
   58.5250   31.9130   50.8320 N   0  0  0  0  0  0  0  0  0  0  0  0
   57.5330   31.8270   51.8930 C   0  0  0  0  0  0  0  0  0  0  0  0
   57.7980   33.0090   52.8150 C   0  0  0  0  0  0  0  0  0  0  0  0
   58.7000   33.9600   52.0340 C   0  0  0  0  0  0  0  0  0  0  0  0
   59.3070   33.1380   50.9010 C   0  0  0  0  0  0  0  0  0  0  0  0
   58.7920   31.4000   46.5200 C   0  0  0  0  0  0  0  0  0  0  0  0
   58.4160   32.7470   46.5880 C   0  0  0  0  0  0  0  0  0  0  0  0
   58.5950   33.4630   47.7820 O   0  0  0  0  0  0  0  0  0  0  0  0
   59.4330   34.6080   47.9400 C   0  0  0  0  0  0  0  0  0  0  0  0
   60.8810   34.2060   47.8780 C   0  0  0  0  0  0  0  0  0  0  0  0
   61.6600   34.2160   49.0480 C   0  0  0  0  0  0  0  0  0  0  0  0
   63.0060   33.8410   48.9990 C   0  0  0  0  0  0  0  0  0  0  0  0
   63.5830   33.4540   47.7870 C   0  0  0  0  0  0  0  0  0  0  0  0
   62.8160   33.4450   46.6190 C   0  0  0  0  0  0  0  0  0  0  0  0
   61.4700   33.8230   46.6610 C   0  0  0  0  0  0  0  0  0  0  0  0
   57.8720   33.3330   45.4190 C   0  0  0  0  0  0  0  0  0  0  0  0
   57.7430   32.5800   44.2340 C   0  0  0  0  0  0  0  0  0  0  0  0
   58.1550   31.2400   44.1900 C   0  0  0  0  0  0  0  0  0  0  0  0
   58.6800   30.6740   45.3550 C   0  0  0  0  0  0  0  0  0  0  0  0
   57.6780   26.6050   44.2200 N   0  0  0  0  0  0  0  0  0  0  0  0
   57.0220   25.4810   44.6160 C   0  0  0  0  0  0  0  0  0  0  0  0
   58.5095   22.2699   44.8487 H   0  0  0  0  0  0  0  0  0  0  0  0
   57.6551   21.3377   43.5729 H   0  0  0  0  0  0  0  0  0  0  0  0
   57.5849   23.1326   43.5729 H   0  0  0  0  0  0  0  0  0  0  0  0
   56.2597   20.9200   46.7256 H   0  0  0  0  0  0  0  0  0  0  0  0
   55.2943   20.4181   45.2963 H   0  0  0  0  0  0  0  0  0  0  0  0
   57.0776   20.2025   45.2963 H   0  0  0  0  0  0  0  0  0  0  0  0
   58.7786   24.8193   47.4642 H   0  0  0  0  0  0  0  0  0  0  0  0
   59.9607   26.8895   46.7106 H   0  0  0  0  0  0  0  0  0  0  0  0
   60.4525   28.2298   44.3553 H   0  0  0  0  0  0  0  0  0  0  0  0
   58.9252   28.7315   43.5508 H   0  0  0  0  0  0  0  0  0  0  0  0
   60.0996   28.4786   47.2442 H   0  0  0  0  0  0  0  0  0  0  0  0
   56.5183   31.8903   51.4731 H   0  0  0  0  0  0  0  0  0  0  0  0
   57.6043   30.8716   52.4335 H   0  0  0  0  0  0  0  0  0  0  0  0
   56.8534   33.5078   53.0775 H   0  0  0  0  0  0  0  0  0  0  0  0
   58.2704   32.6878   53.7550 H   0  0  0  0  0  0  0  0  0  0  0  0
   58.1113   34.7950   51.6262 H   0  0  0  0  0  0  0  0  0  0  0  0
   59.4802   34.3916   52.6782 H   0  0  0  0  0  0  0  0  0  0  0  0
   59.2401   33.6884   49.9509 H   0  0  0  0  0  0  0  0  0  0  0  0
   60.3715   32.9273   51.0811 H   0  0  0  0  0  0  0  0  0  0  0  0
   59.2210   35.3270   47.1350 H   0  0  0  0  0  0  0  0  0  0  0  0
   59.2304   35.0681   48.9184 H   0  0  0  0  0  0  0  0  0  0  0  0
   61.2095   34.5196   50.0045 H   0  0  0  0  0  0  0  0  0  0  0  0
   63.6121   33.8507   49.9169 H   0  0  0  0  0  0  0  0  0  0  0  0
   64.6414   33.1563   47.7521 H   0  0  0  0  0  0  0  0  0  0  0  0
   63.2714   33.1402   45.6652 H   0  0  0  0  0  0  0  0  0  0  0  0
   60.8707   33.8205   45.7386 H   0  0  0  0  0  0  0  0  0  0  0  0
   57.5476   34.3839   45.4357 H   0  0  0  0  0  0  0  0  0  0  0  0
   57.3151   33.0480   43.3352 H   0  0  0  0  0  0  0  0  0  0  0  0
   58.0674   30.6513   43.2649 H   0  0  0  0  0  0  0  0  0  0  0  0
   57.3640   27.0830   43.3450 H   0  0  0  0  0  0  0  0  0  0  0  0
   56.1903   25.0909   44.0109 H   0  0  0  0  0  0  0  0  0  0  0  0
  1  2  1  0
  2  3  1  0
  2  4  1  0
  4  5  2  0
  4  6  2  0
  4  7  1  0
  7  8  2  0
  8  9  1  0
  9 10  2  0
 10 11  1  0
 11 12  1  0
 12 13  1  0
 13 14  2  0
 14 15  1  0
 15 16  2  0
 15 17  1  0
 17 18  2  0
 17 19  1  0
 19 20  1  0
 20 21  1  0
 21 22  1  0
 22 23  1  0
 14 24  1  0
 24 25  2  0
 25 26  1  0
 26 27  1  0
 27 28  1  0
 28 29  2  0
 29 30  1  0
 30 31  2  0
 31 32  1  0
 32 33  2  0
 25 34  1  0
 34 35  2  0
 35 36  1  0
 36 37  2  0
 10 38  1  0
 38 39  2  0
 39  7  1  0
 37 12  1  0
 23 19  1  0
 37 24  1  0
 33 28  1  0
  1 40  1  0
  1 41  1  0
  1 42  1  0
  3 43  1  0
  3 44  1  0
  3 45  1  0
  8 46  1  0
  9 47  1  0
 11 48  1  0
 11 49  1  0
 13 50  1  0
 20 51  1  0
 20 52  1  0
 21 53  1  0
 21 54  1  0
 22 55  1  0
 22 56  1  0
 23 57  1  0
 23 58  1  0
 27 59  1  0
 27 60  1  0
 29 61  1  0
 30 62  1  0
 31 63  1  0
 32 64  1  0
 33 65  1  0
 34 66  1  0
 35 67  1  0
 36 68  1  0
 38 69  1  0
 39 70  1  0
M  CHG  1  38   1
M  END
>  <UniqueID>  (65) 
64

>  <SMILES>  (65) 
CN(C)S(=O)(=O)c1ccc(Cn2cc(C(=O)C(=O)N3CCCC3)c3c(OCc4ccccc4)cccc32)[nH+]c1

>  <Energy>  (65) 
108.70609694753887

>  <Genealogy>  (65) 
CN(C)S(=O)(=O)c1ccc(Cn2cc(C(=O)C(=O)N3CCCC3)c3c(OCc4ccccc4)cccc32)[nH+]c1 (protonated)
CN(C)S(=O)(=O)c1ccc(Cn2cc(C(=O)C(=O)N3CCCC3)c3c(OCc4ccccc4)cccc32)[nH+]c1 (3D coordinates assigned)
CN(C)S(=O)(=O)c1ccc(Cn2cc(C(=O)C(=O)N3CCCC3)c3c(OCc4ccccc4)cccc32)[nH+]c1 (nonaromatic ring conformer: 108.70609694753887 kcal/mol)

>  <smiles>  (65) 
CN(C)S(=O)(=O)c1ccc(Cn2cc(C(=O)C(=O)N3CCCC3)c3c(OCc4ccccc4)cccc32)nc1

>  <score_type>  (65) 
oracle

>  <origin>  (65) 
adg

>  <m_score__min__energy>  (65) 
-9.1699999999999999

>  <m_primary>  (65) 
energy

$$$$
65:0
     RDKit          3D

 54 57  0  0  0  0  0  0  0  0999 V2000
   62.3060   30.8470   49.6840 C   0  0  0  0  0  0  0  0  0  0  0  0
   61.6850   32.1760   49.7780 N   0  0  0  0  0  0  0  0  0  0  0  0
   62.3440   33.3260   49.1350 C   0  0  0  0  0  0  0  0  0  0  0  0
   61.4090   34.5390   49.0400 C   0  0  0  0  0  0  0  0  0  0  0  0
   60.7520   34.5880   47.7720 O   0  0  0  0  0  0  0  0  0  0  0  0
   59.9680   33.5670   47.2090 C   0  0  0  0  0  0  0  0  0  0  0  0
   60.5170   32.4890   46.4910 C   0  0  0  0  0  0  0  0  0  0  0  0
   59.6920   31.4800   45.9890 C   0  0  0  0  0  0  0  0  0  0  0  0
   58.2980   31.5490   46.1520 C   0  0  0  0  0  0  0  0  0  0  0  0
   57.3990   30.4970   45.6220 C   0  0  0  0  0  0  0  0  0  0  0  0
   56.4250   30.7500   44.7260 N   0  0  0  0  0  0  0  0  0  0  0  0
   55.8330   29.5520   44.5490 C   0  0  0  0  0  0  0  0  0  0  0  0
   54.8560   29.3850   43.7740 O   0  0  0  0  0  0  0  0  0  0  0  0
   56.3680   28.5480   45.2700 N   0  0  0  0  0  0  0  0  0  0  0  0
   57.3710   29.1450   45.9400 C   0  0  0  0  0  0  0  0  0  0  0  0
   58.2750   28.4070   46.8410 C   0  0  0  0  0  0  0  0  0  0  0  0
   59.0410   29.1510   47.7510 C   0  0  0  0  0  0  0  0  0  0  0  0
   59.9640   28.5180   48.5840 C   0  0  0  0  0  0  0  0  0  0  0  0
   60.1230   27.1340   48.5240 C   0  0  0  0  0  0  0  0  0  0  0  0
   59.3500   26.3780   47.6420 C   0  0  0  0  0  0  0  0  0  0  0  0
   58.4090   26.9970   46.8030 C   0  0  0  0  0  0  0  0  0  0  0  0
   57.4170   25.9670   45.7540 S   0  0  0  0  0  0  0  0  0  0  0  0
   55.7310   26.2720   45.9980 N   0  0  0  0  0  0  0  0  0  0  0  0
   57.6830   24.5220   46.0760 O   0  0  0  0  0  0  0  0  0  0  0  0
   57.7730   26.2190   44.3160 O   0  0  0  0  0  0  0  0  0  0  0  0
   57.7530   32.6360   46.8570 C   0  0  0  0  0  0  0  0  0  0  0  0
   58.5810   33.6360   47.3740 C   0  0  0  0  0  0  0  0  0  0  0  0
   60.4090   32.3510   50.4420 C   0  0  0  0  0  0  0  0  0  0  0  0
   60.2690   33.1820   51.5750 C   0  0  0  0  0  0  0  0  0  0  0  0
   59.0090   33.3600   52.1520 C   0  0  0  0  0  0  0  0  0  0  0  0
   57.9000   32.7110   51.6110 C   0  0  0  0  0  0  0  0  0  0  0  0
   58.0660   31.8890   50.4950 C   0  0  0  0  0  0  0  0  0  0  0  0
   59.2980   31.7340   49.9420 N   0  0  0  0  0  0  0  0  0  0  0  0
   62.4890   30.4554   50.6955 H   0  0  0  0  0  0  0  0  0  0  0  0
   61.6332   30.1653   49.1431 H   0  0  0  0  0  0  0  0  0  0  0  0
   63.2606   30.9257   49.1431 H   0  0  0  0  0  0  0  0  0  0  0  0
   63.2296   33.6045   49.7251 H   0  0  0  0  0  0  0  0  0  0  0  0
   62.6261   33.0311   48.1135 H   0  0  0  0  0  0  0  0  0  0  0  0
   60.6510   34.4706   49.8342 H   0  0  0  0  0  0  0  0  0  0  0  0
   62.0111   35.4523   49.1554 H   0  0  0  0  0  0  0  0  0  0  0  0
   61.6031   32.4404   46.3239 H   0  0  0  0  0  0  0  0  0  0  0  0
   60.1374   30.6237   45.4614 H   0  0  0  0  0  0  0  0  0  0  0  0
   58.9128   30.2420   47.8082 H   0  0  0  0  0  0  0  0  0  0  0  0
   60.5663   29.1108   49.2881 H   0  0  0  0  0  0  0  0  0  0  0  0
   60.8591   26.6373   49.1731 H   0  0  0  0  0  0  0  0  0  0  0  0
   59.4789   25.2863   47.6034 H   0  0  0  0  0  0  0  0  0  0  0  0
   55.3510   26.6340   45.0960 H   0  0  0  0  0  0  0  0  0  0  0  0
   55.6570   27.0510   46.6900 H   0  0  0  0  0  0  0  0  0  0  0  0
   56.6646   32.7001   47.0031 H   0  0  0  0  0  0  0  0  0  0  0  0
   58.1379   34.4848   47.9155 H   0  0  0  0  0  0  0  0  0  0  0  0
   61.1482   33.6871   52.0016 H   0  0  0  0  0  0  0  0  0  0  0  0
   58.8923   34.0107   53.0312 H   0  0  0  0  0  0  0  0  0  0  0  0
   56.9044   32.8453   52.0590 H   0  0  0  0  0  0  0  0  0  0  0  0
   57.1997   31.3666   50.0630 H   0  0  0  0  0  0  0  0  0  0  0  0
  1  2  1  0
  2  3  1  0
  3  4  1  0
  4  5  1  0
  5  6  1  0
  6  7  2  0
  7  8  1  0
  8  9  2  0
  9 10  1  0
 10 11  1  0
 11 12  1  0
 12 13  2  0
 12 14  1  0
 14 15  1  0
 15 16  1  0
 16 17  2  0
 17 18  1  0
 18 19  2  0
 19 20  1  0
 20 21  2  0
 21 22  1  0
 22 23  1  0
 22 24  2  0
 22 25  2  0
  9 26  1  0
 26 27  2  0
  2 28  1  0
 28 29  2  0
 29 30  1  0
 30 31  2  0
 31 32  1  0
 32 33  2  0
 27  6  1  0
 33 28  1  0
 15 10  2  0
 21 16  1  0
  1 34  1  0
  1 35  1  0
  1 36  1  0
  3 37  1  0
  3 38  1  0
  4 39  1  0
  4 40  1  0
  7 41  1  0
  8 42  1  0
 17 43  1  0
 18 44  1  0
 19 45  1  0
 20 46  1  0
 23 47  1  0
 23 48  1  0
 26 49  1  0
 27 50  1  0
 29 51  1  0
 30 52  1  0
 31 53  1  0
 32 54  1  0
M  CHG  2  11  -1  14  -1
M  END
>  <UniqueID>  (66) 
65

>  <SMILES>  (66) 
CN(CCOc1ccc(-c2[n-]c(=O)[n-]c2-c2ccccc2S(N)(=O)=O)cc1)c1ccccn1

>  <Energy>  (66) 
94.26870504947271

>  <Genealogy>  (66) 
CN(CCOc1ccc(-c2[n-]c(=O)[n-]c2-c2ccccc2S(N)(=O)=O)cc1)c1ccccn1 (protonated)
CN(CCOc1ccc(-c2[n-]c(=O)[n-]c2-c2ccccc2S(N)(=O)=O)cc1)c1ccccn1 (3D coordinates assigned)
CN(CCOc1ccc(-c2[n-]c(=O)[n-]c2-c2ccccc2S(N)(=O)=O)cc1)c1ccccn1 (optimized conformer: 94.26870504947271 kcal/mol)

>  <smiles>  (66) 
CN(CCOc1ccc(-c2[nH]c(=O)[nH]c2-c2ccccc2S(N)(=O)=O)cc1)c1ccccn1

>  <score_type>  (66) 
oracle

>  <origin>  (66) 
adg

>  <m_score__min__energy>  (66) 
-13.289999999999999

>  <m_primary>  (66) 
energy

$$$$
66:0
     RDKit          3D

 47 49  0  0  0  0  0  0  0  0999 V2000
   58.1310   32.3950   48.6550 O   0  0  0  0  0  0  0  0  0  0  0  0
   58.8710   31.7380   47.8720 C   0  0  0  0  0  0  0  0  0  0  0  0
   59.2200   30.3820   48.1790 N   0  0  0  0  0  0  0  0  0  0  0  0
   58.7060   29.7200   49.3780 C   0  0  0  0  0  0  0  0  0  0  0  0
   59.5260   30.0520   50.6400 C   0  0  0  0  0  0  0  0  0  0  0  0
   59.2580   31.4480   51.1870 C   0  0  0  0  0  0  0  0  0  0  0  0
   58.0560   31.6980   51.8920 C   0  0  0  0  0  0  0  0  0  0  0  0
   56.9090   30.4250   52.3040 Cl  0  0  0  0  0  0  0  0  0  0  0  0
   57.7640   32.9910   52.3270 C   0  0  0  0  0  0  0  0  0  0  0  0
   58.6330   34.0030   52.1000 N   0  0  0  0  0  0  0  0  0  0  0  0
   59.8150   33.8020   51.4690 C   0  0  0  0  0  0  0  0  0  0  0  0
   60.1840   32.5210   51.0120 C   0  0  0  0  0  0  0  0  0  0  0  0
   61.5710   32.3200   50.4170 C   0  0  0  0  0  0  0  0  0  0  0  0
   62.1950   31.2570   51.0440 F   0  0  0  0  0  0  0  0  0  0  0  0
   62.3750   33.4350   50.5850 F   0  0  0  0  0  0  0  0  0  0  0  0
   61.4830   32.0670   49.0620 F   0  0  0  0  0  0  0  0  0  0  0  0
   59.3730   32.3800   46.6070 C   0  0  2  0  0  0  0  0  0  0  0  0
   59.7290   33.8080   46.8470 C   0  0  0  0  0  0  0  0  0  0  0  0
   58.9680   34.6200   46.1210 C   0  0  0  0  0  0  0  0  0  0  0  0
   58.0000   33.8500   45.2940 C   0  0  0  0  0  0  0  0  0  0  0  0
   58.3070   32.4600   45.6130 N   0  0  0  0  0  0  0  0  0  0  0  0
   57.7250   31.3110   44.9680 C   0  0  0  0  0  0  0  0  0  0  0  0
   56.5090   31.3360   44.6330 O   0  0  0  0  0  0  0  0  0  0  0  0
   58.5250   30.0640   44.7040 C   0  0  0  0  0  0  0  0  0  0  0  0
   57.8530   28.8620   45.3200 C   0  0  0  0  0  0  0  0  0  0  0  0
   56.4970   28.6060   45.0820 C   0  0  0  0  0  0  0  0  0  0  0  0
   55.9080   27.5040   45.6120 N   0  0  0  0  0  0  0  0  0  0  0  0
   56.6150   26.6300   46.3730 C   0  0  0  0  0  0  0  0  0  0  0  0
   56.0500   25.6160   46.8580 O   0  0  0  0  0  0  0  0  0  0  0  0
   57.9350   26.8480   46.6090 N   0  0  0  0  0  0  0  0  0  0  0  0
   58.5690   27.9360   46.1000 C   0  0  0  0  0  0  0  0  0  0  0  0
   59.7960   28.1000   46.3300 O   0  0  0  0  0  0  0  0  0  0  0  0
   59.8700   29.8820   47.5350 H   0  0  0  0  0  0  0  0  0  0  0  0
   57.6666   30.0419   49.5392 H   0  0  0  0  0  0  0  0  0  0  0  0
   58.7755   28.6346   49.2133 H   0  0  0  0  0  0  0  0  0  0  0  0
   59.2768   29.3181   51.4206 H   0  0  0  0  0  0  0  0  0  0  0  0
   60.5880   30.0134   50.3560 H   0  0  0  0  0  0  0  0  0  0  0  0
   56.8212   33.1891   52.8580 H   0  0  0  0  0  0  0  0  0  0  0  0
   60.4964   34.6509   51.3111 H   0  0  0  0  0  0  0  0  0  0  0  0
   60.2280   31.7730   46.2747 H   0  0  0  0  0  0  0  0  0  0  0  0
   60.5183   34.1451   47.5350 H   0  0  0  0  0  0  0  0  0  0  0  0
   59.0437   35.7174   46.1302 H   0  0  0  0  0  0  0  0  0  0  0  0
   56.9641   34.0968   45.5698 H   0  0  0  0  0  0  0  0  0  0  0  0
   58.0845   34.0710   44.2198 H   0  0  0  0  0  0  0  0  0  0  0  0
   58.6112   29.9129   43.6178 H   0  0  0  0  0  0  0  0  0  0  0  0
   59.5227   30.1811   45.1522 H   0  0  0  0  0  0  0  0  0  0  0  0
   55.9078   29.2996   44.4641 H   0  0  0  0  0  0  0  0  0  0  0  0
  1  2  2  0
  2  3  1  0
  3  4  1  0
  4  5  1  0
  5  6  1  0
  6  7  2  0
  7  8  1  0
  7  9  1  0
  9 10  2  0
 10 11  1  0
 11 12  2  0
 12 13  1  0
 13 14  1  0
 13 15  1  0
 13 16  1  0
  2 17  1  0
 17 18  1  0
 18 19  2  0
 19 20  1  0
 20 21  1  0
 21 22  1  0
 22 23  2  0
 22 24  1  0
 24 25  1  0
 25 26  2  0
 26 27  1  0
 27 28  1  0
 28 29  2  0
 28 30  1  0
 30 31  1  0
 31 32  2  0
 12  6  1  0
 21 17  1  0
 31 25  1  0
  3 33  1  0
  4 34  1  0
  4 35  1  0
  5 36  1  0
  5 37  1  0
  9 38  1  0
 11 39  1  0
 17 40  1  6
 18 41  1  0
 19 42  1  0
 20 43  1  0
 20 44  1  0
 24 45  1  0
 24 46  1  0
 26 47  1  0
M  CHG  2  27  -1  30  -1
M  END
>  <UniqueID>  (67) 
66

>  <SMILES>  (67) 
O=C(NCCc1c(Cl)cncc1C(F)(F)F)[C@@H]1C=CCN1C(=O)Cc1c[n-]c(=O)[n-]c1=O

>  <Energy>  (67) 
59.65567820891117

>  <Genealogy>  (67) 
O=C(NCCc1c(Cl)cncc1C(F)(F)F)C1C=CCN1C(=O)Cc1c[n-]c(=O)[n-]c1=O (protonated)
O=C(NCCc1c(Cl)cncc1C(F)(F)F)[C@@H]1C=CCN1C(=O)Cc1c[n-]c(=O)[n-]c1=O (chirality)
O=C(NCCc1c(Cl)cncc1C(F)(F)F)[C@@H]1C=CCN1C(=O)Cc1c[n-]c(=O)[n-]c1=O (3D coordinates assigned)
O=C(NCCc1c(Cl)cncc1C(F)(F)F)[C@@H]1C=CCN1C(=O)Cc1c[n-]c(=O)[n-]c1=O (nonaromatic ring conformer: 59.65567820891117 kcal/mol)

>  <smiles>  (67) 
O=C(NCCc1c(Cl)cncc1C(F)(F)F)C1C=CCN1C(=O)Cc1c[nH]c(=O)[nH]c1=O

>  <score_type>  (67) 
oracle

>  <origin>  (67) 
adg

>  <m_score__min__energy>  (67) 
-13.1

>  <m_primary>  (67) 
energy

$$$$
67:0
     RDKit          3D

 57 60  0  0  0  0  0  0  0  0999 V2000
   51.9100   31.4470   54.5640 H   0  0  0  0  0  0  0  0  0  0  0  0
   51.3030   31.9040   53.8990 O   0  0  0  0  0  0  0  0  0  0  0  0
   51.4030   31.7020   52.5240 C   0  0  0  0  0  0  0  0  0  0  0  0
   50.6600   32.3740   51.6290 N   0  0  0  0  0  0  0  0  0  0  0  0
   51.1390   31.9310   50.4470 C   0  0  0  0  0  0  0  0  0  0  0  0
   50.7070   32.3450   49.3400 O   0  0  0  0  0  0  0  0  0  0  0  0
   52.1360   31.0260   50.5430 N   0  0  0  0  0  0  0  0  0  0  0  0
   52.2860   30.8640   51.8700 C   0  0  0  0  0  0  0  0  0  0  0  0
   53.3320   30.0060   52.4560 C   0  0  0  0  0  0  0  0  0  0  0  0
   53.0189   29.0767   52.9544 H   0  0  0  0  0  0  0  0  0  0  0  0
   54.6470   30.2910   52.4180 C   0  0  0  0  0  0  0  0  0  0  0  0
   55.2190   31.4890   52.0080 C   0  0  0  0  0  0  0  0  0  0  0  0
   54.6909   32.3636   51.6004 H   0  0  0  0  0  0  0  0  0  0  0  0
   56.5810   31.3680   52.2120 C   0  0  0  0  0  0  0  0  0  0  0  0
   57.5560   32.4130   51.8520 C   0  0  0  0  0  0  0  0  0  0  0  0
   57.6300   33.4320   52.5930 O   0  0  0  0  0  0  0  0  0  0  0  0
   58.4500   32.2770   50.7220 N   0  0  0  0  0  0  0  0  0  0  0  0
   59.3400   33.4000   50.3950 C   0  0  0  0  0  0  0  0  0  0  0  0
   58.7298   34.2898   50.1808 H   0  0  0  0  0  0  0  0  0  0  0  0
   60.0023   33.5791   51.2548 H   0  0  0  0  0  0  0  0  0  0  0  0
   60.2110   33.0850   49.1710 C   0  0  0  0  0  0  0  0  0  0  0  0
   60.6347   34.0223   48.7812 H   0  0  0  0  0  0  0  0  0  0  0  0
   61.0116   32.3971   49.4805 H   0  0  0  0  0  0  0  0  0  0  0  0
   59.4210   32.4350   48.1080 N   0  0  0  0  0  0  0  0  0  0  0  0
   58.4100   33.3460   47.5270 C   0  0  0  0  0  0  0  0  0  0  0  0
   57.4415   33.1752   48.0197 H   0  0  0  0  0  0  0  0  0  0  0  0
   58.7331   34.3859   47.6827 H   0  0  0  0  0  0  0  0  0  0  0  0
   58.2650   33.0880   46.0230 C   0  0  0  0  0  0  0  0  0  0  0  0
   57.2356   32.7640   45.8099 H   0  0  0  0  0  0  0  0  0  0  0  0
   58.4926   34.0179   45.4813 H   0  0  0  0  0  0  0  0  0  0  0  0
   59.1750   32.0720   45.5940 O   0  0  0  0  0  0  0  0  0  0  0  0
   58.8270   30.7570   45.2420 C   0  0  0  0  0  0  0  0  0  0  0  0
   57.6170   30.4320   44.5920 C   0  0  0  0  0  0  0  0  0  0  0  0
   56.9056   31.2284   44.3280 H   0  0  0  0  0  0  0  0  0  0  0  0
   57.3190   29.0990   44.2820 C   0  0  0  0  0  0  0  0  0  0  0  0
   56.3749   28.8515   43.7747 H   0  0  0  0  0  0  0  0  0  0  0  0
   58.2190   28.0820   44.6160 C   0  0  0  0  0  0  0  0  0  0  0  0
   57.8410   26.4130   44.2290 Cl  0  0  0  0  0  0  0  0  0  0  0  0
   59.4240   28.3990   45.2520 C   0  0  0  0  0  0  0  0  0  0  0  0
   60.1348   27.6007   45.5117 H   0  0  0  0  0  0  0  0  0  0  0  0
   59.7260   29.7300   45.5580 C   0  0  0  0  0  0  0  0  0  0  0  0
   60.6786   29.9727   46.0516 H   0  0  0  0  0  0  0  0  0  0  0  0
   58.8400   31.1360   48.5400 C   0  0  0  0  0  0  0  0  0  0  0  0
   57.8465   31.0344   48.0789 H   0  0  0  0  0  0  0  0  0  0  0  0
   59.5467   30.3565   48.2191 H   0  0  0  0  0  0  0  0  0  0  0  0
   58.6800   30.9790   50.0690 C   0  0  0  0  0  0  0  0  0  0  0  0
   57.8238   30.3193   50.2731 H   0  0  0  0  0  0  0  0  0  0  0  0
   59.6093   30.5495   50.4715 H   0  0  0  0  0  0  0  0  0  0  0  0
   56.8800   30.1470   52.7190 N   0  0  0  0  0  0  0  0  0  0  0  0
   58.2200   29.6130   52.9880 C   0  0  0  0  0  0  0  0  0  0  0  0
   58.3782   29.5499   54.0747 H   0  0  0  0  0  0  0  0  0  0  0  0
   58.3107   28.6100   52.5455 H   0  0  0  0  0  0  0  0  0  0  0  0
   58.9756   30.2787   52.5455 H   0  0  0  0  0  0  0  0  0  0  0  0
   55.7030   29.4790   52.8460 C   0  0  0  0  0  0  0  0  0  0  0  0
   55.6030   28.2190   53.3030 C   0  0  0  0  0  0  0  0  0  0  0  0
   56.5062   27.6733   53.6137 H   0  0  0  0  0  0  0  0  0  0  0  0
   54.6180   27.7335   53.3663 H   0  0  0  0  0  0  0  0  0  0  0  0
  1  2  1  0
  2  3  1  0
  3  4  1  0
  4  5  1  0
  5  6  2  0
  5  7  1  0
  7  8  1  0
  8  9  1  0
  9 10  1  0
  9 11  2  0
 11 12  1  0
 12 13  1  0
 12 14  2  0
 14 15  1  0
 15 16  2  0
 15 17  1  0
 17 18  1  0
 18 19  1  0
 18 20  1  0
 18 21  1  0
 21 22  1  0
 21 23  1  0
 21 24  1  0
 24 25  1  0
 25 26  1  0
 25 27  1  0
 25 28  1  0
 28 29  1  0
 28 30  1  0
 28 31  1  0
 31 32  1  0
 32 33  2  0
 33 34  1  0
 33 35  1  0
 35 36  1  0
 35 37  2  0
 37 38  1  0
 37 39  1  0
 39 40  1  0
 39 41  2  0
 41 42  1  0
 24 43  1  0
 43 44  1  0
 43 45  1  0
 43 46  1  0
 46 47  1  0
 46 48  1  0
 14 49  1  0
 49 50  1  0
 50 51  1  0
 50 52  1  0
 50 53  1  0
 49 54  1  0
 54 55  2  0
 55 56  1  0
 55 57  1  0
  8  3  2  0
 54 11  1  0
 46 17  1  0
 41 32  1  0
M  CHG  2   4  -1   7  -1
M  END
>  <UniqueID>  (68) 
67

>  <SMILES>  (68) 
C=c1/c(=C/c2[n-]c(=O)[n-]c2O)cc(C(=O)N2CCN(CCOc3ccc(Cl)cc3)CC2)n1C

>  <Energy>  (68) 
138.41449370909797

>  <Genealogy>  (68) 
C=c1c(=Cc2[n-]c(=O)[n-]c2O)cc(C(=O)N2CCN(CCOc3ccc(Cl)cc3)CC2)n1C (protonated)
C=c1/c(=C/c2[n-]c(=O)[n-]c2O)cc(C(=O)N2CCN(CCOc3ccc(Cl)cc3)CC2)n1C (cis-trans isomerization)
C=c1/c(=C/c2[n-]c(=O)[n-]c2O)cc(C(=O)N2CCN(CCOc3ccc(Cl)cc3)CC2)n1C (3D coordinates assigned)
C=c1/c(=C/c2[n-]c(=O)[n-]c2O)cc(C(=O)N2CCN(CCOc3ccc(Cl)cc3)CC2)n1C (nonaromatic ring conformer: 138.41449370909797 kcal/mol)

>  <smiles>  (68) 
C=c1c(=Cc2[nH]c(=O)[nH]c2O)cc(C(=O)N2CCN(CCOc3ccc(Cl)cc3)CC2)n1C

>  <score_type>  (68) 
oracle

>  <origin>  (68) 
adg

>  <m_score__min__energy>  (68) 
-14.25

>  <m_primary>  (68) 
energy

$$$$
68:0
     RDKit          3D

 53 58  0  0  1  0  0  0  0  0999 V2000
   53.8020   23.5680   46.2330 O   0  0  0  0  0  0  0  0  0  0  0  0
   55.0610   23.5680   46.1750 C   0  0  0  0  0  0  0  0  0  0  0  0
   55.7890   24.1990   47.1760 O   0  0  0  0  0  0  0  0  0  0  0  0
   56.6140   25.2540   46.8090 C   0  0  0  0  0  0  0  0  0  0  0  0
   57.9760   25.2580   47.0190 C   0  0  0  0  0  0  0  0  0  0  0  0
   58.7250   26.3580   46.6180 C   0  0  0  0  0  0  0  0  0  0  0  0
   58.1220   27.4610   46.0070 C   0  0  0  0  0  0  0  0  0  0  0  0
   58.9500   28.6360   45.5840 C   0  0  2  0  0  0  0  0  0  0  0  0
   59.3520   29.4880   46.7310 C   0  0  0  0  0  0  0  0  0  0  0  0
   60.1090   28.9120   47.7270 C   0  0  0  0  0  0  0  0  0  0  0  0
   60.4920   29.6960   48.8070 C   0  0  0  0  0  0  0  0  0  0  0  0
   60.1450   31.0270   48.9200 C   0  0  0  0  0  0  0  0  0  0  0  0
   60.5600   31.7520   50.0230 C   0  0  0  0  0  0  0  0  0  0  0  0
   60.2080   33.0820   50.1280 C   0  0  0  0  0  0  0  0  0  0  0  0
   59.4520   33.6550   49.1320 C   0  0  0  0  0  0  0  0  0  0  0  0
   59.0390   32.9270   48.0330 C   0  0  0  0  0  0  0  0  0  0  0  0
   59.3880   31.5980   47.9210 C   0  0  0  0  0  0  0  0  0  0  0  0
   59.0070   30.8180   46.8490 C   0  0  0  0  0  0  0  0  0  0  0  0
   58.2440   31.4130   45.8530 O   0  0  0  0  0  0  0  0  0  0  0  0
   57.8090   30.7190   44.7320 C   0  0  0  0  0  0  0  0  0  0  0  0
   57.0730   31.3700   43.8130 N   0  0  0  0  0  0  0  0  0  0  0  0
   56.6570   30.6700   42.7220 C   0  0  0  0  0  0  0  0  0  0  0  0
   56.9760   29.3560   42.5690 N   0  0  0  0  0  0  0  0  0  0  0  0
   57.7100   28.6950   43.4800 C   0  0  0  0  0  0  0  0  0  0  0  0
   57.9770   27.4820   43.2930 O   0  0  0  0  0  0  0  0  0  0  0  0
   58.1410   29.3870   44.5920 C   0  0  0  0  0  0  0  0  0  0  0  0
   56.7560   27.4130   45.8180 C   0  0  0  0  0  0  0  0  0  0  0  0
   55.9840   26.3370   46.2030 C   0  0  0  0  0  0  0  0  0  0  0  0
   54.6180   26.3400   45.9890 O   0  0  0  0  0  0  0  0  0  0  0  0
   55.7090   22.9070   45.0610 C   0  0  0  0  0  0  0  0  0  0  0  0
   56.4990   21.8150   45.3200 C   0  0  0  0  0  0  0  0  0  0  0  0
   57.1520   21.1320   44.2880 C   0  0  0  0  0  0  0  0  0  0  0  0
   56.9620   21.6110   43.0080 C   0  0  0  0  0  0  0  0  0  0  0  0
   56.1710   22.7060   42.7540 C   0  0  0  0  0  0  0  0  0  0  0  0
   55.5370   23.3640   43.7780 C   0  0  0  0  0  0  0  0  0  0  0  0
   58.4659   24.3984   47.4996 H   0  0  0  0  0  0  0  0  0  0  0  0
   59.8123   26.3605   46.7846 H   0  0  0  0  0  0  0  0  0  0  0  0
   59.8979   28.2968   45.1408 H   0  0  0  0  0  0  0  0  0  0  0  0
   60.4038   27.8539   47.6681 H   0  0  0  0  0  0  0  0  0  0  0  0
   61.0960   29.2381   49.6042 H   0  0  0  0  0  0  0  0  0  0  0  0
   61.1641   31.2732   50.8078 H   0  0  0  0  0  0  0  0  0  0  0  0
   60.5277   33.6762   50.9967 H   0  0  0  0  0  0  0  0  0  0  0  0
   59.1703   34.7153   49.2123 H   0  0  0  0  0  0  0  0  0  0  0  0
   58.4335   33.4063   47.2496 H   0  0  0  0  0  0  0  0  0  0  0  0
   56.8230   32.3840   43.9250 H   0  0  0  0  0  0  0  0  0  0  0  0
   56.0539   31.1742   41.9525 H   0  0  0  0  0  0  0  0  0  0  0  0
   56.2610   28.2707   45.3392 H   0  0  0  0  0  0  0  0  0  0  0  0
   54.0190   25.6420   46.3640 H   0  0  0  0  0  0  0  0  0  0  0  0
   56.6210   21.4705   46.3575 H   0  0  0  0  0  0  0  0  0  0  0  0
   57.7861   20.2556   44.4875 H   0  0  0  0  0  0  0  0  0  0  0  0
   57.4572   21.1025   42.1677 H   0  0  0  0  0  0  0  0  0  0  0  0
   56.0449   23.0584   41.7197 H   0  0  0  0  0  0  0  0  0  0  0  0
   54.9037   24.2401   43.5747 H   0  0  0  0  0  0  0  0  0  0  0  0
  1  2  2  0
  2  3  1  0
  3  4  1  0
  4  5  2  0
  5  6  1  0
  6  7  2  0
  7  8  1  0
  8  9  1  0
  9 10  2  0
 10 11  1  0
 11 12  2  0
 12 13  1  0
 13 14  2  0
 14 15  1  0
 15 16  2  0
 16 17  1  0
 17 18  2  0
 18 19  1  0
 19 20  1  0
 20 21  1  0
 21 22  1  0
 22 23  2  0
 23 24  1  0
 24 25  2  0
 24 26  1  0
  7 27  1  0
 27 28  2  0
 28 29  1  0
  2 30  1  0
 30 31  2  0
 31 32  1  0
 32 33  2  0
 33 34  1  0
 34 35  2  0
 28  4  1  0
 35 30  1  0
 26  8  1  0
 18  9  1  0
 26 20  2  0
 17 12  1  0
  5 36  1  0
  6 37  1  0
  8 38  1  6
 10 39  1  0
 11 40  1  0
 13 41  1  0
 14 42  1  0
 15 43  1  0
 16 44  1  0
 21 45  1  0
 22 46  1  0
 27 47  1  0
 29 48  1  0
 31 49  1  0
 32 50  1  0
 33 51  1  0
 34 52  1  0
 35 53  1  0
M  END
>  <smiles>  (69) 
O=C(Oc1ccc(C2c3ccc4ccccc4c3Oc3[nH]cnc(=O)c32)cc1O)c1ccccc1

>  <score_type>  (69) 
oracle

>  <origin>  (69) 
adg

>  <m_score__min__energy>  (69) 
-10.609999999999999

>  <m_primary>  (69) 
energy

$$$$
69:0
     RDKit          3D

 52 54  0  0  0  0  0  0  0  0999 V2000
   57.4970   30.0840   43.7580 C   0  0  0  0  0  0  0  0  0  0  0  0
   58.1060   30.2720   44.9400 C   0  0  0  0  0  0  0  0  0  0  0  0
   58.4270   29.2610   45.8620 C   0  0  0  0  0  0  0  0  0  0  0  0
   58.4420   27.9180   45.7380 C   0  0  0  0  0  0  0  0  0  0  0  0
   57.2730   27.0330   45.8610 C   0  0  0  0  0  0  0  0  0  0  0  0
   57.3010   25.7890   46.3730 N   0  0  0  0  0  0  0  0  0  0  0  0
   55.9980   25.4340   46.4010 C   0  0  0  0  0  0  0  0  0  0  0  0
   55.6120   24.3090   46.8120 O   0  0  0  0  0  0  0  0  0  0  0  0
   55.1420   26.3830   45.9650 N   0  0  0  0  0  0  0  0  0  0  0  0
   55.9650   27.3930   45.6410 C   0  0  0  0  0  0  0  0  0  0  0  0
   55.5300   28.6200   45.1560 O   0  0  0  0  0  0  0  0  0  0  0  0
   58.7860   29.9000   47.0310 C   0  0  0  0  0  0  0  0  0  0  0  0
   58.7550   31.2510   46.7700 C   0  0  0  0  0  0  0  0  0  0  0  0
   59.1110   32.2790   47.7650 C   0  0  0  0  0  0  0  0  0  0  0  0
   58.4260   32.3530   48.8200 O   0  0  0  0  0  0  0  0  0  0  0  0
   60.2280   33.1700   47.5540 N   0  0  0  0  0  0  0  0  0  0  0  0
   61.1050   33.0090   46.3850 C   0  0  0  0  0  0  0  0  0  0  0  0
   62.4380   33.7450   46.5930 C   0  0  0  0  0  0  0  0  0  0  0  0
   62.9290   33.5840   47.9780 N   0  0  0  0  0  0  0  0  0  0  0  0
   63.2910   32.1800   48.2720 C   0  0  0  0  0  0  0  0  0  0  0  0
   62.8090   31.7930   49.6390 C   0  0  0  0  0  0  0  0  0  0  0  0
   61.4320   31.4810   49.8610 N   0  0  0  0  0  0  0  0  0  0  0  0
   63.6230   31.7470   50.5990 O   0  0  0  0  0  0  0  0  0  0  0  0
   61.9940   34.1520   48.9860 C   0  0  0  0  0  0  0  0  0  0  0  0
   60.5300   34.2450   48.5070 C   0  0  0  0  0  0  0  0  0  0  0  0
   58.3540   31.4970   45.4970 N   0  0  0  0  0  0  0  0  0  0  0  0
   58.1260   32.8540   44.9440 C   0  0  0  0  0  0  0  0  0  0  0  0
   58.1500   32.8670   43.4100 C   0  0  0  0  0  0  0  0  0  0  0  0
   56.8740   33.5130   45.5350 C   0  0  0  0  0  0  0  0  0  0  0  0
   57.2882   30.9435   43.1040 H   0  0  0  0  0  0  0  0  0  0  0  0
   57.2069   29.0705   43.4438 H   0  0  0  0  0  0  0  0  0  0  0  0
   59.4117   27.4435   45.5267 H   0  0  0  0  0  0  0  0  0  0  0  0
   59.0466   29.4220   47.9868 H   0  0  0  0  0  0  0  0  0  0  0  0
   61.3052   31.9386   46.2298 H   0  0  0  0  0  0  0  0  0  0  0  0
   60.6008   33.4373   45.5062 H   0  0  0  0  0  0  0  0  0  0  0  0
   63.1857   33.3358   45.8977 H   0  0  0  0  0  0  0  0  0  0  0  0
   62.2766   34.8165   46.4038 H   0  0  0  0  0  0  0  0  0  0  0  0
   62.8265   31.5212   47.5235 H   0  0  0  0  0  0  0  0  0  0  0  0
   64.3857   32.0779   48.2365 H   0  0  0  0  0  0  0  0  0  0  0  0
   61.1000   31.2230   50.8170 H   0  0  0  0  0  0  0  0  0  0  0  0
   60.7400   31.5200   49.0800 H   0  0  0  0  0  0  0  0  0  0  0  0
   62.0242   33.5151   49.8824 H   0  0  0  0  0  0  0  0  0  0  0  0
   62.3285   35.1811   49.1838 H   0  0  0  0  0  0  0  0  0  0  0  0
   59.8596   34.1575   49.3747 H   0  0  0  0  0  0  0  0  0  0  0  0
   60.3817   35.2136   48.0071 H   0  0  0  0  0  0  0  0  0  0  0  0
   58.9741   33.4789   45.2605 H   0  0  0  0  0  0  0  0  0  0  0  0
   59.0675   33.3640   43.0618 H   0  0  0  0  0  0  0  0  0  0  0  0
   58.1276   31.8334   43.0342 H   0  0  0  0  0  0  0  0  0  0  0  0
   57.2721   33.4129   43.0342 H   0  0  0  0  0  0  0  0  0  0  0  0
   56.9283   33.4844   46.6333 H   0  0  0  0  0  0  0  0  0  0  0  0
   56.8161   34.5585   45.1978 H   0  0  0  0  0  0  0  0  0  0  0  0
   55.9794   32.9689   45.1978 H   0  0  0  0  0  0  0  0  0  0  0  0
  1  2  2  0
  2  3  1  0
  3  4  2  3
  4  5  1  0
  5  6  1  0
  6  7  1  0
  7  8  2  0
  7  9  1  0
  9 10  1  0
 10 11  1  0
  3 12  1  0
 12 13  2  0
 13 14  1  0
 14 15  2  0
 14 16  1  0
 16 17  1  0
 17 18  1  0
 18 19  1  0
 19 20  1  0
 20 21  1  0
 21 22  1  0
 21 23  2  0
 19 24  1  0
 24 25  1  0
 13 26  1  0
 26 27  1  0
 27 28  1  0
 27 29  1  0
 26  2  1  0
 10  5  2  0
 25 16  1  0
  1 30  1  0
  1 31  1  0
  4 32  1  0
 12 33  1  0
 17 34  1  0
 17 35  1  0
 18 36  1  0
 18 37  1  0
 20 38  1  0
 20 39  1  0
 22 40  1  0
 22 41  1  0
 24 42  1  0
 24 43  1  0
 25 44  1  0
 25 45  1  0
 27 46  1  0
 28 47  1  0
 28 48  1  0
 28 49  1  0
 29 50  1  0
 29 51  1  0
 29 52  1  0
M  CHG  3   6  -1   9  -1  11  -1
M  END
>  <UniqueID>  (70) 
68

>  <SMILES>  (70) 
C=c1c(=Cc2[n-]c(=O)[n-]c2[O-])cc(C(=O)N2CCN(CC(N)=O)CC2)n1C(C)C

>  <Energy>  (70) 
134.231155932837

>  <Genealogy>  (70) 
C=c1c(=Cc2[n-]c(=O)[n-]c2[O-])cc(C(=O)N2CCN(CC(N)=O)CC2)n1C(C)C (protonated)
C=c1c(=Cc2[n-]c(=O)[n-]c2[O-])cc(C(=O)N2CCN(CC(N)=O)CC2)n1C(C)C (3D coordinates assigned)
C=c1c(=Cc2[n-]c(=O)[n-]c2[O-])cc(C(=O)N2CCN(CC(N)=O)CC2)n1C(C)C (nonaromatic ring conformer: 134.231155932837 kcal/mol)

>  <smiles>  (70) 
C=c1c(=Cc2[nH]c(=O)[nH]c2O)cc(C(=O)N2CCN(CC(N)=O)CC2)n1C(C)C

>  <score_type>  (70) 
oracle

>  <origin>  (70) 
adg

>  <m_score__min__energy>  (70) 
-15.67

>  <m_primary>  (70) 
energy

$$$$
70:0
     RDKit          3D

 54 59  0  0  0  0  0  0  0  0999 V2000
   57.9800   34.9540   52.3700 O   0  0  0  0  0  0  0  0  0  0  0  0
   58.3770   33.3230   52.3260 S   0  0  0  0  0  0  0  0  0  0  0  0
   59.5470   32.9600   53.5320 C   0  0  0  0  0  0  0  0  0  0  0  0
   59.4390   33.0420   54.9180 C   0  0  0  0  0  0  0  0  0  0  0  0
   60.5510   32.6680   55.6900 C   0  0  0  0  0  0  0  0  0  0  0  0
   61.7310   32.2180   55.0630 C   0  0  0  0  0  0  0  0  0  0  0  0
   61.8000   32.1340   53.6620 C   0  0  0  0  0  0  0  0  0  0  0  0
   60.6820   32.5080   52.9160 C   0  0  0  0  0  0  0  0  0  0  0  0
   60.5870   32.4630   51.5260 O   0  0  0  0  0  0  0  0  0  0  0  0
   59.3980   32.9150   50.9620 N   0  0  0  0  0  0  0  0  0  0  0  0
   59.6620   34.0640   50.0710 C   0  0  0  0  0  0  0  0  0  0  0  0
   59.5140   33.7630   48.5880 C   0  0  0  0  0  0  0  0  0  0  0  0
   60.0900   34.6130   47.6280 C   0  0  0  0  0  0  0  0  0  0  0  0
   59.9330   34.3520   46.2650 C   0  0  0  0  0  0  0  0  0  0  0  0
   59.1670   33.2650   45.8430 C   0  0  0  0  0  0  0  0  0  0  0  0
   58.5290   32.4450   46.7780 C   0  0  0  0  0  0  0  0  0  0  0  0
   57.7220   31.3950   46.3140 O   0  0  0  0  0  0  0  0  0  0  0  0
   58.1960   30.2260   45.6990 C   0  0  0  0  0  0  0  0  0  0  0  0
   57.3770   29.6030   44.7490 C   0  0  0  0  0  0  0  0  0  0  0  0
   57.8140   28.4620   44.0750 C   0  0  0  0  0  0  0  0  0  0  0  0
   59.0720   27.9240   44.3510 C   0  0  0  0  0  0  0  0  0  0  0  0
   59.8890   28.5150   45.3170 C   0  0  0  0  0  0  0  0  0  0  0  0
   59.4560   29.6550   46.0160 C   0  0  0  0  0  0  0  0  0  0  0  0
   60.3190   30.2170   47.0790 C   0  0  0  0  0  0  0  0  0  0  0  0
   59.9580   30.0900   48.4470 C   0  0  0  0  0  0  0  0  0  0  0  0
   60.7140   30.6740   49.4250 N   0  0  0  0  0  0  0  0  0  0  0  0
   61.8210   31.3750   49.0720 C   0  0  0  0  0  0  0  0  0  0  0  0
   62.6480   32.0270   49.9040 N   0  0  0  0  0  0  0  0  0  0  0  0
   63.5880   32.5890   49.1080 C   0  0  0  0  0  0  0  0  0  0  0  0
   63.3490   32.2880   47.7670 C   0  0  0  0  0  0  0  0  0  0  0  0
   62.2130   31.5090   47.7730 C   0  0  0  0  0  0  0  0  0  0  0  0
   61.4880   30.9310   46.7390 C   0  0  0  0  0  0  0  0  0  0  0  0
   58.7160   32.6910   48.1510 C   0  0  0  0  0  0  0  0  0  0  0  0
   58.4960   35.3550   51.6270 H   0  0  0  0  0  0  0  0  0  0  0  0
   58.5102   33.3894   55.3940 H   0  0  0  0  0  0  0  0  0  0  0  0
   60.5012   32.7263   56.7873 H   0  0  0  0  0  0  0  0  0  0  0  0
   62.6006   31.9317   55.6727 H   0  0  0  0  0  0  0  0  0  0  0  0
   62.7154   31.7811   53.1644 H   0  0  0  0  0  0  0  0  0  0  0  0
   58.9570   34.8678   50.3298 H   0  0  0  0  0  0  0  0  0  0  0  0
   60.7138   34.3448   50.2283 H   0  0  0  0  0  0  0  0  0  0  0  0
   60.6687   35.4903   47.9527 H   0  0  0  0  0  0  0  0  0  0  0  0
   60.4145   35.0051   45.5223 H   0  0  0  0  0  0  0  0  0  0  0  0
   59.0646   33.0521   44.7687 H   0  0  0  0  0  0  0  0  0  0  0  0
   56.3810   30.0166   44.5324 H   0  0  0  0  0  0  0  0  0  0  0  0
   57.1658   27.9856   43.3247 H   0  0  0  0  0  0  0  0  0  0  0  0
   59.4202   27.0336   43.8070 H   0  0  0  0  0  0  0  0  0  0  0  0
   60.8784   28.0854   45.5325 H   0  0  0  0  0  0  0  0  0  0  0  0
   59.0610   29.5159   48.7223 H   0  0  0  0  0  0  0  0  0  0  0  0
   60.4350   30.5890   50.4280 H   0  0  0  0  0  0  0  0  0  0  0  0
   62.5800   32.0930   50.9430 H   0  0  0  0  0  0  0  0  0  0  0  0
   64.4274   33.2008   49.4701 H   0  0  0  0  0  0  0  0  0  0  0  0
   63.9394   32.6041   46.8944 H   0  0  0  0  0  0  0  0  0  0  0  0
   61.8132   31.0263   45.6925 H   0  0  0  0  0  0  0  0  0  0  0  0
   58.2321   32.0368   48.8911 H   0  0  0  0  0  0  0  0  0  0  0  0
  2  1  1  6
  2  3  1  0
  3  4  2  0
  4  5  1  0
  5  6  2  0
  6  7  1  0
  7  8  2  0
  8  9  1  0
  9 10  1  0
 10 11  1  0
 11 12  1  0
 12 13  2  0
 13 14  1  0
 14 15  2  0
 15 16  1  0
 16 17  1  0
 17 18  1  0
 18 19  2  0
 19 20  1  0
 20 21  2  0
 21 22  1  0
 22 23  2  0
 23 24  1  0
 24 25  2  0
 25 26  1  0
 26 27  2  0
 27 28  1  0
 28 29  1  0
 29 30  2  0
 30 31  1  0
 31 32  2  0
 16 33  2  0
 10  2  1  0
 33 12  1  0
  8  3  1  0
 23 18  1  0
 32 24  1  0
 31 27  1  0
  1 34  1  0
  4 35  1  0
  5 36  1  0
  6 37  1  0
  7 38  1  0
 11 39  1  0
 11 40  1  0
 13 41  1  0
 14 42  1  0
 15 43  1  0
 19 44  1  0
 20 45  1  0
 21 46  1  0
 22 47  1  0
 25 48  1  0
 26 49  1  0
 28 50  1  0
 29 51  1  0
 30 52  1  0
 32 53  1  0
 33 54  1  0
M  CHG  2   2   1  26   1
M  END
>  <UniqueID>  (71) 
69

>  <SMILES>  (71) 
O[S@+]1c2ccccc2ON1Cc1cccc(Oc2ccccc2-c2c[nH+]c3[nH]ccc3c2)c1

>  <Energy>  (71) 
129.8326755801566

>  <Genealogy>  (71) 
O[S+]1c2ccccc2ON1Cc1cccc(Oc2ccccc2-c2c[nH+]c3[nH]ccc3c2)c1 (protonated)
O[S@+]1c2ccccc2ON1Cc1cccc(Oc2ccccc2-c2c[nH+]c3[nH]ccc3c2)c1 (chirality)
O[S@+]1c2ccccc2ON1Cc1cccc(Oc2ccccc2-c2c[nH+]c3[nH]ccc3c2)c1 (3D coordinates assigned)
O[S@+]1c2ccccc2ON1Cc1cccc(Oc2ccccc2-c2c[nH+]c3[nH]ccc3c2)c1 (nonaromatic ring conformer: 129.8326755801566 kcal/mol)

>  <smiles>  (71) 
[O-][S+]1c2ccccc2ON1Cc1cccc(Oc2ccccc2-c2cnc3[nH]ccc3c2)c1

>  <score_type>  (71) 
oracle

>  <origin>  (71) 
adg

>  <m_score__min__energy>  (71) 
-7.8300000000000001

>  <m_primary>  (71) 
energy

$$$$
71:0
     RDKit          3D

 36 37  0  0  0  0  0  0  0  0999 V2000
   55.7313   30.4869   52.7246 H   0  0  0  0  0  0  0  0  0  0  0  0
   56.2090   31.1290   51.9700 C   0  0  0  0  0  0  0  0  0  0  0  0
   55.6369   31.4663   51.0931 H   0  0  0  0  0  0  0  0  0  0  0  0
   57.4800   31.4980   52.1180 C   0  0  0  0  0  0  0  0  0  0  0  0
   58.0267   31.1452   53.0049 H   0  0  0  0  0  0  0  0  0  0  0  0
   58.1910   32.3560   51.1520 C   0  0  0  0  0  0  0  0  0  0  0  0
   58.5490   33.5070   51.5210 O   0  0  0  0  0  0  0  0  0  0  0  0
   58.5270   31.8880   49.8340 N   0  0  0  0  0  0  0  0  0  0  0  0
   58.6690   30.8620   49.6960 H   0  0  0  0  0  0  0  0  0  0  0  0
   58.8350   32.7610   48.7340 C   0  0  0  0  0  0  0  0  0  0  0  0
   59.9070   33.6600   48.8450 C   0  0  0  0  0  0  0  0  0  0  0  0
   60.4904   33.7010   49.7766 H   0  0  0  0  0  0  0  0  0  0  0  0
   60.2390   34.5030   47.7820 C   0  0  0  0  0  0  0  0  0  0  0  0
   61.0733   35.2127   47.8836 H   0  0  0  0  0  0  0  0  0  0  0  0
   59.5130   34.4460   46.5900 C   0  0  0  0  0  0  0  0  0  0  0  0
   59.7716   35.1170   45.7576 H   0  0  0  0  0  0  0  0  0  0  0  0
   58.4570   33.5370   46.4520 C   0  0  0  0  0  0  0  0  0  0  0  0
   57.5750   33.4450   44.9310 S   0  0  0  0  0  0  0  0  0  0  0  0
   56.6370   34.6120   44.7830 O   0  0  0  0  0  0  0  0  0  0  0  0
   58.5620   33.4690   43.7980 O   0  0  0  0  0  0  0  0  0  0  0  0
   56.6640   31.9680   44.8560 N   0  0  0  0  0  0  0  0  0  0  0  0
   57.1430   30.7570   44.8940 C   0  0  0  0  0  0  0  0  0  0  0  0
   56.2670   29.7160   44.9270 N   0  0  0  0  0  0  0  0  0  0  0  0
   56.6770   28.4220   44.9550 C   0  0  0  0  0  0  0  0  0  0  0  0
   55.9342   27.6111   44.9809 H   0  0  0  0  0  0  0  0  0  0  0  0
   58.0390   28.1190   44.9510 C   0  0  0  0  0  0  0  0  0  0  0  0
   58.3741   27.0713   44.9588 H   0  0  0  0  0  0  0  0  0  0  0  0
   58.9750   29.1590   44.9370 C   0  0  0  0  0  0  0  0  0  0  0  0
   60.4440   28.8570   44.8930 C   0  0  0  0  0  0  0  0  0  0  0  0
   60.8328   28.7771   45.9189 H   0  0  0  0  0  0  0  0  0  0  0  0
   60.6072   27.9065   44.3639 H   0  0  0  0  0  0  0  0  0  0  0  0
   60.9690   29.6660   44.3639 H   0  0  0  0  0  0  0  0  0  0  0  0
   58.5270   30.4870   44.8950 C   0  0  0  0  0  0  0  0  0  0  0  0
   59.2516   31.3140   44.8630 H   0  0  0  0  0  0  0  0  0  0  0  0
   58.1210   32.6940   47.5230 C   0  0  0  0  0  0  0  0  0  0  0  0
   57.2943   31.9764   47.4150 H   0  0  0  0  0  0  0  0  0  0  0  0
  1  2  1  0
  2  3  1  0
  2  4  2  0
  4  5  1  0
  4  6  1  0
  6  7  2  0
  6  8  1  0
  8  9  1  0
  8 10  1  0
 10 11  2  0
 11 12  1  0
 11 13  1  0
 13 14  1  0
 13 15  2  0
 15 16  1  0
 15 17  1  0
 17 18  1  0
 18 19  2  0
 18 20  2  0
 18 21  1  0
 21 22  2  0
 22 23  1  0
 23 24  1  0
 24 25  1  0
 24 26  2  0
 26 27  1  0
 26 28  1  0
 28 29  1  0
 29 30  1  0
 29 31  1  0
 29 32  1  0
 28 33  2  0
 33 34  1  0
 17 35  2  0
 35 36  1  0
 35 10  1  0
 33 22  1  0
M  CHG  1  23  -1
M  END
>  <UniqueID>  (72) 
70

>  <SMILES>  (72) 
C=CC(=O)Nc1cccc(S(=O)(=O)/N=c2\cc(C)cc[n-]2)c1

>  <Energy>  (72) 
43.885883264844146

>  <Genealogy>  (72) 
C=CC(=O)Nc1cccc(S(=O)(=O)N=c2cc(C)cc[n-]2)c1 (protonated)
C=CC(=O)Nc1cccc(S(=O)(=O)/N=c2\cc(C)cc[n-]2)c1 (cis-trans isomerization)
C=CC(=O)Nc1cccc(S(=O)(=O)/N=c2\cc(C)cc[n-]2)c1 (3D coordinates assigned)
C=CC(=O)Nc1cccc(S(=O)(=O)/N=c2\cc(C)cc[n-]2)c1 (optimized conformer: 43.885883264844146 kcal/mol)

>  <smiles>  (72) 
C=CC(=O)Nc1cccc(S(=O)(=O)N=c2cc(C)cc[nH]2)c1

>  <score_type>  (72) 
oracle

>  <origin>  (72) 
adg

>  <m_score__min__energy>  (72) 
-10.07

>  <m_primary>  (72) 
energy

$$$$
72:0
     RDKit          3D

 59 62  0  0  0  0  0  0  0  0999 V2000
   57.2930   29.2600   43.2240 C   0  0  0  0  0  0  0  0  0  0  0  0
   57.8730   29.9840   44.1940 C   0  0  0  0  0  0  0  0  0  0  0  0
   58.2910   29.5290   45.4560 C   0  0  0  0  0  0  0  0  0  0  0  0
   58.4210   28.2810   45.9490 C   0  0  0  0  0  0  0  0  0  0  0  0
   57.3590   27.2650   46.0060 C   0  0  0  0  0  0  0  0  0  0  0  0
   57.4850   26.0550   46.5810 N   0  0  0  0  0  0  0  0  0  0  0  0
   56.2350   25.5460   46.5140 C   0  0  0  0  0  0  0  0  0  0  0  0
   55.9450   24.4000   46.9460 O   0  0  0  0  0  0  0  0  0  0  0  0
   55.3180   26.3690   45.9610 N   0  0  0  0  0  0  0  0  0  0  0  0
   56.0440   27.4570   45.6590 C   0  0  0  0  0  0  0  0  0  0  0  0
   55.5150   28.6040   45.0820 O   0  0  0  0  0  0  0  0  0  0  0  0
   58.6060   30.6590   46.1890 C   0  0  0  0  0  0  0  0  0  0  0  0
   58.4220   31.7420   45.3570 C   0  0  0  0  0  0  0  0  0  0  0  0
   58.6650   33.1400   45.7590 C   0  0  0  0  0  0  0  0  0  0  0  0
   58.1340   34.0670   45.0920 O   0  0  0  0  0  0  0  0  0  0  0  0
   59.5230   33.4580   46.8700 N   0  0  0  0  0  0  0  0  0  0  0  0
   59.3490   34.7220   47.5900 C   0  0  0  0  0  0  0  0  0  0  0  0
   59.8710   34.5670   49.0220 C   0  0  0  0  0  0  0  0  0  0  0  0
   61.3000   34.1560   49.0740 N   0  0  0  0  0  0  0  0  0  0  0  0
   61.6020   33.4030   50.3110 C   0  0  0  0  0  0  0  0  0  0  0  0
   60.6790   32.2190   50.4590 C   0  0  0  0  0  0  0  0  0  0  0  0
   61.0660   30.9520   50.0010 C   0  0  0  0  0  0  0  0  0  0  0  0
   60.1930   29.8680   50.1120 C   0  0  0  0  0  0  0  0  0  0  0  0
   58.9300   30.0380   50.6830 C   0  0  0  0  0  0  0  0  0  0  0  0
   58.5250   31.3000   51.1560 C   0  0  0  0  0  0  0  0  0  0  0  0
   57.1820   31.5000   51.7520 C   0  0  0  0  0  0  0  0  0  0  0  0
   56.8700   32.6370   52.2040 O   0  0  0  0  0  0  0  0  0  0  0  0
   56.2370   30.4220   51.8420 N   0  0  0  0  0  0  0  0  0  0  0  0
   54.8690   30.6430   52.2930 C   0  0  0  0  0  0  0  0  0  0  0  0
   59.4060   32.3900   51.0270 C   0  0  0  0  0  0  0  0  0  0  0  0
   61.7770   33.4310   47.8680 C   0  0  0  0  0  0  0  0  0  0  0  0
   60.6750   32.6060   47.1910 C   0  0  0  0  0  0  0  0  0  0  0  0
   58.0030   31.3350   44.1350 N   0  0  0  0  0  0  0  0  0  0  0  0
   57.7580   32.1820   42.9630 C   0  0  0  0  0  0  0  0  0  0  0  0
   57.0112   29.7384   42.2744 H   0  0  0  0  0  0  0  0  0  0  0  0
   57.0994   28.1883   43.3786 H   0  0  0  0  0  0  0  0  0  0  0  0
   59.4080   27.9976   46.3433 H   0  0  0  0  0  0  0  0  0  0  0  0
   58.9399   30.6877   47.2367 H   0  0  0  0  0  0  0  0  0  0  0  0
   59.9117   35.5166   47.0781 H   0  0  0  0  0  0  0  0  0  0  0  0
   58.2818   34.9875   47.6143 H   0  0  0  0  0  0  0  0  0  0  0  0
   59.7634   35.5307   49.5414 H   0  0  0  0  0  0  0  0  0  0  0  0
   59.2809   33.7745   49.5054 H   0  0  0  0  0  0  0  0  0  0  0  0
   62.6418   33.0463   50.2708 H   0  0  0  0  0  0  0  0  0  0  0  0
   61.4581   34.0709   51.1731 H   0  0  0  0  0  0  0  0  0  0  0  0
   62.0606   30.8113   49.5527 H   0  0  0  0  0  0  0  0  0  0  0  0
   60.5012   28.8766   49.7484 H   0  0  0  0  0  0  0  0  0  0  0  0
   58.2470   29.1795   50.7636 H   0  0  0  0  0  0  0  0  0  0  0  0
   56.5330   29.4440   51.6290 H   0  0  0  0  0  0  0  0  0  0  0  0
   54.8417   30.6474   53.3927 H   0  0  0  0  0  0  0  0  0  0  0  0
   54.5096   31.6108   51.9134 H   0  0  0  0  0  0  0  0  0  0  0  0
   54.2231   29.8375   51.9134 H   0  0  0  0  0  0  0  0  0  0  0  0
   59.0943   33.3860   51.3746 H   0  0  0  0  0  0  0  0  0  0  0  0
   62.1589   34.1666   47.1447 H   0  0  0  0  0  0  0  0  0  0  0  0
   62.5604   32.7306   48.1930 H   0  0  0  0  0  0  0  0  0  0  0  0
   61.0698   32.1654   46.2636 H   0  0  0  0  0  0  0  0  0  0  0  0
   60.3507   31.8109   47.8785 H   0  0  0  0  0  0  0  0  0  0  0  0
   57.4665   33.1899   43.2935 H   0  0  0  0  0  0  0  0  0  0  0  0
   58.6747   32.2453   42.3583 H   0  0  0  0  0  0  0  0  0  0  0  0
   56.9491   31.7461   42.3583 H   0  0  0  0  0  0  0  0  0  0  0  0
  1  2  2  0
  2  3  1  0
  3  4  2  3
  4  5  1  0
  5  6  1  0
  6  7  1  0
  7  8  2  0
  7  9  1  0
  9 10  1  0
 10 11  1  0
  3 12  1  0
 12 13  2  0
 13 14  1  0
 14 15  2  0
 14 16  1  0
 16 17  1  0
 17 18  1  0
 18 19  1  0
 19 20  1  0
 20 21  1  0
 21 22  2  0
 22 23  1  0
 23 24  2  0
 24 25  1  0
 25 26  1  0
 26 27  2  0
 26 28  1  0
 28 29  1  0
 25 30  2  0
 19 31  1  0
 31 32  1  0
 13 33  1  0
 33 34  1  0
 33  2  1  0
 10  5  2  0
 32 16  1  0
 30 21  1  0
  1 35  1  0
  1 36  1  0
  4 37  1  0
 12 38  1  0
 17 39  1  0
 17 40  1  0
 18 41  1  0
 18 42  1  0
 20 43  1  0
 20 44  1  0
 22 45  1  0
 23 46  1  0
 24 47  1  0
 28 48  1  0
 29 49  1  0
 29 50  1  0
 29 51  1  0
 30 52  1  0
 31 53  1  0
 31 54  1  0
 32 55  1  0
 32 56  1  0
 34 57  1  0
 34 58  1  0
 34 59  1  0
M  CHG  3   6  -1   9  -1  11  -1
M  END
>  <UniqueID>  (73) 
71

>  <SMILES>  (73) 
C=c1c(=Cc2[n-]c(=O)[n-]c2[O-])cc(C(=O)N2CCN(Cc3cccc(C(=O)NC)c3)CC2)n1C

>  <Energy>  (73) 
143.26371286080752

>  <Genealogy>  (73) 
C=c1c(=Cc2[n-]c(=O)[n-]c2[O-])cc(C(=O)N2CCN(Cc3cccc(C(=O)NC)c3)CC2)n1C (protonated)
C=c1c(=Cc2[n-]c(=O)[n-]c2[O-])cc(C(=O)N2CCN(Cc3cccc(C(=O)NC)c3)CC2)n1C (3D coordinates assigned)
C=c1c(=Cc2[n-]c(=O)[n-]c2[O-])cc(C(=O)N2CCN(Cc3cccc(C(=O)NC)c3)CC2)n1C (nonaromatic ring conformer: 143.26371286080752 kcal/mol)

>  <smiles>  (73) 
C=c1c(=Cc2[nH]c(=O)[nH]c2O)cc(C(=O)N2CCN(Cc3cccc(C(=O)NC)c3)CC2)n1C

>  <score_type>  (73) 
oracle

>  <origin>  (73) 
adg

>  <m_score__min__energy>  (73) 
-18.77

>  <m_primary>  (73) 
energy

$$$$
73:0
     RDKit          3D

 42 44  0  0  0  0  0  0  0  0999 V2000
   57.8340   31.9250   43.1890 C   0  0  0  0  0  0  0  0  0  0  0  0
   58.0580   30.8960   44.0170 C   0  0  0  0  0  0  0  0  0  0  0  0
   57.4190   30.7400   45.3800 C   0  0  0  0  0  0  0  0  0  0  0  0
   58.2320   29.9390   46.3290 N   0  0  0  0  0  0  0  0  0  0  0  0
   59.2050   30.5930   47.0550 C   0  0  0  0  0  0  0  0  0  0  0  0
   59.3460   32.0200   47.0060 N   0  0  0  0  0  0  0  0  0  0  0  0
   60.5850   32.5960   46.4810 C   0  0  0  0  0  0  0  0  0  0  0  0
   60.6270   34.1140   46.7170 C   0  0  0  0  0  0  0  0  0  0  0  0
   59.3530   34.7740   46.3540 N   0  0  0  0  0  0  0  0  0  0  0  0
   59.2310   34.9510   44.8980 C   0  0  0  0  0  0  0  0  0  0  0  0
   58.1350   34.1480   46.9380 C   0  0  0  0  0  0  0  0  0  0  0  0
   58.4110   32.8690   47.7410 C   0  0  0  0  0  0  0  0  0  0  0  0
   60.0760   29.8980   47.8240 N   0  0  0  0  0  0  0  0  0  0  0  0
   60.0280   28.5560   47.9300 C   0  0  0  0  0  0  0  0  0  0  0  0
   60.8810   27.9670   48.6490 O   0  0  0  0  0  0  0  0  0  0  0  0
   59.0320   27.8430   47.2560 C   0  0  0  0  0  0  0  0  0  0  0  0
   58.9610   26.4420   47.3680 C   0  0  0  0  0  0  0  0  0  0  0  0
   57.9550   25.7350   46.7240 C   0  0  0  0  0  0  0  0  0  0  0  0
   56.9920   26.4110   45.9860 C   0  0  0  0  0  0  0  0  0  0  0  0
   57.0270   27.8080   45.8620 C   0  0  0  0  0  0  0  0  0  0  0  0
   55.9780   28.4150   45.1730 O   0  0  0  0  0  0  0  0  0  0  0  0
   58.0890   28.5610   46.4630 C   0  0  0  0  0  0  0  0  0  0  0  0
   58.3388   31.9651   42.2125 H   0  0  0  0  0  0  0  0  0  0  0  0
   57.1453   32.7298   43.4856 H   0  0  0  0  0  0  0  0  0  0  0  0
   58.7533   30.1115   43.6837 H   0  0  0  0  0  0  0  0  0  0  0  0
   57.2683   31.7411   45.8101 H   0  0  0  0  0  0  0  0  0  0  0  0
   56.4714   30.2013   45.2324 H   0  0  0  0  0  0  0  0  0  0  0  0
   61.4424   32.1289   46.9877 H   0  0  0  0  0  0  0  0  0  0  0  0
   60.6292   32.4073   45.3982 H   0  0  0  0  0  0  0  0  0  0  0  0
   60.8316   34.3010   47.7815 H   0  0  0  0  0  0  0  0  0  0  0  0
   61.4174   34.5325   46.0766 H   0  0  0  0  0  0  0  0  0  0  0  0
   58.6184   35.8398   44.6868 H   0  0  0  0  0  0  0  0  0  0  0  0
   60.2312   35.0824   44.4595 H   0  0  0  0  0  0  0  0  0  0  0  0
   58.7522   34.0630   44.4595 H   0  0  0  0  0  0  0  0  0  0  0  0
   57.6575   34.8794   47.6067 H   0  0  0  0  0  0  0  0  0  0  0  0
   57.4909   33.8598   46.0942 H   0  0  0  0  0  0  0  0  0  0  0  0
   58.8468   33.1354   48.7152 H   0  0  0  0  0  0  0  0  0  0  0  0
   57.4678   32.3245   47.8957 H   0  0  0  0  0  0  0  0  0  0  0  0
   59.7078   25.9035   47.9700 H   0  0  0  0  0  0  0  0  0  0  0  0
   57.9204   24.6381   46.7982 H   0  0  0  0  0  0  0  0  0  0  0  0
   56.1903   25.8428   45.4916 H   0  0  0  0  0  0  0  0  0  0  0  0
   55.1420   27.9090   44.9070 H   0  0  0  0  0  0  0  0  0  0  0  0
  1  2  2  0
  2  3  1  0
  3  4  1  0
  4  5  1  0
  5  6  1  0
  6  7  1  0
  7  8  1  0
  8  9  1  0
  9 10  1  0
  9 11  1  0
 11 12  1  0
  5 13  2  0
 13 14  1  0
 14 15  2  0
 14 16  1  0
 16 17  2  0
 17 18  1  0
 18 19  2  0
 19 20  1  0
 20 21  1  0
 20 22  2  0
 22  4  1  0
 12  6  1  0
 22 16  1  0
  1 23  1  0
  1 24  1  0
  2 25  1  0
  3 26  1  0
  3 27  1  0
  7 28  1  0
  7 29  1  0
  8 30  1  0
  8 31  1  0
 10 32  1  0
 10 33  1  0
 10 34  1  0
 11 35  1  0
 11 36  1  0
 12 37  1  0
 12 38  1  0
 17 39  1  0
 18 40  1  0
 19 41  1  0
 21 42  1  0
M  END
>  <UniqueID>  (74) 
72

>  <SMILES>  (74) 
C=CCn1c(N2CCN(C)CC2)nc(=O)c2cccc(O)c21

>  <Energy>  (74) 
71.57371650389204

>  <Genealogy>  (74) 
C=CCn1c(N2CCN(C)CC2)nc(=O)c2cccc(O)c21 (3D coordinates assigned)
C=CCn1c(N2CCN(C)CC2)nc(=O)c2cccc(O)c21 (nonaromatic ring conformer: 71.57371650389204 kcal/mol)

>  <smiles>  (74) 
C=CCn1c(N2CCN(C)CC2)nc(=O)c2cccc(O)c21

>  <score_type>  (74) 
oracle

>  <origin>  (74) 
adg

>  <m_score__min__energy>  (74) 
-7.5800000000000001

>  <m_primary>  (74) 
energy

$$$$
74:0
     RDKit          3D

 44 46  0  0  0  0  0  0  0  0999 V2000
   55.4940   23.6540   47.0320 C   0  0  0  0  0  0  0  0  0  0  0  0
   56.0990   24.9690   45.9960 S   0  0  0  0  0  0  0  0  0  0  0  0
   56.2170   24.4530   44.5890 O   0  0  0  0  0  0  0  0  0  0  0  0
   55.1420   26.1280   46.0040 O   0  0  0  0  0  0  0  0  0  0  0  0
   57.6660   25.4850   46.5360 N   0  0  0  0  0  0  0  0  0  0  0  0
   58.4060   26.5820   45.9670 C   0  0  0  0  0  0  0  0  0  0  0  0
   59.7850   26.7510   46.1910 C   0  0  0  0  0  0  0  0  0  0  0  0
   60.4640   27.8330   45.6280 C   0  0  0  0  0  0  0  0  0  0  0  0
   59.7820   28.7580   44.8370 C   0  0  0  0  0  0  0  0  0  0  0  0
   58.4080   28.6070   44.5980 C   0  0  0  0  0  0  0  0  0  0  0  0
   57.6690   29.6140   43.7540 C   0  0  0  0  0  0  0  0  0  0  0  0
   56.7970   30.4890   44.6110 C   0  0  0  0  0  0  0  0  0  0  0  0
   55.5540   30.4850   44.4110 O   0  0  0  0  0  0  0  0  0  0  0  0
   57.3240   31.3610   45.6210 N   0  0  0  0  0  0  0  0  0  0  0  0
   58.0460   32.6210   45.4280 C   0  0  0  0  0  0  0  0  0  0  0  0
   59.4270   32.6260   46.0670 C   0  0  0  0  0  0  0  0  0  0  0  0
   59.9630   31.5080   46.7390 C   0  0  0  0  0  0  0  0  0  0  0  0
   61.2200   31.5820   47.3470 C   0  0  0  0  0  0  0  0  0  0  0  0
   61.9540   32.7690   47.3050 C   0  0  0  0  0  0  0  0  0  0  0  0
   63.6630   32.8690   48.1510 Br  0  0  0  0  0  0  0  0  0  0  0  0
   61.4290   33.8880   46.6530 C   0  0  0  0  0  0  0  0  0  0  0  0
   60.1740   33.8190   46.0420 C   0  0  0  0  0  0  0  0  0  0  0  0
   57.8410   33.2300   44.0470 C   0  0  0  0  0  0  0  0  0  0  0  0
   57.0350   34.2700   44.5450 O   0  0  0  0  0  0  0  0  0  0  0  0
   57.1890   33.8000   45.8610 C   0  0  0  0  0  0  0  0  0  0  0  0
   57.7250   27.5230   45.1750 C   0  0  0  0  0  0  0  0  0  0  0  0
   55.6217   23.9315   48.0887 H   0  0  0  0  0  0  0  0  0  0  0  0
   54.4273   23.4843   46.8237 H   0  0  0  0  0  0  0  0  0  0  0  0
   56.0592   22.7336   46.8237 H   0  0  0  0  0  0  0  0  0  0  0  0
   58.0570   24.9940   47.3710 H   0  0  0  0  0  0  0  0  0  0  0  0
   60.3309   26.0265   46.8132 H   0  0  0  0  0  0  0  0  0  0  0  0
   61.5419   27.9569   45.8089 H   0  0  0  0  0  0  0  0  0  0  0  0
   60.3239   29.6092   44.3990 H   0  0  0  0  0  0  0  0  0  0  0  0
   58.3977   30.2422   43.2208 H   0  0  0  0  0  0  0  0  0  0  0  0
   57.0325   29.0748   43.0370 H   0  0  0  0  0  0  0  0  0  0  0  0
   59.3882   30.5712   46.7852 H   0  0  0  0  0  0  0  0  0  0  0  0
   61.6324   30.7011   47.8607 H   0  0  0  0  0  0  0  0  0  0  0  0
   62.0046   34.8248   46.6206 H   0  0  0  0  0  0  0  0  0  0  0  0
   59.7655   34.7063   45.5362 H   0  0  0  0  0  0  0  0  0  0  0  0
   58.7732   33.5835   43.5822 H   0  0  0  0  0  0  0  0  0  0  0  0
   57.4472   32.5941   43.2404 H   0  0  0  0  0  0  0  0  0  0  0  0
   57.7178   34.5063   46.5179 H   0  0  0  0  0  0  0  0  0  0  0  0
   56.2883   33.6063   46.4620 H   0  0  0  0  0  0  0  0  0  0  0  0
   56.6442   27.4093   45.0049 H   0  0  0  0  0  0  0  0  0  0  0  0
  1  2  1  0
  2  3  2  0
  2  4  2  0
  2  5  1  0
  5  6  1  0
  6  7  2  0
  7  8  1  0
  8  9  2  0
  9 10  1  0
 10 11  1  0
 11 12  1  0
 12 13  2  0
 12 14  1  0
 14 15  1  0
 15 16  1  0
 16 17  2  0
 17 18  1  0
 18 19  2  0
 19 20  1  0
 19 21  1  0
 21 22  2  0
 15 23  1  0
 23 24  1  0
 24 25  1  0
 10 26  2  0
 26  6  1  0
 25 15  1  0
 22 16  1  0
  1 27  1  0
  1 28  1  0
  1 29  1  0
  5 30  1  0
  7 31  1  0
  8 32  1  0
  9 33  1  0
 11 34  1  0
 11 35  1  0
 17 36  1  0
 18 37  1  0
 21 38  1  0
 22 39  1  0
 23 40  1  0
 23 41  1  0
 25 42  1  0
 25 43  1  0
 26 44  1  0
M  CHG  1  14  -1
M  END
>  <UniqueID>  (75) 
73

>  <SMILES>  (75) 
CS(=O)(=O)Nc1cccc(CC(=O)[N-]C2(c3ccc(Br)cc3)COC2)c1

>  <Energy>  (75) 
109.463598394062

>  <Genealogy>  (75) 
CS(=O)(=O)Nc1cccc(CC(=O)[N-]C2(c3ccc(Br)cc3)COC2)c1 (protonated)
CS(=O)(=O)Nc1cccc(CC(=O)[N-]C2(c3ccc(Br)cc3)COC2)c1 (3D coordinates assigned)
CS(=O)(=O)Nc1cccc(CC(=O)[N-]C2(c3ccc(Br)cc3)COC2)c1 (nonaromatic ring conformer: 109.463598394062 kcal/mol)

>  <smiles>  (75) 
CS(=O)(=O)Nc1cccc(CC(=O)NC2(c3ccc(Br)cc3)COC2)c1

>  <score_type>  (75) 
oracle

>  <origin>  (75) 
adg

>  <m_score__min__energy>  (75) 
-11.09

>  <m_primary>  (75) 
energy

$$$$
75:0
     RDKit          3D

 47 49  0  0  0  0  0  0  0  0999 V2000
   55.1170   29.3090   44.7380 N   0  0  0  0  0  0  0  0  0  0  0  0
   56.8320   29.5250   44.7980 S   0  0  0  0  0  0  0  0  0  0  0  0
   57.1590   30.8930   45.3230 O   0  0  0  0  0  0  0  0  0  0  0  0
   57.3720   29.4030   43.4000 O   0  0  0  0  0  0  0  0  0  0  0  0
   57.5600   28.2880   45.8390 C   0  0  0  0  0  0  0  0  0  0  0  0
   56.8170   27.1390   46.1550 C   0  0  0  0  0  0  0  0  0  0  0  0
   57.3320   26.1600   47.0140 C   0  0  0  0  0  0  0  0  0  0  0  0
   56.5240   25.0130   47.3070 N   0  0  0  0  0  0  0  0  0  0  0  0
   55.2950   24.3640   46.2680 S   0  0  0  0  0  0  0  0  0  0  0  0
   54.3510   23.5300   47.0860 O   0  0  0  0  0  0  0  0  0  0  0  0
   54.5330   25.4990   45.6430 O   0  0  0  0  0  0  0  0  0  0  0  0
   56.0250   23.3480   45.0290 C   0  0  0  0  0  0  0  0  0  0  0  0
   55.5490   23.3860   43.7110 C   0  0  0  0  0  0  0  0  0  0  0  0
   56.1380   22.5830   42.7280 C   0  0  0  0  0  0  0  0  0  0  0  0
   57.2030   21.7390   43.0600 C   0  0  0  0  0  0  0  0  0  0  0  0
   57.6770   21.6950   44.3730 C   0  0  0  0  0  0  0  0  0  0  0  0
   57.0890   22.4950   45.3570 C   0  0  0  0  0  0  0  0  0  0  0  0
   58.6090   26.3350   47.5680 C   0  0  0  0  0  0  0  0  0  0  0  0
   59.3590   27.4710   47.2600 C   0  0  0  0  0  0  0  0  0  0  0  0
   58.8530   28.4450   46.3900 C   0  0  0  0  0  0  0  0  0  0  0  0
   59.7040   29.6030   46.0680 C   0  0  0  0  0  0  0  0  0  0  0  0
   60.1780   29.6920   44.9020 O   0  0  0  0  0  0  0  0  0  0  0  0
   59.9830   30.6350   47.0420 N   0  0  0  0  0  0  0  0  0  0  0  0
   61.3620   31.0240   47.3800 C   0  0  0  0  0  0  0  0  0  0  0  0
   61.6410   32.4890   47.0060 C   0  0  0  0  0  0  0  0  0  0  0  0
   61.1050   33.4640   48.0600 C   0  0  0  0  0  0  0  0  0  0  0  0
   59.6550   33.6390   47.9500 N   0  0  0  0  0  0  0  0  0  0  0  0
   58.6940   32.6440   47.5680 C   0  0  0  0  0  0  0  0  0  0  0  0
   57.6920   33.0000   46.8920 O   0  0  0  0  0  0  0  0  0  0  0  0
   58.8900   31.1790   47.8500 C   0  0  0  0  0  0  0  0  0  0  0  0
   54.7630   29.3410   45.7190 H   0  0  0  0  0  0  0  0  0  0  0  0
   55.8150   27.0058   45.7211 H   0  0  0  0  0  0  0  0  0  0  0  0
   54.7108   24.0484   43.4490 H   0  0  0  0  0  0  0  0  0  0  0  0
   55.7636   22.6154   41.6942 H   0  0  0  0  0  0  0  0  0  0  0  0
   57.6674   21.1096   42.2865 H   0  0  0  0  0  0  0  0  0  0  0  0
   58.5139   21.0301   44.6331 H   0  0  0  0  0  0  0  0  0  0  0  0
   57.4617   22.4555   46.3912 H   0  0  0  0  0  0  0  0  0  0  0  0
   59.0206   25.5742   48.2475 H   0  0  0  0  0  0  0  0  0  0  0  0
   60.3565   27.6026   47.7045 H   0  0  0  0  0  0  0  0  0  0  0  0
   61.5148   30.8958   48.4618 H   0  0  0  0  0  0  0  0  0  0  0  0
   62.0512   30.3844   46.8091 H   0  0  0  0  0  0  0  0  0  0  0  0
   62.7278   32.6304   46.9118 H   0  0  0  0  0  0  0  0  0  0  0  0
   61.1278   32.7003   46.0563 H   0  0  0  0  0  0  0  0  0  0  0  0
   61.3418   33.0727   49.0604 H   0  0  0  0  0  0  0  0  0  0  0  0
   61.5814   34.4418   47.8956 H   0  0  0  0  0  0  0  0  0  0  0  0
   59.1285   31.0457   48.9155 H   0  0  0  0  0  0  0  0  0  0  0  0
   57.9633   30.6441   47.5949 H   0  0  0  0  0  0  0  0  0  0  0  0
  1  2  1  0
  2  3  2  0
  2  4  2  0
  2  5  1  0
  5  6  2  0
  6  7  1  0
  7  8  1  0
  8  9  1  0
  9 10  2  0
  9 11  2  0
  9 12  1  0
 12 13  2  0
 13 14  1  0
 14 15  2  0
 15 16  1  0
 16 17  2  0
  7 18  2  0
 18 19  1  0
 19 20  2  0
 20 21  1  0
 21 22  2  0
 21 23  1  0
 23 24  1  0
 24 25  1  0
 25 26  1  0
 26 27  1  0
 27 28  1  0
 28 29  2  0
 28 30  1  0
 20  5  1  0
 30 23  1  0
 17 12  1  0
  1 31  1  0
  6 32  1  0
 13 33  1  0
 14 34  1  0
 15 35  1  0
 16 36  1  0
 17 37  1  0
 18 38  1  0
 19 39  1  0
 24 40  1  0
 24 41  1  0
 25 42  1  0
 25 43  1  0
 26 44  1  0
 26 45  1  0
 30 46  1  0
 30 47  1  0
M  CHG  3   1  -1   8  -1  27  -1
M  END
>  <UniqueID>  (76) 
74

>  <SMILES>  (76) 
[NH-]S(=O)(=O)c1cc([N-]S(=O)(=O)c2ccccc2)ccc1C(=O)N1CCC[N-]C(=O)C1

>  <Energy>  (76) 
61.78158404586446

>  <Genealogy>  (76) 
[NH-]S(=O)(=O)c1cc([N-]S(=O)(=O)c2ccccc2)ccc1C(=O)N1CCC[N-]C(=O)C1 (protonated)
[NH-]S(=O)(=O)c1cc([N-]S(=O)(=O)c2ccccc2)ccc1C(=O)N1CCC[N-]C(=O)C1 (3D coordinates assigned)
[NH-]S(=O)(=O)c1cc([N-]S(=O)(=O)c2ccccc2)ccc1C(=O)N1CCC[N-]C(=O)C1 (nonaromatic ring conformer: 61.78158404586446 kcal/mol)

>  <smiles>  (76) 
NS(=O)(=O)c1cc(NS(=O)(=O)c2ccccc2)ccc1C(=O)N1CCCNC(=O)C1

>  <score_type>  (76) 
oracle

>  <origin>  (76) 
adg

>  <m_score__min__energy>  (76) 
-13.289999999999999

>  <m_primary>  (76) 
energy

$$$$
76:0
     RDKit          3D

 49 51  0  0  0  0  0  0  0  0999 V2000
   63.7630   31.9830   48.5520 C   0  0  0  0  0  0  0  0  0  0  0  0
   64.0010   33.0910   49.2460 C   0  0  0  0  0  0  0  0  0  0  0  0
   62.9780   34.0890   49.5910 C   0  0  0  0  0  0  0  0  0  0  0  0
   61.9690   34.2290   48.5730 N   0  0  0  0  0  0  0  0  0  0  0  0
   60.6980   33.6030   48.7070 C   0  0  0  0  0  0  0  0  0  0  0  0
   60.5250   32.9280   49.7660 O   0  0  0  0  0  0  0  0  0  0  0  0
   59.6720   33.7240   47.7090 N   0  0  0  0  0  0  0  0  0  0  0  0
   59.9830   34.5220   46.5590 C   0  0  0  0  0  0  0  0  0  0  0  0
   59.0600   34.3770   45.3990 C   0  0  0  0  0  0  0  0  0  0  0  0
   57.9960   33.4060   45.6660 N   0  0  0  0  0  0  0  0  0  0  0  0
   57.6220   32.4770   44.6650 C   0  0  0  0  0  0  0  0  0  0  0  0
   57.0600   31.3030   45.0040 N   0  0  0  0  0  0  0  0  0  0  0  0
   56.6750   30.3830   44.1270 C   0  0  0  0  0  0  0  0  0  0  0  0
   56.0500   29.0800   44.4970 C   0  0  0  0  0  0  0  0  0  0  0  0
   57.0230   28.1810   45.1740 C   0  0  0  0  0  0  0  0  0  0  0  0
   58.3800   28.5120   45.0810 C   0  0  0  0  0  0  0  0  0  0  0  0
   59.3660   27.7570   45.6670 C   0  0  0  0  0  0  0  0  0  0  0  0
   58.9830   26.6340   46.3680 C   0  0  0  0  0  0  0  0  0  0  0  0
   57.6340   26.2800   46.4770 C   0  0  0  0  0  0  0  0  0  0  0  0
   56.6410   27.0530   45.8780 C   0  0  0  0  0  0  0  0  0  0  0  0
   55.3280   26.7390   45.9630 F   0  0  0  0  0  0  0  0  0  0  0  0
   56.8720   30.6690   42.7730 C   0  0  0  0  0  0  0  0  0  0  0  0
   57.4460   31.8620   42.3850 C   0  0  0  0  0  0  0  0  0  0  0  0
   57.6480   32.1730   41.1830 O   0  0  0  0  0  0  0  0  0  0  0  0
   57.8060   32.7370   43.3620 N   0  0  0  0  0  0  0  0  0  0  0  0
   57.3980   33.4810   46.9800 C   0  0  0  0  0  0  0  0  0  0  0  0
   58.4400   33.0290   47.9670 C   0  0  0  0  0  0  0  0  0  0  0  0
   64.5836   31.2838   48.3338 H   0  0  0  0  0  0  0  0  0  0  0  0
   62.7454   31.7651   48.1957 H   0  0  0  0  0  0  0  0  0  0  0  0
   65.0315   33.2735   49.5847 H   0  0  0  0  0  0  0  0  0  0  0  0
   62.4910   33.7834   50.5288 H   0  0  0  0  0  0  0  0  0  0  0  0
   63.4839   35.0606   49.6916 H   0  0  0  0  0  0  0  0  0  0  0  0
   62.2000   34.8000   47.7420 H   0  0  0  0  0  0  0  0  0  0  0  0
   59.9728   35.5776   46.8682 H   0  0  0  0  0  0  0  0  0  0  0  0
   60.9629   34.1678   46.2064 H   0  0  0  0  0  0  0  0  0  0  0  0
   58.6037   35.3543   45.1832 H   0  0  0  0  0  0  0  0  0  0  0  0
   59.6450   34.0146   44.5409 H   0  0  0  0  0  0  0  0  0  0  0  0
   55.2055   29.2688   45.1761 H   0  0  0  0  0  0  0  0  0  0  0  0
   55.7086   28.5870   43.5749 H   0  0  0  0  0  0  0  0  0  0  0  0
   58.6675   29.4115   44.5168 H   0  0  0  0  0  0  0  0  0  0  0  0
   60.4257   28.0390   45.5798 H   0  0  0  0  0  0  0  0  0  0  0  0
   59.7487   26.0073   46.8485 H   0  0  0  0  0  0  0  0  0  0  0  0
   57.3533   25.3796   47.0430 H   0  0  0  0  0  0  0  0  0  0  0  0
   56.5669   29.9370   42.0107 H   0  0  0  0  0  0  0  0  0  0  0  0
   58.2380   33.6320   43.0460 H   0  0  0  0  0  0  0  0  0  0  0  0
   57.0953   34.5158   47.1983 H   0  0  0  0  0  0  0  0  0  0  0  0
   56.5016   32.8462   47.0389 H   0  0  0  0  0  0  0  0  0  0  0  0
   58.0994   33.2519   48.9889 H   0  0  0  0  0  0  0  0  0  0  0  0
   58.5996   31.9455   47.8641 H   0  0  0  0  0  0  0  0  0  0  0  0
  1  2  2  0
  2  3  1  0
  3  4  1  0
  4  5  1  0
  5  6  2  0
  5  7  1  0
  7  8  1  0
  8  9  1  0
  9 10  1  0
 10 11  1  0
 11 12  2  0
 12 13  1  0
 13 14  1  0
 14 15  1  0
 15 16  2  0
 16 17  1  0
 17 18  2  0
 18 19  1  0
 19 20  2  0
 20 21  1  0
 13 22  2  0
 22 23  1  0
 23 24  2  0
 23 25  1  0
 10 26  1  0
 26 27  1  0
 27  7  1  0
 25 11  1  0
 20 15  1  0
  1 28  1  0
  1 29  1  0
  2 30  1  0
  3 31  1  0
  3 32  1  0
  4 33  1  0
  8 34  1  0
  8 35  1  0
  9 36  1  0
  9 37  1  0
 14 38  1  0
 14 39  1  0
 16 40  1  0
 17 41  1  0
 18 42  1  0
 19 43  1  0
 22 44  1  0
 25 45  1  0
 26 46  1  0
 26 47  1  0
 27 48  1  0
 27 49  1  0
M  END
>  <smiles>  (77) 
C=CCNC(=O)N1CCN(c2nc(Cc3ccccc3F)cc(=O)[nH]2)CC1

>  <score_type>  (77) 
oracle

>  <origin>  (77) 
adg

>  <m_score__min__energy>  (77) 
-8.4100000000000001

>  <m_primary>  (77) 
energy

$$$$
77:0
     RDKit          3D

 58 61  0  0  0  0  0  0  0  0999 V2000
   64.1350   33.1410   48.7340 C   0  0  0  0  0  0  0  0  0  0  0  0
   62.7660   33.4660   48.2150 C   0  0  0  0  0  0  0  0  0  0  0  0
   62.5240   33.4830   46.8330 C   0  0  0  0  0  0  0  0  0  0  0  0
   61.2640   33.8460   46.3390 C   0  0  0  0  0  0  0  0  0  0  0  0
   60.2380   34.2180   47.2200 C   0  0  0  0  0  0  0  0  0  0  0  0
   58.8910   34.6250   46.6900 C   0  0  0  0  0  0  0  0  0  0  0  0
   58.3590   33.5900   45.8100 N   0  0  0  0  0  0  0  0  0  0  0  0
   58.4080   33.5940   44.4630 C   0  0  0  0  0  0  0  0  0  0  0  0
   57.7900   32.4530   43.9980 C   0  0  0  0  0  0  0  0  0  0  0  0
   57.3950   31.7900   45.1550 C   0  0  0  0  0  0  0  0  0  0  0  0
   56.7270   30.6750   45.2440 N   0  0  0  0  0  0  0  0  0  0  0  0
   56.3450   29.7780   44.1870 C   0  0  0  0  0  0  0  0  0  0  0  0
   55.1780   29.7800   43.7150 O   0  0  0  0  0  0  0  0  0  0  0  0
   57.2980   28.8600   43.6540 N   0  0  0  0  0  0  0  0  0  0  0  0
   58.6660   28.7650   44.1440 C   0  0  0  0  0  0  0  0  0  0  0  0
   58.7200   27.8130   45.3040 C   0  0  0  0  0  0  0  0  0  0  0  0
   59.5330   28.0980   46.4140 C   0  0  0  0  0  0  0  0  0  0  0  0
   59.5720   27.2220   47.5010 C   0  0  0  0  0  0  0  0  0  0  0  0
   58.7950   26.0590   47.4920 C   0  0  0  0  0  0  0  0  0  0  0  0
   57.9620   25.7730   46.4010 C   0  0  0  0  0  0  0  0  0  0  0  0
   56.9650   24.3140   46.4060 S   0  0  0  0  0  0  0  0  0  0  0  0
   57.3820   23.4320   47.5540 O   0  0  0  0  0  0  0  0  0  0  0  0
   55.5270   24.7010   46.6160 O   0  0  0  0  0  0  0  0  0  0  0  0
   57.1060   23.4250   44.9080 N   0  0  0  0  0  0  0  0  0  0  0  0
   55.9960   23.7710   44.0070 C   0  0  0  0  0  0  0  0  0  0  0  0
   56.0980   22.9370   42.7240 C   0  0  0  0  0  0  0  0  0  0  0  0
   56.0730   21.5540   43.0240 O   0  0  0  0  0  0  0  0  0  0  0  0
   57.1780   21.2170   43.8460 C   0  0  0  0  0  0  0  0  0  0  0  0
   57.1110   21.9770   45.1740 C   0  0  0  0  0  0  0  0  0  0  0  0
   57.9230   26.6540   45.3100 C   0  0  0  0  0  0  0  0  0  0  0  0
   57.7540   32.4960   46.2410 N   0  0  0  0  0  0  0  0  0  0  0  0
   60.4770   34.1880   48.6030 C   0  0  0  0  0  0  0  0  0  0  0  0
   61.7360   33.8270   49.0960 C   0  0  0  0  0  0  0  0  0  0  0  0
   64.1205   33.1444   49.8339 H   0  0  0  0  0  0  0  0  0  0  0  0
   64.4369   32.1462   48.3744 H   0  0  0  0  0  0  0  0  0  0  0  0
   64.8518   33.8939   48.3744 H   0  0  0  0  0  0  0  0  0  0  0  0
   63.3278   33.2099   46.1335 H   0  0  0  0  0  0  0  0  0  0  0  0
   61.0786   33.8392   45.2548 H   0  0  0  0  0  0  0  0  0  0  0  0
   58.1999   34.7754   47.5325 H   0  0  0  0  0  0  0  0  0  0  0  0
   58.9985   35.5592   46.1193 H   0  0  0  0  0  0  0  0  0  0  0  0
   58.8646   34.3766   43.8393 H   0  0  0  0  0  0  0  0  0  0  0  0
   57.6433   32.1395   42.9539 H   0  0  0  0  0  0  0  0  0  0  0  0
   59.3189   28.3980   43.3384 H   0  0  0  0  0  0  0  0  0  0  0  0
   59.0072   29.7585   44.4703 H   0  0  0  0  0  0  0  0  0  0  0  0
   60.1411   29.0146   46.4269 H   0  0  0  0  0  0  0  0  0  0  0  0
   60.2144   27.4469   48.3651 H   0  0  0  0  0  0  0  0  0  0  0  0
   58.8376   25.3655   48.3448 H   0  0  0  0  0  0  0  0  0  0  0  0
   55.0391   23.5593   44.5065 H   0  0  0  0  0  0  0  0  0  0  0  0
   56.0497   24.8401   43.7538 H   0  0  0  0  0  0  0  0  0  0  0  0
   55.2497   23.1795   42.0671 H   0  0  0  0  0  0  0  0  0  0  0  0
   57.0481   23.1734   42.2227 H   0  0  0  0  0  0  0  0  0  0  0  0
   57.1631   20.1356   44.0468 H   0  0  0  0  0  0  0  0  0  0  0  0
   58.1063   21.4935   43.3246 H   0  0  0  0  0  0  0  0  0  0  0  0
   56.1916   21.6990   45.7101 H   0  0  0  0  0  0  0  0  0  0  0  0
   57.9852   21.7192   45.7898 H   0  0  0  0  0  0  0  0  0  0  0  0
   57.2658   26.4373   44.4549 H   0  0  0  0  0  0  0  0  0  0  0  0
   59.6700   34.4498   49.3032 H   0  0  0  0  0  0  0  0  0  0  0  0
   61.9189   33.8264   50.1807 H   0  0  0  0  0  0  0  0  0  0  0  0
  1  2  1  0
  2  3  2  0
  3  4  1  0
  4  5  2  0
  5  6  1  0
  6  7  1  0
  7  8  1  0
  8  9  2  0
  9 10  1  0
 10 11  2  3
 11 12  1  0
 12 13  2  0
 12 14  1  0
 14 15  1  0
 15 16  1  0
 16 17  2  0
 17 18  1  0
 18 19  2  0
 19 20  1  0
 20 21  1  0
 21 22  2  0
 21 23  2  0
 21 24  1  0
 24 25  1  0
 25 26  1  0
 26 27  1  0
 27 28  1  0
 28 29  1  0
 20 30  2  0
 10 31  1  0
  5 32  1  0
 32 33  2  0
 33  2  1  0
 31  7  1  0
 30 16  1  0
 29 24  1  0
  1 34  1  0
  1 35  1  0
  1 36  1  0
  3 37  1  0
  4 38  1  0
  6 39  1  0
  6 40  1  0
  8 41  1  0
  9 42  1  0
 15 43  1  0
 15 44  1  0
 17 45  1  0
 18 46  1  0
 19 47  1  0
 25 48  1  0
 25 49  1  0
 26 50  1  0
 26 51  1  0
 28 52  1  0
 28 53  1  0
 29 54  1  0
 29 55  1  0
 30 56  1  0
 32 57  1  0
 33 58  1  0
M  CHG  2  14  -1  31  -1
M  END
>  <UniqueID>  (78) 
75

>  <SMILES>  (78) 
Cc1ccc(Cn2ccc(=NC(=O)[N-]Cc3cccc(S(=O)(=O)N4CCOCC4)c3)[n-]2)cc1

>  <Energy>  (78) 
90.52064628000828

>  <Genealogy>  (78) 
Cc1ccc(Cn2ccc(=NC(=O)[N-]Cc3cccc(S(=O)(=O)N4CCOCC4)c3)[n-]2)cc1 (protonated)
Cc1ccc(Cn2ccc(=NC(=O)[N-]Cc3cccc(S(=O)(=O)N4CCOCC4)c3)[n-]2)cc1 (3D coordinates assigned)
Cc1ccc(Cn2ccc(=NC(=O)[N-]Cc3cccc(S(=O)(=O)N4CCOCC4)c3)[n-]2)cc1 (nonaromatic ring conformer: 90.52064628000828 kcal/mol)

>  <smiles>  (78) 
Cc1ccc(Cn2ccc(=NC(=O)NCc3cccc(S(=O)(=O)N4CCOCC4)c3)[nH]2)cc1

>  <score_type>  (78) 
oracle

>  <origin>  (78) 
adg

>  <m_score__min__energy>  (78) 
-13.15

>  <m_primary>  (78) 
energy

$$$$
78:0
     RDKit          3D

 25 26  0  0  0  0  0  0  0  0999 V2000
   54.7670   28.4370   44.5800 H   0  0  0  0  0  0  0  0  0  0  0  0
   55.1210   29.3730   44.7260 O   0  0  0  0  0  0  0  0  0  0  0  0
   56.2510   29.5720   45.4870 N   0  0  0  0  0  0  0  0  0  0  0  0
   57.3780   28.9790   45.2320 C   0  0  0  0  0  0  0  0  0  0  0  0
   57.5210   27.5410   45.5680 C   0  0  0  0  0  0  0  0  0  0  0  0
   58.9670   26.6670   45.5940 S   0  0  0  0  0  0  0  0  0  0  0  0
   58.2130   25.2360   46.0350 C   0  0  0  0  0  0  0  0  0  0  0  0
   58.8100   24.1450   46.2220 O   0  0  0  0  0  0  0  0  0  0  0  0
   56.8790   25.3780   46.1690 N   0  0  0  0  0  0  0  0  0  0  0  0
   56.4910   26.6550   45.9090 C   0  0  0  0  0  0  0  0  0  0  0  0
   55.1560   27.0310   45.9890 O   0  0  0  0  0  0  0  0  0  0  0  0
   58.5340   29.7550   44.6420 C   0  0  0  0  0  0  0  0  0  0  0  0
   59.4777   29.3540   45.0404 H   0  0  0  0  0  0  0  0  0  0  0  0
   58.5045   29.6516   43.5473 H   0  0  0  0  0  0  0  0  0  0  0  0
   58.4330   31.2200   44.9910 C   0  0  0  0  0  0  0  0  0  0  0  0
   58.9700   31.6870   46.2050 C   0  0  0  0  0  0  0  0  0  0  0  0
   59.4710   30.9843   46.8870 H   0  0  0  0  0  0  0  0  0  0  0  0
   58.8710   33.0380   46.5500 C   0  0  0  0  0  0  0  0  0  0  0  0
   59.2934   33.3949   47.5009 H   0  0  0  0  0  0  0  0  0  0  0  0
   58.2360   33.9350   45.6880 C   0  0  0  0  0  0  0  0  0  0  0  0
   58.1574   34.9976   45.9612 H   0  0  0  0  0  0  0  0  0  0  0  0
   57.7010   33.4840   44.4800 C   0  0  0  0  0  0  0  0  0  0  0  0
   57.2030   34.1932   43.8024 H   0  0  0  0  0  0  0  0  0  0  0  0
   57.7960   32.1330   44.1280 C   0  0  0  0  0  0  0  0  0  0  0  0
   57.2730   31.7250   42.9440 F   0  0  0  0  0  0  0  0  0  0  0  0
  1  2  1  0
  2  3  1  0
  3  4  2  0
  4  5  1  0
  5  6  1  0
  6  7  1  0
  7  8  2  0
  7  9  1  0
  9 10  1  0
 10 11  1  0
  4 12  1  0
 12 13  1  0
 12 14  1  0
 12 15  1  0
 15 16  2  0
 16 17  1  0
 16 18  1  0
 18 19  1  0
 18 20  2  0
 20 21  1  0
 20 22  1  0
 22 23  1  0
 22 24  2  0
 24 25  1  0
 10  5  2  0
 24 15  1  0
M  CHG  2   9  -1  11  -1
M  END
>  <UniqueID>  (79) 
76

>  <SMILES>  (79) 
O=c1[n-]c([O-])c(/C(Cc2ccccc2F)=N/O)s1

>  <Energy>  (79) 
56.62119174244266

>  <Genealogy>  (79) 
O=c1[n-]c([O-])c(C(Cc2ccccc2F)=NO)s1 (protonated)
O=c1[n-]c([O-])c(/C(Cc2ccccc2F)=N/O)s1 (cis-trans isomerization)
O=c1[n-]c([O-])c(/C(Cc2ccccc2F)=N/O)s1 (3D coordinates assigned)
O=c1[n-]c([O-])c(/C(Cc2ccccc2F)=N/O)s1 (optimized conformer: 56.62119174244266 kcal/mol)

>  <smiles>  (79) 
O=c1[nH]c(O)c(C(Cc2ccccc2F)=NO)s1

>  <score_type>  (79) 
oracle

>  <origin>  (79) 
adg

>  <m_score__min__energy>  (79) 
-12.949999999999999

>  <m_primary>  (79) 
energy

$$$$
79:0
     RDKit          3D

 55 58  0  0  0  0  0  0  0  0999 V2000
   61.1600   28.6090   44.8910 C   0  0  0  0  0  0  0  0  0  0  0  0
   59.9910   28.0600   45.7040 C   0  0  0  0  0  0  0  0  0  0  0  0
   58.7470   28.7610   45.3460 N   0  0  0  0  0  0  0  0  0  0  0  0
   58.8230   30.0350   44.8590 C   0  0  0  0  0  0  0  0  0  0  0  0
   57.6600   30.7660   44.5840 C   0  0  0  0  0  0  0  0  0  0  0  0
   57.7100   32.1210   44.1070 N   0  0  0  0  0  0  0  0  0  0  0  0
   57.5740   33.3020   44.9100 C   0  0  0  0  0  0  0  0  0  0  0  0
   56.7950   34.2110   44.5180 O   0  0  0  0  0  0  0  0  0  0  0  0
   58.2890   33.4640   46.1980 C   0  0  0  0  0  0  0  0  0  0  0  0
   58.8400   34.7010   46.5610 C   0  0  0  0  0  0  0  0  0  0  0  0
   59.4690   34.8620   47.7950 C   0  0  0  0  0  0  0  0  0  0  0  0
   59.5780   33.7800   48.6900 C   0  0  0  0  0  0  0  0  0  0  0  0
   60.1670   33.9220   49.9590 O   0  0  0  0  0  0  0  0  0  0  0  0
   61.4970   33.5390   50.3080 C   0  0  0  0  0  0  0  0  0  0  0  0
   62.2950   33.2050   49.0750 C   0  0  0  0  0  0  0  0  0  0  0  0
   62.9050   34.2300   48.3340 C   0  0  0  0  0  0  0  0  0  0  0  0
   63.6440   33.9270   47.1870 C   0  0  0  0  0  0  0  0  0  0  0  0
   63.7720   32.6000   46.7670 C   0  0  0  0  0  0  0  0  0  0  0  0
   63.1570   31.5760   47.4920 C   0  0  0  0  0  0  0  0  0  0  0  0
   62.4160   31.8750   48.6400 C   0  0  0  0  0  0  0  0  0  0  0  0
   59.0600   32.5220   48.3130 C   0  0  0  0  0  0  0  0  0  0  0  0
   59.1740   31.3520   49.2150 C   0  0  0  0  0  0  0  0  0  0  0  0
   58.7660   31.4430   50.5570 C   0  0  0  0  0  0  0  0  0  0  0  0
   58.8810   30.3390   51.4060 C   0  0  0  0  0  0  0  0  0  0  0  0
   59.4060   29.1360   50.9260 C   0  0  0  0  0  0  0  0  0  0  0  0
   59.8230   29.0350   49.5940 C   0  0  0  0  0  0  0  0  0  0  0  0
   60.3670   27.7970   49.1000 C   0  0  0  0  0  0  0  0  0  0  0  0
   60.8040   26.8020   48.7020 N   0  0  0  0  0  0  0  0  0  0  0  0
   59.7110   30.1420   48.7410 C   0  0  0  0  0  0  0  0  0  0  0  0
   58.4190   32.3760   47.0720 C   0  0  0  0  0  0  0  0  0  0  0  0
   56.4290   30.1340   44.7660 C   0  0  0  0  0  0  0  0  0  0  0  0
   55.3550   30.7360   44.5010 O   0  0  0  0  0  0  0  0  0  0  0  0
   56.3850   28.8670   45.2480 N   0  0  0  0  0  0  0  0  0  0  0  0
   57.5190   28.1840   45.5520 C   0  0  0  0  0  0  0  0  0  0  0  0
   57.4240   27.0180   46.0220 O   0  0  0  0  0  0  0  0  0  0  0  0
   61.9410   28.9758   45.5733 H   0  0  0  0  0  0  0  0  0  0  0  0
   61.5726   27.8105   44.2568 H   0  0  0  0  0  0  0  0  0  0  0  0
   60.8090   29.4364   44.2568 H   0  0  0  0  0  0  0  0  0  0  0  0
   59.8758   26.9863   45.4947 H   0  0  0  0  0  0  0  0  0  0  0  0
   60.1945   28.2152   46.7738 H   0  0  0  0  0  0  0  0  0  0  0  0
   59.8077   30.4917   44.6809 H   0  0  0  0  0  0  0  0  0  0  0  0
   58.7756   35.5516   45.8666 H   0  0  0  0  0  0  0  0  0  0  0  0
   59.8837   35.8425   48.0718 H   0  0  0  0  0  0  0  0  0  0  0  0
   61.9843   34.3696   50.8397 H   0  0  0  0  0  0  0  0  0  0  0  0
   61.4514   32.6485   50.9521 H   0  0  0  0  0  0  0  0  0  0  0  0
   62.8008   35.2761   48.6577 H   0  0  0  0  0  0  0  0  0  0  0  0
   64.1253   34.7335   46.6144 H   0  0  0  0  0  0  0  0  0  0  0  0
   64.3566   32.3619   45.8661 H   0  0  0  0  0  0  0  0  0  0  0  0
   63.2558   30.5322   47.1591 H   0  0  0  0  0  0  0  0  0  0  0  0
   61.9269   31.0667   49.2034 H   0  0  0  0  0  0  0  0  0  0  0  0
   58.3541   32.3880   50.9409 H   0  0  0  0  0  0  0  0  0  0  0  0
   58.5576   30.4170   52.4545 H   0  0  0  0  0  0  0  0  0  0  0  0
   59.4915   28.2677   51.5959 H   0  0  0  0  0  0  0  0  0  0  0  0
   60.0448   30.0636   47.6958 H   0  0  0  0  0  0  0  0  0  0  0  0
   58.0138   31.3953   46.7822 H   0  0  0  0  0  0  0  0  0  0  0  0
  1  2  1  0
  2  3  1  0
  3  4  1  0
  4  5  2  0
  5  6  1  0
  6  7  1  0
  7  8  2  0
  7  9  1  0
  9 10  2  0
 10 11  1  0
 11 12  2  0
 12 13  1  0
 13 14  1  0
 14 15  1  0
 15 16  2  0
 16 17  1  0
 17 18  2  0
 18 19  1  0
 19 20  2  0
 12 21  1  0
 21 22  1  0
 22 23  2  0
 23 24  1  0
 24 25  2  0
 25 26  1  0
 26 27  1  0
 27 28  3  0
 26 29  2  0
 21 30  2  0
  5 31  1  0
 31 32  2  0
 31 33  1  0
 33 34  1  0
 34 35  2  0
 34  3  1  0
 30  9  1  0
 20 15  1  0
 29 22  1  0
  1 36  1  0
  1 37  1  0
  1 38  1  0
  2 39  1  0
  2 40  1  0
  4 41  1  0
 10 42  1  0
 11 43  1  0
 14 44  1  0
 14 45  1  0
 16 46  1  0
 17 47  1  0
 18 48  1  0
 19 49  1  0
 20 50  1  0
 23 51  1  0
 24 52  1  0
 25 53  1  0
 29 54  1  0
 30 55  1  0
M  CHG  2   6  -1  33  -1
M  END
>  <UniqueID>  (80) 
77

>  <SMILES>  (80) 
CCn1cc([N-]C(=O)c2ccc(OCc3ccccc3)c(-c3cccc(C#N)c3)c2)c(=O)[n-]c1=O

>  <Energy>  (80) 
70.32468035653676

>  <Genealogy>  (80) 
CCn1cc([N-]C(=O)c2ccc(OCc3ccccc3)c(-c3cccc(C#N)c3)c2)c(=O)[n-]c1=O (protonated)
CCn1cc([N-]C(=O)c2ccc(OCc3ccccc3)c(-c3cccc(C#N)c3)c2)c(=O)[n-]c1=O (3D coordinates assigned)
CCn1cc([N-]C(=O)c2ccc(OCc3ccccc3)c(-c3cccc(C#N)c3)c2)c(=O)[n-]c1=O (optimized conformer: 70.32468035653676 kcal/mol)

>  <smiles>  (80) 
CCn1cc(NC(=O)c2ccc(OCc3ccccc3)c(-c3cccc(C#N)c3)c2)c(=O)[nH]c1=O

>  <score_type>  (80) 
oracle

>  <origin>  (80) 
adg

>  <m_score__min__energy>  (80) 
-13.539999999999999

>  <m_primary>  (80) 
energy

$$$$
80:0
     RDKit          3D

 52 55  0  0  0  0  0  0  0  0999 V2000
   57.9370   33.0350   47.1290 C   0  0  0  0  0  0  0  0  0  0  0  0
   58.8490   32.5790   47.9840 C   0  0  0  0  0  0  0  0  0  0  0  0
   58.9220   31.1540   48.3740 C   0  0  0  0  0  0  0  0  0  0  0  0
   59.2300   30.0790   47.5430 C   0  0  0  0  0  0  0  0  0  0  0  0
   59.4090   30.0790   46.0770 C   0  0  0  0  0  0  0  0  0  0  0  0
   60.5740   30.1160   45.5960 O   0  0  0  0  0  0  0  0  0  0  0  0
   58.2730   30.0990   45.1950 N   0  0  0  0  0  0  0  0  0  0  0  0
   57.1800   29.1410   45.3880 C   0  0  0  0  0  0  0  0  0  0  0  0
   55.8890   29.7050   44.7880 C   0  0  0  0  0  0  0  0  0  0  0  0
   56.0900   30.0960   43.4430 O   0  0  0  0  0  0  0  0  0  0  0  0
   57.0100   31.1700   43.3890 C   0  0  0  0  0  0  0  0  0  0  0  0
   58.3930   30.7290   43.8780 C   0  0  0  0  0  0  0  0  0  0  0  0
   59.2010   28.9450   48.3330 C   0  0  0  0  0  0  0  0  0  0  0  0
   58.8760   29.3600   49.6070 C   0  0  0  0  0  0  0  0  0  0  0  0
   58.7040   30.6980   49.6310 N   0  0  0  0  0  0  0  0  0  0  0  0
   58.4100   31.4760   50.8370 C   0  0  0  0  0  0  0  0  0  0  0  0
   57.2350   30.8860   51.5580 C   0  0  0  0  0  0  0  0  0  0  0  0
   55.9640   31.2860   51.3660 N   0  0  0  0  0  0  0  0  0  0  0  0
   55.2460   30.4420   52.1400 C   0  0  0  0  0  0  0  0  0  0  0  0
   53.7770   30.5010   52.2970 C   0  0  0  0  0  0  0  0  0  0  0  0
   53.0910   31.5790   51.7060 C   0  0  0  0  0  0  0  0  0  0  0  0
   51.6960   31.6470   51.7520 C   0  0  0  0  0  0  0  0  0  0  0  0
   51.0340   32.7120   51.1540 O   0  0  0  0  0  0  0  0  0  0  0  0
   50.9690   30.6430   52.3910 C   0  0  0  0  0  0  0  0  0  0  0  0
   51.6340   29.5790   53.0020 C   0  0  0  0  0  0  0  0  0  0  0  0
   53.0330   29.5070   52.9840 C   0  0  0  0  0  0  0  0  0  0  0  0
   53.6360   28.4620   53.6880 O   0  0  0  0  0  0  0  0  0  0  0  0
   56.0050   29.5750   52.7790 O   0  0  0  0  0  0  0  0  0  0  0  0
   57.2440   29.8220   52.4350 C   0  0  0  0  0  0  0  0  0  0  0  0
   58.4220   29.0330   52.8990 C   0  0  0  0  0  0  0  0  0  0  0  0
   57.9161   34.1026   46.8646 H   0  0  0  0  0  0  0  0  0  0  0  0
   57.2040   32.3444   46.6866 H   0  0  0  0  0  0  0  0  0  0  0  0
   59.5732   33.2857   48.4154 H   0  0  0  0  0  0  0  0  0  0  0  0
   57.4317   28.1934   44.8893 H   0  0  0  0  0  0  0  0  0  0  0  0
   57.0354   28.9644   46.4641 H   0  0  0  0  0  0  0  0  0  0  0  0
   55.1061   28.9332   44.8262 H   0  0  0  0  0  0  0  0  0  0  0  0
   55.5850   30.5873   45.3704 H   0  0  0  0  0  0  0  0  0  0  0  0
   57.0908   31.5233   42.3504 H   0  0  0  0  0  0  0  0  0  0  0  0
   56.6469   31.9774   44.0419 H   0  0  0  0  0  0  0  0  0  0  0  0
   58.8201   30.0081   43.1653 H   0  0  0  0  0  0  0  0  0  0  0  0
   59.0503   31.6078   43.9530 H   0  0  0  0  0  0  0  0  0  0  0  0
   59.3987   27.9127   48.0085 H   0  0  0  0  0  0  0  0  0  0  0  0
   58.7720   28.6962   50.4780 H   0  0  0  0  0  0  0  0  0  0  0  0
   59.2873   31.4639   51.5005 H   0  0  0  0  0  0  0  0  0  0  0  0
   58.1726   32.5106   50.5486 H   0  0  0  0  0  0  0  0  0  0  0  0
   53.6587   32.3757   51.2030 H   0  0  0  0  0  0  0  0  0  0  0  0
   49.8702   30.6898   52.4135 H   0  0  0  0  0  0  0  0  0  0  0  0
   51.0542   28.7894   53.5024 H   0  0  0  0  0  0  0  0  0  0  0  0
   54.6330   28.2990   53.6980 H   0  0  0  0  0  0  0  0  0  0  0  0
   58.4435   29.0186   53.9987 H   0  0  0  0  0  0  0  0  0  0  0  0
   58.3457   28.0031   52.5202 H   0  0  0  0  0  0  0  0  0  0  0  0
   59.3453   29.4956   52.5202 H   0  0  0  0  0  0  0  0  0  0  0  0
  1  2  2  0
  2  3  1  0
  3  4  2  0
  4  5  1  0
  5  6  2  0
  5  7  1  0
  7  8  1  0
  8  9  1  0
  9 10  1  0
 10 11  1  0
 11 12  1  0
  4 13  1  0
 13 14  2  0
 14 15  1  0
 15 16  1  0
 16 17  1  0
 17 18  1  0
 18 19  2  0
 19 20  1  0
 20 21  2  0
 21 22  1  0
 22 23  1  0
 22 24  2  0
 24 25  1  0
 25 26  2  0
 26 27  1  0
 19 28  1  0
 28 29  1  0
 29 30  1  0
 15  3  1  0
 29 17  2  0
 12  7  1  0
 26 20  1  0
  1 31  1  0
  1 32  1  0
  2 33  1  0
  8 34  1  0
  8 35  1  0
  9 36  1  0
  9 37  1  0
 11 38  1  0
 11 39  1  0
 12 40  1  0
 12 41  1  0
 13 42  1  0
 14 43  1  0
 16 44  1  0
 16 45  1  0
 21 46  1  0
 24 47  1  0
 25 48  1  0
 27 49  1  0
 30 50  1  0
 30 51  1  0
 30 52  1  0
M  CHG  1  23  -1
M  END
>  <UniqueID>  (81) 
78

>  <SMILES>  (81) 
C=Cc1c(C(=O)N2CCOCC2)ccn1Cc1nc(-c2cc([O-])ccc2O)oc1C

>  <Energy>  (81) 
120.81261553871225

>  <Genealogy>  (81) 
C=Cc1c(C(=O)N2CCOCC2)ccn1Cc1nc(-c2cc([O-])ccc2O)oc1C (protonated)
C=Cc1c(C(=O)N2CCOCC2)ccn1Cc1nc(-c2cc([O-])ccc2O)oc1C (3D coordinates assigned)
C=Cc1c(C(=O)N2CCOCC2)ccn1Cc1nc(-c2cc([O-])ccc2O)oc1C (nonaromatic ring conformer: 120.81261553871225 kcal/mol)

>  <smiles>  (81) 
C=Cc1c(C(=O)N2CCOCC2)ccn1Cc1nc(-c2cc(O)ccc2O)oc1C

>  <score_type>  (81) 
oracle

>  <origin>  (81) 
adg

>  <m_score__min__energy>  (81) 
-11.970000000000001

>  <m_primary>  (81) 
energy

$$$$
81:0
     RDKit          3D

 62 65  0  0  0  0  0  0  0  0999 V2000
   57.3840   31.9880   43.1640 O   0  0  0  0  0  0  0  0  0  0  0  0
   57.0620   31.6330   44.3290 C   0  0  0  0  0  0  0  0  0  0  0  0
   55.9080   30.8030   44.5060 N   0  0  0  0  0  0  0  0  0  0  0  0
   55.9300   29.3430   44.5230 C   0  0  0  0  0  0  0  0  0  0  0  0
   57.3690   28.8340   44.4380 C   0  0  0  0  0  0  0  0  0  0  0  0
   57.4650   27.3990   44.8890 C   0  0  0  0  0  0  0  0  0  0  0  0
   56.8790   26.9950   46.0980 C   0  0  0  0  0  0  0  0  0  0  0  0
   56.9050   25.6510   46.4800 C   0  0  0  0  0  0  0  0  0  0  0  0
   57.4960   24.6910   45.6470 C   0  0  0  0  0  0  0  0  0  0  0  0
   57.4600   22.9860   46.0910 S   0  0  0  0  0  0  0  0  0  0  0  0
   58.7710   22.3590   45.7050 O   0  0  0  0  0  0  0  0  0  0  0  0
   57.3150   22.8640   47.5820 O   0  0  0  0  0  0  0  0  0  0  0  0
   56.1580   22.1170   45.3020 N   0  0  0  0  0  0  0  0  0  0  0  0
   55.2930   22.9980   44.4940 C   0  0  0  0  0  0  0  0  0  0  0  0
   55.8600   23.2820   43.0820 C   0  0  0  0  0  0  0  0  0  0  0  0
   56.9960   22.5010   42.7710 O   0  0  0  0  0  0  0  0  0  0  0  0
   56.7340   21.1480   43.0530 C   0  0  0  0  0  0  0  0  0  0  0  0
   56.6280   20.9210   44.5710 C   0  0  0  0  0  0  0  0  0  0  0  0
   58.0940   25.0940   44.4450 C   0  0  0  0  0  0  0  0  0  0  0  0
   58.0760   26.4390   44.0650 C   0  0  0  0  0  0  0  0  0  0  0  0
   57.8590   32.1150   45.4720 C   0  0  0  0  0  0  0  0  0  0  0  0
   58.2600   31.2180   46.4740 C   0  0  0  0  0  0  0  0  0  0  0  0
   59.0520   31.6570   47.5390 C   0  0  0  0  0  0  0  0  0  0  0  0
   59.4470   33.0010   47.6180 C   0  0  0  0  0  0  0  0  0  0  0  0
   60.5340   33.5340   48.9030 S   0  0  0  0  0  0  0  0  0  0  0  0
   59.7890   33.5420   50.2100 O   0  0  0  0  0  0  0  0  0  0  0  0
   60.9890   34.9400   48.6190 O   0  0  0  0  0  0  0  0  0  0  0  0
   61.9300   32.4850   49.0460 N   0  0  0  0  0  0  0  0  0  0  0  0
   63.1160   33.2310   49.4860 C   0  0  0  0  0  0  0  0  0  0  0  0
   64.0270   33.4570   48.2850 C   0  0  0  0  0  0  0  0  0  0  0  0
   63.3880   32.7150   47.1310 C   0  0  0  0  0  0  0  0  0  0  0  0
   62.2750   31.8880   47.7520 C   0  0  0  0  0  0  0  0  0  0  0  0
   59.0020   33.9080   46.6470 C   0  0  0  0  0  0  0  0  0  0  0  0
   58.2080   33.4700   45.5840 C   0  0  0  0  0  0  0  0  0  0  0  0
   55.4724   28.9839   45.4566 H   0  0  0  0  0  0  0  0  0  0  0  0
   55.3650   28.9661   43.6577 H   0  0  0  0  0  0  0  0  0  0  0  0
   57.7149   28.9070   43.3963 H   0  0  0  0  0  0  0  0  0  0  0  0
   57.9969   29.4503   45.0982 H   0  0  0  0  0  0  0  0  0  0  0  0
   56.3968   27.7397   46.7483 H   0  0  0  0  0  0  0  0  0  0  0  0
   56.4599   25.3452   47.4383 H   0  0  0  0  0  0  0  0  0  0  0  0
   54.3092   22.5180   44.3855 H   0  0  0  0  0  0  0  0  0  0  0  0
   55.2270   23.9621   45.0195 H   0  0  0  0  0  0  0  0  0  0  0  0
   55.0756   23.0689   42.3409 H   0  0  0  0  0  0  0  0  0  0  0  0
   56.1725   24.3365   43.0611 H   0  0  0  0  0  0  0  0  0  0  0  0
   55.7861   20.8567   42.5770 H   0  0  0  0  0  0  0  0  0  0  0  0
   57.5608   20.5378   42.6604 H   0  0  0  0  0  0  0  0  0  0  0  0
   55.9214   20.0981   44.7540 H   0  0  0  0  0  0  0  0  0  0  0  0
   57.6371   20.6851   44.9399 H   0  0  0  0  0  0  0  0  0  0  0  0
   58.5795   24.3486   43.7980 H   0  0  0  0  0  0  0  0  0  0  0  0
   58.5419   26.7470   43.1173 H   0  0  0  0  0  0  0  0  0  0  0  0
   57.9495   30.1641   46.4211 H   0  0  0  0  0  0  0  0  0  0  0  0
   59.3665   30.9465   48.3176 H   0  0  0  0  0  0  0  0  0  0  0  0
   62.8087   34.2007   49.9047 H   0  0  0  0  0  0  0  0  0  0  0  0
   63.6512   32.6603   50.2592 H   0  0  0  0  0  0  0  0  0  0  0  0
   64.0986   34.5306   48.0563 H   0  0  0  0  0  0  0  0  0  0  0  0
   65.0477   33.0963   48.4801 H   0  0  0  0  0  0  0  0  0  0  0  0
   62.9774   33.4242   46.3973 H   0  0  0  0  0  0  0  0  0  0  0  0
   64.1148   32.0870   46.5950 H   0  0  0  0  0  0  0  0  0  0  0  0
   61.3946   31.8932   47.0926 H   0  0  0  0  0  0  0  0  0  0  0  0
   62.6048   30.8476   47.8887 H   0  0  0  0  0  0  0  0  0  0  0  0
   59.2791   34.9699   46.7220 H   0  0  0  0  0  0  0  0  0  0  0  0
   57.8548   34.1903   44.8314 H   0  0  0  0  0  0  0  0  0  0  0  0
  1  2  2  0
  2  3  1  0
  3  4  1  0
  4  5  1  0
  5  6  1  0
  6  7  2  0
  7  8  1  0
  8  9  2  0
  9 10  1  0
 10 11  2  0
 10 12  2  0
 10 13  1  0
 13 14  1  0
 14 15  1  0
 15 16  1  0
 16 17  1  0
 17 18  1  0
  9 19  1  0
 19 20  2  0
  2 21  1  0
 21 22  2  0
 22 23  1  0
 23 24  2  0
 24 25  1  0
 25 26  2  0
 25 27  2  0
 25 28  1  0
 28 29  1  0
 29 30  1  0
 30 31  1  0
 31 32  1  0
 24 33  1  0
 33 34  2  0
 20  6  1  0
 34 21  1  0
 18 13  1  0
 32 28  1  0
  4 35  1  0
  4 36  1  0
  5 37  1  0
  5 38  1  0
  7 39  1  0
  8 40  1  0
 14 41  1  0
 14 42  1  0
 15 43  1  0
 15 44  1  0
 17 45  1  0
 17 46  1  0
 18 47  1  0
 18 48  1  0
 19 49  1  0
 20 50  1  0
 22 51  1  0
 23 52  1  0
 29 53  1  0
 29 54  1  0
 30 55  1  0
 30 56  1  0
 31 57  1  0
 31 58  1  0
 32 59  1  0
 32 60  1  0
 33 61  1  0
 34 62  1  0
M  CHG  1   3  -1
M  END
>  <UniqueID>  (82) 
79

>  <SMILES>  (82) 
O=C([N-]CCc1ccc(S(=O)(=O)N2CCOCC2)cc1)c1ccc(S(=O)(=O)N2CCCC2)cc1

>  <Energy>  (82) 
75.0805213888917

>  <Genealogy>  (82) 
O=C([N-]CCc1ccc(S(=O)(=O)N2CCOCC2)cc1)c1ccc(S(=O)(=O)N2CCCC2)cc1 (protonated)
O=C([N-]CCc1ccc(S(=O)(=O)N2CCOCC2)cc1)c1ccc(S(=O)(=O)N2CCCC2)cc1 (3D coordinates assigned)
O=C([N-]CCc1ccc(S(=O)(=O)N2CCOCC2)cc1)c1ccc(S(=O)(=O)N2CCCC2)cc1 (nonaromatic ring conformer: 75.0805213888917 kcal/mol)

>  <smiles>  (82) 
O=C(NCCc1ccc(S(=O)(=O)N2CCOCC2)cc1)c1ccc(S(=O)(=O)N2CCCC2)cc1

>  <score_type>  (82) 
oracle

>  <origin>  (82) 
adg

>  <m_score__min__energy>  (82) 
-11.16

>  <m_primary>  (82) 
energy

$$$$
82:0
     RDKit          3D

 44 45  0  0  0  0  0  0  0  0999 V2000
   59.2820   26.8546   47.0957 H   0  0  0  0  0  0  0  0  0  0  0  0
   59.1080   27.9320   47.2330 C   0  0  0  0  0  0  0  0  0  0  0  0
   59.5522   28.4557   48.0923 H   0  0  0  0  0  0  0  0  0  0  0  0
   58.3510   28.6100   46.3490 C   0  0  0  0  0  0  0  0  0  0  0  0
   58.1490   29.9950   46.5580 C   0  0  0  0  0  0  0  0  0  0  0  0
   58.4970   30.5860   47.7830 O   0  0  0  0  0  0  0  0  0  0  0  0
   59.7950   31.1010   48.0820 C   0  0  0  0  0  0  0  0  0  0  0  0
   60.0452   30.8641   49.1267 H   0  0  0  0  0  0  0  0  0  0  0  0
   60.5237   30.6388   47.3997 H   0  0  0  0  0  0  0  0  0  0  0  0
   59.8350   32.6190   47.8880 C   0  0  0  0  0  0  0  0  0  0  0  0
   60.1333   33.0937   48.8344 H   0  0  0  0  0  0  0  0  0  0  0  0
   60.5594   32.8491   47.0928 H   0  0  0  0  0  0  0  0  0  0  0  0
   58.5260   33.1370   47.4860 N   0  0  0  0  0  0  0  0  0  0  0  0
   58.6070   33.9670   45.9590 S   0  0  0  0  0  0  0  0  0  0  0  0
   59.2460   35.3100   46.1700 O   0  0  0  0  0  0  0  0  0  0  0  0
   59.4320   33.1810   44.9770 O   0  0  0  0  0  0  0  0  0  0  0  0
   56.9710   34.2120   45.3010 C   0  0  0  0  0  0  0  0  0  0  0  0
   56.2550   34.3192   46.1291 H   0  0  0  0  0  0  0  0  0  0  0  0
   56.9566   35.1223   44.6836 H   0  0  0  0  0  0  0  0  0  0  0  0
   56.6906   33.3458   44.6836 H   0  0  0  0  0  0  0  0  0  0  0  0
   57.6360   30.7640   45.5620 N   0  0  0  0  0  0  0  0  0  0  0  0
   57.3100   30.2630   44.3460 C   0  0  0  0  0  0  0  0  0  0  0  0
   56.7400   31.1810   43.3010 C   0  0  0  0  0  0  0  0  0  0  0  0
   56.1888   30.5808   42.5622 H   0  0  0  0  0  0  0  0  0  0  0  0
   56.0746   31.8989   43.8028 H   0  0  0  0  0  0  0  0  0  0  0  0
   57.8380   31.9730   42.5780 C   0  0  0  0  0  0  0  0  0  0  0  0
   58.0318   32.8999   43.1377 H   0  0  0  0  0  0  0  0  0  0  0  0
   58.7339   31.3366   42.5296 H   0  0  0  0  0  0  0  0  0  0  0  0
   57.4470   32.3370   41.1460 C   0  0  0  0  0  0  0  0  0  0  0  0
   56.6420   33.0864   41.1650 H   0  0  0  0  0  0  0  0  0  0  0  0
   58.3208   32.7507   40.6212 H   0  0  0  0  0  0  0  0  0  0  0  0
   57.0968   31.4359   40.6212 H   0  0  0  0  0  0  0  0  0  0  0  0
   57.4300   28.8920   44.1100 C   0  0  0  0  0  0  0  0  0  0  0  0
   57.1808   28.4845   43.1191 H   0  0  0  0  0  0  0  0  0  0  0  0
   57.8680   28.0270   45.1320 C   0  0  0  0  0  0  0  0  0  0  0  0
   57.7650   26.6950   44.8880 C   0  0  0  0  0  0  0  0  0  0  0  0
   58.1659   26.3296   43.9311 H   0  0  0  0  0  0  0  0  0  0  0  0
   57.1640   25.6930   45.7900 C   0  0  0  0  0  0  0  0  0  0  0  0
   57.8260   24.6630   46.3500 N   0  0  0  0  0  0  0  0  0  0  0  0
   56.9070   24.1070   47.1670 C   0  0  0  0  0  0  0  0  0  0  0  0
   57.1490   23.0900   47.8690 O   0  0  0  0  0  0  0  0  0  0  0  0
   55.7090   24.7310   47.1820 N   0  0  0  0  0  0  0  0  0  0  0  0
   55.8950   25.7390   46.3130 C   0  0  0  0  0  0  0  0  0  0  0  0
   54.9230   26.6840   46.0080 O   0  0  0  0  0  0  0  0  0  0  0  0
  1  2  1  0
  2  3  1  0
  2  4  2  0
  4  5  1  0
  5  6  1  0
  6  7  1  0
  7  8  1  0
  7  9  1  0
  7 10  1  0
 10 11  1  0
 10 12  1  0
 10 13  1  0
 13 14  1  0
 14 15  2  0
 14 16  2  0
 14 17  1  0
 17 18  1  0
 17 19  1  0
 17 20  1  0
  5 21  2  0
 21 22  1  0
 22 23  1  0
 23 24  1  0
 23 25  1  0
 23 26  1  0
 26 27  1  0
 26 28  1  0
 26 29  1  0
 29 30  1  0
 29 31  1  0
 29 32  1  0
 22 33  2  0
 33 34  1  0
 33 35  1  0
 35 36  2  0
 36 37  1  0
 36 38  1  0
 38 39  1  0
 39 40  1  0
 40 41  2  0
 40 42  1  0
 42 43  1  0
 43 44  1  0
 35  4  1  0
 43 38  2  0
M  CHG  4  13  -1  39  -1  42  -1  44  -1
M  END
>  <UniqueID>  (83) 
80

>  <SMILES>  (83) 
C=c1c(OCC[N-]S(C)(=O)=O)nc(CCC)c/c1=C/c1[n-]c(=O)[n-]c1[O-]

>  <Energy>  (83) 
80.87566297987934

>  <Genealogy>  (83) 
C=c1c(OCC[N-]S(C)(=O)=O)nc(CCC)cc1=Cc1[n-]c(=O)[n-]c1[O-] (protonated)
C=c1c(OCC[N-]S(C)(=O)=O)nc(CCC)c/c1=C/c1[n-]c(=O)[n-]c1[O-] (cis-trans isomerization)
C=c1c(OCC[N-]S(C)(=O)=O)nc(CCC)c/c1=C/c1[n-]c(=O)[n-]c1[O-] (3D coordinates assigned)
C=c1c(OCC[N-]S(C)(=O)=O)nc(CCC)c/c1=C/c1[n-]c(=O)[n-]c1[O-] (optimized conformer: 80.87566297987934 kcal/mol)

>  <smiles>  (83) 
C=c1c(OCCNS(C)(=O)=O)nc(CCC)cc1=Cc1[nH]c(=O)[nH]c1O

>  <score_type>  (83) 
oracle

>  <origin>  (83) 
adg

>  <m_score__min__energy>  (83) 
-16.059999999999999

>  <m_primary>  (83) 
energy

$$$$
83:0
     RDKit          3D

 58 61  0  0  0  0  0  0  0  0999 V2000
   59.6450   35.8510   46.3470 C   0  0  0  0  0  0  0  0  0  0  0  0
   59.1230   34.6450   46.0670 C   0  0  0  0  0  0  0  0  0  0  0  0
   58.9980   34.2170   44.7390 C   0  0  0  0  0  0  0  0  0  0  0  0
   58.4540   32.9640   44.4410 C   0  0  0  0  0  0  0  0  0  0  0  0
   58.0120   32.0970   45.4650 C   0  0  0  0  0  0  0  0  0  0  0  0
   57.4880   30.8700   45.1790 C   0  0  0  0  0  0  0  0  0  0  0  0
   56.5690   30.5800   44.1740 C   0  0  0  0  0  0  0  0  0  0  0  0
   56.3320   29.2230   44.2190 C   0  0  0  0  0  0  0  0  0  0  0  0
   57.0820   28.7230   45.2690 C   0  0  0  0  0  0  0  0  0  0  0  0
   57.1680   27.4130   45.6070 C   0  0  0  0  0  0  0  0  0  0  0  0
   56.0660   26.6490   45.9730 C   0  0  0  0  0  0  0  0  0  0  0  0
   56.4950   25.3450   46.0660 C   0  0  0  0  0  0  0  0  0  0  0  0
   57.8480   25.3600   45.8050 C   0  0  0  0  0  0  0  0  0  0  0  0
   58.6140   24.2630   45.8020 C   0  0  0  0  0  0  0  0  0  0  0  0
   58.2850   26.6280   45.5630 N   0  0  0  0  0  0  0  0  0  0  0  0
   59.7000   27.0570   45.6550 C   0  0  0  0  0  0  0  0  0  0  0  0
   60.1850   27.1330   47.1180 C   0  0  0  0  0  0  0  0  0  0  0  0
   59.6840   28.3560   47.8750 C   0  0  0  0  0  0  0  0  0  0  0  0
   58.5320   28.3840   48.2730 O   0  0  0  0  0  0  0  0  0  0  0  0
   60.5340   29.5120   48.1090 N   0  0  0  0  0  0  0  0  0  0  0  0
   60.8800   30.2100   46.8530 C   0  0  0  0  0  0  0  0  0  0  0  0
   61.9100   31.3360   47.1130 C   0  0  0  0  0  0  0  0  0  0  0  0
   61.9910   31.6820   48.5530 N   0  0  0  0  0  0  0  0  0  0  0  0
   62.7520   32.9290   48.7400 C   0  0  0  0  0  0  0  0  0  0  0  0
   60.6380   31.7960   49.1350 C   0  0  0  0  0  0  0  0  0  0  0  0
   59.9100   30.4360   49.0830 C   0  0  0  0  0  0  0  0  0  0  0  0
   57.8060   29.7200   45.8260 N   0  0  0  0  0  0  0  0  0  0  0  0
   58.1520   32.5430   46.8040 C   0  0  0  0  0  0  0  0  0  0  0  0
   58.6980   33.7950   47.0970 C   0  0  0  0  0  0  0  0  0  0  0  0
   59.7399   36.1800   47.3924 H   0  0  0  0  0  0  0  0  0  0  0  0
   59.9775   36.5093   45.5309 H   0  0  0  0  0  0  0  0  0  0  0  0
   59.3314   34.8737   43.9220 H   0  0  0  0  0  0  0  0  0  0  0  0
   58.3687   32.6478   43.3909 H   0  0  0  0  0  0  0  0  0  0  0  0
   56.1169   31.2991   43.4751 H   0  0  0  0  0  0  0  0  0  0  0  0
   55.6742   28.6488   43.5500 H   0  0  0  0  0  0  0  0  0  0  0  0
   55.0452   27.0169   46.1539 H   0  0  0  0  0  0  0  0  0  0  0  0
   55.8795   24.4644   46.3021 H   0  0  0  0  0  0  0  0  0  0  0  0
   59.6895   24.3437   45.5855 H   0  0  0  0  0  0  0  0  0  0  0  0
   58.1683   23.2804   46.0160 H   0  0  0  0  0  0  0  0  0  0  0  0
   60.3264   26.3356   45.1098 H   0  0  0  0  0  0  0  0  0  0  0  0
   59.7802   28.0628   45.2169 H   0  0  0  0  0  0  0  0  0  0  0  0
   59.8356   26.2330   47.6452 H   0  0  0  0  0  0  0  0  0  0  0  0
   61.2821   27.2066   47.0857 H   0  0  0  0  0  0  0  0  0  0  0  0
   61.4340   29.1630   48.5290 H   0  0  0  0  0  0  0  0  0  0  0  0
   61.3090   29.4858   46.1448 H   0  0  0  0  0  0  0  0  0  0  0  0
   59.9660   30.6587   46.4368 H   0  0  0  0  0  0  0  0  0  0  0  0
   62.8999   31.0000   46.7707 H   0  0  0  0  0  0  0  0  0  0  0  0
   61.5862   32.2315   46.5623 H   0  0  0  0  0  0  0  0  0  0  0  0
   62.8729   33.1270   49.8153 H   0  0  0  0  0  0  0  0  0  0  0  0
   63.7424   32.8278   48.2722 H   0  0  0  0  0  0  0  0  0  0  0  0
   62.2091   33.7635   48.2722 H   0  0  0  0  0  0  0  0  0  0  0  0
   60.7209   32.1223   50.1822 H   0  0  0  0  0  0  0  0  0  0  0  0
   60.0615   32.5302   48.5531 H   0  0  0  0  0  0  0  0  0  0  0  0
   59.9442   29.9760   50.0816 H   0  0  0  0  0  0  0  0  0  0  0  0
   58.8727   30.6168   48.7647 H   0  0  0  0  0  0  0  0  0  0  0  0
   58.6010   29.5810   46.4850 H   0  0  0  0  0  0  0  0  0  0  0  0
   57.8245   31.8909   47.6271 H   0  0  0  0  0  0  0  0  0  0  0  0
   58.7951   34.1163   48.1445 H   0  0  0  0  0  0  0  0  0  0  0  0
  1  2  2  0
  2  3  1  0
  3  4  2  0
  4  5  1  0
  5  6  2  3
  6  7  1  0
  7  8  2  0
  8  9  1  0
  9 10  2  3
 10 11  1  0
 11 12  2  0
 12 13  1  0
 13 14  2  0
 13 15  1  0
 15 16  1  0
 16 17  1  0
 17 18  1  0
 18 19  2  0
 18 20  1  0
 20 21  1  0
 21 22  1  0
 22 23  1  0
 23 24  1  0
 23 25  1  0
 25 26  1  0
  9 27  1  0
  5 28  1  0
 28 29  2  0
 29  2  1  0
 27  6  1  0
 15 10  1  0
 26 20  1  0
  1 30  1  0
  1 31  1  0
  3 32  1  0
  4 33  1  0
  7 34  1  0
  8 35  1  0
 11 36  1  0
 12 37  1  0
 14 38  1  0
 14 39  1  0
 16 40  1  0
 16 41  1  0
 17 42  1  0
 17 43  1  0
 20 44  1  0
 21 45  1  0
 21 46  1  0
 22 47  1  0
 22 48  1  0
 24 49  1  0
 24 50  1  0
 24 51  1  0
 25 52  1  0
 25 53  1  0
 26 54  1  0
 26 55  1  0
 27 56  1  0
 28 57  1  0
 29 58  1  0
M  CHG  1  20   1
M  END
>  <UniqueID>  (84) 
81

>  <SMILES>  (84) 
C=c1ccc(=c2ccc(=c3ccc(=C)n3CCC(=O)[NH+]3CCN(C)CC3)[nH]2)cc1

>  <Energy>  (84) 
148.5532386614796

>  <Genealogy>  (84) 
C=c1ccc(=c2ccc(=c3ccc(=C)n3CCC(=O)[NH+]3CCN(C)CC3)[nH]2)cc1 (protonated)
C=c1ccc(=c2ccc(=c3ccc(=C)n3CCC(=O)[NH+]3CCN(C)CC3)[nH]2)cc1 (3D coordinates assigned)
C=c1ccc(=c2ccc(=c3ccc(=C)n3CCC(=O)[NH+]3CCN(C)CC3)[nH]2)cc1 (nonaromatic ring conformer: 148.5532386614796 kcal/mol)

>  <smiles>  (84) 
C=c1ccc(=c2ccc(=c3ccc(=C)n3CCC(=O)N3CCN(C)CC3)[nH]2)cc1

>  <score_type>  (84) 
oracle

>  <origin>  (84) 
adg

>  <m_score__min__energy>  (84) 
-6.7400000000000002

>  <m_primary>  (84) 
energy

$$$$
84:0
     RDKit          3D

 46 48  0  0  0  0  0  0  0  0999 V2000
   54.6250   29.3440   44.8900 H   0  0  0  0  0  0  0  0  0  0  0  0
   55.6700   29.3490   44.8520 N   0  0  0  0  0  0  0  0  0  0  0  0
   56.3240   30.3560   44.3740 C   0  0  0  0  0  0  0  0  0  0  0  0
   56.9030   31.2460   45.2210 N   0  0  0  0  0  0  0  0  0  0  0  0
   57.5970   32.3210   44.7580 C   0  0  0  0  0  0  0  0  0  0  0  0
   58.2150   33.2700   45.7190 C   0  0  0  0  0  0  0  0  0  0  0  0
   57.5550   33.5620   46.8590 C   0  0  0  0  0  0  0  0  0  0  0  0
   56.6397   34.1645   46.7630 H   0  0  0  0  0  0  0  0  0  0  0  0
   57.9540   33.1390   48.2620 C   0  0  0  0  0  0  0  0  0  0  0  0
   57.2366   33.5846   48.9669 H   0  0  0  0  0  0  0  0  0  0  0  0
   57.9483   32.0390   48.2581 H   0  0  0  0  0  0  0  0  0  0  0  0
   59.2580   33.5190   48.6680 O   0  0  0  0  0  0  0  0  0  0  0  0
   60.2400   33.1090   47.7270 C   0  0  2  0  0  0  0  0  0  0  0  0
   59.9502   32.1678   47.2369 H   0  0  0  0  0  0  0  0  0  0  0  0
   61.5840   32.8680   48.4640 C   0  0  0  0  0  0  0  0  0  0  0  0
   61.6642   31.7869   48.6506 H   0  0  0  0  0  0  0  0  0  0  0  0
   61.6240   33.5760   49.8480 C   0  0  0  0  0  0  0  0  0  0  0  0
   60.8812   34.3873   49.8413 H   0  0  0  0  0  0  0  0  0  0  0  0
   61.4088   32.8048   50.6022 H   0  0  0  0  0  0  0  0  0  0  0  0
   62.9930   34.1790   50.2130 C   0  0  0  0  0  0  0  0  0  0  0  0
   63.0666   35.1871   49.7791 H   0  0  0  0  0  0  0  0  0  0  0  0
   63.0716   34.2177   51.3095 H   0  0  0  0  0  0  0  0  0  0  0  0
   64.0990   33.3560   49.7000 N   0  0  0  0  0  0  0  0  0  0  0  0
   65.2630   33.1080   50.5210 C   0  0  0  0  0  0  0  0  0  0  0  0
   65.3930   33.6930   51.6310 O   0  0  0  0  0  0  0  0  0  0  0  0
   66.3470   32.1720   50.0770 C   0  0  0  0  0  0  0  0  0  0  0  0
   66.8445   31.7424   50.9590 H   0  0  0  0  0  0  0  0  0  0  0  0
   65.9089   31.3637   49.4731 H   0  0  0  0  0  0  0  0  0  0  0  0
   67.0828   32.7233   49.4731 H   0  0  0  0  0  0  0  0  0  0  0  0
   64.0930   32.9330   48.2890 C   0  0  0  0  0  0  0  0  0  0  0  0
   64.9236   33.4291   47.7656 H   0  0  0  0  0  0  0  0  0  0  0  0
   64.2032   31.8389   48.2609 H   0  0  0  0  0  0  0  0  0  0  0  0
   62.7780   33.2960   47.5880 C   0  0  0  0  0  0  0  0  0  0  0  0
   62.7395   34.3830   47.4240 H   0  0  0  0  0  0  0  0  0  0  0  0
   62.7253   32.7733   46.6215 H   0  0  0  0  0  0  0  0  0  0  0  0
   60.3720   34.2110   46.6470 C   0  0  0  0  0  0  0  0  0  0  0  0
   60.0209   35.1639   47.0698 H   0  0  0  0  0  0  0  0  0  0  0  0
   61.4303   34.2665   46.3521 H   0  0  0  0  0  0  0  0  0  0  0  0
   59.5510   33.8980   45.3880 C   0  0  0  0  0  0  0  0  0  0  0  0
   59.3758   34.8340   44.8374 H   0  0  0  0  0  0  0  0  0  0  0  0
   60.1218   33.1785   44.7826 H   0  0  0  0  0  0  0  0  0  0  0  0
   57.7270   32.5010   43.3720 C   0  0  0  0  0  0  0  0  0  0  0  0
   58.2933   33.3532   42.9682 H   0  0  0  0  0  0  0  0  0  0  0  0
   57.1240   31.5780   42.5160 C   0  0  0  0  0  0  0  0  0  0  0  0
   57.2210   31.7130   41.2690 O   0  0  0  0  0  0  0  0  0  0  0  0
   56.4340   30.5280   43.0300 N   0  0  0  0  0  0  0  0  0  0  0  0
  1  2  1  0
  2  3  2  0
  3  4  1  0
  4  5  1  0
  5  6  1  0
  6  7  2  0
  7  8  1  0
  7  9  1  0
  9 10  1  0
  9 11  1  0
  9 12  1  0
 12 13  1  0
 13 14  1  6
 13 15  1  0
 15 16  1  0
 15 17  1  0
 17 18  1  0
 17 19  1  0
 17 20  1  0
 20 21  1  0
 20 22  1  0
 20 23  1  0
 23 24  1  0
 24 25  2  0
 24 26  1  0
 26 27  1  0
 26 28  1  0
 26 29  1  0
 23 30  1  0
 30 31  1  0
 30 32  1  0
 30 33  1  0
 33 34  1  0
 33 35  1  0
 13 36  1  0
 36 37  1  0
 36 38  1  0
 36 39  1  0
 39 40  1  0
 39 41  1  0
  5 42  2  0
 42 43  1  0
 42 44  1  0
 44 45  2  0
 44 46  1  0
 46  3  1  0
 39  6  1  0
 33 15  1  0
M  CHG  2   4  -1  46  -1
M  END
>  <UniqueID>  (85) 
82

>  <SMILES>  (85) 
[H]/N=c1/[n-]c(C2=CCO[C@H](C3CCN(C(C)=O)CC3)CC2)cc(=O)[n-]1

>  <Energy>  (85) 
61.9726786957773

>  <Genealogy>  (85) 
CC(=O)N1CCC(C2CCC(c3cc(=O)[n-]c(=N)[n-]3)=CCO2)CC1 (protonated)
CC(=O)N1CCC([C@@H]2CCC(c3cc(=O)[n-]c(=N)[n-]3)=CCO2)CC1 (chirality)
[H]/N=c1/[n-]c(C2=CCO[C@H](C3CCN(C(C)=O)CC3)CC2)cc(=O)[n-]1 (cis-trans isomerization)
[H]/N=c1/[n-]c(C2=CCO[C@H](C3CCN(C(C)=O)CC3)CC2)cc(=O)[n-]1 (3D coordinates assigned)
[H]/N=c1/[n-]c(C2=CCO[C@H](C3CCN(C(C)=O)CC3)CC2)cc(=O)[n-]1 (nonaromatic ring conformer: 61.9726786957773 kcal/mol)

>  <smiles>  (85) 
CC(=O)N1CCC(C2CCC(c3cc(=O)[nH]c(=N)[nH]3)=CCO2)CC1

>  <score_type>  (85) 
oracle

>  <origin>  (85) 
adg

>  <m_score__min__energy>  (85) 
-9.9900000000000002

>  <m_primary>  (85) 
energy

$$$$
85:0
     RDKit          3D

 47 50  0  0  0  0  0  0  0  0999 V2000
   58.0070   33.8050   45.6070 C   0  0  0  0  0  0  0  0  0  0  0  0
   57.8940   32.3200   45.4250 C   0  0  0  0  0  0  0  0  0  0  0  0
   57.2130   31.7920   44.3180 C   0  0  0  0  0  0  0  0  0  0  0  0
   57.1150   30.4030   44.1420 C   0  0  0  0  0  0  0  0  0  0  0  0
   56.3350   29.8430   42.9900 C   0  0  0  0  0  0  0  0  0  0  0  0
   57.6790   29.5430   45.0960 C   0  0  0  0  0  0  0  0  0  0  0  0
   58.3800   30.0610   46.1950 C   0  0  0  0  0  0  0  0  0  0  0  0
   58.9080   29.1370   47.2590 C   0  0  0  0  0  0  0  0  0  0  0  0
   60.5700   29.6520   47.8320 S   0  0  0  0  0  0  0  0  0  0  0  0
   59.9710   30.7380   49.1480 C   0  0  0  0  0  0  0  0  0  0  0  0
   59.0150   30.2550   49.9930 N   0  0  0  0  0  0  0  0  0  0  0  0
   58.4490   31.0670   50.9200 C   0  0  0  0  0  0  0  0  0  0  0  0
   58.8600   32.3640   51.0580 C   0  0  0  0  0  0  0  0  0  0  0  0
   59.8480   32.8630   50.2120 C   0  0  0  0  0  0  0  0  0  0  0  0
   60.2270   34.0610   50.3340 O   0  0  0  0  0  0  0  0  0  0  0  0
   60.4000   32.0420   49.2600 N   0  0  0  0  0  0  0  0  0  0  0  0
   61.4190   32.5550   48.3820 C   0  0  0  0  0  0  0  0  0  0  0  0
   61.0640   33.3460   47.2780 C   0  0  0  0  0  0  0  0  0  0  0  0
   62.0510   33.8450   46.4230 C   0  0  0  0  0  0  0  0  0  0  0  0
   63.3980   33.5550   46.6620 C   0  0  0  0  0  0  0  0  0  0  0  0
   63.7580   32.7630   47.7570 C   0  0  0  0  0  0  0  0  0  0  0  0
   62.7740   32.2610   48.6150 C   0  0  0  0  0  0  0  0  0  0  0  0
   63.1380   31.5020   49.6800 F   0  0  0  0  0  0  0  0  0  0  0  0
   57.9970   33.2880   52.3090 S   0  0  0  0  0  0  0  0  0  0  0  0
   56.7340   31.9590   52.3630 C   0  0  0  0  0  0  0  0  0  0  0  0
   57.3360   30.6600   51.8110 C   0  0  0  0  0  0  0  0  0  0  0  0
   58.4990   31.4530   46.3430 C   0  0  0  0  0  0  0  0  0  0  0  0
   58.0251   34.0425   46.6809 H   0  0  0  0  0  0  0  0  0  0  0  0
   58.9349   34.1625   45.1368 H   0  0  0  0  0  0  0  0  0  0  0  0
   57.1438   34.2988   45.1368 H   0  0  0  0  0  0  0  0  0  0  0  0
   56.7534   32.4702   43.5840 H   0  0  0  0  0  0  0  0  0  0  0  0
   55.4972   29.2415   43.3724 H   0  0  0  0  0  0  0  0  0  0  0  0
   55.9441   30.6680   42.3763 H   0  0  0  0  0  0  0  0  0  0  0  0
   56.9917   29.2088   42.3763 H   0  0  0  0  0  0  0  0  0  0  0  0
   57.5707   28.4544   44.9814 H   0  0  0  0  0  0  0  0  0  0  0  0
   58.2167   29.1452   48.1146 H   0  0  0  0  0  0  0  0  0  0  0  0
   58.9887   28.1273   46.8299 H   0  0  0  0  0  0  0  0  0  0  0  0
   58.6820   29.2690   49.8980 H   0  0  0  0  0  0  0  0  0  0  0  0
   60.0053   33.5740   47.0850 H   0  0  0  0  0  0  0  0  0  0  0  0
   61.7677   34.4667   45.5609 H   0  0  0  0  0  0  0  0  0  0  0  0
   64.1738   33.9495   45.9893 H   0  0  0  0  0  0  0  0  0  0  0  0
   64.8176   32.5343   47.9440 H   0  0  0  0  0  0  0  0  0  0  0  0
   56.4118   31.8012   53.4028 H   0  0  0  0  0  0  0  0  0  0  0  0
   55.8675   32.2509   51.7515 H   0  0  0  0  0  0  0  0  0  0  0  0
   57.7146   30.0353   52.6335 H   0  0  0  0  0  0  0  0  0  0  0  0
   56.5840   30.0679   51.2689 H   0  0  0  0  0  0  0  0  0  0  0  0
   59.0720   31.8650   47.1867 H   0  0  0  0  0  0  0  0  0  0  0  0
  1  2  1  0
  2  3  2  0
  3  4  1  0
  4  5  1  0
  4  6  2  0
  6  7  1  0
  7  8  1  0
  8  9  1  0
  9 10  1  0
 10 11  2  0
 11 12  1  0
 12 13  2  0
 13 14  1  0
 14 15  2  0
 14 16  1  0
 16 17  1  0
 17 18  2  0
 18 19  1  0
 19 20  2  0
 20 21  1  0
 21 22  2  0
 22 23  1  0
 13 24  1  0
 24 25  1  0
 25 26  1  0
  7 27  2  0
 27  2  1  0
 16 10  1  0
 22 17  1  0
 26 12  1  0
  1 28  1  0
  1 29  1  0
  1 30  1  0
  3 31  1  0
  5 32  1  0
  5 33  1  0
  5 34  1  0
  6 35  1  0
  8 36  1  0
  8 37  1  0
 11 38  1  0
 18 39  1  0
 19 40  1  0
 20 41  1  0
 21 42  1  0
 25 43  1  0
 25 44  1  0
 26 45  1  0
 26 46  1  0
 27 47  1  0
M  CHG  1  11   1
M  END
>  <UniqueID>  (86) 
83

>  <SMILES>  (86) 
Cc1cc(C)cc(CSc2[nH+]c3c(c(=O)n2-c2ccccc2F)SCC3)c1

>  <Energy>  (86) 
59.13196677331754

>  <Genealogy>  (86) 
Cc1cc(C)cc(CSc2[nH+]c3c(c(=O)n2-c2ccccc2F)SCC3)c1 (protonated)
Cc1cc(C)cc(CSc2[nH+]c3c(c(=O)n2-c2ccccc2F)SCC3)c1 (3D coordinates assigned)
Cc1cc(C)cc(CSc2[nH+]c3c(c(=O)n2-c2ccccc2F)SCC3)c1 (nonaromatic ring conformer: 59.13196677331754 kcal/mol)

>  <smiles>  (86) 
Cc1cc(C)cc(CSc2nc3c(c(=O)n2-c2ccccc2F)SCC3)c1

>  <score_type>  (86) 
oracle

>  <origin>  (86) 
adg

>  <m_score__min__energy>  (86) 
-7.1100000000000003

>  <m_primary>  (86) 
energy

$$$$
86:0
     RDKit          3D

 56 59  0  0  0  0  0  0  0  0999 V2000
   54.0550   26.3370   46.3740 H   0  0  0  0  0  0  0  0  0  0  0  0
   54.9940   26.4010   46.0020 O   0  0  0  0  0  0  0  0  0  0  0  0
   56.0240   25.5960   46.4800 C   0  0  0  0  0  0  0  0  0  0  0  0
   55.8280   24.5810   47.3390 N   0  0  0  0  0  0  0  0  0  0  0  0
   57.0640   24.0560   47.4700 C   0  0  0  0  0  0  0  0  0  0  0  0
   57.3040   23.0630   48.2030 O   0  0  0  0  0  0  0  0  0  0  0  0
   58.0230   24.6730   46.7480 N   0  0  0  0  0  0  0  0  0  0  0  0
   57.3610   25.6710   46.1390 C   0  0  0  0  0  0  0  0  0  0  0  0
   57.9970   26.5980   45.1860 C   0  0  0  0  0  0  0  0  0  0  0  0
   58.3545   26.1651   44.2401 H   0  0  0  0  0  0  0  0  0  0  0  0
   58.1870   27.9320   45.3560 C   0  0  0  0  0  0  0  0  0  0  0  0
   57.3990   28.7960   44.5670 C   0  0  0  0  0  0  0  0  0  0  0  0
   56.7700   28.3714   43.7707 H   0  0  0  0  0  0  0  0  0  0  0  0
   57.3980   30.1820   44.7730 C   0  0  0  0  0  0  0  0  0  0  0  0
   56.5110   31.0600   43.9150 C   0  0  0  0  0  0  0  0  0  0  0  0
   56.5915   32.1000   44.2641 H   0  0  0  0  0  0  0  0  0  0  0  0
   55.4760   30.6981   44.0030 H   0  0  0  0  0  0  0  0  0  0  0  0
   56.9140   30.9970   42.4650 C   0  0  0  0  0  0  0  0  0  0  0  0
   56.7096   30.0798   41.8932 H   0  0  0  0  0  0  0  0  0  0  0  0
   57.5120   32.0220   41.8540 C   0  0  0  0  0  0  0  0  0  0  0  0
   57.7930   31.9421   40.7935 H   0  0  0  0  0  0  0  0  0  0  0  0
   57.7238   32.9466   42.4110 H   0  0  0  0  0  0  0  0  0  0  0  0
   58.1970   30.7030   45.8020 C   0  0  0  0  0  0  0  0  0  0  0  0
   58.1790   32.0960   46.1320 N   0  0  0  0  0  0  0  0  0  0  0  0
   58.1740   32.5180   47.5320 C   0  0  0  0  0  0  0  0  0  0  0  0
   57.1940   32.9564   47.7715 H   0  0  0  0  0  0  0  0  0  0  0  0
   58.3687   31.6380   48.1626 H   0  0  0  0  0  0  0  0  0  0  0  0
   59.2750   33.5670   47.8010 C   0  0  0  0  0  0  0  0  0  0  0  0
   58.9048   34.2661   48.5653 H   0  0  0  0  0  0  0  0  0  0  0  0
   60.1667   33.0104   48.1252 H   0  0  0  0  0  0  0  0  0  0  0  0
   59.6770   34.3540   46.6070 N   0  0  0  0  0  0  0  0  0  0  0  0
   60.9550   33.8740   46.0290 C   0  0  0  0  0  0  0  0  0  0  0  0
   60.7378   33.1369   45.2419 H   0  0  0  0  0  0  0  0  0  0  0  0
   61.4949   34.7382   45.6147 H   0  0  0  0  0  0  0  0  0  0  0  0
   61.8240   33.2290   47.0800 C   0  0  0  0  0  0  0  0  0  0  0  0
   62.7290   34.0010   47.8290 C   0  0  0  0  0  0  0  0  0  0  0  0
   62.8167   35.0811   47.6398 H   0  0  0  0  0  0  0  0  0  0  0  0
   63.5180   33.3990   48.8140 C   0  0  0  0  0  0  0  0  0  0  0  0
   64.2248   34.0063   49.3985 H   0  0  0  0  0  0  0  0  0  0  0  0
   63.4100   32.0270   49.0570 C   0  0  0  0  0  0  0  0  0  0  0  0
   64.0344   31.5544   49.8295 H   0  0  0  0  0  0  0  0  0  0  0  0
   62.5080   31.2550   48.3180 C   0  0  0  0  0  0  0  0  0  0  0  0
   62.4165   30.1769   48.5165 H   0  0  0  0  0  0  0  0  0  0  0  0
   61.7230   31.8510   47.3280 C   0  0  0  0  0  0  0  0  0  0  0  0
   61.0232   31.2383   46.7407 H   0  0  0  0  0  0  0  0  0  0  0  0
   58.5900   34.4690   45.6090 C   0  0  0  0  0  0  0  0  0  0  0  0
   57.7192   34.9444   46.0840 H   0  0  0  0  0  0  0  0  0  0  0  0
   58.9602   35.0736   44.7679 H   0  0  0  0  0  0  0  0  0  0  0  0
   58.1710   33.0970   45.0630 C   0  0  0  0  0  0  0  0  0  0  0  0
   57.1573   33.1690   44.6419 H   0  0  0  0  0  0  0  0  0  0  0  0
   58.8843   32.7911   44.2835 H   0  0  0  0  0  0  0  0  0  0  0  0
   59.0230   29.8790   46.4930 N   0  0  0  0  0  0  0  0  0  0  0  0
   59.0920   28.5370   46.2840 C   0  0  0  0  0  0  0  0  0  0  0  0
   60.0900   27.8900   46.9010 C   0  0  0  0  0  0  0  0  0  0  0  0
   60.7437   28.4286   47.6028 H   0  0  0  0  0  0  0  0  0  0  0  0
   60.2556   26.8202   46.7058 H   0  0  0  0  0  0  0  0  0  0  0  0
  1  2  1  0
  2  3  1  0
  3  4  1  0
  4  5  1  0
  5  6  2  0
  5  7  1  0
  7  8  1  0
  8  9  1  0
  9 10  1  0
  9 11  2  0
 11 12  1  0
 12 13  1  0
 12 14  2  0
 14 15  1  0
 15 16  1  0
 15 17  1  0
 15 18  1  0
 18 19  1  0
 18 20  2  0
 20 21  1  0
 20 22  1  0
 14 23  1  0
 23 24  1  0
 24 25  1  0
 25 26  1  0
 25 27  1  0
 25 28  1  0
 28 29  1  0
 28 30  1  0
 28 31  1  0
 31 32  1  0
 32 33  1  0
 32 34  1  0
 32 35  1  0
 35 36  2  0
 36 37  1  0
 36 38  1  0
 38 39  1  0
 38 40  2  0
 40 41  1  0
 40 42  1  0
 42 43  1  0
 42 44  2  0
 44 45  1  0
 31 46  1  0
 46 47  1  0
 46 48  1  0
 46 49  1  0
 49 50  1  0
 49 51  1  0
 23 52  2  0
 52 53  1  0
 53 54  2  0
 54 55  1  0
 54 56  1  0
  8  3  2  0
 53 11  1  0
 49 24  1  0
 44 35  1  0
M  CHG  2   4  -1   7  -1
M  END
>  <UniqueID>  (87) 
84

>  <SMILES>  (87) 
C=CCc1c/c(=C/c2[n-]c(=O)[n-]c2O)c(=C)nc1N1CCN(Cc2ccccc2)CC1

>  <Energy>  (87) 
120.52426456769892

>  <Genealogy>  (87) 
C=CCc1cc(=Cc2[n-]c(=O)[n-]c2O)c(=C)nc1N1CCN(Cc2ccccc2)CC1 (protonated)
C=CCc1c/c(=C/c2[n-]c(=O)[n-]c2O)c(=C)nc1N1CCN(Cc2ccccc2)CC1 (cis-trans isomerization)
C=CCc1c/c(=C/c2[n-]c(=O)[n-]c2O)c(=C)nc1N1CCN(Cc2ccccc2)CC1 (3D coordinates assigned)
C=CCc1c/c(=C/c2[n-]c(=O)[n-]c2O)c(=C)nc1N1CCN(Cc2ccccc2)CC1 (nonaromatic ring conformer: 120.52426456769892 kcal/mol)

>  <smiles>  (87) 
C=CCc1cc(=Cc2[nH]c(=O)[nH]c2O)c(=C)nc1N1CCN(Cc2ccccc2)CC1

>  <score_type>  (87) 
oracle

>  <origin>  (87) 
adg

>  <m_score__min__energy>  (87) 
-14.93

>  <m_primary>  (87) 
energy

$$$$
87:0
     RDKit          3D

 59 63  0  0  0  0  0  0  0  0999 V2000
   56.8790   22.8670   44.8280 C   0  0  0  0  0  0  0  0  0  0  0  0
   57.0770   23.9410   43.8300 C   0  0  0  0  0  0  0  0  0  0  0  0
   56.5940   23.7140   42.6650 O   0  0  0  0  0  0  0  0  0  0  0  0
   57.7560   25.1620   44.1210 N   0  0  0  0  0  0  0  0  0  0  0  0
   58.3240   25.4730   45.4180 C   0  0  0  0  0  0  0  0  0  0  0  0
   57.7800   26.8650   45.7470 C   0  0  0  0  0  0  0  0  0  0  0  0
   58.3740   27.8050   44.8290 N   0  0  0  0  0  0  0  0  0  0  0  0
   59.6220   28.2200   45.3600 C   0  0  0  0  0  0  0  0  0  0  0  0
   59.6090   28.8420   46.6860 C   0  0  0  0  0  0  0  0  0  0  0  0
   60.0330   28.2490   47.8520 C   0  0  0  0  0  0  0  0  0  0  0  0
   59.9810   28.9220   49.0800 C   0  0  0  0  0  0  0  0  0  0  0  0
   59.4970   30.2100   49.1510 C   0  0  0  0  0  0  0  0  0  0  0  0
   59.0650   30.8160   47.9620 C   0  0  0  0  0  0  0  0  0  0  0  0
   59.1210   30.1510   46.7690 C   0  0  0  0  0  0  0  0  0  0  0  0
   58.5180   32.1920   47.8950 C   0  0  0  0  0  0  0  0  0  0  0  0
   59.2140   33.0170   48.9000 N   0  0  0  0  0  0  0  0  0  0  0  0
   60.2510   33.8200   48.3650 C   0  0  0  0  0  0  0  0  0  0  0  0
   59.9070   34.8120   47.6750 O   0  0  0  0  0  0  0  0  0  0  0  0
   61.6610   33.5810   48.5560 C   0  0  0  0  0  0  0  0  0  0  0  0
   62.4760   33.2710   47.4640 C   0  0  0  0  0  0  0  0  0  0  0  0
   63.8230   33.0420   47.6580 C   0  0  0  0  0  0  0  0  0  0  0  0
   64.3980   33.1100   48.9130 C   0  0  0  0  0  0  0  0  0  0  0  0
   65.6610   32.9330   49.3750 N   0  0  0  0  0  0  0  0  0  0  0  0
   65.6500   33.1250   50.7170 C   0  0  0  0  0  0  0  0  0  0  0  0
   64.3800   33.4150   51.0570 N   0  0  0  0  0  0  0  0  0  0  0  0
   63.5770   33.4160   49.9750 C   0  0  0  0  0  0  0  0  0  0  0  0
   62.2250   33.6520   49.8100 C   0  0  0  0  0  0  0  0  0  0  0  0
   58.9320   33.0630   50.3170 C   0  0  0  0  0  0  0  0  0  0  0  0
   58.5890   31.7300   50.8950 C   0  0  0  0  0  0  0  0  0  0  0  0
   59.5070   30.7470   50.4460 O   0  0  0  0  0  0  0  0  0  0  0  0
   58.2950   27.4970   43.4560 C   0  0  0  0  0  0  0  0  0  0  0  0
   57.8710   26.1270   43.0610 C   0  0  0  0  0  0  0  0  0  0  0  0
   56.9568   23.2888   45.8409 H   0  0  0  0  0  0  0  0  0  0  0  0
   55.8832   22.4196   44.6926 H   0  0  0  0  0  0  0  0  0  0  0  0
   57.6498   22.0940   44.6926 H   0  0  0  0  0  0  0  0  0  0  0  0
   57.9993   24.7400   46.1712 H   0  0  0  0  0  0  0  0  0  0  0  0
   59.4236   25.4427   45.4127 H   0  0  0  0  0  0  0  0  0  0  0  0
   56.6858   26.8742   45.6345 H   0  0  0  0  0  0  0  0  0  0  0  0
   58.0271   27.1361   46.7840 H   0  0  0  0  0  0  0  0  0  0  0  0
   60.2697   27.3327   45.4165 H   0  0  0  0  0  0  0  0  0  0  0  0
   59.9729   29.0092   44.6788 H   0  0  0  0  0  0  0  0  0  0  0  0
   60.4227   27.2208   47.8200 H   0  0  0  0  0  0  0  0  0  0  0  0
   60.3291   28.4183   49.9939 H   0  0  0  0  0  0  0  0  0  0  0  0
   58.7751   30.6555   45.8548 H   0  0  0  0  0  0  0  0  0  0  0  0
   58.6844   32.6098   46.8911 H   0  0  0  0  0  0  0  0  0  0  0  0
   57.4369   32.1801   48.0976 H   0  0  0  0  0  0  0  0  0  0  0  0
   62.0455   33.2097   46.4536 H   0  0  0  0  0  0  0  0  0  0  0  0
   64.4554   32.7991   46.7914 H   0  0  0  0  0  0  0  0  0  0  0  0
   66.5110   32.6940   48.8300 H   0  0  0  0  0  0  0  0  0  0  0  0
   66.5122   33.0570   51.3968 H   0  0  0  0  0  0  0  0  0  0  0  0
   61.5994   33.8967   50.6811 H   0  0  0  0  0  0  0  0  0  0  0  0
   59.8202   33.4509   50.8372 H   0  0  0  0  0  0  0  0  0  0  0  0
   58.0547   33.7125   50.4534 H   0  0  0  0  0  0  0  0  0  0  0  0
   58.6292   31.7894   51.9927 H   0  0  0  0  0  0  0  0  0  0  0  0
   57.5766   31.4490   50.5692 H   0  0  0  0  0  0  0  0  0  0  0  0
   57.5800   28.2011   43.0055 H   0  0  0  0  0  0  0  0  0  0  0  0
   59.3340   27.5707   43.1024 H   0  0  0  0  0  0  0  0  0  0  0  0
   56.8878   26.2083   42.5745 H   0  0  0  0  0  0  0  0  0  0  0  0
   58.6726   25.7500   42.4088 H   0  0  0  0  0  0  0  0  0  0  0  0
  1  2  1  0
  2  3  2  0
  2  4  1  0
  4  5  1  0
  5  6  1  0
  6  7  1  0
  7  8  1  0
  8  9  1  0
  9 10  2  0
 10 11  1  0
 11 12  2  0
 12 13  1  0
 13 14  2  0
 13 15  1  0
 15 16  1  0
 16 17  1  0
 17 18  2  0
 17 19  1  0
 19 20  2  0
 20 21  1  0
 21 22  2  0
 22 23  1  0
 23 24  1  0
 24 25  2  0
 25 26  1  0
 26 27  2  0
 16 28  1  0
 28 29  1  0
 29 30  1  0
  7 31  1  0
 31 32  1  0
 32  4  1  0
 14  9  1  0
 27 19  1  0
 30 12  1  0
 26 22  1  0
  1 33  1  0
  1 34  1  0
  1 35  1  0
  5 36  1  0
  5 37  1  0
  6 38  1  0
  6 39  1  0
  8 40  1  0
  8 41  1  0
 10 42  1  0
 11 43  1  0
 14 44  1  0
 15 45  1  0
 15 46  1  0
 20 47  1  0
 21 48  1  0
 23 49  1  0
 24 50  1  0
 27 51  1  0
 28 52  1  0
 28 53  1  0
 29 54  1  0
 29 55  1  0
 31 56  1  0
 31 57  1  0
 32 58  1  0
 32 59  1  0
M  END
>  <smiles>  (88) 
CC(=O)N1CCN(Cc2ccc3c(c2)CN(C(=O)c2ccc4[nH]cnc4c2)CCO3)CC1

>  <score_type>  (88) 
oracle

>  <origin>  (88) 
adg

>  <m_score__min__energy>  (88) 
-7.2199999999999998

>  <m_primary>  (88) 
energy

$$$$
88:0
     RDKit          3D

 46 49  0  0  1  0  0  0  0  0999 V2000
   60.8030   30.6050   46.7230 C   0  0  0  0  0  0  0  0  0  0  0  0
   59.6070   29.7820   46.6020 N   0  0  0  0  0  0  0  0  0  0  0  0
   59.6570   28.4730   45.9780 C   0  0  0  0  0  0  0  0  0  0  0  0
   60.7550   28.0610   45.5410 O   0  0  0  0  0  0  0  0  0  0  0  0
   58.4030   27.7510   45.9080 C   0  0  0  0  0  0  0  0  0  0  0  0
   58.4450   26.3880   46.0440 C   0  0  0  0  0  0  0  0  0  0  0  0
   57.3520   25.5830   45.9610 N   0  0  0  0  0  0  0  0  0  0  0  0
   57.5250   24.1910   46.1670 C   0  0  1  0  0  0  0  0  0  0  0  0
   56.3290   23.4330   46.6640 C   0  0  0  0  0  0  0  0  0  0  0  0
   56.8420   21.9800   46.6040 C   0  0  2  0  0  0  0  0  0  0  0  0
   57.2910   21.5730   47.8700 O   0  0  0  0  0  0  0  0  0  0  0  0
   57.9930   21.9870   45.6310 C   0  0  1  0  0  0  0  0  0  0  0  0
   57.7970   21.1580   44.5260 O   0  0  0  0  0  0  0  0  0  0  0  0
   56.8780   21.7950   43.7050 C   0  0  0  0  0  0  0  0  0  0  0  0
   56.2330   21.2380   42.7870 O   0  0  0  0  0  0  0  0  0  0  0  0
   56.8040   23.1530   44.0840 O   0  0  0  0  0  0  0  0  0  0  0  0
   57.8810   23.3680   44.9570 C   0  0  1  0  0  0  0  0  0  0  0  0
   56.1780   26.2020   45.7260 C   0  0  0  0  0  0  0  0  0  0  0  0
   55.1230   25.5110   45.6340 O   0  0  0  0  0  0  0  0  0  0  0  0
   56.0970   27.5380   45.5870 N   0  0  0  0  0  0  0  0  0  0  0  0
   57.1950   28.3390   45.6740 C   0  0  0  0  0  0  0  0  0  0  0  0
   57.0230   29.5720   45.6340 N   0  0  0  0  0  0  0  0  0  0  0  0
   57.3380   30.5240   44.6780 C   0  0  0  0  0  0  0  0  0  0  0  0
   57.1160   30.4350   43.3130 C   0  0  0  0  0  0  0  0  0  0  0  0
   57.4000   31.5270   42.4640 C   0  0  0  0  0  0  0  0  0  0  0  0
   57.9170   32.7120   43.0060 C   0  0  0  0  0  0  0  0  0  0  0  0
   58.1430   32.8100   44.3660 C   0  0  0  0  0  0  0  0  0  0  0  0
   58.8560   34.4450   45.0720 Br  0  0  0  0  0  0  0  0  0  0  0  0
   57.8580   31.7410   45.1620 C   0  0  0  0  0  0  0  0  0  0  0  0
   61.0331   30.7633   47.7870 H   0  0  0  0  0  0  0  0  0  0  0  0
   61.6486   30.0967   46.2367 H   0  0  0  0  0  0  0  0  0  0  0  0
   60.6304   31.5764   46.2367 H   0  0  0  0  0  0  0  0  0  0  0  0
   58.6860   30.1500   46.9730 H   0  0  0  0  0  0  0  0  0  0  0  0
   59.4212   25.9169   46.2315 H   0  0  0  0  0  0  0  0  0  0  0  0
   58.3384   24.2741   46.9028 H   0  0  0  0  0  0  0  0  0  0  0  0
   56.0665   23.7247   47.6916 H   0  0  0  0  0  0  0  0  0  0  0  0
   55.4117   23.6100   46.0833 H   0  0  0  0  0  0  0  0  0  0  0  0
   56.0481   21.2855   46.2918 H   0  0  0  0  0  0  0  0  0  0  0  0
   57.7640   22.3520   48.3000 H   0  0  0  0  0  0  0  0  0  0  0  0
   58.9065   21.7088   46.1770 H   0  0  0  0  0  0  0  0  0  0  0  0
   58.7166   23.8194   44.4020 H   0  0  0  0  0  0  0  0  0  0  0  0
   55.1440   27.9530   45.4070 H   0  0  0  0  0  0  0  0  0  0  0  0
   56.7144   29.5040   42.8864 H   0  0  0  0  0  0  0  0  0  0  0  0
   57.2164   31.4482   41.3823 H   0  0  0  0  0  0  0  0  0  0  0  0
   58.1429   33.5644   42.3485 H   0  0  0  0  0  0  0  0  0  0  0  0
   58.0442   31.8333   46.2422 H   0  0  0  0  0  0  0  0  0  0  0  0
  1  2  1  0
  2  3  1  0
  3  4  2  0
  3  5  1  0
  5  6  2  0
  6  7  1  0
  7  8  1  0
  8  9  1  0
  9 10  1  0
 10 11  1  0
 10 12  1  0
 12 13  1  0
 13 14  1  0
 14 15  2  0
 14 16  1  0
 16 17  1  0
  7 18  1  0
 18 19  2  0
 18 20  1  0
 20 21  1  0
 21 22  2  0
 22 23  1  0
 23 24  2  0
 24 25  1  0
 25 26  2  0
 26 27  1  0
 27 28  1  0
 27 29  2  0
 21  5  1  0
 29 23  1  0
 17  8  1  0
 17 12  1  0
  1 30  1  0
  1 31  1  0
  1 32  1  0
  2 33  1  0
  6 34  1  0
  8 35  1  1
  9 36  1  0
  9 37  1  0
 10 38  1  6
 11 39  1  0
 12 40  1  1
 17 41  1  6
 20 42  1  0
 24 43  1  0
 25 44  1  0
 26 45  1  0
 29 46  1  0
M  END
>  <smiles>  (89) 
CNC(=O)c1cn(C2CC(O)C3OC(=O)OC32)c(=O)[nH]c1=Nc1cccc(Br)c1

>  <score_type>  (89) 
oracle

>  <origin>  (89) 
adg

>  <m_score__min__energy>  (89) 
-9.6600000000000001

>  <m_primary>  (89) 
energy

$$$$
89:0
     RDKit          3D

 42 44  0  0  0  0  0  0  0  0999 V2000
   51.2990   32.7410   48.5370 H   0  0  0  0  0  0  0  0  0  0  0  0
   50.7140   32.3630   49.3160 N   0  0  0  0  0  0  0  0  0  0  0  0
   51.2500   31.9680   50.4240 C   0  0  0  0  0  0  0  0  0  0  0  0
   51.0110   32.5790   51.6010 N   0  0  0  0  0  0  0  0  0  0  0  0
   51.7520   31.8760   52.4750 C   0  0  0  0  0  0  0  0  0  0  0  0
   51.8314   32.0807   53.5529 H   0  0  0  0  0  0  0  0  0  0  0  0
   52.3970   30.8570   51.8050 C   0  0  0  0  0  0  0  0  0  0  0  0
   53.4010   29.9320   52.3580 C   0  0  0  0  0  0  0  0  0  0  0  0
   53.0527   28.9376   52.6741 H   0  0  0  0  0  0  0  0  0  0  0  0
   54.7130   30.2060   52.5080 C   0  0  0  0  0  0  0  0  0  0  0  0
   55.6210   29.1610   53.1050 C   0  0  0  0  0  0  0  0  0  0  0  0
   55.7609   29.3690   54.1760 H   0  0  0  0  0  0  0  0  0  0  0  0
   55.1645   28.1688   52.9740 H   0  0  0  0  0  0  0  0  0  0  0  0
   56.9850   29.1850   52.4000 C   0  0  0  0  0  0  0  0  0  0  0  0
   57.6729   28.5069   52.9263 H   0  0  0  0  0  0  0  0  0  0  0  0
   56.8443   28.8624   51.3578 H   0  0  0  0  0  0  0  0  0  0  0  0
   57.5610   30.5490   52.3950 N   0  0  0  0  0  0  0  0  0  0  0  0
   57.6230   30.8730   53.3910 H   0  0  0  0  0  0  0  0  0  0  0  0
   58.9510   30.5690   51.8750 C   0  0  0  0  0  0  0  0  0  0  0  0
   59.6292   30.7941   52.7112 H   0  0  0  0  0  0  0  0  0  0  0  0
   59.1372   29.5801   51.4306 H   0  0  0  0  0  0  0  0  0  0  0  0
   59.1890   31.5910   50.7810 C   0  0  0  0  0  0  0  0  0  0  0  0
   59.6570   32.8770   51.1000 C   0  0  0  0  0  0  0  0  0  0  0  0
   59.8566   33.1423   52.1487 H   0  0  0  0  0  0  0  0  0  0  0  0
   59.8700   33.8200   50.0920 C   0  0  0  0  0  0  0  0  0  0  0  0
   60.2382   34.8241   50.3493 H   0  0  0  0  0  0  0  0  0  0  0  0
   59.6170   33.4920   48.7590 C   0  0  0  0  0  0  0  0  0  0  0  0
   59.7781   34.2414   47.9701 H   0  0  0  0  0  0  0  0  0  0  0  0
   59.1580   32.2100   48.4220 C   0  0  0  0  0  0  0  0  0  0  0  0
   58.8470   31.8690   46.9950 C   0  0  0  0  0  0  0  0  0  0  0  0
   58.1060   31.0566   46.9653 H   0  0  0  0  0  0  0  0  0  0  0  0
   58.4398   32.7554   46.4866 H   0  0  0  0  0  0  0  0  0  0  0  0
   59.7670   31.5449   46.4866 H   0  0  0  0  0  0  0  0  0  0  0  0
   58.9260   31.2700   49.4390 C   0  0  0  0  0  0  0  0  0  0  0  0
   58.5352   30.2742   49.1827 H   0  0  0  0  0  0  0  0  0  0  0  0
   56.6780   31.4910   51.6670 C   0  0  0  0  0  0  0  0  0  0  0  0
   57.1449   32.4869   51.6569 H   0  0  0  0  0  0  0  0  0  0  0  0
   56.5397   31.1200   50.6407 H   0  0  0  0  0  0  0  0  0  0  0  0
   55.3040   31.5880   52.3410 C   0  0  0  0  0  0  0  0  0  0  0  0
   55.4149   32.0589   53.3289 H   0  0  0  0  0  0  0  0  0  0  0  0
   54.6348   32.1942   51.7127 H   0  0  0  0  0  0  0  0  0  0  0  0
   52.1040   30.9250   50.4950 N   0  0  0  0  0  0  0  0  0  0  0  0
  1  2  1  0
  2  3  2  0
  3  4  1  0
  4  5  1  0
  5  6  1  0
  5  7  2  0
  7  8  1  0
  8  9  1  0
  8 10  2  3
 10 11  1  0
 11 12  1  0
 11 13  1  0
 11 14  1  0
 14 15  1  0
 14 16  1  0
 14 17  1  0
 17 18  1  0
 17 19  1  0
 19 20  1  0
 19 21  1  0
 19 22  1  0
 22 23  2  0
 23 24  1  0
 23 25  1  0
 25 26  1  0
 25 27  2  0
 27 28  1  0
 27 29  1  0
 29 30  1  0
 30 31  1  0
 30 32  1  0
 30 33  1  0
 29 34  2  0
 34 35  1  0
 17 36  1  0
 36 37  1  0
 36 38  1  0
 36 39  1  0
 39 40  1  0
 39 41  1  0
  7 42  1  0
 42  3  1  0
 39 10  1  0
 34 22  1  0
M  CHG  3   4  -1  17   1  42  -1
M  END
>  <UniqueID>  (90) 
85

>  <SMILES>  (90) 
[H]/N=c1/[n-]cc(C=C2CC[NH+](Cc3cccc(C)c3)CC2)[n-]1

>  <Energy>  (90) 
79.25044895588638

>  <Genealogy>  (90) 
Cc1cccc(C[NH+]2CCC(=Cc3c[n-]c(=N)[n-]3)CC2)c1 (protonated)
[H]/N=c1/[n-]cc(C=C2CC[NH+](Cc3cccc(C)c3)CC2)[n-]1 (cis-trans isomerization)
[H]/N=c1/[n-]cc(C=C2CC[NH+](Cc3cccc(C)c3)CC2)[n-]1 (3D coordinates assigned)
[H]/N=c1/[n-]cc(C=C2CC[NH+](Cc3cccc(C)c3)CC2)[n-]1 (nonaromatic ring conformer: 79.25044895588638 kcal/mol)

>  <smiles>  (90) 
Cc1cccc(CN2CCC(=Cc3c[nH]c(=N)[nH]3)CC2)c1

>  <score_type>  (90) 
oracle

>  <origin>  (90) 
adg

>  <m_score__min__energy>  (90) 
-10.67

>  <m_primary>  (90) 
energy

$$$$
