0:0
     RDKit          3D

 53 56  0  0  0  0  0  0  0  0999 V2000
   57.2150   23.1190   46.0640 C   0  0  0  0  0  0  0  0  0  0  0  0
   58.3440   23.8310   46.0570 C   0  0  0  0  0  0  0  0  0  0  0  0
   59.4760   23.3150   45.6310 O   0  0  0  0  0  0  0  0  0  0  0  0
   60.4020   24.2430   45.6260 C   0  0  0  0  0  0  0  0  0  0  0  0
   59.8700   25.4330   46.0780 C   0  0  0  0  0  0  0  0  0  0  0  0
   60.6240   26.7310   46.1940 C   0  0  0  0  0  0  0  0  0  0  0  0
   60.8100   27.1570   47.6300 C   0  0  0  0  0  0  0  0  0  0  0  0
   61.2480   26.3230   48.4730 O   0  0  0  0  0  0  0  0  0  0  0  0
   60.5440   28.5140   48.0440 N   0  0  0  0  0  0  0  0  0  0  0  0
   60.4730   29.5910   47.0420 C   0  0  0  0  0  0  0  0  0  0  0  0
   60.5570   30.9800   47.6850 C   0  0  0  0  0  0  0  0  0  0  0  0
   59.6260   31.0840   48.8170 N   0  0  0  0  0  0  0  0  0  0  0  0
   58.9250   32.3140   49.1010 C   0  0  0  0  0  0  0  0  0  0  0  0
   57.8730   32.2790   49.7980 O   0  0  0  0  0  0  0  0  0  0  0  0
   59.3940   33.6330   48.5410 C   0  0  0  0  0  0  0  0  0  0  0  0
   58.8510   33.8740   47.1560 C   0  0  0  0  0  0  0  0  0  0  0  0
   57.6210   33.3150   46.7710 C   0  0  0  0  0  0  0  0  0  0  0  0
   57.1290   33.5150   45.4780 C   0  0  0  0  0  0  0  0  0  0  0  0
   57.8650   34.2670   44.5580 C   0  0  0  0  0  0  0  0  0  0  0  0
   59.0960   34.8170   44.9290 C   0  0  0  0  0  0  0  0  0  0  0  0
   59.5910   34.6180   46.2220 C   0  0  0  0  0  0  0  0  0  0  0  0
   59.4440   29.9430   49.7280 C   0  0  0  0  0  0  0  0  0  0  0  0
   60.4790   28.8420   49.4750 C   0  0  0  0  0  0  0  0  0  0  0  0
   58.5360   25.1810   46.3900 C   0  0  0  0  0  0  0  0  0  0  0  0
   57.6800   26.0970   46.8900 C   0  0  0  0  0  0  0  0  0  0  0  0
   57.1560   27.2620   46.1630 C   0  0  0  0  0  0  0  0  0  0  0  0
   57.8080   28.4330   46.0680 N   0  0  0  0  0  0  0  0  0  0  0  0
   56.9150   29.2370   45.4490 C   0  0  0  0  0  0  0  0  0  0  0  0
   57.1690   30.4350   45.1600 O   0  0  0  0  0  0  0  0  0  0  0  0
   55.7260   28.6590   45.1750 N   0  0  0  0  0  0  0  0  0  0  0  0
   55.8890   27.4140   45.6480 C   0  0  0  0  0  0  0  0  0  0  0  0
   54.8920   26.4460   45.6320 O   0  0  0  0  0  0  0  0  0  0  0  0
   56.2806   23.5732   46.4253 H   0  0  0  0  0  0  0  0  0  0  0  0
   57.2190   22.0780   45.7085 H   0  0  0  0  0  0  0  0  0  0  0  0
   61.4450   24.0953   45.3094 H   0  0  0  0  0  0  0  0  0  0  0  0
   61.6138   26.6082   45.7301 H   0  0  0  0  0  0  0  0  0  0  0  0
   60.0364   27.5091   45.6848 H   0  0  0  0  0  0  0  0  0  0  0  0
   61.3088   29.4752   46.3363 H   0  0  0  0  0  0  0  0  0  0  0  0
   59.5040   29.5129   46.5273 H   0  0  0  0  0  0  0  0  0  0  0  0
   61.5827   31.1506   48.0439 H   0  0  0  0  0  0  0  0  0  0  0  0
   60.2859   31.7355   46.9329 H   0  0  0  0  0  0  0  0  0  0  0  0
   59.0540   34.4428   49.2033 H   0  0  0  0  0  0  0  0  0  0  0  0
   60.4920   33.6092   48.4800 H   0  0  0  0  0  0  0  0  0  0  0  0
   57.0423   32.7171   47.4905 H   0  0  0  0  0  0  0  0  0  0  0  0
   56.1621   33.0803   45.1844 H   0  0  0  0  0  0  0  0  0  0  0  0
   57.4757   34.4263   43.5416 H   0  0  0  0  0  0  0  0  0  0  0  0
   59.6755   35.4066   44.2034 H   0  0  0  0  0  0  0  0  0  0  0  0
   60.5632   35.0456   46.5085 H   0  0  0  0  0  0  0  0  0  0  0  0
   59.5456   30.2956   50.7650 H   0  0  0  0  0  0  0  0  0  0  0  0
   58.4443   29.5198   49.5504 H   0  0  0  0  0  0  0  0  0  0  0  0
   61.4668   29.1898   49.8117 H   0  0  0  0  0  0  0  0  0  0  0  0
   60.1830   27.9413   50.0328 H   0  0  0  0  0  0  0  0  0  0  0  0
   57.3464   25.9601   47.9292 H   0  0  0  0  0  0  0  0  0  0  0  0
  1  2  2  0
  2  3  1  0
  3  4  1  0
  4  5  2  0
  5  6  1  0
  6  7  1  0
  7  8  2  0
  7  9  1  0
  9 10  1  0
 10 11  1  0
 11 12  1  0
 12 13  1  0
 13 14  2  0
 13 15  1  0
 15 16  1  0
 16 17  2  0
 17 18  1  0
 18 19  2  0
 19 20  1  0
 20 21  2  0
 12 22  1  0
 22 23  1  0
  5 24  1  0
 24 25  2  3
 25 26  1  0
 26 27  1  0
 27 28  1  0
 28 29  2  0
 28 30  1  0
 30 31  1  0
 31 32  1  0
 24  2  1  0
 31 26  2  0
 23  9  1  0
 21 16  1  0
  1 33  1  0
  1 34  1  0
  4 35  1  0
  6 36  1  0
  6 37  1  0
 10 38  1  0
 10 39  1  0
 11 40  1  0
 11 41  1  0
 15 42  1  0
 15 43  1  0
 17 44  1  0
 18 45  1  0
 19 46  1  0
 20 47  1  0
 21 48  1  0
 22 49  1  0
 22 50  1  0
 23 51  1  0
 23 52  1  0
 25 53  1  0
M  CHG  3  27  -1  30  -1  32  -1
M  END
>  <UniqueID>  (1) 
1

>  <SMILES>  (1) 
C=c1occ(CC(=O)N2CCN(C(=O)Cc3ccccc3)CC2)c1=Cc1[n-]c(=O)[n-]c1[O-]

>  <Energy>  (1) 
126.37737761045217

>  <Genealogy>  (1) 
C=c1occ(CC(=O)N2CCN(C(=O)Cc3ccccc3)CC2)c1=Cc1[n-]c(=O)[n-]c1[O-] (protonated)
C=c1occ(CC(=O)N2CCN(C(=O)Cc3ccccc3)CC2)c1=Cc1[n-]c(=O)[n-]c1[O-] (3D coordinates assigned)
C=c1occ(CC(=O)N2CCN(C(=O)Cc3ccccc3)CC2)c1=Cc1[n-]c(=O)[n-]c1[O-] (nonaromatic ring conformer: 126.37737761045217 kcal/mol)

>  <smiles>  (1) 
C=c1occ(CC(=O)N2CCN(C(=O)Cc3ccccc3)CC2)c1=Cc1[nH]c(=O)[nH]c1O

>  <score_type>  (1) 
oracle

>  <origin>  (1) 
adg

>  <m_score__min__energy>  (1) 
-18.280000000000001

>  <m_primary>  (1) 
energy

$$$$
1:0
     RDKit          3D

 38 39  0  0  0  0  0  0  0  0999 V2000
   56.8607   20.8663   42.8732 H   0  0  0  0  0  0  0  0  0  0  0  0
   57.5430   21.1900   43.6730 C   0  0  0  0  0  0  0  0  0  0  0  0
   58.3682   20.5355   43.9903 H   0  0  0  0  0  0  0  0  0  0  0  0
   57.3700   22.3740   44.2570 C   0  0  0  0  0  0  0  0  0  0  0  0
   58.3350   22.9940   45.4890 S   0  0  0  0  0  0  0  0  0  0  0  0
   57.4540   24.4350   45.6050 C   0  0  0  0  0  0  0  0  0  0  0  0
   57.6860   25.4350   46.4670 C   0  0  0  0  0  0  0  0  0  0  0  0
   57.7354   25.1992   47.5403 H   0  0  0  0  0  0  0  0  0  0  0  0
   57.8790   26.8410   46.0460 C   0  0  0  0  0  0  0  0  0  0  0  0
   56.8020   27.6260   45.6240 C   0  0  0  0  0  0  0  0  0  0  0  0
   55.5190   27.0800   45.6140 O   0  0  0  0  0  0  0  0  0  0  0  0
   57.0030   28.9230   45.2330 N   0  0  0  0  0  0  0  0  0  0  0  0
   55.8640   29.7170   44.7320 C   0  0  0  0  0  0  0  0  0  0  0  0
   54.9240   29.2484   45.0587 H   0  0  0  0  0  0  0  0  0  0  0  0
   55.9370   30.7384   45.1338 H   0  0  0  0  0  0  0  0  0  0  0  0
   55.8900   29.7820   43.2080 C   0  0  0  0  0  0  0  0  0  0  0  0
   56.2810   30.7595   42.8893 H   0  0  0  0  0  0  0  0  0  0  0  0
   56.5378   28.9831   42.8179 H   0  0  0  0  0  0  0  0  0  0  0  0
   54.8700   29.6502   42.8179 H   0  0  0  0  0  0  0  0  0  0  0  0
   58.2650   29.4600   45.2560 C   0  0  0  0  0  0  0  0  0  0  0  0
   58.4520   30.6380   44.8400 O   0  0  0  0  0  0  0  0  0  0  0  0
   59.3300   28.7280   45.7240 N   0  0  0  0  0  0  0  0  0  0  0  0
   60.6830   29.3220   45.7480 C   0  0  0  0  0  0  0  0  0  0  0  0
   61.4324   28.5222   45.6552 H   0  0  0  0  0  0  0  0  0  0  0  0
   60.7797   30.0272   44.9094 H   0  0  0  0  0  0  0  0  0  0  0  0
   60.9080   30.0760   47.0630 C   0  0  0  0  0  0  0  0  0  0  0  0
   60.2066   29.6942   47.8195 H   0  0  0  0  0  0  0  0  0  0  0  0
   61.9487   29.9160   47.3814 H   0  0  0  0  0  0  0  0  0  0  0  0
   60.6830   31.5740   46.8880 C   0  0  0  0  0  0  0  0  0  0  0  0
   60.6112   32.0519   47.8762 H   0  0  0  0  0  0  0  0  0  0  0  0
   61.5259   32.0088   46.3308 H   0  0  0  0  0  0  0  0  0  0  0  0
   59.7496   31.7419   46.3308 H   0  0  0  0  0  0  0  0  0  0  0  0
   59.1480   27.4260   46.1080 C   0  0  0  0  0  0  0  0  0  0  0  0
   60.1290   26.7360   46.5070 O   0  0  0  0  0  0  0  0  0  0  0  0
   56.4280   24.4430   44.7210 N   0  0  0  0  0  0  0  0  0  0  0  0
   55.7450   25.2280   44.6210 H   0  0  0  0  0  0  0  0  0  0  0  0
   56.3780   23.3100   43.9720 C   0  0  0  0  0  0  0  0  0  0  0  0
   55.4930   23.1340   43.0910 O   0  0  0  0  0  0  0  0  0  0  0  0
  1  2  1  0
  2  3  1  0
  2  4  2  0
  4  5  1  0
  5  6  1  0
  6  7  2  0
  7  8  1  0
  7  9  1  0
  9 10  2  0
 10 11  1  0
 10 12  1  0
 12 13  1  0
 13 14  1  0
 13 15  1  0
 13 16  1  0
 16 17  1  0
 16 18  1  0
 16 19  1  0
 12 20  1  0
 20 21  2  0
 20 22  1  0
 22 23  1  0
 23 24  1  0
 23 25  1  0
 23 26  1  0
 26 27  1  0
 26 28  1  0
 26 29  1  0
 29 30  1  0
 29 31  1  0
 29 32  1  0
 22 33  1  0
 33 34  2  0
  6 35  1  0
 35 36  1  0
 35 37  1  0
 37 38  2  0
 37  4  1  0
 33  9  1  0
M  CHG  1  11  -1
M  END
>  <UniqueID>  (2) 
2

>  <SMILES>  (2) 
C=c1s/c(=C\c2c([O-])n(CC)c(=O)n(CCC)c2=O)[nH]c1=O

>  <Energy>  (2) 
75.72099994291982

>  <Genealogy>  (2) 
C=c1sc(=Cc2c([O-])n(CC)c(=O)n(CCC)c2=O)[nH]c1=O (protonated)
C=c1s/c(=C\c2c([O-])n(CC)c(=O)n(CCC)c2=O)[nH]c1=O (cis-trans isomerization)
C=c1s/c(=C\c2c([O-])n(CC)c(=O)n(CCC)c2=O)[nH]c1=O (3D coordinates assigned)
C=c1s/c(=C\c2c([O-])n(CC)c(=O)n(CCC)c2=O)[nH]c1=O (optimized conformer: 75.72099994291982 kcal/mol)

>  <smiles>  (2) 
C=c1sc(=Cc2c(O)n(CC)c(=O)n(CCC)c2=O)[nH]c1=O

>  <score_type>  (2) 
oracle

>  <origin>  (2) 
adg

>  <m_score__min__energy>  (2) 
-10.76

>  <m_primary>  (2) 
energy

$$$$
2:0
     RDKit          3D

 46 49  0  0  0  0  0  0  0  0999 V2000
   56.2900   29.4150   45.2570 O   0  0  0  0  0  0  0  0  0  0  0  0
   57.4110   28.9650   45.6190 C   0  0  0  0  0  0  0  0  0  0  0  0
   58.5520   29.8420   45.6600 N   0  0  0  0  0  0  0  0  0  0  0  0
   58.4900   31.2210   45.2670 C   0  0  0  0  0  0  0  0  0  0  0  0
   59.0890   32.1910   46.0830 C   0  0  0  0  0  0  0  0  0  0  0  0
   59.0590   33.5450   45.7210 C   0  0  0  0  0  0  0  0  0  0  0  0
   59.8080   34.7600   46.7590 S   0  0  0  0  0  0  0  0  0  0  0  0
   58.8940   35.0530   47.9170 O   0  0  0  0  0  0  0  0  0  0  0  0
   59.9880   36.0320   45.9770 O   0  0  0  0  0  0  0  0  0  0  0  0
   61.3590   34.2330   47.3650 N   0  0  0  0  0  0  0  0  0  0  0  0
   62.2230   33.7950   46.2600 C   0  0  0  0  0  0  0  0  0  0  0  0
   63.5960   33.3520   46.8090 C   0  0  0  0  0  0  0  0  0  0  0  0
   63.6200   33.3170   48.2270 O   0  0  0  0  0  0  0  0  0  0  0  0
   62.5530   32.5230   48.7060 C   0  0  0  0  0  0  0  0  0  0  0  0
   61.1890   33.1440   48.3410 C   0  0  0  0  0  0  0  0  0  0  0  0
   58.4350   33.9260   44.5270 C   0  0  0  0  0  0  0  0  0  0  0  0
   57.8600   32.9630   43.6940 C   0  0  0  0  0  0  0  0  0  0  0  0
   57.8950   31.6120   44.0520 C   0  0  0  0  0  0  0  0  0  0  0  0
   57.3670   30.6650   43.1820 O   0  0  0  0  0  0  0  0  0  0  0  0
   57.5240   27.5350   45.9990 C   0  0  0  0  0  0  0  0  0  0  0  0
   58.7600   26.9710   46.3700 C   0  0  0  0  0  0  0  0  0  0  0  0
   58.8470   25.6210   46.7290 C   0  0  0  0  0  0  0  0  0  0  0  0
   57.7020   24.8230   46.7300 C   0  0  0  0  0  0  0  0  0  0  0  0
   57.7710   23.5100   47.0760 N   0  0  0  0  0  0  0  0  0  0  0  0
   56.6620   22.7250   47.0820 C   0  0  0  0  0  0  0  0  0  0  0  0
   56.7560   21.5120   47.4070 O   0  0  0  0  0  0  0  0  0  0  0  0
   55.4230   23.2780   46.7260 C   0  0  0  0  0  0  0  0  0  0  0  0
   54.3790   22.5720   46.7240 O   0  0  0  0  0  0  0  0  0  0  0  0
   55.3510   24.5910   46.3800 N   0  0  0  0  0  0  0  0  0  0  0  0
   56.4590   25.3790   46.3720 C   0  0  0  0  0  0  0  0  0  0  0  0
   56.3710   26.7280   46.0140 C   0  0  0  0  0  0  0  0  0  0  0  0
   59.4480   29.5070   46.0760 H   0  0  0  0  0  0  0  0  0  0  0  0
   59.5869   31.8869   47.0155 H   0  0  0  0  0  0  0  0  0  0  0  0
   61.7487   32.9500   45.7393 H   0  0  0  0  0  0  0  0  0  0  0  0
   62.3662   34.6310   45.5596 H   0  0  0  0  0  0  0  0  0  0  0  0
   63.8230   32.3462   46.4259 H   0  0  0  0  0  0  0  0  0  0  0  0
   64.3453   34.0854   46.4765 H   0  0  0  0  0  0  0  0  0  0  0  0
   62.6224   31.5206   48.2583 H   0  0  0  0  0  0  0  0  0  0  0  0
   62.6271   32.4639   49.8019 H   0  0  0  0  0  0  0  0  0  0  0  0
   60.5429   32.3670   47.9065 H   0  0  0  0  0  0  0  0  0  0  0  0
   60.7310   33.5541   49.2532 H   0  0  0  0  0  0  0  0  0  0  0  0
   58.3973   34.9882   44.2435 H   0  0  0  0  0  0  0  0  0  0  0  0
   57.3782   33.2687   42.7535 H   0  0  0  0  0  0  0  0  0  0  0  0
   59.6646   27.5968   46.3777 H   0  0  0  0  0  0  0  0  0  0  0  0
   59.8185   25.1887   47.0106 H   0  0  0  0  0  0  0  0  0  0  0  0
   55.3965   27.1602   45.7430 H   0  0  0  0  0  0  0  0  0  0  0  0
  1  2  2  0
  2  3  1  0
  3  4  1  0
  4  5  2  0
  5  6  1  0
  6  7  1  0
  7  8  2  0
  7  9  2  0
  7 10  1  0
 10 11  1  0
 11 12  1  0
 12 13  1  0
 13 14  1  0
 14 15  1  0
  6 16  2  0
 16 17  1  0
 17 18  2  0
 18 19  1  0
  2 20  1  0
 20 21  2  0
 21 22  1  0
 22 23  2  0
 23 24  1  0
 24 25  1  0
 25 26  2  0
 25 27  1  0
 27 28  2  0
 27 29  1  0
 29 30  1  0
 30 31  2  0
 18  4  1  0
 31 20  1  0
 15 10  1  0
 30 23  1  0
  3 32  1  0
  5 33  1  0
 11 34  1  0
 11 35  1  0
 12 36  1  0
 12 37  1  0
 14 38  1  0
 14 39  1  0
 15 40  1  0
 15 41  1  0
 16 42  1  0
 17 43  1  0
 21 44  1  0
 22 45  1  0
 31 46  1  0
M  CHG  3  19  -1  24  -1  29  -1
M  END
>  <UniqueID>  (3) 
3

>  <SMILES>  (3) 
O=C(Nc1cc(S(=O)(=O)N2CCOCC2)ccc1[O-])c1ccc2[n-]c(=O)c(=O)[n-]c2c1

>  <Energy>  (3) 
70.13338702341937

>  <Genealogy>  (3) 
O=C(Nc1cc(S(=O)(=O)N2CCOCC2)ccc1[O-])c1ccc2[n-]c(=O)c(=O)[n-]c2c1 (protonated)
O=C(Nc1cc(S(=O)(=O)N2CCOCC2)ccc1[O-])c1ccc2[n-]c(=O)c(=O)[n-]c2c1 (3D coordinates assigned)
O=C(Nc1cc(S(=O)(=O)N2CCOCC2)ccc1[O-])c1ccc2[n-]c(=O)c(=O)[n-]c2c1 (nonaromatic ring conformer: 70.13338702341937 kcal/mol)

>  <smiles>  (3) 
O=C(Nc1cc(S(=O)(=O)N2CCOCC2)ccc1O)c1ccc2[nH]c(=O)c(=O)[nH]c2c1

>  <score_type>  (3) 
oracle

>  <origin>  (3) 
adg

>  <m_score__min__energy>  (3) 
-13.33

>  <m_primary>  (3) 
energy

$$$$
3:0
     RDKit          3D

 71 75  0  0  0  0  0  0  0  0999 V2000
   57.0490   29.2420   43.6730 C   0  0  0  0  0  0  0  0  0  0  0  0
   57.5440   30.5230   44.2900 C   0  0  0  0  0  0  0  0  0  0  0  0
   57.4210   31.7130   43.5510 C   0  0  0  0  0  0  0  0  0  0  0  0
   57.8300   32.9310   44.0930 C   0  0  0  0  0  0  0  0  0  0  0  0
   58.3680   32.9800   45.3790 C   0  0  0  0  0  0  0  0  0  0  0  0
   58.5170   31.8070   46.1200 C   0  0  0  0  0  0  0  0  0  0  0  0
   58.1390   30.5660   45.5770 C   0  0  0  0  0  0  0  0  0  0  0  0
   58.4040   29.3450   46.3710 C   0  0  0  0  0  0  0  0  0  0  0  0
   57.4370   28.6050   46.6900 O   0  0  0  0  0  0  0  0  0  0  0  0
   59.7290   28.9570   46.7590 N   0  0  0  0  0  0  0  0  0  0  0  0
   60.2820   28.9790   48.0830 C   0  0  0  0  0  0  0  0  0  0  0  0
   60.6040   30.2140   48.6580 C   0  0  0  0  0  0  0  0  0  0  0  0
   61.1530   30.2770   49.9420 C   0  0  0  0  0  0  0  0  0  0  0  0
   61.4080   29.1010   50.6670 C   0  0  0  0  0  0  0  0  0  0  0  0
   61.9840   29.2060   52.0290 C   0  0  0  0  0  0  0  0  0  0  0  0
   63.2420   29.2280   52.1300 O   0  0  0  0  0  0  0  0  0  0  0  0
   61.1790   29.2490   53.2410 N   0  0  0  0  0  0  0  0  0  0  0  0
   59.9900   28.3620   53.1830 C   0  0  0  0  0  0  0  0  0  0  0  0
   58.7900   28.9810   52.4470 C   0  0  0  0  0  0  0  0  0  0  0  0
   58.6570   30.4160   52.7200 N   0  0  0  0  0  0  0  0  0  0  0  0
   57.6840   31.1790   51.9670 C   0  0  0  0  0  0  0  0  0  0  0  0
   56.8420   30.5750   51.2460 O   0  0  0  0  0  0  0  0  0  0  0  0
   57.6400   32.6820   51.9970 C   0  0  0  0  0  0  0  0  0  0  0  0
   59.0190   33.2810   51.8860 C   0  0  0  0  0  0  0  0  0  0  0  0
   59.5850   33.7310   52.9230 O   0  0  0  0  0  0  0  0  0  0  0  0
   59.7020   33.3530   50.6190 N   0  0  0  0  0  0  0  0  0  0  0  0
   58.9680   33.1130   49.3660 C   0  0  0  0  0  0  0  0  0  0  0  0
   59.5440   33.9560   48.2310 C   0  0  0  0  0  0  0  0  0  0  0  0
   61.0180   33.7080   48.1030 C   0  0  0  0  0  0  0  0  0  0  0  0
   61.6380   33.7410   46.8450 C   0  0  0  0  0  0  0  0  0  0  0  0
   63.0150   33.5340   46.7360 C   0  0  0  0  0  0  0  0  0  0  0  0
   63.7830   33.3080   47.8800 C   0  0  0  0  0  0  0  0  0  0  0  0
   63.1760   33.2930   49.1380 C   0  0  0  0  0  0  0  0  0  0  0  0
   61.7910   33.4890   49.2590 C   0  0  0  0  0  0  0  0  0  0  0  0
   61.1640   33.5450   50.6330 C   0  0  0  0  0  0  0  0  0  0  0  0
   59.4230   30.9860   53.8340 C   0  0  0  0  0  0  0  0  0  0  0  0
   60.9140   30.6400   53.7040 C   0  0  0  0  0  0  0  0  0  0  0  0
   61.0710   27.8620   50.0940 C   0  0  0  0  0  0  0  0  0  0  0  0
   60.5450   27.8000   48.8020 C   0  0  0  0  0  0  0  0  0  0  0  0
   56.7753   28.5336   44.4687 H   0  0  0  0  0  0  0  0  0  0  0  0
   56.1673   29.4520   43.0497 H   0  0  0  0  0  0  0  0  0  0  0  0
   57.8428   28.8045   43.0497 H   0  0  0  0  0  0  0  0  0  0  0  0
   56.9982   31.6828   42.5359 H   0  0  0  0  0  0  0  0  0  0  0  0
   57.7281   33.8551   43.5051 H   0  0  0  0  0  0  0  0  0  0  0  0
   58.6752   33.9445   45.8096 H   0  0  0  0  0  0  0  0  0  0  0  0
   58.9335   31.8534   47.1371 H   0  0  0  0  0  0  0  0  0  0  0  0
   60.4237   31.1418   48.0953 H   0  0  0  0  0  0  0  0  0  0  0  0
   61.3871   31.2548   50.3881 H   0  0  0  0  0  0  0  0  0  0  0  0
   61.7800   28.8150   53.9830 H   0  0  0  0  0  0  0  0  0  0  0  0
   60.2741   27.4344   52.6645 H   0  0  0  0  0  0  0  0  0  0  0  0
   59.6722   28.1834   54.2209 H   0  0  0  0  0  0  0  0  0  0  0  0
   58.9244   28.8366   51.3648 H   0  0  0  0  0  0  0  0  0  0  0  0
   57.8778   28.4816   52.8055 H   0  0  0  0  0  0  0  0  0  0  0  0
   57.0276   33.0379   51.1553 H   0  0  0  0  0  0  0  0  0  0  0  0
   57.2063   32.9939   52.9586 H   0  0  0  0  0  0  0  0  0  0  0  0
   59.0463   32.0485   49.1003 H   0  0  0  0  0  0  0  0  0  0  0  0
   57.9149   33.3938   49.5147 H   0  0  0  0  0  0  0  0  0  0  0  0
   59.0462   33.6858   47.2880 H   0  0  0  0  0  0  0  0  0  0  0  0
   59.3753   35.0205   48.4511 H   0  0  0  0  0  0  0  0  0  0  0  0
   61.0384   33.9303   45.9425 H   0  0  0  0  0  0  0  0  0  0  0  0
   63.4955   33.5491   45.7466 H   0  0  0  0  0  0  0  0  0  0  0  0
   64.8667   33.1417   47.7905 H   0  0  0  0  0  0  0  0  0  0  0  0
   63.7860   33.1268   50.0382 H   0  0  0  0  0  0  0  0  0  0  0  0
   61.6132   32.7556   51.2535 H   0  0  0  0  0  0  0  0  0  0  0  0
   61.3551   34.5506   51.0359 H   0  0  0  0  0  0  0  0  0  0  0  0
   59.3049   32.0796   53.8306 H   0  0  0  0  0  0  0  0  0  0  0  0
   59.0436   30.5629   54.7758 H   0  0  0  0  0  0  0  0  0  0  0  0
   61.3683   31.3360   52.9835 H   0  0  0  0  0  0  0  0  0  0  0  0
   61.3480   30.7265   54.7111 H   0  0  0  0  0  0  0  0  0  0  0  0
   61.2227   26.9355   50.6673 H   0  0  0  0  0  0  0  0  0  0  0  0
   60.3351   26.8222   48.3438 H   0  0  0  0  0  0  0  0  0  0  0  0
  1  2  1  0
  2  3  2  0
  3  4  1  0
  4  5  2  0
  5  6  1  0
  6  7  2  0
  7  8  1  0
  8  9  2  0
  8 10  1  0
 10 11  1  0
 11 12  2  0
 12 13  1  0
 13 14  2  0
 14 15  1  0
 15 16  2  0
 15 17  1  0
 17 18  1  0
 18 19  1  0
 19 20  1  0
 20 21  1  0
 21 22  2  0
 21 23  1  0
 23 24  1  0
 24 25  2  0
 24 26  1  0
 26 27  1  0
 27 28  1  0
 28 29  1  0
 29 30  2  0
 30 31  1  0
 31 32  2  0
 32 33  1  0
 33 34  2  0
 34 35  1  0
 20 36  1  0
 36 37  1  0
 14 38  1  0
 38 39  2  0
  7  2  1  0
 39 11  1  0
 37 17  1  0
 35 26  1  0
 34 29  1  0
  1 40  1  0
  1 41  1  0
  1 42  1  0
  3 43  1  0
  4 44  1  0
  5 45  1  0
  6 46  1  0
 12 47  1  0
 13 48  1  0
 17 49  1  0
 18 50  1  0
 18 51  1  0
 19 52  1  0
 19 53  1  0
 23 54  1  0
 23 55  1  0
 27 56  1  0
 27 57  1  0
 28 58  1  0
 28 59  1  0
 30 60  1  0
 31 61  1  0
 32 62  1  0
 33 63  1  0
 35 64  1  0
 35 65  1  0
 36 66  1  0
 36 67  1  0
 37 68  1  0
 37 69  1  0
 38 70  1  0
 39 71  1  0
M  CHG  2  10  -1  17   1
M  END
>  <UniqueID>  (4) 
4

>  <SMILES>  (4) 
Cc1ccccc1C(=O)[N-]c1ccc(C(=O)[NH+]2CCN(C(=O)CC(=O)N3CCc4ccccc4C3)CC2)cc1

>  <Energy>  (4) 
105.10699519862239

>  <Genealogy>  (4) 
Cc1ccccc1C(=O)[N-]c1ccc(C(=O)[NH+]2CCN(C(=O)CC(=O)N3CCc4ccccc4C3)CC2)cc1 (protonated)
Cc1ccccc1C(=O)[N-]c1ccc(C(=O)[NH+]2CCN(C(=O)CC(=O)N3CCc4ccccc4C3)CC2)cc1 (3D coordinates assigned)
Cc1ccccc1C(=O)[N-]c1ccc(C(=O)[NH+]2CCN(C(=O)CC(=O)N3CCc4ccccc4C3)CC2)cc1 (nonaromatic ring conformer: 105.10699519862239 kcal/mol)

>  <smiles>  (4) 
Cc1ccccc1C(=O)Nc1ccc(C(=O)N2CCN(C(=O)CC(=O)N3CCc4ccccc4C3)CC2)cc1

>  <score_type>  (4) 
oracle

>  <origin>  (4) 
adg

>  <m_score__min__energy>  (4) 
-10.76

>  <m_primary>  (4) 
energy

$$$$
4:0
     RDKit          3D

 31 32  0  0  0  0  0  0  0  0999 V2000
   60.4560   33.4020   47.0730 C   0  0  0  0  0  0  0  0  0  0  0  0
   59.5760   33.2910   45.8650 C   0  0  0  0  0  0  0  0  0  0  0  0
   59.6380   34.2050   44.9970 O   0  0  0  0  0  0  0  0  0  0  0  0
   58.6680   32.1240   45.6590 C   0  0  0  0  0  0  0  0  0  0  0  0
   59.0670   30.8270   46.0280 C   0  0  0  0  0  0  0  0  0  0  0  0
   58.2220   29.7540   45.8880 N   0  0  0  0  0  0  0  0  0  0  0  0
   58.6260   28.3730   46.2680 C   0  0  1  0  0  0  0  0  0  0  0  0
   57.5490   27.4070   46.7960 C   0  0  0  0  0  0  0  0  0  0  0  0
   57.9560   26.3730   45.7510 C   0  0  1  0  0  0  0  0  0  0  0  0
   56.8810   25.9730   44.9420 O   0  0  0  0  0  0  0  0  0  0  0  0
   58.8930   27.3990   45.0940 C   0  0  1  0  0  0  0  0  0  0  0  0
   58.4570   27.8380   43.6730 C   0  0  0  0  0  0  0  0  0  0  0  0
   58.0130   26.7510   42.9070 O   0  0  0  0  0  0  0  0  0  0  0  0
   57.0320   29.9360   45.2280 C   0  0  0  0  0  0  0  0  0  0  0  0
   56.2960   28.9510   44.9420 O   0  0  0  0  0  0  0  0  0  0  0  0
   56.6320   31.1760   44.8580 N   0  0  0  0  0  0  0  0  0  0  0  0
   57.4000   32.2690   45.0760 C   0  0  0  0  0  0  0  0  0  0  0  0
   56.9600   33.4000   44.7380 O   0  0  0  0  0  0  0  0  0  0  0  0
   59.8419   33.3245   47.9823 H   0  0  0  0  0  0  0  0  0  0  0  0
   61.1984   32.5904   47.0617 H   0  0  0  0  0  0  0  0  0  0  0  0
   60.9736   34.3725   47.0617 H   0  0  0  0  0  0  0  0  0  0  0  0
   60.0759   30.6691   46.4368 H   0  0  0  0  0  0  0  0  0  0  0  0
   59.4294   28.7033   46.9428 H   0  0  0  0  0  0  0  0  0  0  0  0
   57.7090   27.0816   47.8345 H   0  0  0  0  0  0  0  0  0  0  0  0
   56.5015   27.7334   46.8750 H   0  0  0  0  0  0  0  0  0  0  0  0
   58.3486   25.3889   46.0468 H   0  0  0  0  0  0  0  0  0  0  0  0
   56.5480   26.7980   44.5030 H   0  0  0  0  0  0  0  0  0  0  0  0
   59.9339   27.1595   44.8310 H   0  0  0  0  0  0  0  0  0  0  0  0
   57.6400   28.5693   43.7610 H   0  0  0  0  0  0  0  0  0  0  0  0
   59.3290   28.2793   43.1682 H   0  0  0  0  0  0  0  0  0  0  0  0
   57.0220   26.7710   42.9460 H   0  0  0  0  0  0  0  0  0  0  0  0
  1  2  1  0
  2  3  2  0
  2  4  1  0
  4  5  2  0
  5  6  1  0
  6  7  1  0
  7  8  1  0
  8  9  1  0
  9 10  1  0
  9 11  1  0
 11 12  1  0
 12 13  1  0
  6 14  1  0
 14 15  2  0
 14 16  1  0
 16 17  1  0
 17 18  2  0
 17  4  1  0
 11  7  1  0
  1 19  1  0
  1 20  1  0
  1 21  1  0
  5 22  1  0
  7 23  1  1
  8 24  1  0
  8 25  1  0
  9 26  1  1
 10 27  1  0
 11 28  1  6
 12 29  1  0
 12 30  1  0
 13 31  1  0
M  CHG  1  16  -1
M  END
>  <UniqueID>  (5) 
5

>  <SMILES>  (5) 
CC(=O)c1cn([C@H]2C[C@@H](O)C2CO)c(=O)[n-]c1=O

>  <Energy>  (5) 
108.26284638929702

>  <Genealogy>  (5) 
CC(=O)c1cn(C2CC(O)C2CO)c(=O)[n-]c1=O (protonated)
CC(=O)c1cn([C@H]2C[C@@H](O)C2CO)c(=O)[n-]c1=O (chirality)
CC(=O)c1cn([C@H]2C[C@@H](O)C2CO)c(=O)[n-]c1=O (3D coordinates assigned)
CC(=O)c1cn([C@H]2C[C@@H](O)C2CO)c(=O)[n-]c1=O (nonaromatic ring conformer: 108.26284638929702 kcal/mol)

>  <smiles>  (5) 
CC(=O)c1cn(C2CC(O)C2CO)c(=O)[nH]c1=O

>  <score_type>  (5) 
oracle

>  <origin>  (5) 
adg

>  <m_score__min__energy>  (5) 
-8.3800000000000008

>  <m_primary>  (5) 
energy

$$$$
5:0
     RDKit          3D

 44 46  0  0  0  0  0  0  0  0999 V2000
   58.1080   32.5400   42.3980 C   0  0  0  0  0  0  0  0  0  0  0  0
   57.9550   32.7310   43.8760 C   0  0  0  0  0  0  0  0  0  0  0  0
   58.1770   33.9350   44.5190 C   0  0  0  0  0  0  0  0  0  0  0  0
   57.8180   33.7500   45.8360 C   0  0  0  0  0  0  0  0  0  0  0  0
   57.3940   32.4440   45.9490 C   0  0  0  0  0  0  0  0  0  0  0  0
   57.4910   31.8130   44.7600 N   0  0  0  0  0  0  0  0  0  0  0  0
   57.1120   30.4370   44.5520 C   0  0  0  0  0  0  0  0  0  0  0  0
   55.9420   30.0740   44.8510 O   0  0  0  0  0  0  0  0  0  0  0  0
   58.0820   29.3860   44.0740 C   0  0  0  0  0  0  0  0  0  0  0  0
   58.8290   28.7040   45.2290 C   0  0  0  0  0  0  0  0  0  0  0  0
   57.9790   27.6610   45.9030 C   0  0  0  0  0  0  0  0  0  0  0  0
   56.7110   27.3930   45.5460 N   0  0  0  0  0  0  0  0  0  0  0  0
   56.3100   26.4340   46.3980 C   0  0  0  0  0  0  0  0  0  0  0  0
   55.1600   25.9240   46.3650 O   0  0  0  0  0  0  0  0  0  0  0  0
   57.2510   26.0650   47.2900 N   0  0  0  0  0  0  0  0  0  0  0  0
   58.3060   26.8500   46.9830 C   0  0  0  0  0  0  0  0  0  0  0  0
   59.6170   26.7600   47.7000 C   0  0  0  0  0  0  0  0  0  0  0  0
   59.6560   27.7410   48.7310 O   0  0  0  0  0  0  0  0  0  0  0  0
   59.8920   29.1100   48.5270 C   0  0  0  0  0  0  0  0  0  0  0  0
   60.6400   29.5670   47.4220 C   0  0  0  0  0  0  0  0  0  0  0  0
   60.8500   30.9330   47.2240 C   0  0  0  0  0  0  0  0  0  0  0  0
   60.3220   31.8590   48.1220 C   0  0  0  0  0  0  0  0  0  0  0  0
   59.5830   31.4230   49.2230 C   0  0  0  0  0  0  0  0  0  0  0  0
   59.3610   30.0530   49.4390 C   0  0  0  0  0  0  0  0  0  0  0  0
   58.5570   29.6510   50.6150 C   0  0  0  0  0  0  0  0  0  0  0  0
   57.4440   30.1800   50.8710 O   0  0  0  0  0  0  0  0  0  0  0  0
   58.7851   31.6947   42.2057 H   0  0  0  0  0  0  0  0  0  0  0  0
   57.1246   32.3310   41.9515 H   0  0  0  0  0  0  0  0  0  0  0  0
   58.5266   33.4540   41.9515 H   0  0  0  0  0  0  0  0  0  0  0  0
   58.5646   34.8599   44.0670 H   0  0  0  0  0  0  0  0  0  0  0  0
   57.8614   34.4989   46.6405 H   0  0  0  0  0  0  0  0  0  0  0  0
   57.0281   31.9810   46.8773 H   0  0  0  0  0  0  0  0  0  0  0  0
   57.5247   28.6206   43.5141 H   0  0  0  0  0  0  0  0  0  0  0  0
   58.8306   29.8860   43.4418 H   0  0  0  0  0  0  0  0  0  0  0  0
   59.7356   28.2233   44.8327 H   0  0  0  0  0  0  0  0  0  0  0  0
   59.0836   29.4724   45.9738 H   0  0  0  0  0  0  0  0  0  0  0  0
   56.1580   27.8350   44.7780 H   0  0  0  0  0  0  0  0  0  0  0  0
   59.7269   25.7583   48.1411 H   0  0  0  0  0  0  0  0  0  0  0  0
   60.4387   26.9372   46.9905 H   0  0  0  0  0  0  0  0  0  0  0  0
   61.0612   28.8414   46.7106 H   0  0  0  0  0  0  0  0  0  0  0  0
   61.4331   31.2790   46.3578 H   0  0  0  0  0  0  0  0  0  0  0  0
   60.4879   32.9347   47.9629 H   0  0  0  0  0  0  0  0  0  0  0  0
   59.1705   32.1595   49.9283 H   0  0  0  0  0  0  0  0  0  0  0  0
   58.9431   28.8679   51.2840 H   0  0  0  0  0  0  0  0  0  0  0  0
  1  2  1  0
  2  3  2  0
  3  4  1  0
  4  5  2  0
  5  6  1  0
  6  7  1  0
  7  8  2  0
  7  9  1  0
  9 10  1  0
 10 11  1  0
 11 12  1  0
 12 13  1  0
 13 14  2  0
 13 15  1  0
 15 16  1  0
 16 17  1  0
 17 18  1  0
 18 19  1  0
 19 20  2  0
 20 21  1  0
 21 22  2  0
 22 23  1  0
 23 24  2  0
 24 25  1  0
 25 26  2  0
  6  2  1  0
 16 11  2  0
 24 19  1  0
  1 27  1  0
  1 28  1  0
  1 29  1  0
  3 30  1  0
  4 31  1  0
  5 32  1  0
  9 33  1  0
  9 34  1  0
 10 35  1  0
 10 36  1  0
 12 37  1  0
 17 38  1  0
 17 39  1  0
 20 40  1  0
 21 41  1  0
 22 42  1  0
 23 43  1  0
 25 44  1  0
M  CHG  1  15  -1
M  END
>  <UniqueID>  (6) 
6

>  <SMILES>  (6) 
Cc1cccn1C(=O)CCc1[nH]c(=O)[n-]c1COc1ccccc1C=O

>  <Energy>  (6) 
98.43254714238759

>  <Genealogy>  (6) 
Cc1cccn1C(=O)CCc1[nH]c(=O)[n-]c1COc1ccccc1C=O (protonated)
Cc1cccn1C(=O)CCc1[nH]c(=O)[n-]c1COc1ccccc1C=O (3D coordinates assigned)
Cc1cccn1C(=O)CCc1[nH]c(=O)[n-]c1COc1ccccc1C=O (optimized conformer: 98.43254714238759 kcal/mol)

>  <smiles>  (6) 
Cc1cccn1C(=O)CCc1[nH]c(=O)[nH]c1COc1ccccc1C=O

>  <score_type>  (6) 
oracle

>  <origin>  (6) 
adg

>  <m_score__min__energy>  (6) 
-10.18

>  <m_primary>  (6) 
energy

$$$$
6:0
     RDKit          3D

 61 64  0  0  0  0  0  0  0  0999 V2000
   59.7740   28.9700   48.6890 C   0  0  0  0  0  0  0  0  0  0  0  0
   58.9640   29.9170   49.5590 C   0  0  0  0  0  0  0  0  0  0  0  0
   58.9400   31.2400   48.9500 N   0  0  0  0  0  0  0  0  0  0  0  0
   59.0580   32.4500   49.7060 C   0  0  0  0  0  0  0  0  0  0  0  0
   58.4950   32.5500   50.8310 O   0  0  0  0  0  0  0  0  0  0  0  0
   59.8260   33.6240   49.1540 C   0  0  1  0  0  0  0  0  0  0  0  0
   61.3330   33.3840   49.1500 C   0  0  0  0  0  0  0  0  0  0  0  0
   62.1210   34.0870   50.0830 C   0  0  0  0  0  0  0  0  0  0  0  0
   63.5090   33.9360   50.1100 C   0  0  0  0  0  0  0  0  0  0  0  0
   64.1390   33.0880   49.2020 C   0  0  0  0  0  0  0  0  0  0  0  0
   63.3830   32.3890   48.2600 C   0  0  0  0  0  0  0  0  0  0  0  0
   61.9880   32.5320   48.2180 C   0  0  0  0  0  0  0  0  0  0  0  0
   61.2680   31.8030   47.1990 C   0  0  0  0  0  0  0  0  0  0  0  0
   60.6880   31.2150   46.3860 N   0  0  0  0  0  0  0  0  0  0  0  0
   59.3410   34.0040   47.8210 N   0  0  0  0  0  0  0  0  0  0  0  0
   58.3640   33.3720   47.1400 C   0  0  0  0  0  0  0  0  0  0  0  0
   58.2580   33.9710   45.9090 C   0  0  0  0  0  0  0  0  0  0  0  0
   57.3720   33.6000   44.8920 O   0  0  0  0  0  0  0  0  0  0  0  0
   57.7830   32.9710   43.6800 C   0  0  0  0  0  0  0  0  0  0  0  0
   57.7440   31.4730   43.8230 C   0  0  0  0  0  0  0  0  0  0  0  0
   56.7710   30.7220   43.1480 C   0  0  0  0  0  0  0  0  0  0  0  0
   56.7760   29.3320   43.2610 C   0  0  0  0  0  0  0  0  0  0  0  0
   57.7340   28.6910   44.0620 C   0  0  0  0  0  0  0  0  0  0  0  0
   57.7840   27.2130   44.1600 C   0  0  0  0  0  0  0  0  0  0  0  0
   58.1500   26.5350   43.1620 O   0  0  0  0  0  0  0  0  0  0  0  0
   57.4030   26.5290   45.3640 N   0  0  0  0  0  0  0  0  0  0  0  0
   57.9820   26.8980   46.6580 C   0  0  0  0  0  0  0  0  0  0  0  0
   58.1110   25.6490   47.5340 C   0  0  0  0  0  0  0  0  0  0  0  0
   56.8760   24.9600   47.6090 O   0  0  0  0  0  0  0  0  0  0  0  0
   56.5290   24.4530   46.3330 C   0  0  0  0  0  0  0  0  0  0  0  0
   56.2780   25.5930   45.3420 C   0  0  0  0  0  0  0  0  0  0  0  0
   58.6880   29.4810   44.7260 C   0  0  0  0  0  0  0  0  0  0  0  0
   58.6700   30.8370   44.5990 N   0  0  0  0  0  0  0  0  0  0  0  0
   59.2050   34.9770   45.8940 C   0  0  0  0  0  0  0  0  0  0  0  0
   59.8590   34.9680   47.0710 N   0  0  0  0  0  0  0  0  0  0  0  0
   60.3553   28.2904   49.3295 H   0  0  0  0  0  0  0  0  0  0  0  0
   59.0939   28.3833   48.0539 H   0  0  0  0  0  0  0  0  0  0  0  0
   60.4590   29.5509   48.0539 H   0  0  0  0  0  0  0  0  0  0  0  0
   57.9355   29.5385   49.6529 H   0  0  0  0  0  0  0  0  0  0  0  0
   59.4249   29.9819   50.5557 H   0  0  0  0  0  0  0  0  0  0  0  0
   59.6414   34.4693   49.8333 H   0  0  0  0  0  0  0  0  0  0  0  0
   61.6356   34.7648   50.8007 H   0  0  0  0  0  0  0  0  0  0  0  0
   64.1065   34.4882   50.8503 H   0  0  0  0  0  0  0  0  0  0  0  0
   65.2323   32.9694   49.2275 H   0  0  0  0  0  0  0  0  0  0  0  0
   63.8848   31.7207   47.5448 H   0  0  0  0  0  0  0  0  0  0  0  0
   57.7602   32.5281   47.5050 H   0  0  0  0  0  0  0  0  0  0  0  0
   57.1067   33.2746   42.8673 H   0  0  0  0  0  0  0  0  0  0  0  0
   58.8138   33.2795   43.4513 H   0  0  0  0  0  0  0  0  0  0  0  0
   56.0096   31.2254   42.5341 H   0  0  0  0  0  0  0  0  0  0  0  0
   56.0263   28.7357   42.7203 H   0  0  0  0  0  0  0  0  0  0  0  0
   58.9768   27.3407   46.5018 H   0  0  0  0  0  0  0  0  0  0  0  0
   57.3293   27.6298   47.1565 H   0  0  0  0  0  0  0  0  0  0  0  0
   58.8710   24.9817   47.1015 H   0  0  0  0  0  0  0  0  0  0  0  0
   58.4059   25.9573   48.5479 H   0  0  0  0  0  0  0  0  0  0  0  0
   57.3512   23.8252   45.9591 H   0  0  0  0  0  0  0  0  0  0  0  0
   55.6068   23.8611   46.4288 H   0  0  0  0  0  0  0  0  0  0  0  0
   56.1684   25.1782   44.3291 H   0  0  0  0  0  0  0  0  0  0  0  0
   55.3586   26.1251   45.6275 H   0  0  0  0  0  0  0  0  0  0  0  0
   59.4543   29.0010   45.3524 H   0  0  0  0  0  0  0  0  0  0  0  0
   59.3960   31.3940   45.1050 H   0  0  0  0  0  0  0  0  0  0  0  0
   59.3932   35.6693   45.0602 H   0  0  0  0  0  0  0  0  0  0  0  0
  1  2  1  0
  2  3  1  0
  3  4  1  0
  4  5  2  0
  4  6  1  0
  6  7  1  0
  7  8  2  0
  8  9  1  0
  9 10  2  0
 10 11  1  0
 11 12  2  0
 12 13  1  0
 13 14  3  0
  6 15  1  0
 15 16  1  0
 16 17  2  0
 17 18  1  0
 18 19  1  0
 19 20  1  0
 20 21  2  0
 21 22  1  0
 22 23  2  0
 23 24  1  0
 24 25  2  0
 24 26  1  0
 26 27  1  0
 27 28  1  0
 28 29  1  0
 29 30  1  0
 30 31  1  0
 23 32  1  0
 32 33  2  0
 17 34  1  0
 34 35  2  0
 12  7  1  0
 35 15  1  0
 33 20  1  0
 31 26  1  0
  1 36  1  0
  1 37  1  0
  1 38  1  0
  2 39  1  0
  2 40  1  0
  6 41  1  1
  8 42  1  0
  9 43  1  0
 10 44  1  0
 11 45  1  0
 16 46  1  0
 19 47  1  0
 19 48  1  0
 21 49  1  0
 22 50  1  0
 27 51  1  0
 27 52  1  0
 28 53  1  0
 28 54  1  0
 30 55  1  0
 30 56  1  0
 31 57  1  0
 31 58  1  0
 32 59  1  0
 33 60  1  0
 34 61  1  0
M  CHG  2   3  -1  33   1
M  END
>  <UniqueID>  (7) 
7

>  <SMILES>  (7) 
CC[N-]C(=O)[C@@H](c1ccccc1C#N)n1cc(OCc2ccc(C(=O)N3CCOCC3)c[nH+]2)cn1

>  <Energy>  (7) 
97.23917276873318

>  <Genealogy>  (7) 
CC[N-]C(=O)C(c1ccccc1C#N)n1cc(OCc2ccc(C(=O)N3CCOCC3)c[nH+]2)cn1 (protonated)
CC[N-]C(=O)[C@@H](c1ccccc1C#N)n1cc(OCc2ccc(C(=O)N3CCOCC3)c[nH+]2)cn1 (chirality)
CC[N-]C(=O)[C@@H](c1ccccc1C#N)n1cc(OCc2ccc(C(=O)N3CCOCC3)c[nH+]2)cn1 (3D coordinates assigned)
CC[N-]C(=O)[C@@H](c1ccccc1C#N)n1cc(OCc2ccc(C(=O)N3CCOCC3)c[nH+]2)cn1 (nonaromatic ring conformer: 97.23917276873318 kcal/mol)

>  <smiles>  (7) 
CCNC(=O)C(c1ccccc1C#N)n1cc(OCc2ccc(C(=O)N3CCOCC3)cn2)cn1

>  <score_type>  (7) 
oracle

>  <origin>  (7) 
adg

>  <m_score__min__energy>  (7) 
-9.1099999999999994

>  <m_primary>  (7) 
energy

$$$$
7:0
     RDKit          3D

 41 43  0  0  0  0  0  0  0  0999 V2000
   57.2230   33.9520   45.0120 C   0  0  0  0  0  0  0  0  0  0  0  0
   57.6240   32.7040   45.2670 C   0  0  0  0  0  0  0  0  0  0  0  0
   57.4760   31.6850   44.3980 N   0  0  0  0  0  0  0  0  0  0  0  0
   57.9910   30.5840   44.9910 C   0  0  0  0  0  0  0  0  0  0  0  0
   57.9960   29.3550   44.4450 C   0  0  0  0  0  0  0  0  0  0  0  0
   57.4180   28.1650   45.1070 C   0  0  0  0  0  0  0  0  0  0  0  0
   56.0310   28.0280   45.2990 C   0  0  0  0  0  0  0  0  0  0  0  0
   55.1540   29.0180   44.8740 O   0  0  0  0  0  0  0  0  0  0  0  0
   55.5360   26.9090   45.8860 N   0  0  0  0  0  0  0  0  0  0  0  0
   56.3570   25.9020   46.2810 C   0  0  0  0  0  0  0  0  0  0  0  0
   55.8750   24.8760   46.8270 O   0  0  0  0  0  0  0  0  0  0  0  0
   57.6960   25.9970   46.0800 N   0  0  0  0  0  0  0  0  0  0  0  0
   58.2420   27.0970   45.4980 C   0  0  0  0  0  0  0  0  0  0  0  0
   59.4890   27.1490   45.3230 O   0  0  0  0  0  0  0  0  0  0  0  0
   58.4670   30.9040   46.2580 C   0  0  0  0  0  0  0  0  0  0  0  0
   59.0280   29.9490   47.2730 C   0  0  0  0  0  0  0  0  0  0  0  0
   58.2440   32.2640   46.4280 C   0  0  0  0  0  0  0  0  0  0  0  0
   58.5540   33.0670   47.6240 C   0  0  0  0  0  0  0  0  0  0  0  0
   58.0770   32.7210   48.7360 O   0  0  0  0  0  0  0  0  0  0  0  0
   59.3670   34.2420   47.5480 N   0  0  0  0  0  0  0  0  0  0  0  0
   60.5370   34.3670   46.6890 C   0  0  0  0  0  0  0  0  0  0  0  0
   61.7500   33.8840   47.4280 C   0  0  0  0  0  0  0  0  0  0  0  0
   62.9100   33.5190   46.7240 C   0  0  0  0  0  0  0  0  0  0  0  0
   64.0510   33.1020   47.4170 C   0  0  0  0  0  0  0  0  0  0  0  0
   64.0450   33.0580   48.8140 C   0  0  0  0  0  0  0  0  0  0  0  0
   62.9000   33.4360   49.5210 C   0  0  0  0  0  0  0  0  0  0  0  0
   61.7570   33.8530   48.8320 C   0  0  0  0  0  0  0  0  0  0  0  0
   57.3719   34.7418   45.7630 H   0  0  0  0  0  0  0  0  0  0  0  0
   56.7438   34.1902   44.0509 H   0  0  0  0  0  0  0  0  0  0  0  0
   57.0150   31.7430   43.4620 H   0  0  0  0  0  0  0  0  0  0  0  0
   58.4544   29.2278   43.4532 H   0  0  0  0  0  0  0  0  0  0  0  0
   58.8100   30.3201   48.2853 H   0  0  0  0  0  0  0  0  0  0  0  0
   58.5680   28.9589   47.1384 H   0  0  0  0  0  0  0  0  0  0  0  0
   60.1168   29.8688   47.1384 H   0  0  0  0  0  0  0  0  0  0  0  0
   60.3936   33.7606   45.7826 H   0  0  0  0  0  0  0  0  0  0  0  0
   60.6743   35.4209   46.4053 H   0  0  0  0  0  0  0  0  0  0  0  0
   62.9207   33.5614   45.6249 H   0  0  0  0  0  0  0  0  0  0  0  0
   64.9542   32.8083   46.8620 H   0  0  0  0  0  0  0  0  0  0  0  0
   64.9418   32.7257   49.3574 H   0  0  0  0  0  0  0  0  0  0  0  0
   62.8981   33.4054   50.6206 H   0  0  0  0  0  0  0  0  0  0  0  0
   60.8603   34.1578   49.3915 H   0  0  0  0  0  0  0  0  0  0  0  0
  1  2  2  0
  2  3  1  0
  3  4  1  0
  4  5  2  3
  5  6  1  0
  6  7  2  0
  7  8  1  0
  7  9  1  0
  9 10  1  0
 10 11  2  0
 10 12  1  0
 12 13  1  0
 13 14  2  0
  4 15  1  0
 15 16  1  0
 15 17  2  0
 17 18  1  0
 18 19  2  0
 18 20  1  0
 20 21  1  0
 21 22  1  0
 22 23  2  0
 23 24  1  0
 24 25  2  0
 25 26  1  0
 26 27  2  0
 17  2  1  0
 27 22  1  0
 13  6  1  0
  1 28  1  0
  1 29  1  0
  3 30  1  0
  5 31  1  0
 16 32  1  0
 16 33  1  0
 16 34  1  0
 21 35  1  0
 21 36  1  0
 23 37  1  0
 24 38  1  0
 25 39  1  0
 26 40  1  0
 27 41  1  0
M  CHG  4   8  -1   9  -1  12  -1  20  -1
M  END
>  <UniqueID>  (8) 
8

>  <SMILES>  (8) 
C=c1[nH]c(=Cc2c([O-])[n-]c(=O)[n-]c2=O)c(C)c1C(=O)[N-]Cc1ccccc1

>  <Energy>  (8) 
83.1227870881569

>  <Genealogy>  (8) 
C=c1[nH]c(=Cc2c([O-])[n-]c(=O)[n-]c2=O)c(C)c1C(=O)[N-]Cc1ccccc1 (protonated)
C=c1[nH]c(=Cc2c([O-])[n-]c(=O)[n-]c2=O)c(C)c1C(=O)[N-]Cc1ccccc1 (3D coordinates assigned)
C=c1[nH]c(=Cc2c([O-])[n-]c(=O)[n-]c2=O)c(C)c1C(=O)[N-]Cc1ccccc1 (optimized conformer: 83.1227870881569 kcal/mol)

>  <smiles>  (8) 
C=c1[nH]c(=Cc2c(O)[nH]c(=O)[nH]c2=O)c(C)c1C(=O)NCc1ccccc1

>  <score_type>  (8) 
oracle

>  <origin>  (8) 
adg

>  <m_score__min__energy>  (8) 
-17.079999999999998

>  <m_primary>  (8) 
energy

$$$$
8:0
     RDKit          3D

 30 31  0  0  0  0  0  0  0  0999 V2000
   61.7697   33.5393   49.6326 H   0  0  0  0  0  0  0  0  0  0  0  0
   61.2160   33.7870   48.7150 C   0  0  0  0  0  0  0  0  0  0  0  0
   59.9030   34.2590   48.7960 C   0  0  0  0  0  0  0  0  0  0  0  0
   59.4255   34.3869   49.7787 H   0  0  0  0  0  0  0  0  0  0  0  0
   59.1950   34.5690   47.6310 C   0  0  0  0  0  0  0  0  0  0  0  0
   58.1637   34.9455   47.6997 H   0  0  0  0  0  0  0  0  0  0  0  0
   59.7970   34.4010   46.3730 C   0  0  0  0  0  0  0  0  0  0  0  0
   59.0500   34.7690   45.1180 C   0  0  0  0  0  0  0  0  0  0  0  0
   59.7604   34.8342   44.2807 H   0  0  0  0  0  0  0  0  0  0  0  0
   58.5534   35.7382   45.2729 H   0  0  0  0  0  0  0  0  0  0  0  0
   57.9890   33.7190   44.7950 C   0  0  0  0  0  0  0  0  0  0  0  0
   57.6989   33.8050   43.7374 H   0  0  0  0  0  0  0  0  0  0  0  0
   57.1079   33.8818   45.4331 H   0  0  0  0  0  0  0  0  0  0  0  0
   58.5280   32.3850   45.0440 N   0  0  0  0  0  0  0  0  0  0  0  0
   57.8050   31.3070   45.0980 C   0  0  0  0  0  0  0  0  0  0  0  0
   58.2280   30.2580   45.8490 N   0  0  0  0  0  0  0  0  0  0  0  0
   57.5040   29.1090   45.9340 C   0  0  0  0  0  0  0  0  0  0  0  0
   58.0100   27.9770   46.7740 C   0  0  0  0  0  0  0  0  0  0  0  0
   57.8965   28.2309   47.8383 H   0  0  0  0  0  0  0  0  0  0  0  0
   57.4326   27.0678   46.5503 H   0  0  0  0  0  0  0  0  0  0  0  0
   59.0725   27.8009   46.5503 H   0  0  0  0  0  0  0  0  0  0  0  0
   56.2940   29.0030   45.2350 C   0  0  0  0  0  0  0  0  0  0  0  0
   55.5280   27.8430   45.2990 O   0  0  0  0  0  0  0  0  0  0  0  0
   55.8720   30.0920   44.4670 C   0  0  0  0  0  0  0  0  0  0  0  0
   54.7910   30.0370   43.8230 O   0  0  0  0  0  0  0  0  0  0  0  0
   56.6300   31.2160   44.4120 N   0  0  0  0  0  0  0  0  0  0  0  0
   61.1210   33.9400   46.2980 C   0  0  0  0  0  0  0  0  0  0  0  0
   61.6060   33.8223   45.3177 H   0  0  0  0  0  0  0  0  0  0  0  0
   61.8250   33.6300   47.4660 C   0  0  0  0  0  0  0  0  0  0  0  0
   62.8596   33.2620   47.4021 H   0  0  0  0  0  0  0  0  0  0  0  0
  1  2  1  0
  2  3  2  0
  3  4  1  0
  3  5  1  0
  5  6  1  0
  5  7  2  0
  7  8  1  0
  8  9  1  0
  8 10  1  0
  8 11  1  0
 11 12  1  0
 11 13  1  0
 11 14  1  0
 14 15  2  0
 15 16  1  0
 16 17  1  0
 17 18  1  0
 18 19  1  0
 18 20  1  0
 18 21  1  0
 17 22  2  0
 22 23  1  0
 22 24  1  0
 24 25  2  0
 24 26  1  0
  7 27  1  0
 27 28  1  0
 27 29  2  0
 29 30  1  0
 29  2  1  0
 26 15  1  0
M  CHG  3  16  -1  23  -1  26  -1
M  END
>  <UniqueID>  (9) 
9

>  <SMILES>  (9) 
Cc1[n-]/c(=N/CCc2ccccc2)[n-]c(=O)c1[O-]

>  <Energy>  (9) 
27.379641412223222

>  <Genealogy>  (9) 
Cc1[n-]c(=NCCc2ccccc2)[n-]c(=O)c1[O-] (protonated)
Cc1[n-]/c(=N/CCc2ccccc2)[n-]c(=O)c1[O-] (cis-trans isomerization)
Cc1[n-]/c(=N/CCc2ccccc2)[n-]c(=O)c1[O-] (3D coordinates assigned)
Cc1[n-]/c(=N/CCc2ccccc2)[n-]c(=O)c1[O-] (optimized conformer: 27.379641412223222 kcal/mol)

>  <smiles>  (9) 
Cc1[nH]c(=NCCc2ccccc2)[nH]c(=O)c1O

>  <score_type>  (9) 
oracle

>  <origin>  (9) 
adg

>  <m_score__min__energy>  (9) 
-12.550000000000001

>  <m_primary>  (9) 
energy

$$$$
9:0
     RDKit          3D

 55 58  0  0  0  0  0  0  0  0999 V2000
   57.8270   26.4420   45.0980 H   0  0  0  0  0  0  0  0  0  0  0  0
   57.1600   27.1920   45.2110 O   0  0  0  0  0  0  0  0  0  0  0  0
   57.3780   28.3520   45.9610 C   0  0  0  0  0  0  0  0  0  0  0  0
   58.2520   28.4130   47.0040 C   0  0  0  0  0  0  0  0  0  0  0  0
   58.2050   29.5030   47.8130 N   0  0  0  0  0  0  0  0  0  0  0  0
   59.0200   29.6840   48.8890 C   0  0  0  0  0  0  0  0  0  0  0  0
   58.7540   30.7320   49.7230 C   0  0  0  0  0  0  0  0  0  0  0  0
   58.8680   32.1500   49.2650 C   0  0  0  0  0  0  0  0  0  0  0  0
   58.0060   32.6260   48.4760 O   0  0  0  0  0  0  0  0  0  0  0  0
   59.9950   32.9670   49.6230 N   0  0  0  0  0  0  0  0  0  0  0  0
   61.3130   32.7070   49.1590 C   0  0  0  0  0  0  0  0  0  0  0  0
   61.6730   32.0360   47.9830 C   0  0  0  0  0  0  0  0  0  0  0  0
   60.9044   31.6597   47.2919 H   0  0  0  0  0  0  0  0  0  0  0  0
   63.0380   31.8550   47.7070 C   0  0  0  0  0  0  0  0  0  0  0  0
   63.3472   31.3248   46.7941 H   0  0  0  0  0  0  0  0  0  0  0  0
   64.0120   32.3500   48.5950 C   0  0  0  0  0  0  0  0  0  0  0  0
   65.0797   32.2064   48.3726 H   0  0  0  0  0  0  0  0  0  0  0  0
   63.6260   33.0260   49.7630 C   0  0  0  0  0  0  0  0  0  0  0  0
   64.3797   33.4166   50.4625 H   0  0  0  0  0  0  0  0  0  0  0  0
   62.2630   33.1910   50.0160 C   0  0  0  0  0  0  0  0  0  0  0  0
   61.6240   33.8440   51.1840 C   0  0  0  0  0  0  0  0  0  0  0  0
   61.8482   34.9207   51.2055 H   0  0  0  0  0  0  0  0  0  0  0  0
   61.9795   33.4489   52.1471 H   0  0  0  0  0  0  0  0  0  0  0  0
   60.1150   33.5960   50.9460 C   0  0  0  0  0  0  0  0  0  0  0  0
   59.5665   34.5493   50.9639 H   0  0  0  0  0  0  0  0  0  0  0  0
   59.6908   32.9523   51.7306 H   0  0  0  0  0  0  0  0  0  0  0  0
   58.6420   30.4950   51.2130 C   0  0  0  0  0  0  0  0  0  0  0  0
   59.0513   31.3610   51.7538 H   0  0  0  0  0  0  0  0  0  0  0  0
   57.5846   30.3596   51.4843 H   0  0  0  0  0  0  0  0  0  0  0  0
   59.2087   29.5921   51.4843 H   0  0  0  0  0  0  0  0  0  0  0  0
   60.0470   28.7840   49.1010 N   0  0  0  0  0  0  0  0  0  0  0  0
   61.2320   29.1090   49.9210 C   0  0  0  0  0  0  0  0  0  0  0  0
   60.9709   29.0374   50.9872 H   0  0  0  0  0  0  0  0  0  0  0  0
   62.0413   28.3996   49.6932 H   0  0  0  0  0  0  0  0  0  0  0  0
   61.5662   30.1320   49.6932 H   0  0  0  0  0  0  0  0  0  0  0  0
   60.0670   27.6090   48.3930 C   0  0  0  0  0  0  0  0  0  0  0  0
   60.9190   26.7180   48.6630 O   0  0  0  0  0  0  0  0  0  0  0  0
   59.1560   27.3840   47.3520 C   0  0  0  0  0  0  0  0  0  0  0  0
   59.1520   26.2610   46.7800 O   0  0  0  0  0  0  0  0  0  0  0  0
   56.6420   29.5290   45.5810 N   0  0  0  0  0  0  0  0  0  0  0  0
   55.7010   29.7090   45.9980 H   0  0  0  0  0  0  0  0  0  0  0  0
   57.0650   30.3730   44.4620 C   0  0  0  0  0  0  0  0  0  0  0  0
   57.7918   29.8183   43.8504 H   0  0  0  0  0  0  0  0  0  0  0  0
   56.1751   30.6344   43.8706 H   0  0  0  0  0  0  0  0  0  0  0  0
   57.7040   31.6490   44.9450 C   0  0  0  0  0  0  0  0  0  0  0  0
   58.9790   31.6230   45.5380 C   0  0  0  0  0  0  0  0  0  0  0  0
   59.5158   30.6684   45.6409 H   0  0  0  0  0  0  0  0  0  0  0  0
   59.5680   32.8070   45.9980 C   0  0  0  0  0  0  0  0  0  0  0  0
   60.5651   32.7807   46.4619 H   0  0  0  0  0  0  0  0  0  0  0  0
   58.8890   34.0240   45.8680 C   0  0  0  0  0  0  0  0  0  0  0  0
   59.6320   35.5070   46.4440 Cl  0  0  0  0  0  0  0  0  0  0  0  0
   57.6180   34.0570   45.2800 C   0  0  0  0  0  0  0  0  0  0  0  0
   57.0835   35.0132   45.1799 H   0  0  0  0  0  0  0  0  0  0  0  0
   57.0280   32.8750   44.8200 C   0  0  0  0  0  0  0  0  0  0  0  0
   56.0301   32.9051   44.3582 H   0  0  0  0  0  0  0  0  0  0  0  0
  1  2  1  0
  2  3  1  0
  3  4  2  0
  4  5  1  0
  5  6  1  0
  6  7  2  3
  7  8  1  0
  8  9  2  0
  8 10  1  0
 10 11  1  0
 11 12  2  0
 12 13  1  0
 12 14  1  0
 14 15  1  0
 14 16  2  0
 16 17  1  0
 16 18  1  0
 18 19  1  0
 18 20  2  0
 20 21  1  0
 21 22  1  0
 21 23  1  0
 21 24  1  0
 24 25  1  0
 24 26  1  0
  7 27  1  0
 27 28  1  0
 27 29  1  0
 27 30  1  0
  6 31  1  0
 31 32  1  0
 32 33  1  0
 32 34  1  0
 32 35  1  0
 31 36  1  0
 36 37  2  0
 36 38  1  0
 38 39  2  0
  3 40  1  0
 40 41  1  0
 40 42  1  0
 42 43  1  0
 42 44  1  0
 42 45  1  0
 45 46  2  0
 46 47  1  0
 46 48  1  0
 48 49  1  0
 48 50  2  0
 50 51  1  0
 50 52  1  0
 52 53  1  0
 52 54  2  0
 54 55  1  0
 38  4  1  0
 54 45  1  0
 24 10  1  0
 20 11  1  0
M  CHG  1   5  -1
M  END
>  <UniqueID>  (10) 
10

>  <SMILES>  (10) 
CC(C(=O)N1CCc2ccccc21)=c1[n-]/c(=C(/O)NCc2ccc(Cl)cc2)c(=O)c(=O)n1C

>  <Energy>  (10) 
115.88390611762318

>  <Genealogy>  (10) 
CC(C(=O)N1CCc2ccccc21)=c1[n-]c(=C(O)NCc2ccc(Cl)cc2)c(=O)c(=O)n1C (protonated)
CC(C(=O)N1CCc2ccccc21)=c1[n-]/c(=C(/O)NCc2ccc(Cl)cc2)c(=O)c(=O)n1C (cis-trans isomerization)
CC(C(=O)N1CCc2ccccc21)=c1[n-]/c(=C(/O)NCc2ccc(Cl)cc2)c(=O)c(=O)n1C (3D coordinates assigned)
CC(C(=O)N1CCc2ccccc21)=c1[n-]/c(=C(/O)NCc2ccc(Cl)cc2)c(=O)c(=O)n1C (nonaromatic ring conformer: 115.88390611762318 kcal/mol)

>  <smiles>  (10) 
CC(C(=O)N1CCc2ccccc21)=c1[nH]c(=C(O)NCc2ccc(Cl)cc2)c(=O)c(=O)n1C

>  <score_type>  (10) 
oracle

>  <origin>  (10) 
adg

>  <m_score__min__energy>  (10) 
-11.74

>  <m_primary>  (10) 
energy

$$$$
10:0
     RDKit          3D

 43 45  0  0  1  0  0  0  0  0999 V2000
   56.8300   30.9720   44.9250 O   0  0  0  0  0  0  0  0  0  0  0  0
   56.4640   29.7820   44.6730 C   0  0  0  0  0  0  0  0  0  0  0  0
   55.1470   29.3960   44.8730 O   0  0  0  0  0  0  0  0  0  0  0  0
   57.4990   28.8220   44.1580 C   0  0  0  0  0  0  0  0  0  0  0  0
   58.3980   28.4560   45.2830 C   0  0  0  0  0  0  0  0  0  0  0  0
   58.7190   27.1120   45.4560 C   0  0  0  0  0  0  0  0  0  0  0  0
   59.5470   26.7530   46.4990 C   0  0  0  0  0  0  0  0  0  0  0  0
   60.0430   27.7330   47.3510 C   0  0  0  0  0  0  0  0  0  0  0  0
   59.7410   29.0710   47.2030 C   0  0  0  0  0  0  0  0  0  0  0  0
   60.2220   30.0590   48.0420 O   0  0  0  0  0  0  0  0  0  0  0  0
   59.4500   30.4530   49.1200 C   0  0  0  0  0  0  0  0  0  0  0  0
   59.5180   29.7840   50.3430 C   0  0  0  0  0  0  0  0  0  0  0  0
   58.7290   30.2400   51.3440 N   0  0  0  0  0  0  0  0  0  0  0  0
   57.9130   31.3000   51.1650 C   0  0  0  0  0  0  0  0  0  0  0  0
   57.2170   31.6640   52.1320 O   0  0  0  0  0  0  0  0  0  0  0  0
   57.8270   31.9670   50.0000 N   0  0  0  0  0  0  0  0  0  0  0  0
   58.5880   31.5530   48.9730 C   0  0  0  0  0  0  0  0  0  0  0  0
   58.5110   32.1960   47.8800 N   0  0  0  0  0  0  0  0  0  0  0  0
   59.3980   33.5830   47.4370 S   0  0  0  0  0  0  0  0  0  0  0  0
   58.8890   34.8570   48.0520 O   0  0  0  0  0  0  0  0  0  0  0  0
   59.1720   33.7640   45.9340 O   0  0  0  0  0  0  0  0  0  0  0  0
   61.1230   33.3940   47.6310 C   0  0  0  0  0  0  0  0  0  0  0  0
   61.7190   32.8220   48.7190 C   0  0  0  0  0  0  0  0  0  0  0  0
   63.0970   32.6750   48.8590 C   0  0  0  0  0  0  0  0  0  0  0  0
   63.9420   33.1250   47.8540 C   0  0  0  0  0  0  0  0  0  0  0  0
   63.3600   33.7150   46.7310 C   0  0  0  0  0  0  0  0  0  0  0  0
   61.9800   33.8440   46.6280 C   0  0  0  0  0  0  0  0  0  0  0  0
   58.9030   29.4290   46.1480 C   0  0  0  0  0  0  0  0  0  0  0  0
   54.7590   28.5350   44.5000 H   0  0  0  0  0  0  0  0  0  0  0  0
   57.0069   27.9194   43.7666 H   0  0  0  0  0  0  0  0  0  0  0  0
   58.0778   29.2884   43.3472 H   0  0  0  0  0  0  0  0  0  0  0  0
   58.3187   26.3492   44.7720 H   0  0  0  0  0  0  0  0  0  0  0  0
   59.8133   25.6973   46.6557 H   0  0  0  0  0  0  0  0  0  0  0  0
   60.7031   27.4293   48.1768 H   0  0  0  0  0  0  0  0  0  0  0  0
   60.1853   28.9216   50.4876 H   0  0  0  0  0  0  0  0  0  0  0  0
   58.7510   29.7570   52.2740 H   0  0  0  0  0  0  0  0  0  0  0  0
   57.2010   32.7740   49.8810 H   0  0  0  0  0  0  0  0  0  0  0  0
   61.0735   32.4565   49.5313 H   0  0  0  0  0  0  0  0  0  0  0  0
   63.5136   32.2045   49.7618 H   0  0  0  0  0  0  0  0  0  0  0  0
   65.0336   33.0202   47.9397 H   0  0  0  0  0  0  0  0  0  0  0  0
   64.0019   34.0827   45.9169 H   0  0  0  0  0  0  0  0  0  0  0  0
   61.5523   34.3142   45.7302 H   0  0  0  0  0  0  0  0  0  0  0  0
   58.6376   30.4856   45.9958 H   0  0  0  0  0  0  0  0  0  0  0  0
  1  2  2  0
  2  3  1  0
  2  4  1  0
  4  5  1  0
  5  6  2  0
  6  7  1  0
  7  8  2  0
  8  9  1  0
  9 10  1  0
 10 11  1  0
 11 12  2  0
 12 13  1  0
 13 14  1  0
 14 15  2  0
 14 16  1  0
 16 17  1  0
 17 18  2  0
 18 19  1  0
 19 20  2  0
 19 21  2  0
 19 22  1  0
 22 23  2  0
 23 24  1  0
 24 25  2  0
 25 26  1  0
 26 27  2  0
  9 28  2  0
 28  5  1  0
 17 11  1  0
 27 22  1  0
  3 29  1  0
  4 30  1  0
  4 31  1  0
  6 32  1  0
  7 33  1  0
  8 34  1  0
 12 35  1  0
 13 36  1  0
 16 37  1  0
 23 38  1  0
 24 39  1  0
 25 40  1  0
 26 41  1  0
 27 42  1  0
 28 43  1  0
M  END
>  <smiles>  (11) 
O=C(O)Cc1cccc(Oc2c[nH]c(=O)[nH]c2=NS(=O)(=O)c2ccccc2)c1

>  <score_type>  (11) 
oracle

>  <origin>  (11) 
adg

>  <m_score__min__energy>  (11) 
-10.140000000000001

>  <m_primary>  (11) 
energy

$$$$
11:0
     RDKit          3D

 57 60  0  0  0  0  0  0  0  0999 V2000
   56.7094   30.8625   41.3855 H   0  0  0  0  0  0  0  0  0  0  0  0
   56.7850   30.8170   42.4820 C   0  0  0  0  0  0  0  0  0  0  0  0
   56.2870   29.7460   43.1510 N   0  0  0  0  0  0  0  0  0  0  0  0
   56.3660   29.6710   44.5080 C   0  0  0  0  0  0  0  0  0  0  0  0
   55.9130   28.6410   45.1610 N   0  0  0  0  0  0  0  0  0  0  0  0
   56.6730   27.5980   45.7950 C   0  0  0  0  0  0  0  0  0  0  0  0
   56.2880   26.2460   45.7350 C   0  0  0  0  0  0  0  0  0  0  0  0
   55.3957   25.9541   45.1618 H   0  0  0  0  0  0  0  0  0  0  0  0
   57.0370   25.2740   46.4020 C   0  0  0  0  0  0  0  0  0  0  0  0
   56.7476   24.2152   46.3297 H   0  0  0  0  0  0  0  0  0  0  0  0
   58.1510   25.6390   47.1600 C   0  0  0  0  0  0  0  0  0  0  0  0
   58.7409   24.8650   47.6728 H   0  0  0  0  0  0  0  0  0  0  0  0
   58.5240   26.9920   47.2720 C   0  0  0  0  0  0  0  0  0  0  0  0
   59.6930   27.4040   48.0860 C   0  0  0  0  0  0  0  0  0  0  0  0
   60.7850   26.7860   47.9670 O   0  0  0  0  0  0  0  0  0  0  0  0
   59.6180   28.5060   48.9940 N   0  0  0  0  0  0  0  0  0  0  0  0
   60.4360   28.7360   49.6030 H   0  0  0  0  0  0  0  0  0  0  0  0
   58.7980   29.1500   49.0110 H   0  0  0  0  0  0  0  0  0  0  0  0
   57.7790   27.9610   46.5760 C   0  0  0  0  0  0  0  0  0  0  0  0
   58.0687   29.0199   46.6456 H   0  0  0  0  0  0  0  0  0  0  0  0
   56.9680   30.6710   45.1970 N   0  0  0  0  0  0  0  0  0  0  0  0
   57.4800   31.7740   44.5810 C   0  0  0  0  0  0  0  0  0  0  0  0
   58.1190   32.8040   45.3780 N   0  0  0  0  0  0  0  0  0  0  0  0
   58.7950   32.4330   46.5930 C   0  0  0  0  0  0  0  0  0  0  0  0
   59.9630   31.6530   46.5460 C   0  0  0  0  0  0  0  0  0  0  0  0
   60.4242   31.4145   45.5763 H   0  0  0  0  0  0  0  0  0  0  0  0
   60.5410   31.1790   47.7280 C   0  0  0  0  0  0  0  0  0  0  0  0
   61.4633   30.5810   47.6858 H   0  0  0  0  0  0  0  0  0  0  0  0
   59.9500   31.4630   48.9640 C   0  0  0  0  0  0  0  0  0  0  0  0
   60.4850   30.8600   50.1510 N   0  0  0  0  0  0  0  0  0  0  0  0
   61.8020   30.2940   50.2730 C   0  0  0  0  0  0  0  0  0  0  0  0
   61.9100   29.0510   50.4350 O   0  0  0  0  0  0  0  0  0  0  0  0
   63.0260   31.1360   50.2480 C   0  0  0  0  0  0  0  0  0  0  0  0
   63.1650   32.1820   49.3200 C   0  0  0  0  0  0  0  0  0  0  0  0
   62.3415   32.4112   48.6276 H   0  0  0  0  0  0  0  0  0  0  0  0
   64.3410   32.9320   49.2710 C   0  0  0  0  0  0  0  0  0  0  0  0
   64.4451   33.7333   48.5246 H   0  0  0  0  0  0  0  0  0  0  0  0
   65.3880   32.6750   50.1610 C   0  0  0  0  0  0  0  0  0  0  0  0
   66.5530   33.4490   50.0600 O   0  0  0  0  0  0  0  0  0  0  0  0
   67.7180   33.2610   50.8540 C   0  0  0  0  0  0  0  0  0  0  0  0
   67.4468   33.3048   51.9191 H   0  0  0  0  0  0  0  0  0  0  0  0
   68.1610   32.2797   50.6285 H   0  0  0  0  0  0  0  0  0  0  0  0
   68.4472   34.0531   50.6285 H   0  0  0  0  0  0  0  0  0  0  0  0
   65.2380   31.6550   51.1190 C   0  0  0  0  0  0  0  0  0  0  0  0
   66.0465   31.4550   51.8376 H   0  0  0  0  0  0  0  0  0  0  0  0
   64.0640   30.8940   51.1610 C   0  0  0  0  0  0  0  0  0  0  0  0
   63.9542   30.1006   51.9150 H   0  0  0  0  0  0  0  0  0  0  0  0
   58.8310   32.3120   49.0180 C   0  0  0  0  0  0  0  0  0  0  0  0
   58.4074   32.6004   49.9913 H   0  0  0  0  0  0  0  0  0  0  0  0
   58.2560   32.7900   47.8390 C   0  0  0  0  0  0  0  0  0  0  0  0
   57.3767   33.4493   47.8867 H   0  0  0  0  0  0  0  0  0  0  0  0
   58.2280   34.1860   44.9030 C   0  0  0  0  0  0  0  0  0  0  0  0
   58.2817   34.8669   45.7652 H   0  0  0  0  0  0  0  0  0  0  0  0
   59.1374   34.2936   44.2936 H   0  0  0  0  0  0  0  0  0  0  0  0
   57.3467   34.4349   44.2936 H   0  0  0  0  0  0  0  0  0  0  0  0
   57.3930   31.8610   43.1820 C   0  0  0  0  0  0  0  0  0  0  0  0
   57.7959   32.7344   42.6482 H   0  0  0  0  0  0  0  0  0  0  0  0
  1  2  1  0
  2  3  1  0
  3  4  1  0
  4  5  2  0
  5  6  1  0
  6  7  2  0
  7  8  1  0
  7  9  1  0
  9 10  1  0
  9 11  2  0
 11 12  1  0
 11 13  1  0
 13 14  1  0
 14 15  2  0
 14 16  1  0
 16 17  1  0
 16 18  1  0
 13 19  2  0
 19 20  1  0
  4 21  1  0
 21 22  2  0
 22 23  1  0
 23 24  1  0
 24 25  2  0
 25 26  1  0
 25 27  1  0
 27 28  1  0
 27 29  2  0
 29 30  1  0
 30 31  1  0
 31 32  2  0
 31 33  1  0
 33 34  2  0
 34 35  1  0
 34 36  1  0
 36 37  1  0
 36 38  2  0
 38 39  1  0
 39 40  1  0
 40 41  1  0
 40 42  1  0
 40 43  1  0
 38 44  1  0
 44 45  1  0
 44 46  2  0
 46 47  1  0
 29 48  1  0
 48 49  1  0
 48 50  2  0
 50 51  1  0
 23 52  1  0
 52 53  1  0
 52 54  1  0
 52 55  1  0
 22 56  1  0
 56 57  1  0
 56  2  2  0
 19  6  1  0
 50 24  1  0
 46 33  1  0
M  CHG  2   3  -1  30  -1
M  END
>  <UniqueID>  (12) 
11

>  <SMILES>  (12) 
COc1ccc(C(=O)[N-]c2ccc(N(C)c3cc[n-]/c(=N\c4cccc(C(N)=O)c4)n3)cc2)cc1

>  <Energy>  (12) 
81.94844172383826

>  <Genealogy>  (12) 
COc1ccc(C(=O)[N-]c2ccc(N(C)c3cc[n-]c(=Nc4cccc(C(N)=O)c4)n3)cc2)cc1 (protonated)
COc1ccc(C(=O)[N-]c2ccc(N(C)c3cc[n-]/c(=N\c4cccc(C(N)=O)c4)n3)cc2)cc1 (cis-trans isomerization)
COc1ccc(C(=O)[N-]c2ccc(N(C)c3cc[n-]/c(=N\c4cccc(C(N)=O)c4)n3)cc2)cc1 (3D coordinates assigned)
COc1ccc(C(=O)[N-]c2ccc(N(C)c3cc[n-]/c(=N\c4cccc(C(N)=O)c4)n3)cc2)cc1 (optimized conformer: 81.94844172383826 kcal/mol)

>  <smiles>  (12) 
COc1ccc(C(=O)Nc2ccc(N(C)c3cc[nH]c(=Nc4cccc(C(N)=O)c4)n3)cc2)cc1

>  <score_type>  (12) 
oracle

>  <origin>  (12) 
adg

>  <m_score__min__energy>  (12) 
-12.550000000000001

>  <m_primary>  (12) 
energy

$$$$
12:0
     RDKit          3D

 85 89  0  0  0  0  0  0  0  0999 V2000
   66.0980   33.0180   52.4100 C   0  0  0  0  0  0  0  0  0  0  0  0
   66.0440   32.7100   50.6560 S   0  0  0  0  0  0  0  0  0  0  0  0
   67.3990   32.9830   50.0650 O   0  0  0  0  0  0  0  0  0  0  0  0
   65.6900   31.2640   50.4380 O   0  0  0  0  0  0  0  0  0  0  0  0
   64.8410   33.7290   49.8970 N   0  0  0  0  0  0  0  0  0  0  0  0
   64.2670   33.0470   48.7150 C   0  0  0  0  0  0  0  0  0  0  0  0
   62.8700   33.5850   48.3910 C   0  0  0  0  0  0  0  0  0  0  0  0
   61.9380   33.2840   49.4950 N   0  0  0  0  0  0  0  0  0  0  0  0
   60.6230   33.9570   49.3710 C   0  0  0  0  0  0  0  0  0  0  0  0
   59.9920   33.8410   47.9890 C   0  0  0  0  0  0  0  0  0  0  0  0
   59.4780   34.9980   47.3720 C   0  0  0  0  0  0  0  0  0  0  0  0
   58.9250   34.9400   46.0910 C   0  0  0  0  0  0  0  0  0  0  0  0
   58.8660   33.7260   45.4100 C   0  0  0  0  0  0  0  0  0  0  0  0
   59.3410   32.5610   46.0140 C   0  0  0  0  0  0  0  0  0  0  0  0
   59.8970   32.6000   47.3030 C   0  0  0  0  0  0  0  0  0  0  0  0
   60.3170   31.3700   47.9210 N   0  0  0  0  0  0  0  0  0  0  0  0
   61.2480   30.4690   47.2360 C   0  0  0  0  0  0  0  0  0  0  0  0
   60.5170   29.2030   46.7830 C   0  0  0  0  0  0  0  0  0  0  0  0
   59.6790   28.6660   47.8630 N   0  0  0  0  0  0  0  0  0  0  0  0
   59.4330   27.2480   47.8810 C   0  0  0  0  0  0  0  0  0  0  0  0
   60.3930   26.4660   48.1150 O   0  0  0  0  0  0  0  0  0  0  0  0
   58.1000   26.6700   47.4720 C   0  0  2  0  0  0  0  0  0  0  0  0
   58.0510   25.1760   47.8290 C   0  0  0  0  0  0  0  0  0  0  0  0
   57.7060   24.3430   46.6220 C   0  0  0  0  0  0  0  0  0  0  0  0
   56.3590   24.1350   46.2680 C   0  0  0  0  0  0  0  0  0  0  0  0
   56.0370   23.3900   45.1300 C   0  0  0  0  0  0  0  0  0  0  0  0
   57.0520   22.8570   44.3290 C   0  0  0  0  0  0  0  0  0  0  0  0
   56.6460   21.9190   42.9030 Cl  0  0  0  0  0  0  0  0  0  0  0  0
   58.3930   23.0700   44.6690 C   0  0  0  0  0  0  0  0  0  0  0  0
   58.7220   23.8140   45.8070 C   0  0  0  0  0  0  0  0  0  0  0  0
   57.8700   26.8350   46.0380 N   0  0  0  0  0  0  0  0  0  0  0  0
   56.7930   27.5390   45.3990 C   0  0  0  0  0  0  0  0  0  0  0  0
   55.6150   27.1470   45.6210 O   0  0  0  0  0  0  0  0  0  0  0  0
   57.0200   28.6980   44.4510 C   0  0  0  0  0  0  0  0  0  0  0  0
   58.3330   29.4360   44.7710 C   0  0  0  0  0  0  0  0  0  0  0  0
   58.5920   30.5790   43.7630 C   0  0  0  0  0  0  0  0  0  0  0  0
   57.3610   31.1120   43.1430 N   0  0  0  0  0  0  0  0  0  0  0  0
   56.2260   31.1120   44.0780 C   0  0  0  0  0  0  0  0  0  0  0  0
   55.8270   29.6790   44.4900 C   0  0  0  0  0  0  0  0  0  0  0  0
   58.7930   29.5800   48.5980 C   0  0  0  0  0  0  0  0  0  0  0  0
   59.5620   30.8220   49.0500 C   0  0  0  0  0  0  0  0  0  0  0  0
   62.5470   33.3310   50.8460 C   0  0  0  0  0  0  0  0  0  0  0  0
   63.8280   34.1830   50.8810 C   0  0  0  0  0  0  0  0  0  0  0  0
   65.9328   32.0757   52.9530 H   0  0  0  0  0  0  0  0  0  0  0  0
   67.0819   33.4291   52.6800 H   0  0  0  0  0  0  0  0  0  0  0  0
   65.3126   33.7393   52.6800 H   0  0  0  0  0  0  0  0  0  0  0  0
   64.9254   33.2132   47.8496 H   0  0  0  0  0  0  0  0  0  0  0  0
   64.1843   31.9730   48.9379 H   0  0  0  0  0  0  0  0  0  0  0  0
   62.9244   34.6744   48.2485 H   0  0  0  0  0  0  0  0  0  0  0  0
   62.5046   33.1033   47.4721 H   0  0  0  0  0  0  0  0  0  0  0  0
   59.9353   33.5089   50.1033 H   0  0  0  0  0  0  0  0  0  0  0  0
   60.7969   35.0281   49.5511 H   0  0  0  0  0  0  0  0  0  0  0  0
   59.5126   35.9592   47.9057 H   0  0  0  0  0  0  0  0  0  0  0  0
   58.5355   35.8540   45.6190 H   0  0  0  0  0  0  0  0  0  0  0  0
   58.4444   33.6857   44.3948 H   0  0  0  0  0  0  0  0  0  0  0  0
   59.2793   31.6037   45.4756 H   0  0  0  0  0  0  0  0  0  0  0  0
   61.6691   30.9800   46.3576 H   0  0  0  0  0  0  0  0  0  0  0  0
   62.0552   30.1902   47.9293 H   0  0  0  0  0  0  0  0  0  0  0  0
   59.8800   29.4446   45.9193 H   0  0  0  0  0  0  0  0  0  0  0  0
   61.2651   28.4446   46.5089 H   0  0  0  0  0  0  0  0  0  0  0  0
   57.3113   27.2114   48.0151 H   0  0  0  0  0  0  0  0  0  0  0  0
   59.0345   24.8652   48.2113 H   0  0  0  0  0  0  0  0  0  0  0  0
   57.2745   25.0238   48.5932 H   0  0  0  0  0  0  0  0  0  0  0  0
   55.5572   24.5604   46.8894 H   0  0  0  0  0  0  0  0  0  0  0  0
   54.9829   23.2226   44.8638 H   0  0  0  0  0  0  0  0  0  0  0  0
   59.1912   22.6507   44.0389 H   0  0  0  0  0  0  0  0  0  0  0  0
   59.7776   23.9854   46.0646 H   0  0  0  0  0  0  0  0  0  0  0  0
   57.1020   28.2852   43.4347 H   0  0  0  0  0  0  0  0  0  0  0  0
   58.2690   29.8590   45.7844 H   0  0  0  0  0  0  0  0  0  0  0  0
   59.1624   28.7167   44.7025 H   0  0  0  0  0  0  0  0  0  0  0  0
   59.0989   31.4001   44.2911 H   0  0  0  0  0  0  0  0  0  0  0  0
   59.2062   30.1606   42.9520 H   0  0  0  0  0  0  0  0  0  0  0  0
   57.1130   30.5270   42.3080 H   0  0  0  0  0  0  0  0  0  0  0  0
   56.5062   31.6772   44.9791 H   0  0  0  0  0  0  0  0  0  0  0  0
   55.3657   31.5763   43.5737 H   0  0  0  0  0  0  0  0  0  0  0  0
   55.4253   29.7053   45.5137 H   0  0  0  0  0  0  0  0  0  0  0  0
   55.0764   29.3211   43.7699 H   0  0  0  0  0  0  0  0  0  0  0  0
   57.9641   29.8858   47.9427 H   0  0  0  0  0  0  0  0  0  0  0  0
   58.4025   29.0604   49.4854 H   0  0  0  0  0  0  0  0  0  0  0  0
   58.8527   31.5781   49.4176 H   0  0  0  0  0  0  0  0  0  0  0  0
   60.2581   30.5475   49.8563 H   0  0  0  0  0  0  0  0  0  0  0  0
   61.8173   33.7608   51.5480 H   0  0  0  0  0  0  0  0  0  0  0  0
   62.8192   32.3032   51.1279 H   0  0  0  0  0  0  0  0  0  0  0  0
   63.5631   35.2271   50.6580 H   0  0  0  0  0  0  0  0  0  0  0  0
   64.2685   34.0821   51.8839 H   0  0  0  0  0  0  0  0  0  0  0  0
  1  2  1  0
  2  3  2  0
  2  4  2  0
  2  5  1  0
  5  6  1  0
  6  7  1  0
  7  8  1  0
  8  9  1  0
  9 10  1  0
 10 11  2  0
 11 12  1  0
 12 13  2  0
 13 14  1  0
 14 15  2  0
 15 16  1  0
 16 17  1  0
 17 18  1  0
 18 19  1  0
 19 20  1  0
 20 21  2  0
 20 22  1  0
 22 23  1  0
 23 24  1  0
 24 25  2  0
 25 26  1  0
 26 27  2  0
 27 28  1  0
 27 29  1  0
 29 30  2  0
 22 31  1  0
 31 32  1  0
 32 33  2  0
 32 34  1  0
 34 35  1  0
 35 36  1  0
 36 37  1  0
 37 38  1  0
 38 39  1  0
 19 40  1  0
 40 41  1  0
  8 42  1  0
 42 43  1  0
 43  5  1  0
 15 10  1  0
 41 16  1  0
 30 24  1  0
 39 34  1  0
  1 44  1  0
  1 45  1  0
  1 46  1  0
  6 47  1  0
  6 48  1  0
  7 49  1  0
  7 50  1  0
  9 51  1  0
  9 52  1  0
 11 53  1  0
 12 54  1  0
 13 55  1  0
 14 56  1  0
 17 57  1  0
 17 58  1  0
 18 59  1  0
 18 60  1  0
 22 61  1  1
 23 62  1  0
 23 63  1  0
 25 64  1  0
 26 65  1  0
 29 66  1  0
 30 67  1  0
 34 68  1  0
 35 69  1  0
 35 70  1  0
 36 71  1  0
 36 72  1  0
 37 73  1  0
 38 74  1  0
 38 75  1  0
 39 76  1  0
 39 77  1  0
 40 78  1  0
 40 79  1  0
 41 80  1  0
 41 81  1  0
 42 82  1  0
 42 83  1  0
 43 84  1  0
 43 85  1  0
M  CHG  1  31  -1
M  END
>  <UniqueID>  (13) 
12

>  <SMILES>  (13) 
CS(=O)(=O)N1CCN(Cc2ccccc2N2CCN(C(=O)[C@H](Cc3ccc(Cl)cc3)[N-]C(=O)C3CCNCC3)CC2)CC1

>  <Energy>  (13) 
106.92677597633258

>  <Genealogy>  (13) 
CS(=O)(=O)N1CCN(Cc2ccccc2N2CCN(C(=O)C(Cc3ccc(Cl)cc3)[N-]C(=O)C3CCNCC3)CC2)CC1 (protonated)
CS(=O)(=O)N1CCN(Cc2ccccc2N2CCN(C(=O)[C@H](Cc3ccc(Cl)cc3)[N-]C(=O)C3CCNCC3)CC2)CC1 (chirality)
CS(=O)(=O)N1CCN(Cc2ccccc2N2CCN(C(=O)[C@H](Cc3ccc(Cl)cc3)[N-]C(=O)C3CCNCC3)CC2)CC1 (3D coordinates assigned)
CS(=O)(=O)N1CCN(Cc2ccccc2N2CCN(C(=O)[C@H](Cc3ccc(Cl)cc3)[N-]C(=O)C3CCNCC3)CC2)CC1 (nonaromatic ring conformer: 106.92677597633258 kcal/mol)

>  <smiles>  (13) 
CS(=O)(=O)N1CCN(Cc2ccccc2N2CCN(C(=O)C(Cc3ccc(Cl)cc3)NC(=O)C3CCNCC3)CC2)CC1

>  <score_type>  (13) 
oracle

>  <origin>  (13) 
adg

>  <m_score__min__energy>  (13) 
-13.09

>  <m_primary>  (13) 
energy

$$$$
13:0
     RDKit          3D

 43 45  0  0  0  0  0  0  0  0999 V2000
   57.2590   28.5260   43.4860 N   0  0  0  0  0  0  0  0  0  0  0  0
   56.3520   29.6010   43.7270 C   0  0  0  0  0  0  0  0  0  0  0  0
   55.2540   29.3770   44.3010 O   0  0  0  0  0  0  0  0  0  0  0  0
   56.6820   30.9890   43.2650 C   0  0  0  0  0  0  0  0  0  0  0  0
   58.1430   31.3550   43.5600 C   0  0  0  0  0  0  0  0  0  0  0  0
   58.4810   31.1250   44.9830 N   0  0  0  0  0  0  0  0  0  0  0  0
   58.0110   31.9590   45.9760 C   0  0  0  0  0  0  0  0  0  0  0  0
   57.0220   33.4280   45.6330 S   0  0  0  0  0  0  0  0  0  0  0  0
   58.1460   34.5840   46.4970 C   0  0  0  0  0  0  0  0  0  0  0  0
   59.5190   34.5650   45.9020 C   0  0  0  0  0  0  0  0  0  0  0  0
   59.6570   34.3420   44.6690 O   0  0  0  0  0  0  0  0  0  0  0  0
   60.6550   34.8730   46.7200 N   0  0  0  0  0  0  0  0  0  0  0  0
   61.5680   33.9260   47.2970 C   0  0  0  0  0  0  0  0  0  0  0  0
   62.7410   33.5270   46.6250 C   0  0  0  0  0  0  0  0  0  0  0  0
   63.5880   32.5720   47.1930 C   0  0  0  0  0  0  0  0  0  0  0  0
   63.2740   32.0010   48.4280 C   0  0  0  0  0  0  0  0  0  0  0  0
   62.1040   32.3760   49.0930 C   0  0  0  0  0  0  0  0  0  0  0  0
   61.2470   33.3280   48.5290 C   0  0  0  0  0  0  0  0  0  0  0  0
   59.7770   33.7680   49.3860 Cl  0  0  0  0  0  0  0  0  0  0  0  0
   58.2860   31.6940   47.2790 N   0  0  0  0  0  0  0  0  0  0  0  0
   59.0360   30.6320   47.6480 C   0  0  0  0  0  0  0  0  0  0  0  0
   59.2970   30.4110   48.9640 N   0  0  0  0  0  0  0  0  0  0  0  0
   60.0560   29.3590   49.3720 C   0  0  0  0  0  0  0  0  0  0  0  0
   60.5880   28.4730   48.4340 C   0  0  0  0  0  0  0  0  0  0  0  0
   60.3350   28.6770   47.0750 C   0  0  0  0  0  0  0  0  0  0  0  0
   59.5500   29.7700   46.6680 C   0  0  0  0  0  0  0  0  0  0  0  0
   59.2510   30.0360   45.3220 C   0  0  0  0  0  0  0  0  0  0  0  0
   59.6970   29.2680   44.4230 O   0  0  0  0  0  0  0  0  0  0  0  0
   57.0210   27.5570   43.7950 H   0  0  0  0  0  0  0  0  0  0  0  0
   58.1610   28.6920   42.9890 H   0  0  0  0  0  0  0  0  0  0  0  0
   56.5107   31.0535   42.1803 H   0  0  0  0  0  0  0  0  0  0  0  0
   56.0361   31.6935   43.8095 H   0  0  0  0  0  0  0  0  0  0  0  0
   58.8007   30.7366   42.9315 H   0  0  0  0  0  0  0  0  0  0  0  0
   58.2835   32.4234   43.3392 H   0  0  0  0  0  0  0  0  0  0  0  0
   57.7379   35.6027   46.4208 H   0  0  0  0  0  0  0  0  0  0  0  0
   58.2220   34.2690   47.5482 H   0  0  0  0  0  0  0  0  0  0  0  0
   62.9906   33.9694   45.6493 H   0  0  0  0  0  0  0  0  0  0  0  0
   64.5047   32.2691   46.6659 H   0  0  0  0  0  0  0  0  0  0  0  0
   63.9476   31.2563   48.8771 H   0  0  0  0  0  0  0  0  0  0  0  0
   61.8554   31.9214   50.0633 H   0  0  0  0  0  0  0  0  0  0  0  0
   60.2511   29.2060   50.4437 H   0  0  0  0  0  0  0  0  0  0  0  0
   61.2016   27.6209   48.7619 H   0  0  0  0  0  0  0  0  0  0  0  0
   60.7484   27.9851   46.3265 H   0  0  0  0  0  0  0  0  0  0  0  0
  1  2  1  0
  2  3  2  0
  2  4  1  0
  4  5  1  0
  5  6  1  0
  6  7  1  0
  7  8  1  0
  8  9  1  0
  9 10  1  0
 10 11  2  0
 10 12  1  0
 12 13  1  0
 13 14  2  0
 14 15  1  0
 15 16  2  0
 16 17  1  0
 17 18  2  0
 18 19  1  0
  7 20  2  0
 20 21  1  0
 21 22  2  0
 22 23  1  0
 23 24  2  0
 24 25  1  0
 25 26  2  0
 26 27  1  0
 27 28  2  0
 27  6  1  0
 18 13  1  0
 26 21  1  0
  1 29  1  0
  1 30  1  0
  4 31  1  0
  4 32  1  0
  5 33  1  0
  5 34  1  0
  9 35  1  0
  9 36  1  0
 14 37  1  0
 15 38  1  0
 16 39  1  0
 17 40  1  0
 23 41  1  0
 24 42  1  0
 25 43  1  0
M  CHG  1  12  -1
M  END
>  <UniqueID>  (14) 
13

>  <SMILES>  (14) 
NC(=O)CCn1c(SCC(=O)[N-]c2ccccc2Cl)nc2ncccc2c1=O

>  <Energy>  (14) 
47.85883207866854

>  <Genealogy>  (14) 
NC(=O)CCn1c(SCC(=O)[N-]c2ccccc2Cl)nc2ncccc2c1=O (protonated)
NC(=O)CCn1c(SCC(=O)[N-]c2ccccc2Cl)nc2ncccc2c1=O (3D coordinates assigned)
NC(=O)CCn1c(SCC(=O)[N-]c2ccccc2Cl)nc2ncccc2c1=O (optimized conformer: 47.85883207866854 kcal/mol)

>  <smiles>  (14) 
NC(=O)CCn1c(SCC(=O)Nc2ccccc2Cl)nc2ncccc2c1=O

>  <score_type>  (14) 
oracle

>  <origin>  (14) 
adg

>  <m_score__min__energy>  (14) 
-10.57

>  <m_primary>  (14) 
energy

$$$$
14:0
     RDKit          3D

 48 50  0  0  0  0  0  0  0  0999 V2000
   60.3290   29.5390   45.3820 C   0  0  0  0  0  0  0  0  0  0  0  0
   58.8950   29.0820   45.4910 C   0  0  0  0  0  0  0  0  0  0  0  0
   58.5510   27.8720   46.1450 C   0  0  0  0  0  0  0  0  0  0  0  0
   59.5410   27.0110   46.8340 C   0  0  0  0  0  0  0  0  0  0  0  0
   59.5290   25.7620   46.6620 O   0  0  0  0  0  0  0  0  0  0  0  0
   60.5360   27.6070   47.6740 N   0  0  0  0  0  0  0  0  0  0  0  0
   60.4470   27.6550   49.1280 C   0  0  0  0  0  0  0  0  0  0  0  0
   60.1020   29.0470   49.5830 C   0  0  0  0  0  0  0  0  0  0  0  0
   61.0660   30.0670   49.5550 C   0  0  0  0  0  0  0  0  0  0  0  0
   60.7340   31.3600   49.9740 C   0  0  0  0  0  0  0  0  0  0  0  0
   59.4420   31.6550   50.4250 C   0  0  0  0  0  0  0  0  0  0  0  0
   59.1720   32.9650   50.8540 O   0  0  0  0  0  0  0  0  0  0  0  0
   58.9650   33.3640   52.2070 C   0  0  0  0  0  0  0  0  0  0  0  0
   58.8810   32.2370   53.0000 F   0  0  0  0  0  0  0  0  0  0  0  0
   60.0260   34.1360   52.6420 F   0  0  0  0  0  0  0  0  0  0  0  0
   57.7860   34.0780   52.3190 F   0  0  0  0  0  0  0  0  0  0  0  0
   58.4690   30.6360   50.4350 C   0  0  0  0  0  0  0  0  0  0  0  0
   58.8000   29.3430   50.0150 C   0  0  0  0  0  0  0  0  0  0  0  0
   57.2020   27.4760   46.1400 C   0  0  0  0  0  0  0  0  0  0  0  0
   56.2710   28.2210   45.5570 O   0  0  0  0  0  0  0  0  0  0  0  0
   56.5490   29.3700   44.9560 C   0  0  0  0  0  0  0  0  0  0  0  0
   55.6160   30.0310   44.4260 O   0  0  0  0  0  0  0  0  0  0  0  0
   57.8640   29.8490   44.9100 C   0  0  0  0  0  0  0  0  0  0  0  0
   58.1300   31.0650   44.2740 O   0  0  0  0  0  0  0  0  0  0  0  0
   57.3730   32.2350   44.5530 C   0  0  0  0  0  0  0  0  0  0  0  0
   58.1290   33.0850   45.5290 C   0  0  0  0  0  0  0  0  0  0  0  0
   58.8560   34.2020   45.0850 C   0  0  0  0  0  0  0  0  0  0  0  0
   59.6080   34.9590   45.9890 C   0  0  0  0  0  0  0  0  0  0  0  0
   59.6490   34.6000   47.3380 C   0  0  0  0  0  0  0  0  0  0  0  0
   58.9370   33.4840   47.7870 C   0  0  0  0  0  0  0  0  0  0  0  0
   58.1820   32.7250   46.8850 C   0  0  0  0  0  0  0  0  0  0  0  0
   60.7488   29.6728   46.3899 H   0  0  0  0  0  0  0  0  0  0  0  0
   60.9145   28.7829   44.8383 H   0  0  0  0  0  0  0  0  0  0  0  0
   60.3690   30.4944   44.8383 H   0  0  0  0  0  0  0  0  0  0  0  0
   59.6664   26.9582   49.4672 H   0  0  0  0  0  0  0  0  0  0  0  0
   61.4189   27.3685   49.5562 H   0  0  0  0  0  0  0  0  0  0  0  0
   62.0851   29.8492   49.2027 H   0  0  0  0  0  0  0  0  0  0  0  0
   61.4960   32.1529   49.9488 H   0  0  0  0  0  0  0  0  0  0  0  0
   57.4463   30.8576   50.7740 H   0  0  0  0  0  0  0  0  0  0  0  0
   58.0345   28.5531   50.0235 H   0  0  0  0  0  0  0  0  0  0  0  0
   56.9133   26.5331   46.6274 H   0  0  0  0  0  0  0  0  0  0  0  0
   57.2093   32.7987   43.6227 H   0  0  0  0  0  0  0  0  0  0  0  0
   56.3996   31.9541   44.9814 H   0  0  0  0  0  0  0  0  0  0  0  0
   58.8337   34.4825   44.0216 H   0  0  0  0  0  0  0  0  0  0  0  0
   60.1678   35.8381   45.6371 H   0  0  0  0  0  0  0  0  0  0  0  0
   60.2419   35.1958   48.0476 H   0  0  0  0  0  0  0  0  0  0  0  0
   58.9700   33.2020   48.8497 H   0  0  0  0  0  0  0  0  0  0  0  0
   57.6282   31.8433   47.2399 H   0  0  0  0  0  0  0  0  0  0  0  0
  1  2  1  0
  2  3  1  0
  3  4  1  0
  4  5  2  0
  4  6  1  0
  6  7  1  0
  7  8  1  0
  8  9  2  0
  9 10  1  0
 10 11  2  0
 11 12  1  0
 12 13  1  0
 13 14  1  0
 13 15  1  0
 13 16  1  0
 11 17  1  0
 17 18  2  0
  3 19  2  0
 19 20  1  0
 20 21  1  0
 21 22  2  0
 21 23  1  0
 23 24  1  0
 24 25  1  0
 25 26  1  0
 26 27  2  0
 27 28  1  0
 28 29  2  0
 29 30  1  0
 30 31  2  0
 23  2  2  0
 31 26  1  0
 18  8  1  0
  1 32  1  0
  1 33  1  0
  1 34  1  0
  7 35  1  0
  7 36  1  0
  9 37  1  0
 10 38  1  0
 17 39  1  0
 18 40  1  0
 19 41  1  0
 25 42  1  0
 25 43  1  0
 27 44  1  0
 28 45  1  0
 29 46  1  0
 30 47  1  0
 31 48  1  0
M  CHG  1   6  -1
M  END
>  <UniqueID>  (15) 
14

>  <SMILES>  (15) 
Cc1c(C(=O)[N-]Cc2ccc(OC(F)(F)F)cc2)coc(=O)c1OCc1ccccc1

>  <Energy>  (15) 
60.796313950041544

>  <Genealogy>  (15) 
Cc1c(C(=O)[N-]Cc2ccc(OC(F)(F)F)cc2)coc(=O)c1OCc1ccccc1 (protonated)
Cc1c(C(=O)[N-]Cc2ccc(OC(F)(F)F)cc2)coc(=O)c1OCc1ccccc1 (3D coordinates assigned)
Cc1c(C(=O)[N-]Cc2ccc(OC(F)(F)F)cc2)coc(=O)c1OCc1ccccc1 (optimized conformer: 60.796313950041544 kcal/mol)

>  <smiles>  (15) 
Cc1c(C(=O)NCc2ccc(OC(F)(F)F)cc2)coc(=O)c1OCc1ccccc1

>  <score_type>  (15) 
oracle

>  <origin>  (15) 
adg

>  <m_score__min__energy>  (15) 
-9.0199999999999996

>  <m_primary>  (15) 
energy

$$$$
15:0
     RDKit          3D

 48 50  0  0  0  0  0  0  0  0999 V2000
   54.0680   26.3170   46.3700 H   0  0  0  0  0  0  0  0  0  0  0  0
   54.9990   26.3490   45.9740 O   0  0  0  0  0  0  0  0  0  0  0  0
   55.9790   25.4530   46.3930 C   0  0  0  0  0  0  0  0  0  0  0  0
   55.7640   24.4740   47.2860 N   0  0  0  0  0  0  0  0  0  0  0  0
   56.9880   23.9190   47.4160 C   0  0  0  0  0  0  0  0  0  0  0  0
   57.2140   22.9480   48.1860 O   0  0  0  0  0  0  0  0  0  0  0  0
   57.9530   24.4900   46.6650 N   0  0  0  0  0  0  0  0  0  0  0  0
   57.2970   25.4520   45.9920 C   0  0  0  0  0  0  0  0  0  0  0  0
   57.9660   26.4250   45.1030 C   0  0  0  0  0  0  0  0  0  0  0  0
   58.5221   26.0241   44.2428 H   0  0  0  0  0  0  0  0  0  0  0  0
   57.9500   27.7770   45.2620 C   0  0  0  0  0  0  0  0  0  0  0  0
   57.2220   28.5750   44.3510 C   0  0  0  0  0  0  0  0  0  0  0  0
   56.6349   28.0925   43.5557 H   0  0  0  0  0  0  0  0  0  0  0  0
   57.2380   29.9670   44.4470 C   0  0  0  0  0  0  0  0  0  0  0  0
   56.4350   30.8120   43.5010 C   0  0  0  0  0  0  0  0  0  0  0  0
   55.7440   30.1673   42.9381 H   0  0  0  0  0  0  0  0  0  0  0  0
   55.8721   31.5574   44.0819 H   0  0  0  0  0  0  0  0  0  0  0  0
   57.3500   31.5400   42.5230 C   0  0  0  0  0  0  0  0  0  0  0  0
   58.0908   32.1294   43.0833 H   0  0  0  0  0  0  0  0  0  0  0  0
   57.8689   30.8052   41.8900 H   0  0  0  0  0  0  0  0  0  0  0  0
   56.7506   32.2108   41.8900 H   0  0  0  0  0  0  0  0  0  0  0  0
   57.9620   30.5640   45.4210 N   0  0  0  0  0  0  0  0  0  0  0  0
   58.6920   29.8640   46.3230 C   0  0  0  0  0  0  0  0  0  0  0  0
   59.4260   30.5990   47.3120 N   0  0  0  0  0  0  0  0  0  0  0  0
   58.8900   30.7340   48.6670 C   0  0  0  0  0  0  0  0  0  0  0  0
   57.7974   30.8520   48.6197 H   0  0  0  0  0  0  0  0  0  0  0  0
   59.1350   29.8347   49.2511 H   0  0  0  0  0  0  0  0  0  0  0  0
   59.5090   31.9650   49.3370 C   0  0  0  0  0  0  0  0  0  0  0  0
   59.2169   32.8610   48.7696 H   0  0  0  0  0  0  0  0  0  0  0  0
   59.1389   32.0065   50.3721 H   0  0  0  0  0  0  0  0  0  0  0  0
   60.9880   31.8940   49.3870 N   0  0  0  0  0  0  0  0  0  0  0  0
   61.6650   33.5000   49.5200 S   0  0  0  0  0  0  0  0  0  0  0  0
   62.0510   33.7810   50.9460 O   0  0  0  0  0  0  0  0  0  0  0  0
   60.6470   34.5140   49.0750 O   0  0  0  0  0  0  0  0  0  0  0  0
   63.1050   33.6580   48.4820 C   0  0  0  0  0  0  0  0  0  0  0  0
   64.0017   33.7564   49.1115 H   0  0  0  0  0  0  0  0  0  0  0  0
   63.1990   32.7648   47.8469 H   0  0  0  0  0  0  0  0  0  0  0  0
   63.0031   34.5504   47.8469 H   0  0  0  0  0  0  0  0  0  0  0  0
   61.6220   31.1430   48.2740 C   0  0  0  0  0  0  0  0  0  0  0  0
   62.5824   31.6219   48.0326 H   0  0  0  0  0  0  0  0  0  0  0  0
   61.7493   30.1045   48.6137 H   0  0  0  0  0  0  0  0  0  0  0  0
   60.7650   31.1020   47.0010 C   0  0  0  0  0  0  0  0  0  0  0  0
   60.6847   32.1166   46.5837 H   0  0  0  0  0  0  0  0  0  0  0  0
   61.2399   30.4326   46.2687 H   0  0  0  0  0  0  0  0  0  0  0  0
   58.6970   28.4420   46.2950 C   0  0  0  0  0  0  0  0  0  0  0  0
   59.3550   27.7750   47.2700 C   0  0  0  0  0  0  0  0  0  0  0  0
   59.3723   26.6751   47.2687 H   0  0  0  0  0  0  0  0  0  0  0  0
   59.8729   28.3323   48.0645 H   0  0  0  0  0  0  0  0  0  0  0  0
  1  2  1  0
  2  3  1  0
  3  4  1  0
  4  5  1  0
  5  6  2  0
  5  7  1  0
  7  8  1  0
  8  9  1  0
  9 10  1  0
  9 11  2  0
 11 12  1  0
 12 13  1  0
 12 14  2  0
 14 15  1  0
 15 16  1  0
 15 17  1  0
 15 18  1  0
 18 19  1  0
 18 20  1  0
 18 21  1  0
 14 22  1  0
 22 23  2  0
 23 24  1  0
 24 25  1  0
 25 26  1  0
 25 27  1  0
 25 28  1  0
 28 29  1  0
 28 30  1  0
 28 31  1  0
 31 32  1  0
 32 33  2  0
 32 34  2  0
 32 35  1  0
 35 36  1  0
 35 37  1  0
 35 38  1  0
 31 39  1  0
 39 40  1  0
 39 41  1  0
 39 42  1  0
 42 43  1  0
 42 44  1  0
 23 45  1  0
 45 46  2  0
 46 47  1  0
 46 48  1  0
  8  3  2  0
 45 11  1  0
 42 24  1  0
M  CHG  2   4  -1   7  -1
M  END
>  <UniqueID>  (16) 
15

>  <SMILES>  (16) 
C=c1c(N2CCN(S(C)(=O)=O)CC2)nc(CC)c/c1=C\c1[n-]c(=O)[n-]c1O

>  <Energy>  (16) 
99.2474044781185

>  <Genealogy>  (16) 
C=c1c(N2CCN(S(C)(=O)=O)CC2)nc(CC)cc1=Cc1[n-]c(=O)[n-]c1O (protonated)
C=c1c(N2CCN(S(C)(=O)=O)CC2)nc(CC)c/c1=C\c1[n-]c(=O)[n-]c1O (cis-trans isomerization)
C=c1c(N2CCN(S(C)(=O)=O)CC2)nc(CC)c/c1=C\c1[n-]c(=O)[n-]c1O (3D coordinates assigned)
C=c1c(N2CCN(S(C)(=O)=O)CC2)nc(CC)c/c1=C\c1[n-]c(=O)[n-]c1O (nonaromatic ring conformer: 99.2474044781185 kcal/mol)

>  <smiles>  (16) 
C=c1c(N2CCN(S(C)(=O)=O)CC2)nc(CC)cc1=Cc1[nH]c(=O)[nH]c1O

>  <score_type>  (16) 
oracle

>  <origin>  (16) 
adg

>  <m_score__min__energy>  (16) 
-12.83

>  <m_primary>  (16) 
energy

$$$$
16:0
     RDKit          3D

 49 51  0  0  0  0  0  0  0  0999 V2000
   58.9010   34.5780   51.6830 N   0  0  0  0  0  0  0  0  0  0  0  0
   58.4060   33.2310   51.6650 C   0  0  0  0  0  0  0  0  0  0  0  0
   57.2700   32.9050   52.4200 C   0  0  0  0  0  0  0  0  0  0  0  0
   56.7690   31.6010   52.4160 C   0  0  0  0  0  0  0  0  0  0  0  0
   57.3930   30.6160   51.6490 C   0  0  0  0  0  0  0  0  0  0  0  0
   58.5270   30.9270   50.8950 C   0  0  0  0  0  0  0  0  0  0  0  0
   59.0580   32.2310   50.9130 C   0  0  0  0  0  0  0  0  0  0  0  0
   60.2110   32.5770   50.1280 N   0  0  0  0  0  0  0  0  0  0  0  0
   60.2870   33.5860   49.1110 C   0  0  0  0  0  0  0  0  0  0  0  0
   60.8990   34.6670   49.3360 O   0  0  0  0  0  0  0  0  0  0  0  0
   59.5930   33.3880   47.8160 C   0  0  0  0  0  0  0  0  0  0  0  0
   58.8260   32.2290   47.5840 C   0  0  0  0  0  0  0  0  0  0  0  0
   58.1620   32.0500   46.3660 C   0  0  0  0  0  0  0  0  0  0  0  0
   58.2580   33.0190   45.3570 C   0  0  0  0  0  0  0  0  0  0  0  0
   57.5230   32.8450   44.0560 C   0  0  0  0  0  0  0  0  0  0  0  0
   57.7170   31.4910   43.5400 N   0  0  0  0  0  0  0  0  0  0  0  0
   56.8530   30.4010   43.8960 C   0  0  0  0  0  0  0  0  0  0  0  0
   55.8970   30.5840   44.7000 O   0  0  0  0  0  0  0  0  0  0  0  0
   57.0550   29.0430   43.2850 C   0  0  0  0  0  0  0  0  0  0  0  0
   57.8710   28.1110   44.1910 C   0  0  0  0  0  0  0  0  0  0  0  0
   57.4700   28.3420   45.9650 S   0  0  0  0  0  0  0  0  0  0  0  0
   56.6880   26.7430   46.1890 C   0  0  0  0  0  0  0  0  0  0  0  0
   57.4170   25.6700   46.7080 C   0  0  0  0  0  0  0  0  0  0  0  0
   56.7750   24.4400   46.8510 C   0  0  0  0  0  0  0  0  0  0  0  0
   57.3980   23.4490   47.3160 O   0  0  0  0  0  0  0  0  0  0  0  0
   55.4730   24.3070   46.4810 N   0  0  0  0  0  0  0  0  0  0  0  0
   54.7830   25.3570   45.9630 C   0  0  0  0  0  0  0  0  0  0  0  0
   53.5800   25.2140   45.6230 O   0  0  0  0  0  0  0  0  0  0  0  0
   55.3940   26.5640   45.8170 N   0  0  0  0  0  0  0  0  0  0  0  0
   59.0190   34.1750   45.5840 C   0  0  0  0  0  0  0  0  0  0  0  0
   59.6820   34.3580   46.8020 C   0  0  0  0  0  0  0  0  0  0  0  0
   58.3900   35.3420   52.1810 H   0  0  0  0  0  0  0  0  0  0  0  0
   59.7790   34.8310   51.1740 H   0  0  0  0  0  0  0  0  0  0  0  0
   56.7705   33.6808   53.0189 H   0  0  0  0  0  0  0  0  0  0  0  0
   55.8827   31.3505   53.0174 H   0  0  0  0  0  0  0  0  0  0  0  0
   56.9908   29.5922   51.6382 H   0  0  0  0  0  0  0  0  0  0  0  0
   59.0078   30.1490   50.2838 H   0  0  0  0  0  0  0  0  0  0  0  0
   58.7489   31.4595   48.3663 H   0  0  0  0  0  0  0  0  0  0  0  0
   57.5611   31.1439   46.1987 H   0  0  0  0  0  0  0  0  0  0  0  0
   56.4495   33.0205   44.2196 H   0  0  0  0  0  0  0  0  0  0  0  0
   57.9159   33.5662   43.3242 H   0  0  0  0  0  0  0  0  0  0  0  0
   58.5280   31.3150   42.9040 H   0  0  0  0  0  0  0  0  0  0  0  0
   56.0706   28.5869   43.1036 H   0  0  0  0  0  0  0  0  0  0  0  0
   57.6155   29.1761   42.3479 H   0  0  0  0  0  0  0  0  0  0  0  0
   57.6561   27.0688   43.9122 H   0  0  0  0  0  0  0  0  0  0  0  0
   58.9352   28.3520   44.0517 H   0  0  0  0  0  0  0  0  0  0  0  0
   58.4714   25.7923   46.9967 H   0  0  0  0  0  0  0  0  0  0  0  0
   59.0949   34.9423   44.7995 H   0  0  0  0  0  0  0  0  0  0  0  0
   60.2776   35.2678   46.9678 H   0  0  0  0  0  0  0  0  0  0  0  0
  1  2  1  0
  2  3  2  0
  3  4  1  0
  4  5  2  0
  5  6  1  0
  6  7  2  0
  7  8  1  0
  8  9  1  0
  9 10  2  0
  9 11  1  0
 11 12  2  0
 12 13  1  0
 13 14  2  0
 14 15  1  0
 15 16  1  0
 16 17  1  0
 17 18  2  0
 17 19  1  0
 19 20  1  0
 20 21  1  0
 21 22  1  0
 22 23  2  0
 23 24  1  0
 24 25  2  0
 24 26  1  0
 26 27  1  0
 27 28  2  0
 27 29  1  0
 14 30  1  0
 30 31  2  0
  7  2  1  0
 31 11  1  0
 29 22  1  0
  1 32  1  0
  1 33  1  0
  3 34  1  0
  4 35  1  0
  5 36  1  0
  6 37  1  0
 12 38  1  0
 13 39  1  0
 15 40  1  0
 15 41  1  0
 16 42  1  0
 19 43  1  0
 19 44  1  0
 20 45  1  0
 20 46  1  0
 23 47  1  0
 30 48  1  0
 31 49  1  0
M  CHG  3   8  -1  26  -1  29  -1
M  END
>  <UniqueID>  (17) 
16

>  <SMILES>  (17) 
Nc1ccccc1[N-]C(=O)c1ccc(CNC(=O)CCSc2cc(=O)[n-]c(=O)[n-]2)cc1

>  <Energy>  (17) 
48.28407852340639

>  <Genealogy>  (17) 
Nc1ccccc1[N-]C(=O)c1ccc(CNC(=O)CCSc2cc(=O)[n-]c(=O)[n-]2)cc1 (protonated)
Nc1ccccc1[N-]C(=O)c1ccc(CNC(=O)CCSc2cc(=O)[n-]c(=O)[n-]2)cc1 (3D coordinates assigned)
Nc1ccccc1[N-]C(=O)c1ccc(CNC(=O)CCSc2cc(=O)[n-]c(=O)[n-]2)cc1 (optimized conformer: 48.28407852340639 kcal/mol)

>  <smiles>  (17) 
Nc1ccccc1NC(=O)c1ccc(CNC(=O)CCSc2cc(=O)[nH]c(=O)[nH]2)cc1

>  <score_type>  (17) 
oracle

>  <origin>  (17) 
adg

>  <m_score__min__energy>  (17) 
-14.17

>  <m_primary>  (17) 
energy

$$$$
17:0
     RDKit          3D

 55 58  0  0  1  0  0  0  0  0999 V2000
   62.8500   30.2260   53.0170 C   0  0  0  0  0  0  0  0  0  0  0  0
   62.6590   30.7770   51.6420 C   0  0  0  0  0  0  0  0  0  0  0  0
   63.6200   31.1280   50.9080 O   0  0  0  0  0  0  0  0  0  0  0  0
   61.2900   30.8800   51.2050 N   0  0  0  0  0  0  0  0  0  0  0  0
   60.8970   30.4150   50.0760 C   0  0  0  0  0  0  0  0  0  0  0  0
   59.7170   29.7150   50.0120 C   0  0  0  0  0  0  0  0  0  0  0  0
   59.2440   29.1890   48.8190 C   0  0  0  0  0  0  0  0  0  0  0  0
   60.0140   29.3980   47.6840 C   0  0  0  0  0  0  0  0  0  0  0  0
   59.5250   28.8580   46.4640 N   0  0  0  0  0  0  0  0  0  0  0  0
   58.6590   27.9060   46.4510 C   0  0  0  0  0  0  0  0  0  0  0  0
   58.9280   26.7590   47.1250 N   0  0  0  0  0  0  0  0  0  0  0  0
   58.0630   25.7250   47.1500 C   0  0  0  0  0  0  0  0  0  0  0  0
   56.8690   25.8300   46.4730 C   0  0  0  0  0  0  0  0  0  0  0  0
   56.6030   26.9800   45.8000 C   0  0  0  0  0  0  0  0  0  0  0  0
   57.4800   28.0590   45.7590 C   0  0  0  0  0  0  0  0  0  0  0  0
   57.1190   29.2520   45.0150 C   0  0  0  0  0  0  0  0  0  0  0  0
   57.4000   30.5150   45.4080 N   0  0  0  0  0  0  0  0  0  0  0  0
   56.9330   31.3920   44.5020 C   0  0  0  0  0  0  0  0  0  0  0  0
   57.0080   32.6810   44.5240 N   0  0  0  0  0  0  0  0  0  0  0  0
   57.1130   33.4770   45.7140 C   0  0  0  0  0  0  0  0  0  0  0  0
   58.5010   33.4370   46.3000 C   0  0  0  0  0  0  0  0  0  0  0  0
   59.5830   33.8370   45.5070 C   0  0  0  0  0  0  0  0  0  0  0  0
   60.8790   33.8050   46.0370 C   0  0  0  0  0  0  0  0  0  0  0  0
   61.0590   33.3730   47.3470 C   0  0  0  0  0  0  0  0  0  0  0  0
   62.6940   33.3500   47.9640 S   0  0  0  0  0  0  0  0  0  0  0  0
   62.7230   33.2670   49.6760 N   0  0  0  0  0  0  0  0  0  0  0  0
   63.4740   32.1750   47.4340 O   0  0  0  0  0  0  0  0  0  0  0  0
   63.4590   34.5850   47.5660 O   0  0  0  0  0  0  0  0  0  0  0  0
   59.9820   32.9790   48.1230 C   0  0  0  0  0  0  0  0  0  0  0  0
   58.6870   33.0080   47.6020 C   0  0  0  0  0  0  0  0  0  0  0  0
   56.3540   30.6820   43.5320 N   0  0  0  0  0  0  0  0  0  0  0  0
   56.4710   29.3940   43.8490 N   0  0  0  0  0  0  0  0  0  0  0  0
   61.1870   30.1030   47.7920 C   0  0  0  0  0  0  0  0  0  0  0  0
   61.6380   30.6120   48.9660 N   0  0  0  0  0  0  0  0  0  0  0  0
   62.5842   30.9928   53.7595 H   0  0  0  0  0  0  0  0  0  0  0  0
   62.2046   29.3455   53.1521 H   0  0  0  0  0  0  0  0  0  0  0  0
   63.9018   29.9338   53.1521 H   0  0  0  0  0  0  0  0  0  0  0  0
   59.1315   29.5676   50.9315 H   0  0  0  0  0  0  0  0  0  0  0  0
   58.2979   28.6295   48.7746 H   0  0  0  0  0  0  0  0  0  0  0  0
   59.8180   26.6240   47.6550 H   0  0  0  0  0  0  0  0  0  0  0  0
   58.3087   24.8077   47.7052 H   0  0  0  0  0  0  0  0  0  0  0  0
   56.1460   25.0010   46.4768 H   0  0  0  0  0  0  0  0  0  0  0  0
   55.6475   27.0618   45.2612 H   0  0  0  0  0  0  0  0  0  0  0  0
   56.8616   34.5191   45.4674 H   0  0  0  0  0  0  0  0  0  0  0  0
   56.4174   33.0655   46.4602 H   0  0  0  0  0  0  0  0  0  0  0  0
   59.4163   34.1746   44.4734 H   0  0  0  0  0  0  0  0  0  0  0  0
   61.7402   34.1163   45.4275 H   0  0  0  0  0  0  0  0  0  0  0  0
   63.6740   33.1210   50.0800 H   0  0  0  0  0  0  0  0  0  0  0  0
   62.1330   32.4920   50.0500 H   0  0  0  0  0  0  0  0  0  0  0  0
   60.1478   32.6410   49.1566 H   0  0  0  0  0  0  0  0  0  0  0  0
   57.8296   32.6952   48.2160 H   0  0  0  0  0  0  0  0  0  0  0  0
   55.8910   31.0540   42.6740 H   0  0  0  0  0  0  0  0  0  0  0  0
   56.0940   28.6400   43.2430 H   0  0  0  0  0  0  0  0  0  0  0  0
   61.7888   30.2625   46.8852 H   0  0  0  0  0  0  0  0  0  0  0  0
   62.5190   31.1430   49.0540 H   0  0  0  0  0  0  0  0  0  0  0  0
  1  2  1  0
  2  3  2  0
  2  4  1  0
  4  5  2  0
  5  6  1  0
  6  7  2  0
  7  8  1  0
  8  9  1  0
  9 10  2  0
 10 11  1  0
 11 12  1  0
 12 13  2  0
 13 14  1  0
 14 15  2  0
 15 16  1  0
 16 17  2  0
 17 18  1  0
 18 19  2  0
 19 20  1  0
 20 21  1  0
 21 22  2  0
 22 23  1  0
 23 24  2  0
 24 25  1  0
 25 26  1  0
 25 27  2  0
 25 28  2  0
 24 29  1  0
 29 30  2  0
 18 31  1  0
 31 32  1  0
  8 33  2  0
 33 34  1  0
 34  5  1  0
 15 10  1  0
 32 16  1  0
 30 21  1  0
  1 35  1  0
  1 36  1  0
  1 37  1  0
  6 38  1  0
  7 39  1  0
 11 40  1  0
 12 41  1  0
 13 42  1  0
 14 43  1  0
 20 44  1  0
 20 45  1  0
 22 46  1  0
 23 47  1  0
 26 48  1  0
 26 49  1  0
 29 50  1  0
 30 51  1  0
 31 52  1  0
 32 53  1  0
 33 54  1  0
 34 55  1  0
M  END
>  <smiles>  (18) 
CC(=O)N=c1ccc(N=c2[nH]cccc2-c2nc(=NCc3ccc(S(N)(=O)=O)cc3)[nH][nH]2)c[nH]1

>  <score_type>  (18) 
oracle

>  <origin>  (18) 
adg

>  <m_score__min__energy>  (18) 
-9.9000000000000004

>  <m_primary>  (18) 
energy

$$$$
18:0
     RDKit          3D

 37 39  0  0  0  0  0  0  0  0999 V2000
   54.7760   27.0950   45.1960 H   0  0  0  0  0  0  0  0  0  0  0  0
   54.8300   26.4410   45.9670 O   0  0  0  0  0  0  0  0  0  0  0  0
   55.3810   25.1680   45.8120 C   0  0  0  0  0  0  0  0  0  0  0  0
   54.7140   24.0560   46.3520 C   0  0  0  0  0  0  0  0  0  0  0  0
   53.7433   24.1901   46.8518 H   0  0  0  0  0  0  0  0  0  0  0  0
   55.2760   22.7820   46.2580 C   0  0  0  0  0  0  0  0  0  0  0  0
   54.7454   21.9150   46.6783 H   0  0  0  0  0  0  0  0  0  0  0  0
   56.5110   22.6070   45.6310 C   0  0  0  0  0  0  0  0  0  0  0  0
   56.9584   21.6041   45.5684 H   0  0  0  0  0  0  0  0  0  0  0  0
   57.1790   23.7050   45.0830 C   0  0  0  0  0  0  0  0  0  0  0  0
   58.1561   23.5620   44.5985 H   0  0  0  0  0  0  0  0  0  0  0  0
   56.6140   24.9910   45.1450 C   0  0  0  0  0  0  0  0  0  0  0  0
   57.3670   26.1170   44.5470 C   0  0  0  0  0  0  0  0  0  0  0  0
   57.1960   26.3626   43.4885 H   0  0  0  0  0  0  0  0  0  0  0  0
   58.2480   26.8490   45.2420 C   0  0  0  0  0  0  0  0  0  0  0  0
   59.3221   26.7157   45.0457 H   0  0  0  0  0  0  0  0  0  0  0  0
   57.8250   27.8290   46.2630 C   0  0  0  0  0  0  0  0  0  0  0  0
   57.6140   27.4630   47.4520 O   0  0  0  0  0  0  0  0  0  0  0  0
   57.6480   29.2530   45.8980 C   0  0  0  0  0  0  0  0  0  0  0  0
   56.4800   29.6480   45.2210 C   0  0  0  0  0  0  0  0  0  0  0  0
   55.4940   28.7190   44.9060 O   0  0  0  0  0  0  0  0  0  0  0  0
   56.3070   30.9410   44.8480 N   0  0  0  0  0  0  0  0  0  0  0  0
   57.2310   31.9010   45.0990 C   0  0  0  0  0  0  0  0  0  0  0  0
   57.0040   33.0810   44.7200 O   0  0  0  0  0  0  0  0  0  0  0  0
   58.4220   31.5730   45.7730 C   0  0  0  0  0  0  0  0  0  0  0  0
   59.3950   32.5540   46.0510 C   0  0  0  0  0  0  0  0  0  0  0  0
   59.2282   33.5931   45.7309 H   0  0  0  0  0  0  0  0  0  0  0  0
   60.5720   32.2180   46.7310 C   0  0  0  0  0  0  0  0  0  0  0  0
   61.5820   33.2770   47.0580 C   0  0  0  0  0  0  0  0  0  0  0  0
   61.6729   33.3723   48.1501 H   0  0  0  0  0  0  0  0  0  0  0  0
   62.5570   32.9979   46.6319 H   0  0  0  0  0  0  0  0  0  0  0  0
   61.2571   34.2377   46.6319 H   0  0  0  0  0  0  0  0  0  0  0  0
   60.7630   30.9030   47.1720 C   0  0  0  0  0  0  0  0  0  0  0  0
   61.6713   30.6421   47.7350 H   0  0  0  0  0  0  0  0  0  0  0  0
   59.8080   29.9200   46.9020 C   0  0  0  0  0  0  0  0  0  0  0  0
   59.9740   28.8906   47.2523 H   0  0  0  0  0  0  0  0  0  0  0  0
   58.6340   30.2310   46.1860 C   0  0  0  0  0  0  0  0  0  0  0  0
  1  2  1  0
  2  3  1  0
  3  4  2  0
  4  5  1  0
  4  6  1  0
  6  7  1  0
  6  8  2  0
  8  9  1  0
  8 10  1  0
 10 11  1  0
 10 12  2  0
 12 13  1  0
 13 14  1  0
 13 15  2  0
 15 16  1  0
 15 17  1  0
 17 18  2  0
 17 19  1  0
 19 20  2  0
 20 21  1  0
 20 22  1  0
 22 23  1  0
 23 24  2  0
 23 25  1  0
 25 26  2  0
 26 27  1  0
 26 28  1  0
 28 29  1  0
 29 30  1  0
 29 31  1  0
 29 32  1  0
 28 33  2  0
 33 34  1  0
 33 35  1  0
 35 36  1  0
 35 37  2  0
 12  3  1  0
 37 19  1  0
 37 25  1  0
M  CHG  2  21  -1  22  -1
M  END
>  <UniqueID>  (19) 
17

>  <SMILES>  (19) 
Cc1ccc2c(C(=O)/C=C/c3ccccc3O)c([O-])[n-]c(=O)c2c1

>  <Energy>  (19) 
56.59894297713906

>  <Genealogy>  (19) 
Cc1ccc2c(C(=O)C=Cc3ccccc3O)c([O-])[n-]c(=O)c2c1 (protonated)
Cc1ccc2c(C(=O)/C=C/c3ccccc3O)c([O-])[n-]c(=O)c2c1 (cis-trans isomerization)
Cc1ccc2c(C(=O)/C=C/c3ccccc3O)c([O-])[n-]c(=O)c2c1 (3D coordinates assigned)
Cc1ccc2c(C(=O)/C=C/c3ccccc3O)c([O-])[n-]c(=O)c2c1 (optimized conformer: 56.59894297713906 kcal/mol)

>  <smiles>  (19) 
Cc1ccc2c(C(=O)C=Cc3ccccc3O)c(O)[nH]c(=O)c2c1

>  <score_type>  (19) 
oracle

>  <origin>  (19) 
adg

>  <m_score__min__energy>  (19) 
-13.289999999999999

>  <m_primary>  (19) 
energy

$$$$
19:0
     RDKit          3D

 62 65  0  0  0  0  0  0  0  0999 V2000
   58.1680   33.6980   52.7280 C   0  0  0  0  0  0  0  0  0  0  0  0
   57.9240   32.2350   53.0780 C   0  0  0  0  0  0  0  0  0  0  0  0
   58.4610   31.1520   51.7590 S   0  0  0  0  0  0  0  0  0  0  0  0
   57.2590   30.4170   51.2340 O   0  0  0  0  0  0  0  0  0  0  0  0
   59.4410   30.1450   52.2920 O   0  0  0  0  0  0  0  0  0  0  0  0
   59.2110   32.0600   50.4340 C   0  0  0  0  0  0  0  0  0  0  0  0
   58.4660   32.2750   49.2620 C   0  0  0  0  0  0  0  0  0  0  0  0
   58.9920   33.0220   48.2040 C   0  0  0  0  0  0  0  0  0  0  0  0
   58.2290   33.1770   47.0000 N   0  0  0  0  0  0  0  0  0  0  0  0
   58.1600   32.3750   45.9710 C   0  0  0  0  0  0  0  0  0  0  0  0
   58.3420   31.0490   46.1920 N   0  0  0  0  0  0  0  0  0  0  0  0
   58.2990   30.1240   45.1990 C   0  0  0  0  0  0  0  0  0  0  0  0
   58.5230   28.6930   45.5260 C   0  0  0  0  0  0  0  0  0  0  0  0
   59.8220   28.1670   45.6640 C   0  0  0  0  0  0  0  0  0  0  0  0
   60.0100   26.8130   45.9570 C   0  0  0  0  0  0  0  0  0  0  0  0
   58.9110   25.9680   46.1130 C   0  0  0  0  0  0  0  0  0  0  0  0
   57.6120   26.4730   45.9780 C   0  0  0  0  0  0  0  0  0  0  0  0
   56.2230   25.4060   46.1570 S   0  0  0  0  0  0  0  0  0  0  0  0
   54.7670   26.3130   45.9470 N   0  0  0  0  0  0  0  0  0  0  0  0
   56.2820   24.3130   45.1290 O   0  0  0  0  0  0  0  0  0  0  0  0
   56.2340   24.7820   47.5250 O   0  0  0  0  0  0  0  0  0  0  0  0
   57.4220   27.8290   45.6740 C   0  0  0  0  0  0  0  0  0  0  0  0
   58.0670   30.5600   43.8870 C   0  0  0  0  0  0  0  0  0  0  0  0
   57.8530   31.8840   43.6310 N   0  0  0  0  0  0  0  0  0  0  0  0
   57.5830   32.3210   42.2540 C   0  0  0  0  0  0  0  0  0  0  0  0
   57.8740   32.8030   44.6490 C   0  0  0  0  0  0  0  0  0  0  0  0
   57.6080   34.0120   44.4010 O   0  0  0  0  0  0  0  0  0  0  0  0
   60.3020   33.5100   48.2850 C   0  0  0  0  0  0  0  0  0  0  0  0
   61.0580   33.2960   49.4370 C   0  0  0  0  0  0  0  0  0  0  0  0
   60.5280   32.5750   50.5170 C   0  0  0  0  0  0  0  0  0  0  0  0
   61.3520   32.3640   51.6740 N   0  0  0  0  0  0  0  0  0  0  0  0
   62.1670   31.1460   51.7660 C   0  0  0  0  0  0  0  0  0  0  0  0
   63.4960   31.4390   52.4770 C   0  0  0  0  0  0  0  0  0  0  0  0
   64.0300   32.7380   52.0490 N   0  0  0  0  0  0  0  0  0  0  0  0
   63.1620   33.8660   52.4430 C   0  0  0  0  0  0  0  0  0  0  0  0
   61.6690   33.4940   52.5530 C   0  0  0  0  0  0  0  0  0  0  0  0
   58.2659   34.2849   53.6532 H   0  0  0  0  0  0  0  0  0  0  0  0
   59.0930   33.7848   52.1391 H   0  0  0  0  0  0  0  0  0  0  0  0
   57.3212   34.0803   52.1391 H   0  0  0  0  0  0  0  0  0  0  0  0
   58.4813   31.9880   53.9936 H   0  0  0  0  0  0  0  0  0  0  0  0
   56.8440   32.0897   53.2282 H   0  0  0  0  0  0  0  0  0  0  0  0
   57.4552   31.8497   49.1760 H   0  0  0  0  0  0  0  0  0  0  0  0
   60.6943   28.8257   45.5405 H   0  0  0  0  0  0  0  0  0  0  0  0
   61.0287   26.4123   46.0650 H   0  0  0  0  0  0  0  0  0  0  0  0
   59.0652   24.9033   46.3424 H   0  0  0  0  0  0  0  0  0  0  0  0
   54.7860   27.0870   46.6490 H   0  0  0  0  0  0  0  0  0  0  0  0
   56.4018   28.2212   45.5500 H   0  0  0  0  0  0  0  0  0  0  0  0
   58.0573   29.8333   43.0613 H   0  0  0  0  0  0  0  0  0  0  0  0
   57.0049   33.2567   42.2729 H   0  0  0  0  0  0  0  0  0  0  0  0
   58.5351   32.4888   41.7292 H   0  0  0  0  0  0  0  0  0  0  0  0
   57.0069   31.5446   41.7292 H   0  0  0  0  0  0  0  0  0  0  0  0
   60.7354   34.0630   47.4386 H   0  0  0  0  0  0  0  0  0  0  0  0
   62.0805   33.6968   49.4994 H   0  0  0  0  0  0  0  0  0  0  0  0
   61.6140   30.3827   52.3330 H   0  0  0  0  0  0  0  0  0  0  0  0
   62.3803   30.7838   50.7495 H   0  0  0  0  0  0  0  0  0  0  0  0
   63.3293   31.4561   53.5642 H   0  0  0  0  0  0  0  0  0  0  0  0
   64.2202   30.6526   52.2179 H   0  0  0  0  0  0  0  0  0  0  0  0
   64.1230   32.7310   51.0050 H   0  0  0  0  0  0  0  0  0  0  0  0
   63.4997   34.2381   53.4215 H   0  0  0  0  0  0  0  0  0  0  0  0
   63.2453   34.6258   51.6520 H   0  0  0  0  0  0  0  0  0  0  0  0
   61.4410   33.2179   53.5931 H   0  0  0  0  0  0  0  0  0  0  0  0
   61.0644   34.3608   52.2479 H   0  0  0  0  0  0  0  0  0  0  0  0
  1  2  1  0
  2  3  1  0
  3  4  2  0
  3  5  2  0
  3  6  1  0
  6  7  2  0
  7  8  1  0
  8  9  1  0
  9 10  2  3
 10 11  1  0
 11 12  1  0
 12 13  1  0
 13 14  2  0
 14 15  1  0
 15 16  2  0
 16 17  1  0
 17 18  1  0
 18 19  1  0
 18 20  2  0
 18 21  2  0
 17 22  2  0
 12 23  2  0
 23 24  1  0
 24 25  1  0
 24 26  1  0
 26 27  2  0
  8 28  2  0
 28 29  1  0
 29 30  2  0
 30 31  1  0
 31 32  1  0
 32 33  1  0
 33 34  1  0
 34 35  1  0
 35 36  1  0
 30  6  1  0
 36 31  1  0
 26 10  1  0
 22 13  1  0
  1 37  1  0
  1 38  1  0
  1 39  1  0
  2 40  1  0
  2 41  1  0
  7 42  1  0
 14 43  1  0
 15 44  1  0
 16 45  1  0
 19 46  1  0
 22 47  1  0
 23 48  1  0
 25 49  1  0
 25 50  1  0
 25 51  1  0
 28 52  1  0
 29 53  1  0
 32 54  1  0
 32 55  1  0
 33 56  1  0
 33 57  1  0
 34 58  1  0
 35 59  1  0
 35 60  1  0
 36 61  1  0
 36 62  1  0
M  CHG  2  11  -1  19  -1
M  END
>  <UniqueID>  (20) 
18

>  <SMILES>  (20) 
CCS(=O)(=O)c1cc(N=c2[n-]c(-c3cccc(S([NH-])(=O)=O)c3)cn(C)c2=O)ccc1N1CCNCC1

>  <Energy>  (20) 
91.566297825773

>  <Genealogy>  (20) 
CCS(=O)(=O)c1cc(N=c2[n-]c(-c3cccc(S([NH-])(=O)=O)c3)cn(C)c2=O)ccc1N1CCNCC1 (protonated)
CCS(=O)(=O)c1cc(N=c2[n-]c(-c3cccc(S([NH-])(=O)=O)c3)cn(C)c2=O)ccc1N1CCNCC1 (3D coordinates assigned)
CCS(=O)(=O)c1cc(N=c2[n-]c(-c3cccc(S([NH-])(=O)=O)c3)cn(C)c2=O)ccc1N1CCNCC1 (nonaromatic ring conformer: 91.566297825773 kcal/mol)

>  <smiles>  (20) 
CCS(=O)(=O)c1cc(N=c2[nH]c(-c3cccc(S(N)(=O)=O)c3)cn(C)c2=O)ccc1N1CCNCC1

>  <score_type>  (20) 
oracle

>  <origin>  (20) 
adg

>  <m_score__min__energy>  (20) 
-13.609999999999999

>  <m_primary>  (20) 
energy

$$$$
20:0
     RDKit          3D

 41 42  0  0  0  0  0  0  0  0999 V2000
   60.1850   32.2380   46.7200 C   0  0  0  0  0  0  0  0  0  0  0  0
   59.2880   31.1590   46.2110 C   0  0  0  0  0  0  0  0  0  0  0  0
   59.5110   29.5250   46.5220 S   0  0  0  0  0  0  0  0  0  0  0  0
   58.1650   28.9870   45.6670 C   0  0  0  0  0  0  0  0  0  0  0  0
   57.7010   27.6220   45.6300 N   0  0  0  0  0  0  0  0  0  0  0  0
   58.4690   26.5010   46.1010 C   0  0  0  0  0  0  0  0  0  0  0  0
   59.5660   26.6720   46.7010 O   0  0  0  0  0  0  0  0  0  0  0  0
   58.0330   25.1070   45.7730 C   0  0  0  0  0  0  0  0  0  0  0  0
   56.7350   24.8600   46.3850 N   0  0  0  0  0  0  0  0  0  0  0  0
   55.5060   25.3280   45.8200 C   0  0  0  0  0  0  0  0  0  0  0  0
   55.1160   26.5100   46.0320 O   0  0  0  0  0  0  0  0  0  0  0  0
   54.7260   24.4390   44.9050 C   0  0  0  0  0  0  0  0  0  0  0  0
   55.5930   23.2790   44.4790 C   0  0  0  0  0  0  0  0  0  0  0  0
   56.1680   23.2940   43.1940 C   0  0  0  0  0  0  0  0  0  0  0  0
   56.9040   22.1980   42.7300 C   0  0  0  0  0  0  0  0  0  0  0  0
   57.0650   21.0720   43.5380 C   0  0  0  0  0  0  0  0  0  0  0  0
   56.4950   21.0390   44.8140 C   0  0  0  0  0  0  0  0  0  0  0  0
   55.7510   22.1310   45.2880 C   0  0  0  0  0  0  0  0  0  0  0  0
   55.0230   22.0070   46.8890 Cl  0  0  0  0  0  0  0  0  0  0  0  0
   57.4900   30.0950   45.1300 C   0  0  0  0  0  0  0  0  0  0  0  0
   56.2340   29.9890   44.3500 C   0  0  0  0  0  0  0  0  0  0  0  0
   55.2670   28.9880   44.6590 N   0  0  0  0  0  0  0  0  0  0  0  0
   56.0150   30.7730   43.3890 O   0  0  0  0  0  0  0  0  0  0  0  0
   58.1510   31.3190   45.4120 C   0  0  0  0  0  0  0  0  0  0  0  0
   57.6750   32.6570   44.9210 C   0  0  0  0  0  0  0  0  0  0  0  0
   60.1793   32.2311   47.8200 H   0  0  0  0  0  0  0  0  0  0  0  0
   61.2091   32.0649   46.3576 H   0  0  0  0  0  0  0  0  0  0  0  0
   59.8277   33.2132   46.3576 H   0  0  0  0  0  0  0  0  0  0  0  0
   56.7860   27.4200   45.1720 H   0  0  0  0  0  0  0  0  0  0  0  0
   57.9541   24.9924   44.6818 H   0  0  0  0  0  0  0  0  0  0  0  0
   58.7692   24.3867   46.1593 H   0  0  0  0  0  0  0  0  0  0  0  0
   53.8370   24.0600   45.4304 H   0  0  0  0  0  0  0  0  0  0  0  0
   54.4100   25.0084   44.0185 H   0  0  0  0  0  0  0  0  0  0  0  0
   56.0375   24.1753   42.5488 H   0  0  0  0  0  0  0  0  0  0  0  0
   57.3560   22.2242   41.7275 H   0  0  0  0  0  0  0  0  0  0  0  0
   57.6408   20.2097   43.1707 H   0  0  0  0  0  0  0  0  0  0  0  0
   56.6303   20.1521   45.4504 H   0  0  0  0  0  0  0  0  0  0  0  0
   55.1820   28.6030   45.6250 H   0  0  0  0  0  0  0  0  0  0  0  0
   57.4453   33.3028   45.7814 H   0  0  0  0  0  0  0  0  0  0  0  0
   58.4618   33.1249   44.3111 H   0  0  0  0  0  0  0  0  0  0  0  0
   56.7694   32.5228   44.3111 H   0  0  0  0  0  0  0  0  0  0  0  0
  1  2  1  0
  2  3  1  0
  3  4  1  0
  4  5  1  0
  5  6  1  0
  6  7  2  0
  6  8  1  0
  8  9  1  0
  9 10  1  0
 10 11  2  0
 10 12  1  0
 12 13  1  0
 13 14  2  0
 14 15  1  0
 15 16  2  0
 16 17  1  0
 17 18  2  0
 18 19  1  0
  4 20  2  0
 20 21  1  0
 21 22  1  0
 21 23  2  0
 20 24  1  0
 24 25  1  0
 24  2  2  0
 18 13  1  0
  1 26  1  0
  1 27  1  0
  1 28  1  0
  5 29  1  0
  8 30  1  0
  8 31  1  0
 12 32  1  0
 12 33  1  0
 14 34  1  0
 15 35  1  0
 16 36  1  0
 17 37  1  0
 22 38  1  0
 25 39  1  0
 25 40  1  0
 25 41  1  0
M  CHG  2   9  -1  22  -1
M  END
>  <UniqueID>  (21) 
19

>  <SMILES>  (21) 
Cc1sc(NC(=O)C[N-]C(=O)Cc2ccccc2Cl)c(C([NH-])=O)c1C

>  <Energy>  (21) 
65.37199250600405

>  <Genealogy>  (21) 
Cc1sc(NC(=O)C[N-]C(=O)Cc2ccccc2Cl)c(C([NH-])=O)c1C (protonated)
Cc1sc(NC(=O)C[N-]C(=O)Cc2ccccc2Cl)c(C([NH-])=O)c1C (3D coordinates assigned)
Cc1sc(NC(=O)C[N-]C(=O)Cc2ccccc2Cl)c(C([NH-])=O)c1C (optimized conformer: 65.37199250600405 kcal/mol)

>  <smiles>  (21) 
Cc1sc(NC(=O)CNC(=O)Cc2ccccc2Cl)c(C(N)=O)c1C

>  <score_type>  (21) 
oracle

>  <origin>  (21) 
adg

>  <m_score__min__energy>  (21) 
-12.539999999999999

>  <m_primary>  (21) 
energy

$$$$
21:0
     RDKit          3D

 29 30  0  0  0  0  0  0  0  0999 V2000
   58.9630   32.7900   49.2900 C   0  0  0  0  0  0  0  0  0  0  0  0
   59.1210   33.4470   47.9510 C   0  0  0  0  0  0  0  0  0  0  0  0
   59.6080   34.7610   47.8620 C   0  0  0  0  0  0  0  0  0  0  0  0
   59.7120   35.3890   46.6190 C   0  0  0  0  0  0  0  0  0  0  0  0
   59.3250   34.7160   45.4570 C   0  0  0  0  0  0  0  0  0  0  0  0
   58.8320   33.4040   45.5310 C   0  0  0  0  0  0  0  0  0  0  0  0
   58.3700   32.6980   44.2870 C   0  0  0  0  0  0  0  0  0  0  0  0
   57.9750   31.2890   44.6140 C   0  0  0  0  0  0  0  0  0  0  0  0
   56.6800   30.9060   44.4820 N   0  0  0  0  0  0  0  0  0  0  0  0
   56.2730   29.6510   44.8020 C   0  0  0  0  0  0  0  0  0  0  0  0
   55.0600   29.3460   44.6570 O   0  0  0  0  0  0  0  0  0  0  0  0
   57.2060   28.7140   45.2920 C   0  0  0  0  0  0  0  0  0  0  0  0
   56.8300   27.3270   45.6610 C   0  0  0  0  0  0  0  0  0  0  0  0
   57.6940   26.4100   45.7040 O   0  0  0  0  0  0  0  0  0  0  0  0
   55.5100   27.0150   45.9670 O   0  0  0  0  0  0  0  0  0  0  0  0
   58.5360   29.1390   45.4300 C   0  0  0  0  0  0  0  0  0  0  0  0
   58.8940   30.4070   45.0960 N   0  0  0  0  0  0  0  0  0  0  0  0
   58.7160   32.7800   46.7850 C   0  0  0  0  0  0  0  0  0  0  0  0
   59.1409   33.5296   50.0846 H   0  0  0  0  0  0  0  0  0  0  0  0
   57.9429   32.3893   49.3837 H   0  0  0  0  0  0  0  0  0  0  0  0
   59.6894   31.9693   49.3837 H   0  0  0  0  0  0  0  0  0  0  0  0
   59.9085   35.2973   48.7742 H   0  0  0  0  0  0  0  0  0  0  0  0
   60.0997   36.4164   46.5544 H   0  0  0  0  0  0  0  0  0  0  0  0
   59.4071   35.2163   44.4808 H   0  0  0  0  0  0  0  0  0  0  0  0
   57.5045   33.2306   43.8659 H   0  0  0  0  0  0  0  0  0  0  0  0
   59.1906   32.6823   43.5547 H   0  0  0  0  0  0  0  0  0  0  0  0
   59.2952   28.4404   45.8116 H   0  0  0  0  0  0  0  0  0  0  0  0
   59.8900   30.7000   45.2170 H   0  0  0  0  0  0  0  0  0  0  0  0
   58.3050   31.7619   46.8527 H   0  0  0  0  0  0  0  0  0  0  0  0
  1  2  1  0
  2  3  2  0
  3  4  1  0
  4  5  2  0
  5  6  1  0
  6  7  1  0
  7  8  1  0
  8  9  2  0
  9 10  1  0
 10 11  2  0
 10 12  1  0
 12 13  1  0
 13 14  2  0
 13 15  1  0
 12 16  2  0
 16 17  1  0
  6 18  2  0
 18  2  1  0
 17  8  1  0
  1 19  1  0
  1 20  1  0
  1 21  1  0
  3 22  1  0
  4 23  1  0
  5 24  1  0
  7 25  1  0
  7 26  1  0
 16 27  1  0
 17 28  1  0
 18 29  1  0
M  CHG  1  15  -1
M  END
>  <UniqueID>  (22) 
20

>  <SMILES>  (22) 
Cc1cccc(Cc2nc(=O)c(C(=O)[O-])c[nH]2)c1

>  <Energy>  (22) 
29.474379698387068

>  <Genealogy>  (22) 
Cc1cccc(Cc2nc(=O)c(C(=O)[O-])c[nH]2)c1 (protonated)
Cc1cccc(Cc2nc(=O)c(C(=O)[O-])c[nH]2)c1 (3D coordinates assigned)
Cc1cccc(Cc2nc(=O)c(C(=O)[O-])c[nH]2)c1 (optimized conformer: 29.474379698387068 kcal/mol)

>  <smiles>  (22) 
Cc1cccc(Cc2nc(=O)c(C(=O)O)c[nH]2)c1

>  <score_type>  (22) 
oracle

>  <origin>  (22) 
adg

>  <m_score__min__energy>  (22) 
-9.5

>  <m_primary>  (22) 
energy

$$$$
22:0
     RDKit          3D

 44 46  0  0  0  0  0  0  0  0999 V2000
   56.8600   21.0370   42.9270 C   0  0  0  0  0  0  0  0  0  0  0  0
   56.6260   22.2640   43.7500 C   0  0  0  0  0  0  0  0  0  0  0  0
   57.7000   23.0660   44.1550 C   0  0  0  0  0  0  0  0  0  0  0  0
   57.4530   24.2180   44.9030 C   0  0  0  0  0  0  0  0  0  0  0  0
   56.1430   24.5500   45.2700 C   0  0  0  0  0  0  0  0  0  0  0  0
   55.8880   25.7760   46.0530 C   0  0  0  0  0  0  0  0  0  0  0  0
   54.7520   26.3150   45.9980 O   0  0  0  0  0  0  0  0  0  0  0  0
   56.9000   26.3680   46.8770 N   0  0  0  0  0  0  0  0  0  0  0  0
   57.7500   27.4820   46.4630 C   0  0  0  0  0  0  0  0  0  0  0  0
   58.9220   27.6470   47.4390 C   0  0  0  0  0  0  0  0  0  0  0  0
   59.1790   29.1010   47.7300 C   0  0  0  0  0  0  0  0  0  0  0  0
   59.9940   29.4860   48.8030 C   0  0  0  0  0  0  0  0  0  0  0  0
   60.2100   30.8410   49.0710 C   0  0  0  0  0  0  0  0  0  0  0  0
   59.6160   31.8200   48.2660 C   0  0  0  0  0  0  0  0  0  0  0  0
   58.8180   31.4470   47.1720 C   0  0  0  0  0  0  0  0  0  0  0  0
   58.1680   32.4900   46.3040 C   0  0  0  0  0  0  0  0  0  0  0  0
   57.7520   31.8890   45.0000 C   0  0  0  0  0  0  0  0  0  0  0  0
   58.0740   32.3950   43.7920 N   0  0  0  0  0  0  0  0  0  0  0  0
   57.4410   31.6230   42.9220 N   0  0  0  0  0  0  0  0  0  0  0  0
   56.7700   30.6960   43.5830 N   0  0  0  0  0  0  0  0  0  0  0  0
   55.8950   29.7130   42.9610 C   0  0  0  0  0  0  0  0  0  0  0  0
   56.9160   30.8390   44.8880 N   0  0  0  0  0  0  0  0  0  0  0  0
   58.6040   30.0860   46.9080 C   0  0  0  0  0  0  0  0  0  0  0  0
   55.0920   23.7140   44.8500 C   0  0  0  0  0  0  0  0  0  0  0  0
   53.8970   23.9910   45.1360 O   0  0  0  0  0  0  0  0  0  0  0  0
   55.3590   22.6040   44.1120 N   0  0  0  0  0  0  0  0  0  0  0  0
   57.0242   20.1758   43.5913 H   0  0  0  0  0  0  0  0  0  0  0  0
   55.9817   20.8482   42.2923 H   0  0  0  0  0  0  0  0  0  0  0  0
   57.7462   21.1847   42.2923 H   0  0  0  0  0  0  0  0  0  0  0  0
   58.7302   22.7902   43.8857 H   0  0  0  0  0  0  0  0  0  0  0  0
   58.2888   24.8664   45.2048 H   0  0  0  0  0  0  0  0  0  0  0  0
   58.1423   27.2841   45.4546 H   0  0  0  0  0  0  0  0  0  0  0  0
   57.1534   28.4061   46.4599 H   0  0  0  0  0  0  0  0  0  0  0  0
   58.6832   27.1284   48.3792 H   0  0  0  0  0  0  0  0  0  0  0  0
   59.8241   27.2159   46.9804 H   0  0  0  0  0  0  0  0  0  0  0  0
   60.4652   28.7198   49.4362 H   0  0  0  0  0  0  0  0  0  0  0  0
   60.8481   31.1384   49.9162 H   0  0  0  0  0  0  0  0  0  0  0  0
   59.7747   32.8850   48.4909 H   0  0  0  0  0  0  0  0  0  0  0  0
   57.2822   32.8907   46.8186 H   0  0  0  0  0  0  0  0  0  0  0  0
   58.8888   33.2987   46.1132 H   0  0  0  0  0  0  0  0  0  0  0  0
   55.3799   29.1344   43.7420 H   0  0  0  0  0  0  0  0  0  0  0  0
   55.1510   30.2281   42.3355 H   0  0  0  0  0  0  0  0  0  0  0  0
   56.4928   29.0337   42.3355 H   0  0  0  0  0  0  0  0  0  0  0  0
   57.9817   29.7873   46.0515 H   0  0  0  0  0  0  0  0  0  0  0  0
  1  2  1  0
  2  3  2  0
  3  4  1  0
  4  5  2  0
  5  6  1  0
  6  7  2  0
  6  8  1  0
  8  9  1  0
  9 10  1  0
 10 11  1  0
 11 12  2  0
 12 13  1  0
 13 14  2  0
 14 15  1  0
 15 16  1  0
 16 17  1  0
 17 18  1  0
 18 19  2  0
 19 20  1  0
 20 21  1  0
 20 22  1  0
 15 23  2  0
  5 24  1  0
 24 25  2  0
 24 26  1  0
 26  2  1  0
 23 11  1  0
 22 17  2  0
  1 27  1  0
  1 28  1  0
  1 29  1  0
  3 30  1  0
  4 31  1  0
  9 32  1  0
  9 33  1  0
 10 34  1  0
 10 35  1  0
 12 36  1  0
 13 37  1  0
 14 38  1  0
 16 39  1  0
 16 40  1  0
 21 41  1  0
 21 42  1  0
 21 43  1  0
 23 44  1  0
M  CHG  2   8  -1  26  -1
M  END
>  <UniqueID>  (23) 
21

>  <SMILES>  (23) 
Cc1ccc(C(=O)[N-]CCc2cccc(Cc3nnn(C)n3)c2)c(=O)[n-]1

>  <Energy>  (23) 
81.29005382713385

>  <Genealogy>  (23) 
Cc1ccc(C(=O)[N-]CCc2cccc(Cc3nnn(C)n3)c2)c(=O)[n-]1 (protonated)
Cc1ccc(C(=O)[N-]CCc2cccc(Cc3nnn(C)n3)c2)c(=O)[n-]1 (3D coordinates assigned)
Cc1ccc(C(=O)[N-]CCc2cccc(Cc3nnn(C)n3)c2)c(=O)[n-]1 (optimized conformer: 81.29005382713385 kcal/mol)

>  <smiles>  (23) 
Cc1ccc(C(=O)NCCc2cccc(Cc3nnn(C)n3)c2)c(=O)[nH]1

>  <score_type>  (23) 
oracle

>  <origin>  (23) 
adg

>  <m_score__min__energy>  (23) 
-12.02

>  <m_primary>  (23) 
energy

$$$$
23:0
     RDKit          3D

 43 45  0  0  0  0  0  0  0  0999 V2000
   57.5740   29.6670   44.1170 C   0  0  0  0  0  0  0  0  0  0  0  0
   57.8910   29.3850   45.3910 C   0  0  0  0  0  0  0  0  0  0  0  0
   58.1160   28.1160   45.9480 C   0  0  0  0  0  0  0  0  0  0  0  0
   57.8770   26.8820   45.4630 C   0  0  0  0  0  0  0  0  0  0  0  0
   57.2910   25.7640   46.2200 C   0  0  0  0  0  0  0  0  0  0  0  0
   57.9980   24.7370   46.7300 N   0  0  0  0  0  0  0  0  0  0  0  0
   57.0440   23.9070   47.2030 C   0  0  0  0  0  0  0  0  0  0  0  0
   57.3150   22.8200   47.7780 O   0  0  0  0  0  0  0  0  0  0  0  0
   55.7770   24.3260   47.0030 N   0  0  0  0  0  0  0  0  0  0  0  0
   55.9480   25.4970   46.3670 C   0  0  0  0  0  0  0  0  0  0  0  0
   54.8930   26.2970   45.9360 O   0  0  0  0  0  0  0  0  0  0  0  0
   58.6580   28.3350   47.2050 C   0  0  0  0  0  0  0  0  0  0  0  0
   58.6760   29.7000   47.4010 C   0  0  0  0  0  0  0  0  0  0  0  0
   59.1630   30.3710   48.6490 C   0  0  0  0  0  0  0  0  0  0  0  0
   58.2190   30.3380   46.3010 N   0  0  0  0  0  0  0  0  0  0  0  0
   58.1210   31.7630   46.1370 C   0  0  0  0  0  0  0  0  0  0  0  0
   57.0870   32.2530   45.6070 O   0  0  0  0  0  0  0  0  0  0  0  0
   59.1760   32.6320   46.5900 N   0  0  0  0  0  0  0  0  0  0  0  0
   58.8570   34.0330   46.8980 C   0  0  0  0  0  0  0  0  0  0  0  0
   60.0600   34.7520   47.5100 C   0  0  0  0  0  0  0  0  0  0  0  0
   60.7670   33.8210   48.4040 N   0  0  0  0  0  0  0  0  0  0  0  0
   61.7350   34.5460   49.2400 C   0  0  0  0  0  0  0  0  0  0  0  0
   61.4510   32.7680   47.6220 C   0  0  0  0  0  0  0  0  0  0  0  0
   60.5800   32.2090   46.4740 C   0  0  0  0  0  0  0  0  0  0  0  0
   57.4231   30.7113   43.8060 H   0  0  0  0  0  0  0  0  0  0  0  0
   57.4653   28.8537   43.3843 H   0  0  0  0  0  0  0  0  0  0  0  0
   58.1423   26.6941   44.4121 H   0  0  0  0  0  0  0  0  0  0  0  0
   54.0090   26.3140   46.4300 H   0  0  0  0  0  0  0  0  0  0  0  0
   59.0069   27.5670   47.9110 H   0  0  0  0  0  0  0  0  0  0  0  0
   58.7748   29.8361   49.5283 H   0  0  0  0  0  0  0  0  0  0  0  0
   60.2628   30.3572   48.6675 H   0  0  0  0  0  0  0  0  0  0  0  0
   58.8090   31.4123   48.6675 H   0  0  0  0  0  0  0  0  0  0  0  0
   58.5656   34.5470   45.9702 H   0  0  0  0  0  0  0  0  0  0  0  0
   58.0328   34.0508   47.6263 H   0  0  0  0  0  0  0  0  0  0  0  0
   60.7386   35.0830   46.7101 H   0  0  0  0  0  0  0  0  0  0  0  0
   59.7199   35.6297   48.0791 H   0  0  0  0  0  0  0  0  0  0  0  0
   61.5044   34.3733   50.3016 H   0  0  0  0  0  0  0  0  0  0  0  0
   62.7508   34.1847   49.0219 H   0  0  0  0  0  0  0  0  0  0  0  0
   61.6740   35.6224   49.0219 H   0  0  0  0  0  0  0  0  0  0  0  0
   62.3698   33.1921   47.1908 H   0  0  0  0  0  0  0  0  0  0  0  0
   61.6667   31.9355   48.3078 H   0  0  0  0  0  0  0  0  0  0  0  0
   60.9815   32.5701   45.5157 H   0  0  0  0  0  0  0  0  0  0  0  0
   60.6092   31.1108   46.5297 H   0  0  0  0  0  0  0  0  0  0  0  0
  1  2  2  0
  2  3  1  0
  3  4  2  3
  4  5  1  0
  5  6  1  0
  6  7  1  0
  7  8  2  0
  7  9  1  0
  9 10  1  0
 10 11  1  0
  3 12  1  0
 12 13  2  0
 13 14  1  0
 13 15  1  0
 15 16  1  0
 16 17  2  0
 16 18  1  0
 18 19  1  0
 19 20  1  0
 20 21  1  0
 21 22  1  0
 21 23  1  0
 23 24  1  0
 15  2  1  0
 24 18  1  0
 10  5  2  0
  1 25  1  0
  1 26  1  0
  4 27  1  0
 11 28  1  0
 12 29  1  0
 14 30  1  0
 14 31  1  0
 14 32  1  0
 19 33  1  0
 19 34  1  0
 20 35  1  0
 20 36  1  0
 22 37  1  0
 22 38  1  0
 22 39  1  0
 23 40  1  0
 23 41  1  0
 24 42  1  0
 24 43  1  0
M  CHG  2   6  -1   9  -1
M  END
>  <UniqueID>  (24) 
22

>  <SMILES>  (24) 
C=c1c(=Cc2[n-]c(=O)[n-]c2O)cc(C)n1C(=O)N1CCN(C)CC1

>  <Energy>  (24) 
121.57428331142668

>  <Genealogy>  (24) 
C=c1c(=Cc2[n-]c(=O)[n-]c2O)cc(C)n1C(=O)N1CCN(C)CC1 (protonated)
C=c1c(=Cc2[n-]c(=O)[n-]c2O)cc(C)n1C(=O)N1CCN(C)CC1 (3D coordinates assigned)
C=c1c(=Cc2[n-]c(=O)[n-]c2O)cc(C)n1C(=O)N1CCN(C)CC1 (nonaromatic ring conformer: 121.57428331142668 kcal/mol)

>  <smiles>  (24) 
C=c1c(=Cc2[nH]c(=O)[nH]c2O)cc(C)n1C(=O)N1CCN(C)CC1

>  <score_type>  (24) 
oracle

>  <origin>  (24) 
adg

>  <m_score__min__energy>  (24) 
-12.31

>  <m_primary>  (24) 
energy

$$$$
24:0
     RDKit          3D

 28 30  0  0  0  0  0  0  0  0999 V2000
   53.3492   28.2061   53.5383 H   0  0  0  0  0  0  0  0  0  0  0  0
   54.4450   28.2140   53.4430 C   0  0  0  0  0  0  0  0  0  0  0  0
   55.0391   27.3863   53.8576 H   0  0  0  0  0  0  0  0  0  0  0  0
   55.0550   29.2300   52.8230 C   0  0  0  0  0  0  0  0  0  0  0  0
   54.4900   30.4270   52.3590 C   0  0  0  0  0  0  0  0  0  0  0  0
   53.2060   30.8140   52.2440 C   0  0  0  0  0  0  0  0  0  0  0  0
   52.7396   31.2795   53.1248 H   0  0  0  0  0  0  0  0  0  0  0  0
   52.3730   30.6670   51.0390 C   0  0  0  0  0  0  0  0  0  0  0  0
   51.4410   31.5690   50.5810 C   0  0  0  0  0  0  0  0  0  0  0  0
   51.0300   32.7170   51.2450 O   0  0  0  0  0  0  0  0  0  0  0  0
   50.9720   31.1930   49.3760 N   0  0  0  0  0  0  0  0  0  0  0  0
   51.6680   30.0630   49.1230 C   0  0  0  0  0  0  0  0  0  0  0  0
   51.5290   29.3980   48.0640 O   0  0  0  0  0  0  0  0  0  0  0  0
   52.5340   29.7220   50.0970 N   0  0  0  0  0  0  0  0  0  0  0  0
   53.2070   28.9230   50.0980 H   0  0  0  0  0  0  0  0  0  0  0  0
   55.5570   31.2340   51.9950 C   0  0  0  0  0  0  0  0  0  0  0  0
   55.4996   32.2673   51.6221 H   0  0  0  0  0  0  0  0  0  0  0  0
   56.7050   30.4930   52.1900 C   0  0  0  0  0  0  0  0  0  0  0  0
   58.0920   31.0070   51.8980 C   0  0  0  0  0  0  0  0  0  0  0  0
   58.4584   30.8563   52.9242 H   0  0  0  0  0  0  0  0  0  0  0  0
   58.1930   32.1270   50.8740 C   0  0  0  0  0  0  0  0  0  0  0  0
   57.2799   32.5514   50.4312 H   0  0  0  0  0  0  0  0  0  0  0  0
   58.6655   33.1201   50.8515 H   0  0  0  0  0  0  0  0  0  0  0  0
   58.6330   30.7170   50.5060 C   0  0  0  0  0  0  0  0  0  0  0  0
   58.0378   30.1223   49.7974 H   0  0  0  0  0  0  0  0  0  0  0  0
   59.5551   30.2688   50.1074 H   0  0  0  0  0  0  0  0  0  0  0  0
   56.3960   29.2760   52.6860 N   0  0  0  0  0  0  0  0  0  0  0  0
   57.0670   28.5260   52.9670 H   0  0  0  0  0  0  0  0  0  0  0  0
  1  2  1  0
  2  3  1  0
  2  4  2  0
  4  5  1  0
  5  6  2  0
  6  7  1  0
  6  8  1  0
  8  9  2  0
  9 10  1  0
  9 11  1  0
 11 12  1  0
 12 13  2  0
 12 14  1  0
 14 15  1  0
  5 16  1  0
 16 17  1  0
 16 18  2  0
 18 19  1  0
 19 20  1  0
 19 21  1  0
 21 22  1  0
 21 23  1  0
 21 24  1  0
 24 25  1  0
 24 26  1  0
 18 27  1  0
 27 28  1  0
 27  4  1  0
 14  8  1  0
 24 19  1  0
M  CHG  2  10  -1  11  -1
M  END
>  <UniqueID>  (25) 
23

>  <SMILES>  (25) 
C=c1[nH]c(C2CC2)c/c1=C/c1[nH]c(=O)[n-]c1[O-]

>  <Energy>  (25) 
362.4553132928597

>  <Genealogy>  (25) 
C=c1[nH]c(C2CC2)cc1=Cc1[nH]c(=O)[n-]c1[O-] (protonated)
C=c1[nH]c(C2CC2)c/c1=C/c1[nH]c(=O)[n-]c1[O-] (cis-trans isomerization)
C=c1[nH]c(C2CC2)c/c1=C/c1[nH]c(=O)[n-]c1[O-] (3D coordinates assigned)
C=c1[nH]c(C2CC2)c/c1=C/c1[nH]c(=O)[n-]c1[O-] (nonaromatic ring conformer: 362.4553132928597 kcal/mol)

>  <smiles>  (25) 
C=c1[nH]c(C2CC2)cc1=Cc1[nH]c(=O)[nH]c1O

>  <score_type>  (25) 
oracle

>  <origin>  (25) 
adg

>  <m_score__min__energy>  (25) 
-13.23

>  <m_primary>  (25) 
energy

$$$$
25:0
     RDKit          3D

 42 44  0  0  0  0  0  0  0  0999 V2000
   52.8370   27.9650   53.4700 C   0  0  0  0  0  0  0  0  0  0  0  0
   54.1530   28.7340   53.3670 C   0  0  0  0  0  0  0  0  0  0  0  0
   54.0410   29.9100   52.4860 N   0  0  0  0  0  0  0  0  0  0  0  0
   52.9270   30.0390   51.5340 C   0  0  0  0  0  0  0  0  0  0  0  0
   51.9800   31.1310   51.9510 C   0  0  0  0  0  0  0  0  0  0  0  0
   51.8190   31.4830   53.2410 N   0  0  0  0  0  0  0  0  0  0  0  0
   50.8710   32.4380   53.1960 C   0  0  0  0  0  0  0  0  0  0  0  0
   50.4460   33.0230   54.2260 O   0  0  0  0  0  0  0  0  0  0  0  0
   50.4140   32.7150   51.9610 N   0  0  0  0  0  0  0  0  0  0  0  0
   51.1160   31.8870   51.1650 C   0  0  0  0  0  0  0  0  0  0  0  0
   50.9400   31.8730   49.6990 C   0  0  0  0  0  0  0  0  0  0  0  0
   51.0190   30.7810   49.0780 O   0  0  0  0  0  0  0  0  0  0  0  0
   50.6690   33.0330   48.9870 O   0  0  0  0  0  0  0  0  0  0  0  0
   55.2080   30.7290   52.2950 C   0  0  0  0  0  0  0  0  0  0  0  0
   55.0810   31.9770   52.1790 O   0  0  0  0  0  0  0  0  0  0  0  0
   56.5540   30.1350   52.2220 C   0  0  0  0  0  0  0  0  0  0  0  0
   57.1080   29.3450   53.2290 C   0  0  0  0  0  0  0  0  0  0  0  0
   58.6630   28.9170   52.7550 S   0  0  0  0  0  0  0  0  0  0  0  0
   58.5630   29.7390   51.2920 C   0  0  0  0  0  0  0  0  0  0  0  0
   59.6800   29.8730   50.3090 C   0  0  0  0  0  0  0  0  0  0  0  0
   59.4690   31.0920   49.4550 C   0  0  0  0  0  0  0  0  0  0  0  0
   59.7850   32.3680   49.9510 C   0  0  0  0  0  0  0  0  0  0  0  0
   59.5550   33.5040   49.1690 C   0  0  0  0  0  0  0  0  0  0  0  0
   59.0000   33.3750   47.8920 C   0  0  0  0  0  0  0  0  0  0  0  0
   58.6710   32.1110   47.3980 C   0  0  0  0  0  0  0  0  0  0  0  0
   58.8990   30.9720   48.1770 C   0  0  0  0  0  0  0  0  0  0  0  0
   57.3720   30.3610   51.1570 N   0  0  0  0  0  0  0  0  0  0  0  0
   52.5815   27.8157   54.5295 H   0  0  0  0  0  0  0  0  0  0  0  0
   52.0378   28.5382   52.9774 H   0  0  0  0  0  0  0  0  0  0  0  0
   52.9441   26.9873   52.9774 H   0  0  0  0  0  0  0  0  0  0  0  0
   54.4466   29.0707   54.3722 H   0  0  0  0  0  0  0  0  0  0  0  0
   54.9068   28.0587   52.9360 H   0  0  0  0  0  0  0  0  0  0  0  0
   53.3310   30.2750   50.5385 H   0  0  0  0  0  0  0  0  0  0  0  0
   52.3748   29.0879   51.5124 H   0  0  0  0  0  0  0  0  0  0  0  0
   56.6145   29.0534   54.1678 H   0  0  0  0  0  0  0  0  0  0  0  0
   60.6327   29.9680   50.8507 H   0  0  0  0  0  0  0  0  0  0  0  0
   59.7043   28.9810   49.6658 H   0  0  0  0  0  0  0  0  0  0  0  0
   60.2148   32.4736   50.9580 H   0  0  0  0  0  0  0  0  0  0  0  0
   59.8109   34.5003   49.5587 H   0  0  0  0  0  0  0  0  0  0  0  0
   58.8226   34.2693   47.2766 H   0  0  0  0  0  0  0  0  0  0  0  0
   58.2318   32.0109   46.3945 H   0  0  0  0  0  0  0  0  0  0  0  0
   58.6310   29.9788   47.7874 H   0  0  0  0  0  0  0  0  0  0  0  0
  1  2  1  0
  2  3  1  0
  3  4  1  0
  4  5  1  0
  5  6  1  0
  6  7  1  0
  7  8  2  0
  7  9  1  0
  9 10  1  0
 10 11  1  0
 11 12  2  0
 11 13  1  0
  3 14  1  0
 14 15  2  0
 14 16  1  0
 16 17  2  0
 17 18  1  0
 18 19  1  0
 19 20  1  0
 20 21  1  0
 21 22  2  0
 22 23  1  0
 23 24  2  0
 24 25  1  0
 25 26  2  0
 19 27  2  0
 10  5  2  0
 27 16  1  0
 26 21  1  0
  1 28  1  0
  1 29  1  0
  1 30  1  0
  2 31  1  0
  2 32  1  0
  4 33  1  0
  4 34  1  0
 17 35  1  0
 20 36  1  0
 20 37  1  0
 22 38  1  0
 23 39  1  0
 24 40  1  0
 25 41  1  0
 26 42  1  0
M  CHG  3   6  -1   9  -1  13  -1
M  END
>  <UniqueID>  (26) 
24

>  <SMILES>  (26) 
CCN(Cc1[n-]c(=O)[n-]c1C(=O)[O-])C(=O)c1csc(Cc2ccccc2)n1

>  <Energy>  (26) 
102.18014802478852

>  <Genealogy>  (26) 
CCN(Cc1[n-]c(=O)[n-]c1C(=O)[O-])C(=O)c1csc(Cc2ccccc2)n1 (protonated)
CCN(Cc1[n-]c(=O)[n-]c1C(=O)[O-])C(=O)c1csc(Cc2ccccc2)n1 (3D coordinates assigned)
CCN(Cc1[n-]c(=O)[n-]c1C(=O)[O-])C(=O)c1csc(Cc2ccccc2)n1 (optimized conformer: 102.18014802478852 kcal/mol)

>  <smiles>  (26) 
CCN(Cc1[nH]c(=O)[nH]c1C(=O)O)C(=O)c1csc(Cc2ccccc2)n1

>  <score_type>  (26) 
oracle

>  <origin>  (26) 
adg

>  <m_score__min__energy>  (26) 
-15.34

>  <m_primary>  (26) 
energy

$$$$
26:0
     RDKit          3D

 37 39  0  0  0  0  0  0  0  0999 V2000
   55.8911   30.3357   42.7981 H   0  0  0  0  0  0  0  0  0  0  0  0
   56.5260   30.3630   43.6960 C   0  0  0  0  0  0  0  0  0  0  0  0
   56.7650   29.1900   44.4130 C   0  0  0  0  0  0  0  0  0  0  0  0
   56.3167   28.2434   44.0770 H   0  0  0  0  0  0  0  0  0  0  0  0
   57.5750   29.2100   45.5620 C   0  0  0  0  0  0  0  0  0  0  0  0
   57.8280   27.9660   46.3280 C   0  0  0  0  0  0  0  0  0  0  0  0
   58.1690   28.0350   47.5410 O   0  0  0  0  0  0  0  0  0  0  0  0
   57.6860   26.6880   45.6850 N   0  0  0  0  0  0  0  0  0  0  0  0
   56.6300   25.9300   45.7080 C   0  0  0  0  0  0  0  0  0  0  0  0
   55.3840   26.3510   46.0040 N   0  0  0  0  0  0  0  0  0  0  0  0
   54.6100   25.2800   45.9190 N   0  0  0  0  0  0  0  0  0  0  0  0
   55.4160   24.2570   45.5730 C   0  0  0  0  0  0  0  0  0  0  0  0
   54.9510   22.8510   45.3860 C   0  0  0  0  0  0  0  0  0  0  0  0
   54.0032   22.8541   44.8278 H   0  0  0  0  0  0  0  0  0  0  0  0
   54.8069   22.3888   46.3737 H   0  0  0  0  0  0  0  0  0  0  0  0
   56.1930   21.8870   44.4570 S   0  0  0  0  0  0  0  0  0  0  0  0
   56.2360   22.9900   43.0060 C   0  0  0  0  0  0  0  0  0  0  0  0
   56.2768   24.0366   43.3421 H   0  0  0  0  0  0  0  0  0  0  0  0
   57.1260   22.7645   42.4002 H   0  0  0  0  0  0  0  0  0  0  0  0
   55.3311   22.8344   42.4002 H   0  0  0  0  0  0  0  0  0  0  0  0
   56.6610   24.6490   45.4430 O   0  0  0  0  0  0  0  0  0  0  0  0
   58.1390   30.4330   45.9770 C   0  0  0  0  0  0  0  0  0  0  0  0
   58.7747   30.4613   46.8742 H   0  0  0  0  0  0  0  0  0  0  0  0
   57.8990   31.6180   45.2580 C   0  0  0  0  0  0  0  0  0  0  0  0
   58.5000   32.9000   45.7080 C   0  0  0  0  0  0  0  0  0  0  0  0
   58.7420   33.9340   44.7850 C   0  0  0  0  0  0  0  0  0  0  0  0
   58.4976   33.7955   43.7215 H   0  0  0  0  0  0  0  0  0  0  0  0
   59.2940   35.1360   45.2280 C   0  0  0  0  0  0  0  0  0  0  0  0
   59.4868   35.9497   44.5134 H   0  0  0  0  0  0  0  0  0  0  0  0
   59.6010   35.3050   46.5770 C   0  0  0  0  0  0  0  0  0  0  0  0
   60.0353   36.2503   46.9345 H   0  0  0  0  0  0  0  0  0  0  0  0
   59.3510   34.2610   47.4690 C   0  0  0  0  0  0  0  0  0  0  0  0
   59.5907   34.3829   48.5356 H   0  0  0  0  0  0  0  0  0  0  0  0
   58.8120   33.0930   47.0250 N   0  0  0  0  0  0  0  0  0  0  0  0
   58.6600   32.3270   47.7200 H   0  0  0  0  0  0  0  0  0  0  0  0
   57.0880   31.5700   44.1120 C   0  0  0  0  0  0  0  0  0  0  0  0
   56.8951   32.4893   43.5395 H   0  0  0  0  0  0  0  0  0  0  0  0
  1  2  1  0
  2  3  2  0
  3  4  1  0
  3  5  1  0
  5  6  1  0
  6  7  2  0
  6  8  1  0
  8  9  2  0
  9 10  1  0
 10 11  1  0
 11 12  2  0
 12 13  1  0
 13 14  1  0
 13 15  1  0
 13 16  1  0
 16 17  1  0
 17 18  1  0
 17 19  1  0
 17 20  1  0
 12 21  1  0
  5 22  2  0
 22 23  1  0
 22 24  1  0
 24 25  1  0
 25 26  2  0
 26 27  1  0
 26 28  1  0
 28 29  1  0
 28 30  2  0
 30 31  1  0
 30 32  1  0
 32 33  1  0
 32 34  2  0
 34 35  1  0
 24 36  2  0
 36 37  1  0
 36  2  1  0
 21  9  1  0
 34 25  1  0
M  CHG  2  10  -1  34   1
M  END
>  <UniqueID>  (27) 
25

>  <SMILES>  (27) 
CSCc1n[n-]/c(=N\C(=O)c2cccc(-c3cccc[nH+]3)c2)o1

>  <Energy>  (27) 
77.94106371716467

>  <Genealogy>  (27) 
CSCc1n[n-]c(=NC(=O)c2cccc(-c3cccc[nH+]3)c2)o1 (protonated)
CSCc1n[n-]/c(=N\C(=O)c2cccc(-c3cccc[nH+]3)c2)o1 (cis-trans isomerization)
CSCc1n[n-]/c(=N\C(=O)c2cccc(-c3cccc[nH+]3)c2)o1 (3D coordinates assigned)
CSCc1n[n-]/c(=N\C(=O)c2cccc(-c3cccc[nH+]3)c2)o1 (optimized conformer: 77.94106371716467 kcal/mol)

>  <smiles>  (27) 
CSCc1n[nH]c(=NC(=O)c2cccc(-c3ccccn3)c2)o1

>  <score_type>  (27) 
oracle

>  <origin>  (27) 
adg

>  <m_score__min__energy>  (27) 
-8.7400000000000002

>  <m_primary>  (27) 
energy

$$$$
27:0
     RDKit          3D

 49 52  0  0  0  0  0  0  0  0999 V2000
   57.7838   26.2379   43.1802 H   0  0  0  0  0  0  0  0  0  0  0  0
   57.7660   27.3140   42.9530 C   0  0  0  0  0  0  0  0  0  0  0  0
   57.6388   27.6549   41.9149 H   0  0  0  0  0  0  0  0  0  0  0  0
   57.8990   28.2080   43.9390 C   0  0  0  0  0  0  0  0  0  0  0  0
   58.1880   27.9720   45.2940 C   0  0  0  0  0  0  0  0  0  0  0  0
   58.3140   26.8100   45.9680 C   0  0  0  0  0  0  0  0  0  0  0  0
   59.2268   26.6703   46.5658 H   0  0  0  0  0  0  0  0  0  0  0  0
   57.3330   25.7150   45.9700 C   0  0  0  0  0  0  0  0  0  0  0  0
   55.9530   25.8430   45.9230 C   0  0  0  0  0  0  0  0  0  0  0  0
   55.2700   27.0480   46.0060 O   0  0  0  0  0  0  0  0  0  0  0  0
   55.3300   24.6500   45.7730 N   0  0  0  0  0  0  0  0  0  0  0  0
   56.3400   23.7620   45.6960 C   0  0  0  0  0  0  0  0  0  0  0  0
   56.2220   22.3880   45.4940 C   0  0  0  0  0  0  0  0  0  0  0  0
   55.2343   21.9086   45.4264 H   0  0  0  0  0  0  0  0  0  0  0  0
   57.4030   21.6320   45.3790 C   0  0  0  0  0  0  0  0  0  0  0  0
   57.3428   20.5443   45.2266 H   0  0  0  0  0  0  0  0  0  0  0  0
   58.6660   22.2610   45.4580 C   0  0  0  0  0  0  0  0  0  0  0  0
   59.7950   21.5230   45.3320 F   0  0  0  0  0  0  0  0  0  0  0  0
   58.7570   23.6490   45.6600 C   0  0  0  0  0  0  0  0  0  0  0  0
   59.7339   24.1518   45.7124 H   0  0  0  0  0  0  0  0  0  0  0  0
   57.5690   24.3690   45.7920 C   0  0  0  0  0  0  0  0  0  0  0  0
   58.3820   29.2320   45.8590 C   0  0  0  0  0  0  0  0  0  0  0  0
   58.6400   29.5450   47.2800 C   0  0  0  0  0  0  0  0  0  0  0  0
   58.1290   28.8110   48.1690 O   0  0  0  0  0  0  0  0  0  0  0  0
   59.4620   30.6650   47.6630 N   0  0  0  0  0  0  0  0  0  0  0  0
   60.6690   31.0130   46.9030 C   0  0  0  0  0  0  0  0  0  0  0  0
   61.5537   30.6284   47.4315 H   0  0  0  0  0  0  0  0  0  0  0  0
   60.6023   30.5633   45.9013 H   0  0  0  0  0  0  0  0  0  0  0  0
   60.7890   32.5390   46.7580 C   0  0  0  0  0  0  0  0  0  0  0  0
   61.8294   32.7793   46.4939 H   0  0  0  0  0  0  0  0  0  0  0  0
   60.0708   32.8394   45.9809 H   0  0  0  0  0  0  0  0  0  0  0  0
   60.4320   33.3000   47.9860 N   0  0  0  0  0  0  0  0  0  0  0  0
   59.3000   34.2140   47.7560 C   0  0  0  0  0  0  0  0  0  0  0  0
   58.8922   34.5432   48.7231 H   0  0  0  0  0  0  0  0  0  0  0  0
   59.6454   35.0895   47.1866 H   0  0  0  0  0  0  0  0  0  0  0  0
   58.5170   33.6919   47.1866 H   0  0  0  0  0  0  0  0  0  0  0  0
   60.2260   32.4630   49.1880 C   0  0  0  0  0  0  0  0  0  0  0  0
   61.1882   32.0153   49.4775 H   0  0  0  0  0  0  0  0  0  0  0  0
   59.8295   33.1082   49.9858 H   0  0  0  0  0  0  0  0  0  0  0  0
   59.2100   31.3370   48.9420 C   0  0  0  0  0  0  0  0  0  0  0  0
   59.2867   30.6005   49.7555 H   0  0  0  0  0  0  0  0  0  0  0  0
   58.2026   31.7776   48.9113 H   0  0  0  0  0  0  0  0  0  0  0  0
   58.1790   30.1590   44.8520 C   0  0  0  0  0  0  0  0  0  0  0  0
   58.2640   31.6470   44.9920 C   0  0  0  0  0  0  0  0  0  0  0  0
   58.2793   31.9146   46.0588 H   0  0  0  0  0  0  0  0  0  0  0  0
   59.1843   32.0087   44.5100 H   0  0  0  0  0  0  0  0  0  0  0  0
   57.3909   32.1111   44.5100 H   0  0  0  0  0  0  0  0  0  0  0  0
   57.8820   29.5350   43.6980 N   0  0  0  0  0  0  0  0  0  0  0  0
   57.7100   29.9990   42.7770 H   0  0  0  0  0  0  0  0  0  0  0  0
  1  2  1  0
  2  3  1  0
  2  4  2  0
  4  5  1  0
  5  6  2  0
  6  7  1  0
  6  8  1  0
  8  9  2  0
  9 10  1  0
  9 11  1  0
 11 12  1  0
 12 13  2  0
 13 14  1  0
 13 15  1  0
 15 16  1  0
 15 17  2  0
 17 18  1  0
 17 19  1  0
 19 20  1  0
 19 21  2  0
  5 22  1  0
 22 23  1  0
 23 24  2  0
 23 25  1  0
 25 26  1  0
 26 27  1  0
 26 28  1  0
 26 29  1  0
 29 30  1  0
 29 31  1  0
 29 32  1  0
 32 33  1  0
 33 34  1  0
 33 35  1  0
 33 36  1  0
 32 37  1  0
 37 38  1  0
 37 39  1  0
 37 40  1  0
 40 41  1  0
 40 42  1  0
 22 43  2  0
 43 44  1  0
 44 45  1  0
 44 46  1  0
 44 47  1  0
 43 48  1  0
 48 49  1  0
 48  4  1  0
 21  8  1  0
 40 25  1  0
 21 12  1  0
M  CHG  2  10  -1  11  -1
M  END
>  <UniqueID>  (28) 
26

>  <SMILES>  (28) 
C=c1[nH]c(C)c(C(=O)N2CCN(C)CC2)/c1=C/c1c([O-])[n-]c2ccc(F)cc12

>  <Energy>  (28) 
133.30223106521606

>  <Genealogy>  (28) 
C=c1[nH]c(C)c(C(=O)N2CCN(C)CC2)c1=Cc1c([O-])[n-]c2ccc(F)cc12 (protonated)
C=c1[nH]c(C)c(C(=O)N2CCN(C)CC2)/c1=C/c1c([O-])[n-]c2ccc(F)cc12 (cis-trans isomerization)
C=c1[nH]c(C)c(C(=O)N2CCN(C)CC2)/c1=C/c1c([O-])[n-]c2ccc(F)cc12 (3D coordinates assigned)
C=c1[nH]c(C)c(C(=O)N2CCN(C)CC2)/c1=C/c1c([O-])[n-]c2ccc(F)cc12 (nonaromatic ring conformer: 133.30223106521606 kcal/mol)

>  <smiles>  (28) 
C=c1[nH]c(C)c(C(=O)N2CCN(C)CC2)c1=Cc1c(O)[nH]c2ccc(F)cc12

>  <score_type>  (28) 
oracle

>  <origin>  (28) 
adg

>  <m_score__min__energy>  (28) 
-13.720000000000001

>  <m_primary>  (28) 
energy

$$$$
28:0
     RDKit          3D

 47 49  0  0  0  0  0  0  0  0999 V2000
   61.3850   28.8240   44.8390 C   0  0  0  0  0  0  0  0  0  0  0  0
   60.0000   28.8030   45.4100 C   0  0  0  0  0  0  0  0  0  0  0  0
   59.5630   29.4640   46.5490 C   0  0  0  0  0  0  0  0  0  0  0  0
   60.3850   30.3020   47.4370 C   0  0  0  0  0  0  0  0  0  0  0  0
   59.8850   30.7430   48.5050 O   0  0  0  0  0  0  0  0  0  0  0  0
   61.7430   30.6330   47.1190 N   0  0  0  0  0  0  0  0  0  0  0  0
   62.3230   31.9700   47.2150 C   0  0  0  0  0  0  0  0  0  0  0  0
   61.2330   33.0040   47.2930 C   0  0  0  0  0  0  0  0  0  0  0  0
   60.7170   33.4060   48.5350 C   0  0  0  0  0  0  0  0  0  0  0  0
   59.7270   34.3900   48.6060 C   0  0  0  0  0  0  0  0  0  0  0  0
   59.2500   34.9870   47.4350 C   0  0  0  0  0  0  0  0  0  0  0  0
   59.7670   34.6030   46.1940 C   0  0  0  0  0  0  0  0  0  0  0  0
   60.7590   33.6180   46.1220 C   0  0  0  0  0  0  0  0  0  0  0  0
   58.2390   29.2710   46.7150 N   0  0  0  0  0  0  0  0  0  0  0  0
   57.8230   28.4850   45.7050 C   0  0  0  0  0  0  0  0  0  0  0  0
   56.4160   28.1030   45.5140 C   0  0  0  0  0  0  0  0  0  0  0  0
   56.0370   26.9650   45.8950 O   0  0  0  0  0  0  0  0  0  0  0  0
   55.4750   28.9680   44.8640 N   0  0  0  0  0  0  0  0  0  0  0  0
   55.6790   29.6220   43.5730 C   0  0  0  0  0  0  0  0  0  0  0  0
   56.6140   30.7970   43.6770 C   0  0  0  0  0  0  0  0  0  0  0  0
   57.2960   31.2440   42.5350 C   0  0  0  0  0  0  0  0  0  0  0  0
   58.1540   32.3420   42.6350 C   0  0  0  0  0  0  0  0  0  0  0  0
   58.3240   32.9820   43.8630 C   0  0  0  0  0  0  0  0  0  0  0  0
   57.6370   32.5060   44.9810 C   0  0  0  0  0  0  0  0  0  0  0  0
   56.8060   31.4360   44.8660 N   0  0  0  0  0  0  0  0  0  0  0  0
   58.8860   28.1900   44.8590 C   0  0  0  0  0  0  0  0  0  0  0  0
   58.8370   27.4510   43.5560 C   0  0  0  0  0  0  0  0  0  0  0  0
   62.1192   28.8351   45.6581 H   0  0  0  0  0  0  0  0  0  0  0  0
   61.5400   27.9281   44.2198 H   0  0  0  0  0  0  0  0  0  0  0  0
   61.5127   29.7242   44.2198 H   0  0  0  0  0  0  0  0  0  0  0  0
   62.9475   32.0313   48.1185 H   0  0  0  0  0  0  0  0  0  0  0  0
   62.9358   32.1607   46.3217 H   0  0  0  0  0  0  0  0  0  0  0  0
   61.0944   32.9433   49.4588 H   0  0  0  0  0  0  0  0  0  0  0  0
   59.3232   34.6947   49.5828 H   0  0  0  0  0  0  0  0  0  0  0  0
   58.4681   35.7587   47.4902 H   0  0  0  0  0  0  0  0  0  0  0  0
   59.3939   35.0754   45.2733 H   0  0  0  0  0  0  0  0  0  0  0  0
   61.1689   33.3237   45.1446 H   0  0  0  0  0  0  0  0  0  0  0  0
   57.6390   29.6840   47.4630 H   0  0  0  0  0  0  0  0  0  0  0  0
   56.1035   28.8918   42.8683 H   0  0  0  0  0  0  0  0  0  0  0  0
   54.7046   29.9934   43.2228 H   0  0  0  0  0  0  0  0  0  0  0  0
   57.1564   30.7346   41.5701 H   0  0  0  0  0  0  0  0  0  0  0  0
   58.6946   32.7013   41.7470 H   0  0  0  0  0  0  0  0  0  0  0  0
   58.9918   33.8518   43.9492 H   0  0  0  0  0  0  0  0  0  0  0  0
   57.7681   32.9972   45.9564 H   0  0  0  0  0  0  0  0  0  0  0  0
   58.7654   26.3706   43.7497 H   0  0  0  0  0  0  0  0  0  0  0  0
   57.9587   27.7795   42.9810 H   0  0  0  0  0  0  0  0  0  0  0  0
   59.7510   27.6606   42.9810 H   0  0  0  0  0  0  0  0  0  0  0  0
  1  2  1  0
  2  3  2  0
  3  4  1  0
  4  5  2  0
  4  6  1  0
  6  7  1  0
  7  8  1  0
  8  9  2  0
  9 10  1  0
 10 11  2  0
 11 12  1  0
 12 13  2  0
  3 14  1  0
 14 15  1  0
 15 16  1  0
 16 17  2  0
 16 18  1  0
 18 19  1  0
 19 20  1  0
 20 21  2  0
 21 22  1  0
 22 23  2  0
 23 24  1  0
 24 25  2  0
 15 26  2  0
 26 27  1  0
 26  2  1  0
 13  8  1  0
 25 20  1  0
  1 28  1  0
  1 29  1  0
  1 30  1  0
  7 31  1  0
  7 32  1  0
  9 33  1  0
 10 34  1  0
 11 35  1  0
 12 36  1  0
 13 37  1  0
 14 38  1  0
 19 39  1  0
 19 40  1  0
 21 41  1  0
 22 42  1  0
 23 43  1  0
 24 44  1  0
 27 45  1  0
 27 46  1  0
 27 47  1  0
M  CHG  2   6  -1  18  -1
M  END
>  <UniqueID>  (29) 
27

>  <SMILES>  (29) 
Cc1c(C(=O)[N-]Cc2ccccc2)[nH]c(C(=O)[N-]Cc2ccccn2)c1C

>  <Energy>  (29) 
75.74103591152398

>  <Genealogy>  (29) 
Cc1c(C(=O)[N-]Cc2ccccc2)[nH]c(C(=O)[N-]Cc2ccccn2)c1C (protonated)
Cc1c(C(=O)[N-]Cc2ccccc2)[nH]c(C(=O)[N-]Cc2ccccn2)c1C (3D coordinates assigned)
Cc1c(C(=O)[N-]Cc2ccccc2)[nH]c(C(=O)[N-]Cc2ccccn2)c1C (optimized conformer: 75.74103591152398 kcal/mol)

>  <smiles>  (29) 
Cc1c(C(=O)NCc2ccccc2)[nH]c(C(=O)NCc2ccccn2)c1C

>  <score_type>  (29) 
oracle

>  <origin>  (29) 
adg

>  <m_score__min__energy>  (29) 
-12.9

>  <m_primary>  (29) 
energy

$$$$
29:0
     RDKit          3D

 47 49  0  0  0  0  0  0  0  0999 V2000
   59.3490   24.5940   45.9820 C   0  0  0  0  0  0  0  0  0  0  0  0
   58.9110   25.8350   45.7160 C   0  0  0  0  0  0  0  0  0  0  0  0
   59.6480   26.8600   46.2280 N   0  0  0  0  0  0  0  0  0  0  0  0
   59.3120   28.1630   46.0790 C   0  0  0  0  0  0  0  0  0  0  0  0
   58.1680   28.5120   45.3650 C   0  0  0  0  0  0  0  0  0  0  0  0
   57.7950   29.9300   45.1790 C   0  0  0  0  0  0  0  0  0  0  0  0
   56.5900   30.2130   44.9370 O   0  0  0  0  0  0  0  0  0  0  0  0
   58.7680   30.9890   45.3130 N   0  0  0  0  0  0  0  0  0  0  0  0
   59.9150   30.8330   46.2180 C   0  0  0  0  0  0  0  0  0  0  0  0
   60.3060   32.1720   46.8780 C   0  0  0  0  0  0  0  0  0  0  0  0
   59.1450   33.0560   47.1380 N   0  0  0  0  0  0  0  0  0  0  0  0
   58.5190   32.9080   48.4700 C   0  0  0  0  0  0  0  0  0  0  0  0
   59.4780   33.1820   49.6370 C   0  0  0  0  0  0  0  0  0  0  0  0
   59.3020   32.1900   50.6250 O   0  0  0  0  0  0  0  0  0  0  0  0
   57.9230   31.9720   50.8270 C   0  0  0  0  0  0  0  0  0  0  0  0
   58.1830   33.2440   46.0210 C   0  0  0  0  0  0  0  0  0  0  0  0
   58.4710   32.3350   44.8250 C   0  0  0  0  0  0  0  0  0  0  0  0
   57.3900   27.4960   44.8000 C   0  0  0  0  0  0  0  0  0  0  0  0
   57.7220   26.1300   44.9690 C   0  0  0  0  0  0  0  0  0  0  0  0
   56.9560   25.1600   44.4000 C   0  0  0  0  0  0  0  0  0  0  0  0
   55.6810   24.6380   44.9410 C   0  0  0  0  0  0  0  0  0  0  0  0
   55.1890   23.4040   44.7150 N   0  0  0  0  0  0  0  0  0  0  0  0
   53.9730   23.4400   45.3010 C   0  0  0  0  0  0  0  0  0  0  0  0
   53.1960   22.4500   45.3120 O   0  0  0  0  0  0  0  0  0  0  0  0
   53.6490   24.6240   45.8620 N   0  0  0  0  0  0  0  0  0  0  0  0
   54.7350   25.3720   45.6140 C   0  0  0  0  0  0  0  0  0  0  0  0
   54.8580   26.7030   45.9930 O   0  0  0  0  0  0  0  0  0  0  0  0
   58.7989   23.7224   45.5976 H   0  0  0  0  0  0  0  0  0  0  0  0
   60.2579   24.4489   46.5843 H   0  0  0  0  0  0  0  0  0  0  0  0
   59.9433   28.9472   46.5224 H   0  0  0  0  0  0  0  0  0  0  0  0
   59.6528   30.1106   47.0050 H   0  0  0  0  0  0  0  0  0  0  0  0
   60.7725   30.4779   45.6276 H   0  0  0  0  0  0  0  0  0  0  0  0
   60.8035   31.9577   47.8354 H   0  0  0  0  0  0  0  0  0  0  0  0
   60.9687   32.7006   46.1770 H   0  0  0  0  0  0  0  0  0  0  0  0
   57.6780   33.6137   48.5387 H   0  0  0  0  0  0  0  0  0  0  0  0
   58.1963   31.8601   48.5586 H   0  0  0  0  0  0  0  0  0  0  0  0
   60.5159   33.1590   49.2734 H   0  0  0  0  0  0  0  0  0  0  0  0
   59.2649   34.1724   50.0657 H   0  0  0  0  0  0  0  0  0  0  0  0
   57.7113   31.9385   51.9059 H   0  0  0  0  0  0  0  0  0  0  0  0
   57.3510   32.7909   50.3663 H   0  0  0  0  0  0  0  0  0  0  0  0
   57.6315   31.0166   50.3663 H   0  0  0  0  0  0  0  0  0  0  0  0
   57.1700   33.0267   46.3905 H   0  0  0  0  0  0  0  0  0  0  0  0
   58.2796   34.2837   45.6750 H   0  0  0  0  0  0  0  0  0  0  0  0
   57.5912   32.3028   44.1655 H   0  0  0  0  0  0  0  0  0  0  0  0
   59.3306   32.7243   44.2598 H   0  0  0  0  0  0  0  0  0  0  0  0
   56.5004   27.7643   44.2112 H   0  0  0  0  0  0  0  0  0  0  0  0
   57.3157   24.7259   43.4555 H   0  0  0  0  0  0  0  0  0  0  0  0
  1  2  2  0
  2  3  1  0
  3  4  2  0
  4  5  1  0
  5  6  1  0
  6  7  2  0
  6  8  1  0
  8  9  1  0
  9 10  1  0
 10 11  1  0
 11 12  1  0
 12 13  1  0
 13 14  1  0
 14 15  1  0
 11 16  1  0
 16 17  1  0
  5 18  2  0
 18 19  1  0
 19 20  2  3
 20 21  1  0
 21 22  1  0
 22 23  1  0
 23 24  2  0
 23 25  1  0
 25 26  1  0
 26 27  1  0
 19  2  1  0
 26 21  2  0
 17  8  1  0
  1 28  1  0
  1 29  1  0
  4 30  1  0
  9 31  1  0
  9 32  1  0
 10 33  1  0
 10 34  1  0
 12 35  1  0
 12 36  1  0
 13 37  1  0
 13 38  1  0
 15 39  1  0
 15 40  1  0
 15 41  1  0
 16 42  1  0
 16 43  1  0
 17 44  1  0
 17 45  1  0
 18 46  1  0
 20 47  1  0
M  CHG  3  22  -1  25  -1  27  -1
M  END
>  <UniqueID>  (30) 
28

>  <SMILES>  (30) 
C=c1ncc(C(=O)N2CCN(CCOC)CC2)cc1=Cc1[n-]c(=O)[n-]c1[O-]

>  <Energy>  (30) 
107.40307590265746

>  <Genealogy>  (30) 
C=c1ncc(C(=O)N2CCN(CCOC)CC2)cc1=Cc1[n-]c(=O)[n-]c1[O-] (protonated)
C=c1ncc(C(=O)N2CCN(CCOC)CC2)cc1=Cc1[n-]c(=O)[n-]c1[O-] (3D coordinates assigned)
C=c1ncc(C(=O)N2CCN(CCOC)CC2)cc1=Cc1[n-]c(=O)[n-]c1[O-] (nonaromatic ring conformer: 107.40307590265746 kcal/mol)

>  <smiles>  (30) 
C=c1ncc(C(=O)N2CCN(CCOC)CC2)cc1=Cc1[nH]c(=O)[nH]c1O

>  <score_type>  (30) 
oracle

>  <origin>  (30) 
adg

>  <m_score__min__energy>  (30) 
-16.059999999999999

>  <m_primary>  (30) 
energy

$$$$
30:0
     RDKit          3D

 37 39  0  0  0  0  0  0  0  0999 V2000
   63.7600   33.4480   47.6200 C   0  0  0  0  0  0  0  0  0  0  0  0
   62.8480   32.3640   47.4780 O   0  0  0  0  0  0  0  0  0  0  0  0
   61.5080   32.4980   47.0800 C   0  0  0  0  0  0  0  0  0  0  0  0
   61.0340   33.6530   46.4300 C   0  0  0  0  0  0  0  0  0  0  0  0
   59.6970   33.7490   46.0420 C   0  0  0  0  0  0  0  0  0  0  0  0
   58.8100   32.6910   46.2860 C   0  0  0  0  0  0  0  0  0  0  0  0
   57.3900   32.7970   45.8690 C   0  0  0  0  0  0  0  0  0  0  0  0
   56.6430   33.6390   46.4350 O   0  0  0  0  0  0  0  0  0  0  0  0
   56.8210   31.9310   44.8750 N   0  0  0  0  0  0  0  0  0  0  0  0
   57.0170   30.6480   44.7990 C   0  0  0  0  0  0  0  0  0  0  0  0
   57.1350   29.8340   45.8720 N   0  0  0  0  0  0  0  0  0  0  0  0
   57.3460   28.5440   45.4970 C   0  0  0  0  0  0  0  0  0  0  0  0
   57.5020   27.4490   46.5070 C   0  0  0  0  0  0  0  0  0  0  0  0
   56.4340   26.4200   46.3220 C   0  0  0  0  0  0  0  0  0  0  0  0
   55.1590   26.7190   46.0030 N   0  0  0  0  0  0  0  0  0  0  0  0
   54.5040   25.5720   45.9510 N   0  0  0  0  0  0  0  0  0  0  0  0
   55.4010   24.6170   46.2470 C   0  0  0  0  0  0  0  0  0  0  0  0
   55.1170   23.3920   46.2870 O   0  0  0  0  0  0  0  0  0  0  0  0
   56.6320   25.0970   46.4980 N   0  0  0  0  0  0  0  0  0  0  0  0
   57.4040   28.3300   44.1200 C   0  0  0  0  0  0  0  0  0  0  0  0
   57.1880   29.8150   43.3530 S   0  0  0  0  0  0  0  0  0  0  0  0
   59.2760   31.5470   46.9530 C   0  0  0  0  0  0  0  0  0  0  0  0
   60.6240   31.4410   47.3440 C   0  0  0  0  0  0  0  0  0  0  0  0
   61.1230   30.3010   47.9950 O   0  0  0  0  0  0  0  0  0  0  0  0
   60.3890   29.0980   48.1910 C   0  0  0  0  0  0  0  0  0  0  0  0
   63.9283   33.6480   48.6885 H   0  0  0  0  0  0  0  0  0  0  0  0
   64.7154   33.1885   47.1406 H   0  0  0  0  0  0  0  0  0  0  0  0
   63.3409   34.3450   47.1406 H   0  0  0  0  0  0  0  0  0  0  0  0
   61.7227   34.4862   46.2263 H   0  0  0  0  0  0  0  0  0  0  0  0
   59.3369   34.6601   45.5418 H   0  0  0  0  0  0  0  0  0  0  0  0
   58.4874   26.9765   46.3814 H   0  0  0  0  0  0  0  0  0  0  0  0
   57.4167   27.8772   47.5166 H   0  0  0  0  0  0  0  0  0  0  0  0
   57.5628   27.3621   43.6221 H   0  0  0  0  0  0  0  0  0  0  0  0
   58.5798   30.7241   47.1726 H   0  0  0  0  0  0  0  0  0  0  0  0
   60.2743   28.9099   49.2687 H   0  0  0  0  0  0  0  0  0  0  0  0
   59.3959   29.1948   47.7279 H   0  0  0  0  0  0  0  0  0  0  0  0
   60.9293   28.2592   47.7279 H   0  0  0  0  0  0  0  0  0  0  0  0
  1  2  1  0
  2  3  1  0
  3  4  2  0
  4  5  1  0
  5  6  2  0
  6  7  1  0
  7  8  2  0
  7  9  1  0
  9 10  2  3
 10 11  1  0
 11 12  1  0
 12 13  1  0
 13 14  1  0
 14 15  2  0
 15 16  1  0
 16 17  1  0
 17 18  2  0
 17 19  1  0
 12 20  2  0
 20 21  1  0
  6 22  1  0
 22 23  2  0
 23 24  1  0
 24 25  1  0
 23  3  1  0
 21 10  1  0
 19 14  1  0
  1 26  1  0
  1 27  1  0
  1 28  1  0
  4 29  1  0
  5 30  1  0
 13 31  1  0
 13 32  1  0
 20 33  1  0
 22 34  1  0
 25 35  1  0
 25 36  1  0
 25 37  1  0
M  CHG  3  11  -1  16  -1  19  -1
M  END
>  <UniqueID>  (31) 
29

>  <SMILES>  (31) 
COc1ccc(C(=O)N=c2[n-]c(Cc3n[n-]c(=O)[n-]3)cs2)cc1OC

>  <Energy>  (31) 
102.12257010679483

>  <Genealogy>  (31) 
COc1ccc(C(=O)N=c2[n-]c(Cc3n[n-]c(=O)[n-]3)cs2)cc1OC (protonated)
COc1ccc(C(=O)N=c2[n-]c(Cc3n[n-]c(=O)[n-]3)cs2)cc1OC (3D coordinates assigned)
COc1ccc(C(=O)N=c2[n-]c(Cc3n[n-]c(=O)[n-]3)cs2)cc1OC (optimized conformer: 102.12257010679483 kcal/mol)

>  <smiles>  (31) 
COc1ccc(C(=O)N=c2[nH]c(Cc3n[nH]c(=O)[nH]3)cs2)cc1OC

>  <score_type>  (31) 
oracle

>  <origin>  (31) 
adg

>  <m_score__min__energy>  (31) 
-12.880000000000001

>  <m_primary>  (31) 
energy

$$$$
31:0
     RDKit          3D

 49 51  0  0  0  0  0  0  0  0999 V2000
   54.7860   21.9550   47.3860 C   0  0  0  0  0  0  0  0  0  0  0  0
   56.5720   22.2500   47.2060 S   0  0  0  0  0  0  0  0  0  0  0  0
   56.5010   22.3350   45.4100 C   0  0  0  0  0  0  0  0  0  0  0  0
   57.1370   21.3340   44.6650 C   0  0  0  0  0  0  0  0  0  0  0  0
   57.0460   21.3250   43.2710 C   0  0  0  0  0  0  0  0  0  0  0  0
   56.3090   22.3120   42.6130 C   0  0  0  0  0  0  0  0  0  0  0  0
   55.6750   23.3180   43.3470 C   0  0  0  0  0  0  0  0  0  0  0  0
   55.7870   23.3550   44.7430 C   0  0  0  0  0  0  0  0  0  0  0  0
   55.1240   24.4040   45.4590 N   0  0  0  0  0  0  0  0  0  0  0  0
   55.7670   25.5570   46.0180 C   0  0  0  0  0  0  0  0  0  0  0  0
   55.1610   26.6610   45.9930 O   0  0  0  0  0  0  0  0  0  0  0  0
   57.1450   25.4930   46.6070 C   0  0  0  0  0  0  0  0  0  0  0  0
   57.5430   26.7960   47.0260 O   0  0  0  0  0  0  0  0  0  0  0  0
   58.1620   27.7410   46.1950 C   0  0  0  0  0  0  0  0  0  0  0  0
   59.5140   27.6370   45.8100 C   0  0  0  0  0  0  0  0  0  0  0  0
   60.0820   28.6040   44.9770 C   0  0  0  0  0  0  0  0  0  0  0  0
   59.3150   29.6790   44.5210 C   0  0  0  0  0  0  0  0  0  0  0  0
   57.9710   29.7930   44.9010 C   0  0  0  0  0  0  0  0  0  0  0  0
   56.9890   31.1440   44.3420 S   0  0  0  0  0  0  0  0  0  0  0  0
   57.2780   31.4280   42.8930 O   0  0  0  0  0  0  0  0  0  0  0  0
   55.5380   30.7820   44.4930 O   0  0  0  0  0  0  0  0  0  0  0  0
   57.3510   32.5610   45.2980 N   0  0  0  0  0  0  0  0  0  0  0  0
   58.1150   32.2060   46.5160 C   0  0  0  0  0  0  0  0  0  0  0  0
   59.5940   32.6200   46.4190 C   0  0  0  0  0  0  0  0  0  0  0  0
   59.7690   34.0120   46.1910 O   0  0  0  0  0  0  0  0  0  0  0  0
   58.7780   34.5840   45.3440 C   0  0  0  0  0  0  0  0  0  0  0  0
   58.0340   33.5670   44.4620 C   0  0  0  0  0  0  0  0  0  0  0  0
   57.4000   28.8220   45.7350 C   0  0  0  0  0  0  0  0  0  0  0  0
   54.5273   21.9123   48.4543 H   0  0  0  0  0  0  0  0  0  0  0  0
   54.2290   22.7733   46.9063 H   0  0  0  0  0  0  0  0  0  0  0  0
   54.5218   21.0010   46.9063 H   0  0  0  0  0  0  0  0  0  0  0  0
   57.7115   20.5503   45.1805 H   0  0  0  0  0  0  0  0  0  0  0  0
   57.5548   20.5405   42.6917 H   0  0  0  0  0  0  0  0  0  0  0  0
   56.2275   22.2975   41.5161 H   0  0  0  0  0  0  0  0  0  0  0  0
   55.0844   24.0856   42.8255 H   0  0  0  0  0  0  0  0  0  0  0  0
   57.1428   24.8141   47.4725 H   0  0  0  0  0  0  0  0  0  0  0  0
   57.8505   25.1195   45.8502 H   0  0  0  0  0  0  0  0  0  0  0  0
   60.1229   26.7929   46.1661 H   0  0  0  0  0  0  0  0  0  0  0  0
   61.1374   28.5187   44.6789 H   0  0  0  0  0  0  0  0  0  0  0  0
   59.7664   30.4364   43.8633 H   0  0  0  0  0  0  0  0  0  0  0  0
   57.6611   32.7149   47.3792 H   0  0  0  0  0  0  0  0  0  0  0  0
   58.0784   31.1125   46.6295 H   0  0  0  0  0  0  0  0  0  0  0  0
   60.0947   32.3539   47.3616 H   0  0  0  0  0  0  0  0  0  0  0  0
   60.0276   32.0894   45.5585 H   0  0  0  0  0  0  0  0  0  0  0  0
   58.0386   35.0968   45.9767 H   0  0  0  0  0  0  0  0  0  0  0  0
   59.3042   35.2671   44.6610 H   0  0  0  0  0  0  0  0  0  0  0  0
   57.2885   34.0956   43.8499 H   0  0  0  0  0  0  0  0  0  0  0  0
   58.7626   33.0568   43.8148 H   0  0  0  0  0  0  0  0  0  0  0  0
   56.3442   28.9099   46.0307 H   0  0  0  0  0  0  0  0  0  0  0  0
  1  2  1  0
  2  3  1  0
  3  4  2  0
  4  5  1  0
  5  6  2  0
  6  7  1  0
  7  8  2  0
  8  9  1  0
  9 10  1  0
 10 11  2  0
 10 12  1  0
 12 13  1  0
 13 14  1  0
 14 15  2  0
 15 16  1  0
 16 17  2  0
 17 18  1  0
 18 19  1  0
 19 20  2  0
 19 21  2  0
 19 22  1  0
 22 23  1  0
 23 24  1  0
 24 25  1  0
 25 26  1  0
 26 27  1  0
 18 28  2  0
  8  3  1  0
 28 14  1  0
 27 22  1  0
  1 29  1  0
  1 30  1  0
  1 31  1  0
  4 32  1  0
  5 33  1  0
  6 34  1  0
  7 35  1  0
 12 36  1  0
 12 37  1  0
 15 38  1  0
 16 39  1  0
 17 40  1  0
 23 41  1  0
 23 42  1  0
 24 43  1  0
 24 44  1  0
 26 45  1  0
 26 46  1  0
 27 47  1  0
 27 48  1  0
 28 49  1  0
M  CHG  1   9  -1
M  END
>  <UniqueID>  (32) 
30

>  <SMILES>  (32) 
CSc1ccccc1[N-]C(=O)COc1cccc(S(=O)(=O)N2CCOCC2)c1

>  <Energy>  (32) 
64.47977725823242

>  <Genealogy>  (32) 
CSc1ccccc1[N-]C(=O)COc1cccc(S(=O)(=O)N2CCOCC2)c1 (protonated)
CSc1ccccc1[N-]C(=O)COc1cccc(S(=O)(=O)N2CCOCC2)c1 (3D coordinates assigned)
CSc1ccccc1[N-]C(=O)COc1cccc(S(=O)(=O)N2CCOCC2)c1 (nonaromatic ring conformer: 64.47977725823242 kcal/mol)

>  <smiles>  (32) 
CSc1ccccc1NC(=O)COc1cccc(S(=O)(=O)N2CCOCC2)c1

>  <score_type>  (32) 
oracle

>  <origin>  (32) 
adg

>  <m_score__min__energy>  (32) 
-11.49

>  <m_primary>  (32) 
energy

$$$$
32:0
     RDKit          3D

 54 58  0  0  1  0  0  0  0  0999 V2000
   56.6360   29.9110   42.9980 C   0  0  0  0  0  0  0  0  0  0  0  0
   57.0530   30.8960   44.0120 C   0  0  0  0  0  0  0  0  0  0  0  0
   57.0590   31.0020   45.2040 N   0  0  0  0  0  0  0  0  0  0  0  0
   57.4780   31.9620   45.9430 N   0  0  0  0  0  0  0  0  0  0  0  0
   57.9860   33.0080   45.3030 C   0  0  0  0  0  0  0  0  0  0  0  0
   58.4990   34.1530   45.6670 N   0  0  0  0  0  0  0  0  0  0  0  0
   59.6650   34.2140   46.4780 C   0  0  0  0  0  0  0  0  0  0  0  0
   60.7720   34.6650   46.0420 O   0  0  0  0  0  0  0  0  0  0  0  0
   59.5540   33.7250   47.8690 C   0  0  0  0  0  0  0  0  0  0  0  0
   60.4070   34.0830   48.9150 C   0  0  0  0  0  0  0  0  0  0  0  0
   59.9760   33.4260   50.0340 C   0  0  0  0  0  0  0  0  0  0  0  0
   58.8630   32.6860   49.6110 C   0  0  0  0  0  0  0  0  0  0  0  0
   58.1320   31.8490   50.5610 C   0  0  0  0  0  0  0  0  0  0  0  0
   57.3960   32.3900   51.6010 C   0  0  0  0  0  0  0  0  0  0  0  0
   56.7250   31.6570   52.4990 N   0  0  0  0  0  0  0  0  0  0  0  0
   56.7770   30.3240   52.3780 C   0  0  0  0  0  0  0  0  0  0  0  0
   56.1620   29.5810   53.2150 N   0  0  0  0  0  0  0  0  0  0  0  0
   54.9670   28.8500   53.0140 C   0  0  0  0  0  0  0  0  0  0  0  0
   53.8500   29.8000   52.6410 C   0  0  0  0  0  0  0  0  0  0  0  0
   53.0430   30.3330   53.6150 C   0  0  0  0  0  0  0  0  0  0  0  0
   52.0460   31.1880   53.1960 C   0  0  0  0  0  0  0  0  0  0  0  0
   51.8830   31.4830   51.8390 C   0  0  0  0  0  0  0  0  0  0  0  0
   52.7130   30.9310   50.8780 C   0  0  0  0  0  0  0  0  0  0  0  0
   53.7060   30.0810   51.2900 C   0  0  0  0  0  0  0  0  0  0  0  0
   57.4740   29.7530   51.3900 N   0  0  0  0  0  0  0  0  0  0  0  0
   58.1600   30.4800   50.4690 C   0  0  0  0  0  0  0  0  0  0  0  0
   58.8790   29.7680   49.4190 C   0  0  0  0  0  0  0  0  0  0  0  0
   58.5680   29.8690   48.0830 C   0  0  0  0  0  0  0  0  0  0  0  0
   59.3370   29.1350   47.2110 C   0  0  0  0  0  0  0  0  0  0  0  0
   60.3810   28.3210   47.6080 C   0  0  0  0  0  0  0  0  0  0  0  0
   60.6850   28.2290   48.9620 C   0  0  0  0  0  0  0  0  0  0  0  0
   59.9310   28.9520   49.8470 C   0  0  0  0  0  0  0  0  0  0  0  0
   58.6550   32.8940   48.3340 O   0  0  0  0  0  0  0  0  0  0  0  0
   57.8320   32.5300   43.5030 S   0  0  0  0  0  0  0  0  0  0  0  0
   56.2541   29.0089   43.4984 H   0  0  0  0  0  0  0  0  0  0  0  0
   55.8443   30.3446   42.3694 H   0  0  0  0  0  0  0  0  0  0  0  0
   57.4984   29.6443   42.3694 H   0  0  0  0  0  0  0  0  0  0  0  0
   57.4270   31.9450   47.0110 H   0  0  0  0  0  0  0  0  0  0  0  0
   61.2663   34.7667   48.8507 H   0  0  0  0  0  0  0  0  0  0  0  0
   60.4080   33.4687   51.0447 H   0  0  0  0  0  0  0  0  0  0  0  0
   57.3601   33.4853   51.6954 H   0  0  0  0  0  0  0  0  0  0  0  0
   56.1730   32.0710   53.2750 H   0  0  0  0  0  0  0  0  0  0  0  0
   55.1149   28.1218   52.2029 H   0  0  0  0  0  0  0  0  0  0  0  0
   54.7022   28.3192   53.9403 H   0  0  0  0  0  0  0  0  0  0  0  0
   53.1849   30.0897   54.6783 H   0  0  0  0  0  0  0  0  0  0  0  0
   51.3719   31.6428   53.9368 H   0  0  0  0  0  0  0  0  0  0  0  0
   51.0795   32.1672   51.5288 H   0  0  0  0  0  0  0  0  0  0  0  0
   52.5790   31.1684   49.8123 H   0  0  0  0  0  0  0  0  0  0  0  0
   54.3845   29.6245   50.5543 H   0  0  0  0  0  0  0  0  0  0  0  0
   57.7440   30.5061   47.7293 H   0  0  0  0  0  0  0  0  0  0  0  0
   59.1084   29.1993   46.1369 H   0  0  0  0  0  0  0  0  0  0  0  0
   60.9621   27.7550   46.8650 H   0  0  0  0  0  0  0  0  0  0  0  0
   61.5101   27.5917   49.3129 H   0  0  0  0  0  0  0  0  0  0  0  0
   60.1583   28.8895   50.9214 H   0  0  0  0  0  0  0  0  0  0  0  0
  1  2  1  0
  2  3  2  0
  3  4  1  0
  4  5  1  0
  5  6  2  0
  6  7  1  0
  7  8  2  0
  7  9  1  0
  9 10  2  0
 10 11  1  0
 11 12  2  0
 12 13  1  0
 13 14  2  0
 14 15  1  0
 15 16  1  0
 16 17  2  0
 17 18  1  0
 18 19  1  0
 19 20  2  0
 20 21  1  0
 21 22  2  0
 22 23  1  0
 23 24  2  0
 16 25  1  0
 25 26  2  0
 26 27  1  0
 27 28  2  0
 28 29  1  0
 29 30  2  0
 30 31  1  0
 31 32  2  0
 12 33  1  0
  5 34  1  0
 34  2  1  0
 33  9  1  0
 26 13  1  0
 32 27  1  0
 24 19  1  0
  1 35  1  0
  1 36  1  0
  1 37  1  0
  4 38  1  0
 10 39  1  0
 11 40  1  0
 14 41  1  0
 15 42  1  0
 18 43  1  0
 18 44  1  0
 20 45  1  0
 21 46  1  0
 22 47  1  0
 23 48  1  0
 24 49  1  0
 28 50  1  0
 29 51  1  0
 30 52  1  0
 31 53  1  0
 32 54  1  0
M  END
>  <smiles>  (33) 
Cc1n[nH]c(=NC(=O)c2ccc(-c3c[nH]c(=NCc4ccccc4)nc3-c3ccccc3)o2)s1

>  <score_type>  (33) 
oracle

>  <origin>  (33) 
adg

>  <m_score__min__energy>  (33) 
-10.529999999999999

>  <m_primary>  (33) 
energy

$$$$
33:0
     RDKit          3D

 64 67  0  0  0  0  0  0  0  0999 V2000
   57.9410   29.4160   52.7810 C   0  0  0  0  0  0  0  0  0  0  0  0
   57.3980   30.0570   51.6320 O   0  0  0  0  0  0  0  0  0  0  0  0
   58.1240   30.9100   50.7880 C   0  0  0  0  0  0  0  0  0  0  0  0
   58.5740   30.5090   49.5140 C   0  0  0  0  0  0  0  0  0  0  0  0
   59.3010   31.3950   48.7140 C   0  0  0  0  0  0  0  0  0  0  0  0
   59.5840   32.6900   49.1690 C   0  0  0  0  0  0  0  0  0  0  0  0
   60.5210   33.7830   48.1550 S   0  0  0  0  0  0  0  0  0  0  0  0
   61.7650   33.0970   47.6590 O   0  0  0  0  0  0  0  0  0  0  0  0
   60.9270   34.9730   48.9820 O   0  0  0  0  0  0  0  0  0  0  0  0
   59.5420   34.2980   46.8010 N   0  0  0  0  0  0  0  0  0  0  0  0
   58.0980   34.2150   47.1240 C   0  0  0  0  0  0  0  0  0  0  0  0
   57.4270   32.9820   46.5010 C   0  0  0  0  0  0  0  0  0  0  0  0
   57.5440   32.9910   45.0270 N   0  0  0  0  0  0  0  0  0  0  0  0
   57.3190   31.3750   44.3980 S   0  0  0  0  0  0  0  0  0  0  0  0
   55.8580   31.0200   44.4370 O   0  0  0  0  0  0  0  0  0  0  0  0
   57.7860   31.3050   42.9700 O   0  0  0  0  0  0  0  0  0  0  0  0
   58.2120   30.2070   45.3730 C   0  0  0  0  0  0  0  0  0  0  0  0
   59.5970   30.3430   45.5480 C   0  0  0  0  0  0  0  0  0  0  0  0
   60.3030   29.4180   46.3240 C   0  0  0  0  0  0  0  0  0  0  0  0
   59.6390   28.3340   46.9120 C   0  0  0  0  0  0  0  0  0  0  0  0
   60.3860   27.4150   47.7220 N   0  0  0  0  0  0  0  0  0  0  0  0
   60.7680   27.6320   49.0850 C   0  0  0  0  0  0  0  0  0  0  0  0
   60.7330   26.6640   49.8920 O   0  0  0  0  0  0  0  0  0  0  0  0
   61.1210   28.9430   49.5510 N   0  0  0  0  0  0  0  0  0  0  0  0
   61.6980   29.1740   50.8730 C   0  0  0  0  0  0  0  0  0  0  0  0
   62.1120   30.6130   51.0120 C   0  0  0  0  0  0  0  0  0  0  0  0
   62.8840   31.2220   50.0080 C   0  0  0  0  0  0  0  0  0  0  0  0
   63.2850   32.5560   50.1400 C   0  0  0  0  0  0  0  0  0  0  0  0
   62.9270   33.2870   51.2760 C   0  0  0  0  0  0  0  0  0  0  0  0
   62.1690   32.6850   52.2840 C   0  0  0  0  0  0  0  0  0  0  0  0
   61.7640   31.3510   52.1570 C   0  0  0  0  0  0  0  0  0  0  0  0
   58.2470   28.2120   46.7550 C   0  0  0  0  0  0  0  0  0  0  0  0
   57.5390   29.1420   45.9880 C   0  0  0  0  0  0  0  0  0  0  0  0
   58.8120   33.5800   44.5350 C   0  0  0  0  0  0  0  0  0  0  0  0
   59.9250   33.5410   45.5910 C   0  0  0  0  0  0  0  0  0  0  0  0
   59.1370   33.0910   50.4350 C   0  0  0  0  0  0  0  0  0  0  0  0
   58.4090   32.2060   51.2360 C   0  0  0  0  0  0  0  0  0  0  0  0
   57.5397   29.8897   53.6891 H   0  0  0  0  0  0  0  0  0  0  0  0
   57.6661   28.3509   52.7709 H   0  0  0  0  0  0  0  0  0  0  0  0
   59.0368   29.5120   52.7709 H   0  0  0  0  0  0  0  0  0  0  0  0
   58.3524   29.4956   49.1481 H   0  0  0  0  0  0  0  0  0  0  0  0
   59.6528   31.0743   47.7223 H   0  0  0  0  0  0  0  0  0  0  0  0
   57.9831   34.1650   48.2168 H   0  0  0  0  0  0  0  0  0  0  0  0
   57.6099   35.1082   46.7070 H   0  0  0  0  0  0  0  0  0  0  0  0
   57.9106   32.0751   46.8929 H   0  0  0  0  0  0  0  0  0  0  0  0
   56.3589   32.9994   46.7636 H   0  0  0  0  0  0  0  0  0  0  0  0
   60.1298   31.1801   45.0733 H   0  0  0  0  0  0  0  0  0  0  0  0
   61.3857   29.5425   46.4733 H   0  0  0  0  0  0  0  0  0  0  0  0
   60.9060   29.7710   48.9540 H   0  0  0  0  0  0  0  0  0  0  0  0
   60.9501   28.9346   51.6433 H   0  0  0  0  0  0  0  0  0  0  0  0
   62.5821   28.5314   50.9972 H   0  0  0  0  0  0  0  0  0  0  0  0
   63.1740   30.6481   49.1155 H   0  0  0  0  0  0  0  0  0  0  0  0
   63.8832   33.0303   49.3480 H   0  0  0  0  0  0  0  0  0  0  0  0
   63.2418   34.3362   51.3767 H   0  0  0  0  0  0  0  0  0  0  0  0
   61.8901   33.2605   53.1790 H   0  0  0  0  0  0  0  0  0  0  0  0
   61.1720   30.8790   52.9550 H   0  0  0  0  0  0  0  0  0  0  0  0
   57.7125   27.3807   47.2380 H   0  0  0  0  0  0  0  0  0  0  0  0
   56.4507   29.0378   45.8667 H   0  0  0  0  0  0  0  0  0  0  0  0
   59.1440   33.0155   43.6512 H   0  0  0  0  0  0  0  0  0  0  0  0
   58.6187   34.6350   44.2909 H   0  0  0  0  0  0  0  0  0  0  0  0
   60.1189   32.4946   45.8691 H   0  0  0  0  0  0  0  0  0  0  0  0
   60.8270   34.0027   45.1629 H   0  0  0  0  0  0  0  0  0  0  0  0
   59.3594   34.1047   50.7996 H   0  0  0  0  0  0  0  0  0  0  0  0
   58.0571   32.5304   52.2264 H   0  0  0  0  0  0  0  0  0  0  0  0
  1  2  1  0
  2  3  1  0
  3  4  2  0
  4  5  1  0
  5  6  2  0
  6  7  1  0
  7  8  2  0
  7  9  2  0
  7 10  1  0
 10 11  1  0
 11 12  1  0
 12 13  1  0
 13 14  1  0
 14 15  2  0
 14 16  2  0
 14 17  1  0
 17 18  2  0
 18 19  1  0
 19 20  2  0
 20 21  1  0
 21 22  1  0
 22 23  2  0
 22 24  1  0
 24 25  1  0
 25 26  1  0
 26 27  2  0
 27 28  1  0
 28 29  2  0
 29 30  1  0
 30 31  2  0
 20 32  1  0
 32 33  2  0
 13 34  1  0
 34 35  1  0
  6 36  1  0
 36 37  2  0
 37  3  1  0
 35 10  1  0
 33 17  1  0
 31 26  1  0
  1 38  1  0
  1 39  1  0
  1 40  1  0
  4 41  1  0
  5 42  1  0
 11 43  1  0
 11 44  1  0
 12 45  1  0
 12 46  1  0
 18 47  1  0
 19 48  1  0
 24 49  1  0
 25 50  1  0
 25 51  1  0
 27 52  1  0
 28 53  1  0
 29 54  1  0
 30 55  1  0
 31 56  1  0
 32 57  1  0
 33 58  1  0
 34 59  1  0
 34 60  1  0
 35 61  1  0
 35 62  1  0
 36 63  1  0
 37 64  1  0
M  CHG  1  21  -1
M  END
>  <UniqueID>  (34) 
31

>  <SMILES>  (34) 
COc1ccc(S(=O)(=O)N2CCN(S(=O)(=O)c3ccc([N-]C(=O)NCc4ccccc4)cc3)CC2)cc1

>  <Energy>  (34) 
76.85020217440133

>  <Genealogy>  (34) 
COc1ccc(S(=O)(=O)N2CCN(S(=O)(=O)c3ccc([N-]C(=O)NCc4ccccc4)cc3)CC2)cc1 (protonated)
COc1ccc(S(=O)(=O)N2CCN(S(=O)(=O)c3ccc([N-]C(=O)NCc4ccccc4)cc3)CC2)cc1 (3D coordinates assigned)
COc1ccc(S(=O)(=O)N2CCN(S(=O)(=O)c3ccc([N-]C(=O)NCc4ccccc4)cc3)CC2)cc1 (nonaromatic ring conformer: 76.85020217440133 kcal/mol)

>  <smiles>  (34) 
COc1ccc(S(=O)(=O)N2CCN(S(=O)(=O)c3ccc(NC(=O)NCc4ccccc4)cc3)CC2)cc1

>  <score_type>  (34) 
oracle

>  <origin>  (34) 
adg

>  <m_score__min__energy>  (34) 
-11.220000000000001

>  <m_primary>  (34) 
energy

$$$$
34:0
     RDKit          3D

 61 64  0  0  0  0  0  0  0  0999 V2000
   58.0471   24.8499   48.3391 H   0  0  0  0  0  0  0  0  0  0  0  0
   57.6920   24.6860   47.3110 C   0  0  0  0  0  0  0  0  0  0  0  0
   57.1535   23.7614   47.0559 H   0  0  0  0  0  0  0  0  0  0  0  0
   57.9160   25.6150   46.3670 C   0  0  0  0  0  0  0  0  0  0  0  0
   57.5250   25.5450   45.0220 C   0  0  0  0  0  0  0  0  0  0  0  0
   56.6590   24.7250   44.3940 C   0  0  0  0  0  0  0  0  0  0  0  0
   57.0018   24.2494   43.4632 H   0  0  0  0  0  0  0  0  0  0  0  0
   55.2930   24.4110   44.8470 C   0  0  0  0  0  0  0  0  0  0  0  0
   54.6980   23.2110   44.7200 N   0  0  0  0  0  0  0  0  0  0  0  0
   53.5330   23.3690   45.3840 C   0  0  0  0  0  0  0  0  0  0  0  0
   52.6770   22.4520   45.4780 O   0  0  0  0  0  0  0  0  0  0  0  0
   53.3620   24.5850   45.9490 N   0  0  0  0  0  0  0  0  0  0  0  0
   54.4920   25.2260   45.6090 C   0  0  0  0  0  0  0  0  0  0  0  0
   54.7860   26.5280   45.9940 O   0  0  0  0  0  0  0  0  0  0  0  0
   58.2170   26.5450   44.3670 C   0  0  0  0  0  0  0  0  0  0  0  0
   58.1915   26.7565   43.2878 H   0  0  0  0  0  0  0  0  0  0  0  0
   58.9480   27.2310   45.3200 C   0  0  0  0  0  0  0  0  0  0  0  0
   59.8730   28.3570   45.0170 C   0  0  0  0  0  0  0  0  0  0  0  0
   61.1190   28.1890   45.0910 O   0  0  0  0  0  0  0  0  0  0  0  0
   59.3580   29.6970   44.5670 C   0  0  0  0  0  0  0  0  0  0  0  0
   60.0034   30.4829   44.9863 H   0  0  0  0  0  0  0  0  0  0  0  0
   59.3712   29.7102   43.4672 H   0  0  0  0  0  0  0  0  0  0  0  0
   57.9110   29.9500   45.0230 C   0  0  0  0  0  0  0  0  0  0  0  0
   57.2884   30.1136   44.1310 H   0  0  0  0  0  0  0  0  0  0  0  0
   57.5936   29.0670   45.5971 H   0  0  0  0  0  0  0  0  0  0  0  0
   57.7640   31.1680   45.9490 C   0  0  0  0  0  0  0  0  0  0  0  0
   57.0981   30.9064   46.7846 H   0  0  0  0  0  0  0  0  0  0  0  0
   58.7604   31.4463   46.3229 H   0  0  0  0  0  0  0  0  0  0  0  0
   57.1940   32.3240   45.2190 N   0  0  0  0  0  0  0  0  0  0  0  0
   56.8430   33.4410   46.1190 C   0  0  0  0  0  0  0  0  0  0  0  0
   56.2753   34.1904   45.5479 H   0  0  0  0  0  0  0  0  0  0  0  0
   56.2468   33.0310   46.9475 H   0  0  0  0  0  0  0  0  0  0  0  0
   58.0920   34.1200   46.7260 C   0  0  0  0  0  0  0  0  0  0  0  0
   57.9265   35.2070   46.7592 H   0  0  0  0  0  0  0  0  0  0  0  0
   58.2464   33.7146   47.7368 H   0  0  0  0  0  0  0  0  0  0  0  0
   59.3040   33.8440   45.9280 N   0  0  0  0  0  0  0  0  0  0  0  0
   60.4790   34.6430   46.3450 C   0  0  0  0  0  0  0  0  0  0  0  0
   60.9018   35.1275   45.4526 H   0  0  0  0  0  0  0  0  0  0  0  0
   60.1218   35.3672   47.0919 H   0  0  0  0  0  0  0  0  0  0  0  0
   61.5730   33.8320   47.0100 C   0  0  0  0  0  0  0  0  0  0  0  0
   61.2950   33.0660   48.1550 C   0  0  0  0  0  0  0  0  0  0  0  0
   60.2765   33.0520   48.5704 H   0  0  0  0  0  0  0  0  0  0  0  0
   62.3080   32.3210   48.7690 C   0  0  0  0  0  0  0  0  0  0  0  0
   62.0829   31.7182   49.6612 H   0  0  0  0  0  0  0  0  0  0  0  0
   63.6050   32.3420   48.2500 C   0  0  0  0  0  0  0  0  0  0  0  0
   64.3992   31.7526   48.7315 H   0  0  0  0  0  0  0  0  0  0  0  0
   63.8940   33.1110   47.1200 C   0  0  0  0  0  0  0  0  0  0  0  0
   64.9164   33.1298   46.7146 H   0  0  0  0  0  0  0  0  0  0  0  0
   62.8840   33.8570   46.5040 C   0  0  0  0  0  0  0  0  0  0  0  0
   63.1170   34.4667   45.6186 H   0  0  0  0  0  0  0  0  0  0  0  0
   59.0290   33.9010   44.4840 C   0  0  0  0  0  0  0  0  0  0  0  0
   58.5829   34.8753   44.2356 H   0  0  0  0  0  0  0  0  0  0  0  0
   59.9706   33.7718   43.9301 H   0  0  0  0  0  0  0  0  0  0  0  0
   58.0490   32.7740   44.0920 C   0  0  0  0  0  0  0  0  0  0  0  0
   57.3984   33.1416   43.2848 H   0  0  0  0  0  0  0  0  0  0  0  0
   58.6532   31.9110   43.7753 H   0  0  0  0  0  0  0  0  0  0  0  0
   58.7310   26.6900   46.5460 N   0  0  0  0  0  0  0  0  0  0  0  0
   59.3230   27.1440   47.8120 C   0  0  0  0  0  0  0  0  0  0  0  0
   58.7617   26.7136   48.6544 H   0  0  0  0  0  0  0  0  0  0  0  0
   60.3718   26.8164   47.8646 H   0  0  0  0  0  0  0  0  0  0  0  0
   59.2787   28.2418   47.8646 H   0  0  0  0  0  0  0  0  0  0  0  0
  1  2  1  0
  2  3  1  0
  2  4  2  0
  4  5  1  0
  5  6  2  0
  6  7  1  0
  6  8  1  0
  8  9  1  0
  9 10  1  0
 10 11  2  0
 10 12  1  0
 12 13  1  0
 13 14  1  0
  5 15  1  0
 15 16  1  0
 15 17  2  0
 17 18  1  0
 18 19  2  0
 18 20  1  0
 20 21  1  0
 20 22  1  0
 20 23  1  0
 23 24  1  0
 23 25  1  0
 23 26  1  0
 26 27  1  0
 26 28  1  0
 26 29  1  0
 29 30  1  0
 30 31  1  0
 30 32  1  0
 30 33  1  0
 33 34  1  0
 33 35  1  0
 33 36  1  0
 36 37  1  0
 37 38  1  0
 37 39  1  0
 37 40  1  0
 40 41  2  0
 41 42  1  0
 41 43  1  0
 43 44  1  0
 43 45  2  0
 45 46  1  0
 45 47  1  0
 47 48  1  0
 47 49  2  0
 49 50  1  0
 36 51  1  0
 51 52  1  0
 51 53  1  0
 51 54  1  0
 54 55  1  0
 54 56  1  0
 17 57  1  0
 57 58  1  0
 58 59  1  0
 58 60  1  0
 58 61  1  0
 57  4  1  0
 13  8  2  0
 54 29  1  0
 49 40  1  0
M  CHG  3   9  -1  12  -1  14  -1
M  END
>  <UniqueID>  (35) 
32

>  <SMILES>  (35) 
C=c1/c(=C\c2[n-]c(=O)[n-]c2[O-])cc(C(=O)CCCN2CCN(Cc3ccccc3)CC2)n1C

>  <Energy>  (35) 
146.10455516041563

>  <Genealogy>  (35) 
C=c1c(=Cc2[n-]c(=O)[n-]c2[O-])cc(C(=O)CCCN2CCN(Cc3ccccc3)CC2)n1C (protonated)
C=c1/c(=C\c2[n-]c(=O)[n-]c2[O-])cc(C(=O)CCCN2CCN(Cc3ccccc3)CC2)n1C (cis-trans isomerization)
C=c1/c(=C\c2[n-]c(=O)[n-]c2[O-])cc(C(=O)CCCN2CCN(Cc3ccccc3)CC2)n1C (3D coordinates assigned)
C=c1/c(=C\c2[n-]c(=O)[n-]c2[O-])cc(C(=O)CCCN2CCN(Cc3ccccc3)CC2)n1C (nonaromatic ring conformer: 146.10455516041563 kcal/mol)

>  <smiles>  (35) 
C=c1c(=Cc2[nH]c(=O)[nH]c2O)cc(C(=O)CCCN2CCN(Cc3ccccc3)CC2)n1C

>  <score_type>  (35) 
oracle

>  <origin>  (35) 
adg

>  <m_score__min__energy>  (35) 
-19.239999999999998

>  <m_primary>  (35) 
energy

$$$$
35:0
     RDKit          3D

 35 37  0  0  0  0  0  0  0  0999 V2000
   57.8140   31.4100   43.2500 O   0  0  0  0  0  0  0  0  0  0  0  0
   56.9810   31.1510   44.1620 C   0  0  0  0  0  0  0  0  0  0  0  0
   55.9200   30.1300   43.9260 C   0  0  0  0  0  0  0  0  0  0  0  0
   55.7410   29.3410   45.1410 N   0  0  0  0  0  0  0  0  0  0  0  0
   56.9900   28.1390   45.2530 S   0  0  0  0  0  0  0  0  0  0  0  0
   56.4720   26.9350   45.9910 O   0  0  0  0  0  0  0  0  0  0  0  0
   57.4000   27.7180   43.8700 O   0  0  0  0  0  0  0  0  0  0  0  0
   58.3870   28.7910   46.0900 C   0  0  0  0  0  0  0  0  0  0  0  0
   59.4150   29.5080   45.5000 C   0  0  0  0  0  0  0  0  0  0  0  0
   60.3840   29.9270   46.4200 C   0  0  0  0  0  0  0  0  0  0  0  0
   60.1130   29.5410   47.7290 C   0  0  0  0  0  0  0  0  0  0  0  0
   58.6680   28.6800   47.7420 S   0  0  0  0  0  0  0  0  0  0  0  0
   57.0250   31.8540   45.4070 N   0  0  0  0  0  0  0  0  0  0  0  0
   57.9270   32.9360   45.6780 C   0  0  0  0  0  0  0  0  0  0  0  0
   58.2440   33.8090   44.6310 C   0  0  0  0  0  0  0  0  0  0  0  0
   59.0830   34.9020   44.8460 C   0  0  0  0  0  0  0  0  0  0  0  0
   59.6320   35.1300   46.1090 C   0  0  0  0  0  0  0  0  0  0  0  0
   59.3590   34.2490   47.1660 C   0  0  0  0  0  0  0  0  0  0  0  0
   59.9370   34.4640   48.4270 C   0  0  0  0  0  0  0  0  0  0  0  0
   59.6970   33.5700   49.4710 C   0  0  0  0  0  0  0  0  0  0  0  0
   58.8890   32.4500   49.2640 C   0  0  0  0  0  0  0  0  0  0  0  0
   58.3050   32.2240   48.0160 C   0  0  0  0  0  0  0  0  0  0  0  0
   58.5120   33.1290   46.9540 C   0  0  0  0  0  0  0  0  0  0  0  0
   54.9754   30.6321   43.6699 H   0  0  0  0  0  0  0  0  0  0  0  0
   56.2157   29.4718   43.0957 H   0  0  0  0  0  0  0  0  0  0  0  0
   59.4649   29.7252   44.4228 H   0  0  0  0  0  0  0  0  0  0  0  0
   61.2747   30.5062   46.1349 H   0  0  0  0  0  0  0  0  0  0  0  0
   60.7380   29.7616   48.6069 H   0  0  0  0  0  0  0  0  0  0  0  0
   57.8273   33.6312   43.6286 H   0  0  0  0  0  0  0  0  0  0  0  0
   59.3131   35.5873   44.0169 H   0  0  0  0  0  0  0  0  0  0  0  0
   60.2804   36.0028   46.2759 H   0  0  0  0  0  0  0  0  0  0  0  0
   60.5812   35.3401   48.5926 H   0  0  0  0  0  0  0  0  0  0  0  0
   60.1454   33.7479   50.4596 H   0  0  0  0  0  0  0  0  0  0  0  0
   58.7118   31.7428   50.0877 H   0  0  0  0  0  0  0  0  0  0  0  0
   57.6787   31.3333   47.8598 H   0  0  0  0  0  0  0  0  0  0  0  0
  1  2  2  0
  2  3  1  0
  3  4  1  0
  4  5  1  0
  5  6  2  0
  5  7  2  0
  5  8  1  0
  8  9  2  0
  9 10  1  0
 10 11  2  0
 11 12  1  0
  2 13  1  0
 13 14  1  0
 14 15  2  0
 15 16  1  0
 16 17  2  0
 17 18  1  0
 18 19  2  0
 19 20  1  0
 20 21  2  0
 21 22  1  0
 22 23  2  0
 12  8  1  0
 23 14  1  0
 23 18  1  0
  3 24  1  0
  3 25  1  0
  9 26  1  0
 10 27  1  0
 11 28  1  0
 15 29  1  0
 16 30  1  0
 17 31  1  0
 19 32  1  0
 20 33  1  0
 21 34  1  0
 22 35  1  0
M  CHG  2   4  -1  13  -1
M  END
>  <UniqueID>  (36) 
33

>  <SMILES>  (36) 
O=C(C[N-]S(=O)(=O)c1cccs1)[N-]c1cccc2ccccc12

>  <Energy>  (36) 
71.23625847147981

>  <Genealogy>  (36) 
O=C(C[N-]S(=O)(=O)c1cccs1)[N-]c1cccc2ccccc12 (protonated)
O=C(C[N-]S(=O)(=O)c1cccs1)[N-]c1cccc2ccccc12 (3D coordinates assigned)
O=C(C[N-]S(=O)(=O)c1cccs1)[N-]c1cccc2ccccc12 (optimized conformer: 71.23625847147981 kcal/mol)

>  <smiles>  (36) 
O=C(CNS(=O)(=O)c1cccs1)Nc1cccc2ccccc12

>  <score_type>  (36) 
oracle

>  <origin>  (36) 
adg

>  <m_score__min__energy>  (36) 
-12.02

>  <m_primary>  (36) 
energy

$$$$
36:0
     RDKit          3D

 57 61  0  0  0  0  0  0  0  0999 V2000
   61.6060   28.2329   48.6490 H   0  0  0  0  0  0  0  0  0  0  0  0
   60.7540   28.0810   47.9700 C   0  0  0  0  0  0  0  0  0  0  0  0
   59.8740   29.0790   47.7850 C   0  0  0  0  0  0  0  0  0  0  0  0
   60.0260   30.3480   48.5320 C   0  0  0  0  0  0  0  0  0  0  0  0
   59.2960   30.7330   49.6550 C   0  0  0  0  0  0  0  0  0  0  0  0
   58.4967   30.1369   50.1196 H   0  0  0  0  0  0  0  0  0  0  0  0
   59.7110   31.9460   50.0930 N   0  0  0  0  0  0  0  0  0  0  0  0
   59.2250   32.6330   51.2900 C   0  0  0  0  0  0  0  0  0  0  0  0
   59.3072   33.7200   51.1432 H   0  0  0  0  0  0  0  0  0  0  0  0
   59.8328   32.3224   52.1526 H   0  0  0  0  0  0  0  0  0  0  0  0
   57.7690   32.2700   51.5530 C   0  0  0  0  0  0  0  0  0  0  0  0
   57.5923   32.2259   52.6378 H   0  0  0  0  0  0  0  0  0  0  0  0
   57.1144   33.0324   51.1055 H   0  0  0  0  0  0  0  0  0  0  0  0
   57.5490   31.2895   51.1055 H   0  0  0  0  0  0  0  0  0  0  0  0
   60.7180   32.3210   49.2750 C   0  0  0  0  0  0  0  0  0  0  0  0
   61.5110   33.4700   49.3590 C   0  0  0  0  0  0  0  0  0  0  0  0
   61.3302   34.2275   50.1359 H   0  0  0  0  0  0  0  0  0  0  0  0
   62.5470   33.6280   48.4200 C   0  0  0  0  0  0  0  0  0  0  0  0
   63.1801   34.5270   48.4510 H   0  0  0  0  0  0  0  0  0  0  0  0
   62.7790   32.6410   47.4390 C   0  0  0  0  0  0  0  0  0  0  0  0
   63.5955   32.7735   46.7139 H   0  0  0  0  0  0  0  0  0  0  0  0
   61.9750   31.4900   47.3810 C   0  0  0  0  0  0  0  0  0  0  0  0
   62.1582   30.7084   46.6290 H   0  0  0  0  0  0  0  0  0  0  0  0
   60.9360   31.3680   48.3070 C   0  0  0  0  0  0  0  0  0  0  0  0
   58.7640   28.8840   46.8260 C   0  0  0  0  0  0  0  0  0  0  0  0
   57.7750   29.6680   46.8300 O   0  0  0  0  0  0  0  0  0  0  0  0
   58.8040   27.7630   45.9190 N   0  0  0  0  0  0  0  0  0  0  0  0
   57.6310   27.3900   45.1170 C   0  0  0  0  0  0  0  0  0  0  0  0
   57.5421   26.2939   45.0935 H   0  0  0  0  0  0  0  0  0  0  0  0
   56.7329   27.8332   45.5720 H   0  0  0  0  0  0  0  0  0  0  0  0
   57.7700   27.9070   43.7080 C   0  0  0  0  0  0  0  0  0  0  0  0
   58.4560   27.2380   42.8910 O   0  0  0  0  0  0  0  0  0  0  0  0
   57.0650   29.0590   43.2170 N   0  0  0  0  0  0  0  0  0  0  0  0
   57.4070   30.3090   43.3230 C   0  0  0  0  0  0  0  0  0  0  0  0
   57.3930   31.1780   42.3390 O   0  0  0  0  0  0  0  0  0  0  0  0
   57.7830   32.3310   42.8340 C   0  0  0  0  0  0  0  0  0  0  0  0
   57.8864   33.2731   42.2756 H   0  0  0  0  0  0  0  0  0  0  0  0
   58.0410   32.1510   44.1830 C   0  0  0  0  0  0  0  0  0  0  0  0
   58.5180   33.1770   45.1440 C   0  0  0  0  0  0  0  0  0  0  0  0
   58.2610   33.0450   46.5230 C   0  0  0  0  0  0  0  0  0  0  0  0
   57.7074   32.1696   46.8933 H   0  0  0  0  0  0  0  0  0  0  0  0
   58.7040   34.0180   47.4250 C   0  0  0  0  0  0  0  0  0  0  0  0
   58.4990   33.9046   48.4998 H   0  0  0  0  0  0  0  0  0  0  0  0
   59.4060   35.1330   46.9630 C   0  0  0  0  0  0  0  0  0  0  0  0
   59.7533   35.8977   47.6734 H   0  0  0  0  0  0  0  0  0  0  0  0
   59.6670   35.2770   45.5990 C   0  0  0  0  0  0  0  0  0  0  0  0
   60.2193   36.1563   45.2360 H   0  0  0  0  0  0  0  0  0  0  0  0
   59.2280   34.3060   44.6930 C   0  0  0  0  0  0  0  0  0  0  0  0
   59.4391   34.4254   43.6201 H   0  0  0  0  0  0  0  0  0  0  0  0
   57.7950   30.8600   44.4880 N   0  0  0  0  0  0  0  0  0  0  0  0
   57.8690   30.3830   45.4130 H   0  0  0  0  0  0  0  0  0  0  0  0
   60.0330   26.9620   45.8570 C   0  0  0  0  0  0  0  0  0  0  0  0
   60.7774   27.4843   45.2380 H   0  0  0  0  0  0  0  0  0  0  0  0
   59.8028   25.9811   45.4156 H   0  0  0  0  0  0  0  0  0  0  0  0
   60.5980   26.7590   47.2670 C   0  0  0  0  0  0  0  0  0  0  0  0
   61.5803   26.2691   47.1959 H   0  0  0  0  0  0  0  0  0  0  0  0
   59.9009   26.1315   47.8417 H   0  0  0  0  0  0  0  0  0  0  0  0
  1  2  1  0
  2  3  2  0
  3  4  1  0
  4  5  2  0
  5  6  1  0
  5  7  1  0
  7  8  1  0
  8  9  1  0
  8 10  1  0
  8 11  1  0
 11 12  1  0
 11 13  1  0
 11 14  1  0
  7 15  1  0
 15 16  2  0
 16 17  1  0
 16 18  1  0
 18 19  1  0
 18 20  2  0
 20 21  1  0
 20 22  1  0
 22 23  1  0
 22 24  2  0
  3 25  1  0
 25 26  2  0
 25 27  1  0
 27 28  1  0
 28 29  1  0
 28 30  1  0
 28 31  1  0
 31 32  2  0
 31 33  1  0
 33 34  2  0
 34 35  1  0
 35 36  1  0
 36 37  1  0
 36 38  2  0
 38 39  1  0
 39 40  2  0
 40 41  1  0
 40 42  1  0
 42 43  1  0
 42 44  2  0
 44 45  1  0
 44 46  1  0
 46 47  1  0
 46 48  2  0
 48 49  1  0
 38 50  1  0
 50 51  1  0
 27 52  1  0
 52 53  1  0
 52 54  1  0
 52 55  1  0
 55 56  1  0
 55 57  1  0
 55  2  1  0
 24  4  1  0
 50 34  1  0
 24 15  1  0
 48 39  1  0
M  END
>  <UniqueID>  (37) 
34

>  <SMILES>  (37) 
CCn1cc(C2=CCCN(CC(=O)/N=c3/[nH]c(-c4ccccc4)co3)C2=O)c2ccccc21

>  <Energy>  (37) 
134.15740716388544

>  <Genealogy>  (37) 
CCn1cc(C2=CCCN(CC(=O)/N=c3/[nH]c(-c4ccccc4)co3)C2=O)c2ccccc21 (cis-trans isomerization)
CCn1cc(C2=CCCN(CC(=O)/N=c3/[nH]c(-c4ccccc4)co3)C2=O)c2ccccc21 (3D coordinates assigned)
CCn1cc(C2=CCCN(CC(=O)/N=c3/[nH]c(-c4ccccc4)co3)C2=O)c2ccccc21 (nonaromatic ring conformer: 134.15740716388544 kcal/mol)

>  <smiles>  (37) 
CCn1cc(C2=CCCN(CC(=O)N=c3[nH]c(-c4ccccc4)co3)C2=O)c2ccccc21

>  <score_type>  (37) 
oracle

>  <origin>  (37) 
adg

>  <m_score__min__energy>  (37) 
-10.26

>  <m_primary>  (37) 
energy

$$$$
37:0
     RDKit          3D

 38 40  0  0  0  0  0  0  0  0999 V2000
   54.0290   26.2960   46.4120 H   0  0  0  0  0  0  0  0  0  0  0  0
   54.9330   26.4360   45.9780 O   0  0  0  0  0  0  0  0  0  0  0  0
   56.0030   25.6020   46.2850 C   0  0  0  0  0  0  0  0  0  0  0  0
   55.9190   24.5500   47.1160 N   0  0  0  0  0  0  0  0  0  0  0  0
   57.1780   24.0660   47.1070 C   0  0  0  0  0  0  0  0  0  0  0  0
   57.5220   23.0580   47.7780 O   0  0  0  0  0  0  0  0  0  0  0  0
   58.0410   24.7490   46.3260 N   0  0  0  0  0  0  0  0  0  0  0  0
   57.2830   25.7260   45.7950 C   0  0  0  0  0  0  0  0  0  0  0  0
   57.7530   26.7960   44.8870 C   0  0  0  0  0  0  0  0  0  0  0  0
   57.7611   26.5730   43.8099 H   0  0  0  0  0  0  0  0  0  0  0  0
   58.1730   28.0230   45.2660 C   0  0  0  0  0  0  0  0  0  0  0  0
   59.3790   28.3470   45.8760 C   0  0  0  0  0  0  0  0  0  0  0  0
   60.1803   27.6474   46.1561 H   0  0  0  0  0  0  0  0  0  0  0  0
   59.3790   29.7130   46.0630 C   0  0  0  0  0  0  0  0  0  0  0  0
   60.5110   30.4900   46.6630 C   0  0  0  0  0  0  0  0  0  0  0  0
   60.4456   30.4451   47.7601 H   0  0  0  0  0  0  0  0  0  0  0  0
   61.4675   30.0572   46.3347 H   0  0  0  0  0  0  0  0  0  0  0  0
   60.4509   31.5381   46.3347 H   0  0  0  0  0  0  0  0  0  0  0  0
   58.2310   30.2550   45.6000 N   0  0  0  0  0  0  0  0  0  0  0  0
   57.9090   31.6590   45.6150 C   0  0  0  0  0  0  0  0  0  0  0  0
   57.0520   32.1020   44.8040 O   0  0  0  0  0  0  0  0  0  0  0  0
   58.5270   32.5970   46.5780 C   0  0  0  0  0  0  0  0  0  0  0  0
   58.4570   32.2810   47.9010 N   0  0  0  0  0  0  0  0  0  0  0  0
   59.0170   33.0530   48.8670 C   0  0  0  0  0  0  0  0  0  0  0  0
   58.9310   32.7603   49.9238 H   0  0  0  0  0  0  0  0  0  0  0  0
   59.7000   34.2150   48.5200 C   0  0  0  0  0  0  0  0  0  0  0  0
   60.1734   34.8341   49.2963 H   0  0  0  0  0  0  0  0  0  0  0  0
   59.7780   34.5860   47.1790 C   0  0  0  0  0  0  0  0  0  0  0  0
   60.3165   35.5026   46.8964 H   0  0  0  0  0  0  0  0  0  0  0  0
   59.1740   33.7980   46.1860 C   0  0  0  0  0  0  0  0  0  0  0  0
   59.2250   34.2680   44.7570 C   0  0  0  0  0  0  0  0  0  0  0  0
   59.3436   35.3614   44.7346 H   0  0  0  0  0  0  0  0  0  0  0  0
   60.0772   33.7962   44.2460 H   0  0  0  0  0  0  0  0  0  0  0  0
   58.2914   33.9900   44.2460 H   0  0  0  0  0  0  0  0  0  0  0  0
   57.4900   29.2350   45.0920 C   0  0  0  0  0  0  0  0  0  0  0  0
   56.3030   29.4000   44.4830 C   0  0  0  0  0  0  0  0  0  0  0  0
   55.8599   30.4038   44.4045 H   0  0  0  0  0  0  0  0  0  0  0  0
   55.7748   28.5313   44.0632 H   0  0  0  0  0  0  0  0  0  0  0  0
  1  2  1  0
  2  3  1  0
  3  4  1  0
  4  5  1  0
  5  6  2  0
  5  7  1  0
  7  8  1  0
  8  9  1  0
  9 10  1  0
  9 11  2  0
 11 12  1  0
 12 13  1  0
 12 14  2  0
 14 15  1  0
 15 16  1  0
 15 17  1  0
 15 18  1  0
 14 19  1  0
 19 20  1  0
 20 21  2  0
 20 22  1  0
 22 23  2  0
 23 24  1  0
 24 25  1  0
 24 26  2  0
 26 27  1  0
 26 28  1  0
 28 29  1  0
 28 30  2  0
 30 31  1  0
 31 32  1  0
 31 33  1  0
 31 34  1  0
 19 35  1  0
 35 36  2  0
 36 37  1  0
 36 38  1  0
  8  3  2  0
 35 11  1  0
 30 22  1  0
M  CHG  2   4  -1   7  -1
M  END
>  <UniqueID>  (38) 
35

>  <SMILES>  (38) 
C=c1/c(=C/c2[n-]c(=O)[n-]c2O)cc(C)n1C(=O)c1ncccc1C

>  <Energy>  (38) 
110.81384110201411

>  <Genealogy>  (38) 
C=c1c(=Cc2[n-]c(=O)[n-]c2O)cc(C)n1C(=O)c1ncccc1C (protonated)
C=c1/c(=C/c2[n-]c(=O)[n-]c2O)cc(C)n1C(=O)c1ncccc1C (cis-trans isomerization)
C=c1/c(=C/c2[n-]c(=O)[n-]c2O)cc(C)n1C(=O)c1ncccc1C (3D coordinates assigned)
C=c1/c(=C/c2[n-]c(=O)[n-]c2O)cc(C)n1C(=O)c1ncccc1C (optimized conformer: 110.81384110201411 kcal/mol)

>  <smiles>  (38) 
C=c1c(=Cc2[nH]c(=O)[nH]c2O)cc(C)n1C(=O)c1ncccc1C

>  <score_type>  (38) 
oracle

>  <origin>  (38) 
adg

>  <m_score__min__energy>  (38) 
-12.93

>  <m_primary>  (38) 
energy

$$$$
38:0
     RDKit          3D

 68 72  0  0  0  0  0  0  0  0999 V2000
   58.3160   31.6140   49.1860 O   0  0  0  0  0  0  0  0  0  0  0  0
   59.5290   31.4300   48.8970 C   0  0  0  0  0  0  0  0  0  0  0  0
   59.9060   30.4080   47.9630 N   0  0  0  0  0  0  0  0  0  0  0  0
   59.0760   29.3530   47.4520 C   0  0  0  0  0  0  0  0  0  0  0  0
   58.1990   29.6440   46.4020 C   0  0  0  0  0  0  0  0  0  0  0  0
   57.3830   28.6480   45.8610 C   0  0  0  0  0  0  0  0  0  0  0  0
   57.4090   27.3460   46.3860 C   0  0  0  0  0  0  0  0  0  0  0  0
   56.5890   26.2750   45.7810 C   0  0  0  0  0  0  0  0  0  0  0  0
   57.1360   25.4290   45.0240 O   0  0  0  0  0  0  0  0  0  0  0  0
   55.1790   26.1810   46.0140 N   0  0  0  0  0  0  0  0  0  0  0  0
   54.3510   25.0430   45.6200 C   0  0  0  0  0  0  0  0  0  0  0  0
   54.9290   23.7370   46.1800 C   0  0  0  0  0  0  0  0  0  0  0  0
   55.7400   23.0090   45.1380 C   0  0  0  0  0  0  0  0  0  0  0  0
   56.6290   21.9890   45.5170 C   0  0  0  0  0  0  0  0  0  0  0  0
   57.3390   21.2740   44.5460 C   0  0  0  0  0  0  0  0  0  0  0  0
   57.1570   21.5620   43.1900 C   0  0  0  0  0  0  0  0  0  0  0  0
   56.2710   22.5720   42.8050 C   0  0  0  0  0  0  0  0  0  0  0  0
   55.5660   23.2960   43.7730 C   0  0  0  0  0  0  0  0  0  0  0  0
   58.2750   27.0560   47.4530 C   0  0  0  0  0  0  0  0  0  0  0  0
   59.0950   28.0550   47.9910 C   0  0  0  0  0  0  0  0  0  0  0  0
   60.5790   32.2260   49.5720 C   0  0  0  0  0  0  0  0  0  0  0  0
   61.4260   31.6930   50.4390 C   0  0  0  0  0  0  0  0  0  0  0  0
   62.5860   32.8130   51.1940 S   0  0  0  0  0  0  0  0  0  0  0  0
   61.9360   34.1900   50.1900 C   0  0  0  0  0  0  0  0  0  0  0  0
   60.7270   33.7030   49.3740 C   0  0  1  0  0  0  0  0  0  0  0  0
   60.8090   34.1240   47.9160 C   0  0  0  0  0  0  0  0  0  0  0  0
   61.9540   34.4200   47.4760 O   0  0  0  0  0  0  0  0  0  0  0  0
   59.6670   34.1640   47.0160 N   0  0  0  0  0  0  0  0  0  0  0  0
   58.3140   33.7590   47.4440 C   0  0  0  0  0  0  0  0  0  0  0  0
   57.3270   33.6990   46.2700 C   0  0  0  0  0  0  0  0  0  0  0  0
   57.9680   33.0740   45.1020 N   0  0  0  0  0  0  0  0  0  0  0  0
   57.3170   32.0030   44.3840 C   0  0  0  0  0  0  0  0  0  0  0  0
   56.2780   31.4610   44.8550 O   0  0  0  0  0  0  0  0  0  0  0  0
   57.8830   31.4880   43.0870 C   0  0  0  0  0  0  0  0  0  0  0  0
   57.4650   32.3090   41.8730 C   0  0  0  0  0  0  0  0  0  0  0  0
   56.8800   30.9230   42.0900 C   0  0  0  0  0  0  0  0  0  0  0  0
   59.2860   33.5610   44.6650 C   0  0  0  0  0  0  0  0  0  0  0  0
   59.8470   34.6140   45.6240 C   0  0  0  0  0  0  0  0  0  0  0  0
   58.1516   30.6663   45.9988 H   0  0  0  0  0  0  0  0  0  0  0  0
   56.7162   28.8849   45.0188 H   0  0  0  0  0  0  0  0  0  0  0  0
   53.3323   25.1845   46.0103 H   0  0  0  0  0  0  0  0  0  0  0  0
   54.3318   24.9809   44.5219 H   0  0  0  0  0  0  0  0  0  0  0  0
   55.5750   23.9699   47.0394 H   0  0  0  0  0  0  0  0  0  0  0  0
   54.0941   23.0897   46.4867 H   0  0  0  0  0  0  0  0  0  0  0  0
   56.7675   21.7514   46.5821 H   0  0  0  0  0  0  0  0  0  0  0  0
   58.0415   20.4840   44.8501 H   0  0  0  0  0  0  0  0  0  0  0  0
   57.7103   20.9945   42.4273 H   0  0  0  0  0  0  0  0  0  0  0  0
   56.1275   22.7984   41.7382 H   0  0  0  0  0  0  0  0  0  0  0  0
   54.8731   24.0927   43.4646 H   0  0  0  0  0  0  0  0  0  0  0  0
   58.3092   26.0380   47.8684 H   0  0  0  0  0  0  0  0  0  0  0  0
   59.7566   27.8233   48.8387 H   0  0  0  0  0  0  0  0  0  0  0  0
   61.4137   30.6196   50.6791 H   0  0  0  0  0  0  0  0  0  0  0  0
   61.6247   35.0115   50.8520 H   0  0  0  0  0  0  0  0  0  0  0  0
   62.7201   34.5473   49.5062 H   0  0  0  0  0  0  0  0  0  0  0  0
   59.8105   34.1884   49.7406 H   0  0  0  0  0  0  0  0  0  0  0  0
   58.3727   32.7636   47.9084 H   0  0  0  0  0  0  0  0  0  0  0  0
   57.9459   34.5124   48.1559 H   0  0  0  0  0  0  0  0  0  0  0  0
   56.4482   33.1061   46.5634 H   0  0  0  0  0  0  0  0  0  0  0  0
   57.0178   34.7213   46.0069 H   0  0  0  0  0  0  0  0  0  0  0  0
   58.8280   31.1200   43.5130 H   0  0  0  0  0  0  0  0  0  0  0  0
   56.8323   33.1994   42.0027 H   0  0  0  0  0  0  0  0  0  0  0  0
   57.9985   32.8078   41.0505 H   0  0  0  0  0  0  0  0  0  0  0  0
   55.8239   30.8108   42.3764 H   0  0  0  0  0  0  0  0  0  0  0  0
   56.8151   30.0040   41.4890 H   0  0  0  0  0  0  0  0  0  0  0  0
   59.9833   32.7114   44.6209 H   0  0  0  0  0  0  0  0  0  0  0  0
   59.1687   34.0264   43.6752 H   0  0  0  0  0  0  0  0  0  0  0  0
   60.9186   34.7586   45.4221 H   0  0  0  0  0  0  0  0  0  0  0  0
   59.3119   35.5636   45.4760 H   0  0  0  0  0  0  0  0  0  0  0  0
  1  2  2  0
  2  3  1  0
  3  4  1  0
  4  5  2  0
  5  6  1  0
  6  7  2  0
  7  8  1  0
  8  9  2  0
  8 10  1  0
 10 11  1  0
 11 12  1  0
 12 13  1  0
 13 14  2  0
 14 15  1  0
 15 16  2  0
 16 17  1  0
 17 18  2  0
  7 19  1  0
 19 20  2  0
  2 21  1  0
 21 22  2  0
 22 23  1  0
 23 24  1  0
 24 25  1  0
 25 26  1  0
 26 27  2  0
 26 28  1  0
 28 29  1  0
 29 30  1  0
 30 31  1  0
 31 32  1  0
 32 33  2  0
 32 34  1  0
 34 35  1  0
 35 36  1  0
 31 37  1  0
 37 38  1  0
 20  4  1  0
 25 21  1  0
 38 28  1  0
 18 13  1  0
 36 34  1  0
  5 39  1  0
  6 40  1  0
 11 41  1  0
 11 42  1  0
 12 43  1  0
 12 44  1  0
 14 45  1  0
 15 46  1  0
 16 47  1  0
 17 48  1  0
 18 49  1  0
 19 50  1  0
 20 51  1  0
 22 52  1  0
 24 53  1  0
 24 54  1  0
 25 55  1  1
 29 56  1  0
 29 57  1  0
 30 58  1  0
 30 59  1  0
 34 60  1  0
 35 61  1  0
 35 62  1  0
 36 63  1  0
 36 64  1  0
 37 65  1  0
 37 66  1  0
 38 67  1  0
 38 68  1  0
M  CHG  2   3  -1  10  -1
M  END
>  <UniqueID>  (39) 
36

>  <SMILES>  (39) 
O=C([N-]c1ccc(C(=O)[N-]CCc2ccccc2)cc1)C1=CSC[C@H]1C(=O)N1CCN(C(=O)C2CC2)CC1

>  <Energy>  (39) 
349.5874844599409

>  <Genealogy>  (39) 
O=C([N-]c1ccc(C(=O)[N-]CCc2ccccc2)cc1)C1=CSCC1C(=O)N1CCN(C(=O)C2CC2)CC1 (protonated)
O=C([N-]c1ccc(C(=O)[N-]CCc2ccccc2)cc1)C1=CSC[C@H]1C(=O)N1CCN(C(=O)C2CC2)CC1 (chirality)
O=C([N-]c1ccc(C(=O)[N-]CCc2ccccc2)cc1)C1=CSC[C@H]1C(=O)N1CCN(C(=O)C2CC2)CC1 (3D coordinates assigned)
O=C([N-]c1ccc(C(=O)[N-]CCc2ccccc2)cc1)C1=CSC[C@H]1C(=O)N1CCN(C(=O)C2CC2)CC1 (nonaromatic ring conformer: 349.5874844599409 kcal/mol)

>  <smiles>  (39) 
O=C(Nc1ccc(C(=O)NCCc2ccccc2)cc1)C1=CSCC1C(=O)N1CCN(C(=O)C2CC2)CC1

>  <score_type>  (39) 
oracle

>  <origin>  (39) 
adg

>  <m_score__min__energy>  (39) 
-13.529999999999999

>  <m_primary>  (39) 
energy

$$$$
39:0
     RDKit          3D

 44 46  0  0  0  0  0  0  0  0999 V2000
   56.5890   21.0000   48.7150 C   0  0  0  0  0  0  0  0  0  0  0  0
   55.9590   22.1380   48.4290 C   0  0  0  0  0  0  0  0  0  0  0  0
   56.5660   23.2200   47.6300 C   0  0  0  0  0  0  0  0  0  0  0  0
   57.6960   23.0200   47.1080 O   0  0  0  0  0  0  0  0  0  0  0  0
   55.8800   24.4610   47.3980 N   0  0  0  0  0  0  0  0  0  0  0  0
   56.5390   25.6390   46.9040 C   0  0  0  0  0  0  0  0  0  0  0  0
   57.8890   25.8510   47.2200 C   0  0  0  0  0  0  0  0  0  0  0  0
   58.5670   26.9800   46.7390 C   0  0  0  0  0  0  0  0  0  0  0  0
   60.2710   27.2270   47.1310 S   0  0  0  0  0  0  0  0  0  0  0  0
   61.1200   26.6650   46.0260 O   0  0  0  0  0  0  0  0  0  0  0  0
   60.6010   26.4830   48.3960 O   0  0  0  0  0  0  0  0  0  0  0  0
   60.6420   28.9230   47.3390 N   0  0  0  0  0  0  0  0  0  0  0  0
   59.6610   29.5570   48.2470 C   0  0  0  0  0  0  0  0  0  0  0  0
   59.6880   31.0840   48.1170 C   0  0  0  0  0  0  0  0  0  0  0  0
   59.2690   31.5340   46.6960 C   0  0  0  0  0  0  0  0  0  0  0  0
   59.5830   30.4470   45.6390 C   0  0  0  0  0  0  0  0  0  0  0  0
   60.8110   29.6110   46.0350 C   0  0  0  0  0  0  0  0  0  0  0  0
   59.9840   32.7080   46.3680 O   0  0  0  0  0  0  0  0  0  0  0  0
   59.0390   33.7270   46.2930 C   0  0  0  0  0  0  0  0  0  0  0  0
   57.7090   33.0540   46.1740 C   0  0  0  0  0  0  0  0  0  0  0  0
   57.8750   31.7720   46.6890 O   0  0  0  0  0  0  0  0  0  0  0  0
   57.8860   27.9030   45.9350 C   0  0  0  0  0  0  0  0  0  0  0  0
   56.5500   27.6870   45.5940 C   0  0  0  0  0  0  0  0  0  0  0  0
   55.8770   26.5550   46.0620 C   0  0  0  0  0  0  0  0  0  0  0  0
   54.5630   26.3350   45.6630 O   0  0  0  0  0  0  0  0  0  0  0  0
   56.0852   20.2284   49.3158 H   0  0  0  0  0  0  0  0  0  0  0  0
   57.6131   20.8317   48.3505 H   0  0  0  0  0  0  0  0  0  0  0  0
   54.9356   22.2783   48.8071 H   0  0  0  0  0  0  0  0  0  0  0  0
   54.8350   24.4590   47.4080 H   0  0  0  0  0  0  0  0  0  0  0  0
   58.4211   25.1243   47.8515 H   0  0  0  0  0  0  0  0  0  0  0  0
   58.6535   29.1937   47.9960 H   0  0  0  0  0  0  0  0  0  0  0  0
   59.9236   29.2918   49.2818 H   0  0  0  0  0  0  0  0  0  0  0  0
   58.9927   31.5186   48.8503 H   0  0  0  0  0  0  0  0  0  0  0  0
   60.7153   31.4306   48.3027 H   0  0  0  0  0  0  0  0  0  0  0  0
   58.7132   29.7805   45.5430 H   0  0  0  0  0  0  0  0  0  0  0  0
   59.8010   30.9480   44.6843 H   0  0  0  0  0  0  0  0  0  0  0  0
   60.9855   28.8527   45.2575 H   0  0  0  0  0  0  0  0  0  0  0  0
   61.6633   30.2997   46.1318 H   0  0  0  0  0  0  0  0  0  0  0  0
   59.0731   34.3464   47.2014 H   0  0  0  0  0  0  0  0  0  0  0  0
   59.2311   34.3898   45.4364 H   0  0  0  0  0  0  0  0  0  0  0  0
   56.9511   33.6022   46.7528 H   0  0  0  0  0  0  0  0  0  0  0  0
   57.3666   33.0249   45.1290 H   0  0  0  0  0  0  0  0  0  0  0  0
   58.4061   28.8014   45.5711 H   0  0  0  0  0  0  0  0  0  0  0  0
   56.0243   28.4109   44.9540 H   0  0  0  0  0  0  0  0  0  0  0  0
  1  2  2  0
  2  3  1  0
  3  4  2  0
  3  5  1  0
  5  6  1  0
  6  7  2  0
  7  8  1  0
  8  9  1  0
  9 10  2  0
  9 11  2  0
  9 12  1  0
 12 13  1  0
 13 14  1  0
 14 15  1  0
 15 16  1  0
 16 17  1  0
 15 18  1  0
 18 19  1  0
 19 20  1  0
 20 21  1  0
  8 22  2  0
 22 23  1  0
 23 24  2  0
 24 25  1  0
 24  6  1  0
 17 12  1  0
 21 15  1  0
  1 26  1  0
  1 27  1  0
  2 28  1  0
  5 29  1  0
  7 30  1  0
 13 31  1  0
 13 32  1  0
 14 33  1  0
 14 34  1  0
 16 35  1  0
 16 36  1  0
 17 37  1  0
 17 38  1  0
 19 39  1  0
 19 40  1  0
 20 41  1  0
 20 42  1  0
 22 43  1  0
 23 44  1  0
M  CHG  1  25  -1
M  END
>  <UniqueID>  (40) 
37

>  <SMILES>  (40) 
C=CC(=O)Nc1cc(S(=O)(=O)N2CCC3(CC2)OCCO3)ccc1[O-]

>  <Energy>  (40) 
50.685322565636845

>  <Genealogy>  (40) 
C=CC(=O)Nc1cc(S(=O)(=O)N2CCC3(CC2)OCCO3)ccc1[O-] (protonated)
C=CC(=O)Nc1cc(S(=O)(=O)N2CCC3(CC2)OCCO3)ccc1[O-] (3D coordinates assigned)
C=CC(=O)Nc1cc(S(=O)(=O)N2CCC3(CC2)OCCO3)ccc1[O-] (nonaromatic ring conformer: 50.685322565636845 kcal/mol)

>  <smiles>  (40) 
C=CC(=O)Nc1cc(S(=O)(=O)N2CCC3(CC2)OCCO3)ccc1O

>  <score_type>  (40) 
oracle

>  <origin>  (40) 
adg

>  <m_score__min__energy>  (40) 
-10.890000000000001

>  <m_primary>  (40) 
energy

$$$$
40:0
     RDKit          3D

 66 69  0  0  0  0  0  0  0  0999 V2000
   58.2500   34.6140   44.8150 C   0  0  0  0  0  0  0  0  0  0  0  0
   57.9340   33.1420   44.8350 C   0  0  0  0  0  0  0  0  0  0  0  0
   57.8020   32.4560   43.6150 C   0  0  0  0  0  0  0  0  0  0  0  0
   57.5450   31.0870   43.5980 C   0  0  0  0  0  0  0  0  0  0  0  0
   57.4280   30.4020   44.8050 C   0  0  0  0  0  0  0  0  0  0  0  0
   57.5440   31.0720   45.9810 N   0  0  0  0  0  0  0  0  0  0  0  0
   57.7750   32.4140   46.0440 C   0  0  0  0  0  0  0  0  0  0  0  0
   57.8390   33.0670   47.4140 C   0  0  0  0  0  0  0  0  0  0  0  0
   59.2030   33.4880   47.8110 N   0  0  0  0  0  0  0  0  0  0  0  0
   59.4880   34.8870   47.4390 C   0  0  0  0  0  0  0  0  0  0  0  0
   59.5010   33.2170   49.2340 C   0  0  0  0  0  0  0  0  0  0  0  0
   58.8940   31.9140   49.6530 C   0  0  0  0  0  0  0  0  0  0  0  0
   57.7230   31.8960   50.1190 O   0  0  0  0  0  0  0  0  0  0  0  0
   59.6120   30.7070   49.3840 N   0  0  0  0  0  0  0  0  0  0  0  0
   59.7170   29.9560   48.1640 C   0  0  0  0  0  0  0  0  0  0  0  0
   58.8470   28.8930   47.8540 C   0  0  0  0  0  0  0  0  0  0  0  0
   58.9790   28.1970   46.6450 C   0  0  0  0  0  0  0  0  0  0  0  0
   57.8550   26.8970   46.2390 S   0  0  0  0  0  0  0  0  0  0  0  0
   56.5980   27.5040   45.6780 O   0  0  0  0  0  0  0  0  0  0  0  0
   57.4820   26.1710   47.5010 O   0  0  0  0  0  0  0  0  0  0  0  0
   58.4990   25.7500   45.0840 N   0  0  0  0  0  0  0  0  0  0  0  0
   57.6640   25.5960   43.8770 C   0  0  0  0  0  0  0  0  0  0  0  0
   56.6330   24.4640   44.0050 C   0  0  0  0  0  0  0  0  0  0  0  0
   57.2510   23.2620   44.4100 O   0  0  0  0  0  0  0  0  0  0  0  0
   57.7860   23.4340   45.7050 C   0  0  0  0  0  0  0  0  0  0  0  0
   58.9150   24.4740   45.6920 C   0  0  0  0  0  0  0  0  0  0  0  0
   59.9720   28.5740   45.7320 C   0  0  0  0  0  0  0  0  0  0  0  0
   60.8440   29.6180   46.0340 C   0  0  0  0  0  0  0  0  0  0  0  0
   60.7320   30.3030   47.2520 C   0  0  0  0  0  0  0  0  0  0  0  0
   61.6410   31.3710   47.5490 N   0  0  0  0  0  0  0  0  0  0  0  0
   61.7530   32.5730   46.7430 C   0  0  0  0  0  0  0  0  0  0  0  0
   62.6650   33.5040   47.5340 C   0  0  0  0  0  0  0  0  0  0  0  0
   63.3760   32.6200   48.5580 C   0  0  0  0  0  0  0  0  0  0  0  0
   62.5020   31.3810   48.7170 C   0  0  0  0  0  0  0  0  0  0  0  0
   58.3298   34.9859   45.8471 H   0  0  0  0  0  0  0  0  0  0  0  0
   59.2036   34.7772   44.2916 H   0  0  0  0  0  0  0  0  0  0  0  0
   57.4474   35.1542   44.2916 H   0  0  0  0  0  0  0  0  0  0  0  0
   57.9024   33.0044   42.6667 H   0  0  0  0  0  0  0  0  0  0  0  0
   57.4357   30.5532   42.6424 H   0  0  0  0  0  0  0  0  0  0  0  0
   57.2416   29.3179   44.8060 H   0  0  0  0  0  0  0  0  0  0  0  0
   57.1902   33.9552   47.4058 H   0  0  0  0  0  0  0  0  0  0  0  0
   57.5102   32.3132   48.1446 H   0  0  0  0  0  0  0  0  0  0  0  0
   59.6110   35.4909   48.3501 H   0  0  0  0  0  0  0  0  0  0  0  0
   60.4128   34.9273   46.8448 H   0  0  0  0  0  0  0  0  0  0  0  0
   58.6527   35.2859   46.8448 H   0  0  0  0  0  0  0  0  0  0  0  0
   60.5911   33.1712   49.3741 H   0  0  0  0  0  0  0  0  0  0  0  0
   59.0756   34.0240   49.8487 H   0  0  0  0  0  0  0  0  0  0  0  0
   58.0585   28.6071   48.5657 H   0  0  0  0  0  0  0  0  0  0  0  0
   57.1286   26.5400   43.6976 H   0  0  0  0  0  0  0  0  0  0  0  0
   58.3334   25.3406   43.0423 H   0  0  0  0  0  0  0  0  0  0  0  0
   55.8765   24.7489   44.7510 H   0  0  0  0  0  0  0  0  0  0  0  0
   56.1639   24.3039   43.0230 H   0  0  0  0  0  0  0  0  0  0  0  0
   56.9892   23.7745   46.3826 H   0  0  0  0  0  0  0  0  0  0  0  0
   58.1948   22.4726   46.0493 H   0  0  0  0  0  0  0  0  0  0  0  0
   59.2321   24.6636   46.7281 H   0  0  0  0  0  0  0  0  0  0  0  0
   59.7377   24.0671   45.0857 H   0  0  0  0  0  0  0  0  0  0  0  0
   60.0638   28.0437   44.7726 H   0  0  0  0  0  0  0  0  0  0  0  0
   61.6237   29.9060   45.3135 H   0  0  0  0  0  0  0  0  0  0  0  0
   62.1961   32.3402   45.7635 H   0  0  0  0  0  0  0  0  0  0  0  0
   60.7712   33.0290   46.5478 H   0  0  0  0  0  0  0  0  0  0  0  0
   63.3972   33.9813   46.8661 H   0  0  0  0  0  0  0  0  0  0  0  0
   62.0964   34.3101   48.0207 H   0  0  0  0  0  0  0  0  0  0  0  0
   64.3752   32.3394   48.1934 H   0  0  0  0  0  0  0  0  0  0  0  0
   63.5150   33.1424   49.5160 H   0  0  0  0  0  0  0  0  0  0  0  0
   63.1219   30.4728   48.7472 H   0  0  0  0  0  0  0  0  0  0  0  0
   61.9249   31.4020   49.6533 H   0  0  0  0  0  0  0  0  0  0  0  0
  1  2  1  0
  2  3  2  0
  3  4  1  0
  4  5  2  0
  5  6  1  0
  6  7  2  0
  7  8  1  0
  8  9  1  0
  9 10  1  0
  9 11  1  0
 11 12  1  0
 12 13  2  0
 12 14  1  0
 14 15  1  0
 15 16  2  0
 16 17  1  0
 17 18  1  0
 18 19  2  0
 18 20  2  0
 18 21  1  0
 21 22  1  0
 22 23  1  0
 23 24  1  0
 24 25  1  0
 25 26  1  0
 17 27  2  0
 27 28  1  0
 28 29  2  0
 29 30  1  0
 30 31  1  0
 31 32  1  0
 32 33  1  0
 33 34  1  0
  7  2  1  0
 29 15  1  0
 34 30  1  0
 26 21  1  0
  1 35  1  0
  1 36  1  0
  1 37  1  0
  3 38  1  0
  4 39  1  0
  5 40  1  0
  8 41  1  0
  8 42  1  0
 10 43  1  0
 10 44  1  0
 10 45  1  0
 11 46  1  0
 11 47  1  0
 16 48  1  0
 22 49  1  0
 22 50  1  0
 23 51  1  0
 23 52  1  0
 25 53  1  0
 25 54  1  0
 26 55  1  0
 26 56  1  0
 27 57  1  0
 28 58  1  0
 31 59  1  0
 31 60  1  0
 32 61  1  0
 32 62  1  0
 33 63  1  0
 33 64  1  0
 34 65  1  0
 34 66  1  0
M  CHG  1  14  -1
M  END
>  <UniqueID>  (41) 
38

>  <SMILES>  (41) 
Cc1cccnc1CN(C)CC(=O)[N-]c1cc(S(=O)(=O)N2CCOCC2)ccc1N1CCCC1

>  <Energy>  (41) 
86.08921731640665

>  <Genealogy>  (41) 
Cc1cccnc1CN(C)CC(=O)[N-]c1cc(S(=O)(=O)N2CCOCC2)ccc1N1CCCC1 (protonated)
Cc1cccnc1CN(C)CC(=O)[N-]c1cc(S(=O)(=O)N2CCOCC2)ccc1N1CCCC1 (3D coordinates assigned)
Cc1cccnc1CN(C)CC(=O)[N-]c1cc(S(=O)(=O)N2CCOCC2)ccc1N1CCCC1 (nonaromatic ring conformer: 86.08921731640665 kcal/mol)

>  <smiles>  (41) 
Cc1cccnc1CN(C)CC(=O)Nc1cc(S(=O)(=O)N2CCOCC2)ccc1N1CCCC1

>  <score_type>  (41) 
oracle

>  <origin>  (41) 
adg

>  <m_score__min__energy>  (41) 
-11.380000000000001

>  <m_primary>  (41) 
energy

$$$$
41:0
     RDKit          3D

 50 53  0  0  0  0  0  0  0  0999 V2000
   54.6190   26.3300   45.9740 N   0  0  0  0  0  0  0  0  0  0  0  0
   54.7320   24.9700   45.5590 C   0  0  0  0  0  0  0  0  0  0  0  0
   53.6830   24.3060   45.3430 O   0  0  0  0  0  0  0  0  0  0  0  0
   56.0680   24.3600   45.3490 C   0  0  0  0  0  0  0  0  0  0  0  0
   56.1620   22.9620   45.2060 C   0  0  0  0  0  0  0  0  0  0  0  0
   57.4070   22.3380   45.0990 C   0  0  0  0  0  0  0  0  0  0  0  0
   58.5750   23.0950   45.1370 C   0  0  0  0  0  0  0  0  0  0  0  0
   58.5050   24.4830   45.2620 C   0  0  0  0  0  0  0  0  0  0  0  0
   57.2610   25.1300   45.3430 C   0  0  0  0  0  0  0  0  0  0  0  0
   57.2400   26.5640   45.3960 N   0  0  0  0  0  0  0  0  0  0  0  0
   58.2650   27.3170   46.0650 C   0  0  0  0  0  0  0  0  0  0  0  0
   59.1130   26.7160   46.7820 O   0  0  0  0  0  0  0  0  0  0  0  0
   58.3340   28.7920   45.9380 C   0  0  0  0  0  0  0  0  0  0  0  0
   58.5930   29.5910   47.0780 C   0  0  0  0  0  0  0  0  0  0  0  0
   58.6700   30.9890   46.9690 C   0  0  0  0  0  0  0  0  0  0  0  0
   58.5210   31.5700   45.7100 C   0  0  0  0  0  0  0  0  0  0  0  0
   58.2420   30.8110   44.6090 C   0  0  0  0  0  0  0  0  0  0  0  0
   58.1520   29.4200   44.6850 C   0  0  0  0  0  0  0  0  0  0  0  0
   58.0250   31.6770   43.4160 C   0  0  0  0  0  0  0  0  0  0  0  0
   58.1700   33.1100   43.9830 C   0  0  0  0  0  0  0  0  0  0  0  0
   58.5240   32.9520   45.3940 N   0  0  0  0  0  0  0  0  0  0  0  0
   58.9810   34.0340   46.2180 C   0  0  0  0  0  0  0  0  0  0  0  0
   58.1610   34.6040   46.9870 O   0  0  0  0  0  0  0  0  0  0  0  0
   60.3610   34.6130   46.0420 C   0  0  0  0  0  0  0  0  0  0  0  0
   61.4070   33.8190   46.7860 C   0  0  0  0  0  0  0  0  0  0  0  0
   62.7540   33.8530   46.3850 C   0  0  0  0  0  0  0  0  0  0  0  0
   63.7160   33.1110   47.0770 C   0  0  0  0  0  0  0  0  0  0  0  0
   63.3450   32.3360   48.1790 C   0  0  0  0  0  0  0  0  0  0  0  0
   62.0110   32.3070   48.5940 C   0  0  0  0  0  0  0  0  0  0  0  0
   61.0460   33.0460   47.9040 C   0  0  0  0  0  0  0  0  0  0  0  0
   53.7300   26.6950   46.3810 H   0  0  0  0  0  0  0  0  0  0  0  0
   55.2450   22.3550   45.1783 H   0  0  0  0  0  0  0  0  0  0  0  0
   57.4649   21.2455   44.9844 H   0  0  0  0  0  0  0  0  0  0  0  0
   59.5541   22.5983   45.0684 H   0  0  0  0  0  0  0  0  0  0  0  0
   59.4314   25.0751   45.2974 H   0  0  0  0  0  0  0  0  0  0  0  0
   56.3410   27.0440   45.1650 H   0  0  0  0  0  0  0  0  0  0  0  0
   58.7352   29.1122   48.0581 H   0  0  0  0  0  0  0  0  0  0  0  0
   58.8442   31.6127   47.8582 H   0  0  0  0  0  0  0  0  0  0  0  0
   57.9430   28.8229   43.7851 H   0  0  0  0  0  0  0  0  0  0  0  0
   58.7832   31.4805   42.6436 H   0  0  0  0  0  0  0  0  0  0  0  0
   57.0537   31.5034   42.9298 H   0  0  0  0  0  0  0  0  0  0  0  0
   58.9629   33.6540   43.4487 H   0  0  0  0  0  0  0  0  0  0  0  0
   57.2409   33.6865   43.8630 H   0  0  0  0  0  0  0  0  0  0  0  0
   60.6115   34.6143   44.9709 H   0  0  0  0  0  0  0  0  0  0  0  0
   60.3554   35.6342   46.4508 H   0  0  0  0  0  0  0  0  0  0  0  0
   63.0527   34.4666   45.5223 H   0  0  0  0  0  0  0  0  0  0  0  0
   64.7670   33.1374   46.7533 H   0  0  0  0  0  0  0  0  0  0  0  0
   64.1025   31.7492   48.7193 H   0  0  0  0  0  0  0  0  0  0  0  0
   61.7199   31.7016   49.4651 H   0  0  0  0  0  0  0  0  0  0  0  0
   59.9980   33.0229   48.2374 H   0  0  0  0  0  0  0  0  0  0  0  0
  1  2  1  0
  2  3  2  0
  2  4  1  0
  4  5  2  0
  5  6  1  0
  6  7  2  0
  7  8  1  0
  8  9  2  0
  9 10  1  0
 10 11  1  0
 11 12  2  0
 11 13  1  0
 13 14  2  0
 14 15  1  0
 15 16  2  0
 16 17  1  0
 17 18  2  0
 17 19  1  0
 19 20  1  0
 20 21  1  0
 21 22  1  0
 22 23  2  0
 22 24  1  0
 24 25  1  0
 25 26  2  0
 26 27  1  0
 27 28  2  0
 28 29  1  0
 29 30  2  0
  9  4  1  0
 18 13  1  0
 30 25  1  0
 21 16  1  0
  1 31  1  0
  5 32  1  0
  6 33  1  0
  7 34  1  0
  8 35  1  0
 10 36  1  0
 14 37  1  0
 15 38  1  0
 18 39  1  0
 19 40  1  0
 19 41  1  0
 20 42  1  0
 20 43  1  0
 24 44  1  0
 24 45  1  0
 26 46  1  0
 27 47  1  0
 28 48  1  0
 29 49  1  0
 30 50  1  0
M  CHG  1   1  -1
M  END
>  <UniqueID>  (42) 
39

>  <SMILES>  (42) 
[NH-]C(=O)c1ccccc1NC(=O)c1ccc2c(c1)CCN2C(=O)Cc1ccccc1

>  <Energy>  (42) 
83.47440176911186

>  <Genealogy>  (42) 
[NH-]C(=O)c1ccccc1NC(=O)c1ccc2c(c1)CCN2C(=O)Cc1ccccc1 (protonated)
[NH-]C(=O)c1ccccc1NC(=O)c1ccc2c(c1)CCN2C(=O)Cc1ccccc1 (3D coordinates assigned)
[NH-]C(=O)c1ccccc1NC(=O)c1ccc2c(c1)CCN2C(=O)Cc1ccccc1 (nonaromatic ring conformer: 83.47440176911186 kcal/mol)

>  <smiles>  (42) 
NC(=O)c1ccccc1NC(=O)c1ccc2c(c1)CCN2C(=O)Cc1ccccc1

>  <score_type>  (42) 
oracle

>  <origin>  (42) 
adg

>  <m_score__min__energy>  (42) 
-13.529999999999999

>  <m_primary>  (42) 
energy

$$$$
42:0
     RDKit          3D

 44 46  0  0  0  0  0  0  0  0999 V2000
   61.3700   28.6020   50.7960 C   0  0  0  0  0  0  0  0  0  0  0  0
   60.3540   29.6950   50.8130 C   0  0  0  0  0  0  0  0  0  0  0  0
   60.6850   30.9360   50.3660 N   0  0  0  0  0  0  0  0  0  0  0  0
   59.7710   31.9440   50.3360 C   0  0  0  0  0  0  0  0  0  0  0  0
   60.1950   33.3100   49.8420 C   0  0  1  0  0  0  0  0  0  0  0  0
   61.6030   33.3220   49.2420 C   0  0  0  0  0  0  0  0  0  0  0  0
   61.4230   33.8040   47.8100 C   0  0  0  0  0  0  0  0  0  0  0  0
   60.1480   34.5270   47.7670 N   0  0  1  0  0  0  0  0  0  0  0  0
   59.5940   34.5520   46.4260 C   0  0  0  0  0  0  0  0  0  0  0  0
   59.6620   35.6090   45.7360 O   0  0  0  0  0  0  0  0  0  0  0  0
   58.9010   33.3710   45.8500 C   0  0  0  0  0  0  0  0  0  0  0  0
   59.3700   32.0630   46.0750 C   0  0  0  0  0  0  0  0  0  0  0  0
   58.6960   30.9650   45.5300 C   0  0  0  0  0  0  0  0  0  0  0  0
   57.5410   31.1540   44.7640 C   0  0  0  0  0  0  0  0  0  0  0  0
   56.7050   29.7710   44.0650 S   0  0  0  0  0  0  0  0  0  0  0  0
   57.7900   28.3620   44.0700 C   0  0  0  0  0  0  0  0  0  0  0  0
   56.2940   30.0840   42.6540 O   0  0  0  0  0  0  0  0  0  0  0  0
   55.4740   29.4600   44.8690 O   0  0  0  0  0  0  0  0  0  0  0  0
   57.0650   32.4510   44.5400 C   0  0  0  0  0  0  0  0  0  0  0  0
   57.7350   33.5510   45.0840 C   0  0  0  0  0  0  0  0  0  0  0  0
   59.2770   33.8530   48.7410 C   0  0  0  0  0  0  0  0  0  0  0  0
   58.4610   31.6930   50.7700 C   0  0  0  0  0  0  0  0  0  0  0  0
   58.1360   30.4100   51.2120 C   0  0  0  0  0  0  0  0  0  0  0  0
   56.9680   30.1500   51.6010 O   0  0  0  0  0  0  0  0  0  0  0  0
   59.0830   29.4370   51.2210 N   0  0  0  0  0  0  0  0  0  0  0  0
   61.6277   28.3248   51.8288 H   0  0  0  0  0  0  0  0  0  0  0  0
   60.9578   27.7263   50.2733 H   0  0  0  0  0  0  0  0  0  0  0  0
   62.2734   28.9493   50.2733 H   0  0  0  0  0  0  0  0  0  0  0  0
   60.1478   33.9340   50.7466 H   0  0  0  0  0  0  0  0  0  0  0  0
   62.2547   34.0094   49.8012 H   0  0  0  0  0  0  0  0  0  0  0  0
   62.0765   32.3301   49.2852 H   0  0  0  0  0  0  0  0  0  0  0  0
   62.2487   34.4741   47.5287 H   0  0  0  0  0  0  0  0  0  0  0  0
   61.4236   32.9597   47.1049 H   0  0  0  0  0  0  0  0  0  0  0  0
   60.3000   35.5030   48.1140 H   0  0  0  0  0  0  0  0  0  0  0  0
   60.2724   31.9032   46.6834 H   0  0  0  0  0  0  0  0  0  0  0  0
   59.0763   29.9477   45.7047 H   0  0  0  0  0  0  0  0  0  0  0  0
   58.0119   28.0738   45.1081 H   0  0  0  0  0  0  0  0  0  0  0  0
   57.3030   27.5224   43.5525 H   0  0  0  0  0  0  0  0  0  0  0  0
   58.7262   28.6183   43.5525 H   0  0  0  0  0  0  0  0  0  0  0  0
   56.1603   32.6055   43.9336 H   0  0  0  0  0  0  0  0  0  0  0  0
   57.3470   34.5658   44.9115 H   0  0  0  0  0  0  0  0  0  0  0  0
   58.5564   34.5678   49.1651 H   0  0  0  0  0  0  0  0  0  0  0  0
   58.7016   33.0439   48.2675 H   0  0  0  0  0  0  0  0  0  0  0  0
   57.7048   32.4918   50.7621 H   0  0  0  0  0  0  0  0  0  0  0  0
  1  2  1  0
  2  3  2  0
  3  4  1  0
  4  5  1  0
  5  6  1  0
  6  7  1  0
  7  8  1  0
  8  9  1  0
  9 10  2  0
  9 11  1  0
 11 12  2  0
 12 13  1  0
 13 14  2  0
 14 15  1  0
 15 16  1  0
 15 17  2  0
 15 18  2  0
 14 19  1  0
 19 20  2  0
  8 21  1  0
  4 22  2  0
 22 23  1  0
 23 24  2  0
 23 25  1  0
 25  2  1  0
 21  5  1  0
 20 11  1  0
  1 26  1  0
  1 27  1  0
  1 28  1  0
  5 29  1  1
  6 30  1  0
  6 31  1  0
  7 32  1  0
  7 33  1  0
  8 34  1  1
 12 35  1  0
 13 36  1  0
 16 37  1  0
 16 38  1  0
 16 39  1  0
 19 40  1  0
 20 41  1  0
 21 42  1  0
 21 43  1  0
 22 44  1  0
M  CHG  2   8   1  25  -1
M  END
>  <UniqueID>  (43) 
40

>  <SMILES>  (43) 
Cc1nc([C@H]2CC[N@@H+](C(=O)c3ccc(S(C)(=O)=O)cc3)C2)cc(=O)[n-]1

>  <Energy>  (43) 
51.91844758687516

>  <Genealogy>  (43) 
Cc1nc(C2CC[NH+](C(=O)c3ccc(S(C)(=O)=O)cc3)C2)cc(=O)[n-]1 (protonated)
Cc1nc([C@H]2CC[N@@H+](C(=O)c3ccc(S(C)(=O)=O)cc3)C2)cc(=O)[n-]1 (chirality)
Cc1nc([C@H]2CC[N@@H+](C(=O)c3ccc(S(C)(=O)=O)cc3)C2)cc(=O)[n-]1 (3D coordinates assigned)
Cc1nc([C@H]2CC[N@@H+](C(=O)c3ccc(S(C)(=O)=O)cc3)C2)cc(=O)[n-]1 (nonaromatic ring conformer: 51.91844758687516 kcal/mol)

>  <smiles>  (43) 
Cc1nc(C2CCN(C(=O)c3ccc(S(C)(=O)=O)cc3)C2)cc(=O)[nH]1

>  <score_type>  (43) 
oracle

>  <origin>  (43) 
adg

>  <m_score__min__energy>  (43) 
-8.2699999999999996

>  <m_primary>  (43) 
energy

$$$$
43:0
     RDKit          3D

 41 43  0  0  1  0  0  0  0  0999 V2000
   55.7650   26.0580   46.1520 N   0  0  0  0  0  0  0  0  0  0  0  0
   56.8930   29.2500   45.1450 C   0  0  0  0  0  0  0  0  0  0  0  0
   56.0990   28.1650   45.3000 N   0  0  0  0  0  0  0  0  0  0  0  0
   56.5170   27.0970   45.9990 C   0  0  0  0  0  0  0  0  0  0  0  0
   56.4220   30.1950   44.4810 O   0  0  0  0  0  0  0  0  0  0  0  0
   58.1180   29.3610   45.6480 N   0  0  0  0  0  0  0  0  0  0  0  0
   59.0010   30.4670   45.5230 C   0  0  1  0  0  0  0  0  0  0  0  0
   58.2560   31.7960   45.7170 C   0  0  0  0  0  0  0  0  0  0  0  0
   59.3000   32.8870   46.0100 C   0  0  0  0  0  0  0  0  0  0  0  0
   59.6880   32.6460   47.4280 C   0  0  2  0  0  0  0  0  0  0  0  0
   60.3310   33.6990   48.1210 N   0  0  0  0  0  0  0  0  0  0  0  0
   61.6120   33.8110   48.0990 C   0  0  0  0  0  0  0  0  0  0  0  0
   62.5880   33.8050   47.0080 C   0  0  0  0  0  0  0  0  0  0  0  0
   63.9060   33.4740   47.6900 C   0  0  0  0  0  0  0  0  0  0  0  0
   63.6560   33.3670   49.1580 C   0  0  0  0  0  0  0  0  0  0  0  0
   62.3650   33.9830   49.3170 N   0  0  0  0  0  0  0  0  0  0  0  0
   60.3410   31.2940   47.5170 C   0  0  0  0  0  0  0  0  0  0  0  0
   60.2750   30.5030   46.2250 C   0  0  0  0  0  0  0  0  0  0  0  0
   58.5720   28.2870   46.3650 C   0  0  0  0  0  0  0  0  0  0  0  0
   57.7850   27.1690   46.5400 C   0  0  0  0  0  0  0  0  0  0  0  0
   58.2490   26.1200   47.2510 F   0  0  0  0  0  0  0  0  0  0  0  0
   55.5240   25.8040   47.1310 H   0  0  0  0  0  0  0  0  0  0  0  0
   55.1460   28.1480   44.8760 H   0  0  0  0  0  0  0  0  0  0  0  0
   59.3432   30.3017   44.4907 H   0  0  0  0  0  0  0  0  0  0  0  0
   57.5564   31.7121   46.5617 H   0  0  0  0  0  0  0  0  0  0  0  0
   57.6825   32.0484   44.8129 H   0  0  0  0  0  0  0  0  0  0  0  0
   58.8623   33.8890   45.8897 H   0  0  0  0  0  0  0  0  0  0  0  0
   60.1588   32.8451   45.3240 H   0  0  0  0  0  0  0  0  0  0  0  0
   58.7622   32.6357   48.0220 H   0  0  0  0  0  0  0  0  0  0  0  0
   62.3326   33.0399   46.2600 H   0  0  0  0  0  0  0  0  0  0  0  0
   62.6217   34.7622   46.4670 H   0  0  0  0  0  0  0  0  0  0  0  0
   64.2938   32.5184   47.3074 H   0  0  0  0  0  0  0  0  0  0  0  0
   64.6478   34.2604   47.4866 H   0  0  0  0  0  0  0  0  0  0  0  0
   63.6334   32.3150   49.4787 H   0  0  0  0  0  0  0  0  0  0  0  0
   64.4395   33.8440   49.7651 H   0  0  0  0  0  0  0  0  0  0  0  0
   62.0460   34.4750   50.1970 H   0  0  0  0  0  0  0  0  0  0  0  0
   59.8372   30.7155   48.3053 H   0  0  0  0  0  0  0  0  0  0  0  0
   61.4052   31.4631   47.7383 H   0  0  0  0  0  0  0  0  0  0  0  0
   60.5509   29.4645   46.4602 H   0  0  0  0  0  0  0  0  0  0  0  0
   60.9572   31.0280   45.5402 H   0  0  0  0  0  0  0  0  0  0  0  0
   59.5786   28.3165   46.8076 H   0  0  0  0  0  0  0  0  0  0  0  0
  1  2  2  3
  2  3  1  0
  3  4  1  0
  4  5  2  0
  4  6  1  0
  6  7  1  0
  7  8  1  0
  8  9  1  0
  9 10  1  0
 10 11  1  0
 11 12  2  0
 12 13  1  0
 13 14  1  0
 14 15  1  0
 15 16  1  0
 10 17  1  0
 17 18  1  0
  6 19  1  0
 19 20  2  0
 20 21  1  0
 20  2  1  0
 18  7  1  0
 16 12  1  0
  1 22  1  0
  3 23  1  0
  7 24  1  6
  8 25  1  0
  8 26  1  0
  9 27  1  0
  9 28  1  0
 10 29  1  1
 13 30  1  0
 13 31  1  0
 14 32  1  0
 14 33  1  0
 15 34  1  0
 15 35  1  0
 16 36  1  0
 17 37  1  0
 17 38  1  0
 18 39  1  0
 18 40  1  0
 19 41  1  0
M  END
>  <smiles>  (44) 
N=c1[nH]c(=O)n(C2CCC(N=C3CCCN3)CC2)cc1F

>  <score_type>  (44) 
oracle

>  <origin>  (44) 
adg

>  <m_score__min__energy>  (44) 
-8.1199999999999992

>  <m_primary>  (44) 
energy

$$$$
44:0
     RDKit          3D

 53 56  0  0  0  0  0  0  0  0999 V2000
   56.5840   28.2040   44.9340 N   0  0  0  0  0  0  0  0  0  0  0  0
   56.9830   29.0710   43.8680 C   0  0  0  0  0  0  0  0  0  0  0  0
   57.0210   28.6150   42.6940 O   0  0  0  0  0  0  0  0  0  0  0  0
   57.3360   30.4890   44.1150 C   0  0  0  0  0  0  0  0  0  0  0  0
   57.6150   31.3410   43.0320 C   0  0  0  0  0  0  0  0  0  0  0  0
   57.9420   32.6810   43.2490 C   0  0  0  0  0  0  0  0  0  0  0  0
   58.0140   33.1860   44.5480 C   0  0  0  0  0  0  0  0  0  0  0  0
   57.7720   32.3460   45.6440 C   0  0  0  0  0  0  0  0  0  0  0  0
   57.8440   32.8870   47.0430 C   0  0  0  0  0  0  0  0  0  0  0  0
   58.9500   32.2540   47.7520 N   0  0  0  0  0  0  0  0  0  0  0  0
   58.9100   30.9210   48.2730 C   0  0  0  0  0  0  0  0  0  0  0  0
   58.5180   30.7380   49.4550 O   0  0  0  0  0  0  0  0  0  0  0  0
   59.2830   29.7570   47.4500 C   0  0  0  0  0  0  0  0  0  0  0  0
   58.8340   28.4780   47.8130 C   0  0  0  0  0  0  0  0  0  0  0  0
   59.1550   27.3600   47.0260 C   0  0  0  0  0  0  0  0  0  0  0  0
   58.6820   25.9870   47.4250 C   0  0  0  0  0  0  0  0  0  0  0  0
   57.4470   25.6130   46.6380 C   0  0  0  0  0  0  0  0  0  0  0  0
   56.3550   26.4070   46.7830 N   0  0  0  0  0  0  0  0  0  0  0  0
   55.1950   26.1360   46.1900 N   0  0  0  0  0  0  0  0  0  0  0  0
   55.0310   25.0330   45.4210 C   0  0  0  0  0  0  0  0  0  0  0  0
   53.9120   24.8180   44.8820 O   0  0  0  0  0  0  0  0  0  0  0  0
   56.1020   24.1480   45.2340 C   0  0  0  0  0  0  0  0  0  0  0  0
   57.3580   24.4620   45.8120 C   0  0  0  0  0  0  0  0  0  0  0  0
   58.5570   23.5460   45.6120 C   0  0  0  0  0  0  0  0  0  0  0  0
   58.3690   22.5130   44.4960 C   0  0  0  0  0  0  0  0  0  0  0  0
   56.9910   21.8710   44.5860 C   0  0  0  0  0  0  0  0  0  0  0  0
   55.9120   22.9270   44.3560 C   0  0  0  0  0  0  0  0  0  0  0  0
   59.9600   27.5290   45.8880 C   0  0  0  0  0  0  0  0  0  0  0  0
   60.4320   28.7970   45.5400 C   0  0  0  0  0  0  0  0  0  0  0  0
   60.0990   29.9090   46.3170 C   0  0  0  0  0  0  0  0  0  0  0  0
   60.6000   31.1260   45.9840 F   0  0  0  0  0  0  0  0  0  0  0  0
   57.4210   31.0030   45.4230 C   0  0  0  0  0  0  0  0  0  0  0  0
   56.3860   27.1960   44.7390 H   0  0  0  0  0  0  0  0  0  0  0  0
   56.3810   28.5680   45.8900 H   0  0  0  0  0  0  0  0  0  0  0  0
   57.5754   30.9487   42.0051 H   0  0  0  0  0  0  0  0  0  0  0  0
   58.1437   33.3413   42.3926 H   0  0  0  0  0  0  0  0  0  0  0  0
   58.2611   34.2452   44.7122 H   0  0  0  0  0  0  0  0  0  0  0  0
   58.0054   33.9745   47.0078 H   0  0  0  0  0  0  0  0  0  0  0  0
   56.9013   32.6733   47.5680 H   0  0  0  0  0  0  0  0  0  0  0  0
   58.2261   28.3501   48.7208 H   0  0  0  0  0  0  0  0  0  0  0  0
   59.4778   25.2551   47.2224 H   0  0  0  0  0  0  0  0  0  0  0  0
   58.4382   25.9882   48.4976 H   0  0  0  0  0  0  0  0  0  0  0  0
   59.4305   24.1675   45.3653 H   0  0  0  0  0  0  0  0  0  0  0  0
   58.6897   22.9843   46.5484 H   0  0  0  0  0  0  0  0  0  0  0  0
   58.4725   23.0115   43.5209 H   0  0  0  0  0  0  0  0  0  0  0  0
   59.1330   21.7293   44.6060 H   0  0  0  0  0  0  0  0  0  0  0  0
   56.9031   21.0863   43.8202 H   0  0  0  0  0  0  0  0  0  0  0  0
   56.8604   21.4301   45.5853 H   0  0  0  0  0  0  0  0  0  0  0  0
   55.9440   23.2411   43.3023 H   0  0  0  0  0  0  0  0  0  0  0  0
   54.9418   22.4767   44.6130 H   0  0  0  0  0  0  0  0  0  0  0  0
   60.2202   26.6588   45.2675 H   0  0  0  0  0  0  0  0  0  0  0  0
   61.0681   28.9201   44.6510 H   0  0  0  0  0  0  0  0  0  0  0  0
   57.2106   30.3470   46.2806 H   0  0  0  0  0  0  0  0  0  0  0  0
  1  2  1  0
  2  3  2  0
  2  4  1  0
  4  5  2  0
  5  6  1  0
  6  7  2  0
  7  8  1  0
  8  9  1  0
  9 10  1  0
 10 11  1  0
 11 12  2  0
 11 13  1  0
 13 14  2  0
 14 15  1  0
 15 16  1  0
 16 17  1  0
 17 18  2  0
 18 19  1  0
 19 20  1  0
 20 21  2  0
 20 22  1  0
 22 23  2  0
 23 24  1  0
 24 25  1  0
 25 26  1  0
 26 27  1  0
 15 28  2  0
 28 29  1  0
 29 30  2  0
 30 31  1  0
  8 32  2  0
 32  4  1  0
 30 13  1  0
 23 17  1  0
 27 22  1  0
  1 33  1  0
  1 34  1  0
  5 35  1  0
  6 36  1  0
  7 37  1  0
  9 38  1  0
  9 39  1  0
 14 40  1  0
 16 41  1  0
 16 42  1  0
 24 43  1  0
 24 44  1  0
 25 45  1  0
 25 46  1  0
 26 47  1  0
 26 48  1  0
 27 49  1  0
 27 50  1  0
 28 51  1  0
 29 52  1  0
 32 53  1  0
M  CHG  2  10  -1  19  -1
M  END
>  <UniqueID>  (45) 
41

>  <SMILES>  (45) 
NC(=O)c1cccc(C[N-]C(=O)c2cc(Cc3n[n-]c(=O)c4c3CCCC4)ccc2F)c1

>  <Energy>  (45) 
65.43537058724556

>  <Genealogy>  (45) 
NC(=O)c1cccc(C[N-]C(=O)c2cc(Cc3n[n-]c(=O)c4c3CCCC4)ccc2F)c1 (protonated)
NC(=O)c1cccc(C[N-]C(=O)c2cc(Cc3n[n-]c(=O)c4c3CCCC4)ccc2F)c1 (3D coordinates assigned)
NC(=O)c1cccc(C[N-]C(=O)c2cc(Cc3n[n-]c(=O)c4c3CCCC4)ccc2F)c1 (nonaromatic ring conformer: 65.43537058724556 kcal/mol)

>  <smiles>  (45) 
NC(=O)c1cccc(CNC(=O)c2cc(Cc3n[nH]c(=O)c4c3CCCC4)ccc2F)c1

>  <score_type>  (45) 
oracle

>  <origin>  (45) 
adg

>  <m_score__min__energy>  (45) 
-13.35

>  <m_primary>  (45) 
energy

$$$$
45:0
     RDKit          3D

 41 43  0  0  0  0  0  0  0  0999 V2000
   52.9175   28.6003   53.5939 H   0  0  0  0  0  0  0  0  0  0  0  0
   53.2990   29.5950   53.3200 C   0  0  0  0  0  0  0  0  0  0  0  0
   54.3500   30.0660   53.9230 N   0  0  0  0  0  0  0  0  0  0  0  0
   55.7210   29.9310   53.5060 C   0  0  0  0  0  0  0  0  0  0  0  0
   56.6220   29.0280   54.1050 C   0  0  0  0  0  0  0  0  0  0  0  0
   56.2890   28.3955   54.9411 H   0  0  0  0  0  0  0  0  0  0  0  0
   57.9340   28.9330   53.6420 C   0  0  0  0  0  0  0  0  0  0  0  0
   58.6286   28.2205   54.1108 H   0  0  0  0  0  0  0  0  0  0  0  0
   58.3710   29.7350   52.5890 C   0  0  0  0  0  0  0  0  0  0  0  0
   59.4068   29.6485   52.2290 H   0  0  0  0  0  0  0  0  0  0  0  0
   57.4960   30.6530   51.9850 C   0  0  0  0  0  0  0  0  0  0  0  0
   57.9490   31.4900   50.8510 C   0  0  0  0  0  0  0  0  0  0  0  0
   57.8490   32.7470   50.9140 O   0  0  0  0  0  0  0  0  0  0  0  0
   58.4990   30.8810   49.6790 N   0  0  0  0  0  0  0  0  0  0  0  0
   59.7400   31.3390   49.0670 C   0  0  0  0  0  0  0  0  0  0  0  0
   60.4181   31.7105   49.8494 H   0  0  0  0  0  0  0  0  0  0  0  0
   60.2140   30.5014   48.5343 H   0  0  0  0  0  0  0  0  0  0  0  0
   59.4470   32.4450   48.0940 C   0  0  0  0  0  0  0  0  0  0  0  0
   60.4920   33.2460   47.6030 C   0  0  0  0  0  0  0  0  0  0  0  0
   61.5235   33.0699   47.9420 H   0  0  0  0  0  0  0  0  0  0  0  0
   60.2250   34.2650   46.6860 C   0  0  0  0  0  0  0  0  0  0  0  0
   61.0455   34.8920   46.3072 H   0  0  0  0  0  0  0  0  0  0  0  0
   58.9160   34.4890   46.2490 C   0  0  0  0  0  0  0  0  0  0  0  0
   58.7099   35.2813   45.5143 H   0  0  0  0  0  0  0  0  0  0  0  0
   57.8690   33.7070   46.7450 C   0  0  0  0  0  0  0  0  0  0  0  0
   56.8374   33.8967   46.4135 H   0  0  0  0  0  0  0  0  0  0  0  0
   58.1300   32.6860   47.6600 C   0  0  0  0  0  0  0  0  0  0  0  0
   57.3044   32.0681   48.0429 H   0  0  0  0  0  0  0  0  0  0  0  0
   56.1720   30.7440   52.4570 C   0  0  0  0  0  0  0  0  0  0  0  0
   55.4810   31.4645   51.9951 H   0  0  0  0  0  0  0  0  0  0  0  0
   52.6090   30.3760   52.2720 C   0  0  0  0  0  0  0  0  0  0  0  0
   52.5900   29.9500   50.9280 C   0  0  0  0  0  0  0  0  0  0  0  0
   53.1040   29.0208   50.6410 H   0  0  0  0  0  0  0  0  0  0  0  0
   51.9200   30.7040   49.9570 C   0  0  0  0  0  0  0  0  0  0  0  0
   51.9099   30.3662   48.9102 H   0  0  0  0  0  0  0  0  0  0  0  0
   51.2640   31.8850   50.3150 C   0  0  0  0  0  0  0  0  0  0  0  0
   50.5990   32.6240   49.3440 O   0  0  0  0  0  0  0  0  0  0  0  0
   51.2850   32.3190   51.6470 C   0  0  0  0  0  0  0  0  0  0  0  0
   50.6360   33.4950   52.0090 O   0  0  0  0  0  0  0  0  0  0  0  0
   51.9550   31.5700   52.6220 C   0  0  0  0  0  0  0  0  0  0  0  0
   51.9696   31.9172   53.6657 H   0  0  0  0  0  0  0  0  0  0  0  0
  1  2  1  0
  2  3  2  0
  3  4  1  0
  4  5  2  0
  5  6  1  0
  5  7  1  0
  7  8  1  0
  7  9  2  0
  9 10  1  0
  9 11  1  0
 11 12  1  0
 12 13  2  0
 12 14  1  0
 14 15  1  0
 15 16  1  0
 15 17  1  0
 15 18  1  0
 18 19  2  0
 19 20  1  0
 19 21  1  0
 21 22  1  0
 21 23  2  0
 23 24  1  0
 23 25  1  0
 25 26  1  0
 25 27  2  0
 27 28  1  0
 11 29  2  0
 29 30  1  0
  2 31  1  0
 31 32  2  0
 32 33  1  0
 32 34  1  0
 34 35  1  0
 34 36  2  0
 36 37  1  0
 36 38  1  0
 38 39  1  0
 38 40  2  0
 40 41  1  0
 29  4  1  0
 40 31  1  0
 27 18  1  0
M  CHG  3  14  -1  37  -1  39  -1
M  END
>  <UniqueID>  (46) 
42

>  <SMILES>  (46) 
O=C([N-]Cc1ccccc1)c1cccc(/N=C/c2ccc([O-])c([O-])c2)c1

>  <Energy>  (46) 
45.9245018796844

>  <Genealogy>  (46) 
O=C([N-]Cc1ccccc1)c1cccc(N=Cc2ccc([O-])c([O-])c2)c1 (protonated)
O=C([N-]Cc1ccccc1)c1cccc(/N=C/c2ccc([O-])c([O-])c2)c1 (cis-trans isomerization)
O=C([N-]Cc1ccccc1)c1cccc(/N=C/c2ccc([O-])c([O-])c2)c1 (3D coordinates assigned)
O=C([N-]Cc1ccccc1)c1cccc(/N=C/c2ccc([O-])c([O-])c2)c1 (optimized conformer: 45.9245018796844 kcal/mol)

>  <smiles>  (46) 
O=C(NCc1ccccc1)c1cccc(N=Cc2ccc(O)c(O)c2)c1

>  <score_type>  (46) 
oracle

>  <origin>  (46) 
adg

>  <m_score__min__energy>  (46) 
-17.579999999999998

>  <m_primary>  (46) 
energy

$$$$
46:0
     RDKit          3D

 54 58  0  0  0  0  0  0  0  0999 V2000
   54.4930   28.2810   53.1650 C   0  0  0  0  0  0  0  0  0  0  0  0
   54.8280   29.5580   52.9190 C   0  0  0  0  0  0  0  0  0  0  0  0
   53.9880   30.5330   52.3570 C   0  0  0  0  0  0  0  0  0  0  0  0
   52.6550   30.5460   52.1560 C   0  0  0  0  0  0  0  0  0  0  0  0
   51.9800   30.9290   50.9050 C   0  0  0  0  0  0  0  0  0  0  0  0
   51.8640   30.1380   49.8220 N   0  0  0  0  0  0  0  0  0  0  0  0
   51.0660   30.8520   48.9990 C   0  0  0  0  0  0  0  0  0  0  0  0
   50.7320   30.4430   47.8560 O   0  0  0  0  0  0  0  0  0  0  0  0
   50.6450   32.0330   49.5010 N   0  0  0  0  0  0  0  0  0  0  0  0
   51.2220   32.0580   50.7130 C   0  0  0  0  0  0  0  0  0  0  0  0
   51.0540   33.0890   51.6280 O   0  0  0  0  0  0  0  0  0  0  0  0
   54.8000   31.5960   52.0190 C   0  0  0  0  0  0  0  0  0  0  0  0
   56.0720   31.2820   52.4460 C   0  0  0  0  0  0  0  0  0  0  0  0
   57.2430   32.1570   52.2250 C   0  0  0  0  0  0  0  0  0  0  0  0
   57.3990   33.1640   52.9680 O   0  0  0  0  0  0  0  0  0  0  0  0
   58.2330   31.8500   51.2200 N   0  0  0  0  0  0  0  0  0  0  0  0
   58.0330   30.7150   50.3030 C   0  0  0  0  0  0  0  0  0  0  0  0
   58.5990   31.0280   48.9210 C   0  0  0  0  0  0  0  0  0  0  0  0
   60.0380   31.4330   49.0400 C   0  0  0  0  0  0  0  0  0  0  0  0
   60.9590   31.0860   48.0380 C   0  0  0  0  0  0  0  0  0  0  0  0
   62.2930   31.4910   48.1410 C   0  0  0  0  0  0  0  0  0  0  0  0
   62.7100   32.2550   49.2330 C   0  0  0  0  0  0  0  0  0  0  0  0
   61.7950   32.6180   50.2250 C   0  0  0  0  0  0  0  0  0  0  0  0
   60.4550   32.2050   50.1390 C   0  0  0  0  0  0  0  0  0  0  0  0
   59.4680   32.6560   51.1910 C   0  0  0  0  0  0  0  0  0  0  0  0
   56.1000   30.0500   53.0180 N   0  0  0  0  0  0  0  0  0  0  0  0
   57.2980   29.4260   53.6270 C   0  0  0  0  0  0  0  0  0  0  0  0
   58.0170   30.3510   54.6130 C   0  0  0  0  0  0  0  0  0  0  0  0
   59.5020   30.2940   54.2600 C   0  0  0  0  0  0  0  0  0  0  0  0
   59.6760   29.1480   53.2700 C   0  0  0  0  0  0  0  0  0  0  0  0
   58.3280   28.9650   52.5940 C   0  0  0  0  0  0  0  0  0  0  0  0
   55.2291   27.5952   53.6099 H   0  0  0  0  0  0  0  0  0  0  0  0
   53.4825   27.9208   52.9216 H   0  0  0  0  0  0  0  0  0  0  0  0
   52.0166   30.2444   52.9995 H   0  0  0  0  0  0  0  0  0  0  0  0
   54.4908   32.5187   51.5062 H   0  0  0  0  0  0  0  0  0  0  0  0
   58.5430   29.8291   50.7093 H   0  0  0  0  0  0  0  0  0  0  0  0
   56.9537   30.5255   50.2071 H   0  0  0  0  0  0  0  0  0  0  0  0
   58.5229   30.1342   48.2844 H   0  0  0  0  0  0  0  0  0  0  0  0
   58.0259   31.8529   48.4726 H   0  0  0  0  0  0  0  0  0  0  0  0
   60.6301   30.4946   47.1708 H   0  0  0  0  0  0  0  0  0  0  0  0
   63.0150   31.2076   47.3610 H   0  0  0  0  0  0  0  0  0  0  0  0
   63.7604   32.5716   49.3125 H   0  0  0  0  0  0  0  0  0  0  0  0
   62.1256   33.2300   51.0772 H   0  0  0  0  0  0  0  0  0  0  0  0
   59.9526   32.5869   52.1761 H   0  0  0  0  0  0  0  0  0  0  0  0
   59.1768   33.6871   50.9420 H   0  0  0  0  0  0  0  0  0  0  0  0
   56.8947   28.5527   54.1606 H   0  0  0  0  0  0  0  0  0  0  0  0
   57.6417   31.3800   54.5110 H   0  0  0  0  0  0  0  0  0  0  0  0
   57.8436   30.0352   55.6523 H   0  0  0  0  0  0  0  0  0  0  0  0
   59.8188   31.2422   53.8011 H   0  0  0  0  0  0  0  0  0  0  0  0
   60.1155   30.1353   55.1591 H   0  0  0  0  0  0  0  0  0  0  0  0
   60.4451   29.4007   52.5253 H   0  0  0  0  0  0  0  0  0  0  0  0
   59.9996   28.2264   53.7759 H   0  0  0  0  0  0  0  0  0  0  0  0
   58.2652   29.5809   51.6847 H   0  0  0  0  0  0  0  0  0  0  0  0
   58.1613   27.9233   52.2824 H   0  0  0  0  0  0  0  0  0  0  0  0
  1  2  2  0
  2  3  1  0
  3  4  2  3
  4  5  1  0
  5  6  1  0
  6  7  1  0
  7  8  2  0
  7  9  1  0
  9 10  1  0
 10 11  1  0
  3 12  1  0
 12 13  2  0
 13 14  1  0
 14 15  2  0
 14 16  1  0
 16 17  1  0
 17 18  1  0
 18 19  1  0
 19 20  2  0
 20 21  1  0
 21 22  2  0
 22 23  1  0
 23 24  2  0
 24 25  1  0
 13 26  1  0
 26 27  1  0
 27 28  1  0
 28 29  1  0
 29 30  1  0
 30 31  1  0
 26  2  1  0
 31 27  1  0
 10  5  2  0
 25 16  1  0
 24 19  1  0
  1 32  1  0
  1 33  1  0
  4 34  1  0
 12 35  1  0
 17 36  1  0
 17 37  1  0
 18 38  1  0
 18 39  1  0
 20 40  1  0
 21 41  1  0
 22 42  1  0
 23 43  1  0
 25 44  1  0
 25 45  1  0
 27 46  1  0
 28 47  1  0
 28 48  1  0
 29 49  1  0
 29 50  1  0
 30 51  1  0
 30 52  1  0
 31 53  1  0
 31 54  1  0
M  CHG  3   6  -1   9  -1  11  -1
M  END
>  <UniqueID>  (47) 
43

>  <SMILES>  (47) 
C=c1c(=Cc2[n-]c(=O)[n-]c2[O-])cc(C(=O)N2CCc3ccccc3C2)n1C1CCCC1

>  <Energy>  (47) 
139.20493030529616

>  <Genealogy>  (47) 
C=c1c(=Cc2[n-]c(=O)[n-]c2[O-])cc(C(=O)N2CCc3ccccc3C2)n1C1CCCC1 (protonated)
C=c1c(=Cc2[n-]c(=O)[n-]c2[O-])cc(C(=O)N2CCc3ccccc3C2)n1C1CCCC1 (3D coordinates assigned)
C=c1c(=Cc2[n-]c(=O)[n-]c2[O-])cc(C(=O)N2CCc3ccccc3C2)n1C1CCCC1 (nonaromatic ring conformer: 139.20493030529616 kcal/mol)

>  <smiles>  (47) 
C=c1c(=Cc2[nH]c(=O)[nH]c2O)cc(C(=O)N2CCc3ccccc3C2)n1C1CCCC1

>  <score_type>  (47) 
oracle

>  <origin>  (47) 
adg

>  <m_score__min__energy>  (47) 
-17.629999999999999

>  <m_primary>  (47) 
energy

$$$$
47:0
     RDKit          3D

 70 73  0  0  0  0  0  0  0  0999 V2000
   58.4600   29.1560   52.6260 C   0  0  0  0  0  0  0  0  0  0  0  0
   57.0200   29.0130   52.3740 N   0  0  0  0  0  0  0  0  0  0  0  0
   56.4060   28.2010   53.4330 C   0  0  0  0  0  0  0  0  0  0  0  0
   56.2730   30.5950   52.3440 S   0  0  0  0  0  0  0  0  0  0  0  0
   55.6780   30.9010   53.6920 O   0  0  0  0  0  0  0  0  0  0  0  0
   55.1890   30.6260   51.3020 O   0  0  0  0  0  0  0  0  0  0  0  0
   57.4650   31.8280   51.9370 C   0  0  0  0  0  0  0  0  0  0  0  0
   57.6840   32.9080   52.8010 C   0  0  0  0  0  0  0  0  0  0  0  0
   58.6050   33.9030   52.4640 C   0  0  0  0  0  0  0  0  0  0  0  0
   59.3060   33.8300   51.2570 C   0  0  0  0  0  0  0  0  0  0  0  0
   59.1050   32.7520   50.3860 C   0  0  0  0  0  0  0  0  0  0  0  0
   59.8200   32.7150   49.1420 N   0  0  0  0  0  0  0  0  0  0  0  0
   59.8420   33.7690   48.1690 C   0  0  0  0  0  0  0  0  0  0  0  0
   60.3960   34.8610   48.4660 O   0  0  0  0  0  0  0  0  0  0  0  0
   59.2590   33.5860   46.8210 C   0  0  0  0  0  0  0  0  0  0  0  0
   59.7040   34.3680   45.7470 C   0  0  0  0  0  0  0  0  0  0  0  0
   59.1410   34.2050   44.4790 C   0  0  0  0  0  0  0  0  0  0  0  0
   58.1310   33.2580   44.2750 C   0  0  0  0  0  0  0  0  0  0  0  0
   57.6760   32.4720   45.3430 C   0  0  0  0  0  0  0  0  0  0  0  0
   56.6490   31.4890   45.1760 N   0  0  0  0  0  0  0  0  0  0  0  0
   56.9160   29.8180   44.7900 S   0  0  0  0  0  0  0  0  0  0  0  0
   57.5020   29.7360   43.4110 O   0  0  0  0  0  0  0  0  0  0  0  0
   55.6320   29.0410   44.8260 O   0  0  0  0  0  0  0  0  0  0  0  0
   58.0300   29.1280   45.9630 C   0  0  0  0  0  0  0  0  0  0  0  0
   57.7930   27.8540   46.4980 C   0  0  0  0  0  0  0  0  0  0  0  0
   58.6630   27.3170   47.4520 C   0  0  0  0  0  0  0  0  0  0  0  0
   59.7880   28.0400   47.8650 C   0  0  0  0  0  0  0  0  0  0  0  0
   60.6520   27.4870   48.8680 N   0  0  0  0  0  0  0  0  0  0  0  0
   60.8100   27.9880   50.2030 C   0  0  0  0  0  0  0  0  0  0  0  0
   60.1220   27.4770   51.1280 O   0  0  0  0  0  0  0  0  0  0  0  0
   61.8820   28.9800   50.5530 C   0  0  0  0  0  0  0  0  0  0  0  0
   61.2460   30.2250   50.9800 N   0  0  0  0  0  0  0  0  0  0  0  0
   62.4420   31.4740   51.1340 S   0  0  0  0  0  0  0  0  0  0  0  0
   63.7060   30.8890   51.6950 O   0  0  0  0  0  0  0  0  0  0  0  0
   61.9520   32.5450   52.0690 O   0  0  0  0  0  0  0  0  0  0  0  0
   62.7790   32.1540   49.5440 C   0  0  0  0  0  0  0  0  0  0  0  0
   62.6080   31.3830   48.3840 C   0  0  0  0  0  0  0  0  0  0  0  0
   62.8590   31.9430   47.1290 C   0  0  0  0  0  0  0  0  0  0  0  0
   63.2780   33.2730   47.0260 C   0  0  0  0  0  0  0  0  0  0  0  0
   63.4790   34.0350   48.1810 C   0  0  0  0  0  0  0  0  0  0  0  0
   63.2330   33.4790   49.4380 C   0  0  0  0  0  0  0  0  0  0  0  0
   60.0020   29.3330   47.3610 C   0  0  0  0  0  0  0  0  0  0  0  0
   59.1430   29.8640   46.3980 C   0  0  0  0  0  0  0  0  0  0  0  0
   58.2590   32.6230   46.6040 C   0  0  0  0  0  0  0  0  0  0  0  0
   58.1650   31.7590   50.7240 C   0  0  0  0  0  0  0  0  0  0  0  0
   58.6424   29.1741   53.7106 H   0  0  0  0  0  0  0  0  0  0  0  0
   58.9967   28.3067   52.1780 H   0  0  0  0  0  0  0  0  0  0  0  0
   58.8192   30.0942   52.1780 H   0  0  0  0  0  0  0  0  0  0  0  0
   56.7037   28.5947   54.4161 H   0  0  0  0  0  0  0  0  0  0  0  0
   55.3109   28.2418   53.3380 H   0  0  0  0  0  0  0  0  0  0  0  0
   56.7437   27.1584   53.3380 H   0  0  0  0  0  0  0  0  0  0  0  0
   57.1289   32.9732   53.7484 H   0  0  0  0  0  0  0  0  0  0  0  0
   58.7788   34.7453   53.1498 H   0  0  0  0  0  0  0  0  0  0  0  0
   60.0194   34.6235   50.9898 H   0  0  0  0  0  0  0  0  0  0  0  0
   60.4988   35.1123   45.9027 H   0  0  0  0  0  0  0  0  0  0  0  0
   59.4923   34.8223   43.6391 H   0  0  0  0  0  0  0  0  0  0  0  0
   57.6930   33.1300   43.2741 H   0  0  0  0  0  0  0  0  0  0  0  0
   56.9190   27.2744   46.1659 H   0  0  0  0  0  0  0  0  0  0  0  0
   58.4626   26.3233   47.8792 H   0  0  0  0  0  0  0  0  0  0  0  0
   62.5024   28.5821   51.3696 H   0  0  0  0  0  0  0  0  0  0  0  0
   62.5211   29.1663   49.6773 H   0  0  0  0  0  0  0  0  0  0  0  0
   62.2762   30.3372   48.4629 H   0  0  0  0  0  0  0  0  0  0  0  0
   62.7268   31.3368   46.2207 H   0  0  0  0  0  0  0  0  0  0  0  0
   63.4496   33.7201   46.0357 H   0  0  0  0  0  0  0  0  0  0  0  0
   63.8314   35.0738   48.0993 H   0  0  0  0  0  0  0  0  0  0  0  0
   63.3948   34.0789   50.3457 H   0  0  0  0  0  0  0  0  0  0  0  0
   60.8504   29.9299   47.7269 H   0  0  0  0  0  0  0  0  0  0  0  0
   59.3387   30.8620   45.9788 H   0  0  0  0  0  0  0  0  0  0  0  0
   57.9317   31.9813   47.4354 H   0  0  0  0  0  0  0  0  0  0  0  0
   57.9789   30.9243   50.0322 H   0  0  0  0  0  0  0  0  0  0  0  0
  1  2  1  0
  2  3  1  0
  2  4  1  0
  4  5  2  0
  4  6  2  0
  4  7  1  0
  7  8  2  0
  8  9  1  0
  9 10  2  0
 10 11  1  0
 11 12  1  0
 12 13  1  0
 13 14  2  0
 13 15  1  0
 15 16  2  0
 16 17  1  0
 17 18  2  0
 18 19  1  0
 19 20  1  0
 20 21  1  0
 21 22  2  0
 21 23  2  0
 21 24  1  0
 24 25  2  0
 25 26  1  0
 26 27  2  0
 27 28  1  0
 28 29  1  0
 29 30  2  0
 29 31  1  0
 31 32  1  0
 32 33  1  0
 33 34  2  0
 33 35  2  0
 33 36  1  0
 36 37  2  0
 37 38  1  0
 38 39  2  0
 39 40  1  0
 40 41  2  0
 27 42  1  0
 42 43  2  0
 19 44  2  0
 11 45  2  0
 45  7  1  0
 44 15  1  0
 43 24  1  0
 41 36  1  0
  1 46  1  0
  1 47  1  0
  1 48  1  0
  3 49  1  0
  3 50  1  0
  3 51  1  0
  8 52  1  0
  9 53  1  0
 10 54  1  0
 16 55  1  0
 17 56  1  0
 18 57  1  0
 25 58  1  0
 26 59  1  0
 31 60  1  0
 31 61  1  0
 37 62  1  0
 38 63  1  0
 39 64  1  0
 40 65  1  0
 41 66  1  0
 42 67  1  0
 43 68  1  0
 44 69  1  0
 45 70  1  0
M  CHG  4  12  -1  20  -1  28  -1  32  -1
M  END
>  <UniqueID>  (48) 
44

>  <SMILES>  (48) 
CN(C)S(=O)(=O)c1cccc([N-]C(=O)c2cccc([N-]S(=O)(=O)c3ccc([N-]C(=O)C[N-]S(=O)(=O)c4ccccc4)cc3)c2)c1

>  <Energy>  (48) 
76.22776642992605

>  <Genealogy>  (48) 
CN(C)S(=O)(=O)c1cccc([N-]C(=O)c2cccc([N-]S(=O)(=O)c3ccc([N-]C(=O)C[N-]S(=O)(=O)c4ccccc4)cc3)c2)c1 (protonated)
CN(C)S(=O)(=O)c1cccc([N-]C(=O)c2cccc([N-]S(=O)(=O)c3ccc([N-]C(=O)C[N-]S(=O)(=O)c4ccccc4)cc3)c2)c1 (3D coordinates assigned)
CN(C)S(=O)(=O)c1cccc([N-]C(=O)c2cccc([N-]S(=O)(=O)c3ccc([N-]C(=O)C[N-]S(=O)(=O)c4ccccc4)cc3)c2)c1 (optimized conformer: 76.22776642992605 kcal/mol)

>  <smiles>  (48) 
CN(C)S(=O)(=O)c1cccc(NC(=O)c2cccc(NS(=O)(=O)c3ccc(NC(=O)CNS(=O)(=O)c4ccccc4)cc3)c2)c1

>  <score_type>  (48) 
oracle

>  <origin>  (48) 
adg

>  <m_score__min__energy>  (48) 
-15.699999999999999

>  <m_primary>  (48) 
energy

$$$$
48:0
     RDKit          3D

 49 51  0  0  0  0  0  0  0  0999 V2000
   53.7810   26.7000   46.1030 H   0  0  0  0  0  0  0  0  0  0  0  0
   54.3540   25.9600   45.6370 N   0  0  0  0  0  0  0  0  0  0  0  0
   55.5710   25.7160   46.0030 C   0  0  0  0  0  0  0  0  0  0  0  0
   55.8490   24.6220   46.7640 N   0  0  0  0  0  0  0  0  0  0  0  0
   57.1150   24.3350   47.1650 C   0  0  0  0  0  0  0  0  0  0  0  0
   57.3065   23.4443   47.7815 H   0  0  0  0  0  0  0  0  0  0  0  0
   58.1730   25.1670   46.7970 C   0  0  0  0  0  0  0  0  0  0  0  0
   59.1980   24.9360   47.1226 H   0  0  0  0  0  0  0  0  0  0  0  0
   57.9210   26.3000   46.0090 C   0  0  0  0  0  0  0  0  0  0  0  0
   59.0420   27.2350   45.6350 C   0  0  0  0  0  0  0  0  0  0  0  0
   59.9965   26.6893   45.6681 H   0  0  0  0  0  0  0  0  0  0  0  0
   58.8643   27.6202   44.6201 H   0  0  0  0  0  0  0  0  0  0  0  0
   59.0960   28.3650   46.5740 N   0  0  0  0  0  0  0  0  0  0  0  0
   58.4480   29.5620   46.4720 C   0  0  0  0  0  0  0  0  0  0  0  0
   57.7140   30.0470   45.2850 C   0  0  0  0  0  0  0  0  0  0  0  0
   56.4750   29.8420   45.1840 O   0  0  0  0  0  0  0  0  0  0  0  0
   58.4120   30.7310   44.2360 N   0  0  0  0  0  0  0  0  0  0  0  0
   59.4340   30.9150   44.3480 H   0  0  0  0  0  0  0  0  0  0  0  0
   57.7130   31.2020   43.0400 C   0  0  0  0  0  0  0  0  0  0  0  0
   58.1091   30.6697   42.1626 H   0  0  0  0  0  0  0  0  0  0  0  0
   56.6389   31.0031   43.1696 H   0  0  0  0  0  0  0  0  0  0  0  0
   57.8990   32.7120   42.8320 C   0  0  0  0  0  0  0  0  0  0  0  0
   58.8157   32.8763   42.2466 H   0  0  0  0  0  0  0  0  0  0  0  0
   57.0082   33.0871   42.3069 H   0  0  0  0  0  0  0  0  0  0  0  0
   58.0160   33.4810   44.1520 C   0  0  0  0  0  0  0  0  0  0  0  0
   58.0667   34.5599   43.9435 H   0  0  0  0  0  0  0  0  0  0  0  0
   57.1370   33.2668   44.7777 H   0  0  0  0  0  0  0  0  0  0  0  0
   59.1860   33.0790   44.8350 O   0  0  0  0  0  0  0  0  0  0  0  0
   59.1150   33.5020   46.1800 C   0  0  0  0  0  0  0  0  0  0  0  0
   59.7179   32.8309   46.8094 H   0  0  0  0  0  0  0  0  0  0  0  0
   59.5042   34.5272   46.2669 H   0  0  0  0  0  0  0  0  0  0  0  0
   57.6660   33.4640   46.6380 C   0  0  0  0  0  0  0  0  0  0  0  0
   57.6289   33.4630   47.7374 H   0  0  0  0  0  0  0  0  0  0  0  0
   57.1368   34.3486   46.2540 H   0  0  0  0  0  0  0  0  0  0  0  0
   57.1839   32.5529   46.2540 H   0  0  0  0  0  0  0  0  0  0  0  0
   58.5780   30.2960   47.6480 C   0  0  0  0  0  0  0  0  0  0  0  0
   58.1653   31.2930   47.8615 H   0  0  0  0  0  0  0  0  0  0  0  0
   59.3320   29.5090   48.4850 C   0  0  0  0  0  0  0  0  0  0  0  0
   59.7570   29.7430   49.7910 C   0  0  0  0  0  0  0  0  0  0  0  0
   59.5069   30.6802   50.3098 H   0  0  0  0  0  0  0  0  0  0  0  0
   60.5160   28.7430   50.4250 C   0  0  0  0  0  0  0  0  0  0  0  0
   60.9620   28.9340   51.7270 O   0  0  0  0  0  0  0  0  0  0  0  0
   60.8250   27.5450   49.7440 C   0  0  0  0  0  0  0  0  0  0  0  0
   61.4185   26.7683   50.2484 H   0  0  0  0  0  0  0  0  0  0  0  0
   60.3800   27.3370   48.4260 C   0  0  0  0  0  0  0  0  0  0  0  0
   60.6153   26.4058   47.8898 H   0  0  0  0  0  0  0  0  0  0  0  0
   59.6290   28.3490   47.8160 C   0  0  0  0  0  0  0  0  0  0  0  0
   56.6040   26.5770   45.6150 C   0  0  0  0  0  0  0  0  0  0  0  0
   56.3841   27.4654   45.0048 H   0  0  0  0  0  0  0  0  0  0  0  0
  1  2  1  0
  2  3  2  0
  3  4  1  0
  4  5  1  0
  5  6  1  0
  5  7  2  0
  7  8  1  0
  7  9  1  0
  9 10  1  0
 10 11  1  0
 10 12  1  0
 10 13  1  0
 13 14  1  0
 14 15  1  0
 15 16  2  0
 15 17  1  0
 17 18  1  0
 17 19  1  0
 19 20  1  0
 19 21  1  0
 19 22  1  0
 22 23  1  0
 22 24  1  0
 22 25  1  0
 25 26  1  0
 25 27  1  0
 25 28  1  0
 28 29  1  0
 29 30  1  0
 29 31  1  0
 29 32  1  0
 32 33  1  0
 32 34  1  0
 32 35  1  0
 14 36  2  0
 36 37  1  0
 36 38  1  0
 38 39  2  0
 39 40  1  0
 39 41  1  0
 41 42  1  0
 41 43  2  0
 43 44  1  0
 43 45  1  0
 45 46  1  0
 45 47  2  0
  9 48  2  0
 48 49  1  0
 48  3  1  0
 47 13  1  0
 47 38  1  0
M  CHG  2   4  -1  42  -1
M  END
>  <UniqueID>  (49) 
45

>  <SMILES>  (49) 
[H]/N=c1/cc(Cn2c(C(=O)NCCCOCC)cc3cc([O-])ccc32)cc[n-]1

>  <Energy>  (49) 
77.99610711735413

>  <Genealogy>  (49) 
CCOCCCNC(=O)c1cc2cc([O-])ccc2n1Cc1cc[n-]c(=N)c1 (protonated)
[H]/N=c1/cc(Cn2c(C(=O)NCCCOCC)cc3cc([O-])ccc32)cc[n-]1 (cis-trans isomerization)
[H]/N=c1/cc(Cn2c(C(=O)NCCCOCC)cc3cc([O-])ccc32)cc[n-]1 (3D coordinates assigned)
[H]/N=c1/cc(Cn2c(C(=O)NCCCOCC)cc3cc([O-])ccc32)cc[n-]1 (optimized conformer: 77.99610711735413 kcal/mol)

>  <smiles>  (49) 
CCOCCCNC(=O)c1cc2cc(O)ccc2n1Cc1cc[nH]c(=N)c1

>  <score_type>  (49) 
oracle

>  <origin>  (49) 
adg

>  <m_score__min__energy>  (49) 
-10.06

>  <m_primary>  (49) 
energy

$$$$
49:0
     RDKit          3D

 47 49  0  0  0  0  0  0  0  0999 V2000
   56.2320   23.9490   43.4880 C   0  0  0  0  0  0  0  0  0  0  0  0
   55.3090   23.6170   44.5680 N   0  0  0  0  0  0  0  0  0  0  0  0
   55.4760   24.7700   45.8580 S   0  0  0  0  0  0  0  0  0  0  0  0
   54.5170   25.9090   45.6450 O   0  0  0  0  0  0  0  0  0  0  0  0
   55.1430   24.1030   47.1620 O   0  0  0  0  0  0  0  0  0  0  0  0
   57.1320   25.3690   45.9280 C   0  0  0  0  0  0  0  0  0  0  0  0
   58.2140   24.4780   45.9170 C   0  0  0  0  0  0  0  0  0  0  0  0
   59.5200   24.9640   45.9970 C   0  0  0  0  0  0  0  0  0  0  0  0
   59.7550   26.3380   46.0900 C   0  0  0  0  0  0  0  0  0  0  0  0
   58.6810   27.2460   46.0960 C   0  0  0  0  0  0  0  0  0  0  0  0
   58.9370   28.7030   46.2070 C   0  0  0  0  0  0  0  0  0  0  0  0
   58.6340   29.4610   45.2450 O   0  0  0  0  0  0  0  0  0  0  0  0
   59.4780   29.2660   47.4140 N   0  0  0  0  0  0  0  0  0  0  0  0
   60.1400   30.5420   47.4720 C   0  0  0  0  0  0  0  0  0  0  0  0
   61.4450   30.6190   47.9800 C   0  0  0  0  0  0  0  0  0  0  0  0
   62.1160   31.8440   48.0210 C   0  0  0  0  0  0  0  0  0  0  0  0
   61.4960   33.0000   47.5440 C   0  0  0  0  0  0  0  0  0  0  0  0
   60.1980   32.9370   47.0190 C   0  0  0  0  0  0  0  0  0  0  0  0
   59.4230   34.3800   46.3670 S   0  0  0  0  0  0  0  0  0  0  0  0
   60.4600   35.4070   46.0100 O   0  0  0  0  0  0  0  0  0  0  0  0
   58.5270   34.9630   47.4240 O   0  0  0  0  0  0  0  0  0  0  0  0
   58.4670   33.9980   44.9630 N   0  0  0  0  0  0  0  0  0  0  0  0
   57.2150   33.3330   45.3290 C   0  0  0  0  0  0  0  0  0  0  0  0
   56.9750   32.1280   44.4750 C   0  0  0  0  0  0  0  0  0  0  0  0
   57.4910   31.9150   43.2120 C   0  0  0  0  0  0  0  0  0  0  0  0
   57.0200   30.6800   42.8250 C   0  0  0  0  0  0  0  0  0  0  0  0
   56.2490   30.2180   43.8730 C   0  0  0  0  0  0  0  0  0  0  0  0
   56.2410   31.1030   44.8420 O   0  0  0  0  0  0  0  0  0  0  0  0
   59.5280   31.7070   46.9730 C   0  0  0  0  0  0  0  0  0  0  0  0
   57.3670   26.7470   46.0240 C   0  0  0  0  0  0  0  0  0  0  0  0
   57.1864   24.2923   43.9138 H   0  0  0  0  0  0  0  0  0  0  0  0
   56.4068   23.0574   42.8679 H   0  0  0  0  0  0  0  0  0  0  0  0
   55.7988   24.7477   42.8679 H   0  0  0  0  0  0  0  0  0  0  0  0
   58.0338   23.3952   45.8453 H   0  0  0  0  0  0  0  0  0  0  0  0
   60.3673   24.2626   45.9868 H   0  0  0  0  0  0  0  0  0  0  0  0
   60.7871   26.7122   46.1590 H   0  0  0  0  0  0  0  0  0  0  0  0
   59.2860   28.7740   48.3150 H   0  0  0  0  0  0  0  0  0  0  0  0
   61.9431   29.7100   48.3482 H   0  0  0  0  0  0  0  0  0  0  0  0
   63.1356   31.8975   48.4303 H   0  0  0  0  0  0  0  0  0  0  0  0
   62.0272   33.9625   47.5802 H   0  0  0  0  0  0  0  0  0  0  0  0
   57.2683   33.0216   46.3827 H   0  0  0  0  0  0  0  0  0  0  0  0
   56.3863   34.0401   45.1761 H   0  0  0  0  0  0  0  0  0  0  0  0
   58.1414   32.5898   42.6361 H   0  0  0  0  0  0  0  0  0  0  0  0
   57.2181   30.1656   41.8731 H   0  0  0  0  0  0  0  0  0  0  0  0
   55.7209   29.2533   43.8928 H   0  0  0  0  0  0  0  0  0  0  0  0
   58.5167   31.6517   46.5439 H   0  0  0  0  0  0  0  0  0  0  0  0
   56.5170   27.4449   46.0433 H   0  0  0  0  0  0  0  0  0  0  0  0
  1  2  1  0
  2  3  1  0
  3  4  2  0
  3  5  2  0
  3  6  1  0
  6  7  2  0
  7  8  1  0
  8  9  2  0
  9 10  1  0
 10 11  1  0
 11 12  2  0
 11 13  1  0
 13 14  1  0
 14 15  2  0
 15 16  1  0
 16 17  2  0
 17 18  1  0
 18 19  1  0
 19 20  2  0
 19 21  2  0
 19 22  1  0
 22 23  1  0
 23 24  1  0
 24 25  2  0
 25 26  1  0
 26 27  2  0
 27 28  1  0
 18 29  2  0
 10 30  2  0
 30  6  1  0
 29 14  1  0
 28 24  1  0
  1 31  1  0
  1 32  1  0
  1 33  1  0
  7 34  1  0
  8 35  1  0
  9 36  1  0
 13 37  1  0
 15 38  1  0
 16 39  1  0
 17 40  1  0
 23 41  1  0
 23 42  1  0
 25 43  1  0
 26 44  1  0
 27 45  1  0
 29 46  1  0
 30 47  1  0
M  CHG  2   2  -1  22  -1
M  END
>  <UniqueID>  (50) 
46

>  <SMILES>  (50) 
C[N-]S(=O)(=O)c1cccc(C(=O)Nc2cccc(S(=O)(=O)[N-]Cc3ccco3)c2)c1

>  <Energy>  (50) 
76.54873365141643

>  <Genealogy>  (50) 
C[N-]S(=O)(=O)c1cccc(C(=O)Nc2cccc(S(=O)(=O)[N-]Cc3ccco3)c2)c1 (protonated)
C[N-]S(=O)(=O)c1cccc(C(=O)Nc2cccc(S(=O)(=O)[N-]Cc3ccco3)c2)c1 (3D coordinates assigned)
C[N-]S(=O)(=O)c1cccc(C(=O)Nc2cccc(S(=O)(=O)[N-]Cc3ccco3)c2)c1 (optimized conformer: 76.54873365141643 kcal/mol)

>  <smiles>  (50) 
CNS(=O)(=O)c1cccc(C(=O)Nc2cccc(S(=O)(=O)NCc3ccco3)c2)c1

>  <score_type>  (50) 
oracle

>  <origin>  (50) 
adg

>  <m_score__min__energy>  (50) 
-12.859999999999999

>  <m_primary>  (50) 
energy

$$$$
50:0
     RDKit          3D

 55 58  0  0  0  0  0  0  0  0999 V2000
   57.3560   30.9410   43.0400 C   0  0  0  0  0  0  0  0  0  0  0  0
   57.8990   31.7470   44.1890 C   0  0  0  0  0  0  0  0  0  0  0  0
   57.8490   33.1480   44.1220 C   0  0  0  0  0  0  0  0  0  0  0  0
   58.3760   33.9300   45.1520 C   0  0  0  0  0  0  0  0  0  0  0  0
   58.9550   33.3260   46.2780 C   0  0  0  0  0  0  0  0  0  0  0  0
   59.5290   34.1590   47.3600 C   0  0  0  0  0  0  0  0  0  0  0  0
   59.0980   35.3330   47.5280 O   0  0  0  0  0  0  0  0  0  0  0  0
   60.5850   33.6680   48.2050 N   0  0  0  0  0  0  0  0  0  0  0  0
   61.6310   34.5910   48.6530 C   0  0  0  0  0  0  0  0  0  0  0  0
   62.7150   33.8490   49.4500 C   0  0  0  0  0  0  0  0  0  0  0  0
   63.0220   32.5280   48.8630 N   0  0  0  0  0  0  0  0  0  0  0  0
   63.6920   32.6490   47.5560 C   0  0  0  0  0  0  0  0  0  0  0  0
   61.8460   31.6220   48.8030 C   0  0  0  0  0  0  0  0  0  0  0  0
   60.4860   32.3490   48.8380 C   0  0  0  0  0  0  0  0  0  0  0  0
   59.0060   31.9250   46.3490 C   0  0  0  0  0  0  0  0  0  0  0  0
   58.4550   31.1310   45.3340 C   0  0  0  0  0  0  0  0  0  0  0  0
   58.5070   29.7040   45.4710 N   0  0  0  0  0  0  0  0  0  0  0  0
   57.3420   28.8780   45.3230 C   0  0  0  0  0  0  0  0  0  0  0  0
   56.1990   29.4080   45.2740 O   0  0  0  0  0  0  0  0  0  0  0  0
   57.4600   27.4100   45.2490 C   0  0  0  0  0  0  0  0  0  0  0  0
   57.5700   26.5670   46.3400 C   0  0  0  0  0  0  0  0  0  0  0  0
   57.6300   25.2900   45.8130 C   0  0  0  0  0  0  0  0  0  0  0  0
   57.8180   24.0680   46.5330 N   0  0  0  0  0  0  0  0  0  0  0  0
   56.7730   23.1860   46.9600 C   0  0  0  0  0  0  0  0  0  0  0  0
   57.0430   22.2860   47.7980 O   0  0  0  0  0  0  0  0  0  0  0  0
   55.4120   23.2610   46.3950 C   0  0  0  0  0  0  0  0  0  0  0  0
   54.6550   22.1940   45.9670 C   0  0  0  0  0  0  0  0  0  0  0  0
   53.4860   22.6490   45.4820 N   0  0  0  0  0  0  0  0  0  0  0  0
   53.5850   23.9860   45.6290 C   0  0  0  0  0  0  0  0  0  0  0  0
   52.6690   24.7770   45.2830 O   0  0  0  0  0  0  0  0  0  0  0  0
   54.7420   24.4080   46.1760 N   0  0  0  0  0  0  0  0  0  0  0  0
   57.5820   25.4000   44.4410 C   0  0  0  0  0  0  0  0  0  0  0  0
   57.4640   26.6970   44.1010 N   0  0  0  0  0  0  0  0  0  0  0  0
   56.7813   30.0879   43.4298 H   0  0  0  0  0  0  0  0  0  0  0  0
   56.7000   31.5748   42.4252 H   0  0  0  0  0  0  0  0  0  0  0  0
   58.1898   30.5711   42.4252 H   0  0  0  0  0  0  0  0  0  0  0  0
   57.3899   33.6351   43.2491 H   0  0  0  0  0  0  0  0  0  0  0  0
   58.3368   35.0269   45.0799 H   0  0  0  0  0  0  0  0  0  0  0  0
   62.0921   35.0660   47.7745 H   0  0  0  0  0  0  0  0  0  0  0  0
   61.1735   35.3495   49.3053 H   0  0  0  0  0  0  0  0  0  0  0  0
   63.6314   34.4574   49.4559 H   0  0  0  0  0  0  0  0  0  0  0  0
   62.3388   33.6896   50.4713 H   0  0  0  0  0  0  0  0  0  0  0  0
   64.7638   32.8426   47.7099 H   0  0  0  0  0  0  0  0  0  0  0  0
   63.5658   31.7135   46.9912 H   0  0  0  0  0  0  0  0  0  0  0  0
   63.2465   33.4812   46.9912 H   0  0  0  0  0  0  0  0  0  0  0  0
   61.9038   31.0429   47.8696 H   0  0  0  0  0  0  0  0  0  0  0  0
   61.8890   30.9880   49.7009 H   0  0  0  0  0  0  0  0  0  0  0  0
   59.7404   31.7455   48.2996 H   0  0  0  0  0  0  0  0  0  0  0  0
   60.1843   32.4829   49.8873 H   0  0  0  0  0  0  0  0  0  0  0  0
   59.4854   31.4433   47.2139 H   0  0  0  0  0  0  0  0  0  0  0  0
   59.3640   29.2890   45.9000 H   0  0  0  0  0  0  0  0  0  0  0  0
   57.6028   26.8520   47.4019 H   0  0  0  0  0  0  0  0  0  0  0  0
   54.9579   21.1376   46.0141 H   0  0  0  0  0  0  0  0  0  0  0  0
   57.6322   24.5592   43.7335 H   0  0  0  0  0  0  0  0  0  0  0  0
   57.3870   27.0620   43.1270 H   0  0  0  0  0  0  0  0  0  0  0  0
  1  2  1  0
  2  3  2  0
  3  4  1  0
  4  5  2  0
  5  6  1  0
  6  7  2  0
  6  8  1  0
  8  9  1  0
  9 10  1  0
 10 11  1  0
 11 12  1  0
 11 13  1  0
 13 14  1  0
  5 15  1  0
 15 16  2  0
 16 17  1  0
 17 18  1  0
 18 19  2  0
 18 20  1  0
 20 21  2  0
 21 22  1  0
 22 23  1  0
 23 24  1  0
 24 25  2  0
 24 26  1  0
 26 27  2  0
 27 28  1  0
 28 29  1  0
 29 30  2  0
 29 31  1  0
 22 32  2  0
 32 33  1  0
 16  2  1  0
 33 20  1  0
 14  8  1  0
 31 26  1  0
  1 34  1  0
  1 35  1  0
  1 36  1  0
  3 37  1  0
  4 38  1  0
  9 39  1  0
  9 40  1  0
 10 41  1  0
 10 42  1  0
 12 43  1  0
 12 44  1  0
 12 45  1  0
 13 46  1  0
 13 47  1  0
 14 48  1  0
 14 49  1  0
 15 50  1  0
 17 51  1  0
 21 52  1  0
 27 53  1  0
 32 54  1  0
 33 55  1  0
M  CHG  3  23  -1  28  -1  31  -1
M  END
>  <UniqueID>  (51) 
47

>  <SMILES>  (51) 
Cc1ccc(C(=O)N2CCN(C)CC2)cc1NC(=O)c1cc([N-]C(=O)c2c[n-]c(=O)[n-]2)c[nH]1

>  <Energy>  (51) 
133.04266977102174

>  <Genealogy>  (51) 
Cc1ccc(C(=O)N2CCN(C)CC2)cc1NC(=O)c1cc([N-]C(=O)c2c[n-]c(=O)[n-]2)c[nH]1 (protonated)
Cc1ccc(C(=O)N2CCN(C)CC2)cc1NC(=O)c1cc([N-]C(=O)c2c[n-]c(=O)[n-]2)c[nH]1 (3D coordinates assigned)
Cc1ccc(C(=O)N2CCN(C)CC2)cc1NC(=O)c1cc([N-]C(=O)c2c[n-]c(=O)[n-]2)c[nH]1 (nonaromatic ring conformer: 133.04266977102174 kcal/mol)

>  <smiles>  (51) 
Cc1ccc(C(=O)N2CCN(C)CC2)cc1NC(=O)c1cc(NC(=O)c2c[nH]c(=O)[nH]2)c[nH]1

>  <score_type>  (51) 
oracle

>  <origin>  (51) 
adg

>  <m_score__min__energy>  (51) 
-15.210000000000001

>  <m_primary>  (51) 
energy

$$$$
51:0
     RDKit          3D

 67 72  0  0  0  0  0  0  0  0999 V2000
   63.1710   33.6320   47.7460 O   0  0  0  0  0  0  0  0  0  0  0  0
   62.7460   32.5340   48.1940 C   0  0  0  0  0  0  0  0  0  0  0  0
   63.3980   31.9090   49.3160 N   0  0  0  0  0  0  0  0  0  0  0  0
   64.4170   32.5410   50.1130 C   0  0  0  0  0  0  0  0  0  0  0  0
   65.6640   31.9320   50.3330 C   0  0  0  0  0  0  0  0  0  0  0  0
   66.6420   32.5760   51.0950 C   0  0  0  0  0  0  0  0  0  0  0  0
   66.4040   33.8530   51.6320 C   0  0  0  0  0  0  0  0  0  0  0  0
   67.4010   34.4970   52.4550 N   0  0  0  0  0  0  0  0  0  0  0  0
   67.1330   35.7590   53.1450 C   0  0  0  0  0  0  0  0  0  0  0  0
   67.3190   35.5710   54.6550 C   0  0  0  0  0  0  0  0  0  0  0  0
   68.4070   34.6220   54.9970 N   0  0  0  0  0  0  0  0  0  0  0  0
   68.0200   33.4820   55.8580 C   0  0  0  0  0  0  0  0  0  0  0  0
   67.1550   32.4540   55.1610 C   0  0  0  0  0  0  0  0  0  0  0  0
   65.7730   32.6700   55.0210 C   0  0  0  0  0  0  0  0  0  0  0  0
   64.9700   31.7210   54.3790 C   0  0  0  0  0  0  0  0  0  0  0  0
   65.5440   30.5650   53.8430 C   0  0  0  0  0  0  0  0  0  0  0  0
   66.9230   30.3640   53.9360 C   0  0  0  0  0  0  0  0  0  0  0  0
   67.7270   31.3030   54.5880 C   0  0  0  0  0  0  0  0  0  0  0  0
   69.3910   34.3300   53.9320 C   0  0  0  0  0  0  0  0  0  0  0  0
   68.7340   33.9090   52.6040 C   0  0  0  0  0  0  0  0  0  0  0  0
   65.1670   34.4730   51.3830 C   0  0  0  0  0  0  0  0  0  0  0  0
   64.1870   33.8250   50.6270 C   0  0  0  0  0  0  0  0  0  0  0  0
   61.5790   31.8990   47.5420 C   0  0  0  0  0  0  0  0  0  0  0  0
   60.6870   32.6940   46.7750 C   0  0  0  0  0  0  0  0  0  0  0  0
   59.5720   32.1200   46.1400 C   0  0  0  0  0  0  0  0  0  0  0  0
   59.3740   30.7500   46.2780 C   0  0  0  0  0  0  0  0  0  0  0  0
   60.2420   29.9660   47.0040 C   0  0  0  0  0  0  0  0  0  0  0  0
   61.3520   30.5080   47.6480 C   0  0  0  0  0  0  0  0  0  0  0  0
   59.7730   28.5880   46.9150 C   0  0  0  0  0  0  0  0  0  0  0  0
   60.3010   27.6000   47.4920 O   0  0  0  0  0  0  0  0  0  0  0  0
   58.5860   28.5240   46.1180 N   0  0  0  0  0  0  0  0  0  0  0  0
   57.8120   27.3590   45.7850 C   0  0  0  0  0  0  0  0  0  0  0  0
   58.4370   26.2180   45.2530 C   0  0  0  0  0  0  0  0  0  0  0  0
   57.6850   25.0860   44.9280 C   0  0  0  0  0  0  0  0  0  0  0  0
   56.3030   25.0790   45.1420 C   0  0  0  0  0  0  0  0  0  0  0  0
   55.6710   26.2080   45.6740 C   0  0  0  0  0  0  0  0  0  0  0  0
   54.2980   26.1980   45.8950 O   0  0  0  0  0  0  0  0  0  0  0  0
   56.4210   27.3460   45.9880 C   0  0  0  0  0  0  0  0  0  0  0  0
   58.3440   29.8780   45.7240 C   0  0  0  0  0  0  0  0  0  0  0  0
   57.4070   30.2440   44.9640 O   0  0  0  0  0  0  0  0  0  0  0  0
   63.1500   30.9250   49.5590 H   0  0  0  0  0  0  0  0  0  0  0  0
   65.8716   30.9414   49.9023 H   0  0  0  0  0  0  0  0  0  0  0  0
   67.6066   32.0794   51.2763 H   0  0  0  0  0  0  0  0  0  0  0  0
   67.8307   36.5288   52.7836 H   0  0  0  0  0  0  0  0  0  0  0  0
   66.0987   36.0734   52.9414 H   0  0  0  0  0  0  0  0  0  0  0  0
   67.5540   36.5480   55.1025 H   0  0  0  0  0  0  0  0  0  0  0  0
   66.3825   35.1499   55.0494 H   0  0  0  0  0  0  0  0  0  0  0  0
   68.9369   32.9842   56.2067 H   0  0  0  0  0  0  0  0  0  0  0  0
   67.4231   33.8942   56.6849 H   0  0  0  0  0  0  0  0  0  0  0  0
   65.3203   33.5904   55.4185 H   0  0  0  0  0  0  0  0  0  0  0  0
   63.8855   31.8850   54.2960 H   0  0  0  0  0  0  0  0  0  0  0  0
   64.9103   29.8141   53.3483 H   0  0  0  0  0  0  0  0  0  0  0  0
   67.3774   29.4645   53.4950 H   0  0  0  0  0  0  0  0  0  0  0  0
   68.8131   31.1414   54.6536 H   0  0  0  0  0  0  0  0  0  0  0  0
   69.9933   35.2331   53.7542 H   0  0  0  0  0  0  0  0  0  0  0  0
   70.0073   33.4863   54.2760 H   0  0  0  0  0  0  0  0  0  0  0  0
   69.3678   34.2439   51.7696 H   0  0  0  0  0  0  0  0  0  0  0  0
   68.6305   32.8139   52.6019 H   0  0  0  0  0  0  0  0  0  0  0  0
   64.9691   35.4769   51.7869 H   0  0  0  0  0  0  0  0  0  0  0  0
   63.2272   34.3262   50.4335 H   0  0  0  0  0  0  0  0  0  0  0  0
   60.8710   33.7740   46.6763 H   0  0  0  0  0  0  0  0  0  0  0  0
   58.8764   32.7361   45.5512 H   0  0  0  0  0  0  0  0  0  0  0  0
   62.0358   29.8684   48.2254 H   0  0  0  0  0  0  0  0  0  0  0  0
   59.5251   26.2161   45.0915 H   0  0  0  0  0  0  0  0  0  0  0  0
   58.1802   24.2001   44.5037 H   0  0  0  0  0  0  0  0  0  0  0  0
   55.7126   24.1852   44.8919 H   0  0  0  0  0  0  0  0  0  0  0  0
   55.9196   28.2359   46.3961 H   0  0  0  0  0  0  0  0  0  0  0  0
  1  2  2  0
  2  3  1  0
  3  4  1  0
  4  5  2  0
  5  6  1  0
  6  7  2  0
  7  8  1  0
  8  9  1  0
  9 10  1  0
 10 11  1  0
 11 12  1  0
 12 13  1  0
 13 14  2  0
 14 15  1  0
 15 16  2  0
 16 17  1  0
 17 18  2  0
 11 19  1  0
 19 20  1  0
  7 21  1  0
 21 22  2  0
  2 23  1  0
 23 24  2  0
 24 25  1  0
 25 26  2  0
 26 27  1  0
 27 28  2  0
 27 29  1  0
 29 30  2  0
 29 31  1  0
 31 32  1  0
 32 33  2  0
 33 34  1  0
 34 35  2  0
 35 36  1  0
 36 37  1  0
 36 38  2  0
 31 39  1  0
 39 40  2  0
 22  4  1  0
 28 23  1  0
 38 32  1  0
 20  8  1  0
 39 26  1  0
 18 13  1  0
  3 41  1  0
  5 42  1  0
  6 43  1  0
  9 44  1  0
  9 45  1  0
 10 46  1  0
 10 47  1  0
 12 48  1  0
 12 49  1  0
 14 50  1  0
 15 51  1  0
 16 52  1  0
 17 53  1  0
 18 54  1  0
 19 55  1  0
 19 56  1  0
 20 57  1  0
 20 58  1  0
 21 59  1  0
 22 60  1  0
 24 61  1  0
 25 62  1  0
 28 63  1  0
 33 64  1  0
 34 65  1  0
 35 66  1  0
 38 67  1  0
M  CHG  1  37  -1
M  END
>  <UniqueID>  (52) 
48

>  <SMILES>  (52) 
O=C(Nc1ccc(N2CCN(Cc3ccccc3)CC2)cc1)c1ccc2c(c1)C(=O)N(c1cccc([O-])c1)C2=O

>  <Energy>  (52) 
132.7572551134212

>  <Genealogy>  (52) 
O=C(Nc1ccc(N2CCN(Cc3ccccc3)CC2)cc1)c1ccc2c(c1)C(=O)N(c1cccc([O-])c1)C2=O (protonated)
O=C(Nc1ccc(N2CCN(Cc3ccccc3)CC2)cc1)c1ccc2c(c1)C(=O)N(c1cccc([O-])c1)C2=O (3D coordinates assigned)
O=C(Nc1ccc(N2CCN(Cc3ccccc3)CC2)cc1)c1ccc2c(c1)C(=O)N(c1cccc([O-])c1)C2=O (nonaromatic ring conformer: 132.7572551134212 kcal/mol)

>  <smiles>  (52) 
O=C(Nc1ccc(N2CCN(Cc3ccccc3)CC2)cc1)c1ccc2c(c1)C(=O)N(c1cccc(O)c1)C2=O

>  <score_type>  (52) 
oracle

>  <origin>  (52) 
adg

>  <m_score__min__energy>  (52) 
-10.69

>  <m_primary>  (52) 
energy

$$$$
52:0
     RDKit          3D

 43 45  0  0  0  0  0  0  0  0999 V2000
   59.8770   27.6960   45.7250 C   0  0  0  0  0  0  0  0  0  0  0  0
   58.6200   28.4260   45.3730 C   0  0  0  0  0  0  0  0  0  0  0  0
   58.5920   29.7820   45.2780 N   0  0  0  0  0  0  0  0  0  0  0  0
   57.3490   30.2370   45.0000 C   0  0  0  0  0  0  0  0  0  0  0  0
   57.0380   31.4920   44.8680 N   0  0  0  0  0  0  0  0  0  0  0  0
   57.6820   32.5990   45.5200 C   0  0  0  0  0  0  0  0  0  0  0  0
   57.0850   33.7020   45.6560 O   0  0  0  0  0  0  0  0  0  0  0  0
   59.0100   32.4240   46.0300 N   0  0  0  0  0  0  0  0  0  0  0  0
   59.7760   33.4660   46.6580 C   0  0  0  0  0  0  0  0  0  0  0  0
   59.3910   34.6670   46.5840 O   0  0  0  0  0  0  0  0  0  0  0  0
   61.0500   33.1600   47.3470 C   0  0  0  0  0  0  0  0  0  0  0  0
   61.8740   34.2190   47.7720 C   0  0  0  0  0  0  0  0  0  0  0  0
   63.0900   33.9610   48.4120 C   0  0  0  0  0  0  0  0  0  0  0  0
   63.4950   32.6440   48.6400 C   0  0  0  0  0  0  0  0  0  0  0  0
   62.6800   31.5830   48.2420 C   0  0  0  0  0  0  0  0  0  0  0  0
   61.4530   31.8300   47.6060 C   0  0  0  0  0  0  0  0  0  0  0  0
   60.6290   30.7590   47.2590 O   0  0  0  0  0  0  0  0  0  0  0  0
   56.2300   28.9920   44.8700 S   0  0  0  0  0  0  0  0  0  0  0  0
   57.3840   27.8070   45.1780 C   0  0  0  0  0  0  0  0  0  0  0  0
   57.0360   26.0880   45.2940 S   0  0  0  0  0  0  0  0  0  0  0  0
   58.0060   25.4560   46.2520 O   0  0  0  0  0  0  0  0  0  0  0  0
   57.1880   25.4370   43.9480 O   0  0  0  0  0  0  0  0  0  0  0  0
   55.4200   25.8400   45.8710 N   0  0  0  0  0  0  0  0  0  0  0  0
   54.7560   24.5710   45.9530 C   0  0  0  0  0  0  0  0  0  0  0  0
   53.4730   24.4490   45.4010 C   0  0  0  0  0  0  0  0  0  0  0  0
   52.8000   23.2250   45.4420 C   0  0  0  0  0  0  0  0  0  0  0  0
   53.4010   22.1140   46.0410 C   0  0  0  0  0  0  0  0  0  0  0  0
   54.6740   22.2280   46.6030 C   0  0  0  0  0  0  0  0  0  0  0  0
   55.3530   23.4510   46.5630 C   0  0  0  0  0  0  0  0  0  0  0  0
   59.9741   27.6396   46.8193 H   0  0  0  0  0  0  0  0  0  0  0  0
   59.8397   26.6791   45.3073 H   0  0  0  0  0  0  0  0  0  0  0  0
   60.7418   28.2324   45.3073 H   0  0  0  0  0  0  0  0  0  0  0  0
   59.4560   31.4890   45.8920 H   0  0  0  0  0  0  0  0  0  0  0  0
   61.5586   35.2585   47.5991 H   0  0  0  0  0  0  0  0  0  0  0  0
   63.7283   34.7961   48.7363 H   0  0  0  0  0  0  0  0  0  0  0  0
   64.4571   32.4426   49.1337 H   0  0  0  0  0  0  0  0  0  0  0  0
   63.0009   30.5474   48.4277 H   0  0  0  0  0  0  0  0  0  0  0  0
   60.3930   30.5600   46.2940 H   0  0  0  0  0  0  0  0  0  0  0  0
   52.9936   25.3215   44.9331 H   0  0  0  0  0  0  0  0  0  0  0  0
   51.7957   23.1356   45.0022 H   0  0  0  0  0  0  0  0  0  0  0  0
   52.8712   21.1504   46.0695 H   0  0  0  0  0  0  0  0  0  0  0  0
   55.1443   21.3545   47.0783 H   0  0  0  0  0  0  0  0  0  0  0  0
   56.3549   23.5376   47.0089 H   0  0  0  0  0  0  0  0  0  0  0  0
  1  2  1  0
  2  3  1  0
  3  4  1  0
  4  5  2  3
  5  6  1  0
  6  7  2  0
  6  8  1  0
  8  9  1  0
  9 10  2  0
  9 11  1  0
 11 12  2  0
 12 13  1  0
 13 14  2  0
 14 15  1  0
 15 16  2  0
 16 17  1  0
  4 18  1  0
 18 19  1  0
 19 20  1  0
 20 21  2  0
 20 22  2  0
 20 23  1  0
 23 24  1  0
 24 25  2  0
 25 26  1  0
 26 27  2  0
 27 28  1  0
 28 29  2  0
 19  2  2  0
 29 24  1  0
 16 11  1  0
  1 30  1  0
  1 31  1  0
  1 32  1  0
  8 33  1  0
 12 34  1  0
 13 35  1  0
 14 36  1  0
 15 37  1  0
 17 38  1  0
 25 39  1  0
 26 40  1  0
 27 41  1  0
 28 42  1  0
 29 43  1  0
M  CHG  2   3  -1  23  -1
M  END
>  <UniqueID>  (53) 
49

>  <SMILES>  (53) 
Cc1[n-]c(=NC(=O)NC(=O)c2ccccc2O)sc1S(=O)(=O)[N-]c1ccccc1

>  <Energy>  (53) 
83.38080160679851

>  <Genealogy>  (53) 
Cc1[n-]c(=NC(=O)NC(=O)c2ccccc2O)sc1S(=O)(=O)[N-]c1ccccc1 (protonated)
Cc1[n-]c(=NC(=O)NC(=O)c2ccccc2O)sc1S(=O)(=O)[N-]c1ccccc1 (3D coordinates assigned)
Cc1[n-]c(=NC(=O)NC(=O)c2ccccc2O)sc1S(=O)(=O)[N-]c1ccccc1 (optimized conformer: 83.38080160679851 kcal/mol)

>  <smiles>  (53) 
Cc1[nH]c(=NC(=O)NC(=O)c2ccccc2O)sc1S(=O)(=O)Nc1ccccc1

>  <score_type>  (53) 
oracle

>  <origin>  (53) 
adg

>  <m_score__min__energy>  (53) 
-11

>  <m_primary>  (53) 
energy

$$$$
53:0
     RDKit          3D

 67 70  0  0  0  0  0  0  0  0999 V2000
   60.5310   29.2760   47.9990 C   0  0  0  0  0  0  0  0  0  0  0  0
   59.8050   28.1200   48.4050 O   0  0  0  0  0  0  0  0  0  0  0  0
   58.9900   27.3460   47.5570 C   0  0  0  0  0  0  0  0  0  0  0  0
   57.9500   27.9760   46.8650 C   0  0  0  0  0  0  0  0  0  0  0  0
   57.1100   27.2550   46.0050 C   0  0  0  0  0  0  0  0  0  0  0  0
   56.0810   27.9210   45.2610 N   0  0  0  0  0  0  0  0  0  0  0  0
   56.1610   29.2290   44.6780 C   0  0  0  0  0  0  0  0  0  0  0  0
   55.1950   30.0180   44.8560 O   0  0  0  0  0  0  0  0  0  0  0  0
   57.4400   29.7350   44.0320 C   0  0  0  0  0  0  0  0  0  0  0  0
   58.0550   30.9290   44.6720 N   0  0  0  0  0  0  0  0  0  0  0  0
   57.4280   32.2060   44.2500 C   0  0  0  0  0  0  0  0  0  0  0  0
   57.9050   33.3930   45.1110 C   0  0  0  0  0  0  0  0  0  0  0  0
   59.1840   33.0670   45.7620 N   0  0  0  0  0  0  0  0  0  0  0  0
   59.8360   34.4800   46.5570 S   0  0  0  0  0  0  0  0  0  0  0  0
   58.8710   34.9480   47.6090 O   0  0  0  0  0  0  0  0  0  0  0  0
   59.9960   35.5900   45.5550 O   0  0  0  0  0  0  0  0  0  0  0  0
   61.3950   34.1430   47.3160 C   0  0  0  0  0  0  0  0  0  0  0  0
   62.5000   33.7860   46.5310 C   0  0  0  0  0  0  0  0  0  0  0  0
   63.7270   33.4920   47.1400 C   0  0  0  0  0  0  0  0  0  0  0  0
   63.8500   33.5420   48.5310 C   0  0  0  0  0  0  0  0  0  0  0  0
   62.7530   33.9060   49.3170 C   0  0  0  0  0  0  0  0  0  0  0  0
   61.5310   34.2110   48.7120 C   0  0  0  0  0  0  0  0  0  0  0  0
   58.9990   31.9720   46.7330 C   0  0  0  0  0  0  0  0  0  0  0  0
   58.1340   30.8290   46.1480 C   0  0  0  0  0  0  0  0  0  0  0  0
   57.3360   25.8830   45.8120 C   0  0  0  0  0  0  0  0  0  0  0  0
   56.4840   25.1300   44.9340 N   0  0  0  0  0  0  0  0  0  0  0  0
   57.0220   24.6950   43.6330 C   0  0  0  0  0  0  0  0  0  0  0  0
   56.2160   23.5350   43.0010 C   0  0  0  0  0  0  0  0  0  0  0  0
   55.4470   22.8330   43.9630 O   0  0  0  0  0  0  0  0  0  0  0  0
   54.4920   23.7060   44.5120 C   0  0  0  0  0  0  0  0  0  0  0  0
   55.1930   24.6670   45.4670 C   0  0  0  0  0  0  0  0  0  0  0  0
   58.3700   25.2300   46.5110 C   0  0  0  0  0  0  0  0  0  0  0  0
   58.5410   23.8510   46.3170 O   0  0  0  0  0  0  0  0  0  0  0  0
   59.3080   23.2730   45.2650 C   0  0  0  0  0  0  0  0  0  0  0  0
   59.1970   25.9690   47.3780 C   0  0  0  0  0  0  0  0  0  0  0  0
   60.8752   29.8240   48.8885 H   0  0  0  0  0  0  0  0  0  0  0  0
   61.3999   28.9708   47.3974 H   0  0  0  0  0  0  0  0  0  0  0  0
   59.8787   29.9261   47.3974 H   0  0  0  0  0  0  0  0  0  0  0  0
   57.7886   29.0559   46.9981 H   0  0  0  0  0  0  0  0  0  0  0  0
   58.1777   28.9195   44.0579 H   0  0  0  0  0  0  0  0  0  0  0  0
   57.1597   30.0493   43.0158 H   0  0  0  0  0  0  0  0  0  0  0  0
   59.0470   30.9410   44.3240 H   0  0  0  0  0  0  0  0  0  0  0  0
   57.6900   32.4007   43.1995 H   0  0  0  0  0  0  0  0  0  0  0  0
   56.3395   32.1093   44.3759 H   0  0  0  0  0  0  0  0  0  0  0  0
   58.0386   34.2766   44.4696 H   0  0  0  0  0  0  0  0  0  0  0  0
   57.1512   33.6011   45.8846 H   0  0  0  0  0  0  0  0  0  0  0  0
   62.4038   33.7366   45.4363 H   0  0  0  0  0  0  0  0  0  0  0  0
   64.5955   33.2212   46.5217 H   0  0  0  0  0  0  0  0  0  0  0  0
   64.8102   33.2949   49.0075 H   0  0  0  0  0  0  0  0  0  0  0  0
   62.8517   33.9523   50.4116 H   0  0  0  0  0  0  0  0  0  0  0  0
   60.6716   34.5057   49.3321 H   0  0  0  0  0  0  0  0  0  0  0  0
   59.9848   31.5685   47.0076 H   0  0  0  0  0  0  0  0  0  0  0  0
   58.4805   32.3784   47.6139 H   0  0  0  0  0  0  0  0  0  0  0  0
   58.5827   29.8622   46.4201 H   0  0  0  0  0  0  0  0  0  0  0  0
   57.1177   30.9104   46.5609 H   0  0  0  0  0  0  0  0  0  0  0  0
   57.0038   25.5511   42.9425 H   0  0  0  0  0  0  0  0  0  0  0  0
   58.0444   24.3281   43.8065 H   0  0  0  0  0  0  0  0  0  0  0  0
   55.5390   23.9478   42.2386 H   0  0  0  0  0  0  0  0  0  0  0  0
   56.9322   22.8271   42.5582 H   0  0  0  0  0  0  0  0  0  0  0  0
   54.0056   24.2753   43.7062 H   0  0  0  0  0  0  0  0  0  0  0  0
   53.7292   23.1297   45.0561 H   0  0  0  0  0  0  0  0  0  0  0  0
   54.5438   25.5394   45.6329 H   0  0  0  0  0  0  0  0  0  0  0  0
   55.3865   24.1304   46.4076 H   0  0  0  0  0  0  0  0  0  0  0  0
   60.1171   22.6633   45.6934 H   0  0  0  0  0  0  0  0  0  0  0  0
   58.6591   22.6374   44.6446 H   0  0  0  0  0  0  0  0  0  0  0  0
   59.7401   24.0720   44.6446 H   0  0  0  0  0  0  0  0  0  0  0  0
   60.0109   25.4641   47.9189 H   0  0  0  0  0  0  0  0  0  0  0  0
  1  2  1  0
  2  3  1  0
  3  4  2  0
  4  5  1  0
  5  6  1  0
  6  7  1  0
  7  8  2  0
  7  9  1  0
  9 10  1  0
 10 11  1  0
 11 12  1  0
 12 13  1  0
 13 14  1  0
 14 15  2  0
 14 16  2  0
 14 17  1  0
 17 18  2  0
 18 19  1  0
 19 20  2  0
 20 21  1  0
 21 22  2  0
 13 23  1  0
 23 24  1  0
  5 25  2  0
 25 26  1  0
 26 27  1  0
 27 28  1  0
 28 29  1  0
 29 30  1  0
 30 31  1  0
 25 32  1  0
 32 33  1  0
 33 34  1  0
 32 35  2  0
 35  3  1  0
 24 10  1  0
 31 26  1  0
 22 17  1  0
  1 36  1  0
  1 37  1  0
  1 38  1  0
  4 39  1  0
  9 40  1  0
  9 41  1  0
 10 42  1  0
 11 43  1  0
 11 44  1  0
 12 45  1  0
 12 46  1  0
 18 47  1  0
 19 48  1  0
 20 49  1  0
 21 50  1  0
 22 51  1  0
 23 52  1  0
 23 53  1  0
 24 54  1  0
 24 55  1  0
 27 56  1  0
 27 57  1  0
 28 58  1  0
 28 59  1  0
 30 60  1  0
 30 61  1  0
 31 62  1  0
 31 63  1  0
 34 64  1  0
 34 65  1  0
 34 66  1  0
 35 67  1  0
M  CHG  2   6  -1  10   1
M  END
>  <UniqueID>  (54) 
50

>  <SMILES>  (54) 
COc1cc([N-]C(=O)C[NH+]2CCN(S(=O)(=O)c3ccccc3)CC2)c(N2CCOCC2)c(OC)c1

>  <Energy>  (54) 
95.93387078940016

>  <Genealogy>  (54) 
COc1cc([N-]C(=O)C[NH+]2CCN(S(=O)(=O)c3ccccc3)CC2)c(N2CCOCC2)c(OC)c1 (protonated)
COc1cc([N-]C(=O)C[NH+]2CCN(S(=O)(=O)c3ccccc3)CC2)c(N2CCOCC2)c(OC)c1 (3D coordinates assigned)
COc1cc([N-]C(=O)C[NH+]2CCN(S(=O)(=O)c3ccccc3)CC2)c(N2CCOCC2)c(OC)c1 (nonaromatic ring conformer: 95.93387078940016 kcal/mol)

>  <smiles>  (54) 
COc1cc(NC(=O)CN2CCN(S(=O)(=O)c3ccccc3)CC2)c(N2CCOCC2)c(OC)c1

>  <score_type>  (54) 
oracle

>  <origin>  (54) 
adg

>  <m_score__min__energy>  (54) 
-9.7200000000000006

>  <m_primary>  (54) 
energy

$$$$
54:0
     RDKit          3D

 52 55  0  0  0  0  0  0  0  0999 V2000
   56.7920   29.5430   43.4300 O   0  0  0  0  0  0  0  0  0  0  0  0
   57.3670   29.8960   44.4930 C   0  0  0  0  0  0  0  0  0  0  0  0
   56.8560   31.0130   45.2340 N   0  0  0  0  0  0  0  0  0  0  0  0
   57.5710   32.2290   45.5000 C   0  0  0  0  0  0  0  0  0  0  0  0
   57.3860   33.3250   44.6480 C   0  0  0  0  0  0  0  0  0  0  0  0
   58.0830   34.5160   44.8690 C   0  0  0  0  0  0  0  0  0  0  0  0
   58.9450   34.6300   45.9630 C   0  0  0  0  0  0  0  0  0  0  0  0
   59.0930   33.5600   46.8610 C   0  0  0  0  0  0  0  0  0  0  0  0
   59.9610   33.6980   48.0490 C   0  0  0  0  0  0  0  0  0  0  0  0
   59.4570   34.1150   49.1270 O   0  0  0  0  0  0  0  0  0  0  0  0
   61.3580   33.3460   48.0020 N   0  0  0  0  0  0  0  0  0  0  0  0
   61.7730   32.1750   47.2180 C   0  0  0  0  0  0  0  0  0  0  0  0
   63.2510   31.8680   47.4380 C   0  0  0  0  0  0  0  0  0  0  0  0
   63.9800   33.0690   47.3730 O   0  0  0  0  0  0  0  0  0  0  0  0
   63.7650   33.8390   48.5460 C   0  0  0  0  0  0  0  0  0  0  0  0
   62.2790   33.9370   48.9850 C   0  0  0  0  0  0  0  0  0  0  0  0
   58.4130   32.3570   46.6190 C   0  0  0  0  0  0  0  0  0  0  0  0
   58.5190   29.1170   45.0190 C   0  0  0  0  0  0  0  0  0  0  0  0
   59.6620   29.8070   45.4710 C   0  0  0  0  0  0  0  0  0  0  0  0
   60.7530   29.1150   45.9980 C   0  0  0  0  0  0  0  0  0  0  0  0
   60.7250   27.7230   46.0820 C   0  0  0  0  0  0  0  0  0  0  0  0
   59.6060   27.0190   45.6370 C   0  0  0  0  0  0  0  0  0  0  0  0
   58.4940   27.7000   45.1060 C   0  0  0  0  0  0  0  0  0  0  0  0
   57.3950   26.9400   44.5750 N   0  0  0  0  0  0  0  0  0  0  0  0
   57.1930   25.5390   44.8270 C   0  0  0  0  0  0  0  0  0  0  0  0
   57.3630   24.5790   43.8120 C   0  0  0  0  0  0  0  0  0  0  0  0
   57.1710   23.2210   44.0870 C   0  0  0  0  0  0  0  0  0  0  0  0
   56.8200   22.8070   45.3740 C   0  0  0  0  0  0  0  0  0  0  0  0
   56.6680   23.7510   46.3910 C   0  0  0  0  0  0  0  0  0  0  0  0
   56.8570   25.1100   46.1220 C   0  0  0  0  0  0  0  0  0  0  0  0
   56.6887   33.2480   43.8007 H   0  0  0  0  0  0  0  0  0  0  0  0
   57.9530   35.3645   44.1812 H   0  0  0  0  0  0  0  0  0  0  0  0
   59.5095   35.5607   46.1215 H   0  0  0  0  0  0  0  0  0  0  0  0
   61.1748   31.3049   47.5263 H   0  0  0  0  0  0  0  0  0  0  0  0
   61.6143   32.3922   46.1514 H   0  0  0  0  0  0  0  0  0  0  0  0
   63.3889   31.4053   48.4264 H   0  0  0  0  0  0  0  0  0  0  0  0
   63.6069   31.1734   46.6629 H   0  0  0  0  0  0  0  0  0  0  0  0
   64.3370   33.3822   49.3671 H   0  0  0  0  0  0  0  0  0  0  0  0
   64.0921   34.8632   48.3137 H   0  0  0  0  0  0  0  0  0  0  0  0
   62.1590   33.4085   49.9422 H   0  0  0  0  0  0  0  0  0  0  0  0
   62.0285   35.0042   49.0762 H   0  0  0  0  0  0  0  0  0  0  0  0
   58.5392   31.5092   47.3084 H   0  0  0  0  0  0  0  0  0  0  0  0
   59.6943   30.9047   45.4075 H   0  0  0  0  0  0  0  0  0  0  0  0
   61.6369   29.6683   46.3479 H   0  0  0  0  0  0  0  0  0  0  0  0
   61.5858   27.1801   46.4994 H   0  0  0  0  0  0  0  0  0  0  0  0
   59.5922   25.9210   45.7016 H   0  0  0  0  0  0  0  0  0  0  0  0
   56.7470   27.4230   43.9140 H   0  0  0  0  0  0  0  0  0  0  0  0
   57.6480   24.8978   42.7985 H   0  0  0  0  0  0  0  0  0  0  0  0
   57.2969   22.4766   43.2870 H   0  0  0  0  0  0  0  0  0  0  0  0
   56.6636   21.7390   45.5858 H   0  0  0  0  0  0  0  0  0  0  0  0
   56.3989   23.4249   47.4065 H   0  0  0  0  0  0  0  0  0  0  0  0
   56.7419   25.8481   46.9295 H   0  0  0  0  0  0  0  0  0  0  0  0
  1  2  2  0
  2  3  1  0
  3  4  1  0
  4  5  2  0
  5  6  1  0
  6  7  2  0
  7  8  1  0
  8  9  1  0
  9 10  2  0
  9 11  1  0
 11 12  1  0
 12 13  1  0
 13 14  1  0
 14 15  1  0
 15 16  1  0
  8 17  2  0
  2 18  1  0
 18 19  2  0
 19 20  1  0
 20 21  2  0
 21 22  1  0
 22 23  2  0
 23 24  1  0
 24 25  1  0
 25 26  2  0
 26 27  1  0
 27 28  2  0
 28 29  1  0
 29 30  2  0
 17  4  1  0
 23 18  1  0
 30 25  1  0
 16 11  1  0
  5 31  1  0
  6 32  1  0
  7 33  1  0
 12 34  1  0
 12 35  1  0
 13 36  1  0
 13 37  1  0
 15 38  1  0
 15 39  1  0
 16 40  1  0
 16 41  1  0
 17 42  1  0
 19 43  1  0
 20 44  1  0
 21 45  1  0
 22 46  1  0
 24 47  1  0
 26 48  1  0
 27 49  1  0
 28 50  1  0
 29 51  1  0
 30 52  1  0
M  CHG  1   3  -1
M  END
>  <UniqueID>  (55) 
51

>  <SMILES>  (55) 
O=C([N-]c1cccc(C(=O)N2CCOCC2)c1)c1ccccc1Nc1ccccc1

>  <Energy>  (55) 
80.04913406283373

>  <Genealogy>  (55) 
O=C([N-]c1cccc(C(=O)N2CCOCC2)c1)c1ccccc1Nc1ccccc1 (protonated)
O=C([N-]c1cccc(C(=O)N2CCOCC2)c1)c1ccccc1Nc1ccccc1 (3D coordinates assigned)
O=C([N-]c1cccc(C(=O)N2CCOCC2)c1)c1ccccc1Nc1ccccc1 (nonaromatic ring conformer: 80.04913406283373 kcal/mol)

>  <smiles>  (55) 
O=C(Nc1cccc(C(=O)N2CCOCC2)c1)c1ccccc1Nc1ccccc1

>  <score_type>  (55) 
oracle

>  <origin>  (55) 
adg

>  <m_score__min__energy>  (55) 
-11.27

>  <m_primary>  (55) 
energy

$$$$
55:0
     RDKit          3D

 75 79  0  0  0  0  0  0  0  0999 V2000
   58.8680   31.6840   50.3400 O   0  0  0  0  0  0  0  0  0  0  0  0
   59.5500   30.7090   49.9210 C   0  0  0  0  0  0  0  0  0  0  0  0
   59.7570   29.5180   50.8120 C   0  0  0  0  0  0  0  0  0  0  0  0
   61.2210   29.3200   51.1040 C   0  0  0  0  0  0  0  0  0  0  0  0
   61.6790   28.1040   51.6330 C   0  0  0  0  0  0  0  0  0  0  0  0
   63.0340   27.9290   51.9280 C   0  0  0  0  0  0  0  0  0  0  0  0
   63.9450   28.9740   51.7160 C   0  0  0  0  0  0  0  0  0  0  0  0
   65.6640   28.7420   52.0560 S   0  0  0  0  0  0  0  0  0  0  0  0
   66.3170   30.0870   52.2110 O   0  0  0  0  0  0  0  0  0  0  0  0
   65.8070   28.0040   53.3580 O   0  0  0  0  0  0  0  0  0  0  0  0
   66.4940   27.8500   50.8050 N   0  0  0  0  0  0  0  0  0  0  0  0
   66.6980   26.4480   51.1660 C   0  0  0  0  0  0  0  0  0  0  0  0
   67.9300   25.9780   50.4030 C   0  0  0  0  0  0  0  0  0  0  0  0
   68.6080   27.2460   49.9060 C   0  0  0  0  0  0  0  0  0  0  0  0
   67.8270   28.3820   50.5410 C   0  0  0  0  0  0  0  0  0  0  0  0
   63.4870   30.1920   51.1980 C   0  0  0  0  0  0  0  0  0  0  0  0
   62.1320   30.3690   50.9000 C   0  0  0  0  0  0  0  0  0  0  0  0
   60.1910   30.7700   48.6370 N   0  0  0  0  0  0  0  0  0  0  0  0
   59.9470   31.8290   47.6990 C   0  0  0  0  0  0  0  0  0  0  0  0
   58.7670   31.8320   46.9380 C   0  0  0  0  0  0  0  0  0  0  0  0
   58.5190   32.8460   46.0000 C   0  0  0  0  0  0  0  0  0  0  0  0
   57.2490   32.8670   45.2490 C   0  0  0  0  0  0  0  0  0  0  0  0
   56.7410   33.9680   44.9010 O   0  0  0  0  0  0  0  0  0  0  0  0
   56.6180   31.6370   44.8710 N   0  0  0  0  0  0  0  0  0  0  0  0
   57.0320   30.8360   43.7230 C   0  0  0  0  0  0  0  0  0  0  0  0
   57.0320   29.3390   44.0650 C   0  0  0  0  0  0  0  0  0  0  0  0
   58.1270   28.9790   45.0360 C   0  0  0  0  0  0  0  0  0  0  0  0
   57.8210   28.2850   46.2200 C   0  0  0  0  0  0  0  0  0  0  0  0
   58.8430   27.8830   47.0860 C   0  0  0  0  0  0  0  0  0  0  0  0
   60.1760   28.1660   46.7770 C   0  0  0  0  0  0  0  0  0  0  0  0
   60.4900   28.8610   45.6060 C   0  0  0  0  0  0  0  0  0  0  0  0
   59.4710   29.2690   44.7390 C   0  0  0  0  0  0  0  0  0  0  0  0
   59.4770   33.8540   45.8140 C   0  0  0  0  0  0  0  0  0  0  0  0
   60.6660   33.8420   46.5440 C   0  0  0  0  0  0  0  0  0  0  0  0
   60.9100   32.8380   47.4940 C   0  0  0  0  0  0  0  0  0  0  0  0
   62.1120   32.8790   48.2790 N   0  0  0  0  0  0  0  0  0  0  0  0
   63.4020   32.4300   47.7870 C   0  0  0  0  0  0  0  0  0  0  0  0
   64.3730   32.6600   48.9350 C   0  0  0  0  0  0  0  0  0  0  0  0
   63.6940   33.6740   49.8540 C   0  0  0  0  0  0  0  0  0  0  0  0
   62.2050   33.5790   49.5490 C   0  0  0  0  0  0  0  0  0  0  0  0
   59.2183   29.6766   51.7579 H   0  0  0  0  0  0  0  0  0  0  0  0
   59.3741   28.6227   50.3004 H   0  0  0  0  0  0  0  0  0  0  0  0
   60.9685   27.2845   51.8164 H   0  0  0  0  0  0  0  0  0  0  0  0
   63.3874   26.9673   52.3283 H   0  0  0  0  0  0  0  0  0  0  0  0
   66.8640   26.3551   52.2494 H   0  0  0  0  0  0  0  0  0  0  0  0
   65.8173   25.8401   50.9113 H   0  0  0  0  0  0  0  0  0  0  0  0
   68.6034   25.4172   51.0679 H   0  0  0  0  0  0  0  0  0  0  0  0
   67.6649   25.3051   49.5742 H   0  0  0  0  0  0  0  0  0  0  0  0
   69.6600   27.2733   50.2264 H   0  0  0  0  0  0  0  0  0  0  0  0
   68.6121   27.3098   48.8079 H   0  0  0  0  0  0  0  0  0  0  0  0
   68.3059   28.6983   51.4794 H   0  0  0  0  0  0  0  0  0  0  0  0
   67.7881   29.2632   49.8838 H   0  0  0  0  0  0  0  0  0  0  0  0
   64.1970   31.0141   51.0246 H   0  0  0  0  0  0  0  0  0  0  0  0
   61.7789   31.3328   50.5046 H   0  0  0  0  0  0  0  0  0  0  0  0
   60.9320   30.0670   48.4130 H   0  0  0  0  0  0  0  0  0  0  0  0
   58.0278   31.0296   47.0788 H   0  0  0  0  0  0  0  0  0  0  0  0
   56.3355   31.0144   42.8905 H   0  0  0  0  0  0  0  0  0  0  0  0
   58.0539   31.1303   43.4418 H   0  0  0  0  0  0  0  0  0  0  0  0
   56.0615   29.0773   44.5119 H   0  0  0  0  0  0  0  0  0  0  0  0
   57.2070   28.7791   43.1345 H   0  0  0  0  0  0  0  0  0  0  0  0
   56.7734   28.0573   46.4662 H   0  0  0  0  0  0  0  0  0  0  0  0
   58.5969   27.3430   48.0122 H   0  0  0  0  0  0  0  0  0  0  0  0
   60.9785   27.8416   47.4558 H   0  0  0  0  0  0  0  0  0  0  0  0
   61.5393   29.0874   45.3659 H   0  0  0  0  0  0  0  0  0  0  0  0
   59.7219   29.8194   43.8203 H   0  0  0  0  0  0  0  0  0  0  0  0
   59.2895   34.6589   45.0880 H   0  0  0  0  0  0  0  0  0  0  0  0
   61.4185   34.6260   46.3736 H   0  0  0  0  0  0  0  0  0  0  0  0
   63.3633   31.3628   47.5233 H   0  0  0  0  0  0  0  0  0  0  0  0
   63.7054   32.9720   46.8791 H   0  0  0  0  0  0  0  0  0  0  0  0
   64.5599   31.7192   49.4736 H   0  0  0  0  0  0  0  0  0  0  0  0
   65.3465   33.0254   48.5762 H   0  0  0  0  0  0  0  0  0  0  0  0
   63.8857   33.4242   50.9080 H   0  0  0  0  0  0  0  0  0  0  0  0
   64.0772   34.6915   49.6872 H   0  0  0  0  0  0  0  0  0  0  0  0
   61.6864   33.0144   50.3379 H   0  0  0  0  0  0  0  0  0  0  0  0
   61.7341   34.5720   49.5027 H   0  0  0  0  0  0  0  0  0  0  0  0
  1  2  2  0
  2  3  1  0
  3  4  1  0
  4  5  2  0
  5  6  1  0
  6  7  2  0
  7  8  1  0
  8  9  2  0
  8 10  2  0
  8 11  1  0
 11 12  1  0
 12 13  1  0
 13 14  1  0
 14 15  1  0
  7 16  1  0
 16 17  2  0
  2 18  1  0
 18 19  1  0
 19 20  2  0
 20 21  1  0
 21 22  1  0
 22 23  2  0
 22 24  1  0
 24 25  1  0
 25 26  1  0
 26 27  1  0
 27 28  2  0
 28 29  1  0
 29 30  2  0
 30 31  1  0
 31 32  2  0
 21 33  2  0
 33 34  1  0
 34 35  2  0
 35 36  1  0
 36 37  1  0
 37 38  1  0
 38 39  1  0
 39 40  1  0
 17  4  1  0
 35 19  1  0
 40 36  1  0
 15 11  1  0
 32 27  1  0
  3 41  1  0
  3 42  1  0
  5 43  1  0
  6 44  1  0
 12 45  1  0
 12 46  1  0
 13 47  1  0
 13 48  1  0
 14 49  1  0
 14 50  1  0
 15 51  1  0
 15 52  1  0
 16 53  1  0
 17 54  1  0
 18 55  1  0
 20 56  1  0
 25 57  1  0
 25 58  1  0
 26 59  1  0
 26 60  1  0
 28 61  1  0
 29 62  1  0
 30 63  1  0
 31 64  1  0
 32 65  1  0
 33 66  1  0
 34 67  1  0
 37 68  1  0
 37 69  1  0
 38 70  1  0
 38 71  1  0
 39 72  1  0
 39 73  1  0
 40 74  1  0
 40 75  1  0
M  CHG  1  24  -1
M  END
>  <UniqueID>  (56) 
52

>  <SMILES>  (56) 
O=C(Cc1ccc(S(=O)(=O)N2CCCC2)cc1)Nc1cc(C(=O)[N-]CCc2ccccc2)ccc1N1CCCC1

>  <Energy>  (56) 
80.97961894510894

>  <Genealogy>  (56) 
O=C(Cc1ccc(S(=O)(=O)N2CCCC2)cc1)Nc1cc(C(=O)[N-]CCc2ccccc2)ccc1N1CCCC1 (protonated)
O=C(Cc1ccc(S(=O)(=O)N2CCCC2)cc1)Nc1cc(C(=O)[N-]CCc2ccccc2)ccc1N1CCCC1 (3D coordinates assigned)
O=C(Cc1ccc(S(=O)(=O)N2CCCC2)cc1)Nc1cc(C(=O)[N-]CCc2ccccc2)ccc1N1CCCC1 (nonaromatic ring conformer: 80.97961894510894 kcal/mol)

>  <smiles>  (56) 
O=C(Cc1ccc(S(=O)(=O)N2CCCC2)cc1)Nc1cc(C(=O)NCCc2ccccc2)ccc1N1CCCC1

>  <score_type>  (56) 
oracle

>  <origin>  (56) 
adg

>  <m_score__min__energy>  (56) 
-11.699999999999999

>  <m_primary>  (56) 
energy

$$$$
56:0
     RDKit          3D

 66 70  0  0  0  0  0  0  0  0999 V2000
   52.8603   23.8209   45.0763 H   0  0  0  0  0  0  0  0  0  0  0  0
   53.9250   24.0860   44.9980 C   0  0  0  0  0  0  0  0  0  0  0  0
   54.4210   25.1270   45.7190 N   0  0  0  0  0  0  0  0  0  0  0  0
   55.7320   25.4950   45.6620 C   0  0  0  0  0  0  0  0  0  0  0  0
   56.1190   26.5140   46.3790 N   0  0  0  0  0  0  0  0  0  0  0  0
   57.4580   26.9250   46.7010 C   0  0  0  0  0  0  0  0  0  0  0  0
   58.1540   26.2430   47.5060 O   0  0  0  0  0  0  0  0  0  0  0  0
   58.0010   28.1880   46.1450 C   0  0  0  0  0  0  0  0  0  0  0  0
   59.3740   28.4780   46.2350 C   0  0  0  0  0  0  0  0  0  0  0  0
   60.0574   27.7483   46.6939 H   0  0  0  0  0  0  0  0  0  0  0  0
   59.8770   29.6880   45.7450 C   0  0  0  0  0  0  0  0  0  0  0  0
   60.9525   29.9054   45.8221 H   0  0  0  0  0  0  0  0  0  0  0  0
   59.0200   30.6200   45.1590 C   0  0  0  0  0  0  0  0  0  0  0  0
   59.4206   31.5735   44.7844 H   0  0  0  0  0  0  0  0  0  0  0  0
   57.6490   30.3450   45.0460 C   0  0  0  0  0  0  0  0  0  0  0  0
   56.7140   31.3300   44.3980 C   0  0  0  0  0  0  0  0  0  0  0  0
   55.8379   31.4788   45.0463 H   0  0  0  0  0  0  0  0  0  0  0  0
   56.3982   30.9336   43.4217 H   0  0  0  0  0  0  0  0  0  0  0  0
   57.3860   32.6110   44.1950 N   0  0  0  0  0  0  0  0  0  0  0  0
   57.3030   33.7700   45.0380 C   0  0  0  0  0  0  0  0  0  0  0  0
   56.2800   34.4990   44.9490 O   0  0  0  0  0  0  0  0  0  0  0  0
   58.3750   34.1250   46.0450 C   0  0  0  0  0  0  0  0  0  0  0  0
   58.1220   35.1020   46.4826 H   0  0  0  0  0  0  0  0  0  0  0  0
   59.7460   34.2230   45.3560 C   0  0  0  0  0  0  0  0  0  0  0  0
   59.7028   34.9934   44.5721 H   0  0  0  0  0  0  0  0  0  0  0  0
   59.9928   33.2460   44.9148 H   0  0  0  0  0  0  0  0  0  0  0  0
   60.8300   34.5960   46.3690 C   0  0  0  0  0  0  0  0  0  0  0  0
   60.6614   35.6271   46.7132 H   0  0  0  0  0  0  0  0  0  0  0  0
   61.8117   34.5089   45.8804 H   0  0  0  0  0  0  0  0  0  0  0  0
   60.8010   33.6910   47.5280 N   0  0  0  0  0  0  0  0  0  0  0  0
   62.0190   33.4290   48.2480 C   0  0  0  0  0  0  0  0  0  0  0  0
   62.8910   32.4080   47.8320 C   0  0  0  0  0  0  0  0  0  0  0  0
   62.6488   31.8149   46.9378 H   0  0  0  0  0  0  0  0  0  0  0  0
   64.0620   32.1400   48.5440 C   0  0  0  0  0  0  0  0  0  0  0  0
   64.7382   31.3404   48.2071 H   0  0  0  0  0  0  0  0  0  0  0  0
   64.3790   32.8900   49.6910 C   0  0  0  0  0  0  0  0  0  0  0  0
   65.5300   32.6370   50.4600 C   0  0  0  0  0  0  0  0  0  0  0  0
   66.3170   31.7030   50.1280 O   0  0  0  0  0  0  0  0  0  0  0  0
   65.7870   33.3920   51.5750 N   0  0  0  0  0  0  0  0  0  0  0  0
   66.9930   33.1550   52.3890 C   0  0  0  0  0  0  0  0  0  0  0  0
   67.0792   32.0796   52.6038 H   0  0  0  0  0  0  0  0  0  0  0  0
   66.9066   33.7232   53.3269 H   0  0  0  0  0  0  0  0  0  0  0  0
   68.2410   33.6200   51.6430 C   0  0  0  0  0  0  0  0  0  0  0  0
   69.0157   33.9086   52.3686 H   0  0  0  0  0  0  0  0  0  0  0  0
   68.6169   32.8016   51.0114 H   0  0  0  0  0  0  0  0  0  0  0  0
   67.9897   34.4848   51.0114 H   0  0  0  0  0  0  0  0  0  0  0  0
   64.9370   34.4020   51.9280 C   0  0  0  0  0  0  0  0  0  0  0  0
   65.1625   35.0194   52.8100 H   0  0  0  0  0  0  0  0  0  0  0  0
   63.8170   34.6520   51.2020 N   0  0  0  0  0  0  0  0  0  0  0  0
   63.5150   33.9220   50.1010 C   0  0  0  0  0  0  0  0  0  0  0  0
   62.3420   34.1860   49.3850 C   0  0  0  0  0  0  0  0  0  0  0  0
   61.6693   34.9913   49.7151 H   0  0  0  0  0  0  0  0  0  0  0  0
   59.5130   33.4450   48.1950 C   0  0  0  0  0  0  0  0  0  0  0  0
   59.2070   34.3533   48.7347 H   0  0  0  0  0  0  0  0  0  0  0  0
   59.6333   32.6058   48.8959 H   0  0  0  0  0  0  0  0  0  0  0  0
   58.4320   33.0800   47.1720 C   0  0  0  0  0  0  0  0  0  0  0  0
   57.4556   33.0400   47.6771 H   0  0  0  0  0  0  0  0  0  0  0  0
   58.6756   32.1007   46.7342 H   0  0  0  0  0  0  0  0  0  0  0  0
   57.1460   29.1290   45.5390 C   0  0  0  0  0  0  0  0  0  0  0  0
   56.0718   28.9095   45.4506 H   0  0  0  0  0  0  0  0  0  0  0  0
   56.6040   24.7870   44.8010 C   0  0  0  0  0  0  0  0  0  0  0  0
   57.6610   25.0802   44.7186 H   0  0  0  0  0  0  0  0  0  0  0  0
   56.1110   23.7130   44.0570 C   0  0  0  0  0  0  0  0  0  0  0  0
   56.7820   23.1504   43.3912 H   0  0  0  0  0  0  0  0  0  0  0  0
   54.7660   23.3540   44.1590 C   0  0  0  0  0  0  0  0  0  0  0  0
   54.3730   22.5027   43.5838 H   0  0  0  0  0  0  0  0  0  0  0  0
  1  2  1  0
  2  3  1  0
  3  4  1  0
  4  5  2  0
  5  6  1  0
  6  7  2  0
  6  8  1  0
  8  9  2  0
  9 10  1  0
  9 11  1  0
 11 12  1  0
 11 13  2  0
 13 14  1  0
 13 15  1  0
 15 16  1  0
 16 17  1  0
 16 18  1  0
 16 19  1  0
 19 20  1  0
 20 21  2  0
 20 22  1  0
 22 23  1  0
 22 24  1  0
 24 25  1  0
 24 26  1  0
 24 27  1  0
 27 28  1  0
 27 29  1  0
 27 30  1  0
 30 31  1  0
 31 32  2  0
 32 33  1  0
 32 34  1  0
 34 35  1  0
 34 36  2  0
 36 37  1  0
 37 38  2  0
 37 39  1  0
 39 40  1  0
 40 41  1  0
 40 42  1  0
 40 43  1  0
 43 44  1  0
 43 45  1  0
 43 46  1  0
 39 47  1  0
 47 48  1  0
 47 49  2  0
 49 50  1  0
 50 51  2  0
 51 52  1  0
 30 53  1  0
 53 54  1  0
 53 55  1  0
 53 56  1  0
 56 57  1  0
 56 58  1  0
 15 59  2  0
 59 60  1  0
  4 61  1  0
 61 62  1  0
 61 63  2  0
 63 64  1  0
 63 65  1  0
 65 66  1  0
 65  2  2  0
 59  8  1  0
 56 22  1  0
 51 31  1  0
 50 36  1  0
M  CHG  2   3  -1  19  -1
M  END
>  <UniqueID>  (57) 
53

>  <SMILES>  (57) 
CCn1cnc2cc(N3CCC(C(=O)[N-]Cc4cccc(C(=O)/N=c5\cccc[n-]5)c4)CC3)ccc2c1=O

>  <Energy>  (57) 
83.06304415609566

>  <Genealogy>  (57) 
CCn1cnc2cc(N3CCC(C(=O)[N-]Cc4cccc(C(=O)N=c5cccc[n-]5)c4)CC3)ccc2c1=O (protonated)
CCn1cnc2cc(N3CCC(C(=O)[N-]Cc4cccc(C(=O)/N=c5\cccc[n-]5)c4)CC3)ccc2c1=O (cis-trans isomerization)
CCn1cnc2cc(N3CCC(C(=O)[N-]Cc4cccc(C(=O)/N=c5\cccc[n-]5)c4)CC3)ccc2c1=O (3D coordinates assigned)
CCn1cnc2cc(N3CCC(C(=O)[N-]Cc4cccc(C(=O)/N=c5\cccc[n-]5)c4)CC3)ccc2c1=O (nonaromatic ring conformer: 83.06304415609566 kcal/mol)

>  <smiles>  (57) 
CCn1cnc2cc(N3CCC(C(=O)NCc4cccc(C(=O)N=c5cccc[nH]5)c4)CC3)ccc2c1=O

>  <score_type>  (57) 
oracle

>  <origin>  (57) 
adg

>  <m_score__min__energy>  (57) 
-12.880000000000001

>  <m_primary>  (57) 
energy

$$$$
57:0
     RDKit          3D

 57 62  0  0  0  0  0  0  0  0999 V2000
   57.0180   30.3300   45.2860 O   0  0  0  0  0  0  0  0  0  0  0  0
   58.0820   30.3770   45.9620 C   0  0  0  0  0  0  0  0  0  0  0  0
   58.6650   31.5350   46.3340 N   0  0  0  0  0  0  0  0  0  0  0  0
   59.7970   31.5700   47.0530 C   0  0  0  0  0  0  0  0  0  0  0  0
   60.4450   32.7580   47.4670 N   0  0  0  0  0  0  0  0  0  0  0  0
   60.0230   33.5330   48.6360 C   0  0  0  0  0  0  0  0  0  0  0  0
   61.2930   34.0880   49.2620 C   0  0  0  0  0  0  0  0  0  0  0  0
   62.4560   33.1470   49.0170 C   0  0  0  0  0  0  0  0  0  0  0  0
   63.6200   33.5490   49.7380 N   0  0  0  0  0  0  0  0  0  0  0  0
   63.2440   33.8310   51.1040 C   0  0  0  0  0  0  0  0  0  0  0  0
   64.2470   34.6850   51.8290 C   0  0  0  0  0  0  0  0  0  0  0  0
   65.6040   34.2330   51.4320 C   0  0  0  0  0  0  0  0  0  0  0  0
   66.6660   34.7980   52.1450 C   0  0  0  0  0  0  0  0  0  0  0  0
   67.9810   34.4610   51.8760 C   0  0  0  0  0  0  0  0  0  0  0  0
   68.2190   33.5390   50.8680 C   0  0  0  0  0  0  0  0  0  0  0  0
   67.1690   32.9720   50.1540 C   0  0  0  0  0  0  0  0  0  0  0  0
   65.8450   33.3160   50.4320 C   0  0  0  0  0  0  0  0  0  0  0  0
   64.7510   32.6790   49.6360 C   0  0  0  0  0  0  0  0  0  0  0  0
   62.8100   32.9910   47.5660 C   0  0  0  0  0  0  0  0  0  0  0  0
   61.5820   33.2820   46.7380 C   0  0  0  0  0  0  0  0  0  0  0  0
   60.3380   30.3880   47.3970 N   0  0  0  0  0  0  0  0  0  0  0  0
   59.8110   29.2100   47.0630 C   0  0  0  0  0  0  0  0  0  0  0  0
   58.6550   29.2010   46.3280 C   0  0  0  0  0  0  0  0  0  0  0  0
   57.9880   27.9490   45.9050 C   0  0  0  0  0  0  0  0  0  0  0  0
   57.1610   27.2040   46.1920 N   0  0  0  0  0  0  0  0  0  0  0  0
   56.7330   26.1020   45.6210 C   0  0  0  0  0  0  0  0  0  0  0  0
   55.7160   25.2140   46.0000 C   0  0  0  0  0  0  0  0  0  0  0  0
   55.4720   24.1230   45.2120 C   0  0  0  0  0  0  0  0  0  0  0  0
   56.1510   23.8130   44.0550 C   0  0  0  0  0  0  0  0  0  0  0  0
   57.1680   24.6860   43.6610 C   0  0  0  0  0  0  0  0  0  0  0  0
   57.3960   25.7750   44.4670 C   0  0  0  0  0  0  0  0  0  0  0  0
   58.6350   27.1370   44.2860 S   0  0  0  0  0  0  0  0  0  0  0  0
   58.2080   32.4050   46.0400 H   0  0  0  0  0  0  0  0  0  0  0  0
   59.3594   34.3547   48.3288 H   0  0  0  0  0  0  0  0  0  0  0  0
   59.4657   32.9083   49.3496 H   0  0  0  0  0  0  0  0  0  0  0  0
   61.5190   35.0678   48.8160 H   0  0  0  0  0  0  0  0  0  0  0  0
   61.1406   34.1932   50.3463 H   0  0  0  0  0  0  0  0  0  0  0  0
   62.1082   32.1698   49.3833 H   0  0  0  0  0  0  0  0  0  0  0  0
   62.2767   34.3548   51.0996 H   0  0  0  0  0  0  0  0  0  0  0  0
   63.1896   32.8686   51.6339 H   0  0  0  0  0  0  0  0  0  0  0  0
   64.1088   35.7405   51.5518 H   0  0  0  0  0  0  0  0  0  0  0  0
   64.1150   34.5904   52.9170 H   0  0  0  0  0  0  0  0  0  0  0  0
   66.4509   35.5282   52.9391 H   0  0  0  0  0  0  0  0  0  0  0  0
   68.8100   34.9097   52.4430 H   0  0  0  0  0  0  0  0  0  0  0  0
   69.2538   33.2518   50.6296 H   0  0  0  0  0  0  0  0  0  0  0  0
   67.3847   32.2425   49.3594 H   0  0  0  0  0  0  0  0  0  0  0  0
   65.0568   32.5739   48.5846 H   0  0  0  0  0  0  0  0  0  0  0  0
   64.5162   31.6729   50.0136 H   0  0  0  0  0  0  0  0  0  0  0  0
   63.6112   33.6969   47.3018 H   0  0  0  0  0  0  0  0  0  0  0  0
   63.1604   31.9665   47.3722 H   0  0  0  0  0  0  0  0  0  0  0  0
   61.4714   34.3670   46.5949 H   0  0  0  0  0  0  0  0  0  0  0  0
   61.6594   32.8164   45.7444 H   0  0  0  0  0  0  0  0  0  0  0  0
   60.2919   28.2694   47.3697 H   0  0  0  0  0  0  0  0  0  0  0  0
   55.1269   25.3911   46.9119 H   0  0  0  0  0  0  0  0  0  0  0  0
   54.6701   23.4393   45.5275 H   0  0  0  0  0  0  0  0  0  0  0  0
   55.9035   22.9171   43.4666 H   0  0  0  0  0  0  0  0  0  0  0  0
   57.7578   24.5100   42.7493 H   0  0  0  0  0  0  0  0  0  0  0  0
  1  2  2  0
  2  3  1  0
  3  4  1  0
  4  5  1  0
  5  6  1  0
  6  7  1  0
  7  8  1  0
  8  9  1  0
  9 10  1  0
 10 11  1  0
 11 12  1  0
 12 13  2  0
 13 14  1  0
 14 15  2  0
 15 16  1  0
 16 17  2  0
 17 18  1  0
  8 19  1  0
 19 20  1  0
  4 21  2  0
 21 22  1  0
 22 23  2  0
 23 24  1  0
 24 25  2  0
 25 26  1  0
 26 27  2  0
 27 28  1  0
 28 29  2  0
 29 30  1  0
 30 31  2  0
 31 32  1  0
 23  2  1  0
 32 24  1  0
 20  5  1  0
 31 26  1  0
 18  9  1  0
 17 12  1  0
  3 33  1  0
  6 34  1  0
  6 35  1  0
  7 36  1  0
  7 37  1  0
  8 38  1  0
 10 39  1  0
 10 40  1  0
 11 41  1  0
 11 42  1  0
 13 43  1  0
 14 44  1  0
 15 45  1  0
 16 46  1  0
 18 47  1  0
 18 48  1  0
 19 49  1  0
 19 50  1  0
 20 51  1  0
 20 52  1  0
 22 53  1  0
 27 54  1  0
 28 55  1  0
 29 56  1  0
 30 57  1  0
M  END
>  <smiles>  (58) 
O=c1[nH]c(N2CCC(N3CCc4ccccc4C3)CC2)ncc1-c1nc2ccccc2s1

>  <score_type>  (58) 
oracle

>  <origin>  (58) 
adg

>  <m_score__min__energy>  (58) 
-8.7400000000000002

>  <m_primary>  (58) 
energy

$$$$
58:0
     RDKit          3D

 43 45  0  0  0  0  0  0  0  0999 V2000
   53.8440   23.7220   44.4610 C   0  0  0  0  0  0  0  0  0  0  0  0
   54.7430   24.4830   45.8490 S   0  0  0  0  0  0  0  0  0  0  0  0
   56.3150   23.7110   45.4260 C   0  0  0  0  0  0  0  0  0  0  0  0
   56.2990   22.5740   44.6080 C   0  0  0  0  0  0  0  0  0  0  0  0
   57.4890   21.9270   44.2720 C   0  0  0  0  0  0  0  0  0  0  0  0
   58.7070   22.4130   44.7480 C   0  0  0  0  0  0  0  0  0  0  0  0
   58.7390   23.5550   45.5520 C   0  0  0  0  0  0  0  0  0  0  0  0
   57.5500   24.2270   45.8870 C   0  0  0  0  0  0  0  0  0  0  0  0
   57.6270   25.4690   46.7440 C   0  0  0  0  0  0  0  0  0  0  0  0
   57.8570   26.6850   45.8990 C   0  0  0  0  0  0  0  0  0  0  0  0
   59.0740   27.0930   45.4750 N   0  0  0  0  0  0  0  0  0  0  0  0
   58.8020   28.1980   44.7460 C   0  0  0  0  0  0  0  0  0  0  0  0
   59.6970   28.8710   44.1670 O   0  0  0  0  0  0  0  0  0  0  0  0
   57.4890   28.5060   44.6940 N   0  0  0  0  0  0  0  0  0  0  0  0
   56.8490   29.5870   43.9470 C   0  0  0  0  0  0  0  0  0  0  0  0
   57.1060   30.8980   44.6240 C   0  0  0  0  0  0  0  0  0  0  0  0
   56.1510   31.7050   44.7870 O   0  0  0  0  0  0  0  0  0  0  0  0
   58.4070   31.1840   45.1640 N   0  0  0  0  0  0  0  0  0  0  0  0
   58.7960   32.4610   45.6960 C   0  0  0  0  0  0  0  0  0  0  0  0
   58.8390   33.5770   44.8460 C   0  0  0  0  0  0  0  0  0  0  0  0
   59.1930   34.8350   45.3440 C   0  0  0  0  0  0  0  0  0  0  0  0
   59.4920   34.9910   46.7010 C   0  0  0  0  0  0  0  0  0  0  0  0
   59.4290   33.8930   47.5610 C   0  0  0  0  0  0  0  0  0  0  0  0
   59.7000   34.0500   48.8800 F   0  0  0  0  0  0  0  0  0  0  0  0
   59.0770   32.6320   47.0650 C   0  0  0  0  0  0  0  0  0  0  0  0
   56.8930   27.5390   45.4110 C   0  0  0  0  0  0  0  0  0  0  0  0
   55.5220   27.4360   45.6150 O   0  0  0  0  0  0  0  0  0  0  0  0
   53.0594   23.0578   44.8525 H   0  0  0  0  0  0  0  0  0  0  0  0
   53.3844   24.5097   43.8459 H   0  0  0  0  0  0  0  0  0  0  0  0
   54.5450   23.1387   43.8459 H   0  0  0  0  0  0  0  0  0  0  0  0
   55.3416   22.1883   44.2277 H   0  0  0  0  0  0  0  0  0  0  0  0
   57.4666   21.0331   43.6313 H   0  0  0  0  0  0  0  0  0  0  0  0
   59.6432   21.8964   44.4900 H   0  0  0  0  0  0  0  0  0  0  0  0
   59.7024   23.9317   45.9262 H   0  0  0  0  0  0  0  0  0  0  0  0
   56.6822   25.5861   47.2950 H   0  0  0  0  0  0  0  0  0  0  0  0
   58.4681   25.3623   47.4448 H   0  0  0  0  0  0  0  0  0  0  0  0
   57.2587   29.6172   42.9266 H   0  0  0  0  0  0  0  0  0  0  0  0
   55.7646   29.4068   43.9078 H   0  0  0  0  0  0  0  0  0  0  0  0
   59.0800   30.3910   45.2530 H   0  0  0  0  0  0  0  0  0  0  0  0
   58.5924   33.4614   43.7802 H   0  0  0  0  0  0  0  0  0  0  0  0
   59.2362   35.7018   44.6681 H   0  0  0  0  0  0  0  0  0  0  0  0
   59.7770   35.9792   47.0911 H   0  0  0  0  0  0  0  0  0  0  0  0
   59.0197   31.7713   47.7476 H   0  0  0  0  0  0  0  0  0  0  0  0
  1  2  1  0
  2  3  1  0
  3  4  2  0
  4  5  1  0
  5  6  2  0
  6  7  1  0
  7  8  2  0
  8  9  1  0
  9 10  1  0
 10 11  1  0
 11 12  1  0
 12 13  2  0
 12 14  1  0
 14 15  1  0
 15 16  1  0
 16 17  2  0
 16 18  1  0
 18 19  1  0
 19 20  2  0
 20 21  1  0
 21 22  2  0
 22 23  1  0
 23 24  1  0
 23 25  2  0
 14 26  1  0
 26 27  1  0
  8  3  1  0
 26 10  2  0
 25 19  1  0
  1 28  1  0
  1 29  1  0
  1 30  1  0
  4 31  1  0
  5 32  1  0
  6 33  1  0
  7 34  1  0
  9 35  1  0
  9 36  1  0
 15 37  1  0
 15 38  1  0
 18 39  1  0
 20 40  1  0
 21 41  1  0
 22 42  1  0
 25 43  1  0
M  CHG  2  11  -1  27  -1
M  END
>  <UniqueID>  (59) 
54

>  <SMILES>  (59) 
CSc1ccccc1Cc1[n-]c(=O)n(CC(=O)Nc2cccc(F)c2)c1[O-]

>  <Energy>  (59) 
73.98318019898262

>  <Genealogy>  (59) 
CSc1ccccc1Cc1[n-]c(=O)n(CC(=O)Nc2cccc(F)c2)c1[O-] (protonated)
CSc1ccccc1Cc1[n-]c(=O)n(CC(=O)Nc2cccc(F)c2)c1[O-] (3D coordinates assigned)
CSc1ccccc1Cc1[n-]c(=O)n(CC(=O)Nc2cccc(F)c2)c1[O-] (optimized conformer: 73.98318019898262 kcal/mol)

>  <smiles>  (59) 
CSc1ccccc1Cc1[nH]c(=O)n(CC(=O)Nc2cccc(F)c2)c1O

>  <score_type>  (59) 
oracle

>  <origin>  (59) 
adg

>  <m_score__min__energy>  (59) 
-12.15

>  <m_primary>  (59) 
energy

$$$$
59:0
     RDKit          3D

 43 45  0  0  0  0  0  0  0  0999 V2000
   56.4300   30.3040   43.9050 C   0  0  0  0  0  0  0  0  0  0  0  0
   56.3120   31.5780   44.5310 O   0  0  0  0  0  0  0  0  0  0  0  0
   57.3860   32.2900   45.0870 C   0  0  0  0  0  0  0  0  0  0  0  0
   58.0230   33.3440   44.4100 C   0  0  0  0  0  0  0  0  0  0  0  0
   59.0920   34.0190   45.0030 C   0  0  0  0  0  0  0  0  0  0  0  0
   59.5410   33.6580   46.2870 C   0  0  0  0  0  0  0  0  0  0  0  0
   60.6240   34.3090   46.9020 O   0  0  0  0  0  0  0  0  0  0  0  0
   61.9850   33.9130   46.7730 C   0  0  0  0  0  0  0  0  0  0  0  0
   58.8930   32.6120   46.9730 C   0  0  0  0  0  0  0  0  0  0  0  0
   59.4170   32.1350   48.5910 S   0  0  0  0  0  0  0  0  0  0  0  0
   60.5550   33.0210   49.0140 O   0  0  0  0  0  0  0  0  0  0  0  0
   58.2920   32.2750   49.5780 O   0  0  0  0  0  0  0  0  0  0  0  0
   59.9600   30.4870   48.5970 N   0  0  0  0  0  0  0  0  0  0  0  0
   59.8730   29.5830   47.4870 C   0  0  0  0  0  0  0  0  0  0  0  0
   60.7970   29.6090   46.4270 C   0  0  0  0  0  0  0  0  0  0  0  0
   60.6780   28.7060   45.3700 C   0  0  0  0  0  0  0  0  0  0  0  0
   59.6400   27.7720   45.3550 C   0  0  0  0  0  0  0  0  0  0  0  0
   58.7060   27.7290   46.4060 C   0  0  0  0  0  0  0  0  0  0  0  0
   57.6030   26.7350   46.3940 C   0  0  0  0  0  0  0  0  0  0  0  0
   56.3050   27.0910   45.9950 C   0  0  0  0  0  0  0  0  0  0  0  0
   55.3130   26.1640   45.9940 N   0  0  0  0  0  0  0  0  0  0  0  0
   55.5500   24.8810   46.3750 C   0  0  0  0  0  0  0  0  0  0  0  0
   54.5940   24.0100   46.3680 N   0  0  0  0  0  0  0  0  0  0  0  0
   56.7970   24.5110   46.7640 N   0  0  0  0  0  0  0  0  0  0  0  0
   57.8200   25.4040   46.7840 C   0  0  0  0  0  0  0  0  0  0  0  0
   58.8340   28.6440   47.4680 C   0  0  0  0  0  0  0  0  0  0  0  0
   57.8310   31.9300   46.3630 C   0  0  0  0  0  0  0  0  0  0  0  0
   56.5024   29.5222   44.6754 H   0  0  0  0  0  0  0  0  0  0  0  0
   55.5450   30.1201   43.2781 H   0  0  0  0  0  0  0  0  0  0  0  0
   57.3337   30.2858   43.2781 H   0  0  0  0  0  0  0  0  0  0  0  0
   57.6778   33.6387   43.4080 H   0  0  0  0  0  0  0  0  0  0  0  0
   59.5869   34.8392   44.4623 H   0  0  0  0  0  0  0  0  0  0  0  0
   62.4259   33.7847   47.7726 H   0  0  0  0  0  0  0  0  0  0  0  0
   62.0396   32.9617   46.2234 H   0  0  0  0  0  0  0  0  0  0  0  0
   62.5414   34.6865   46.2234 H   0  0  0  0  0  0  0  0  0  0  0  0
   61.6159   30.3434   46.4313 H   0  0  0  0  0  0  0  0  0  0  0  0
   61.4050   28.7299   44.5449 H   0  0  0  0  0  0  0  0  0  0  0  0
   59.5522   27.0657   44.5163 H   0  0  0  0  0  0  0  0  0  0  0  0
   56.0911   28.1237   45.6823 H   0  0  0  0  0  0  0  0  0  0  0  0
   54.0960   23.7400   47.2450 H   0  0  0  0  0  0  0  0  0  0  0  0
   58.8215   25.0834   47.1067 H   0  0  0  0  0  0  0  0  0  0  0  0
   58.1081   28.6212   48.2942 H   0  0  0  0  0  0  0  0  0  0  0  0
   57.3413   31.1009   46.8949 H   0  0  0  0  0  0  0  0  0  0  0  0
  1  2  1  0
  2  3  1  0
  3  4  2  0
  4  5  1  0
  5  6  2  0
  6  7  1  0
  7  8  1  0
  6  9  1  0
  9 10  1  0
 10 11  2  0
 10 12  2  0
 10 13  1  0
 13 14  1  0
 14 15  2  0
 15 16  1  0
 16 17  2  0
 17 18  1  0
 18 19  1  0
 19 20  1  0
 20 21  2  0
 21 22  1  0
 22 23  2  3
 22 24  1  0
 24 25  1  0
 18 26  2  0
  9 27  2  0
 27  3  1  0
 26 14  1  0
 25 19  2  0
  1 28  1  0
  1 29  1  0
  1 30  1  0
  4 31  1  0
  5 32  1  0
  8 33  1  0
  8 34  1  0
  8 35  1  0
 15 36  1  0
 16 37  1  0
 17 38  1  0
 20 39  1  0
 23 40  1  0
 25 41  1  0
 26 42  1  0
 27 43  1  0
M  CHG  2  13  -1  24  -1
M  END
>  <UniqueID>  (60) 
55

>  <SMILES>  (60) 
COc1ccc(OC)c(S(=O)(=O)[N-]c2cccc(-c3cnc(=N)[n-]c3)c2)c1

>  <Energy>  (60) 
54.10317820274749

>  <Genealogy>  (60) 
COc1ccc(OC)c(S(=O)(=O)[N-]c2cccc(-c3cnc(=N)[n-]c3)c2)c1 (protonated)
COc1ccc(OC)c(S(=O)(=O)[N-]c2cccc(-c3cnc(=N)[n-]c3)c2)c1 (3D coordinates assigned)
COc1ccc(OC)c(S(=O)(=O)[N-]c2cccc(-c3cnc(=N)[n-]c3)c2)c1 (optimized conformer: 54.10317820274749 kcal/mol)

>  <smiles>  (60) 
COc1ccc(OC)c(S(=O)(=O)Nc2cccc(-c3cnc(=N)[nH]c3)c2)c1

>  <score_type>  (60) 
oracle

>  <origin>  (60) 
adg

>  <m_score__min__energy>  (60) 
-10.960000000000001

>  <m_primary>  (60) 
energy

$$$$
60:0
     RDKit          3D

 54 57  0  0  0  0  0  0  0  0999 V2000
   58.4370   29.9240   47.2010 C   0  0  0  0  0  0  0  0  0  0  0  0
   58.0180   30.5650   46.0980 C   0  0  0  0  0  0  0  0  0  0  0  0
   57.2920   30.0170   45.0280 C   0  0  0  0  0  0  0  0  0  0  0  0
   56.6400   28.8430   44.9120 C   0  0  0  0  0  0  0  0  0  0  0  0
   57.0260   27.5820   45.5650 C   0  0  0  0  0  0  0  0  0  0  0  0
   58.2840   27.2460   45.9010 N   0  0  0  0  0  0  0  0  0  0  0  0
   58.1260   26.0920   46.5880 C   0  0  0  0  0  0  0  0  0  0  0  0
   59.0970   25.4480   47.0630 O   0  0  0  0  0  0  0  0  0  0  0  0
   56.8450   25.6900   46.7320 N   0  0  0  0  0  0  0  0  0  0  0  0
   56.1620   26.6530   46.0910 C   0  0  0  0  0  0  0  0  0  0  0  0
   54.7760   26.6830   45.9940 O   0  0  0  0  0  0  0  0  0  0  0  0
   57.3280   30.9590   44.0130 C   0  0  0  0  0  0  0  0  0  0  0  0
   57.9900   32.0610   44.5130 C   0  0  0  0  0  0  0  0  0  0  0  0
   58.2240   33.3290   43.7480 C   0  0  0  0  0  0  0  0  0  0  0  0
   58.4100   31.8260   45.7760 N   0  0  0  0  0  0  0  0  0  0  0  0
   59.1520   32.7410   46.6020 C   0  0  0  0  0  0  0  0  0  0  0  0
   58.5260   33.4130   47.6580 C   0  0  0  0  0  0  0  0  0  0  0  0
   59.2670   34.2890   48.4500 C   0  0  0  0  0  0  0  0  0  0  0  0
   60.5880   34.4870   48.1950 N   0  0  0  0  0  0  0  0  0  0  0  0
   61.2360   33.8540   47.1790 C   0  0  0  0  0  0  0  0  0  0  0  0
   62.5030   34.1040   47.0000 N   0  0  0  0  0  0  0  0  0  0  0  0
   63.6020   33.1370   46.9640 C   0  0  0  0  0  0  0  0  0  0  0  0
   64.3340   33.0950   48.3140 C   0  0  0  0  0  0  0  0  0  0  0  0
   63.7220   32.0930   49.3140 C   0  0  0  0  0  0  0  0  0  0  0  0
   62.2420   32.1860   49.3970 N   0  0  2  0  0  0  0  0  0  0  0  0
   61.7380   32.2450   50.7850 C   0  0  0  0  0  0  0  0  0  0  0  0
   60.5540   31.2800   50.9120 C   0  0  0  0  0  0  0  0  0  0  0  0
   60.6850   30.3080   49.7570 C   0  0  0  0  0  0  0  0  0  0  0  0
   61.6290   31.0040   48.8590 C   0  0  0  0  0  0  0  0  0  0  0  0
   61.8230   30.6330   47.7110 O   0  0  0  0  0  0  0  0  0  0  0  0
   60.5150   32.9620   46.3580 C   0  0  0  0  0  0  0  0  0  0  0  0
   59.0013   30.4683   47.9726 H   0  0  0  0  0  0  0  0  0  0  0  0
   58.2160   28.8545   47.3330 H   0  0  0  0  0  0  0  0  0  0  0  0
   55.7433   28.8261   44.2752 H   0  0  0  0  0  0  0  0  0  0  0  0
   56.9089   30.8492   43.0019 H   0  0  0  0  0  0  0  0  0  0  0  0
   58.3773   34.1595   44.4528 H   0  0  0  0  0  0  0  0  0  0  0  0
   59.1164   33.2159   43.1149 H   0  0  0  0  0  0  0  0  0  0  0  0
   57.3500   33.5419   43.1149 H   0  0  0  0  0  0  0  0  0  0  0  0
   57.4572   33.2512   47.8616 H   0  0  0  0  0  0  0  0  0  0  0  0
   58.7825   34.8207   49.2822 H   0  0  0  0  0  0  0  0  0  0  0  0
   63.1972   32.1386   46.7417 H   0  0  0  0  0  0  0  0  0  0  0  0
   64.3157   33.4422   46.1845 H   0  0  0  0  0  0  0  0  0  0  0  0
   65.3814   32.8113   48.1336 H   0  0  0  0  0  0  0  0  0  0  0  0
   64.2444   34.0955   48.7622 H   0  0  0  0  0  0  0  0  0  0  0  0
   63.9920   31.0743   48.9990 H   0  0  0  0  0  0  0  0  0  0  0  0
   64.1231   32.3351   50.3093 H   0  0  0  0  0  0  0  0  0  0  0  0
   61.8920   33.0080   48.8490 H   0  0  0  0  0  0  0  0  0  0  0  0
   62.5352   31.9485   51.4825 H   0  0  0  0  0  0  0  0  0  0  0  0
   61.4181   33.2692   51.0274 H   0  0  0  0  0  0  0  0  0  0  0  0
   60.5991   30.7431   51.8710 H   0  0  0  0  0  0  0  0  0  0  0  0
   59.5928   31.8140   50.8835 H   0  0  0  0  0  0  0  0  0  0  0  0
   61.0938   29.3438   50.0933 H   0  0  0  0  0  0  0  0  0  0  0  0
   59.7250   30.0628   49.2792 H   0  0  0  0  0  0  0  0  0  0  0  0
   61.0196   32.4422   45.5302 H   0  0  0  0  0  0  0  0  0  0  0  0
  1  2  2  0
  2  3  1  0
  3  4  2  3
  4  5  1  0
  5  6  1  0
  6  7  1  0
  7  8  2  0
  7  9  1  0
  9 10  1  0
 10 11  1  0
  3 12  1  0
 12 13  2  0
 13 14  1  0
 13 15  1  0
 15 16  1  0
 16 17  1  0
 17 18  2  0
 18 19  1  0
 19 20  1  0
 20 21  2  3
 21 22  1  0
 22 23  1  0
 23 24  1  0
 24 25  1  0
 25 26  1  0
 26 27  1  0
 27 28  1  0
 28 29  1  0
 29 30  2  0
 20 31  1  0
 15  2  1  0
 31 16  2  0
 10  5  2  0
 29 25  1  0
  1 32  1  0
  1 33  1  0
  4 34  1  0
 12 35  1  0
 14 36  1  0
 14 37  1  0
 14 38  1  0
 17 39  1  0
 18 40  1  0
 22 41  1  0
 22 42  1  0
 23 43  1  0
 23 44  1  0
 24 45  1  0
 24 46  1  0
 25 47  1  6
 26 48  1  0
 26 49  1  0
 27 50  1  0
 27 51  1  0
 28 52  1  0
 28 53  1  0
 31 54  1  0
M  CHG  5   6  -1   9  -1  11  -1  19  -1  25   1
M  END
>  <UniqueID>  (61) 
56

>  <SMILES>  (61) 
C=c1c(=Cc2[n-]c(=O)[n-]c2[O-])cc(C)n1-c1cc[n-]c(=NCCC[N@@H+]2CCCC2=O)c1

>  <Energy>  (61) 
136.55390741639428

>  <Genealogy>  (61) 
C=c1c(=Cc2[n-]c(=O)[n-]c2[O-])cc(C)n1-c1cc[n-]c(=NCCC[NH+]2CCCC2=O)c1 (protonated)
C=c1c(=Cc2[n-]c(=O)[n-]c2[O-])cc(C)n1-c1cc[n-]c(=NCCC[N@@H+]2CCCC2=O)c1 (chirality)
C=c1c(=Cc2[n-]c(=O)[n-]c2[O-])cc(C)n1-c1cc[n-]c(=NCCC[N@@H+]2CCCC2=O)c1 (3D coordinates assigned)
C=c1c(=Cc2[n-]c(=O)[n-]c2[O-])cc(C)n1-c1cc[n-]c(=NCCC[N@@H+]2CCCC2=O)c1 (nonaromatic ring conformer: 136.55390741639428 kcal/mol)

>  <smiles>  (61) 
C=c1c(=Cc2[nH]c(=O)[nH]c2O)cc(C)n1-c1cc[nH]c(=NCCCN2CCCC2=O)c1

>  <score_type>  (61) 
oracle

>  <origin>  (61) 
adg

>  <m_score__min__energy>  (61) 
-15.390000000000001

>  <m_primary>  (61) 
energy

$$$$
61:0
     RDKit          3D

 38 40  0  0  0  0  0  0  0  0999 V2000
   56.6330   29.2860   42.6720 C   0  0  0  0  0  0  0  0  0  0  0  0
   57.1030   30.2570   43.7060 C   0  0  0  0  0  0  0  0  0  0  0  0
   56.8640   31.5810   43.6220 N   0  0  0  0  0  0  0  0  0  0  0  0
   57.4220   32.0700   44.7490 C   0  0  0  0  0  0  0  0  0  0  0  0
   57.3830   33.5130   45.1320 C   0  0  0  0  0  0  0  0  0  0  0  0
   58.4560   33.8000   46.1450 C   0  0  0  0  0  0  0  0  0  0  0  0
   59.6880   34.3410   45.7370 C   0  0  0  0  0  0  0  0  0  0  0  0
   60.7000   34.5700   46.6740 C   0  0  0  0  0  0  0  0  0  0  0  0
   60.4940   34.2530   48.0200 C   0  0  0  0  0  0  0  0  0  0  0  0
   61.4780   34.4730   48.9260 F   0  0  0  0  0  0  0  0  0  0  0  0
   59.2770   33.7020   48.4300 C   0  0  0  0  0  0  0  0  0  0  0  0
   58.2620   33.4710   47.4960 C   0  0  0  0  0  0  0  0  0  0  0  0
   57.9670   31.1370   45.4960 O   0  0  0  0  0  0  0  0  0  0  0  0
   57.7980   29.9950   44.8780 C   0  0  0  0  0  0  0  0  0  0  0  0
   58.2790   28.7140   45.4350 C   0  0  0  0  0  0  0  0  0  0  0  0
   59.6190   28.3740   45.6410 C   0  0  0  0  0  0  0  0  0  0  0  0
   59.6710   26.8300   46.3110 S   0  0  0  0  0  0  0  0  0  0  0  0
   58.0020   26.6660   46.3150 C   0  0  0  0  0  0  0  0  0  0  0  0
   57.3070   25.5120   46.7860 N   0  0  0  0  0  0  0  0  0  0  0  0
   55.7990   25.0140   46.0960 S   0  0  0  0  0  0  0  0  0  0  0  0
   56.0770   24.2860   44.4960 C   0  0  0  0  0  0  0  0  0  0  0  0
   55.1570   23.9940   46.9930 O   0  0  0  0  0  0  0  0  0  0  0  0
   54.8840   26.2000   45.9690 O   0  0  0  0  0  0  0  0  0  0  0  0
   57.3870   27.7610   45.8200 N   0  0  0  0  0  0  0  0  0  0  0  0
   56.2050   28.4018   43.1670 H   0  0  0  0  0  0  0  0  0  0  0  0
   55.8656   29.7620   42.0439 H   0  0  0  0  0  0  0  0  0  0  0  0
   57.4824   28.9794   42.0439 H   0  0  0  0  0  0  0  0  0  0  0  0
   57.5492   34.1326   44.2385 H   0  0  0  0  0  0  0  0  0  0  0  0
   56.4003   33.7468   45.5676 H   0  0  0  0  0  0  0  0  0  0  0  0
   59.8561   34.5847   44.6776 H   0  0  0  0  0  0  0  0  0  0  0  0
   61.6597   35.0002   46.3518 H   0  0  0  0  0  0  0  0  0  0  0  0
   59.1172   33.4496   49.4887 H   0  0  0  0  0  0  0  0  0  0  0  0
   57.3082   33.0299   47.8211 H   0  0  0  0  0  0  0  0  0  0  0  0
   60.4886   29.0054   45.4062 H   0  0  0  0  0  0  0  0  0  0  0  0
   57.7170   24.9450   47.5620 H   0  0  0  0  0  0  0  0  0  0  0  0
   56.4669   23.2650   44.6205 H   0  0  0  0  0  0  0  0  0  0  0  0
   55.1289   24.2511   43.9393 H   0  0  0  0  0  0  0  0  0  0  0  0
   56.8070   24.8919   43.9393 H   0  0  0  0  0  0  0  0  0  0  0  0
  1  2  1  0
  2  3  1  0
  3  4  2  0
  4  5  1  0
  5  6  1  0
  6  7  2  0
  7  8  1  0
  8  9  2  0
  9 10  1  0
  9 11  1  0
 11 12  2  0
  4 13  1  0
 13 14  1  0
 14 15  1  0
 15 16  2  0
 16 17  1  0
 17 18  1  0
 18 19  1  0
 19 20  1  0
 20 21  1  0
 20 22  2  0
 20 23  2  0
 18 24  2  0
 14  2  2  0
 24 15  1  0
 12  6  1  0
  1 25  1  0
  1 26  1  0
  1 27  1  0
  5 28  1  0
  5 29  1  0
  7 30  1  0
  8 31  1  0
 11 32  1  0
 12 33  1  0
 16 34  1  0
 19 35  1  0
 21 36  1  0
 21 37  1  0
 21 38  1  0
M  END
>  <UniqueID>  (62) 
57

>  <SMILES>  (62) 
Cc1nc(Cc2ccc(F)cc2)oc1-c1csc(NS(C)(=O)=O)n1

>  <Energy>  (62) 
94.15328356323622

>  <Genealogy>  (62) 
Cc1nc(Cc2ccc(F)cc2)oc1-c1csc(NS(C)(=O)=O)n1 (3D coordinates assigned)
Cc1nc(Cc2ccc(F)cc2)oc1-c1csc(NS(C)(=O)=O)n1 (optimized conformer: 94.15328356323622 kcal/mol)

>  <smiles>  (62) 
Cc1nc(Cc2ccc(F)cc2)oc1-c1csc(NS(C)(=O)=O)n1

>  <score_type>  (62) 
oracle

>  <origin>  (62) 
adg

>  <m_score__min__energy>  (62) 
-8.4000000000000004

>  <m_primary>  (62) 
energy

$$$$
62:0
     RDKit          3D

 65 68  0  0  0  0  0  0  0  0999 V2000
   56.6580   31.6610   52.3570 C   0  0  0  0  0  0  0  0  0  0  0  0
   57.6630   30.7480   52.9250 N   0  0  0  0  0  0  0  0  0  0  0  0
   57.2590   29.3440   52.7470 C   0  0  0  0  0  0  0  0  0  0  0  0
   59.0300   31.0180   52.4230 C   0  0  0  0  0  0  0  0  0  0  0  0
   59.0640   31.6420   51.0420 C   0  0  0  0  0  0  0  0  0  0  0  0
   59.3510   33.0070   50.8870 C   0  0  0  0  0  0  0  0  0  0  0  0
   59.3750   33.5860   49.6150 C   0  0  0  0  0  0  0  0  0  0  0  0
   59.1150   32.8090   48.4720 C   0  0  0  0  0  0  0  0  0  0  0  0
   59.1260   33.4260   47.1220 C   0  0  0  0  0  0  0  0  0  0  0  0
   59.6320   34.7250   46.9340 C   0  0  0  0  0  0  0  0  0  0  0  0
   59.6350   35.3060   45.6630 C   0  0  0  0  0  0  0  0  0  0  0  0
   59.1320   34.6020   44.5680 C   0  0  0  0  0  0  0  0  0  0  0  0
   58.6180   33.3090   44.7360 C   0  0  0  0  0  0  0  0  0  0  0  0
   58.0880   32.5370   43.5580 C   0  0  0  0  0  0  0  0  0  0  0  0
   58.2860   31.1040   43.7620 N   0  0  0  0  0  0  0  0  0  0  0  0
   57.3480   30.2990   44.4950 C   0  0  0  0  0  0  0  0  0  0  0  0
   56.2540   30.8030   44.8660 O   0  0  0  0  0  0  0  0  0  0  0  0
   57.6340   28.8770   44.8120 C   0  0  0  0  0  0  0  0  0  0  0  0
   56.6470   28.0360   45.3600 C   0  0  0  0  0  0  0  0  0  0  0  0
   56.9300   26.6950   45.6360 C   0  0  0  0  0  0  0  0  0  0  0  0
   58.2010   26.1700   45.3640 C   0  0  0  0  0  0  0  0  0  0  0  0
   58.5450   24.4710   45.6780 S   0  0  0  0  0  0  0  0  0  0  0  0
   60.0070   24.3150   46.0000 O   0  0  0  0  0  0  0  0  0  0  0  0
   57.7430   24.0010   46.8610 O   0  0  0  0  0  0  0  0  0  0  0  0
   58.1580   23.5350   44.2550 N   0  0  0  0  0  0  0  0  0  0  0  0
   56.8300   23.8700   43.7410 C   0  0  0  0  0  0  0  0  0  0  0  0
   56.3260   22.6340   43.0100 C   0  0  0  0  0  0  0  0  0  0  0  0
   57.1670   21.4820   43.5390 C   0  0  0  0  0  0  0  0  0  0  0  0
   58.1070   22.1050   44.5590 C   0  0  0  0  0  0  0  0  0  0  0  0
   59.1830   26.9940   44.8030 C   0  0  0  0  0  0  0  0  0  0  0  0
   58.9050   28.3370   44.5290 C   0  0  0  0  0  0  0  0  0  0  0  0
   58.6250   32.7230   46.0120 C   0  0  0  0  0  0  0  0  0  0  0  0
   58.8410   31.4390   48.6300 C   0  0  0  0  0  0  0  0  0  0  0  0
   58.8190   30.8610   49.9020 C   0  0  0  0  0  0  0  0  0  0  0  0
   56.1114   32.1576   53.1722 H   0  0  0  0  0  0  0  0  0  0  0  0
   57.1597   32.4187   51.7371 H   0  0  0  0  0  0  0  0  0  0  0  0
   55.9518   31.0891   51.7371 H   0  0  0  0  0  0  0  0  0  0  0  0
   57.1237   28.8737   53.7321 H   0  0  0  0  0  0  0  0  0  0  0  0
   56.3126   29.3028   52.1879 H   0  0  0  0  0  0  0  0  0  0  0  0
   58.0388   28.8061   52.1879 H   0  0  0  0  0  0  0  0  0  0  0  0
   59.5280   31.7029   53.1251 H   0  0  0  0  0  0  0  0  0  0  0  0
   59.5406   30.0466   52.3476 H   0  0  0  0  0  0  0  0  0  0  0  0
   59.5585   33.6255   51.7727 H   0  0  0  0  0  0  0  0  0  0  0  0
   59.5990   34.6575   49.5072 H   0  0  0  0  0  0  0  0  0  0  0  0
   60.0278   35.2870   47.7928 H   0  0  0  0  0  0  0  0  0  0  0  0
   60.0351   36.3214   45.5252 H   0  0  0  0  0  0  0  0  0  0  0  0
   59.1390   35.0636   43.5695 H   0  0  0  0  0  0  0  0  0  0  0  0
   57.0135   32.7424   43.4430 H   0  0  0  0  0  0  0  0  0  0  0  0
   58.6295   32.8483   42.6525 H   0  0  0  0  0  0  0  0  0  0  0  0
   59.0960   30.6540   43.2760 H   0  0  0  0  0  0  0  0  0  0  0  0
   55.6451   28.4372   45.5727 H   0  0  0  0  0  0  0  0  0  0  0  0
   56.1518   26.0490   46.0685 H   0  0  0  0  0  0  0  0  0  0  0  0
   56.1538   24.1229   44.5709 H   0  0  0  0  0  0  0  0  0  0  0  0
   56.8709   24.7405   43.0698 H   0  0  0  0  0  0  0  0  0  0  0  0
   55.2611   22.4652   43.2281 H   0  0  0  0  0  0  0  0  0  0  0  0
   56.4154   22.7388   41.9187 H   0  0  0  0  0  0  0  0  0  0  0  0
   56.5270   20.7256   44.0168 H   0  0  0  0  0  0  0  0  0  0  0  0
   57.7162   20.9723   42.7337 H   0  0  0  0  0  0  0  0  0  0  0  0
   57.7226   21.9461   45.5773 H   0  0  0  0  0  0  0  0  0  0  0  0
   59.1076   21.6508   44.5084 H   0  0  0  0  0  0  0  0  0  0  0  0
   60.1781   26.5836   44.5765 H   0  0  0  0  0  0  0  0  0  0  0  0
   59.6842   28.9769   44.0892 H   0  0  0  0  0  0  0  0  0  0  0  0
   58.2345   31.7033   46.1447 H   0  0  0  0  0  0  0  0  0  0  0  0
   58.6423   30.8170   47.7448 H   0  0  0  0  0  0  0  0  0  0  0  0
   58.6083   29.7868   50.0105 H   0  0  0  0  0  0  0  0  0  0  0  0
  1  2  1  0
  2  3  1  0
  2  4  1  0
  4  5  1  0
  5  6  2  0
  6  7  1  0
  7  8  2  0
  8  9  1  0
  9 10  2  0
 10 11  1  0
 11 12  2  0
 12 13  1  0
 13 14  1  0
 14 15  1  0
 15 16  1  0
 16 17  2  0
 16 18  1  0
 18 19  2  0
 19 20  1  0
 20 21  2  0
 21 22  1  0
 22 23  2  0
 22 24  2  0
 22 25  1  0
 25 26  1  0
 26 27  1  0
 27 28  1  0
 28 29  1  0
 21 30  1  0
 30 31  2  0
 13 32  2  0
  8 33  1  0
 33 34  2  0
 34  5  1  0
 32  9  1  0
 31 18  1  0
 29 25  1  0
  1 35  1  0
  1 36  1  0
  1 37  1  0
  3 38  1  0
  3 39  1  0
  3 40  1  0
  4 41  1  0
  4 42  1  0
  6 43  1  0
  7 44  1  0
 10 45  1  0
 11 46  1  0
 12 47  1  0
 14 48  1  0
 14 49  1  0
 15 50  1  0
 19 51  1  0
 20 52  1  0
 26 53  1  0
 26 54  1  0
 27 55  1  0
 27 56  1  0
 28 57  1  0
 28 58  1  0
 29 59  1  0
 29 60  1  0
 30 61  1  0
 31 62  1  0
 32 63  1  0
 33 64  1  0
 34 65  1  0
M  END
>  <UniqueID>  (63) 
58

>  <SMILES>  (63) 
CN(C)Cc1ccc(-c2cccc(CNC(=O)c3ccc(S(=O)(=O)N4CCCC4)cc3)c2)cc1

>  <Energy>  (63) 
75.578003210311

>  <Genealogy>  (63) 
CN(C)Cc1ccc(-c2cccc(CNC(=O)c3ccc(S(=O)(=O)N4CCCC4)cc3)c2)cc1 (3D coordinates assigned)
CN(C)Cc1ccc(-c2cccc(CNC(=O)c3ccc(S(=O)(=O)N4CCCC4)cc3)c2)cc1 (nonaromatic ring conformer: 75.578003210311 kcal/mol)

>  <smiles>  (63) 
CN(C)Cc1ccc(-c2cccc(CNC(=O)c3ccc(S(=O)(=O)N4CCCC4)cc3)c2)cc1

>  <score_type>  (63) 
oracle

>  <origin>  (63) 
adg

>  <m_score__min__energy>  (63) 
-10.51

>  <m_primary>  (63) 
energy

$$$$
63:0
     RDKit          3D

 64 68  0  0  0  0  0  0  0  0999 V2000
   60.7340   28.5760   49.3560 O   0  0  0  0  0  0  0  0  0  0  0  0
   60.0080   28.6690   48.3310 C   0  0  0  0  0  0  0  0  0  0  0  0
   59.2480   27.4670   47.8510 C   0  0  0  0  0  0  0  0  0  0  0  0
   59.2860   27.3610   46.3240 C   0  0  0  0  0  0  0  0  0  0  0  0
   58.0710   27.9370   45.7510 N   0  0  0  0  0  0  0  0  0  0  0  0
   57.9310   29.1330   45.1590 C   0  0  0  0  0  0  0  0  0  0  0  0
   58.9740   30.0170   44.9040 O   0  0  0  0  0  0  0  0  0  0  0  0
   56.6010   29.3290   44.8530 C   0  0  0  0  0  0  0  0  0  0  0  0
   56.0160   30.5010   44.1320 C   0  0  0  0  0  0  0  0  0  0  0  0
   57.0690   31.5410   43.9090 C   0  0  0  0  0  0  0  0  0  0  0  0
   57.6260   31.9120   42.6880 C   0  0  0  0  0  0  0  0  0  0  0  0
   58.4850   32.9430   42.8560 N   0  0  0  0  0  0  0  0  0  0  0  0
   58.4660   33.2330   44.1690 C   0  0  0  0  0  0  0  0  0  0  0  0
   59.1750   34.2400   44.8230 C   0  0  0  0  0  0  0  0  0  0  0  0
   58.9880   34.3810   46.2110 C   0  0  0  0  0  0  0  0  0  0  0  0
   58.1010   33.5280   46.9030 C   0  0  0  0  0  0  0  0  0  0  0  0
   57.3950   32.5240   46.2170 C   0  0  0  0  0  0  0  0  0  0  0  0
   57.6080   32.4030   44.8440 C   0  0  0  0  0  0  0  0  0  0  0  0
   55.8860   28.2520   45.2470 N   0  0  0  0  0  0  0  0  0  0  0  0
   56.8150   27.4380   45.7960 C   0  0  0  0  0  0  0  0  0  0  0  0
   56.5290   26.3220   46.3080 O   0  0  0  0  0  0  0  0  0  0  0  0
   59.8920   29.9220   47.6410 N   0  0  0  0  0  0  0  0  0  0  0  0
   60.6390   31.1030   48.0710 C   0  0  0  0  0  0  0  0  0  0  0  0
   59.9180   31.8080   49.1970 C   0  0  0  0  0  0  0  0  0  0  0  0
   58.6720   31.3100   49.6220 C   0  0  0  0  0  0  0  0  0  0  0  0
   57.9710   31.9340   50.6560 C   0  0  0  0  0  0  0  0  0  0  0  0
   58.5060   33.0560   51.2870 C   0  0  0  0  0  0  0  0  0  0  0  0
   59.7500   33.5510   50.8930 C   0  0  0  0  0  0  0  0  0  0  0  0
   60.4710   32.9380   49.8540 C   0  0  0  0  0  0  0  0  0  0  0  0
   61.7950   33.4920   49.4880 C   0  0  0  0  0  0  0  0  0  0  0  0
   61.8510   34.5940   48.8800 O   0  0  0  0  0  0  0  0  0  0  0  0
   63.0150   32.7890   49.8030 N   0  0  0  0  0  0  0  0  0  0  0  0
   63.0560   31.7990   50.8850 C   0  0  0  0  0  0  0  0  0  0  0  0
   64.4510   31.7760   51.5200 C   0  0  0  0  0  0  0  0  0  0  0  0
   65.4510   31.6220   50.5310 O   0  0  0  0  0  0  0  0  0  0  0  0
   65.4630   32.7580   49.6860 C   0  0  0  0  0  0  0  0  0  0  0  0
   64.1590   32.8560   48.8900 C   0  0  0  0  0  0  0  0  0  0  0  0
   59.6975   26.5616   48.2848 H   0  0  0  0  0  0  0  0  0  0  0  0
   58.1993   27.5691   48.1670 H   0  0  0  0  0  0  0  0  0  0  0  0
   60.1621   27.9063   45.9430 H   0  0  0  0  0  0  0  0  0  0  0  0
   59.3520   26.3009   46.0378 H   0  0  0  0  0  0  0  0  0  0  0  0
   55.6188   30.1704   43.1609 H   0  0  0  0  0  0  0  0  0  0  0  0
   55.2057   30.9312   44.7389 H   0  0  0  0  0  0  0  0  0  0  0  0
   57.3995   31.4342   41.7234 H   0  0  0  0  0  0  0  0  0  0  0  0
   59.0350   33.4260   42.1100 H   0  0  0  0  0  0  0  0  0  0  0  0
   59.8584   34.9028   44.2720 H   0  0  0  0  0  0  0  0  0  0  0  0
   59.5364   35.1607   46.7600 H   0  0  0  0  0  0  0  0  0  0  0  0
   57.9611   33.6498   47.9873 H   0  0  0  0  0  0  0  0  0  0  0  0
   56.6983   31.8566   46.7453 H   0  0  0  0  0  0  0  0  0  0  0  0
   59.2560   29.9850   46.8120 H   0  0  0  0  0  0  0  0  0  0  0  0
   61.6360   30.7936   48.4179 H   0  0  0  0  0  0  0  0  0  0  0  0
   60.7296   31.7944   47.2202 H   0  0  0  0  0  0  0  0  0  0  0  0
   58.2462   30.4204   49.1348 H   0  0  0  0  0  0  0  0  0  0  0  0
   56.9945   31.5393   50.9733 H   0  0  0  0  0  0  0  0  0  0  0  0
   57.9478   33.5511   52.0953 H   0  0  0  0  0  0  0  0  0  0  0  0
   60.1709   34.4309   51.4015 H   0  0  0  0  0  0  0  0  0  0  0  0
   62.3115   32.0642   51.6501 H   0  0  0  0  0  0  0  0  0  0  0  0
   62.8293   30.8042   50.4738 H   0  0  0  0  0  0  0  0  0  0  0  0
   64.6181   32.7210   52.0576 H   0  0  0  0  0  0  0  0  0  0  0  0
   64.5081   30.9249   52.2145 H   0  0  0  0  0  0  0  0  0  0  0  0
   65.5798   33.6632   50.3000 H   0  0  0  0  0  0  0  0  0  0  0  0
   66.3013   32.6640   48.9800 H   0  0  0  0  0  0  0  0  0  0  0  0
   64.1352   33.8106   48.3439 H   0  0  0  0  0  0  0  0  0  0  0  0
   64.1046   32.0201   48.1770 H   0  0  0  0  0  0  0  0  0  0  0  0
  1  2  2  0
  2  3  1  0
  3  4  1  0
  4  5  1  0
  5  6  1  0
  6  7  1  0
  6  8  2  0
  8  9  1  0
  9 10  1  0
 10 11  2  0
 11 12  1  0
 12 13  1  0
 13 14  2  0
 14 15  1  0
 15 16  2  0
 16 17  1  0
 17 18  2  0
  8 19  1  0
 19 20  1  0
 20 21  2  0
  2 22  1  0
 22 23  1  0
 23 24  1  0
 24 25  2  0
 25 26  1  0
 26 27  2  0
 27 28  1  0
 28 29  2  0
 29 30  1  0
 30 31  2  0
 30 32  1  0
 32 33  1  0
 33 34  1  0
 34 35  1  0
 35 36  1  0
 36 37  1  0
 20  5  1  0
 29 24  1  0
 37 32  1  0
 18 10  1  0
 18 13  1  0
  3 38  1  0
  3 39  1  0
  4 40  1  0
  4 41  1  0
  9 42  1  0
  9 43  1  0
 11 44  1  0
 12 45  1  0
 14 46  1  0
 15 47  1  0
 16 48  1  0
 17 49  1  0
 22 50  1  0
 23 51  1  0
 23 52  1  0
 25 53  1  0
 26 54  1  0
 27 55  1  0
 28 56  1  0
 33 57  1  0
 33 58  1  0
 34 59  1  0
 34 60  1  0
 36 61  1  0
 36 62  1  0
 37 63  1  0
 37 64  1  0
M  CHG  2   7  -1  19  -1
M  END
>  <UniqueID>  (64) 
59

>  <SMILES>  (64) 
O=C(CCn1c([O-])c(Cc2c[nH]c3ccccc23)[n-]c1=O)NCc1ccccc1C(=O)N1CCOCC1

>  <Energy>  (64) 
135.12475572072165

>  <Genealogy>  (64) 
O=C(CCn1c([O-])c(Cc2c[nH]c3ccccc23)[n-]c1=O)NCc1ccccc1C(=O)N1CCOCC1 (protonated)
O=C(CCn1c([O-])c(Cc2c[nH]c3ccccc23)[n-]c1=O)NCc1ccccc1C(=O)N1CCOCC1 (3D coordinates assigned)
O=C(CCn1c([O-])c(Cc2c[nH]c3ccccc23)[n-]c1=O)NCc1ccccc1C(=O)N1CCOCC1 (nonaromatic ring conformer: 135.12475572072165 kcal/mol)

>  <smiles>  (64) 
O=C(CCn1c(O)c(Cc2c[nH]c3ccccc23)[nH]c1=O)NCc1ccccc1C(=O)N1CCOCC1

>  <score_type>  (64) 
oracle

>  <origin>  (64) 
adg

>  <m_score__min__energy>  (64) 
-14.300000000000001

>  <m_primary>  (64) 
energy

$$$$
64:0
     RDKit          3D

 46 49  0  0  0  0  0  0  0  0999 V2000
   62.0390   29.3650   50.7800 O   0  0  0  0  0  0  0  0  0  0  0  0
   61.0720   30.0910   50.4220 C   0  0  0  0  0  0  0  0  0  0  0  0
   59.7960   29.4420   49.9560 C   0  0  0  0  0  0  0  0  0  0  0  0
   59.6850   29.5060   48.4670 C   0  0  0  0  0  0  0  0  0  0  0  0
   60.7140   29.2890   47.6230 N   0  0  0  0  0  0  0  0  0  0  0  0
   60.2020   29.4040   46.4090 N   0  0  0  0  0  0  0  0  0  0  0  0
   58.8920   29.6800   46.5460 C   0  0  0  0  0  0  0  0  0  0  0  0
   57.9410   29.8800   45.4430 C   0  0  0  0  0  0  0  0  0  0  0  0
   58.2510   30.5610   44.2630 C   0  0  0  0  0  0  0  0  0  0  0  0
   56.8860   30.5500   43.2780 S   0  0  0  0  0  0  0  0  0  0  0  0
   55.9760   29.6880   44.3920 C   0  0  0  0  0  0  0  0  0  0  0  0
   54.7780   29.3440   44.2180 O   0  0  0  0  0  0  0  0  0  0  0  0
   56.6710   29.3950   45.5090 N   0  0  0  0  0  0  0  0  0  0  0  0
   58.5670   29.7420   47.8160 O   0  0  0  0  0  0  0  0  0  0  0  0
   61.2070   31.5230   50.4670 N   0  0  0  0  0  0  0  0  0  0  0  0
   60.0960   32.3950   50.8580 C   0  0  0  0  0  0  0  0  0  0  0  0
   59.8930   33.5010   49.8050 C   0  0  0  0  0  0  0  0  0  0  0  0
   61.1460   33.9390   49.1410 N   0  0  0  0  0  0  0  0  0  0  0  0
   61.2490   33.3410   47.4970 S   0  0  0  0  0  0  0  0  0  0  0  0
   62.3560   34.0400   46.7590 O   0  0  0  0  0  0  0  0  0  0  0  0
   61.5170   31.8610   47.5130 O   0  0  0  0  0  0  0  0  0  0  0  0
   59.7310   33.6510   46.6540 C   0  0  0  0  0  0  0  0  0  0  0  0
   59.7030   34.5330   45.5630 C   0  0  0  0  0  0  0  0  0  0  0  0
   58.5060   34.7780   44.8850 C   0  0  0  0  0  0  0  0  0  0  0  0
   57.3300   34.1390   45.2850 C   0  0  0  0  0  0  0  0  0  0  0  0
   57.3520   33.2500   46.3640 C   0  0  0  0  0  0  0  0  0  0  0  0
   58.5470   33.0020   47.0470 C   0  0  0  0  0  0  0  0  0  0  0  0
   58.5490   32.1240   48.0810 F   0  0  0  0  0  0  0  0  0  0  0  0
   62.3660   33.6350   49.9160 C   0  0  0  0  0  0  0  0  0  0  0  0
   62.5120   32.1300   50.1930 C   0  0  0  0  0  0  0  0  0  0  0  0
   59.7893   28.3889   50.2738 H   0  0  0  0  0  0  0  0  0  0  0  0
   58.9438   29.9790   50.3980 H   0  0  0  0  0  0  0  0  0  0  0  0
   60.7450   29.2910   45.5250 H   0  0  0  0  0  0  0  0  0  0  0  0
   59.2188   31.0239   44.0199 H   0  0  0  0  0  0  0  0  0  0  0  0
   59.1761   31.7974   50.9395 H   0  0  0  0  0  0  0  0  0  0  0  0
   60.3282   32.8601   51.8274 H   0  0  0  0  0  0  0  0  0  0  0  0
   59.2067   33.1222   49.0333 H   0  0  0  0  0  0  0  0  0  0  0  0
   59.4912   34.3765   50.3361 H   0  0  0  0  0  0  0  0  0  0  0  0
   60.6276   35.0338   45.2400 H   0  0  0  0  0  0  0  0  0  0  0  0
   58.4897   35.4755   44.0345 H   0  0  0  0  0  0  0  0  0  0  0  0
   56.3880   34.3349   44.7519 H   0  0  0  0  0  0  0  0  0  0  0  0
   56.4266   32.7441   46.6766 H   0  0  0  0  0  0  0  0  0  0  0  0
   63.2428   33.9781   49.3472 H   0  0  0  0  0  0  0  0  0  0  0  0
   62.2918   34.1530   50.8836 H   0  0  0  0  0  0  0  0  0  0  0  0
   62.9589   31.6430   49.3137 H   0  0  0  0  0  0  0  0  0  0  0  0
   63.1563   31.9943   51.0742 H   0  0  0  0  0  0  0  0  0  0  0  0
  1  2  2  0
  2  3  1  0
  3  4  1  0
  4  5  2  0
  5  6  1  0
  6  7  2  0
  7  8  1  0
  8  9  2  0
  9 10  1  0
 10 11  1  0
 11 12  2  0
 11 13  1  0
  7 14  1  0
  2 15  1  0
 15 16  1  0
 16 17  1  0
 17 18  1  0
 18 19  1  0
 19 20  2  0
 19 21  2  0
 19 22  1  0
 22 23  2  0
 23 24  1  0
 24 25  2  0
 25 26  1  0
 26 27  2  0
 27 28  1  0
 18 29  1  0
 29 30  1  0
 14  4  1  0
 30 15  1  0
 13  8  1  0
 27 22  1  0
  3 31  1  0
  3 32  1  0
  6 33  1  0
  9 34  1  0
 16 35  1  0
 16 36  1  0
 17 37  1  0
 17 38  1  0
 23 39  1  0
 24 40  1  0
 25 41  1  0
 26 42  1  0
 29 43  1  0
 29 44  1  0
 30 45  1  0
 30 46  1  0
M  CHG  2   6   1  13  -1
M  END
>  <UniqueID>  (65) 
60

>  <SMILES>  (65) 
O=C(Cc1n[nH+]c(-c2csc(=O)[n-]2)o1)N1CCN(S(=O)(=O)c2ccccc2F)CC1

>  <Energy>  (65) 
122.13169829547655

>  <Genealogy>  (65) 
O=C(Cc1n[nH+]c(-c2csc(=O)[n-]2)o1)N1CCN(S(=O)(=O)c2ccccc2F)CC1 (protonated)
O=C(Cc1n[nH+]c(-c2csc(=O)[n-]2)o1)N1CCN(S(=O)(=O)c2ccccc2F)CC1 (3D coordinates assigned)
O=C(Cc1n[nH+]c(-c2csc(=O)[n-]2)o1)N1CCN(S(=O)(=O)c2ccccc2F)CC1 (nonaromatic ring conformer: 122.13169829547655 kcal/mol)

>  <smiles>  (65) 
O=C(Cc1nnc(-c2csc(=O)[nH]2)o1)N1CCN(S(=O)(=O)c2ccccc2F)CC1

>  <score_type>  (65) 
oracle

>  <origin>  (65) 
adg

>  <m_score__min__energy>  (65) 
-10.02

>  <m_primary>  (65) 
energy

$$$$
65:0
     RDKit          3D

 38 40  0  0  0  0  0  0  0  0999 V2000
   59.9380   29.4590   47.5670 C   0  0  0  0  0  0  0  0  0  0  0  0
   59.1850   29.8460   46.5360 C   0  0  0  0  0  0  0  0  0  0  0  0
   58.9900   31.1110   46.2420 O   0  0  0  0  0  0  0  0  0  0  0  0
   58.2160   31.1820   45.1840 C   0  0  0  0  0  0  0  0  0  0  0  0
   57.7570   32.4370   44.5820 C   0  0  0  0  0  0  0  0  0  0  0  0
   57.7340   32.5620   43.3290 O   0  0  0  0  0  0  0  0  0  0  0  0
   57.3650   33.5240   45.4260 N   0  0  0  0  0  0  0  0  0  0  0  0
   58.2920   34.5350   45.9220 C   0  0  0  0  0  0  0  0  0  0  0  0
   59.7210   34.2330   45.4540 C   0  0  0  0  0  0  0  0  0  0  0  0
   60.6690   34.1260   46.6230 C   0  0  0  0  0  0  0  0  0  0  0  0
   60.1960   34.2900   47.9360 C   0  0  0  0  0  0  0  0  0  0  0  0
   61.0590   34.1170   49.0220 C   0  0  0  0  0  0  0  0  0  0  0  0
   62.3970   33.7720   48.8070 C   0  0  0  0  0  0  0  0  0  0  0  0
   63.2510   33.5950   49.8880 O   0  0  0  0  0  0  0  0  0  0  0  0
   62.8750   33.6040   47.5040 C   0  0  0  0  0  0  0  0  0  0  0  0
   62.0150   33.7800   46.4160 C   0  0  0  0  0  0  0  0  0  0  0  0
   57.8780   29.9150   44.7490 C   0  0  0  0  0  0  0  0  0  0  0  0
   58.4940   29.0360   45.6300 C   0  0  0  0  0  0  0  0  0  0  0  0
   58.4430   27.6890   45.6160 C   0  0  0  0  0  0  0  0  0  0  0  0
   57.2390   26.8810   45.9060 C   0  0  0  0  0  0  0  0  0  0  0  0
   57.2330   25.6140   46.3600 N   0  0  0  0  0  0  0  0  0  0  0  0
   55.9200   25.2990   46.4050 C   0  0  0  0  0  0  0  0  0  0  0  0
   55.5060   24.1760   46.7910 O   0  0  0  0  0  0  0  0  0  0  0  0
   55.0890   26.2820   45.9990 N   0  0  0  0  0  0  0  0  0  0  0  0
   55.9390   27.2720   45.6820 C   0  0  0  0  0  0  0  0  0  0  0  0
   55.5360   28.5080   45.1930 O   0  0  0  0  0  0  0  0  0  0  0  0
   60.0744   28.3879   47.7770 H   0  0  0  0  0  0  0  0  0  0  0  0
   60.4225   30.2110   48.2071 H   0  0  0  0  0  0  0  0  0  0  0  0
   57.9881   35.5216   45.5422 H   0  0  0  0  0  0  0  0  0  0  0  0
   58.2699   34.5274   47.0218 H   0  0  0  0  0  0  0  0  0  0  0  0
   59.7238   33.2816   44.9020 H   0  0  0  0  0  0  0  0  0  0  0  0
   60.0569   35.0580   44.8086 H   0  0  0  0  0  0  0  0  0  0  0  0
   59.1428   34.5555   48.1099 H   0  0  0  0  0  0  0  0  0  0  0  0
   60.6849   34.2525   50.0475 H   0  0  0  0  0  0  0  0  0  0  0  0
   63.9277   33.3334   47.3349 H   0  0  0  0  0  0  0  0  0  0  0  0
   62.3942   33.6469   45.3920 H   0  0  0  0  0  0  0  0  0  0  0  0
   57.2505   29.6560   43.8835 H   0  0  0  0  0  0  0  0  0  0  0  0
   59.3691   27.1489   45.3697 H   0  0  0  0  0  0  0  0  0  0  0  0
  1  2  2  0
  2  3  1  0
  3  4  1  0
  4  5  1  0
  5  6  2  0
  5  7  1  0
  7  8  1  0
  8  9  1  0
  9 10  1  0
 10 11  2  0
 11 12  1  0
 12 13  2  0
 13 14  1  0
 13 15  1  0
 15 16  2  0
  4 17  2  0
 17 18  1  0
 18 19  2  3
 19 20  1  0
 20 21  1  0
 21 22  1  0
 22 23  2  0
 22 24  1  0
 24 25  1  0
 25 26  1  0
 18  2  1  0
 25 20  2  0
 16 10  1  0
  1 27  1  0
  1 28  1  0
  8 29  1  0
  8 30  1  0
  9 31  1  0
  9 32  1  0
 11 33  1  0
 12 34  1  0
 15 35  1  0
 16 36  1  0
 17 37  1  0
 19 38  1  0
M  CHG  5   7  -1  14  -1  21  -1  24  -1  26  -1
M  END
>  <UniqueID>  (66) 
61

>  <SMILES>  (66) 
C=c1oc(C(=O)[N-]CCc2ccc([O-])cc2)cc1=Cc1[n-]c(=O)[n-]c1[O-]

>  <Energy>  (66) 
94.86856496363544

>  <Genealogy>  (66) 
C=c1oc(C(=O)[N-]CCc2ccc([O-])cc2)cc1=Cc1[n-]c(=O)[n-]c1[O-] (protonated)
C=c1oc(C(=O)[N-]CCc2ccc([O-])cc2)cc1=Cc1[n-]c(=O)[n-]c1[O-] (3D coordinates assigned)
C=c1oc(C(=O)[N-]CCc2ccc([O-])cc2)cc1=Cc1[n-]c(=O)[n-]c1[O-] (optimized conformer: 94.86856496363544 kcal/mol)

>  <smiles>  (66) 
C=c1oc(C(=O)NCCc2ccc(O)cc2)cc1=Cc1[nH]c(=O)[nH]c1O

>  <score_type>  (66) 
oracle

>  <origin>  (66) 
adg

>  <m_score__min__energy>  (66) 
-19.120000000000001

>  <m_primary>  (66) 
energy

$$$$
66:0
     RDKit          3D

 37 38  0  0  0  0  0  0  0  0999 V2000
   59.9710   28.2440   45.6820 C   0  0  0  0  0  0  0  0  0  0  0  0
   58.8230   27.7840   46.3600 O   0  0  0  0  0  0  0  0  0  0  0  0
   58.0190   26.9990   45.5000 C   0  0  0  0  0  0  0  0  0  0  0  0
   56.5630   27.2610   45.7640 C   0  0  0  0  0  0  0  0  0  0  0  0
   55.8970   26.4080   46.4070 O   0  0  0  0  0  0  0  0  0  0  0  0
   55.8870   28.4140   45.2460 N   0  0  0  0  0  0  0  0  0  0  0  0
   56.4870   29.5320   44.5780 C   0  0  0  0  0  0  0  0  0  0  0  0
   56.2820   29.7680   43.2090 C   0  0  0  0  0  0  0  0  0  0  0  0
   56.9220   30.8350   42.5760 C   0  0  0  0  0  0  0  0  0  0  0  0
   57.7770   31.6700   43.3000 C   0  0  0  0  0  0  0  0  0  0  0  0
   57.9980   31.4460   44.6660 C   0  0  0  0  0  0  0  0  0  0  0  0
   58.9110   32.2970   45.3800 N   0  0  0  0  0  0  0  0  0  0  0  0
   58.7130   33.7060   45.5760 C   0  0  0  0  0  0  0  0  0  0  0  0
   57.8100   34.3200   44.9430 O   0  0  0  0  0  0  0  0  0  0  0  0
   59.5750   34.4540   46.5530 C   0  0  2  0  0  0  0  0  0  0  0  0
   60.9530   33.8290   46.6570 C   0  0  0  0  0  0  0  0  0  0  0  0
   61.3390   34.1290   48.0690 C   0  0  0  0  0  0  0  0  0  0  0  0
   60.0020   34.2290   48.7780 C   0  0  0  0  0  0  0  0  0  0  0  0
   58.9810   34.4620   47.8330 O   0  0  0  0  0  0  0  0  0  0  0  0
   57.3700   30.3540   45.2910 C   0  0  0  0  0  0  0  0  0  0  0  0
   60.7322   28.5490   46.4151 H   0  0  0  0  0  0  0  0  0  0  0  0
   60.3721   27.4372   45.0510 H   0  0  0  0  0  0  0  0  0  0  0  0
   59.7040   29.1046   45.0510 H   0  0  0  0  0  0  0  0  0  0  0  0
   58.2498   27.2533   44.4550 H   0  0  0  0  0  0  0  0  0  0  0  0
   58.2304   25.9354   45.6845 H   0  0  0  0  0  0  0  0  0  0  0  0
   55.6147   29.1097   42.6333 H   0  0  0  0  0  0  0  0  0  0  0  0
   56.7528   31.0189   41.5048 H   0  0  0  0  0  0  0  0  0  0  0  0
   58.2796   32.5081   42.7950 H   0  0  0  0  0  0  0  0  0  0  0  0
   59.8120   31.8800   45.7110 H   0  0  0  0  0  0  0  0  0  0  0  0
   59.6732   35.4849   46.1821 H   0  0  0  0  0  0  0  0  0  0  0  0
   60.9120   32.7444   46.4781 H   0  0  0  0  0  0  0  0  0  0  0  0
   61.6672   34.2166   45.9156 H   0  0  0  0  0  0  0  0  0  0  0  0
   61.9504   33.3182   48.4919 H   0  0  0  0  0  0  0  0  0  0  0  0
   61.9488   35.0393   48.1662 H   0  0  0  0  0  0  0  0  0  0  0  0
   59.7993   33.2886   49.3114 H   0  0  0  0  0  0  0  0  0  0  0  0
   60.0312   35.0613   49.4966 H   0  0  0  0  0  0  0  0  0  0  0  0
   57.5741   30.1428   46.3511 H   0  0  0  0  0  0  0  0  0  0  0  0
  1  2  1  0
  2  3  1  0
  3  4  1  0
  4  5  2  0
  4  6  1  0
  6  7  1  0
  7  8  2  0
  8  9  1  0
  9 10  2  0
 10 11  1  0
 11 12  1  0
 12 13  1  0
 13 14  2  0
 13 15  1  0
 15 16  1  0
 16 17  1  0
 17 18  1  0
 18 19  1  0
 11 20  2  0
 20  7  1  0
 19 15  1  0
  1 21  1  0
  1 22  1  0
  1 23  1  0
  3 24  1  0
  3 25  1  0
  8 26  1  0
  9 27  1  0
 10 28  1  0
 12 29  1  0
 15 30  1  6
 16 31  1  0
 16 32  1  0
 17 33  1  0
 17 34  1  0
 18 35  1  0
 18 36  1  0
 20 37  1  0
M  CHG  1   6  -1
M  END
>  <UniqueID>  (67) 
62

>  <SMILES>  (67) 
COCC(=O)[N-]c1cccc(NC(=O)[C@@H]2CCCO2)c1

>  <Energy>  (67) 
44.898672486459645

>  <Genealogy>  (67) 
COCC(=O)[N-]c1cccc(NC(=O)C2CCCO2)c1 (protonated)
COCC(=O)[N-]c1cccc(NC(=O)[C@@H]2CCCO2)c1 (chirality)
COCC(=O)[N-]c1cccc(NC(=O)[C@@H]2CCCO2)c1 (3D coordinates assigned)
COCC(=O)[N-]c1cccc(NC(=O)[C@@H]2CCCO2)c1 (nonaromatic ring conformer: 44.898672486459645 kcal/mol)

>  <smiles>  (67) 
COCC(=O)Nc1cccc(NC(=O)C2CCCO2)c1

>  <score_type>  (67) 
oracle

>  <origin>  (67) 
adg

>  <m_score__min__energy>  (67) 
-9.2799999999999994

>  <m_primary>  (67) 
energy

$$$$
67:0
     RDKit          3D

 61 64  0  0  0  0  0  0  0  0999 V2000
   57.1660   33.8688   46.9223 H   0  0  0  0  0  0  0  0  0  0  0  0
   58.0110   33.2780   46.5390 C   0  0  0  0  0  0  0  0  0  0  0  0
   59.3500   33.9010   46.4970 C   0  0  0  0  0  0  0  0  0  0  0  0
   59.4590   35.0390   45.9670 O   0  0  0  0  0  0  0  0  0  0  0  0
   60.5630   33.2470   47.0460 C   0  0  0  0  0  0  0  0  0  0  0  0
   61.4660   33.9590   47.8570 C   0  0  0  0  0  0  0  0  0  0  0  0
   61.2804   35.0198   48.0812 H   0  0  0  0  0  0  0  0  0  0  0  0
   62.5990   33.3250   48.3800 C   0  0  0  0  0  0  0  0  0  0  0  0
   63.3049   33.8906   49.0060 H   0  0  0  0  0  0  0  0  0  0  0  0
   62.8350   31.9740   48.1080 C   0  0  0  0  0  0  0  0  0  0  0  0
   63.7284   31.4783   48.5156 H   0  0  0  0  0  0  0  0  0  0  0  0
   61.9350   31.2540   47.3180 C   0  0  0  0  0  0  0  0  0  0  0  0
   62.1192   30.1903   47.1065 H   0  0  0  0  0  0  0  0  0  0  0  0
   60.7990   31.8840   46.7950 C   0  0  0  0  0  0  0  0  0  0  0  0
   60.0872   31.3092   46.1843 H   0  0  0  0  0  0  0  0  0  0  0  0
   57.7840   32.0220   46.1290 C   0  0  0  0  0  0  0  0  0  0  0  0
   57.7837   31.2140   46.8754 H   0  0  0  0  0  0  0  0  0  0  0  0
   57.5340   31.6810   44.7120 C   0  0  0  0  0  0  0  0  0  0  0  0
   57.9930   32.5790   43.7340 C   0  0  0  0  0  0  0  0  0  0  0  0
   58.5601   33.4719   44.0360 H   0  0  0  0  0  0  0  0  0  0  0  0
   57.7350   32.3470   42.3820 C   0  0  0  0  0  0  0  0  0  0  0  0
   58.0930   33.0597   41.6245 H   0  0  0  0  0  0  0  0  0  0  0  0
   57.0240   31.2130   41.9900 C   0  0  0  0  0  0  0  0  0  0  0  0
   56.8120   31.0397   40.9246 H   0  0  0  0  0  0  0  0  0  0  0  0
   56.5800   30.2960   42.9470 C   0  0  0  0  0  0  0  0  0  0  0  0
   56.0106   29.4095   42.6310 H   0  0  0  0  0  0  0  0  0  0  0  0
   56.8550   30.4980   44.3060 C   0  0  0  0  0  0  0  0  0  0  0  0
   56.4490   29.4880   45.2460 N   0  0  0  0  0  0  0  0  0  0  0  0
   55.4240   29.3670   45.4160 H   0  0  0  0  0  0  0  0  0  0  0  0
   57.3540   28.5640   45.8760 C   0  0  0  0  0  0  0  0  0  0  0  0
   57.4010   27.2340   45.4350 C   0  0  0  0  0  0  0  0  0  0  0  0
   56.7636   26.9133   44.5978 H   0  0  0  0  0  0  0  0  0  0  0  0
   58.2510   26.3140   46.0510 C   0  0  0  0  0  0  0  0  0  0  0  0
   58.2659   25.2678   45.7115 H   0  0  0  0  0  0  0  0  0  0  0  0
   59.0830   26.7190   47.0980 C   0  0  0  0  0  0  0  0  0  0  0  0
   59.7422   25.9870   47.5875 H   0  0  0  0  0  0  0  0  0  0  0  0
   59.0820   28.0570   47.5290 C   0  0  0  0  0  0  0  0  0  0  0  0
   59.9820   28.4900   48.6210 C   0  0  0  0  0  0  0  0  0  0  0  0
   61.1390   27.9930   48.6970 O   0  0  0  0  0  0  0  0  0  0  0  0
   59.5700   29.4740   49.5880 N   0  0  0  0  0  0  0  0  0  0  0  0
   60.0070   29.3680   50.9840 C   0  0  0  0  0  0  0  0  0  0  0  0
   60.6642   28.4931   51.0960 H   0  0  0  0  0  0  0  0  0  0  0  0
   59.1267   29.2543   51.6337 H   0  0  0  0  0  0  0  0  0  0  0  0
   60.7720   30.6340   51.3830 C   0  0  0  0  0  0  0  0  0  0  0  0
   61.7607   30.6199   50.9010 H   0  0  0  0  0  0  0  0  0  0  0  0
   60.8677   30.6457   52.4788 H   0  0  0  0  0  0  0  0  0  0  0  0
   60.0570   31.8560   50.9710 N   0  0  0  0  0  0  0  0  0  0  0  0
   60.5520   33.1590   51.3600 C   0  0  0  0  0  0  0  0  0  0  0  0
   59.8450   34.1870   51.1700 O   0  0  0  0  0  0  0  0  0  0  0  0
   61.8860   33.3230   52.0230 C   0  0  0  0  0  0  0  0  0  0  0  0
   61.7570   33.3071   53.1153 H   0  0  0  0  0  0  0  0  0  0  0  0
   62.5497   32.4997   51.7202 H   0  0  0  0  0  0  0  0  0  0  0  0
   62.3305   34.2826   51.7202 H   0  0  0  0  0  0  0  0  0  0  0  0
   58.7790   31.7400   50.2480 C   0  0  0  0  0  0  0  0  0  0  0  0
   58.5190   32.7156   49.8114 H   0  0  0  0  0  0  0  0  0  0  0  0
   57.9963   31.4224   50.9526 H   0  0  0  0  0  0  0  0  0  0  0  0
   58.8950   30.7000   49.1290 C   0  0  0  0  0  0  0  0  0  0  0  0
   59.4712   31.1338   48.2984 H   0  0  0  0  0  0  0  0  0  0  0  0
   57.8784   30.4300   48.8072 H   0  0  0  0  0  0  0  0  0  0  0  0
   58.2010   28.9700   46.9260 C   0  0  0  0  0  0  0  0  0  0  0  0
   58.1722   30.0121   47.2771 H   0  0  0  0  0  0  0  0  0  0  0  0
  1  2  1  0
  2  3  1  0
  3  4  2  0
  3  5  1  0
  5  6  2  0
  6  7  1  0
  6  8  1  0
  8  9  1  0
  8 10  2  0
 10 11  1  0
 10 12  1  0
 12 13  1  0
 12 14  2  0
 14 15  1  0
  2 16  2  0
 16 17  1  0
 16 18  1  0
 18 19  2  0
 19 20  1  0
 19 21  1  0
 21 22  1  0
 21 23  2  0
 23 24  1  0
 23 25  1  0
 25 26  1  0
 25 27  2  0
 27 28  1  0
 28 29  1  0
 28 30  1  0
 30 31  2  0
 31 32  1  0
 31 33  1  0
 33 34  1  0
 33 35  2  0
 35 36  1  0
 35 37  1  0
 37 38  1  0
 38 39  2  0
 38 40  1  0
 40 41  1  0
 41 42  1  0
 41 43  1  0
 41 44  1  0
 44 45  1  0
 44 46  1  0
 44 47  1  0
 47 48  1  0
 48 49  2  0
 48 50  1  0
 50 51  1  0
 50 52  1  0
 50 53  1  0
 47 54  1  0
 54 55  1  0
 54 56  1  0
 54 57  1  0
 57 58  1  0
 57 59  1  0
 37 60  2  0
 60 61  1  0
 14  5  1  0
 27 18  1  0
 60 30  1  0
 57 40  1  0
M  END
>  <UniqueID>  (68) 
63

>  <SMILES>  (68) 
CC(=O)N1CCN(C(=O)c2cccc(Nc3ccccc3/C=C/C(=O)c3ccccc3)c2)CC1

>  <Energy>  (68) 
83.57787888149929

>  <Genealogy>  (68) 
CC(=O)N1CCN(C(=O)c2cccc(Nc3ccccc3/C=C/C(=O)c3ccccc3)c2)CC1 (cis-trans isomerization)
CC(=O)N1CCN(C(=O)c2cccc(Nc3ccccc3/C=C/C(=O)c3ccccc3)c2)CC1 (3D coordinates assigned)
CC(=O)N1CCN(C(=O)c2cccc(Nc3ccccc3/C=C/C(=O)c3ccccc3)c2)CC1 (nonaromatic ring conformer: 83.57787888149929 kcal/mol)

>  <smiles>  (68) 
CC(=O)N1CCN(C(=O)c2cccc(Nc3ccccc3C=CC(=O)c3ccccc3)c2)CC1

>  <score_type>  (68) 
oracle

>  <origin>  (68) 
adg

>  <m_score__min__energy>  (68) 
-10.279999999999999

>  <m_primary>  (68) 
energy

$$$$
68:0
     RDKit          3D

 42 44  0  0  0  0  0  0  0  0999 V2000
   61.3590   34.2110   47.8780 C   0  0  0  0  0  0  0  0  0  0  0  0
   60.6130   33.2400   47.3470 C   0  0  0  0  0  0  0  0  0  0  0  0
   59.9680   33.3640   46.0010 C   0  0  0  0  0  0  0  0  0  0  0  0
   58.4140   33.1020   46.0560 C   0  0  1  0  0  0  0  0  0  0  0  0
   57.6700   34.3440   45.5290 C   0  0  0  0  0  0  0  0  0  0  0  0
   58.0330   31.8950   45.1750 C   0  0  0  0  0  0  0  0  0  0  0  0
   57.8160   30.6140   45.7350 C   0  0  0  0  0  0  0  0  0  0  0  0
   57.4130   29.5280   44.9430 C   0  0  0  0  0  0  0  0  0  0  0  0
   57.1720   28.2520   45.5650 N   0  0  0  0  0  0  0  0  0  0  0  0
   57.8050   27.0230   45.1700 C   0  0  0  0  0  0  0  0  0  0  0  0
   58.9020   27.0630   44.5410 O   0  0  0  0  0  0  0  0  0  0  0  0
   57.1980   25.7070   45.5100 C   0  0  0  0  0  0  0  0  0  0  0  0
   57.9560   24.5250   45.3980 C   0  0  0  0  0  0  0  0  0  0  0  0
   57.3930   23.2960   45.7300 C   0  0  0  0  0  0  0  0  0  0  0  0
   56.0780   23.2440   46.1900 C   0  0  0  0  0  0  0  0  0  0  0  0
   55.3480   24.3860   46.2940 N   0  0  0  0  0  0  0  0  0  0  0  0
   55.8630   25.6030   45.9730 C   0  0  0  0  0  0  0  0  0  0  0  0
   55.1340   26.6220   46.0840 O   0  0  0  0  0  0  0  0  0  0  0  0
   57.1770   29.7310   43.5770 C   0  0  0  0  0  0  0  0  0  0  0  0
   57.3870   30.9850   43.0010 C   0  0  0  0  0  0  0  0  0  0  0  0
   57.8090   32.0580   43.7840 C   0  0  0  0  0  0  0  0  0  0  0  0
   57.9740   33.2630   43.1840 F   0  0  0  0  0  0  0  0  0  0  0  0
   57.9290   32.9100   47.4410 N   0  0  0  0  0  0  0  0  0  0  0  0
   58.5650   32.3520   48.4330 C   0  0  0  0  0  0  0  0  0  0  0  0
   57.9610   32.3060   49.7250 N   0  0  0  0  0  0  0  0  0  0  0  0
   60.2410   31.7530   48.2430 S   0  0  0  0  0  0  0  0  0  0  0  0
   61.8133   34.0752   48.8706 H   0  0  0  0  0  0  0  0  0  0  0  0
   61.5196   35.1471   47.3231 H   0  0  0  0  0  0  0  0  0  0  0  0
   60.1421   34.3802   45.6175 H   0  0  0  0  0  0  0  0  0  0  0  0
   60.4144   32.6043   45.3425 H   0  0  0  0  0  0  0  0  0  0  0  0
   57.3106   34.9439   46.3781 H   0  0  0  0  0  0  0  0  0  0  0  0
   58.3546   34.9490   44.9163 H   0  0  0  0  0  0  0  0  0  0  0  0
   56.8136   34.0259   44.9163 H   0  0  0  0  0  0  0  0  0  0  0  0
   57.9665   30.4661   46.8146 H   0  0  0  0  0  0  0  0  0  0  0  0
   56.5410   28.2290   46.3930 H   0  0  0  0  0  0  0  0  0  0  0  0
   58.9973   24.5734   45.0467 H   0  0  0  0  0  0  0  0  0  0  0  0
   57.9817   22.3721   45.6301 H   0  0  0  0  0  0  0  0  0  0  0  0
   55.6309   22.2784   46.4689 H   0  0  0  0  0  0  0  0  0  0  0  0
   56.8237   28.8962   42.9539 H   0  0  0  0  0  0  0  0  0  0  0  0
   57.2185   31.1271   41.9233 H   0  0  0  0  0  0  0  0  0  0  0  0
   57.0000   32.6820   49.8740 H   0  0  0  0  0  0  0  0  0  0  0  0
   58.4530   31.8300   50.5160 H   0  0  0  0  0  0  0  0  0  0  0  0
  1  2  2  0
  2  3  1  0
  3  4  1  0
  4  5  1  6
  4  6  1  0
  6  7  2  0
  7  8  1  0
  8  9  1  0
  9 10  1  0
 10 11  2  0
 10 12  1  0
 12 13  2  0
 13 14  1  0
 14 15  2  0
 15 16  1  0
 16 17  1  0
 17 18  2  0
  8 19  2  0
 19 20  1  0
 20 21  2  0
 21 22  1  0
  4 23  1  0
 23 24  2  0
 24 25  1  0
 24 26  1  0
 26  2  1  0
 21  6  1  0
 17 12  1  0
  1 27  1  0
  1 28  1  0
  3 29  1  0
  3 30  1  0
  5 31  1  0
  5 32  1  0
  5 33  1  0
  7 34  1  0
  9 35  1  0
 13 36  1  0
 14 37  1  0
 15 38  1  0
 19 39  1  0
 20 40  1  0
 25 41  1  0
 25 42  1  0
M  CHG  1  16  -1
M  END
>  <UniqueID>  (69) 
64

>  <SMILES>  (69) 
C=C1C[C@@](C)(c2cc(NC(=O)c3ccc[n-]c3=O)ccc2F)N=C(N)S1

>  <Energy>  (69) 
66.09778936918278

>  <Genealogy>  (69) 
C=C1CC(C)(c2cc(NC(=O)c3ccc[n-]c3=O)ccc2F)N=C(N)S1 (protonated)
C=C1C[C@@](C)(c2cc(NC(=O)c3ccc[n-]c3=O)ccc2F)N=C(N)S1 (chirality)
C=C1C[C@@](C)(c2cc(NC(=O)c3ccc[n-]c3=O)ccc2F)N=C(N)S1 (3D coordinates assigned)
C=C1C[C@@](C)(c2cc(NC(=O)c3ccc[n-]c3=O)ccc2F)N=C(N)S1 (nonaromatic ring conformer: 66.09778936918278 kcal/mol)

>  <smiles>  (69) 
C=C1CC(C)(c2cc(NC(=O)c3ccc[nH]c3=O)ccc2F)N=C(N)S1

>  <score_type>  (69) 
oracle

>  <origin>  (69) 
adg

>  <m_score__min__energy>  (69) 
-10.68

>  <m_primary>  (69) 
energy

$$$$
69:0
     RDKit          3D

 37 38  0  0  0  0  0  0  0  0999 V2000
   61.3740   33.8870   46.8270 C   0  0  0  0  0  0  0  0  0  0  0  0
   60.2350   34.5860   46.7950 C   0  0  0  0  0  0  0  0  0  0  0  0
   58.9210   33.9640   47.1750 C   0  0  0  0  0  0  0  0  0  0  0  0
   58.4390   33.0880   46.1020 N   0  0  0  0  0  0  0  0  0  0  0  0
   57.5930   33.3820   45.0820 C   0  0  0  0  0  0  0  0  0  0  0  0
   57.0500   34.5830   44.8670 C   0  0  0  0  0  0  0  0  0  0  0  0
   57.3380   32.3200   44.2840 N   0  0  0  0  0  0  0  0  0  0  0  0
   58.0390   31.3030   44.8320 C   0  0  0  0  0  0  0  0  0  0  0  0
   58.0450   30.0680   44.3050 C   0  0  0  0  0  0  0  0  0  0  0  0
   57.8890   28.8220   45.0800 C   0  0  0  0  0  0  0  0  0  0  0  0
   59.0210   28.2030   45.6240 C   0  0  0  0  0  0  0  0  0  0  0  0
   58.8980   26.9990   46.3230 C   0  0  0  0  0  0  0  0  0  0  0  0
   57.6450   26.3940   46.4640 C   0  0  0  0  0  0  0  0  0  0  0  0
   56.5040   26.9860   45.8930 C   0  0  0  0  0  0  0  0  0  0  0  0
   55.2020   26.3950   45.9940 N   0  0  0  0  0  0  0  0  0  0  0  0
   54.8070   24.7430   45.6470 S   0  0  0  0  0  0  0  0  0  0  0  0
   55.8300   24.1320   44.3240 C   0  0  0  0  0  0  0  0  0  0  0  0
   53.3690   24.6700   45.2180 O   0  0  0  0  0  0  0  0  0  0  0  0
   54.9850   23.9000   46.8800 O   0  0  0  0  0  0  0  0  0  0  0  0
   56.6370   28.1930   45.1950 C   0  0  0  0  0  0  0  0  0  0  0  0
   58.7180   31.7830   45.9400 C   0  0  0  0  0  0  0  0  0  0  0  0
   59.5100   31.1350   46.6760 O   0  0  0  0  0  0  0  0  0  0  0  0
   62.3222   34.3673   46.5436 H   0  0  0  0  0  0  0  0  0  0  0  0
   61.3631   32.8316   47.1367 H   0  0  0  0  0  0  0  0  0  0  0  0
   60.2602   35.6406   46.4834 H   0  0  0  0  0  0  0  0  0  0  0  0
   59.0522   33.3731   48.0935 H   0  0  0  0  0  0  0  0  0  0  0  0
   58.1834   34.7631   47.3408 H   0  0  0  0  0  0  0  0  0  0  0  0
   56.3724   34.7355   44.0140 H   0  0  0  0  0  0  0  0  0  0  0  0
   57.2803   35.4197   45.5429 H   0  0  0  0  0  0  0  0  0  0  0  0
   58.1757   29.9786   43.2165 H   0  0  0  0  0  0  0  0  0  0  0  0
   60.0111   28.6662   45.5007 H   0  0  0  0  0  0  0  0  0  0  0  0
   59.7884   26.5263   46.7631 H   0  0  0  0  0  0  0  0  0  0  0  0
   57.5514   25.4516   47.0236 H   0  0  0  0  0  0  0  0  0  0  0  0
   56.7023   23.6110   44.7456 H   0  0  0  0  0  0  0  0  0  0  0  0
   55.2493   23.4327   43.7045 H   0  0  0  0  0  0  0  0  0  0  0  0
   56.1704   24.9748   43.7045 H   0  0  0  0  0  0  0  0  0  0  0  0
   55.7521   28.6538   44.7317 H   0  0  0  0  0  0  0  0  0  0  0  0
  1  2  2  0
  2  3  1  0
  3  4  1  0
  4  5  1  0
  5  6  2  0
  5  7  1  0
  7  8  1  0
  8  9  2  3
  9 10  1  0
 10 11  2  0
 11 12  1  0
 12 13  2  0
 13 14  1  0
 14 15  1  0
 15 16  1  0
 16 17  1  0
 16 18  2  0
 16 19  2  0
 14 20  2  0
  8 21  1  0
 21 22  2  0
 21  4  1  0
 20 10  1  0
  1 23  1  0
  1 24  1  0
  2 25  1  0
  3 26  1  0
  3 27  1  0
  6 28  1  0
  6 29  1  0
  9 30  1  0
 11 31  1  0
 12 32  1  0
 13 33  1  0
 17 34  1  0
 17 35  1  0
 17 36  1  0
 20 37  1  0
M  CHG  2   7  -1  15  -1
M  END
>  <UniqueID>  (70) 
65

>  <SMILES>  (70) 
C=CCn1c(=C)[n-]c(=Cc2cccc([N-]S(C)(=O)=O)c2)c1=O

>  <Energy>  (70) 
72.97359859708514

>  <Genealogy>  (70) 
C=CCn1c(=C)[n-]c(=Cc2cccc([N-]S(C)(=O)=O)c2)c1=O (protonated)
C=CCn1c(=C)[n-]c(=Cc2cccc([N-]S(C)(=O)=O)c2)c1=O (3D coordinates assigned)
C=CCn1c(=C)[n-]c(=Cc2cccc([N-]S(C)(=O)=O)c2)c1=O (optimized conformer: 72.97359859708514 kcal/mol)

>  <smiles>  (70) 
C=CCn1c(=C)[nH]c(=Cc2cccc(NS(C)(=O)=O)c2)c1=O

>  <score_type>  (70) 
oracle

>  <origin>  (70) 
adg

>  <m_score__min__energy>  (70) 
-10.67

>  <m_primary>  (70) 
energy

$$$$
70:0
     RDKit          3D

 58 61  0  0  0  0  0  0  0  0999 V2000
   49.9710   33.7240   51.9860 H   0  0  0  0  0  0  0  0  0  0  0  0
   50.2670   32.7200   52.0100 N   0  0  0  0  0  0  0  0  0  0  0  0
   51.3850   32.2600   51.2500 C   0  0  0  0  0  0  0  0  0  0  0  0
   51.5650   32.7140   50.0870 O   0  0  0  0  0  0  0  0  0  0  0  0
   52.3310   31.2660   51.8150 C   0  0  0  0  0  0  0  0  0  0  0  0
   51.8730   30.2520   52.6710 C   0  0  0  0  0  0  0  0  0  0  0  0
   50.8050   30.1866   52.9262 H   0  0  0  0  0  0  0  0  0  0  0  0
   52.7750   29.3280   53.1970 C   0  0  0  0  0  0  0  0  0  0  0  0
   52.4196   28.5412   53.8786 H   0  0  0  0  0  0  0  0  0  0  0  0
   54.0910   29.3970   52.8700 N   0  0  0  0  0  0  0  0  0  0  0  0
   54.5830   30.3530   52.0350 C   0  0  0  0  0  0  0  0  0  0  0  0
   55.8580   30.3340   51.7600 N   0  0  0  0  0  0  0  0  0  0  0  0
   56.7570   31.4810   51.5960 C   0  0  0  0  0  0  0  0  0  0  0  0
   56.6887   32.1184   52.4899 H   0  0  0  0  0  0  0  0  0  0  0  0
   56.4495   32.0322   50.6951 H   0  0  0  0  0  0  0  0  0  0  0  0
   58.2200   31.0350   51.4110 C   0  0  0  0  0  0  0  0  0  0  0  0
   58.5034   30.4038   52.2661 H   0  0  0  0  0  0  0  0  0  0  0  0
   58.8329   31.9462   51.3474 H   0  0  0  0  0  0  0  0  0  0  0  0
   58.4540   30.2370   50.1160 C   0  0  0  0  0  0  0  0  0  0  0  0
   57.4986   29.7916   49.8018 H   0  0  0  0  0  0  0  0  0  0  0  0
   59.2131   29.4716   50.3351 H   0  0  0  0  0  0  0  0  0  0  0  0
   58.9840   31.0860   48.9840 C   0  0  0  0  0  0  0  0  0  0  0  0
   58.1790   31.7190   48.2510 O   0  0  0  0  0  0  0  0  0  0  0  0
   60.3790   31.1240   48.6610 N   0  0  0  0  0  0  0  0  0  0  0  0
   61.1510   29.9780   48.1960 C   0  0  0  0  0  0  0  0  0  0  0  0
   61.4337   29.3537   49.0564 H   0  0  0  0  0  0  0  0  0  0  0  0
   62.0578   30.3322   47.6840 H   0  0  0  0  0  0  0  0  0  0  0  0
   60.3260   29.1690   47.2430 C   0  0  0  0  0  0  0  0  0  0  0  0
   59.8940   29.6660   46.0500 N   0  0  0  0  0  0  0  0  0  0  0  0
   59.1830   28.6420   45.5410 C   0  0  0  0  0  0  0  0  0  0  0  0
   58.4930   28.5830   44.3380 C   0  0  0  0  0  0  0  0  0  0  0  0
   58.4855   29.4344   43.6415 H   0  0  0  0  0  0  0  0  0  0  0  0
   57.8040   27.3930   44.0440 C   0  0  0  0  0  0  0  0  0  0  0  0
   57.2560   27.2973   43.0950 H   0  0  0  0  0  0  0  0  0  0  0  0
   57.8130   26.3080   44.9730 C   0  0  0  0  0  0  0  0  0  0  0  0
   57.1040   25.0700   44.7070 N   0  0  0  0  0  0  0  0  0  0  0  0
   57.1270   24.4630   43.3640 C   0  0  0  0  0  0  0  0  0  0  0  0
   57.0021   25.2567   42.6127 H   0  0  0  0  0  0  0  0  0  0  0  0
   58.0906   23.9473   43.2391 H   0  0  0  0  0  0  0  0  0  0  0  0
   56.0090   23.4310   43.1850 C   0  0  0  0  0  0  0  0  0  0  0  0
   55.0458   23.9553   43.0995 H   0  0  0  0  0  0  0  0  0  0  0  0
   56.2125   22.8481   42.2746 H   0  0  0  0  0  0  0  0  0  0  0  0
   55.9570   22.5450   44.2850 O   0  0  0  0  0  0  0  0  0  0  0  0
   55.5600   23.2650   45.4350 C   0  0  0  0  0  0  0  0  0  0  0  0
   54.6327   23.8143   45.2150 H   0  0  0  0  0  0  0  0  0  0  0  0
   55.3960   22.5543   46.2584 H   0  0  0  0  0  0  0  0  0  0  0  0
   56.6470   24.2600   45.8520 C   0  0  0  0  0  0  0  0  0  0  0  0
   56.2416   24.9296   46.6248 H   0  0  0  0  0  0  0  0  0  0  0  0
   57.5060   23.6920   46.2387 H   0  0  0  0  0  0  0  0  0  0  0  0
   58.5200   26.4410   46.1420 N   0  0  0  0  0  0  0  0  0  0  0  0
   59.1880   27.5920   46.3940 C   0  0  0  0  0  0  0  0  0  0  0  0
   59.9170   27.8910   47.4770 N   0  0  0  0  0  0  0  0  0  0  0  0
   60.0660   27.0910   48.6910 C   0  0  0  0  0  0  0  0  0  0  0  0
   59.9456   27.7372   49.5730 H   0  0  0  0  0  0  0  0  0  0  0  0
   59.2993   26.3024   48.7069 H   0  0  0  0  0  0  0  0  0  0  0  0
   61.0652   26.6313   48.7069 H   0  0  0  0  0  0  0  0  0  0  0  0
   53.7010   31.3190   51.5020 C   0  0  0  0  0  0  0  0  0  0  0  0
   54.0852   32.1116   50.8431 H   0  0  0  0  0  0  0  0  0  0  0  0
  1  2  1  0
  2  3  1  0
  3  4  2  0
  3  5  1  0
  5  6  1  0
  6  7  1  0
  6  8  2  0
  8  9  1  0
  8 10  1  0
 10 11  1  0
 11 12  2  0
 12 13  1  0
 13 14  1  0
 13 15  1  0
 13 16  1  0
 16 17  1  0
 16 18  1  0
 16 19  1  0
 19 20  1  0
 19 21  1  0
 19 22  1  0
 22 23  2  0
 22 24  1  0
 24 25  1  0
 25 26  1  0
 25 27  1  0
 25 28  1  0
 28 29  2  0
 29 30  1  0
 30 31  2  0
 31 32  1  0
 31 33  1  0
 33 34  1  0
 33 35  2  0
 35 36  1  0
 36 37  1  0
 37 38  1  0
 37 39  1  0
 37 40  1  0
 40 41  1  0
 40 42  1  0
 40 43  1  0
 43 44  1  0
 44 45  1  0
 44 46  1  0
 44 47  1  0
 47 48  1  0
 47 49  1  0
 35 50  1  0
 50 51  2  0
 51 52  1  0
 52 53  1  0
 53 54  1  0
 53 55  1  0
 53 56  1  0
 11 57  1  0
 57 58  1  0
 57  5  2  0
 52 28  1  0
 51 30  1  0
 47 36  1  0
M  CHG  3   2  -1  10  -1  24  -1
M  END
>  <UniqueID>  (71) 
66

>  <SMILES>  (71) 
Cn1c(C[N-]C(=O)CCC/N=c2\cc(C([NH-])=O)cc[n-]2)nc2ccc(N3CCOCC3)nc21

>  <Energy>  (71) 
101.83020656483653

>  <Genealogy>  (71) 
Cn1c(C[N-]C(=O)CCCN=c2cc(C([NH-])=O)cc[n-]2)nc2ccc(N3CCOCC3)nc21 (protonated)
Cn1c(C[N-]C(=O)CCC/N=c2\cc(C([NH-])=O)cc[n-]2)nc2ccc(N3CCOCC3)nc21 (cis-trans isomerization)
Cn1c(C[N-]C(=O)CCC/N=c2\cc(C([NH-])=O)cc[n-]2)nc2ccc(N3CCOCC3)nc21 (3D coordinates assigned)
Cn1c(C[N-]C(=O)CCC/N=c2\cc(C([NH-])=O)cc[n-]2)nc2ccc(N3CCOCC3)nc21 (nonaromatic ring conformer: 101.83020656483653 kcal/mol)

>  <smiles>  (71) 
Cn1c(CNC(=O)CCCN=c2cc(C(N)=O)cc[nH]2)nc2ccc(N3CCOCC3)nc21

>  <score_type>  (71) 
oracle

>  <origin>  (71) 
adg

>  <m_score__min__energy>  (71) 
-13.960000000000001

>  <m_primary>  (71) 
energy

$$$$
71:0
     RDKit          3D

 53 57  0  0  0  0  0  0  0  0999 V2000
   55.4990   26.6920   45.9950 N   0  0  0  0  0  0  0  0  0  0  0  0
   56.8020   27.2720   46.0450 C   0  0  0  0  0  0  0  0  0  0  0  0
   57.7360   26.6540   46.6230 O   0  0  0  0  0  0  0  0  0  0  0  0
   57.0560   28.5720   45.4060 C   0  0  0  0  0  0  0  0  0  0  0  0
   57.7860   29.6160   45.9750 C   0  0  0  0  0  0  0  0  0  0  0  0
   57.8240   30.6000   45.0060 C   0  0  0  0  0  0  0  0  0  0  0  0
   58.4680   31.8430   44.9800 C   0  0  0  0  0  0  0  0  0  0  0  0
   59.2040   32.3600   46.1410 C   0  0  0  0  0  0  0  0  0  0  0  0
   60.3850   31.7300   46.5630 C   0  0  0  0  0  0  0  0  0  0  0  0
   61.0230   32.1500   47.7320 C   0  0  0  0  0  0  0  0  0  0  0  0
   60.4980   33.2200   48.4750 C   0  0  0  0  0  0  0  0  0  0  0  0
   61.0880   33.5930   49.7750 C   0  0  0  0  0  0  0  0  0  0  0  0
   61.8520   34.5980   49.8290 O   0  0  0  0  0  0  0  0  0  0  0  0
   60.6290   32.9590   50.9940 N   0  0  0  0  0  0  0  0  0  0  0  0
   59.3360   33.5300   51.4420 C   0  0  0  0  0  0  0  0  0  0  0  0
   58.6650   32.5810   52.4440 C   0  0  0  0  0  0  0  0  0  0  0  0
   58.3110   31.2700   51.8200 N   0  0  0  0  0  0  0  0  0  0  0  0
   56.8930   30.9950   51.4550 C   0  0  0  0  0  0  0  0  0  0  0  0
   56.1170   30.0800   52.3960 C   0  0  0  0  0  0  0  0  0  0  0  0
   55.7740   31.5730   52.3200 C   0  0  0  0  0  0  0  0  0  0  0  0
   59.1660   30.9380   50.6550 C   0  0  0  0  0  0  0  0  0  0  0  0
   60.5960   31.4780   50.8220 C   0  0  0  0  0  0  0  0  0  0  0  0
   59.3530   33.8870   48.0170 C   0  0  0  0  0  0  0  0  0  0  0  0
   58.6970   33.4470   46.8660 C   0  0  0  0  0  0  0  0  0  0  0  0
   58.3830   32.6010   43.7900 C   0  0  0  0  0  0  0  0  0  0  0  0
   57.6610   32.1130   42.6790 C   0  0  0  0  0  0  0  0  0  0  0  0
   57.5910   32.8520   41.5410 F   0  0  0  0  0  0  0  0  0  0  0  0
   57.0210   30.8620   42.7410 C   0  0  0  0  0  0  0  0  0  0  0  0
   57.1270   30.1280   43.9220 C   0  0  0  0  0  0  0  0  0  0  0  0
   56.6450   28.8970   44.1600 N   0  0  0  0  0  0  0  0  0  0  0  0
   54.7130   27.0890   46.5600 H   0  0  0  0  0  0  0  0  0  0  0  0
   58.2346   29.6486   46.9788 H   0  0  0  0  0  0  0  0  0  0  0  0
   60.8085   30.9044   45.9722 H   0  0  0  0  0  0  0  0  0  0  0  0
   61.9379   31.6422   48.0713 H   0  0  0  0  0  0  0  0  0  0  0  0
   61.3260   33.1600   51.7560 H   0  0  0  0  0  0  0  0  0  0  0  0
   59.5143   34.5026   51.9240 H   0  0  0  0  0  0  0  0  0  0  0  0
   58.6772   33.6617   50.5710 H   0  0  0  0  0  0  0  0  0  0  0  0
   59.3559   32.4013   53.2809 H   0  0  0  0  0  0  0  0  0  0  0  0
   57.7351   33.0548   52.7916 H   0  0  0  0  0  0  0  0  0  0  0  0
   57.1115   31.0231   50.3773 H   0  0  0  0  0  0  0  0  0  0  0  0
   55.4199   29.3338   51.9870 H   0  0  0  0  0  0  0  0  0  0  0  0
   56.3879   29.3839   53.2035 H   0  0  0  0  0  0  0  0  0  0  0  0
   54.8314   31.8986   51.8558 H   0  0  0  0  0  0  0  0  0  0  0  0
   55.6970   32.3931   53.0491 H   0  0  0  0  0  0  0  0  0  0  0  0
   59.2092   29.8443   50.5456 H   0  0  0  0  0  0  0  0  0  0  0  0
   58.7256   31.4082   49.7634 H   0  0  0  0  0  0  0  0  0  0  0  0
   61.0491   31.0095   51.7081 H   0  0  0  0  0  0  0  0  0  0  0  0
   61.1550   31.2346   49.9064 H   0  0  0  0  0  0  0  0  0  0  0  0
   58.9704   34.7598   48.5664 H   0  0  0  0  0  0  0  0  0  0  0  0
   57.7813   33.9539   46.5277 H   0  0  0  0  0  0  0  0  0  0  0  0
   58.8833   33.5788   43.7289 H   0  0  0  0  0  0  0  0  0  0  0  0
   56.4532   30.4738   41.8826 H   0  0  0  0  0  0  0  0  0  0  0  0
   56.1000   28.3020   43.4960 H   0  0  0  0  0  0  0  0  0  0  0  0
  1  2  1  0
  2  3  2  0
  2  4  1  0
  4  5  2  0
  5  6  1  0
  6  7  2  0
  7  8  1  0
  8  9  2  0
  9 10  1  0
 10 11  2  0
 11 12  1  0
 12 13  2  0
 12 14  1  0
 14 15  1  0
 15 16  1  0
 16 17  1  0
 17 18  1  0
 18 19  1  0
 19 20  1  0
 17 21  1  0
 21 22  1  0
 11 23  1  0
 23 24  2  0
  7 25  1  0
 25 26  2  0
 26 27  1  0
 26 28  1  0
 28 29  2  0
 29 30  1  0
 30  4  1  0
 29  6  1  0
 24  8  1  0
 22 14  1  0
 20 18  1  0
  1 31  1  0
  5 32  1  0
  9 33  1  0
 10 34  1  0
 14 35  1  0
 15 36  1  0
 15 37  1  0
 16 38  1  0
 16 39  1  0
 18 40  1  0
 19 41  1  0
 19 42  1  0
 20 43  1  0
 20 44  1  0
 21 45  1  0
 21 46  1  0
 22 47  1  0
 22 48  1  0
 23 49  1  0
 24 50  1  0
 25 51  1  0
 28 52  1  0
 30 53  1  0
M  CHG  2   1  -1  14   1
M  END
>  <UniqueID>  (72) 
67

>  <SMILES>  (72) 
[NH-]C(=O)c1cc2c(-c3ccc(C(=O)[NH+]4CCN(C5CC5)CC4)cc3)cc(F)cc2[nH]1

>  <Energy>  (72) 
392.5146149503292

>  <Genealogy>  (72) 
[NH-]C(=O)c1cc2c(-c3ccc(C(=O)[NH+]4CCN(C5CC5)CC4)cc3)cc(F)cc2[nH]1 (protonated)
[NH-]C(=O)c1cc2c(-c3ccc(C(=O)[NH+]4CCN(C5CC5)CC4)cc3)cc(F)cc2[nH]1 (3D coordinates assigned)
[NH-]C(=O)c1cc2c(-c3ccc(C(=O)[NH+]4CCN(C5CC5)CC4)cc3)cc(F)cc2[nH]1 (nonaromatic ring conformer: 392.5146149503292 kcal/mol)

>  <smiles>  (72) 
NC(=O)c1cc2c(-c3ccc(C(=O)N4CCN(C5CC5)CC4)cc3)cc(F)cc2[nH]1

>  <score_type>  (72) 
oracle

>  <origin>  (72) 
adg

>  <m_score__min__energy>  (72) 
-11.619999999999999

>  <m_primary>  (72) 
energy

$$$$
72:0
     RDKit          3D

 40 42  0  0  0  0  0  0  0  0999 V2000
   56.6654   31.8699   40.7124 H   0  0  0  0  0  0  0  0  0  0  0  0
   57.3880   32.2330   41.4580 C   0  0  0  0  0  0  0  0  0  0  0  0
   57.9965   33.1244   41.2455 H   0  0  0  0  0  0  0  0  0  0  0  0
   57.5260   31.5940   42.6170 C   0  0  0  0  0  0  0  0  0  0  0  0
   58.3840   31.9690   43.5830 N   0  0  0  0  0  0  0  0  0  0  0  0
   58.2120   31.0580   44.5750 C   0  0  0  0  0  0  0  0  0  0  0  0
   58.9410   31.1230   45.7150 C   0  0  0  0  0  0  0  0  0  0  0  0
   59.2230   32.3820   46.4260 C   0  0  0  0  0  0  0  0  0  0  0  0
   60.4250   32.6400   47.0750 C   0  0  0  0  0  0  0  0  0  0  0  0
   61.2565   31.9314   47.2032 H   0  0  0  0  0  0  0  0  0  0  0  0
   60.3830   34.2260   47.6290 S   0  0  0  0  0  0  0  0  0  0  0  0
   58.8600   34.6060   47.0290 C   0  0  0  0  0  0  0  0  0  0  0  0
   58.3476   35.5736   47.1349 H   0  0  0  0  0  0  0  0  0  0  0  0
   58.3610   33.4880   46.3770 C   0  0  0  0  0  0  0  0  0  0  0  0
   57.3845   33.4702   45.8708 H   0  0  0  0  0  0  0  0  0  0  0  0
   59.3920   29.9040   46.3320 N   0  0  0  0  0  0  0  0  0  0  0  0
   58.9150   29.5420   47.6690 C   0  0  0  0  0  0  0  0  0  0  0  0
   59.0250   30.4087   48.3374 H   0  0  0  0  0  0  0  0  0  0  0  0
   57.8586   29.2441   47.5962 H   0  0  0  0  0  0  0  0  0  0  0  0
   59.7190   28.3630   48.2380 C   0  0  0  0  0  0  0  0  0  0  0  0
   60.7371   28.7106   48.4676 H   0  0  0  0  0  0  0  0  0  0  0  0
   59.1947   28.0094   49.1381 H   0  0  0  0  0  0  0  0  0  0  0  0
   59.8100   27.2190   47.2970 N   0  0  0  0  0  0  0  0  0  0  0  0
   58.6890   26.2840   47.4790 C   0  0  0  0  0  0  0  0  0  0  0  0
   58.5081   26.1331   48.5535 H   0  0  0  0  0  0  0  0  0  0  0  0
   57.7850   26.6996   47.0098 H   0  0  0  0  0  0  0  0  0  0  0  0
   58.9356   25.3201   47.0098 H   0  0  0  0  0  0  0  0  0  0  0  0
   59.9750   27.5860   45.8650 C   0  0  0  0  0  0  0  0  0  0  0  0
   60.7553   26.9460   45.4273 H   0  0  0  0  0  0  0  0  0  0  0  0
   59.0008   27.4414   45.3752 H   0  0  0  0  0  0  0  0  0  0  0  0
   60.3750   29.0500   45.6620 C   0  0  0  0  0  0  0  0  0  0  0  0
   61.3717   29.2244   46.0935 H   0  0  0  0  0  0  0  0  0  0  0  0
   60.4039   29.2845   44.5877 H   0  0  0  0  0  0  0  0  0  0  0  0
   57.2520   30.1350   44.2680 N   0  0  0  0  0  0  0  0  0  0  0  0
   56.6580   29.0730   45.0840 C   0  0  0  0  0  0  0  0  0  0  0  0
   56.7913   29.3113   46.1496 H   0  0  0  0  0  0  0  0  0  0  0  0
   55.5845   28.9936   44.8575 H   0  0  0  0  0  0  0  0  0  0  0  0
   57.1522   28.1167   44.8575 H   0  0  0  0  0  0  0  0  0  0  0  0
   56.8410   30.4800   43.0320 C   0  0  0  0  0  0  0  0  0  0  0  0
   55.9480   29.8730   42.3800 O   0  0  0  0  0  0  0  0  0  0  0  0
  1  2  1  0
  2  3  1  0
  2  4  2  0
  4  5  1  0
  5  6  1  0
  6  7  2  0
  7  8  1  0
  8  9  2  0
  9 10  1  0
  9 11  1  0
 11 12  1  0
 12 13  1  0
 12 14  2  0
 14 15  1  0
  7 16  1  0
 16 17  1  0
 17 18  1  0
 17 19  1  0
 17 20  1  0
 20 21  1  0
 20 22  1  0
 20 23  1  0
 23 24  1  0
 24 25  1  0
 24 26  1  0
 24 27  1  0
 23 28  1  0
 28 29  1  0
 28 30  1  0
 28 31  1  0
 31 32  1  0
 31 33  1  0
  6 34  1  0
 34 35  1  0
 35 36  1  0
 35 37  1  0
 35 38  1  0
 34 39  1  0
 39 40  2  0
 39  4  1  0
 14  8  1  0
 31 16  1  0
M  CHG  1   5  -1
M  END
>  <UniqueID>  (73) 
68

>  <SMILES>  (73) 
C=c1[n-]/c(=C(/c2ccsc2)N2CCN(C)CC2)n(C)c1=O

>  <Energy>  (73) 
121.04973820017305

>  <Genealogy>  (73) 
C=c1[n-]c(=C(c2ccsc2)N2CCN(C)CC2)n(C)c1=O (protonated)
C=c1[n-]/c(=C(/c2ccsc2)N2CCN(C)CC2)n(C)c1=O (cis-trans isomerization)
C=c1[n-]/c(=C(/c2ccsc2)N2CCN(C)CC2)n(C)c1=O (3D coordinates assigned)
C=c1[n-]/c(=C(/c2ccsc2)N2CCN(C)CC2)n(C)c1=O (nonaromatic ring conformer: 121.04973820017305 kcal/mol)

>  <smiles>  (73) 
C=c1[nH]c(=C(c2ccsc2)N2CCN(C)CC2)n(C)c1=O

>  <score_type>  (73) 
oracle

>  <origin>  (73) 
adg

>  <m_score__min__energy>  (73) 
-7.5800000000000001

>  <m_primary>  (73) 
energy

$$$$
73:0
     RDKit          3D

 53 55  0  0  1  0  0  0  0  0999 V2000
   51.3790   29.4540   47.9920 C   0  0  0  0  0  0  0  0  0  0  0  0
   51.4110   30.2660   49.1560 O   0  0  0  0  0  0  0  0  0  0  0  0
   52.3400   30.0300   50.1560 C   0  0  0  0  0  0  0  0  0  0  0  0
   52.3940   30.7260   51.2930 C   0  0  0  0  0  0  0  0  0  0  0  0
   51.6130   31.9940   51.2350 C   0  0  0  0  0  0  0  0  0  0  0  0
   51.0830   32.4640   52.3080 O   0  0  0  0  0  0  0  0  0  0  0  0
   51.4030   32.7210   50.1020 O   0  0  0  0  0  0  0  0  0  0  0  0
   53.0290   30.2830   52.5110 C   0  0  0  0  0  0  0  0  0  0  0  0
   52.2650   29.4380   53.3330 C   0  0  0  0  0  0  0  0  0  0  0  0
   52.7420   28.9280   54.5160 C   0  0  0  0  0  0  0  0  0  0  0  0
   54.0310   29.2280   54.9750 C   0  0  0  0  0  0  0  0  0  0  0  0
   54.7650   30.0510   54.1640 C   0  0  0  0  0  0  0  0  0  0  0  0
   54.2850   30.5730   52.9510 C   0  0  0  0  0  0  0  0  0  0  0  0
   55.3560   31.2070   52.1340 C   0  0  0  0  0  0  0  0  0  0  0  0
   56.2190   30.1330   51.6310 O   0  0  0  0  0  0  0  0  0  0  0  0
   57.4780   30.4660   51.2050 C   0  0  0  0  0  0  0  0  0  0  0  0
   57.8010   31.7810   50.8870 C   0  0  0  0  0  0  0  0  0  0  0  0
   59.0310   32.1920   50.4610 C   0  0  0  0  0  0  0  0  0  0  0  0
   59.3290   33.3730   50.0690 N   0  0  0  0  0  0  0  0  0  0  0  0
   59.2930   33.6680   48.6660 C   0  0  0  0  0  0  0  0  0  0  0  0
   58.3620   32.9120   47.9410 C   0  0  0  0  0  0  0  0  0  0  0  0
   58.1750   33.0480   46.5980 C   0  0  0  0  0  0  0  0  0  0  0  0
   58.9730   34.0030   45.9520 C   0  0  0  0  0  0  0  0  0  0  0  0
   58.8570   34.2210   44.4690 C   0  0  0  0  0  0  0  0  0  0  0  0
   59.8850   34.7470   46.6610 C   0  0  0  0  0  0  0  0  0  0  0  0
   60.0620   34.5930   48.0320 C   0  0  0  0  0  0  0  0  0  0  0  0
   60.0150   31.2420   50.3460 N   0  0  0  0  0  0  0  0  0  0  0  0
   59.7150   29.9560   50.6550 C   0  0  0  0  0  0  0  0  0  0  0  0
   60.7730   28.9090   50.5490 C   0  0  0  0  0  0  0  0  0  0  0  0
   58.4940   29.5720   51.0700 N   0  0  0  0  0  0  0  0  0  0  0  0
   51.3373   28.3946   48.2850 H   0  0  0  0  0  0  0  0  0  0  0  0
   50.4900   29.7045   47.3945 H   0  0  0  0  0  0  0  0  0  0  0  0
   52.2849   29.6338   47.3945 H   0  0  0  0  0  0  0  0  0  0  0  0
   53.0736   29.2245   50.0044 H   0  0  0  0  0  0  0  0  0  0  0  0
   51.7050   32.3790   49.1780 H   0  0  0  0  0  0  0  0  0  0  0  0
   51.2449   29.1744   53.0170 H   0  0  0  0  0  0  0  0  0  0  0  0
   52.0973   28.2693   55.1163 H   0  0  0  0  0  0  0  0  0  0  0  0
   54.4259   28.8299   55.9213 H   0  0  0  0  0  0  0  0  0  0  0  0
   55.7847   30.3178   54.4786 H   0  0  0  0  0  0  0  0  0  0  0  0
   54.9105   31.7567   51.2918 H   0  0  0  0  0  0  0  0  0  0  0  0
   55.9358   31.9191   52.7396 H   0  0  0  0  0  0  0  0  0  0  0  0
   57.0120   32.5411   50.9855 H   0  0  0  0  0  0  0  0  0  0  0  0
   57.7527   32.1731   48.4821 H   0  0  0  0  0  0  0  0  0  0  0  0
   57.4383   32.4417   46.0506 H   0  0  0  0  0  0  0  0  0  0  0  0
   58.3482   35.1773   44.2777 H   0  0  0  0  0  0  0  0  0  0  0  0
   59.8619   34.2445   44.0221 H   0  0  0  0  0  0  0  0  0  0  0  0
   58.2761   33.4007   44.0221 H   0  0  0  0  0  0  0  0  0  0  0  0
   60.4957   35.4894   46.1264 H   0  0  0  0  0  0  0  0  0  0  0  0
   60.7973   35.1975   48.5833 H   0  0  0  0  0  0  0  0  0  0  0  0
   60.9710   31.5420   50.0310 H   0  0  0  0  0  0  0  0  0  0  0  0
   61.0853   28.5999   51.5574 H   0  0  0  0  0  0  0  0  0  0  0  0
   60.3750   28.0393   50.0057 H   0  0  0  0  0  0  0  0  0  0  0  0
   61.6385   29.3160   50.0057 H   0  0  0  0  0  0  0  0  0  0  0  0
  1  2  1  0
  2  3  1  0
  3  4  2  0
  4  5  1  0
  5  6  2  0
  5  7  1  0
  4  8  1  0
  8  9  2  0
  9 10  1  0
 10 11  2  0
 11 12  1  0
 12 13  2  0
 13 14  1  0
 14 15  1  0
 15 16  1  0
 16 17  2  0
 17 18  1  0
 18 19  2  0
 19 20  1  0
 20 21  2  0
 21 22  1  0
 22 23  2  0
 23 24  1  0
 23 25  1  0
 25 26  2  0
 18 27  1  0
 27 28  1  0
 28 29  1  0
 28 30  2  0
 13  8  1  0
 30 16  1  0
 26 20  1  0
  1 31  1  0
  1 32  1  0
  1 33  1  0
  3 34  1  0
  7 35  1  0
  9 36  1  0
 10 37  1  0
 11 38  1  0
 12 39  1  0
 14 40  1  0
 14 41  1  0
 17 42  1  0
 21 43  1  0
 22 44  1  0
 24 45  1  0
 24 46  1  0
 24 47  1  0
 25 48  1  0
 26 49  1  0
 27 50  1  0
 29 51  1  0
 29 52  1  0
 29 53  1  0
M  END
>  <smiles>  (74) 
COC=C(C(=O)O)c1ccccc1COc1cc(=Nc2ccc(C)cc2)[nH]c(C)n1

>  <score_type>  (74) 
oracle

>  <origin>  (74) 
adg

>  <m_score__min__energy>  (74) 
-10.25

>  <m_primary>  (74) 
energy

$$$$
74:0
     RDKit          3D

 68 71  0  0  0  0  0  0  0  0999 V2000
   59.0660   33.7720   51.8790 C   0  0  0  0  0  0  0  0  0  0  0  0
   58.1750   32.5820   51.5210 C   0  0  0  0  0  0  0  0  0  0  0  0
   58.9590   31.4480   50.8390 C   0  0  0  0  0  0  0  0  0  0  0  0
   60.1480   31.9420   50.0000 C   0  0  0  0  0  0  0  0  0  0  0  0
   59.7370   32.2740   48.5780 C   0  0  0  0  0  0  0  0  0  0  0  0
   59.0590   31.3070   47.9060 N   0  0  0  0  0  0  0  0  0  0  0  0
   58.6420   31.4730   46.6310 C   0  0  0  0  0  0  0  0  0  0  0  0
   57.9420   30.4470   45.9860 C   0  0  0  0  0  0  0  0  0  0  0  0
   57.4990   30.6180   44.6670 C   0  0  0  0  0  0  0  0  0  0  0  0
   56.6000   29.3310   43.8600 S   0  0  0  0  0  0  0  0  0  0  0  0
   56.4710   29.6600   42.3990 O   0  0  0  0  0  0  0  0  0  0  0  0
   55.2150   29.2550   44.4420 O   0  0  0  0  0  0  0  0  0  0  0  0
   57.3910   27.7830   44.0400 N   0  0  0  0  0  0  0  0  0  0  0  0
   58.8440   27.9480   43.9100 C   0  0  0  0  0  0  0  0  0  0  0  0
   57.0620   27.2030   45.3470 C   0  0  0  0  0  0  0  0  0  0  0  0
   57.7660   31.8190   43.9970 C   0  0  0  0  0  0  0  0  0  0  0  0
   58.4680   32.8440   44.6380 C   0  0  0  0  0  0  0  0  0  0  0  0
   58.9110   32.6760   45.9630 C   0  0  0  0  0  0  0  0  0  0  0  0
   59.6090   33.6790   46.6570 C   0  0  0  0  0  0  0  0  0  0  0  0
   59.8480   34.7750   46.0750 O   0  0  0  0  0  0  0  0  0  0  0  0
   60.0180   33.4770   47.9580 N   0  0  0  0  0  0  0  0  0  0  0  0
   60.7040   34.5740   48.6790 C   0  0  0  0  0  0  0  0  0  0  0  0
   62.0470   34.1270   49.2070 C   0  0  0  0  0  0  0  0  0  0  0  0
   63.0040   33.5850   48.3320 C   0  0  0  0  0  0  0  0  0  0  0  0
   64.2360   33.1410   48.8190 C   0  0  0  0  0  0  0  0  0  0  0  0
   64.5310   33.2400   50.1860 C   0  0  0  0  0  0  0  0  0  0  0  0
   65.8100   32.7210   50.7060 C   0  0  0  0  0  0  0  0  0  0  0  0
   66.9700   33.4900   50.5180 C   0  0  0  0  0  0  0  0  0  0  0  0
   68.2000   33.0470   51.0060 C   0  0  0  0  0  0  0  0  0  0  0  0
   68.2870   31.8310   51.6830 C   0  0  0  0  0  0  0  0  0  0  0  0
   67.1440   31.0490   51.8670 C   0  0  0  0  0  0  0  0  0  0  0  0
   65.8990   31.4750   51.3760 C   0  0  0  0  0  0  0  0  0  0  0  0
   64.4910   30.4190   51.5900 S   0  0  0  0  0  0  0  0  0  0  0  0
   63.7320   30.7280   53.1140 N   0  0  0  0  0  0  0  0  0  0  0  0
   63.4900   30.6750   50.4990 O   0  0  0  0  0  0  0  0  0  0  0  0
   64.9270   28.9830   51.5270 O   0  0  0  0  0  0  0  0  0  0  0  0
   63.6020   33.8350   51.0520 C   0  0  0  0  0  0  0  0  0  0  0  0
   62.3700   34.2790   50.5660 C   0  0  0  0  0  0  0  0  0  0  0  0
   59.1341   33.8630   52.9731 H   0  0  0  0  0  0  0  0  0  0  0  0
   60.0714   33.6162   51.4607 H   0  0  0  0  0  0  0  0  0  0  0  0
   58.6335   34.6928   51.4607 H   0  0  0  0  0  0  0  0  0  0  0  0
   57.7192   32.1918   52.4429 H   0  0  0  0  0  0  0  0  0  0  0  0
   57.4112   32.9355   50.8127 H   0  0  0  0  0  0  0  0  0  0  0  0
   59.3400   30.7710   51.6178 H   0  0  0  0  0  0  0  0  0  0  0  0
   58.2649   30.9439   50.1505 H   0  0  0  0  0  0  0  0  0  0  0  0
   60.5642   32.8452   50.4701 H   0  0  0  0  0  0  0  0  0  0  0  0
   60.8954   31.1359   49.9597 H   0  0  0  0  0  0  0  0  0  0  0  0
   57.7390   29.5043   46.5152 H   0  0  0  0  0  0  0  0  0  0  0  0
   59.2981   27.9996   44.9105 H   0  0  0  0  0  0  0  0  0  0  0  0
   59.2626   27.0916   43.3610 H   0  0  0  0  0  0  0  0  0  0  0  0
   59.0599   28.8764   43.3610 H   0  0  0  0  0  0  0  0  0  0  0  0
   57.4356   27.8616   46.1449 H   0  0  0  0  0  0  0  0  0  0  0  0
   55.9707   27.0994   45.4380 H   0  0  0  0  0  0  0  0  0  0  0  0
   57.5331   26.2132   45.4380 H   0  0  0  0  0  0  0  0  0  0  0  0
   57.4215   31.9562   42.9614 H   0  0  0  0  0  0  0  0  0  0  0  0
   58.6745   33.7840   44.1054 H   0  0  0  0  0  0  0  0  0  0  0  0
   60.8527   35.4181   47.9896 H   0  0  0  0  0  0  0  0  0  0  0  0
   60.0777   34.8744   49.5319 H   0  0  0  0  0  0  0  0  0  0  0  0
   62.7817   33.5099   47.2573 H   0  0  0  0  0  0  0  0  0  0  0  0
   64.9767   32.7125   48.1278 H   0  0  0  0  0  0  0  0  0  0  0  0
   66.9086   34.4487   49.9821 H   0  0  0  0  0  0  0  0  0  0  0  0
   69.1024   33.6580   50.8564 H   0  0  0  0  0  0  0  0  0  0  0  0
   69.2565   31.4872   52.0725 H   0  0  0  0  0  0  0  0  0  0  0  0
   67.2199   30.0906   52.4015 H   0  0  0  0  0  0  0  0  0  0  0  0
   63.4870   29.8020   53.5290 H   0  0  0  0  0  0  0  0  0  0  0  0
   64.4540   31.1590   53.7350 H   0  0  0  0  0  0  0  0  0  0  0  0
   63.8446   33.9525   52.1185 H   0  0  0  0  0  0  0  0  0  0  0  0
   61.6491   34.7499   51.2505 H   0  0  0  0  0  0  0  0  0  0  0  0
  1  2  1  0
  2  3  1  0
  3  4  1  0
  4  5  1  0
  5  6  2  0
  6  7  1  0
  7  8  2  0
  8  9  1  0
  9 10  1  0
 10 11  2  0
 10 12  2  0
 10 13  1  0
 13 14  1  0
 13 15  1  0
  9 16  2  0
 16 17  1  0
 17 18  2  0
 18 19  1  0
 19 20  2  0
 19 21  1  0
 21 22  1  0
 22 23  1  0
 23 24  2  0
 24 25  1  0
 25 26  2  0
 26 27  1  0
 27 28  2  0
 28 29  1  0
 29 30  2  0
 30 31  1  0
 31 32  2  0
 32 33  1  0
 33 34  1  0
 33 35  2  0
 33 36  2  0
 26 37  1  0
 37 38  2  0
 21  5  1  0
 38 23  1  0
 18  7  1  0
 32 27  1  0
  1 39  1  0
  1 40  1  0
  1 41  1  0
  2 42  1  0
  2 43  1  0
  3 44  1  0
  3 45  1  0
  4 46  1  0
  4 47  1  0
  8 48  1  0
 14 49  1  0
 14 50  1  0
 14 51  1  0
 15 52  1  0
 15 53  1  0
 15 54  1  0
 16 55  1  0
 17 56  1  0
 22 57  1  0
 22 58  1  0
 24 59  1  0
 25 60  1  0
 28 61  1  0
 29 62  1  0
 30 63  1  0
 31 64  1  0
 34 65  1  0
 34 66  1  0
 37 67  1  0
 38 68  1  0
M  END
>  <UniqueID>  (75) 
69

>  <SMILES>  (75) 
CCCCc1nc2cc(S(=O)(=O)N(C)C)ccc2c(=O)n1Cc1ccc(-c2ccccc2S(N)(=O)=O)cc1

>  <Energy>  (75) 
79.60363217095815

>  <Genealogy>  (75) 
CCCCc1nc2cc(S(=O)(=O)N(C)C)ccc2c(=O)n1Cc1ccc(-c2ccccc2S(N)(=O)=O)cc1 (3D coordinates assigned)
CCCCc1nc2cc(S(=O)(=O)N(C)C)ccc2c(=O)n1Cc1ccc(-c2ccccc2S(N)(=O)=O)cc1 (optimized conformer: 79.60363217095815 kcal/mol)

>  <smiles>  (75) 
CCCCc1nc2cc(S(=O)(=O)N(C)C)ccc2c(=O)n1Cc1ccc(-c2ccccc2S(N)(=O)=O)cc1

>  <score_type>  (75) 
oracle

>  <origin>  (75) 
adg

>  <m_score__min__energy>  (75) 
-9.7400000000000002

>  <m_primary>  (75) 
energy

$$$$
75:0
     RDKit          3D

 39 41  0  0  1  0  0  0  0  0999 V2000
   57.7240   33.9930   44.5140 C   0  0  0  0  0  0  0  0  0  0  0  0
   57.9810   32.9360   45.2510 C   0  0  0  0  0  0  0  0  0  0  0  0
   57.7200   31.1980   44.5980 S   0  0  0  0  0  0  0  0  0  0  0  0
   58.2700   30.4630   46.1190 C   0  0  0  0  0  0  0  0  0  0  0  0
   58.3460   29.1640   46.3700 C   0  0  0  0  0  0  0  0  0  0  0  0
   58.2750   28.2770   45.2030 C   0  0  0  0  0  0  0  0  0  0  0  0
   58.9170   28.3840   44.0240 N   0  0  0  0  0  0  0  0  0  0  0  0
   58.5560   27.3530   43.2470 C   0  0  0  0  0  0  0  0  0  0  0  0
   57.6830   26.5630   43.8920 N   0  0  0  0  0  0  0  0  0  0  0  0
   57.5060   27.1340   45.1110 C   0  0  0  0  0  0  0  0  0  0  0  0
   56.6350   26.6040   46.1370 C   0  0  0  0  0  0  0  0  0  0  0  0
   57.1320   26.0430   47.1600 O   0  0  0  0  0  0  0  0  0  0  0  0
   55.2700   26.6770   46.0630 O   0  0  0  0  0  0  0  0  0  0  0  0
   58.5790   31.5230   46.9250 C   0  0  0  0  0  0  0  0  0  0  0  0
   59.0170   31.2740   48.1270 O   0  0  0  0  0  0  0  0  0  0  0  0
   58.4320   32.7350   46.4850 N   0  0  0  0  0  0  0  0  0  0  0  0
   58.7550   33.9260   47.3300 C   0  0  0  0  0  0  0  0  0  0  0  0
   59.8870   34.7180   46.7750 C   0  0  0  0  0  0  0  0  0  0  0  0
   61.1420   34.0210   47.2280 C   0  0  0  0  0  0  0  0  0  0  0  0
   62.2060   33.8330   46.3530 C   0  0  0  0  0  0  0  0  0  0  0  0
   63.3430   33.1810   46.8240 C   0  0  0  0  0  0  0  0  0  0  0  0
   63.3890   32.7410   48.1340 C   0  0  0  0  0  0  0  0  0  0  0  0
   62.3350   32.9270   49.0040 C   0  0  0  0  0  0  0  0  0  0  0  0
   61.2070   33.5730   48.5370 C   0  0  0  0  0  0  0  0  0  0  0  0
   57.8864   35.0012   44.9228 H   0  0  0  0  0  0  0  0  0  0  0  0
   57.3464   33.8697   43.4882 H   0  0  0  0  0  0  0  0  0  0  0  0
   58.4558   28.7737   47.3926 H   0  0  0  0  0  0  0  0  0  0  0  0
   59.5700   29.1480   43.7980 H   0  0  0  0  0  0  0  0  0  0  0  0
   58.9233   27.1788   42.2249 H   0  0  0  0  0  0  0  0  0  0  0  0
   54.6380   25.9420   46.3700 H   0  0  0  0  0  0  0  0  0  0  0  0
   57.8659   34.5711   47.3879 H   0  0  0  0  0  0  0  0  0  0  0  0
   59.0518   33.5638   48.3254 H   0  0  0  0  0  0  0  0  0  0  0  0
   59.8366   34.7388   45.6764 H   0  0  0  0  0  0  0  0  0  0  0  0
   59.8575   35.7613   47.1225 H   0  0  0  0  0  0  0  0  0  0  0  0
   62.1511   34.1905   45.3142 H   0  0  0  0  0  0  0  0  0  0  0  0
   64.2015   33.0167   46.1561 H   0  0  0  0  0  0  0  0  0  0  0  0
   64.2930   32.2274   48.4930 H   0  0  0  0  0  0  0  0  0  0  0  0
   62.3913   32.5701   50.0430 H   0  0  0  0  0  0  0  0  0  0  0  0
   60.3524   33.7332   49.2109 H   0  0  0  0  0  0  0  0  0  0  0  0
  1  2  2  0
  2  3  1  0
  3  4  1  0
  4  5  2  0
  5  6  1  0
  6  7  1  0
  7  8  1  0
  8  9  2  0
  9 10  1  0
 10 11  1  0
 11 12  2  0
 11 13  1  0
  4 14  1  0
 14 15  2  0
 14 16  1  0
 16 17  1  0
 17 18  1  0
 18 19  1  0
 19 20  2  0
 20 21  1  0
 21 22  2  0
 22 23  1  0
 23 24  2  0
 16  2  1  0
 24 19  1  0
 10  6  2  0
  1 25  1  0
  1 26  1  0
  5 27  1  0
  7 28  1  0
  8 29  1  0
 13 30  1  0
 17 31  1  0
 17 32  1  0
 18 33  1  0
 18 34  1  0
 20 35  1  0
 21 36  1  0
 22 37  1  0
 23 38  1  0
 24 39  1  0
M  END
>  <smiles>  (76) 
C=c1sc(=Cc2[nH]cnc2C(=O)O)c(=O)n1CCc1ccccc1

>  <score_type>  (76) 
oracle

>  <origin>  (76) 
adg

>  <m_score__min__energy>  (76) 
-8.1400000000000006

>  <m_primary>  (76) 
energy

$$$$
76:0
     RDKit          3D

 38 40  0  0  1  0  0  0  0  0999 V2000
   60.6680   30.1450   47.6600 C   0  0  0  0  0  0  0  0  0  0  0  0
   59.7940   29.0600   47.9050 O   0  0  0  0  0  0  0  0  0  0  0  0
   58.8800   28.7550   46.9070 C   0  0  0  0  0  0  0  0  0  0  0  0
   58.7390   27.4630   46.4810 N   0  0  0  0  0  0  0  0  0  0  0  0
   57.8670   27.1740   45.5300 C   0  0  0  0  0  0  0  0  0  0  0  0
   57.7390   25.7830   45.0940 C   0  0  0  0  0  0  0  0  0  0  0  0
   57.8430   24.6500   45.8000 N   0  0  0  0  0  0  0  0  0  0  0  0
   57.7030   23.5040   45.2690 C   0  0  0  0  0  0  0  0  0  0  0  0
   57.8130   22.2220   46.0200 C   0  0  0  0  0  0  0  0  0  0  0  0
   58.4800   21.1010   45.4910 N   0  0  0  0  0  0  0  0  0  0  0  0
   57.2960   22.1170   47.1680 O   0  0  0  0  0  0  0  0  0  0  0  0
   57.4280   23.4410   43.8870 C   0  0  0  0  0  0  0  0  0  0  0  0
   57.3970   25.2110   43.4600 S   0  0  0  0  0  0  0  0  0  0  0  0
   57.0900   28.0920   44.9380 N   0  0  0  0  0  0  0  0  0  0  0  0
   57.2090   29.3570   45.3350 C   0  0  0  0  0  0  0  0  0  0  0  0
   56.5160   30.2840   44.8310 N   0  0  0  0  0  0  0  0  0  0  0  0
   57.0020   31.3140   43.9710 C   0  0  0  0  0  0  0  0  0  0  0  0
   57.6540   32.4280   44.7450 C   0  0  0  0  0  0  0  0  0  0  0  0
   58.5180   33.3230   44.1530 C   0  0  0  0  0  0  0  0  0  0  0  0
   59.1250   34.3500   44.8560 C   0  0  0  0  0  0  0  0  0  0  0  0
   58.8680   34.5000   46.2020 C   0  0  0  0  0  0  0  0  0  0  0  0
   58.0050   33.6120   46.8100 C   0  0  0  0  0  0  0  0  0  0  0  0
   57.4160   32.6060   46.0980 C   0  0  0  0  0  0  0  0  0  0  0  0
   58.0980   29.6710   46.3100 N   0  0  0  0  0  0  0  0  0  0  0  0
   61.0072   30.5661   48.6179 H   0  0  0  0  0  0  0  0  0  0  0  0
   61.5376   29.7929   47.0858 H   0  0  0  0  0  0  0  0  0  0  0  0
   60.1388   30.9197   47.0858 H   0  0  0  0  0  0  0  0  0  0  0  0
   59.4410   21.2280   45.0690 H   0  0  0  0  0  0  0  0  0  0  0  0
   58.1010   20.1400   45.4800 H   0  0  0  0  0  0  0  0  0  0  0  0
   57.2743   22.5626   43.2430 H   0  0  0  0  0  0  0  0  0  0  0  0
   56.4040   27.8650   44.1880 H   0  0  0  0  0  0  0  0  0  0  0  0
   57.7401   30.8815   43.2795 H   0  0  0  0  0  0  0  0  0  0  0  0
   56.1455   31.7342   43.4234 H   0  0  0  0  0  0  0  0  0  0  0  0
   58.7342   33.2176   43.0796 H   0  0  0  0  0  0  0  0  0  0  0  0
   59.8087   35.0425   44.3431 H   0  0  0  0  0  0  0  0  0  0  0  0
   59.3403   35.3093   46.7781 H   0  0  0  0  0  0  0  0  0  0  0  0
   57.7881   33.7155   47.8834 H   0  0  0  0  0  0  0  0  0  0  0  0
   56.7321   31.9165   46.6146 H   0  0  0  0  0  0  0  0  0  0  0  0
  1  2  1  0
  2  3  1  0
  3  4  1  0
  4  5  2  0
  5  6  1  0
  6  7  2  0
  7  8  1  0
  8  9  1  0
  9 10  1  0
  9 11  2  0
  8 12  2  0
 12 13  1  0
  5 14  1  0
 14 15  1  0
 15 16  2  0
 16 17  1  0
 17 18  1  0
 18 19  2  0
 19 20  1  0
 20 21  2  0
 21 22  1  0
 22 23  2  0
 15 24  1  0
 24  3  2  0
 13  6  1  0
 23 18  1  0
  1 25  1  0
  1 26  1  0
  1 27  1  0
 10 28  1  0
 10 29  1  0
 12 30  1  0
 14 31  1  0
 17 32  1  0
 17 33  1  0
 19 34  1  0
 20 35  1  0
 21 36  1  0
 22 37  1  0
 23 38  1  0
M  END
>  <smiles>  (77) 
COc1nc(-c2nc(C(N)=O)cs2)[nH]c(=NCc2ccccc2)n1

>  <score_type>  (77) 
oracle

>  <origin>  (77) 
adg

>  <m_score__min__energy>  (77) 
-8.0700000000000003

>  <m_primary>  (77) 
energy

$$$$
77:0
     RDKit          3D

 47 49  0  0  0  0  0  0  0  0999 V2000
   61.4000   29.6620   50.9180 C   0  0  0  0  0  0  0  0  0  0  0  0
   61.4210   29.6630   49.4940 O   0  0  0  0  0  0  0  0  0  0  0  0
   61.4980   30.8190   48.7030 C   0  0  0  0  0  0  0  0  0  0  0  0
   60.4500   31.2310   47.8610 C   0  0  0  0  0  0  0  0  0  0  0  0
   60.5760   32.3950   47.0860 C   0  0  0  0  0  0  0  0  0  0  0  0
   59.4740   32.8380   46.1930 C   0  0  0  0  0  0  0  0  0  0  0  0
   59.4370   34.1560   45.7050 C   0  0  0  0  0  0  0  0  0  0  0  0
   58.4070   34.5660   44.8540 C   0  0  0  0  0  0  0  0  0  0  0  0
   57.3980   33.6730   44.4910 C   0  0  0  0  0  0  0  0  0  0  0  0
   57.4030   32.3610   44.9910 C   0  0  0  0  0  0  0  0  0  0  0  0
   56.3980   31.4100   44.6150 N   0  0  0  0  0  0  0  0  0  0  0  0
   56.5700   29.9900   44.5420 C   0  0  0  0  0  0  0  0  0  0  0  0
   55.7680   29.2470   45.1690 O   0  0  0  0  0  0  0  0  0  0  0  0
   57.5950   29.4100   43.7210 N   0  0  0  0  0  0  0  0  0  0  0  0
   57.8520   27.9720   43.6870 C   0  0  0  0  0  0  0  0  0  0  0  0
   58.6810   27.5630   44.8730 C   0  0  0  0  0  0  0  0  0  0  0  0
   58.5230   26.2840   45.4330 C   0  0  0  0  0  0  0  0  0  0  0  0
   59.2780   25.9040   46.5470 C   0  0  0  0  0  0  0  0  0  0  0  0
   60.1920   26.7980   47.1110 C   0  0  0  0  0  0  0  0  0  0  0  0
   60.3520   28.0740   46.5630 C   0  0  0  0  0  0  0  0  0  0  0  0
   59.5990   28.4570   45.4490 C   0  0  0  0  0  0  0  0  0  0  0  0
   58.4530   31.9440   45.8190 C   0  0  0  0  0  0  0  0  0  0  0  0
   61.7670   33.1300   47.1750 C   0  0  0  0  0  0  0  0  0  0  0  0
   62.7670   32.7180   47.9960 N   0  0  0  0  0  0  0  0  0  0  0  0
   62.6640   31.5920   48.7550 C   0  0  0  0  0  0  0  0  0  0  0  0
   63.7170   31.1970   49.5880 O   0  0  0  0  0  0  0  0  0  0  0  0
   64.7930   32.0610   49.9330 C   0  0  0  0  0  0  0  0  0  0  0  0
   62.4304   29.7110   51.2999 H   0  0  0  0  0  0  0  0  0  0  0  0
   60.8340   30.5342   51.2770 H   0  0  0  0  0  0  0  0  0  0  0  0
   60.9194   28.7400   51.2770 H   0  0  0  0  0  0  0  0  0  0  0  0
   59.5253   30.6375   47.8091 H   0  0  0  0  0  0  0  0  0  0  0  0
   60.2233   34.8686   45.9947 H   0  0  0  0  0  0  0  0  0  0  0  0
   58.3916   35.5963   44.4690 H   0  0  0  0  0  0  0  0  0  0  0  0
   56.5965   33.9979   43.8113 H   0  0  0  0  0  0  0  0  0  0  0  0
   58.1500   30.0240   43.0820 H   0  0  0  0  0  0  0  0  0  0  0  0
   56.8943   27.4314   43.7096 H   0  0  0  0  0  0  0  0  0  0  0  0
   58.4003   27.7277   42.7652 H   0  0  0  0  0  0  0  0  0  0  0  0
   57.8024   25.5787   44.9933 H   0  0  0  0  0  0  0  0  0  0  0  0
   59.1523   24.9005   46.9797 H   0  0  0  0  0  0  0  0  0  0  0  0
   60.7859   26.4975   47.9867 H   0  0  0  0  0  0  0  0  0  0  0  0
   61.0709   28.7773   47.0086 H   0  0  0  0  0  0  0  0  0  0  0  0
   59.7259   29.4626   45.0217 H   0  0  0  0  0  0  0  0  0  0  0  0
   58.4801   30.9057   46.1812 H   0  0  0  0  0  0  0  0  0  0  0  0
   61.8917   34.0447   46.5768 H   0  0  0  0  0  0  0  0  0  0  0  0
   64.8742   32.1262   51.0281 H   0  0  0  0  0  0  0  0  0  0  0  0
   65.7308   31.6621   49.5189 H   0  0  0  0  0  0  0  0  0  0  0  0
   64.6061   33.0628   49.5189 H   0  0  0  0  0  0  0  0  0  0  0  0
  1  2  1  0
  2  3  1  0
  3  4  2  0
  4  5  1  0
  5  6  1  0
  6  7  2  0
  7  8  1  0
  8  9  2  0
  9 10  1  0
 10 11  1  0
 11 12  1  0
 12 13  2  0
 12 14  1  0
 14 15  1  0
 15 16  1  0
 16 17  2  0
 17 18  1  0
 18 19  2  0
 19 20  1  0
 20 21  2  0
 10 22  2  0
  5 23  2  0
 23 24  1  0
 24 25  2  0
 25 26  1  0
 26 27  1  0
 25  3  1  0
 22  6  1  0
 21 16  1  0
  1 28  1  0
  1 29  1  0
  1 30  1  0
  4 31  1  0
  7 32  1  0
  8 33  1  0
  9 34  1  0
 14 35  1  0
 15 36  1  0
 15 37  1  0
 17 38  1  0
 18 39  1  0
 19 40  1  0
 20 41  1  0
 21 42  1  0
 22 43  1  0
 23 44  1  0
 27 45  1  0
 27 46  1  0
 27 47  1  0
M  CHG  1  11  -1
M  END
>  <UniqueID>  (78) 
70

>  <SMILES>  (78) 
COc1cc(-c2cccc([N-]C(=O)NCc3ccccc3)c2)cnc1OC

>  <Energy>  (78) 
54.26578114828052

>  <Genealogy>  (78) 
COc1cc(-c2cccc([N-]C(=O)NCc3ccccc3)c2)cnc1OC (protonated)
COc1cc(-c2cccc([N-]C(=O)NCc3ccccc3)c2)cnc1OC (3D coordinates assigned)
COc1cc(-c2cccc([N-]C(=O)NCc3ccccc3)c2)cnc1OC (optimized conformer: 54.26578114828052 kcal/mol)

>  <smiles>  (78) 
COc1cc(-c2cccc(NC(=O)NCc3ccccc3)c2)cnc1OC

>  <score_type>  (78) 
oracle

>  <origin>  (78) 
adg

>  <m_score__min__energy>  (78) 
-9.5600000000000005

>  <m_primary>  (78) 
energy

$$$$
78:0
     RDKit          3D

 44 46  0  0  0  0  0  0  0  0999 V2000
   56.4060   29.8470   42.7470 C   0  0  0  0  0  0  0  0  0  0  0  0
   57.0760   30.9880   43.4530 C   0  0  0  0  0  0  0  0  0  0  0  0
   57.0750   31.0530   44.8550 C   0  0  0  0  0  0  0  0  0  0  0  0
   57.7290   32.0980   45.5130 C   0  0  0  0  0  0  0  0  0  0  0  0
   58.4070   33.0840   44.7790 C   0  0  0  0  0  0  0  0  0  0  0  0
   59.0850   34.2280   45.4820 C   0  0  0  0  0  0  0  0  0  0  0  0
   59.2010   33.9140   47.2790 S   0  0  0  0  0  0  0  0  0  0  0  0
   60.9050   33.3510   47.2200 C   0  0  0  0  0  0  0  0  0  0  0  0
   61.8350   34.0370   46.6550 N   0  0  0  0  0  0  0  0  0  0  0  0
   63.1080   33.3380   46.7830 C   0  0  0  0  0  0  0  0  0  0  0  0
   62.7740   32.0220   47.5080 C   0  0  0  0  0  0  0  0  0  0  0  0
   61.3570   32.1370   47.7860 N   0  0  0  0  0  0  0  0  0  0  0  0
   60.3600   30.8630   48.4080 S   0  0  0  0  0  0  0  0  0  0  0  0
   59.1760   31.4530   49.1230 O   0  0  0  0  0  0  0  0  0  0  0  0
   61.1480   30.0240   49.3740 O   0  0  0  0  0  0  0  0  0  0  0  0
   59.8020   29.8480   47.0810 C   0  0  0  0  0  0  0  0  0  0  0  0
   58.6230   29.1020   47.2180 C   0  0  0  0  0  0  0  0  0  0  0  0
   58.1920   28.2720   46.1800 C   0  0  0  0  0  0  0  0  0  0  0  0
   58.9310   28.1830   44.9910 C   0  0  0  0  0  0  0  0  0  0  0  0
   58.4900   27.2620   43.8920 C   0  0  0  0  0  0  0  0  0  0  0  0
   60.1260   28.9100   44.8660 C   0  0  0  0  0  0  0  0  0  0  0  0
   60.5570   29.7410   45.9060 C   0  0  0  0  0  0  0  0  0  0  0  0
   58.4210   33.0100   43.3780 C   0  0  0  0  0  0  0  0  0  0  0  0
   57.7680   31.9640   42.7190 C   0  0  0  0  0  0  0  0  0  0  0  0
   55.9950   29.1471   43.4894 H   0  0  0  0  0  0  0  0  0  0  0  0
   55.5913   30.2333   42.1169 H   0  0  0  0  0  0  0  0  0  0  0  0
   57.1403   29.3237   42.1169 H   0  0  0  0  0  0  0  0  0  0  0  0
   56.5570   30.2777   45.4386 H   0  0  0  0  0  0  0  0  0  0  0  0
   57.7125   32.1482   46.6117 H   0  0  0  0  0  0  0  0  0  0  0  0
   60.0982   34.3527   45.0722 H   0  0  0  0  0  0  0  0  0  0  0  0
   58.4907   35.1398   45.3226 H   0  0  0  0  0  0  0  0  0  0  0  0
   63.5375   33.1338   45.7911 H   0  0  0  0  0  0  0  0  0  0  0  0
   63.8509   33.9338   47.3335 H   0  0  0  0  0  0  0  0  0  0  0  0
   62.9786   31.1551   46.8626 H   0  0  0  0  0  0  0  0  0  0  0  0
   63.3767   31.8687   48.4153 H   0  0  0  0  0  0  0  0  0  0  0  0
   58.0355   29.1703   48.1455 H   0  0  0  0  0  0  0  0  0  0  0  0
   57.2687   27.6855   46.2957 H   0  0  0  0  0  0  0  0  0  0  0  0
   58.0541   26.3516   44.3293 H   0  0  0  0  0  0  0  0  0  0  0  0
   57.7362   27.7674   43.2704 H   0  0  0  0  0  0  0  0  0  0  0  0
   59.3563   26.9916   43.2704 H   0  0  0  0  0  0  0  0  0  0  0  0
   60.7252   28.8259   43.9474 H   0  0  0  0  0  0  0  0  0  0  0  0
   61.4913   30.3119   45.8006 H   0  0  0  0  0  0  0  0  0  0  0  0
   58.9486   33.7791   42.7949 H   0  0  0  0  0  0  0  0  0  0  0  0
   57.7967   31.9057   41.6209 H   0  0  0  0  0  0  0  0  0  0  0  0
  1  2  1  0
  2  3  2  0
  3  4  1  0
  4  5  2  0
  5  6  1  0
  6  7  1  0
  7  8  1  0
  8  9  2  0
  9 10  1  0
 10 11  1  0
 11 12  1  0
 12 13  1  0
 13 14  2  0
 13 15  2  0
 13 16  1  0
 16 17  2  0
 17 18  1  0
 18 19  2  0
 19 20  1  0
 19 21  1  0
 21 22  2  0
  5 23  1  0
 23 24  2  0
 24  2  1  0
 12  8  1  0
 22 16  1  0
  1 25  1  0
  1 26  1  0
  1 27  1  0
  3 28  1  0
  4 29  1  0
  6 30  1  0
  6 31  1  0
 10 32  1  0
 10 33  1  0
 11 34  1  0
 11 35  1  0
 17 36  1  0
 18 37  1  0
 20 38  1  0
 20 39  1  0
 20 40  1  0
 21 41  1  0
 22 42  1  0
 23 43  1  0
 24 44  1  0
M  END
>  <UniqueID>  (79) 
71

>  <SMILES>  (79) 
Cc1ccc(CSC2=NCCN2S(=O)(=O)c2ccc(C)cc2)cc1

>  <Energy>  (79) 
52.364835812713245

>  <Genealogy>  (79) 
Cc1ccc(CSC2=NCCN2S(=O)(=O)c2ccc(C)cc2)cc1 (3D coordinates assigned)
Cc1ccc(CSC2=NCCN2S(=O)(=O)c2ccc(C)cc2)cc1 (nonaromatic ring conformer: 52.364835812713245 kcal/mol)

>  <smiles>  (79) 
Cc1ccc(CSC2=NCCN2S(=O)(=O)c2ccc(C)cc2)cc1

>  <score_type>  (79) 
oracle

>  <origin>  (79) 
adg

>  <m_score__min__energy>  (79) 
-8.0299999999999994

>  <m_primary>  (79) 
energy

$$$$
79:0
     RDKit          3D

 32 33  0  0  0  0  0  0  0  0999 V2000
   61.2550   33.5380   47.0340 C   0  0  0  0  0  0  0  0  0  0  0  0
   59.6910   34.2850   47.4450 S   0  0  0  0  0  0  0  0  0  0  0  0
   59.6100   34.5560   48.9210 O   0  0  0  0  0  0  0  0  0  0  0  0
   59.5800   35.5900   46.7090 O   0  0  0  0  0  0  0  0  0  0  0  0
   58.3850   33.2520   46.9560 N   0  0  0  0  0  0  0  0  0  0  0  0
   58.1940   32.7530   45.6190 C   0  0  0  0  0  0  0  0  0  0  0  0
   58.3610   33.5690   44.4850 C   0  0  0  0  0  0  0  0  0  0  0  0
   58.1810   33.0420   43.2030 C   0  0  0  0  0  0  0  0  0  0  0  0
   57.8280   31.7020   43.0360 C   0  0  0  0  0  0  0  0  0  0  0  0
   57.6390   30.8770   44.1570 C   0  0  0  0  0  0  0  0  0  0  0  0
   57.3020   29.4880   44.0320 N   0  0  0  0  0  0  0  0  0  0  0  0
   56.4140   28.7410   44.8760 C   0  0  0  0  0  0  0  0  0  0  0  0
   55.1830   29.0130   44.8860 O   0  0  0  0  0  0  0  0  0  0  0  0
   56.9580   27.6890   45.7770 C   0  0  0  0  0  0  0  0  0  0  0  0
   58.2460   27.8320   46.3240 C   0  0  0  0  0  0  0  0  0  0  0  0
   58.7690   26.8530   47.1700 C   0  0  0  0  0  0  0  0  0  0  0  0
   60.5190   27.0520   47.9110 Br  0  0  0  0  0  0  0  0  0  0  0  0
   58.0040   25.7270   47.4680 C   0  0  0  0  0  0  0  0  0  0  0  0
   56.7620   25.5910   46.9360 N   0  0  0  0  0  0  0  0  0  0  0  0
   56.2220   26.5270   46.1090 C   0  0  0  0  0  0  0  0  0  0  0  0
   55.0650   26.3350   45.6500 O   0  0  0  0  0  0  0  0  0  0  0  0
   57.8460   31.4040   45.4390 C   0  0  0  0  0  0  0  0  0  0  0  0
   61.7929   33.2811   47.9585 H   0  0  0  0  0  0  0  0  0  0  0  0
   61.0819   32.6253   46.4448 H   0  0  0  0  0  0  0  0  0  0  0  0
   61.8561   34.2462   46.4448 H   0  0  0  0  0  0  0  0  0  0  0  0
   57.6630   33.0390   47.6800 H   0  0  0  0  0  0  0  0  0  0  0  0
   58.6347   34.6273   44.6080 H   0  0  0  0  0  0  0  0  0  0  0  0
   58.3181   33.6861   42.3219 H   0  0  0  0  0  0  0  0  0  0  0  0
   57.6975   31.2910   42.0240 H   0  0  0  0  0  0  0  0  0  0  0  0
   58.8456   28.7222   46.0831 H   0  0  0  0  0  0  0  0  0  0  0  0
   58.4059   24.9489   48.1337 H   0  0  0  0  0  0  0  0  0  0  0  0
   57.7343   30.7515   46.3175 H   0  0  0  0  0  0  0  0  0  0  0  0
  1  2  1  0
  2  3  2  0
  2  4  2  0
  2  5  1  0
  5  6  1  0
  6  7  2  0
  7  8  1  0
  8  9  2  0
  9 10  1  0
 10 11  1  0
 11 12  1  0
 12 13  2  0
 12 14  1  0
 14 15  2  0
 15 16  1  0
 16 17  1  0
 16 18  2  0
 18 19  1  0
 19 20  1  0
 20 21  2  0
 10 22  2  0
 22  6  1  0
 20 14  1  0
  1 23  1  0
  1 24  1  0
  1 25  1  0
  5 26  1  0
  7 27  1  0
  8 28  1  0
  9 29  1  0
 15 30  1  0
 18 31  1  0
 22 32  1  0
M  CHG  2  11  -1  19  -1
M  END
>  <UniqueID>  (80) 
72

>  <SMILES>  (80) 
CS(=O)(=O)Nc1cccc([N-]C(=O)c2cc(Br)c[n-]c2=O)c1

>  <Energy>  (80) 
38.403812460999156

>  <Genealogy>  (80) 
CS(=O)(=O)Nc1cccc([N-]C(=O)c2cc(Br)c[n-]c2=O)c1 (protonated)
CS(=O)(=O)Nc1cccc([N-]C(=O)c2cc(Br)c[n-]c2=O)c1 (3D coordinates assigned)
CS(=O)(=O)Nc1cccc([N-]C(=O)c2cc(Br)c[n-]c2=O)c1 (optimized conformer: 38.403812460999156 kcal/mol)

>  <smiles>  (80) 
CS(=O)(=O)Nc1cccc(NC(=O)c2cc(Br)c[nH]c2=O)c1

>  <score_type>  (80) 
oracle

>  <origin>  (80) 
adg

>  <m_score__min__energy>  (80) 
-12.109999999999999

>  <m_primary>  (80) 
energy

$$$$
80:0
     RDKit          3D

 57 60  0  0  0  0  0  0  0  0999 V2000
   59.7730   34.7580   45.8760 C   0  0  0  0  0  0  0  0  0  0  0  0
   60.3970   34.2000   47.1220 C   0  0  0  0  0  0  0  0  0  0  0  0
   59.6080   33.9720   48.2490 C   0  0  0  0  0  0  0  0  0  0  0  0
   60.1650   33.4910   49.4500 C   0  0  0  0  0  0  0  0  0  0  0  0
   59.2640   33.5410   50.6630 C   0  0  0  0  0  0  0  0  0  0  0  0
   61.5540   33.1250   49.4860 C   0  0  0  0  0  0  0  0  0  0  0  0
   62.2160   32.4380   50.5630 C   0  0  0  0  0  0  0  0  0  0  0  0
   61.4330   31.7060   51.6640 C   0  0  0  0  0  0  0  0  0  0  0  0
   60.8560   30.3840   51.2910 N   0  0  0  0  0  0  0  0  0  0  0  0
   59.3950   30.4890   50.9850 C   0  0  0  0  0  0  0  0  0  0  0  0
   59.0670   30.4310   49.4860 C   0  0  0  0  0  0  0  0  0  0  0  0
   59.6310   29.2100   48.8970 N   0  0  0  0  0  0  0  0  0  0  0  0
   59.0040   28.5760   47.7600 C   0  0  0  0  0  0  0  0  0  0  0  0
   59.1470   27.1940   47.5380 C   0  0  0  0  0  0  0  0  0  0  0  0
   58.5300   26.5840   46.4430 C   0  0  0  0  0  0  0  0  0  0  0  0
   57.7620   27.3410   45.5570 C   0  0  0  0  0  0  0  0  0  0  0  0
   57.6150   28.7190   45.7570 C   0  0  0  0  0  0  0  0  0  0  0  0
   56.6360   29.6780   44.6510 S   0  0  0  0  0  0  0  0  0  0  0  0
   57.0140   29.2150   42.9770 C   0  0  0  0  0  0  0  0  0  0  0  0
   56.9270   31.1410   44.8440 O   0  0  0  0  0  0  0  0  0  0  0  0
   55.1780   29.4360   44.9250 O   0  0  0  0  0  0  0  0  0  0  0  0
   58.2280   29.3300   46.8590 C   0  0  0  0  0  0  0  0  0  0  0  0
   60.8880   28.6840   49.4430 C   0  0  0  0  0  0  0  0  0  0  0  0
   61.6480   29.7970   50.1750 C   0  0  0  0  0  0  0  0  0  0  0  0
   63.6230   32.3460   50.5130 C   0  0  0  0  0  0  0  0  0  0  0  0
   64.3170   32.7980   49.3970 C   0  0  0  0  0  0  0  0  0  0  0  0
   65.5710   32.6980   49.3510 O   0  0  0  0  0  0  0  0  0  0  0  0
   63.6670   33.3080   48.3670 O   0  0  0  0  0  0  0  0  0  0  0  0
   62.3510   33.4720   48.3550 C   0  0  0  0  0  0  0  0  0  0  0  0
   61.7720   33.9940   47.1980 C   0  0  0  0  0  0  0  0  0  0  0  0
   58.9789   35.4681   46.1500 H   0  0  0  0  0  0  0  0  0  0  0  0
   60.5401   35.2769   45.2825 H   0  0  0  0  0  0  0  0  0  0  0  0
   59.3427   33.9379   45.2825 H   0  0  0  0  0  0  0  0  0  0  0  0
   58.5275   34.1721   48.1990 H   0  0  0  0  0  0  0  0  0  0  0  0
   59.8763   33.5070   51.5762 H   0  0  0  0  0  0  0  0  0  0  0  0
   58.6798   34.4729   50.6477 H   0  0  0  0  0  0  0  0  0  0  0  0
   58.5803   32.6794   50.6477 H   0  0  0  0  0  0  0  0  0  0  0  0
   62.1150   31.5475   52.5124 H   0  0  0  0  0  0  0  0  0  0  0  0
   60.5710   32.3505   51.8912 H   0  0  0  0  0  0  0  0  0  0  0  0
   60.9830   29.7240   52.0950 H   0  0  0  0  0  0  0  0  0  0  0  0
   58.8759   29.6583   51.4854 H   0  0  0  0  0  0  0  0  0  0  0  0
   59.0633   31.4736   51.3463 H   0  0  0  0  0  0  0  0  0  0  0  0
   57.9753   30.4300   49.3515 H   0  0  0  0  0  0  0  0  0  0  0  0
   59.5029   31.3085   48.9861 H   0  0  0  0  0  0  0  0  0  0  0  0
   59.7492   26.5892   48.2319 H   0  0  0  0  0  0  0  0  0  0  0  0
   58.6500   25.5030   46.2785 H   0  0  0  0  0  0  0  0  0  0  0  0
   57.2717   26.8546   44.7008 H   0  0  0  0  0  0  0  0  0  0  0  0
   57.7097   28.3629   42.9804 H   0  0  0  0  0  0  0  0  0  0  0  0
   56.0874   28.9298   42.4573 H   0  0  0  0  0  0  0  0  0  0  0  0
   57.4789   30.0658   42.4573 H   0  0  0  0  0  0  0  0  0  0  0  0
   58.1016   30.4105   47.0220 H   0  0  0  0  0  0  0  0  0  0  0  0
   60.6663   27.8695   50.1483 H   0  0  0  0  0  0  0  0  0  0  0  0
   61.5092   28.3045   48.6183 H   0  0  0  0  0  0  0  0  0  0  0  0
   62.5795   29.3789   50.5843 H   0  0  0  0  0  0  0  0  0  0  0  0
   61.8514   30.5984   49.4494 H   0  0  0  0  0  0  0  0  0  0  0  0
   64.1736   31.9142   51.3618 H   0  0  0  0  0  0  0  0  0  0  0  0
   62.4084   34.2455   46.3368 H   0  0  0  0  0  0  0  0  0  0  0  0
  1  2  1  0
  2  3  2  0
  3  4  1  0
  4  5  1  0
  4  6  2  0
  6  7  1  0
  7  8  1  0
  8  9  1  0
  9 10  1  0
 10 11  1  0
 11 12  1  0
 12 13  1  0
 13 14  2  0
 14 15  1  0
 15 16  2  0
 16 17  1  0
 17 18  1  0
 18 19  1  0
 18 20  2  0
 18 21  2  0
 17 22  2  0
 12 23  1  0
 23 24  1  0
  7 25  2  0
 25 26  1  0
 26 27  2  0
 26 28  1  0
 28 29  1  0
 29 30  2  0
 30  2  1  0
 29  6  1  0
 24  9  1  0
 22 13  1  0
  1 31  1  0
  1 32  1  0
  1 33  1  0
  3 34  1  0
  5 35  1  0
  5 36  1  0
  5 37  1  0
  8 38  1  0
  8 39  1  0
  9 40  1  0
 10 41  1  0
 10 42  1  0
 11 43  1  0
 11 44  1  0
 14 45  1  0
 15 46  1  0
 16 47  1  0
 19 48  1  0
 19 49  1  0
 19 50  1  0
 22 51  1  0
 23 52  1  0
 23 53  1  0
 24 54  1  0
 24 55  1  0
 25 56  1  0
 30 57  1  0
M  CHG  1   9   1
M  END
>  <UniqueID>  (81) 
73

>  <SMILES>  (81) 
Cc1cc(C)c2c(C[NH+]3CCN(c4cccc(S(C)(=O)=O)c4)CC3)cc(=O)oc2c1

>  <Energy>  (81) 
91.85893385377788

>  <Genealogy>  (81) 
Cc1cc(C)c2c(C[NH+]3CCN(c4cccc(S(C)(=O)=O)c4)CC3)cc(=O)oc2c1 (protonated)
Cc1cc(C)c2c(C[NH+]3CCN(c4cccc(S(C)(=O)=O)c4)CC3)cc(=O)oc2c1 (3D coordinates assigned)
Cc1cc(C)c2c(C[NH+]3CCN(c4cccc(S(C)(=O)=O)c4)CC3)cc(=O)oc2c1 (nonaromatic ring conformer: 91.85893385377788 kcal/mol)

>  <smiles>  (81) 
Cc1cc(C)c2c(CN3CCN(c4cccc(S(C)(=O)=O)c4)CC3)cc(=O)oc2c1

>  <score_type>  (81) 
oracle

>  <origin>  (81) 
adg

>  <m_score__min__energy>  (81) 
-8.0399999999999991

>  <m_primary>  (81) 
energy

$$$$
81:0
     RDKit          3D

 41 43  0  0  0  0  0  0  0  0999 V2000
   57.3720   29.7830   51.7370 N   0  0  0  0  0  0  0  0  0  0  0  0
   58.1050   30.0720   50.8900 C   0  0  0  0  0  0  0  0  0  0  0  0
   59.0170   30.4330   49.8360 C   0  0  0  0  0  0  0  0  0  0  0  0
   59.8050   29.4510   49.2250 C   0  0  0  0  0  0  0  0  0  0  0  0
   60.6880   29.8010   48.1990 C   0  0  0  0  0  0  0  0  0  0  0  0
   60.7790   31.1300   47.7760 C   0  0  0  0  0  0  0  0  0  0  0  0
   59.9830   32.1160   48.3750 C   0  0  0  0  0  0  0  0  0  0  0  0
   60.0240   33.7810   47.7970 S   0  0  0  0  0  0  0  0  0  0  0  0
   61.3330   34.0790   47.1220 O   0  0  0  0  0  0  0  0  0  0  0  0
   59.8650   34.6980   48.9770 O   0  0  0  0  0  0  0  0  0  0  0  0
   58.7290   34.0660   46.6770 N   0  0  0  0  0  0  0  0  0  0  0  0
   58.8120   33.8610   45.2620 C   0  0  0  0  0  0  0  0  0  0  0  0
   59.3370   34.7550   44.5470 O   0  0  0  0  0  0  0  0  0  0  0  0
   58.2830   32.6480   44.6150 C   0  0  0  0  0  0  0  0  0  0  0  0
   57.7660   32.7250   43.3140 C   0  0  0  0  0  0  0  0  0  0  0  0
   57.2560   31.5840   42.6920 C   0  0  0  0  0  0  0  0  0  0  0  0
   57.2870   30.3530   43.3510 C   0  0  0  0  0  0  0  0  0  0  0  0
   57.8270   30.2500   44.6450 C   0  0  0  0  0  0  0  0  0  0  0  0
   57.9300   28.9240   45.3050 C   0  0  0  0  0  0  0  0  0  0  0  0
   59.1960   28.4270   45.6660 C   0  0  0  0  0  0  0  0  0  0  0  0
   59.3220   27.1840   46.3040 C   0  0  0  0  0  0  0  0  0  0  0  0
   60.6140   26.6930   46.6740 N   0  0  0  0  0  0  0  0  0  0  0  0
   58.1770   26.4290   46.5810 C   0  0  0  0  0  0  0  0  0  0  0  0
   56.9160   26.9090   46.2210 C   0  0  0  0  0  0  0  0  0  0  0  0
   56.7860   28.1470   45.5840 C   0  0  0  0  0  0  0  0  0  0  0  0
   55.5200   28.5830   45.2140 O   0  0  0  0  0  0  0  0  0  0  0  0
   58.3170   31.4100   45.2750 C   0  0  0  0  0  0  0  0  0  0  0  0
   59.1100   31.7660   49.4150 C   0  0  0  0  0  0  0  0  0  0  0  0
   59.7296   28.4035   49.5521 H   0  0  0  0  0  0  0  0  0  0  0  0
   61.3119   29.0294   47.7241 H   0  0  0  0  0  0  0  0  0  0  0  0
   61.4771   31.4029   46.9709 H   0  0  0  0  0  0  0  0  0  0  0  0
   57.7622   33.6876   42.7817 H   0  0  0  0  0  0  0  0  0  0  0  0
   56.8289   31.6546   41.6808 H   0  0  0  0  0  0  0  0  0  0  0  0
   56.8859   29.4574   42.8539 H   0  0  0  0  0  0  0  0  0  0  0  0
   60.0963   29.0194   45.4456 H   0  0  0  0  0  0  0  0  0  0  0  0
   60.9080   26.6690   47.6760 H   0  0  0  0  0  0  0  0  0  0  0  0
   61.2840   26.3510   45.9510 H   0  0  0  0  0  0  0  0  0  0  0  0
   58.2704   25.4550   47.0836 H   0  0  0  0  0  0  0  0  0  0  0  0
   56.0198   26.3098   46.4398 H   0  0  0  0  0  0  0  0  0  0  0  0
   58.7297   31.3453   46.2926 H   0  0  0  0  0  0  0  0  0  0  0  0
   58.4971   32.5394   49.9011 H   0  0  0  0  0  0  0  0  0  0  0  0
  1  2  3  0
  2  3  1  0
  3  4  2  0
  4  5  1  0
  5  6  2  0
  6  7  1  0
  7  8  1  0
  8  9  2  0
  8 10  2  0
  8 11  1  0
 11 12  1  0
 12 13  2  0
 12 14  1  0
 14 15  2  0
 15 16  1  0
 16 17  2  0
 17 18  1  0
 18 19  1  0
 19 20  2  0
 20 21  1  0
 21 22  1  0
 21 23  2  0
 23 24  1  0
 24 25  2  0
 25 26  1  0
 18 27  2  0
  7 28  2  0
 28  3  1  0
 27 14  1  0
 25 19  1  0
  4 29  1  0
  5 30  1  0
  6 31  1  0
 15 32  1  0
 16 33  1  0
 17 34  1  0
 20 35  1  0
 22 36  1  0
 22 37  1  0
 23 38  1  0
 24 39  1  0
 27 40  1  0
 28 41  1  0
M  CHG  2  11  -1  26  -1
M  END
>  <UniqueID>  (82) 
74

>  <SMILES>  (82) 
N#Cc1cccc(S(=O)(=O)[N-]C(=O)c2cccc(-c3cc(N)ccc3[O-])c2)c1

>  <Energy>  (82) 
53.64401642724086

>  <Genealogy>  (82) 
N#Cc1cccc(S(=O)(=O)[N-]C(=O)c2cccc(-c3cc(N)ccc3[O-])c2)c1 (protonated)
N#Cc1cccc(S(=O)(=O)[N-]C(=O)c2cccc(-c3cc(N)ccc3[O-])c2)c1 (3D coordinates assigned)
N#Cc1cccc(S(=O)(=O)[N-]C(=O)c2cccc(-c3cc(N)ccc3[O-])c2)c1 (optimized conformer: 53.64401642724086 kcal/mol)

>  <smiles>  (82) 
N#Cc1cccc(S(=O)(=O)NC(=O)c2cccc(-c3cc(N)ccc3O)c2)c1

>  <score_type>  (82) 
oracle

>  <origin>  (82) 
adg

>  <m_score__min__energy>  (82) 
-14.26

>  <m_primary>  (82) 
energy

$$$$
82:0
     RDKit          3D

 54 56  0  0  0  0  0  0  0  0999 V2000
   54.2340   30.4800   51.8750 C   0  0  0  0  0  0  0  0  0  0  0  0
   55.6200   30.3780   51.6440 O   0  0  0  0  0  0  0  0  0  0  0  0
   56.3170   30.6970   52.8290 C   0  0  0  0  0  0  0  0  0  0  0  0
   57.3790   31.7580   52.5310 C   0  0  0  0  0  0  0  0  0  0  0  0
   57.3920   32.1090   51.1030 N   0  0  0  0  0  0  0  0  0  0  0  0
   58.2820   31.2330   50.3930 C   0  0  0  0  0  0  0  0  0  0  0  0
   58.7450   30.2130   50.9740 O   0  0  0  0  0  0  0  0  0  0  0  0
   58.6770   31.5490   49.0480 N   0  0  0  0  0  0  0  0  0  0  0  0
   59.4060   30.6490   48.2000 C   0  0  0  0  0  0  0  0  0  0  0  0
   59.6350   29.4660   48.5710 O   0  0  0  0  0  0  0  0  0  0  0  0
   59.8270   31.1030   46.8310 C   0  0  0  0  0  0  0  0  0  0  0  0
   58.7600   30.9020   45.8430 N   0  0  0  0  0  0  0  0  0  0  0  0
   57.8010   31.7890   45.4720 C   0  0  0  0  0  0  0  0  0  0  0  0
   57.6620   33.1500   46.0060 C   0  0  0  0  0  0  0  0  0  0  0  0
   57.1490   33.3110   47.1440 O   0  0  0  0  0  0  0  0  0  0  0  0
   58.0550   34.3040   45.2500 N   0  0  0  0  0  0  0  0  0  0  0  0
   59.3520   34.9710   45.3330 C   0  0  0  0  0  0  0  0  0  0  0  0
   60.1530   34.4770   46.5110 C   0  0  0  0  0  0  0  0  0  0  0  0
   59.6690   34.6410   47.8190 C   0  0  0  0  0  0  0  0  0  0  0  0
   60.4330   34.2140   48.9100 C   0  0  0  0  0  0  0  0  0  0  0  0
   61.6740   33.6060   48.7030 C   0  0  0  0  0  0  0  0  0  0  0  0
   62.6360   33.0780   50.0680 Cl  0  0  0  0  0  0  0  0  0  0  0  0
   62.1490   33.4160   47.4030 C   0  0  0  0  0  0  0  0  0  0  0  0
   61.3900   33.8430   46.3100 C   0  0  0  0  0  0  0  0  0  0  0  0
   56.9650   31.2460   44.5010 C   0  0  0  0  0  0  0  0  0  0  0  0
   57.4680   29.9880   44.2590 C   0  0  0  0  0  0  0  0  0  0  0  0
   57.0590   29.0170   43.3480 C   0  0  0  0  0  0  0  0  0  0  0  0
   57.7940   27.8210   43.2890 C   0  0  0  0  0  0  0  0  0  0  0  0
   58.9090   27.6250   44.1340 C   0  0  0  0  0  0  0  0  0  0  0  0
   59.3000   28.6230   45.0440 C   0  0  0  0  0  0  0  0  0  0  0  0
   58.5520   29.8040   45.0830 C   0  0  0  0  0  0  0  0  0  0  0  0
   54.0429   30.4941   52.9582 H   0  0  0  0  0  0  0  0  0  0  0  0
   53.8544   31.4085   51.4236 H   0  0  0  0  0  0  0  0  0  0  0  0
   53.7226   29.6171   51.4236 H   0  0  0  0  0  0  0  0  0  0  0  0
   55.6098   31.0868   53.5759 H   0  0  0  0  0  0  0  0  0  0  0  0
   56.8048   29.7921   53.2204 H   0  0  0  0  0  0  0  0  0  0  0  0
   57.1603   32.6605   53.1206 H   0  0  0  0  0  0  0  0  0  0  0  0
   58.3647   31.3500   52.7990 H   0  0  0  0  0  0  0  0  0  0  0  0
   57.7140   33.0980   50.9770 H   0  0  0  0  0  0  0  0  0  0  0  0
   56.4280   32.0160   50.7050 H   0  0  0  0  0  0  0  0  0  0  0  0
   58.3920   32.4740   48.6570 H   0  0  0  0  0  0  0  0  0  0  0  0
   60.0790   32.1730   46.8716 H   0  0  0  0  0  0  0  0  0  0  0  0
   60.6979   30.5056   46.5232 H   0  0  0  0  0  0  0  0  0  0  0  0
   59.9155   34.7730   44.4093 H   0  0  0  0  0  0  0  0  0  0  0  0
   59.1779   36.0495   45.4619 H   0  0  0  0  0  0  0  0  0  0  0  0
   58.6864   35.1065   47.9860 H   0  0  0  0  0  0  0  0  0  0  0  0
   60.0560   34.3571   49.9334 H   0  0  0  0  0  0  0  0  0  0  0  0
   63.1219   32.9295   47.2395 H   0  0  0  0  0  0  0  0  0  0  0  0
   61.7630   33.6818   45.2878 H   0  0  0  0  0  0  0  0  0  0  0  0
   56.0915   31.7196   44.0292 H   0  0  0  0  0  0  0  0  0  0  0  0
   56.1886   29.1812   42.6957 H   0  0  0  0  0  0  0  0  0  0  0  0
   57.4995   27.0326   42.5807 H   0  0  0  0  0  0  0  0  0  0  0  0
   59.4759   26.6839   44.0796 H   0  0  0  0  0  0  0  0  0  0  0  0
   60.1675   28.4793   45.7049 H   0  0  0  0  0  0  0  0  0  0  0  0
  1  2  1  0
  2  3  1  0
  3  4  1  0
  4  5  1  0
  5  6  1  0
  6  7  2  0
  6  8  1  0
  8  9  1  0
  9 10  2  0
  9 11  1  0
 11 12  1  0
 12 13  1  0
 13 14  1  0
 14 15  2  0
 14 16  1  0
 16 17  1  0
 17 18  1  0
 18 19  2  0
 19 20  1  0
 20 21  2  0
 21 22  1  0
 21 23  1  0
 23 24  2  0
 13 25  2  0
 25 26  1  0
 26 27  2  0
 27 28  1  0
 28 29  2  0
 29 30  1  0
 30 31  2  0
 31 12  1  0
 24 18  1  0
 31 26  1  0
  1 32  1  0
  1 33  1  0
  1 34  1  0
  3 35  1  0
  3 36  1  0
  4 37  1  0
  4 38  1  0
  5 39  1  0
  5 40  1  0
  8 41  1  0
 11 42  1  0
 11 43  1  0
 17 44  1  0
 17 45  1  0
 19 46  1  0
 20 47  1  0
 23 48  1  0
 24 49  1  0
 25 50  1  0
 27 51  1  0
 28 52  1  0
 29 53  1  0
 30 54  1  0
M  CHG  2   5   1  16  -1
M  END
>  <UniqueID>  (83) 
75

>  <SMILES>  (83) 
COCC[NH2+]C(=O)NC(=O)Cn1c(C(=O)[N-]Cc2ccc(Cl)cc2)cc2ccccc21

>  <Energy>  (83) 
88.74363588666908

>  <Genealogy>  (83) 
COCC[NH2+]C(=O)NC(=O)Cn1c(C(=O)[N-]Cc2ccc(Cl)cc2)cc2ccccc21 (protonated)
COCC[NH2+]C(=O)NC(=O)Cn1c(C(=O)[N-]Cc2ccc(Cl)cc2)cc2ccccc21 (3D coordinates assigned)
COCC[NH2+]C(=O)NC(=O)Cn1c(C(=O)[N-]Cc2ccc(Cl)cc2)cc2ccccc21 (optimized conformer: 88.74363588666908 kcal/mol)

>  <smiles>  (83) 
COCCNC(=O)NC(=O)Cn1c(C(=O)NCc2ccc(Cl)cc2)cc2ccccc21

>  <score_type>  (83) 
oracle

>  <origin>  (83) 
adg

>  <m_score__min__energy>  (83) 
-7.5300000000000002

>  <m_primary>  (83) 
energy

$$$$
83:0
     RDKit          3D

 67 68  0  0  0  0  0  0  0  0999 V2000
   64.4880   33.0330   49.0260 C   0  0  0  0  0  0  0  0  0  0  0  0
   63.2840   33.6270   48.3380 C   0  0  0  0  0  0  0  0  0  0  0  0
   63.3200   33.8590   46.8460 C   0  0  0  0  0  0  0  0  0  0  0  0
   62.1970   33.9160   49.0870 C   0  0  0  0  0  0  0  0  0  0  0  0
   61.6000   33.0050   50.1300 C   0  0  0  0  0  0  0  0  0  0  0  0
   60.0660   33.0620   50.1100 C   0  0  0  0  0  0  0  0  0  0  0  0
   59.4660   31.6970   50.3880 C   0  0  0  0  0  0  0  0  0  0  0  0
   58.0370   31.6080   50.8550 C   0  0  0  0  0  0  0  0  0  0  0  0
   60.1610   30.5500   50.2130 C   0  0  0  0  0  0  0  0  0  0  0  0
   59.7360   29.4520   49.2650 C   0  0  0  0  0  0  0  0  0  0  0  0
   59.0770   30.0090   47.9960 C   0  0  0  0  0  0  0  0  0  0  0  0
   60.0810   30.2460   46.8880 C   0  0  0  0  0  0  0  0  0  0  0  0
   61.1530   31.2900   47.0970 C   0  0  0  0  0  0  0  0  0  0  0  0
   59.9930   29.5250   45.7480 C   0  0  0  0  0  0  0  0  0  0  0  0
   59.9440   28.0210   45.6780 C   0  0  0  0  0  0  0  0  0  0  0  0
   58.5190   27.5620   45.7400 C   0  0  0  0  0  0  0  0  0  0  0  0
   58.0390   26.7780   46.7210 N   0  0  0  0  0  0  0  0  0  0  0  0
   56.7280   26.6750   46.4240 C   0  0  0  0  0  0  0  0  0  0  0  0
   55.9270   25.9990   47.1190 O   0  0  0  0  0  0  0  0  0  0  0  0
   56.3430   27.3550   45.3260 N   0  0  0  0  0  0  0  0  0  0  0  0
   57.4840   27.9190   44.8920 C   0  0  0  0  0  0  0  0  0  0  0  0
   57.5550   28.8250   43.6960 C   0  0  0  0  0  0  0  0  0  0  0  0
   57.1890   30.2510   44.0130 C   0  0  0  0  0  0  0  0  0  0  0  0
   56.2120   30.5150   44.7680 O   0  0  0  0  0  0  0  0  0  0  0  0
   57.9740   31.3130   43.4550 N   0  0  0  0  0  0  0  0  0  0  0  0
   57.6170   32.7230   43.6020 C   0  0  0  0  0  0  0  0  0  0  0  0
   58.1670   33.2960   44.8830 C   0  0  0  0  0  0  0  0  0  0  0  0
   59.2170   34.2290   44.8500 C   0  0  0  0  0  0  0  0  0  0  0  0
   59.7800   34.7000   46.0410 C   0  0  0  0  0  0  0  0  0  0  0  0
   59.2980   34.2450   47.2720 C   0  0  0  0  0  0  0  0  0  0  0  0
   58.2590   33.3110   47.3140 C   0  0  0  0  0  0  0  0  0  0  0  0
   57.6980   32.8330   46.1250 C   0  0  0  0  0  0  0  0  0  0  0  0
   64.3565   33.0979   50.1162 H   0  0  0  0  0  0  0  0  0  0  0  0
   64.5953   31.9785   48.7317 H   0  0  0  0  0  0  0  0  0  0  0  0
   65.3901   33.5894   48.7317 H   0  0  0  0  0  0  0  0  0  0  0  0
   63.4858   34.9277   46.6450 H   0  0  0  0  0  0  0  0  0  0  0  0
   64.1377   33.2714   46.4032 H   0  0  0  0  0  0  0  0  0  0  0  0
   62.3627   33.5469   46.4032 H   0  0  0  0  0  0  0  0  0  0  0  0
   61.7110   34.8892   48.9236 H   0  0  0  0  0  0  0  0  0  0  0  0
   61.9226   31.9725   49.9306 H   0  0  0  0  0  0  0  0  0  0  0  0
   61.9464   33.3373   51.1197 H   0  0  0  0  0  0  0  0  0  0  0  0
   59.7226   33.7690   50.8795 H   0  0  0  0  0  0  0  0  0  0  0  0
   59.7412   33.3900   49.1115 H   0  0  0  0  0  0  0  0  0  0  0  0
   58.0101   31.6063   51.9547 H   0  0  0  0  0  0  0  0  0  0  0  0
   57.4728   32.4727   50.4757 H   0  0  0  0  0  0  0  0  0  0  0  0
   57.5844   30.6799   50.4757 H   0  0  0  0  0  0  0  0  0  0  0  0
   61.0856   30.4085   50.7919 H   0  0  0  0  0  0  0  0  0  0  0  0
   60.6230   28.8685   48.9773 H   0  0  0  0  0  0  0  0  0  0  0  0
   58.9965   28.8239   49.7833 H   0  0  0  0  0  0  0  0  0  0  0  0
   58.3231   29.2898   47.6433 H   0  0  0  0  0  0  0  0  0  0  0  0
   58.6190   30.9764   48.2497 H   0  0  0  0  0  0  0  0  0  0  0  0
   61.3104   31.4433   48.1748 H   0  0  0  0  0  0  0  0  0  0  0  0
   62.0912   30.9500   46.6342 H   0  0  0  0  0  0  0  0  0  0  0  0
   60.8379   32.2368   46.6342 H   0  0  0  0  0  0  0  0  0  0  0  0
   59.9542   30.0790   44.7985 H   0  0  0  0  0  0  0  0  0  0  0  0
   60.3968   27.6833   44.7341 H   0  0  0  0  0  0  0  0  0  0  0  0
   60.5020   27.5971   46.5259 H   0  0  0  0  0  0  0  0  0  0  0  0
   58.5822   28.8062   43.3030 H   0  0  0  0  0  0  0  0  0  0  0  0
   56.8259   28.4549   42.9602 H   0  0  0  0  0  0  0  0  0  0  0  0
   58.7940   31.0700   42.8560 H   0  0  0  0  0  0  0  0  0  0  0  0
   58.0276   33.2872   42.7516 H   0  0  0  0  0  0  0  0  0  0  0  0
   56.5202   32.8027   43.6285 H   0  0  0  0  0  0  0  0  0  0  0  0
   59.5980   34.5907   43.8836 H   0  0  0  0  0  0  0  0  0  0  0  0
   60.6029   35.4292   46.0089 H   0  0  0  0  0  0  0  0  0  0  0  0
   59.7365   34.6221   48.2077 H   0  0  0  0  0  0  0  0  0  0  0  0
   57.8821   32.9515   48.2829 H   0  0  0  0  0  0  0  0  0  0  0  0
   56.8863   32.0916   46.1619 H   0  0  0  0  0  0  0  0  0  0  0  0
  1  2  1  0
  2  3  1  0
  2  4  2  3
  4  5  1  0
  5  6  1  0
  6  7  1  0
  7  8  1  0
  7  9  2  3
  9 10  1  0
 10 11  1  0
 11 12  1  0
 12 13  1  0
 12 14  2  3
 14 15  1  0
 15 16  1  0
 16 17  1  0
 17 18  1  0
 18 19  2  0
 18 20  1  0
 20 21  1  0
 21 22  1  0
 22 23  1  0
 23 24  2  0
 23 25  1  0
 25 26  1  0
 26 27  1  0
 27 28  2  0
 28 29  1  0
 29 30  2  0
 30 31  1  0
 31 32  2  0
 21 16  2  0
 32 27  1  0
  1 33  1  0
  1 34  1  0
  1 35  1  0
  3 36  1  0
  3 37  1  0
  3 38  1  0
  4 39  1  0
  5 40  1  0
  5 41  1  0
  6 42  1  0
  6 43  1  0
  8 44  1  0
  8 45  1  0
  8 46  1  0
  9 47  1  0
 10 48  1  0
 10 49  1  0
 11 50  1  0
 11 51  1  0
 13 52  1  0
 13 53  1  0
 13 54  1  0
 14 55  1  0
 15 56  1  0
 15 57  1  0
 22 58  1  0
 22 59  1  0
 25 60  1  0
 26 61  1  0
 26 62  1  0
 28 63  1  0
 29 64  1  0
 30 65  1  0
 31 66  1  0
 32 67  1  0
M  CHG  2  17  -1  20  -1
M  END
>  <UniqueID>  (84) 
76

>  <SMILES>  (84) 
CC(C)=CCCC(C)=CCCC(C)=CCc1[n-]c(=O)[n-]c1CC(=O)NCc1ccccc1

>  <Energy>  (84) 
71.89301777020614

>  <Genealogy>  (84) 
CC(C)=CCCC(C)=CCCC(C)=CCc1[n-]c(=O)[n-]c1CC(=O)NCc1ccccc1 (protonated)
CC(C)=CCCC(C)=CCCC(C)=CCc1[n-]c(=O)[n-]c1CC(=O)NCc1ccccc1 (3D coordinates assigned)
CC(C)=CCCC(C)=CCCC(C)=CCc1[n-]c(=O)[n-]c1CC(=O)NCc1ccccc1 (optimized conformer: 71.89301777020614 kcal/mol)

>  <smiles>  (84) 
CC(C)=CCCC(C)=CCCC(C)=CCc1[nH]c(=O)[nH]c1CC(=O)NCc1ccccc1

>  <score_type>  (84) 
oracle

>  <origin>  (84) 
adg

>  <m_score__min__energy>  (84) 
-12.17

>  <m_primary>  (84) 
energy

$$$$
84:0
     RDKit          3D

 48 51  0  0  0  0  0  0  0  0999 V2000
   59.0870   31.3725   44.7610 H   0  0  0  0  0  0  0  0  0  0  0  0
   58.3780   31.4320   45.6000 C   0  0  0  0  0  0  0  0  0  0  0  0
   59.2060   29.8660   50.9870 N   0  0  0  0  0  0  0  0  0  0  0  0
   56.3160   30.8250   44.7240 O   0  0  0  0  0  0  0  0  0  0  0  0
   56.2990   30.1010   43.5050 C   0  0  0  0  0  0  0  0  0  0  0  0
   56.2737   29.0224   43.7195 H   0  0  0  0  0  0  0  0  0  0  0  0
   55.4072   30.3805   42.9249 H   0  0  0  0  0  0  0  0  0  0  0  0
   57.2030   30.3384   42.9249 H   0  0  0  0  0  0  0  0  0  0  0  0
   58.6200   32.4010   46.6860 C   0  0  0  0  0  0  0  0  0  0  0  0
   58.6990   33.7910   46.5530 C   0  0  0  0  0  0  0  0  0  0  0  0
   58.5760   34.5700   45.2750 C   0  0  0  0  0  0  0  0  0  0  0  0
   59.2041   34.0999   44.5040 H   0  0  0  0  0  0  0  0  0  0  0  0
   58.9051   35.6035   45.4584 H   0  0  0  0  0  0  0  0  0  0  0  0
   57.1300   34.5950   44.7950 C   0  0  0  0  0  0  0  0  0  0  0  0
   56.4554   34.6067   45.6638 H   0  0  0  0  0  0  0  0  0  0  0  0
   56.9609   35.4962   44.1873 H   0  0  0  0  0  0  0  0  0  0  0  0
   56.9298   33.7002   44.1873 H   0  0  0  0  0  0  0  0  0  0  0  0
   58.9830   34.3700   47.7430 N   0  0  0  0  0  0  0  0  0  0  0  0
   59.1160   35.3890   47.9310 H   0  0  0  0  0  0  0  0  0  0  0  0
   59.0710   33.3670   48.6320 C   0  0  0  0  0  0  0  0  0  0  0  0
   59.3340   33.4790   49.9940 C   0  0  0  0  0  0  0  0  0  0  0  0
   59.5002   34.4616   50.4598 H   0  0  0  0  0  0  0  0  0  0  0  0
   59.3810   32.2990   50.7570 C   0  0  0  0  0  0  0  0  0  0  0  0
   59.5750   32.3586   51.8381 H   0  0  0  0  0  0  0  0  0  0  0  0
   59.1820   31.0370   50.1520 C   0  0  0  0  0  0  0  0  0  0  0  0
   57.3480   30.6520   45.6170 N   0  0  0  0  0  0  0  0  0  0  0  0
   58.3460   29.5430   51.9100 C   0  0  0  0  0  0  0  0  0  0  0  0
   57.0370   29.8610   51.7350 N   0  0  0  0  0  0  0  0  0  0  0  0
   56.0950   29.5700   52.6740 C   0  0  0  0  0  0  0  0  0  0  0  0
   54.6770   29.9330   52.4140 C   0  0  0  0  0  0  0  0  0  0  0  0
   53.6280   29.3420   53.1410 C   0  0  0  0  0  0  0  0  0  0  0  0
   53.8455   28.5886   53.9124 H   0  0  0  0  0  0  0  0  0  0  0  0
   52.3090   29.7170   52.8780 C   0  0  0  0  0  0  0  0  0  0  0  0
   51.4831   29.2552   53.4390 H   0  0  0  0  0  0  0  0  0  0  0  0
   52.0400   30.6760   51.9050 C   0  0  0  0  0  0  0  0  0  0  0  0
   51.0034   30.9736   51.6884 H   0  0  0  0  0  0  0  0  0  0  0  0
   53.1010   31.2550   51.2080 C   0  0  0  0  0  0  0  0  0  0  0  0
   52.9008   32.0165   50.4399 H   0  0  0  0  0  0  0  0  0  0  0  0
   54.3820   30.8820   51.4740 N   0  0  0  0  0  0  0  0  0  0  0  0
   55.1480   31.3340   50.9250 H   0  0  0  0  0  0  0  0  0  0  0  0
   56.4910   28.9160   53.8520 C   0  0  0  0  0  0  0  0  0  0  0  0
   55.7522   28.6523   54.6231 H   0  0  0  0  0  0  0  0  0  0  0  0
   57.8390   28.6080   54.0240 C   0  0  0  0  0  0  0  0  0  0  0  0
   58.1749   28.1042   54.9423 H   0  0  0  0  0  0  0  0  0  0  0  0
   58.7370   28.9290   53.0600 N   0  0  0  0  0  0  0  0  0  0  0  0
   58.8860   30.9620   48.7690 C   0  0  0  0  0  0  0  0  0  0  0  0
   58.6864   29.9938   48.2865 H   0  0  0  0  0  0  0  0  0  0  0  0
   58.8540   32.1500   48.0330 C   0  0  0  0  0  0  0  0  0  0  0  0
  1  2  1  0
  2  3  2  0
  3  4  1  0
  4  5  1  0
  5  6  1  0
  5  7  1  0
  5  8  1  0
  2  9  1  0
  9 10  2  0
 10 11  1  0
 11 12  1  0
 11 13  1  0
 11 14  1  0
 14 15  1  0
 14 16  1  0
 14 17  1  0
 10 18  1  0
 18 19  1  0
 18 20  1  0
 20 21  2  0
 21 22  1  0
 21 23  1  0
 23 24  1  0
 23 25  2  0
 25 26  1  0
 26 27  2  0
 27 28  1  0
 28 29  2  0
 29 30  1  0
 30 31  2  0
 31 32  1  0
 31 33  1  0
 33 34  1  0
 33 35  2  0
 35 36  1  0
 35 37  1  0
 37 38  1  0
 37 39  2  0
 39 40  1  0
 29 41  1  0
 41 42  1  0
 41 43  2  0
 43 44  1  0
 43 45  1  0
 25 46  1  0
 46 47  1  0
 46 48  2  0
 48  9  1  0
 48 20  1  0
 45 27  1  0
 39 30  1  0
M  CHG  2  39   1  45  -1
M  END
>  <UniqueID>  (85) 
77

>  <SMILES>  (85) 
CCc1[nH]c2ccc(/N=c3/nc(-c4cccc[nH+]4)cc[n-]3)cc2c1/C=N/OC

>  <Energy>  (85) 
88.06317949050606

>  <Genealogy>  (85) 
CCc1[nH]c2ccc(N=c3nc(-c4cccc[nH+]4)cc[n-]3)cc2c1C=NOC (protonated)
CCc1[nH]c2ccc(/N=c3/nc(-c4cccc[nH+]4)cc[n-]3)cc2c1/C=N/OC (cis-trans isomerization)
CCc1[nH]c2ccc(/N=c3/nc(-c4cccc[nH+]4)cc[n-]3)cc2c1/C=N/OC (3D coordinates assigned)
CCc1[nH]c2ccc(/N=c3/nc(-c4cccc[nH+]4)cc[n-]3)cc2c1/C=N/OC (optimized conformer: 88.06317949050606 kcal/mol)

>  <smiles>  (85) 
CCc1[nH]c2ccc(N=c3nc(-c4ccccn4)cc[nH]3)cc2c1C=NOC

>  <score_type>  (85) 
oracle

>  <origin>  (85) 
adg

>  <m_score__min__energy>  (85) 
-7.8700000000000001

>  <m_primary>  (85) 
energy

$$$$
85:0
     RDKit          3D

 44 46  0  0  0  0  0  0  0  0999 V2000
   60.5420   29.1560   47.5030 O   0  0  0  0  0  0  0  0  0  0  0  0
   59.7820   28.7600   46.5760 C   0  0  0  0  0  0  0  0  0  0  0  0
   59.3090   29.6660   45.6210 O   0  0  0  0  0  0  0  0  0  0  0  0
   58.1130   29.4560   44.8790 C   0  0  0  0  0  0  0  0  0  0  0  0
   57.2820   30.7080   44.8990 C   0  0  0  0  0  0  0  0  0  0  0  0
   56.0840   30.6210   44.5080 O   0  0  0  0  0  0  0  0  0  0  0  0
   57.8420   32.0320   45.3260 C   0  0  0  0  0  0  0  0  0  0  0  0
   57.8310   33.1250   44.4360 C   0  0  0  0  0  0  0  0  0  0  0  0
   58.3540   34.3590   44.8150 C   0  0  0  0  0  0  0  0  0  0  0  0
   58.8640   34.5440   46.0960 C   0  0  0  0  0  0  0  0  0  0  0  0
   58.8680   33.4900   47.0180 C   0  0  0  0  0  0  0  0  0  0  0  0
   59.3100   33.7450   48.3620 N   0  0  0  0  0  0  0  0  0  0  0  0
   59.6430   34.9020   48.6970 O   0  0  0  0  0  0  0  0  0  0  0  0
   59.6320   32.6920   49.1880 O   0  0  0  0  0  0  0  0  0  0  0  0
   58.3910   32.2150   46.6230 C   0  0  0  0  0  0  0  0  0  0  0  0
   58.4850   31.1220   47.4910 O   0  0  0  0  0  0  0  0  0  0  0  0
   59.3750   27.3400   46.4970 C   0  0  0  0  0  0  0  0  0  0  0  0
   60.2650   26.3640   46.0150 C   0  0  0  0  0  0  0  0  0  0  0  0
   59.8730   25.0250   45.9550 C   0  0  0  0  0  0  0  0  0  0  0  0
   58.5960   24.6460   46.3740 C   0  0  0  0  0  0  0  0  0  0  0  0
   57.6950   25.6030   46.8570 C   0  0  0  0  0  0  0  0  0  0  0  0
   56.3910   25.1730   47.2700 N   0  0  0  0  0  0  0  0  0  0  0  0
   55.1660   24.5460   46.2140 S   0  0  0  0  0  0  0  0  0  0  0  0
   54.4130   25.6810   45.5750 O   0  0  0  0  0  0  0  0  0  0  0  0
   54.2250   23.6770   46.9980 O   0  0  0  0  0  0  0  0  0  0  0  0
   55.9280   23.5900   44.9580 C   0  0  0  0  0  0  0  0  0  0  0  0
   55.8980   23.8620   43.5990 C   0  0  0  0  0  0  0  0  0  0  0  0
   56.5850   22.9100   42.8360 C   0  0  0  0  0  0  0  0  0  0  0  0
   57.1510   21.8920   43.5950 C   0  0  0  0  0  0  0  0  0  0  0  0
   56.7950   22.1740   45.2160 S   0  0  0  0  0  0  0  0  0  0  0  0
   58.0910   26.9510   46.9170 C   0  0  0  0  0  0  0  0  0  0  0  0
   58.3669   29.2015   43.8394 H   0  0  0  0  0  0  0  0  0  0  0  0
   57.5425   28.6311   45.3308 H   0  0  0  0  0  0  0  0  0  0  0  0
   57.4041   33.0019   43.4297 H   0  0  0  0  0  0  0  0  0  0  0  0
   58.3638   35.1923   44.0971 H   0  0  0  0  0  0  0  0  0  0  0  0
   59.2670   35.5253   46.3868 H   0  0  0  0  0  0  0  0  0  0  0  0
   59.3300   30.8750   47.9900 H   0  0  0  0  0  0  0  0  0  0  0  0
   61.2727   26.6559   45.6843 H   0  0  0  0  0  0  0  0  0  0  0  0
   60.5730   24.2658   45.5761 H   0  0  0  0  0  0  0  0  0  0  0  0
   58.2959   23.5889   46.3243 H   0  0  0  0  0  0  0  0  0  0  0  0
   55.3877   24.7347   43.1653 H   0  0  0  0  0  0  0  0  0  0  0  0
   56.6689   22.9625   41.7405 H   0  0  0  0  0  0  0  0  0  0  0  0
   57.7332   21.0452   43.2026 H   0  0  0  0  0  0  0  0  0  0  0  0
   57.3893   27.7084   47.2963 H   0  0  0  0  0  0  0  0  0  0  0  0
  1  2  2  0
  2  3  1  0
  3  4  1  0
  4  5  1  0
  5  6  2  0
  5  7  1  0
  7  8  2  0
  8  9  1  0
  9 10  2  0
 10 11  1  0
 11 12  1  0
 12 13  2  0
 12 14  1  0
 11 15  2  0
 15 16  1  0
  2 17  1  0
 17 18  2  0
 18 19  1  0
 19 20  2  0
 20 21  1  0
 21 22  1  0
 22 23  1  0
 23 24  2  0
 23 25  2  0
 23 26  1  0
 26 27  2  0
 27 28  1  0
 28 29  2  0
 29 30  1  0
 21 31  2  0
 15  7  1  0
 31 17  1  0
 30 26  1  0
  4 32  1  0
  4 33  1  0
  8 34  1  0
  9 35  1  0
 10 36  1  0
 16 37  1  0
 18 38  1  0
 19 39  1  0
 20 40  1  0
 27 41  1  0
 28 42  1  0
 29 43  1  0
 31 44  1  0
M  CHG  3  12   1  14  -1  22  -1
M  END
>  <UniqueID>  (86) 
78

>  <SMILES>  (86) 
O=C(OCC(=O)c1cccc([N+](=O)[O-])c1O)c1cccc([N-]S(=O)(=O)c2cccs2)c1

>  <Energy>  (86) 
82.92626462289395

>  <Genealogy>  (86) 
O=C(OCC(=O)c1cccc([N+](=O)[O-])c1O)c1cccc([N-]S(=O)(=O)c2cccs2)c1 (protonated)
O=C(OCC(=O)c1cccc([N+](=O)[O-])c1O)c1cccc([N-]S(=O)(=O)c2cccs2)c1 (3D coordinates assigned)
O=C(OCC(=O)c1cccc([N+](=O)[O-])c1O)c1cccc([N-]S(=O)(=O)c2cccs2)c1 (optimized conformer: 82.92626462289395 kcal/mol)

>  <smiles>  (86) 
O=C(OCC(=O)c1cccc([N+](=O)[O-])c1O)c1cccc(NS(=O)(=O)c2cccs2)c1

>  <score_type>  (86) 
oracle

>  <origin>  (86) 
adg

>  <m_score__min__energy>  (86) 
-12.08

>  <m_primary>  (86) 
energy

$$$$
86:0
     RDKit          3D

 48 51  0  0  0  0  0  0  0  0999 V2000
   56.2360   28.9130   45.1240 O   0  0  0  0  0  0  0  0  0  0  0  0
   57.2860   28.9360   45.8210 C   0  0  0  0  0  0  0  0  0  0  0  0
   57.5290   27.8530   46.8220 C   0  0  0  0  0  0  0  0  0  0  0  0
   57.2760   26.5500   46.2090 N   0  0  0  0  0  0  0  0  0  0  0  0
   58.2010   25.6550   45.7940 C   0  0  0  0  0  0  0  0  0  0  0  0
   59.5740   25.8110   45.9650 O   0  0  0  0  0  0  0  0  0  0  0  0
   57.5890   24.5880   45.1640 C   0  0  0  0  0  0  0  0  0  0  0  0
   56.2400   24.8460   45.1770 C   0  0  0  0  0  0  0  0  0  0  0  0
   56.0770   26.0610   45.8140 C   0  0  0  0  0  0  0  0  0  0  0  0
   54.8620   26.7110   46.0090 O   0  0  0  0  0  0  0  0  0  0  0  0
   55.2110   23.9690   44.5400 C   0  0  0  0  0  0  0  0  0  0  0  0
   55.8270   22.7030   43.9740 C   0  0  0  0  0  0  0  0  0  0  0  0
   57.1550   22.4500   43.9590 C   0  0  0  0  0  0  0  0  0  0  0  0
   58.2070   23.3990   44.5000 C   0  0  0  0  0  0  0  0  0  0  0  0
   58.3050   29.9180   45.5920 N   0  0  0  0  0  0  0  0  0  0  0  0
   58.1600   31.3470   45.6210 C   0  0  0  0  0  0  0  0  0  0  0  0
   57.2170   32.0080   44.8120 C   0  0  0  0  0  0  0  0  0  0  0  0
   57.0730   33.3960   44.8830 C   0  0  0  0  0  0  0  0  0  0  0  0
   57.8590   34.1370   45.7660 C   0  0  0  0  0  0  0  0  0  0  0  0
   58.7860   33.4920   46.5910 C   0  0  0  0  0  0  0  0  0  0  0  0
   58.9320   32.0980   46.5360 C   0  0  0  0  0  0  0  0  0  0  0  0
   59.9330   31.4320   47.3970 C   0  0  0  0  0  0  0  0  0  0  0  0
   59.5550   30.4960   48.1550 O   0  0  0  0  0  0  0  0  0  0  0  0
   61.3110   31.8530   47.4160 N   0  0  0  0  0  0  0  0  0  0  0  0
   61.8070   33.0490   46.7530 C   0  0  0  0  0  0  0  0  0  0  0  0
   63.2890   33.1240   47.0930 C   0  0  0  0  0  0  0  0  0  0  0  0
   63.4850   32.2060   48.2960 C   0  0  0  0  0  0  0  0  0  0  0  0
   62.3080   31.2370   48.2760 C   0  0  0  0  0  0  0  0  0  0  0  0
   58.5732   27.8994   47.1647 H   0  0  0  0  0  0  0  0  0  0  0  0
   56.8528   27.9902   47.6787 H   0  0  0  0  0  0  0  0  0  0  0  0
   54.4601   23.6936   45.2952 H   0  0  0  0  0  0  0  0  0  0  0  0
   54.7498   24.5266   43.7115 H   0  0  0  0  0  0  0  0  0  0  0  0
   55.1520   21.9450   43.5501 H   0  0  0  0  0  0  0  0  0  0  0  0
   57.4935   21.4965   43.5275 H   0  0  0  0  0  0  0  0  0  0  0  0
   58.8273   22.8632   45.2336 H   0  0  0  0  0  0  0  0  0  0  0  0
   58.8152   23.7550   43.6554 H   0  0  0  0  0  0  0  0  0  0  0  0
   56.5893   31.4282   44.1193 H   0  0  0  0  0  0  0  0  0  0  0  0
   56.3387   33.9054   44.2416 H   0  0  0  0  0  0  0  0  0  0  0  0
   57.7494   35.2305   45.8134 H   0  0  0  0  0  0  0  0  0  0  0  0
   59.4032   34.0803   47.2859 H   0  0  0  0  0  0  0  0  0  0  0  0
   61.6667   32.9704   45.6648 H   0  0  0  0  0  0  0  0  0  0  0  0
   61.2685   33.9494   47.0837 H   0  0  0  0  0  0  0  0  0  0  0  0
   63.8952   32.7770   46.2433 H   0  0  0  0  0  0  0  0  0  0  0  0
   63.6026   34.1549   47.3143 H   0  0  0  0  0  0  0  0  0  0  0  0
   64.4343   31.6573   48.2083 H   0  0  0  0  0  0  0  0  0  0  0  0
   63.5249   32.7747   49.2367 H   0  0  0  0  0  0  0  0  0  0  0  0
   62.6185   30.2637   47.8683 H   0  0  0  0  0  0  0  0  0  0  0  0
   61.9157   31.0512   49.2867 H   0  0  0  0  0  0  0  0  0  0  0  0
  1  2  2  0
  2  3  1  0
  3  4  1  0
  4  5  1  0
  5  6  1  0
  5  7  2  0
  7  8  1  0
  8  9  2  0
  9 10  1  0
  8 11  1  0
 11 12  1  0
 12 13  2  0
 13 14  1  0
  2 15  1  0
 15 16  1  0
 16 17  2  0
 17 18  1  0
 18 19  2  0
 19 20  1  0
 20 21  2  0
 21 22  1  0
 22 23  2  0
 22 24  1  0
 24 25  1  0
 25 26  1  0
 26 27  1  0
 27 28  1  0
  9  4  1  0
 21 16  1  0
 28 24  1  0
 14  7  1  0
  3 29  1  0
  3 30  1  0
 11 31  1  0
 11 32  1  0
 12 33  1  0
 13 34  1  0
 14 35  1  0
 14 36  1  0
 17 37  1  0
 18 38  1  0
 19 39  1  0
 20 40  1  0
 25 41  1  0
 25 42  1  0
 26 43  1  0
 26 44  1  0
 27 45  1  0
 27 46  1  0
 28 47  1  0
 28 48  1  0
M  CHG  3   6  -1  10  -1  15  -1
M  END
>  <UniqueID>  (87) 
79

>  <SMILES>  (87) 
O=C(Cn1c([O-])c2c(c1[O-])CC=CC2)[N-]c1ccccc1C(=O)N1CCCC1

>  <Energy>  (87) 
89.54181538454615

>  <Genealogy>  (87) 
O=C(Cn1c([O-])c2c(c1[O-])CC=CC2)[N-]c1ccccc1C(=O)N1CCCC1 (protonated)
O=C(Cn1c([O-])c2c(c1[O-])CC=CC2)[N-]c1ccccc1C(=O)N1CCCC1 (3D coordinates assigned)
O=C(Cn1c([O-])c2c(c1[O-])CC=CC2)[N-]c1ccccc1C(=O)N1CCCC1 (nonaromatic ring conformer: 89.54181538454615 kcal/mol)

>  <smiles>  (87) 
O=C(Cn1c(O)c2c(c1O)CC=CC2)Nc1ccccc1C(=O)N1CCCC1

>  <score_type>  (87) 
oracle

>  <origin>  (87) 
adg

>  <m_score__min__energy>  (87) 
-14.470000000000001

>  <m_primary>  (87) 
energy

$$$$
87:0
     RDKit          3D

 51 54  0  0  0  0  0  0  0  0999 V2000
   57.4970   32.1510   51.6180 C   0  0  0  0  0  0  0  0  0  0  0  0
   57.8150   31.6270   50.3330 O   0  0  0  0  0  0  0  0  0  0  0  0
   58.6270   32.2750   49.3890 C   0  0  0  0  0  0  0  0  0  0  0  0
   59.9680   32.4940   49.7080 C   0  0  0  0  0  0  0  0  0  0  0  0
   60.8200   33.1280   48.8020 C   0  0  0  0  0  0  0  0  0  0  0  0
   60.3380   33.5620   47.5530 C   0  0  0  0  0  0  0  0  0  0  0  0
   61.1730   34.1970   46.6200 O   0  0  0  0  0  0  0  0  0  0  0  0
   62.5410   33.8670   46.4010 C   0  0  0  0  0  0  0  0  0  0  0  0
   58.9830   33.3500   47.2270 C   0  0  0  0  0  0  0  0  0  0  0  0
   58.3490   33.8340   45.6500 S   0  0  0  0  0  0  0  0  0  0  0  0
   56.8730   34.0980   45.7530 O   0  0  0  0  0  0  0  0  0  0  0  0
   59.0150   35.1000   45.1880 O   0  0  0  0  0  0  0  0  0  0  0  0
   58.6100   32.5510   44.5140 N   0  0  0  0  0  0  0  0  0  0  0  0
   58.1180   31.2280   44.7570 C   0  0  0  0  0  0  0  0  0  0  0  0
   58.8230   30.3730   45.6150 C   0  0  0  0  0  0  0  0  0  0  0  0
   58.3730   29.0680   45.8370 C   0  0  0  0  0  0  0  0  0  0  0  0
   57.2020   28.6050   45.2170 C   0  0  0  0  0  0  0  0  0  0  0  0
   56.7280   27.2260   45.4360 C   0  0  0  0  0  0  0  0  0  0  0  0
   57.4460   26.1210   45.1490 N   0  0  0  0  0  0  0  0  0  0  0  0
   56.5950   25.1410   45.5200 C   0  0  0  0  0  0  0  0  0  0  0  0
   56.9150   23.7050   45.4020 C   0  0  0  0  0  0  0  0  0  0  0  0
   57.3870   22.9230   46.4410 C   0  0  0  0  0  0  0  0  0  0  0  0
   57.5540   21.6510   45.9330 C   0  0  0  0  0  0  0  0  0  0  0  0
   57.1800   21.7020   44.6050 C   0  0  0  0  0  0  0  0  0  0  0  0
   56.7920   22.9520   44.2840 N   0  0  0  0  0  0  0  0  0  0  0  0
   56.3250   23.3750   42.9650 C   0  0  0  0  0  0  0  0  0  0  0  0
   55.4340   25.6260   46.0020 N   0  0  0  0  0  0  0  0  0  0  0  0
   55.5560   26.9170   45.9340 O   0  0  0  0  0  0  0  0  0  0  0  0
   56.4830   29.4730   44.3780 C   0  0  0  0  0  0  0  0  0  0  0  0
   56.9350   30.7750   44.1540 C   0  0  0  0  0  0  0  0  0  0  0  0
   58.1380   32.7020   48.1410 C   0  0  0  0  0  0  0  0  0  0  0  0
   57.9007   31.4857   52.3954 H   0  0  0  0  0  0  0  0  0  0  0  0
   57.9401   33.1520   51.7257 H   0  0  0  0  0  0  0  0  0  0  0  0
   56.4045   32.2201   51.7257 H   0  0  0  0  0  0  0  0  0  0  0  0
   60.3572   32.1639   50.6825 H   0  0  0  0  0  0  0  0  0  0  0  0
   61.8755   33.2895   49.0662 H   0  0  0  0  0  0  0  0  0  0  0  0
   63.0482   33.7446   47.3694 H   0  0  0  0  0  0  0  0  0  0  0  0
   62.6051   32.9276   45.8322 H   0  0  0  0  0  0  0  0  0  0  0  0
   63.0263   34.6738   45.8322 H   0  0  0  0  0  0  0  0  0  0  0  0
   58.7970   32.8350   43.5260 H   0  0  0  0  0  0  0  0  0  0  0  0
   59.7347   30.7303   46.1161 H   0  0  0  0  0  0  0  0  0  0  0  0
   58.9403   28.3999   46.5018 H   0  0  0  0  0  0  0  0  0  0  0  0
   57.5896   23.2512   47.4712 H   0  0  0  0  0  0  0  0  0  0  0  0
   57.9151   20.7676   46.4800 H   0  0  0  0  0  0  0  0  0  0  0  0
   57.1963   20.8484   43.9114 H   0  0  0  0  0  0  0  0  0  0  0  0
   55.5143   24.1093   43.0812 H   0  0  0  0  0  0  0  0  0  0  0  0
   57.1576   23.8327   42.4106 H   0  0  0  0  0  0  0  0  0  0  0  0
   55.9517   22.5013   42.4106 H   0  0  0  0  0  0  0  0  0  0  0  0
   55.5583   29.1247   43.8946 H   0  0  0  0  0  0  0  0  0  0  0  0
   56.3606   31.4490   43.5014 H   0  0  0  0  0  0  0  0  0  0  0  0
   57.0841   32.5264   47.8793 H   0  0  0  0  0  0  0  0  0  0  0  0
  1  2  1  0
  2  3  1  0
  3  4  2  0
  4  5  1  0
  5  6  2  0
  6  7  1  0
  7  8  1  0
  6  9  1  0
  9 10  1  0
 10 11  2  0
 10 12  2  0
 10 13  1  0
 13 14  1  0
 14 15  2  0
 15 16  1  0
 16 17  2  0
 17 18  1  0
 18 19  2  0
 19 20  1  0
 20 21  1  0
 21 22  2  0
 22 23  1  0
 23 24  2  0
 24 25  1  0
 25 26  1  0
 20 27  2  0
 27 28  1  0
 17 29  1  0
 29 30  2  0
  9 31  2  0
 31  3  1  0
 30 14  1  0
 28 18  1  0
 25 21  1  0
  1 32  1  0
  1 33  1  0
  1 34  1  0
  4 35  1  0
  5 36  1  0
  8 37  1  0
  8 38  1  0
  8 39  1  0
 13 40  1  0
 15 41  1  0
 16 42  1  0
 22 43  1  0
 23 44  1  0
 24 45  1  0
 26 46  1  0
 26 47  1  0
 26 48  1  0
 29 49  1  0
 30 50  1  0
 31 51  1  0
M  END
>  <UniqueID>  (88) 
80

>  <SMILES>  (88) 
COc1ccc(OC)c(S(=O)(=O)Nc2ccc(-c3nc(-c4cccn4C)no3)cc2)c1

>  <Energy>  (88) 
117.81030479874349

>  <Genealogy>  (88) 
COc1ccc(OC)c(S(=O)(=O)Nc2ccc(-c3nc(-c4cccn4C)no3)cc2)c1 (3D coordinates assigned)
COc1ccc(OC)c(S(=O)(=O)Nc2ccc(-c3nc(-c4cccn4C)no3)cc2)c1 (optimized conformer: 117.81030479874349 kcal/mol)

>  <smiles>  (88) 
COc1ccc(OC)c(S(=O)(=O)Nc2ccc(-c3nc(-c4cccn4C)no3)cc2)c1

>  <score_type>  (88) 
oracle

>  <origin>  (88) 
adg

>  <m_score__min__energy>  (88) 
-9.4399999999999995

>  <m_primary>  (88) 
energy

$$$$
88:0
     RDKit          3D

 38 40  0  0  0  0  0  0  0  0999 V2000
   64.8310   32.9000   50.2760 C   0  0  0  0  0  0  0  0  0  0  0  0
   63.9560   33.2960   49.3580 C   0  0  0  0  0  0  0  0  0  0  0  0
   62.6620   33.8160   49.6770 N   0  0  0  0  0  0  0  0  0  0  0  0
   62.1020   34.0970   48.5410 C   0  0  0  0  0  0  0  0  0  0  0  0
   60.6980   34.5980   48.4180 C   0  0  0  0  0  0  0  0  0  0  0  0
   59.9890   33.8730   47.3060 C   0  0  0  0  0  0  0  0  0  0  0  0
   59.5940   34.5630   46.1510 C   0  0  0  0  0  0  0  0  0  0  0  0
   58.9610   33.8830   45.1090 C   0  0  0  0  0  0  0  0  0  0  0  0
   58.7310   32.5090   45.2040 C   0  0  0  0  0  0  0  0  0  0  0  0
   59.1400   31.7950   46.3440 C   0  0  0  0  0  0  0  0  0  0  0  0
   58.9090   30.3360   46.4310 C   0  0  0  0  0  0  0  0  0  0  0  0
   59.1810   29.5740   47.8640 S   0  0  0  0  0  0  0  0  0  0  0  0
   58.6220   29.5750   45.2410 N   0  0  0  0  0  0  0  0  0  0  0  0
   58.0360   28.2620   45.2400 C   0  0  0  0  0  0  0  0  0  0  0  0
   58.8040   27.1200   44.9500 C   0  0  0  0  0  0  0  0  0  0  0  0
   58.2200   25.8490   44.9890 C   0  0  0  0  0  0  0  0  0  0  0  0
   56.8740   25.7070   45.3320 C   0  0  0  0  0  0  0  0  0  0  0  0
   56.1100   26.8350   45.6470 C   0  0  0  0  0  0  0  0  0  0  0  0
   54.7730   26.6920   46.0000 O   0  0  0  0  0  0  0  0  0  0  0  0
   56.6900   28.1070   45.6090 C   0  0  0  0  0  0  0  0  0  0  0  0
   59.7680   32.4890   47.3950 C   0  0  0  0  0  0  0  0  0  0  0  0
   62.9880   33.7500   47.4380 C   0  0  0  0  0  0  0  0  0  0  0  0
   62.7350   33.8710   46.2110 O   0  0  0  0  0  0  0  0  0  0  0  0
   64.1990   33.2360   47.9560 N   0  0  0  0  0  0  0  0  0  0  0  0
   65.8118   32.5084   49.9682 H   0  0  0  0  0  0  0  0  0  0  0  0
   64.5747   32.9637   51.3438 H   0  0  0  0  0  0  0  0  0  0  0  0
   60.1649   34.4242   49.3644 H   0  0  0  0  0  0  0  0  0  0  0  0
   60.7169   35.6746   48.1930 H   0  0  0  0  0  0  0  0  0  0  0  0
   59.7835   35.6432   46.0657 H   0  0  0  0  0  0  0  0  0  0  0  0
   58.6424   34.4313   44.2102 H   0  0  0  0  0  0  0  0  0  0  0  0
   58.2263   31.9816   44.3812 H   0  0  0  0  0  0  0  0  0  0  0  0
   58.8390   29.9930   44.3100 H   0  0  0  0  0  0  0  0  0  0  0  0
   59.8679   27.2264   44.6915 H   0  0  0  0  0  0  0  0  0  0  0  0
   58.8223   24.9603   44.7491 H   0  0  0  0  0  0  0  0  0  0  0  0
   56.4146   24.7078   45.3544 H   0  0  0  0  0  0  0  0  0  0  0  0
   56.0888   28.9906   45.8695 H   0  0  0  0  0  0  0  0  0  0  0  0
   60.0886   31.9425   48.2942 H   0  0  0  0  0  0  0  0  0  0  0  0
   65.0380   32.8840   47.4430 H   0  0  0  0  0  0  0  0  0  0  0  0
  1  2  2  0
  2  3  1  0
  3  4  2  0
  4  5  1  0
  5  6  1  0
  6  7  2  0
  7  8  1  0
  8  9  2  0
  9 10  1  0
 10 11  1  0
 11 12  2  0
 11 13  1  0
 13 14  1  0
 14 15  2  0
 15 16  1  0
 16 17  2  0
 17 18  1  0
 18 19  1  0
 18 20  2  0
 10 21  2  0
  4 22  1  0
 22 23  2  0
 22 24  1  0
 24  2  1  0
 21  6  1  0
 20 14  1  0
  1 25  1  0
  1 26  1  0
  5 27  1  0
  5 28  1  0
  7 29  1  0
  8 30  1  0
  9 31  1  0
 13 32  1  0
 15 33  1  0
 16 34  1  0
 17 35  1  0
 20 36  1  0
 21 37  1  0
 24 38  1  0
M  CHG  1  19  -1
M  END
>  <UniqueID>  (89) 
81

>  <SMILES>  (89) 
C=C1N=C(Cc2cccc(C(=S)Nc3cccc([O-])c3)c2)C(=O)N1

>  <Energy>  (89) 
74.97154846031341

>  <Genealogy>  (89) 
C=C1N=C(Cc2cccc(C(=S)Nc3cccc([O-])c3)c2)C(=O)N1 (protonated)
C=C1N=C(Cc2cccc(C(=S)Nc3cccc([O-])c3)c2)C(=O)N1 (3D coordinates assigned)
C=C1N=C(Cc2cccc(C(=S)Nc3cccc([O-])c3)c2)C(=O)N1 (nonaromatic ring conformer: 74.97154846031341 kcal/mol)

>  <smiles>  (89) 
C=C1N=C(Cc2cccc(C(=S)Nc3cccc(O)c3)c2)C(=O)N1

>  <score_type>  (89) 
oracle

>  <origin>  (89) 
adg

>  <m_score__min__energy>  (89) 
-12.279999999999999

>  <m_primary>  (89) 
energy

$$$$
