0:0
     RDKit          3D

 41 43  0  0  0  0  0  0  0  0999 V2000
   63.7890   33.1430   46.6940 C   0  0  0  0  0  0  0  0  0  0  0  0
   62.9420   33.3360   47.9200 C   0  0  0  0  0  0  0  0  0  0  0  0
   63.3680   32.8150   49.1530 C   0  0  0  0  0  0  0  0  0  0  0  0
   62.5870   32.9750   50.2990 C   0  0  0  0  0  0  0  0  0  0  0  0
   61.3580   33.6330   50.2180 C   0  0  0  0  0  0  0  0  0  0  0  0
   60.9150   34.1460   48.9970 C   0  0  0  0  0  0  0  0  0  0  0  0
   61.7100   34.0180   47.8410 C   0  0  0  0  0  0  0  0  0  0  0  0
   61.3010   34.5910   46.5920 N   0  0  0  0  0  0  0  0  0  0  0  0
   59.6580   34.8250   46.0950 S   0  0  0  0  0  0  0  0  0  0  0  0
   59.6150   35.8400   44.9910 O   0  0  0  0  0  0  0  0  0  0  0  0
   58.8650   35.3510   47.2610 O   0  0  0  0  0  0  0  0  0  0  0  0
   58.9750   33.3120   45.5120 C   0  0  0  0  0  0  0  0  0  0  0  0
   59.3750   32.1010   46.0890 C   0  0  0  0  0  0  0  0  0  0  0  0
   58.8660   30.8910   45.6070 C   0  0  0  0  0  0  0  0  0  0  0  0
   57.9650   30.8810   44.5270 C   0  0  0  0  0  0  0  0  0  0  0  0
   57.4240   29.6630   43.9880 N   0  0  0  0  0  0  0  0  0  0  0  0
   56.8170   28.5850   44.7160 C   0  0  0  0  0  0  0  0  0  0  0  0
   55.6810   28.7260   45.2410 O   0  0  0  0  0  0  0  0  0  0  0  0
   57.5730   27.3320   44.9080 C   0  0  0  0  0  0  0  0  0  0  0  0
   58.5910   27.1270   44.1960 O   0  0  0  0  0  0  0  0  0  0  0  0
   57.1900   26.3280   45.9240 C   0  0  0  0  0  0  0  0  0  0  0  0
   58.0590   25.6520   46.6960 N   0  0  0  0  0  0  0  0  0  0  0  0
   57.2690   24.8320   47.4200 C   0  0  0  0  0  0  0  0  0  0  0  0
   57.7280   24.0210   48.2670 O   0  0  0  0  0  0  0  0  0  0  0  0
   55.9490   24.9380   47.1560 N   0  0  0  0  0  0  0  0  0  0  0  0
   55.9140   25.8870   46.2080 C   0  0  0  0  0  0  0  0  0  0  0  0
   54.7420   26.3420   45.6120 O   0  0  0  0  0  0  0  0  0  0  0  0
   57.5420   32.0970   43.9800 C   0  0  0  0  0  0  0  0  0  0  0  0
   58.0480   33.3060   44.4640 C   0  0  0  0  0  0  0  0  0  0  0  0
   64.8207   32.9079   46.9944 H   0  0  0  0  0  0  0  0  0  0  0  0
   63.3836   32.3142   46.0950 H   0  0  0  0  0  0  0  0  0  0  0  0
   63.7827   34.0656   46.0950 H   0  0  0  0  0  0  0  0  0  0  0  0
   64.3250   32.2764   49.2161 H   0  0  0  0  0  0  0  0  0  0  0  0
   62.9393   32.5832   51.2646 H   0  0  0  0  0  0  0  0  0  0  0  0
   60.7370   33.7476   51.1186 H   0  0  0  0  0  0  0  0  0  0  0  0
   59.9404   34.6526   48.9376 H   0  0  0  0  0  0  0  0  0  0  0  0
   60.0915   32.1012   46.9236 H   0  0  0  0  0  0  0  0  0  0  0  0
   59.1715   29.9432   46.0743 H   0  0  0  0  0  0  0  0  0  0  0  0
   54.7630   27.1010   44.9400 H   0  0  0  0  0  0  0  0  0  0  0  0
   56.8056   32.1014   43.1628 H   0  0  0  0  0  0  0  0  0  0  0  0
   57.7166   34.2562   44.0198 H   0  0  0  0  0  0  0  0  0  0  0  0
  1  2  1  0
  2  3  2  0
  3  4  1  0
  4  5  2  0
  5  6  1  0
  6  7  2  0
  7  8  1  0
  8  9  1  0
  9 10  2  0
  9 11  2  0
  9 12  1  0
 12 13  2  0
 13 14  1  0
 14 15  2  0
 15 16  1  0
 16 17  1  0
 17 18  2  0
 17 19  1  0
 19 20  2  0
 19 21  1  0
 21 22  1  0
 22 23  1  0
 23 24  2  0
 23 25  1  0
 25 26  1  0
 26 27  1  0
 15 28  1  0
 28 29  2  0
  7  2  1  0
 29 12  1  0
 26 21  2  0
  1 30  1  0
  1 31  1  0
  1 32  1  0
  3 33  1  0
  4 34  1  0
  5 35  1  0
  6 36  1  0
 13 37  1  0
 14 38  1  0
 27 39  1  0
 28 40  1  0
 29 41  1  0
M  CHG  4   8  -1  16  -1  22  -1  25  -1
M  END
>  <UniqueID>  (1) 
1

>  <SMILES>  (1) 
Cc1ccccc1[N-]S(=O)(=O)c1ccc([N-]C(=O)C(=O)c2[n-]c(=O)[n-]c2O)cc1

>  <Energy>  (1) 
79.81918214489959

>  <Genealogy>  (1) 
Cc1ccccc1[N-]S(=O)(=O)c1ccc([N-]C(=O)C(=O)c2[n-]c(=O)[n-]c2O)cc1 (protonated)
Cc1ccccc1[N-]S(=O)(=O)c1ccc([N-]C(=O)C(=O)c2[n-]c(=O)[n-]c2O)cc1 (3D coordinates assigned)
Cc1ccccc1[N-]S(=O)(=O)c1ccc([N-]C(=O)C(=O)c2[n-]c(=O)[n-]c2O)cc1 (optimized conformer: 79.81918214489959 kcal/mol)

>  <smiles>  (1) 
Cc1ccccc1NS(=O)(=O)c1ccc(NC(=O)C(=O)c2[nH]c(=O)[nH]c2O)cc1

>  <score_type>  (1) 
oracle

>  <origin>  (1) 
adg

>  <m_score__min__energy>  (1) 
-16.120000000000001

>  <m_primary>  (1) 
energy

$$$$
1:0
     RDKit          3D

 35 37  0  0  0  0  0  0  0  0999 V2000
   59.1600   22.5930   45.2590 C   0  0  0  0  0  0  0  0  0  0  0  0
   58.8920   23.5820   46.2470 O   0  0  0  0  0  0  0  0  0  0  0  0
   58.3760   24.8570   45.9720 C   0  0  0  0  0  0  0  0  0  0  0  0
   56.9990   25.1440   46.0390 C   0  0  0  0  0  0  0  0  0  0  0  0
   56.5300   26.4290   45.7550 C   0  0  0  0  0  0  0  0  0  0  0  0
   57.4260   27.4520   45.4000 C   0  0  0  0  0  0  0  0  0  0  0  0
   56.9840   28.7570   45.1090 C   0  0  0  0  0  0  0  0  0  0  0  0
   55.7550   29.0390   45.1550 O   0  0  0  0  0  0  0  0  0  0  0  0
   57.9170   29.7470   44.7610 C   0  0  0  0  0  0  0  0  0  0  0  0
   57.3930   31.3870   44.3710 S   0  0  0  0  0  0  0  0  0  0  0  0
   55.9030   31.5180   44.5300 O   0  0  0  0  0  0  0  0  0  0  0  0
   57.7420   31.6960   42.9410 O   0  0  0  0  0  0  0  0  0  0  0  0
   58.1880   32.5190   45.4600 C   0  0  0  0  0  0  0  0  0  0  0  0
   58.3290   32.2210   46.8230 C   0  0  0  0  0  0  0  0  0  0  0  0
   58.9460   33.1360   47.6820 C   0  0  0  0  0  0  0  0  0  0  0  0
   59.4210   34.3530   47.1840 C   0  0  0  0  0  0  0  0  0  0  0  0
   59.2770   34.6570   45.8260 C   0  0  0  0  0  0  0  0  0  0  0  0
   58.6600   33.7430   44.9660 C   0  0  0  0  0  0  0  0  0  0  0  0
   59.2760   29.4120   44.7000 C   0  0  0  0  0  0  0  0  0  0  0  0
   59.6900   28.1490   44.9840 N   0  0  0  0  0  0  0  0  0  0  0  0
   58.8100   27.1680   45.3310 C   0  0  0  0  0  0  0  0  0  0  0  0
   59.2690   25.8730   45.6170 C   0  0  0  0  0  0  0  0  0  0  0  0
   59.4173   21.6434   45.7511 H   0  0  0  0  0  0  0  0  0  0  0  0
   58.2680   22.4507   44.6312 H   0  0  0  0  0  0  0  0  0  0  0  0
   60.0018   22.9205   44.6312 H   0  0  0  0  0  0  0  0  0  0  0  0
   56.2883   24.3516   46.3166 H   0  0  0  0  0  0  0  0  0  0  0  0
   55.4521   26.6416   45.8096 H   0  0  0  0  0  0  0  0  0  0  0  0
   57.9534   31.2653   47.2174 H   0  0  0  0  0  0  0  0  0  0  0  0
   59.0577   32.8981   48.7501 H   0  0  0  0  0  0  0  0  0  0  0  0
   59.9079   35.0714   47.8599 H   0  0  0  0  0  0  0  0  0  0  0  0
   59.6492   35.6153   45.4346 H   0  0  0  0  0  0  0  0  0  0  0  0
   58.5448   33.9852   43.8992 H   0  0  0  0  0  0  0  0  0  0  0  0
   60.0143   30.1778   44.4198 H   0  0  0  0  0  0  0  0  0  0  0  0
   60.7140   27.9410   44.9290 H   0  0  0  0  0  0  0  0  0  0  0  0
   60.3456   25.6542   45.5612 H   0  0  0  0  0  0  0  0  0  0  0  0
  1  2  1  0
  2  3  1  0
  3  4  2  0
  4  5  1  0
  5  6  2  0
  6  7  1  0
  7  8  2  0
  7  9  1  0
  9 10  1  0
 10 11  2  0
 10 12  2  0
 10 13  1  0
 13 14  2  0
 14 15  1  0
 15 16  2  0
 16 17  1  0
 17 18  2  0
  9 19  2  0
 19 20  1  0
 20 21  1  0
 21 22  2  0
 22  3  1  0
 21  6  1  0
 18 13  1  0
  1 23  1  0
  1 24  1  0
  1 25  1  0
  4 26  1  0
  5 27  1  0
 14 28  1  0
 15 29  1  0
 16 30  1  0
 17 31  1  0
 18 32  1  0
 19 33  1  0
 20 34  1  0
 22 35  1  0
M  END
>  <UniqueID>  (2) 
2

>  <SMILES>  (2) 
COc1ccc2c(=O)c(S(=O)(=O)c3ccccc3)c[nH]c2c1

>  <Energy>  (2) 
44.532164909158986

>  <Genealogy>  (2) 
COc1ccc2c(=O)c(S(=O)(=O)c3ccccc3)c[nH]c2c1 (3D coordinates assigned)
COc1ccc2c(=O)c(S(=O)(=O)c3ccccc3)c[nH]c2c1 (optimized conformer: 44.532164909158986 kcal/mol)

>  <smiles>  (2) 
COc1ccc2c(=O)c(S(=O)(=O)c3ccccc3)c[nH]c2c1

>  <score_type>  (2) 
oracle

>  <origin>  (2) 
adg

>  <m_score__min__energy>  (2) 
-7.8099999999999996

>  <m_primary>  (2) 
energy

$$$$
2:0
     RDKit          3D

 72 74  0  0  0  0  0  0  0  0999 V2000
   62.7740   33.8310   46.3620 C   0  0  0  0  0  0  0  0  0  0  0  0
   63.4620   33.1330   47.2580 C   0  0  0  0  0  0  0  0  0  0  0  0
   63.0340   33.0450   48.6960 C   0  0  0  0  0  0  0  0  0  0  0  0
   63.6050   31.9450   49.5400 C   0  0  0  0  0  0  0  0  0  0  0  0
   63.3900   31.8250   50.8590 C   0  0  0  0  0  0  0  0  0  0  0  0
   62.5940   30.7100   51.4180 C   0  0  0  0  0  0  0  0  0  0  0  0
   63.0140   29.3710   51.2940 C   0  0  0  0  0  0  0  0  0  0  0  0
   62.1950   28.3340   51.7520 C   0  0  0  0  0  0  0  0  0  0  0  0
   60.9610   28.6220   52.3360 C   0  0  0  0  0  0  0  0  0  0  0  0
   60.5470   29.9460   52.4880 C   0  0  0  0  0  0  0  0  0  0  0  0
   61.3680   30.9920   52.0490 C   0  0  0  0  0  0  0  0  0  0  0  0
   62.1740   34.0110   49.1470 C   0  0  0  0  0  0  0  0  0  0  0  0
   60.6840   33.9960   49.3480 C   0  0  0  0  0  0  0  0  0  0  0  0
   60.2380   33.8080   50.6050 C   0  0  0  0  0  0  0  0  0  0  0  0
   59.6640   33.9540   48.2390 C   0  0  0  0  0  0  0  0  0  0  0  0
   58.8000   32.8390   48.4590 O   0  0  0  0  0  0  0  0  0  0  0  0
   59.2880   31.5470   48.6540 C   0  0  0  0  0  0  0  0  0  0  0  0
   60.4230   31.1090   47.9540 C   0  0  0  0  0  0  0  0  0  0  0  0
   60.8590   29.7800   48.0730 C   0  0  0  0  0  0  0  0  0  0  0  0
   60.1490   28.8700   48.8690 C   0  0  0  0  0  0  0  0  0  0  0  0
   60.5750   27.4520   48.9160 C   0  0  0  0  0  0  0  0  0  0  0  0
   60.6160   26.6780   47.8290 C   0  0  0  0  0  0  0  0  0  0  0  0
   60.3410   27.1760   46.4620 C   0  0  0  0  0  0  0  0  0  0  0  0
   61.2960   27.1190   45.6230 O   0  0  0  0  0  0  0  0  0  0  0  0
   59.0190   27.6920   46.0260 C   0  0  0  0  0  0  0  0  0  0  0  0
   57.8700   26.9470   46.3420 C   0  0  0  0  0  0  0  0  0  0  0  0
   56.6010   27.3880   45.9740 C   0  0  0  0  0  0  0  0  0  0  0  0
   56.4540   28.5710   45.2510 C   0  0  0  0  0  0  0  0  0  0  0  0
   55.1740   28.9700   44.8760 O   0  0  0  0  0  0  0  0  0  0  0  0
   57.5800   29.3430   44.9100 C   0  0  0  0  0  0  0  0  0  0  0  0
   57.4110   30.5830   44.0550 C   0  0  0  0  0  0  0  0  0  0  0  0
   58.4010   31.6560   44.4450 C   0  0  0  0  0  0  0  0  0  0  0  0
   58.0520   32.8590   44.9480 C   0  0  0  0  0  0  0  0  0  0  0  0
   56.7150   33.0820   45.6130 C   0  0  0  0  0  0  0  0  0  0  0  0
   59.0090   34.0140   44.7880 C   0  0  0  0  0  0  0  0  0  0  0  0
   58.8580   28.9390   45.3770 C   0  0  0  0  0  0  0  0  0  0  0  0
   59.9710   29.7730   45.2270 O   0  0  0  0  0  0  0  0  0  0  0  0
   59.0400   29.3360   49.6070 C   0  0  0  0  0  0  0  0  0  0  0  0
   58.6220   30.6610   49.5030 C   0  0  0  0  0  0  0  0  0  0  0  0
   63.1162   33.8738   45.3175 H   0  0  0  0  0  0  0  0  0  0  0  0
   61.8619   34.3664   46.6643 H   0  0  0  0  0  0  0  0  0  0  0  0
   64.3718   32.6037   46.9384 H   0  0  0  0  0  0  0  0  0  0  0  0
   64.2379   31.1914   49.0485 H   0  0  0  0  0  0  0  0  0  0  0  0
   63.8163   32.5745   51.5420 H   0  0  0  0  0  0  0  0  0  0  0  0
   63.9874   29.1408   50.8363 H   0  0  0  0  0  0  0  0  0  0  0  0
   62.5243   27.2893   51.6516 H   0  0  0  0  0  0  0  0  0  0  0  0
   60.3120   27.8023   52.6779 H   0  0  0  0  0  0  0  0  0  0  0  0
   59.5751   30.1681   52.9529 H   0  0  0  0  0  0  0  0  0  0  0  0
   61.0542   32.0358   52.1976 H   0  0  0  0  0  0  0  0  0  0  0  0
   62.6578   34.9639   49.4076 H   0  0  0  0  0  0  0  0  0  0  0  0
   59.1571   33.7884   50.8079 H   0  0  0  0  0  0  0  0  0  0  0  0
   60.9547   33.6741   51.4286 H   0  0  0  0  0  0  0  0  0  0  0  0
   59.0767   34.8841   48.2398 H   0  0  0  0  0  0  0  0  0  0  0  0
   60.1687   33.8531   47.2669 H   0  0  0  0  0  0  0  0  0  0  0  0
   60.9732   31.8102   47.3094 H   0  0  0  0  0  0  0  0  0  0  0  0
   61.7625   29.4508   47.5389 H   0  0  0  0  0  0  0  0  0  0  0  0
   60.8689   27.0201   49.8840 H   0  0  0  0  0  0  0  0  0  0  0  0
   60.8672   25.6146   47.9556 H   0  0  0  0  0  0  0  0  0  0  0  0
   57.9747   25.9988   46.8897 H   0  0  0  0  0  0  0  0  0  0  0  0
   55.7133   26.8019   46.2543 H   0  0  0  0  0  0  0  0  0  0  0  0
   57.5693   30.3154   42.9999 H   0  0  0  0  0  0  0  0  0  0  0  0
   56.3947   30.9752   44.2079 H   0  0  0  0  0  0  0  0  0  0  0  0
   59.4719   31.4437   44.3107 H   0  0  0  0  0  0  0  0  0  0  0  0
   56.8409   33.0610   46.7056 H   0  0  0  0  0  0  0  0  0  0  0  0
   56.3128   34.0596   45.3090 H   0  0  0  0  0  0  0  0  0  0  0  0
   56.0173   32.2878   45.3090 H   0  0  0  0  0  0  0  0  0  0  0  0
   59.3118   34.3795   45.7803 H   0  0  0  0  0  0  0  0  0  0  0  0
   59.8981   33.6794   44.2335 H   0  0  0  0  0  0  0  0  0  0  0  0
   58.5149   34.8254   44.2335 H   0  0  0  0  0  0  0  0  0  0  0  0
   60.9280   29.4450   45.2080 H   0  0  0  0  0  0  0  0  0  0  0  0
   58.4998   28.6457   50.2715 H   0  0  0  0  0  0  0  0  0  0  0  0
   57.7623   31.0111   50.0932 H   0  0  0  0  0  0  0  0  0  0  0  0
  1  2  2  0
  2  3  1  0
  3  4  1  0
  4  5  2  3
  5  6  1  0
  6  7  2  0
  7  8  1  0
  8  9  2  0
  9 10  1  0
 10 11  2  0
  3 12  2  3
 12 13  1  0
 13 14  2  0
 13 15  1  0
 15 16  1  0
 16 17  1  0
 17 18  2  0
 18 19  1  0
 19 20  2  0
 20 21  1  0
 21 22  2  3
 22 23  1  0
 23 24  2  0
 23 25  1  0
 25 26  2  0
 26 27  1  0
 27 28  2  0
 28 29  1  0
 28 30  1  0
 30 31  1  0
 31 32  1  0
 32 33  2  3
 33 34  1  0
 33 35  1  0
 30 36  2  0
 36 37  1  0
 20 38  1  0
 38 39  2  0
 11  6  1  0
 39 17  1  0
 36 25  1  0
  1 40  1  0
  1 41  1  0
  2 42  1  0
  4 43  1  0
  5 44  1  0
  7 45  1  0
  8 46  1  0
  9 47  1  0
 10 48  1  0
 11 49  1  0
 12 50  1  0
 14 51  1  0
 14 52  1  0
 15 53  1  0
 15 54  1  0
 18 55  1  0
 19 56  1  0
 21 57  1  0
 22 58  1  0
 26 59  1  0
 27 60  1  0
 31 61  1  0
 31 62  1  0
 32 63  1  0
 34 64  1  0
 34 65  1  0
 34 66  1  0
 35 67  1  0
 35 68  1  0
 35 69  1  0
 37 70  1  0
 38 71  1  0
 39 72  1  0
M  CHG  1  29  -1
M  END
>  <UniqueID>  (3) 
3

>  <SMILES>  (3) 
C=CC(C=Cc1ccccc1)=CC(=C)COc1ccc(C=CC(=O)c2ccc([O-])c(CC=C(C)C)c2O)cc1

>  <Energy>  (3) 
112.08083695802793

>  <Genealogy>  (3) 
C=CC(C=Cc1ccccc1)=CC(=C)COc1ccc(C=CC(=O)c2ccc([O-])c(CC=C(C)C)c2O)cc1 (protonated)
C=CC(C=Cc1ccccc1)=CC(=C)COc1ccc(C=CC(=O)c2ccc([O-])c(CC=C(C)C)c2O)cc1 (3D coordinates assigned)
C=CC(C=Cc1ccccc1)=CC(=C)COc1ccc(C=CC(=O)c2ccc([O-])c(CC=C(C)C)c2O)cc1 (optimized conformer: 112.08083695802793 kcal/mol)

>  <smiles>  (3) 
C=CC(C=Cc1ccccc1)=CC(=C)COc1ccc(C=CC(=O)c2ccc(O)c(CC=C(C)C)c2O)cc1

>  <score_type>  (3) 
oracle

>  <origin>  (3) 
adg

>  <m_score__min__energy>  (3) 
-12.880000000000001

>  <m_primary>  (3) 
energy

$$$$
3:0
     RDKit          3D

 30 31  0  0  0  0  0  0  0  0999 V2000
   55.1390   26.5920   45.9960 N   0  0  0  0  0  0  0  0  0  0  0  0
   56.5590   26.6720   45.8910 C   0  0  0  0  0  0  0  0  0  0  0  0
   57.2200   25.6160   45.6900 O   0  0  0  0  0  0  0  0  0  0  0  0
   57.2520   27.9750   46.0170 C   0  0  0  0  0  0  0  0  0  0  0  0
   57.0620   28.9840   45.0570 C   0  0  0  0  0  0  0  0  0  0  0  0
   57.7150   30.2140   45.1780 C   0  0  0  0  0  0  0  0  0  0  0  0
   58.5710   30.4660   46.2650 C   0  0  0  0  0  0  0  0  0  0  0  0
   59.2830   31.7640   46.4080 C   0  0  0  0  0  0  0  0  0  0  0  0
   58.9170   32.8930   45.6620 C   0  0  0  0  0  0  0  0  0  0  0  0
   59.6240   34.0810   45.8490 C   0  0  0  0  0  0  0  0  0  0  0  0
   59.3110   35.1070   45.1890 O   0  0  0  0  0  0  0  0  0  0  0  0
   60.6480   34.1330   46.7450 N   0  0  0  0  0  0  0  0  0  0  0  0
   60.9910   33.0290   47.4770 C   0  0  0  0  0  0  0  0  0  0  0  0
   61.9600   33.0520   48.3450 N   0  0  0  0  0  0  0  0  0  0  0  0
   63.3820   32.8950   48.0480 C   0  0  0  0  0  0  0  0  0  0  0  0
   63.6760   33.4690   46.7000 C   0  0  0  0  0  0  0  0  0  0  0  0
   63.2730   34.5830   46.4020 O   0  0  0  0  0  0  0  0  0  0  0  0
   60.3050   31.8700   47.2990 N   0  0  0  0  0  0  0  0  0  0  0  0
   58.7700   29.4520   47.2180 C   0  0  0  0  0  0  0  0  0  0  0  0
   58.1160   28.2230   47.0970 C   0  0  0  0  0  0  0  0  0  0  0  0
   54.6280   27.0860   46.7610 H   0  0  0  0  0  0  0  0  0  0  0  0
   56.3931   28.8040   44.2025 H   0  0  0  0  0  0  0  0  0  0  0  0
   57.5579   30.9918   44.4162 H   0  0  0  0  0  0  0  0  0  0  0  0
   58.0870   32.8431   44.9419 H   0  0  0  0  0  0  0  0  0  0  0  0
   61.1560   35.0390   46.8600 H   0  0  0  0  0  0  0  0  0  0  0  0
   63.9759   33.4229   48.8087 H   0  0  0  0  0  0  0  0  0  0  0  0
   63.6423   31.8263   48.0560 H   0  0  0  0  0  0  0  0  0  0  0  0
   64.2585   32.8852   45.9721 H   0  0  0  0  0  0  0  0  0  0  0  0
   59.4470   29.6276   48.0671 H   0  0  0  0  0  0  0  0  0  0  0  0
   58.2791   27.4422   47.8545 H   0  0  0  0  0  0  0  0  0  0  0  0
  1  2  1  0
  2  3  2  0
  2  4  1  0
  4  5  2  0
  5  6  1  0
  6  7  2  0
  7  8  1  0
  8  9  2  0
  9 10  1  0
 10 11  2  0
 10 12  1  0
 12 13  1  0
 13 14  2  3
 14 15  1  0
 15 16  1  0
 16 17  2  0
 13 18  1  0
  7 19  1  0
 19 20  2  0
 20  4  1  0
 18  8  1  0
  1 21  1  0
  5 22  1  0
  6 23  1  0
  9 24  1  0
 12 25  1  0
 15 26  1  0
 15 27  1  0
 16 28  1  0
 19 29  1  0
 20 30  1  0
M  CHG  2   1  -1  18  -1
M  END
>  <UniqueID>  (4) 
4

>  <SMILES>  (4) 
[NH-]C(=O)c1ccc(-c2cc(=O)[nH]c(=NCC=O)[n-]2)cc1

>  <Energy>  (4) 
34.54727054148613

>  <Genealogy>  (4) 
[NH-]C(=O)c1ccc(-c2cc(=O)[nH]c(=NCC=O)[n-]2)cc1 (protonated)
[NH-]C(=O)c1ccc(-c2cc(=O)[nH]c(=NCC=O)[n-]2)cc1 (3D coordinates assigned)
[NH-]C(=O)c1ccc(-c2cc(=O)[nH]c(=NCC=O)[n-]2)cc1 (optimized conformer: 34.54727054148613 kcal/mol)

>  <smiles>  (4) 
NC(=O)c1ccc(-c2cc(=O)[nH]c(=NCC=O)[nH]2)cc1

>  <score_type>  (4) 
oracle

>  <origin>  (4) 
adg

>  <m_score__min__energy>  (4) 
-9.8399999999999999

>  <m_primary>  (4) 
energy

$$$$
4:0
     RDKit          3D

 41 44  0  0  0  0  0  0  0  0999 V2000
   57.0190   28.7360   42.6430 C   0  0  0  0  0  0  0  0  0  0  0  0
   57.4400   29.9080   43.4950 C   0  0  0  0  0  0  0  0  0  0  0  0
   58.1250   29.7400   44.6580 C   0  0  0  0  0  0  0  0  0  0  0  0
   58.5850   28.3880   45.0600 C   0  0  0  0  0  0  0  0  0  0  0  0
   59.8110   28.1070   44.9670 O   0  0  0  0  0  0  0  0  0  0  0  0
   57.6340   27.3430   45.5110 C   0  0  0  0  0  0  0  0  0  0  0  0
   58.1220   26.0910   45.9130 C   0  0  0  0  0  0  0  0  0  0  0  0
   57.2410   25.0900   46.3200 C   0  0  0  0  0  0  0  0  0  0  0  0
   55.8700   25.3490   46.3380 C   0  0  0  0  0  0  0  0  0  0  0  0
   55.0650   24.4500   46.7020 O   0  0  0  0  0  0  0  0  0  0  0  0
   55.4030   26.5730   45.9660 N   0  0  0  0  0  0  0  0  0  0  0  0
   56.2420   27.5690   45.5680 C   0  0  0  0  0  0  0  0  0  0  0  0
   55.7100   28.8140   45.2450 O   0  0  0  0  0  0  0  0  0  0  0  0
   58.6510   30.9780   45.3950 C   0  0  2  0  0  0  0  0  0  0  0  0
   58.8860   30.8230   46.8870 C   0  0  0  0  0  0  0  0  0  0  0  0
   58.7290   29.7220   47.4800 O   0  0  0  0  0  0  0  0  0  0  0  0
   59.2910   32.0260   47.6510 C   0  0  0  0  0  0  0  0  0  0  0  0
   59.9180   31.9090   48.9020 C   0  0  0  0  0  0  0  0  0  0  0  0
   60.3250   33.0520   49.5940 C   0  0  0  0  0  0  0  0  0  0  0  0
   60.1090   34.3180   49.0450 C   0  0  0  0  0  0  0  0  0  0  0  0
   59.4750   34.4480   47.8080 C   0  0  0  0  0  0  0  0  0  0  0  0
   59.0530   33.3070   47.1030 C   0  0  0  0  0  0  0  0  0  0  0  0
   58.3290   33.4300   45.8110 C   0  0  0  0  0  0  0  0  0  0  0  0
   58.1640   34.5630   45.2810 O   0  0  0  0  0  0  0  0  0  0  0  0
   57.7080   32.1900   45.1970 C   0  0  1  0  0  0  0  0  0  0  0  0
   57.3590   32.3520   43.7410 C   0  0  0  0  0  0  0  0  0  0  0  0
   57.1630   31.2730   42.9820 C   0  0  0  0  0  0  0  0  0  0  0  0
   56.7187   27.9001   43.2919 H   0  0  0  0  0  0  0  0  0  0  0  0
   56.1704   29.0304   42.0080 H   0  0  0  0  0  0  0  0  0  0  0  0
   57.8609   28.4231   42.0080 H   0  0  0  0  0  0  0  0  0  0  0  0
   59.2049   25.8980   45.9071 H   0  0  0  0  0  0  0  0  0  0  0  0
   57.6234   24.1045   46.6243 H   0  0  0  0  0  0  0  0  0  0  0  0
   54.3750   26.7590   45.9960 H   0  0  0  0  0  0  0  0  0  0  0  0
   59.6366   31.1344   44.9323 H   0  0  0  0  0  0  0  0  0  0  0  0
   60.0892   30.9139   49.3384 H   0  0  0  0  0  0  0  0  0  0  0  0
   60.8166   32.9549   50.5732 H   0  0  0  0  0  0  0  0  0  0  0  0
   60.4394   35.2152   49.5889 H   0  0  0  0  0  0  0  0  0  0  0  0
   59.3047   35.4481   47.3827 H   0  0  0  0  0  0  0  0  0  0  0  0
   56.7567   32.0178   45.7219 H   0  0  0  0  0  0  0  0  0  0  0  0
   57.2660   33.3575   43.3047 H   0  0  0  0  0  0  0  0  0  0  0  0
   56.7885   31.3972   41.9552 H   0  0  0  0  0  0  0  0  0  0  0  0
  1  2  1  0
  2  3  2  0
  3  4  1  0
  4  5  2  0
  4  6  1  0
  6  7  1  0
  7  8  2  0
  8  9  1  0
  9 10  2  0
  9 11  1  0
 11 12  1  0
 12 13  1  0
  3 14  1  0
 14 15  1  0
 15 16  2  0
 15 17  1  0
 17 18  2  0
 18 19  1  0
 19 20  2  0
 20 21  1  0
 21 22  2  0
 22 23  1  0
 23 24  2  0
 23 25  1  0
 25 26  1  0
 26 27  2  0
 27  2  1  0
 12  6  2  0
 25 14  1  0
 22 17  1  0
  1 28  1  0
  1 29  1  0
  1 30  1  0
  7 31  1  0
  8 32  1  0
 11 33  1  0
 14 34  1  6
 18 35  1  0
 19 36  1  0
 20 37  1  0
 21 38  1  0
 25 39  1  1
 26 40  1  0
 27 41  1  0
M  CHG  1  13  -1
M  END
>  <UniqueID>  (5) 
5

>  <SMILES>  (5) 
CC1=C(C(=O)c2ccc(=O)[nH]c2[O-])[C@@H]2C(=O)c3ccccc3C(=O)[C@H]2C=C1

>  <Energy>  (5) 
68.71826884553623

>  <Genealogy>  (5) 
CC1=C(C(=O)c2ccc(=O)[nH]c2[O-])C2C(=O)c3ccccc3C(=O)C2C=C1 (protonated)
CC1=C(C(=O)c2ccc(=O)[nH]c2[O-])[C@@H]2C(=O)c3ccccc3C(=O)[C@H]2C=C1 (chirality)
CC1=C(C(=O)c2ccc(=O)[nH]c2[O-])[C@@H]2C(=O)c3ccccc3C(=O)[C@H]2C=C1 (3D coordinates assigned)
CC1=C(C(=O)c2ccc(=O)[nH]c2[O-])[C@@H]2C(=O)c3ccccc3C(=O)[C@H]2C=C1 (nonaromatic ring conformer: 68.71826884553623 kcal/mol)

>  <smiles>  (5) 
CC1=C(C(=O)c2ccc(=O)[nH]c2O)C2C(=O)c3ccccc3C(=O)C2C=C1

>  <score_type>  (5) 
oracle

>  <origin>  (5) 
adg

>  <m_score__min__energy>  (5) 
-12.91

>  <m_primary>  (5) 
energy

$$$$
5:0
     RDKit          3D

 45 47  0  0  0  0  0  0  0  0999 V2000
   58.5660   34.7020   44.9610 C   0  0  0  0  0  0  0  0  0  0  0  0
   58.9720   33.6010   44.1560 O   0  0  0  0  0  0  0  0  0  0  0  0
   58.2140   32.4330   43.9610 C   0  0  0  0  0  0  0  0  0  0  0  0
   57.7450   32.0560   42.6870 C   0  0  0  0  0  0  0  0  0  0  0  0
   57.0010   30.8840   42.5270 C   0  0  0  0  0  0  0  0  0  0  0  0
   56.7180   30.0780   43.6290 C   0  0  0  0  0  0  0  0  0  0  0  0
   57.1760   30.4390   44.8970 C   0  0  0  0  0  0  0  0  0  0  0  0
   57.9220   31.6170   45.0740 C   0  0  0  0  0  0  0  0  0  0  0  0
   58.4270   31.9860   46.4470 C   0  0  0  0  0  0  0  0  0  0  0  0
   59.8240   31.5940   46.5950 N   0  0  0  0  0  0  0  0  0  0  0  0
   60.2430   30.2970   47.0360 C   0  0  0  0  0  0  0  0  0  0  0  0
   61.2340   30.1910   47.8070 O   0  0  0  0  0  0  0  0  0  0  0  0
   59.4820   29.0950   46.6100 C   0  0  0  0  0  0  0  0  0  0  0  0
   58.3840   28.6890   47.3910 C   0  0  0  0  0  0  0  0  0  0  0  0
   57.6490   27.5510   47.0600 C   0  0  0  0  0  0  0  0  0  0  0  0
   57.9940   26.7840   45.9410 C   0  0  0  0  0  0  0  0  0  0  0  0
   57.2120   25.5740   45.5860 C   0  0  0  0  0  0  0  0  0  0  0  0
   57.8820   24.3920   45.2230 C   0  0  0  0  0  0  0  0  0  0  0  0
   57.1620   23.2460   44.8760 C   0  0  0  0  0  0  0  0  0  0  0  0
   55.7650   23.2650   44.8910 C   0  0  0  0  0  0  0  0  0  0  0  0
   55.0500   22.1250   44.5450 O   0  0  0  0  0  0  0  0  0  0  0  0
   55.0860   24.4310   45.2580 C   0  0  0  0  0  0  0  0  0  0  0  0
   55.8010   25.5810   45.6100 C   0  0  0  0  0  0  0  0  0  0  0  0
   55.1000   26.7170   46.0020 O   0  0  0  0  0  0  0  0  0  0  0  0
   59.0750   27.1870   45.1420 C   0  0  0  0  0  0  0  0  0  0  0  0
   59.8170   28.3400   45.4540 C   0  0  0  0  0  0  0  0  0  0  0  0
   60.9480   28.7340   44.5380 C   0  0  0  0  0  0  0  0  0  0  0  0
   58.6644   34.4352   46.0236 H   0  0  0  0  0  0  0  0  0  0  0  0
   59.2026   35.5716   44.7408 H   0  0  0  0  0  0  0  0  0  0  0  0
   57.5172   34.9502   44.7408 H   0  0  0  0  0  0  0  0  0  0  0  0
   57.9656   32.6875   41.8138 H   0  0  0  0  0  0  0  0  0  0  0  0
   56.6377   30.5966   41.5293 H   0  0  0  0  0  0  0  0  0  0  0  0
   56.1326   29.1558   43.4988 H   0  0  0  0  0  0  0  0  0  0  0  0
   56.9519   29.7981   45.7625 H   0  0  0  0  0  0  0  0  0  0  0  0
   58.3387   33.0736   46.5859 H   0  0  0  0  0  0  0  0  0  0  0  0
   57.8257   31.4594   47.2028 H   0  0  0  0  0  0  0  0  0  0  0  0
   58.1012   29.2781   48.2759 H   0  0  0  0  0  0  0  0  0  0  0  0
   56.7922   27.2540   47.6826 H   0  0  0  0  0  0  0  0  0  0  0  0
   58.9817   24.3695   45.2122 H   0  0  0  0  0  0  0  0  0  0  0  0
   57.6957   22.3275   44.5906 H   0  0  0  0  0  0  0  0  0  0  0  0
   53.9861   24.4442   45.2700 H   0  0  0  0  0  0  0  0  0  0  0  0
   59.3462   26.5916   44.2577 H   0  0  0  0  0  0  0  0  0  0  0  0
   61.8180   29.0371   45.1390 H   0  0  0  0  0  0  0  0  0  0  0  0
   61.2210   27.8780   43.9034 H   0  0  0  0  0  0  0  0  0  0  0  0
   60.6301   29.5743   43.9034 H   0  0  0  0  0  0  0  0  0  0  0  0
  1  2  1  0
  2  3  1  0
  3  4  2  0
  4  5  1  0
  5  6  2  0
  6  7  1  0
  7  8  2  0
  8  9  1  0
  9 10  1  0
 10 11  1  0
 11 12  2  0
 11 13  1  0
 13 14  2  0
 14 15  1  0
 15 16  2  0
 16 17  1  0
 17 18  2  0
 18 19  1  0
 19 20  2  0
 20 21  1  0
 20 22  1  0
 22 23  2  0
 23 24  1  0
 16 25  1  0
 25 26  2  0
 26 27  1  0
  8  3  1  0
 26 13  1  0
 23 17  1  0
  1 28  1  0
  1 29  1  0
  1 30  1  0
  4 31  1  0
  5 32  1  0
  6 33  1  0
  7 34  1  0
  9 35  1  0
  9 36  1  0
 14 37  1  0
 15 38  1  0
 18 39  1  0
 19 40  1  0
 22 41  1  0
 25 42  1  0
 27 43  1  0
 27 44  1  0
 27 45  1  0
M  CHG  3  10  -1  21  -1  24  -1
M  END
>  <UniqueID>  (6) 
6

>  <SMILES>  (6) 
COc1ccccc1C[N-]C(=O)c1ccc(-c2ccc([O-])cc2[O-])cc1C

>  <Energy>  (6) 
56.10390629049751

>  <Genealogy>  (6) 
COc1ccccc1C[N-]C(=O)c1ccc(-c2ccc([O-])cc2[O-])cc1C (protonated)
COc1ccccc1C[N-]C(=O)c1ccc(-c2ccc([O-])cc2[O-])cc1C (3D coordinates assigned)
COc1ccccc1C[N-]C(=O)c1ccc(-c2ccc([O-])cc2[O-])cc1C (optimized conformer: 56.10390629049751 kcal/mol)

>  <smiles>  (6) 
COc1ccccc1CNC(=O)c1ccc(-c2ccc(O)cc2O)cc1C

>  <score_type>  (6) 
oracle

>  <origin>  (6) 
adg

>  <m_score__min__energy>  (6) 
-14.66

>  <m_primary>  (6) 
energy

$$$$
6:0
     RDKit          3D

 34 36  0  0  0  0  0  0  0  0999 V2000
   58.3649   34.0899   45.5080 H   0  0  0  0  0  0  0  0  0  0  0  0
   58.0680   33.2770   44.8290 C   0  0  0  0  0  0  0  0  0  0  0  0
   58.3990   33.3380   43.5120 N   0  0  0  0  0  0  0  0  0  0  0  0
   58.0440   32.3560   42.6430 C   0  0  0  0  0  0  0  0  0  0  0  0
   58.3226   32.4352   41.5818 H   0  0  0  0  0  0  0  0  0  0  0  0
   57.3260   31.2460   43.0940 C   0  0  0  0  0  0  0  0  0  0  0  0
   57.0223   30.4598   42.3871 H   0  0  0  0  0  0  0  0  0  0  0  0
   56.9950   31.1390   44.4490 C   0  0  0  0  0  0  0  0  0  0  0  0
   56.2260   30.0050   44.8860 N   0  0  0  0  0  0  0  0  0  0  0  0
   56.6360   28.7750   44.9890 C   0  0  0  0  0  0  0  0  0  0  0  0
   57.8500   28.4390   44.4810 N   0  0  0  0  0  0  0  0  0  0  0  0
   58.3340   27.1750   44.5900 C   0  0  0  0  0  0  0  0  0  0  0  0
   59.3134   26.9240   44.1566 H   0  0  0  0  0  0  0  0  0  0  0  0
   57.5910   26.1900   45.2520 C   0  0  0  0  0  0  0  0  0  0  0  0
   58.1230   24.8150   45.3720 C   0  0  0  0  0  0  0  0  0  0  0  0
   59.2710   24.6500   45.8700 O   0  0  0  0  0  0  0  0  0  0  0  0
   57.3600   23.6670   44.9500 N   0  0  0  0  0  0  0  0  0  0  0  0
   57.0290   23.5380   43.5170 C   0  0  0  0  0  0  0  0  0  0  0  0
   57.9659   23.4866   42.9429 H   0  0  0  0  0  0  0  0  0  0  0  0
   56.4262   24.4141   43.2356 H   0  0  0  0  0  0  0  0  0  0  0  0
   56.2140   22.3120   43.2170 C   0  0  0  0  0  0  0  0  0  0  0  0
   55.5660   22.2370   42.1400 O   0  0  0  0  0  0  0  0  0  0  0  0
   56.1900   21.2180   44.1320 N   0  0  0  0  0  0  0  0  0  0  0  0
   56.9940   21.2610   45.3420 C   0  0  0  0  0  0  0  0  0  0  0  0
   58.0375   21.0121   45.0986 H   0  0  0  0  0  0  0  0  0  0  0  0
   56.6049   20.5325   46.0685 H   0  0  0  0  0  0  0  0  0  0  0  0
   56.9310   22.6630   45.9410 C   0  0  0  0  0  0  0  0  0  0  0  0
   57.5943   22.7126   46.8172 H   0  0  0  0  0  0  0  0  0  0  0  0
   55.8938   22.8768   46.2384 H   0  0  0  0  0  0  0  0  0  0  0  0
   56.3310   26.5520   45.7570 C   0  0  0  0  0  0  0  0  0  0  0  0
   55.5890   25.6990   46.3150 O   0  0  0  0  0  0  0  0  0  0  0  0
   55.8910   27.8300   45.6250 N   0  0  0  0  0  0  0  0  0  0  0  0
   57.3510   32.1830   45.3220 C   0  0  0  0  0  0  0  0  0  0  0  0
   57.0675   32.1388   46.3839 H   0  0  0  0  0  0  0  0  0  0  0  0
  1  2  1  0
  2  3  2  0
  3  4  1  0
  4  5  1  0
  4  6  2  0
  6  7  1  0
  6  8  1  0
  8  9  1  0
  9 10  2  0
 10 11  1  0
 11 12  1  0
 12 13  1  0
 12 14  2  0
 14 15  1  0
 15 16  2  0
 15 17  1  0
 17 18  1  0
 18 19  1  0
 18 20  1  0
 18 21  1  0
 21 22  2  0
 21 23  1  0
 23 24  1  0
 24 25  1  0
 24 26  1  0
 24 27  1  0
 27 28  1  0
 27 29  1  0
 14 30  1  0
 30 31  2  0
 30 32  1  0
  8 33  2  0
 33 34  1  0
 33  2  1  0
 32 10  1  0
 27 17  1  0
M  CHG  3  11  -1  23  -1  32  -1
M  END
>  <UniqueID>  (7) 
7

>  <SMILES>  (7) 
O=C1CN(C(=O)c2c[n-]/c(=N/c3ccncc3)[n-]c2=O)CC[N-]1

>  <Energy>  (7) 
50.492060375391524

>  <Genealogy>  (7) 
O=C1CN(C(=O)c2c[n-]c(=Nc3ccncc3)[n-]c2=O)CC[N-]1 (protonated)
O=C1CN(C(=O)c2c[n-]/c(=N/c3ccncc3)[n-]c2=O)CC[N-]1 (cis-trans isomerization)
O=C1CN(C(=O)c2c[n-]/c(=N/c3ccncc3)[n-]c2=O)CC[N-]1 (3D coordinates assigned)
O=C1CN(C(=O)c2c[n-]/c(=N/c3ccncc3)[n-]c2=O)CC[N-]1 (nonaromatic ring conformer: 50.492060375391524 kcal/mol)

>  <smiles>  (7) 
O=C1CN(C(=O)c2c[nH]c(=Nc3ccncc3)[nH]c2=O)CCN1

>  <score_type>  (7) 
oracle

>  <origin>  (7) 
adg

>  <m_score__min__energy>  (7) 
-12.09

>  <m_primary>  (7) 
energy

$$$$
7:0
     RDKit          3D

 42 45  0  0  0  0  0  0  0  0999 V2000
   56.9740   30.9330   43.2340 O   0  0  0  0  0  0  0  0  0  0  0  0
   57.3820   30.7420   44.4110 C   0  0  0  0  0  0  0  0  0  0  0  0
   57.5570   29.3550   44.8920 C   0  0  0  0  0  0  0  0  0  0  0  0
   58.8530   28.8550   45.0890 C   0  0  0  0  0  0  0  0  0  0  0  0
   59.0460   27.5530   45.5540 C   0  0  0  0  0  0  0  0  0  0  0  0
   57.9480   26.7320   45.8170 C   0  0  0  0  0  0  0  0  0  0  0  0
   56.6420   27.2050   45.6020 C   0  0  0  0  0  0  0  0  0  0  0  0
   55.4900   26.3870   45.8540 N   0  0  0  0  0  0  0  0  0  0  0  0
   55.5260   24.7580   46.4450 S   0  0  0  0  0  0  0  0  0  0  0  0
   56.2920   24.7090   47.7370 O   0  0  0  0  0  0  0  0  0  0  0  0
   54.1160   24.2800   46.6600 O   0  0  0  0  0  0  0  0  0  0  0  0
   56.3170   23.7060   45.2690 C   0  0  0  0  0  0  0  0  0  0  0  0
   56.0650   23.8620   43.8970 C   0  0  0  0  0  0  0  0  0  0  0  0
   56.6990   23.0330   42.9660 C   0  0  0  0  0  0  0  0  0  0  0  0
   57.5890   22.0470   43.3950 C   0  0  0  0  0  0  0  0  0  0  0  0
   57.8480   21.8850   44.7590 C   0  0  0  0  0  0  0  0  0  0  0  0
   57.2160   22.7110   45.6970 C   0  0  0  0  0  0  0  0  0  0  0  0
   57.4910   22.5390   47.0490 O   0  0  0  0  0  0  0  0  0  0  0  0
   56.4500   28.5120   45.1270 C   0  0  0  0  0  0  0  0  0  0  0  0
   55.1560   28.9640   44.8790 O   0  0  0  0  0  0  0  0  0  0  0  0
   57.6720   31.9130   45.2620 C   0  0  0  0  0  0  0  0  0  0  0  0
   56.9000   33.0700   45.3360 C   0  0  0  0  0  0  0  0  0  0  0  0
   57.4520   33.9560   46.1940 N   0  0  0  0  0  0  0  0  0  0  0  0
   58.5740   33.3800   46.6540 C   0  0  0  0  0  0  0  0  0  0  0  0
   59.4990   33.9310   47.5420 C   0  0  0  0  0  0  0  0  0  0  0  0
   60.6360   33.1710   47.8650 C   0  0  0  0  0  0  0  0  0  0  0  0
   60.8310   31.8970   47.2890 C   0  0  0  0  0  0  0  0  0  0  0  0
   59.8860   31.3670   46.3920 C   0  0  0  0  0  0  0  0  0  0  0  0
   58.7510   32.1330   46.1060 C   0  0  0  0  0  0  0  0  0  0  0  0
   59.7230   29.4934   44.8756 H   0  0  0  0  0  0  0  0  0  0  0  0
   60.0659   27.1730   45.7136 H   0  0  0  0  0  0  0  0  0  0  0  0
   58.1055   25.7107   46.1940 H   0  0  0  0  0  0  0  0  0  0  0  0
   55.3665   24.6389   43.5529 H   0  0  0  0  0  0  0  0  0  0  0  0
   56.4956   23.1584   41.8923 H   0  0  0  0  0  0  0  0  0  0  0  0
   58.0865   21.3975   42.6597 H   0  0  0  0  0  0  0  0  0  0  0  0
   58.5493   21.1075   45.0962 H   0  0  0  0  0  0  0  0  0  0  0  0
   55.9698   33.2391   44.7738 H   0  0  0  0  0  0  0  0  0  0  0  0
   57.0840   34.9040   46.4360 H   0  0  0  0  0  0  0  0  0  0  0  0
   59.3428   34.9297   47.9758 H   0  0  0  0  0  0  0  0  0  0  0  0
   61.3786   33.5712   48.5710 H   0  0  0  0  0  0  0  0  0  0  0  0
   61.7287   31.3144   47.5436 H   0  0  0  0  0  0  0  0  0  0  0  0
   60.0350   30.3802   45.9295 H   0  0  0  0  0  0  0  0  0  0  0  0
  1  2  2  0
  2  3  1  0
  3  4  2  0
  4  5  1  0
  5  6  2  0
  6  7  1  0
  7  8  1  0
  8  9  1  0
  9 10  2  0
  9 11  2  0
  9 12  1  0
 12 13  2  0
 13 14  1  0
 14 15  2  0
 15 16  1  0
 16 17  2  0
 17 18  1  0
  7 19  2  0
 19 20  1  0
  2 21  1  0
 21 22  2  0
 22 23  1  0
 23 24  1  0
 24 25  2  0
 25 26  1  0
 26 27  2  0
 27 28  1  0
 28 29  2  0
 19  3  1  0
 29 21  1  0
 17 12  1  0
 29 24  1  0
  4 30  1  0
  5 31  1  0
  6 32  1  0
 13 33  1  0
 14 34  1  0
 15 35  1  0
 16 36  1  0
 22 37  1  0
 23 38  1  0
 25 39  1  0
 26 40  1  0
 27 41  1  0
 28 42  1  0
M  CHG  3   8  -1  18  -1  20  -1
M  END
>  <UniqueID>  (8) 
8

>  <SMILES>  (8) 
O=C(c1cccc([N-]S(=O)(=O)c2ccccc2[O-])c1[O-])c1c[nH]c2ccccc12

>  <Energy>  (8) 
92.26941141752489

>  <Genealogy>  (8) 
O=C(c1cccc([N-]S(=O)(=O)c2ccccc2[O-])c1[O-])c1c[nH]c2ccccc12 (protonated)
O=C(c1cccc([N-]S(=O)(=O)c2ccccc2[O-])c1[O-])c1c[nH]c2ccccc12 (3D coordinates assigned)
O=C(c1cccc([N-]S(=O)(=O)c2ccccc2[O-])c1[O-])c1c[nH]c2ccccc12 (optimized conformer: 92.26941141752489 kcal/mol)

>  <smiles>  (8) 
O=C(c1cccc(NS(=O)(=O)c2ccccc2O)c1O)c1c[nH]c2ccccc12

>  <score_type>  (8) 
oracle

>  <origin>  (8) 
adg

>  <m_score__min__energy>  (8) 
-17.079999999999998

>  <m_primary>  (8) 
energy

$$$$
8:0
     RDKit          3D

 59 62  0  0  0  0  0  0  0  0999 V2000
   57.7400   29.9230   44.8600 C   0  0  0  0  0  0  0  0  0  0  0  0
   58.0970   29.5000   46.0850 C   0  0  0  0  0  0  0  0  0  0  0  0
   58.2020   28.1640   46.4910 C   0  0  0  0  0  0  0  0  0  0  0  0
   58.0230   27.0610   45.7350 C   0  0  0  0  0  0  0  0  0  0  0  0
   57.3000   25.8540   46.1870 C   0  0  0  0  0  0  0  0  0  0  0  0
   57.8780   24.7210   46.6270 N   0  0  0  0  0  0  0  0  0  0  0  0
   56.8290   23.9520   46.9890 C   0  0  0  0  0  0  0  0  0  0  0  0
   56.9680   22.7910   47.4550 O   0  0  0  0  0  0  0  0  0  0  0  0
   55.6190   24.5290   46.8190 N   0  0  0  0  0  0  0  0  0  0  0  0
   55.9360   25.7360   46.3240 C   0  0  0  0  0  0  0  0  0  0  0  0
   55.0000   26.7130   46.0070 O   0  0  0  0  0  0  0  0  0  0  0  0
   58.5820   28.1940   47.8230 C   0  0  0  0  0  0  0  0  0  0  0  0
   58.6510   29.5190   48.1890 C   0  0  0  0  0  0  0  0  0  0  0  0
   59.1300   29.9850   49.5050 C   0  0  0  0  0  0  0  0  0  0  0  0
   60.3740   30.1440   49.6400 O   0  0  0  0  0  0  0  0  0  0  0  0
   58.2480   30.3320   50.6110 N   0  0  0  0  0  0  0  0  0  0  0  0
   58.7510   30.0090   51.9710 C   0  0  0  0  0  0  0  0  0  0  0  0
   59.7440   31.0470   52.5290 C   0  0  0  0  0  0  0  0  0  0  0  0
   59.2160   32.4200   52.4160 N   0  0  0  0  0  0  0  0  0  0  0  0
   60.2100   33.3840   52.9390 C   0  0  0  0  0  0  0  0  0  0  0  0
   61.3780   33.5620   51.9580 C   0  0  0  0  0  0  0  0  0  0  0  0
   62.6820   33.0260   52.5470 C   0  0  0  0  0  0  0  0  0  0  0  0
   58.8880   32.7060   51.0080 C   0  0  0  0  0  0  0  0  0  0  0  0
   57.8030   31.7390   50.5280 C   0  0  0  0  0  0  0  0  0  0  0  0
   58.4000   30.3210   47.1270 N   0  0  0  0  0  0  0  0  0  0  0  0
   58.5180   31.7890   47.1280 C   0  0  0  0  0  0  0  0  0  0  0  0
   59.9210   32.2150   47.4640 C   0  0  0  0  0  0  0  0  0  0  0  0
   60.1520   33.4220   48.1460 C   0  0  0  0  0  0  0  0  0  0  0  0
   61.4530   33.7980   48.4940 C   0  0  0  0  0  0  0  0  0  0  0  0
   62.5340   32.9790   48.1530 C   0  0  0  0  0  0  0  0  0  0  0  0
   64.1630   33.4460   48.6010 Cl  0  0  0  0  0  0  0  0  0  0  0  0
   62.3140   31.7870   47.4570 C   0  0  0  0  0  0  0  0  0  0  0  0
   61.0150   31.4060   47.1120 C   0  0  0  0  0  0  0  0  0  0  0  0
   57.6881   31.0002   44.6436 H   0  0  0  0  0  0  0  0  0  0  0  0
   57.4998   29.1919   44.0740 H   0  0  0  0  0  0  0  0  0  0  0  0
   58.4417   27.0601   44.7178 H   0  0  0  0  0  0  0  0  0  0  0  0
   58.7889   27.3252   48.4651 H   0  0  0  0  0  0  0  0  0  0  0  0
   57.3900   29.7450   50.4720 H   0  0  0  0  0  0  0  0  0  0  0  0
   57.8908   29.9497   52.6540 H   0  0  0  0  0  0  0  0  0  0  0  0
   59.2936   29.0552   51.8940 H   0  0  0  0  0  0  0  0  0  0  0  0
   59.9350   30.8242   53.5891 H   0  0  0  0  0  0  0  0  0  0  0  0
   60.6717   30.9859   51.9411 H   0  0  0  0  0  0  0  0  0  0  0  0
   59.7199   34.3565   53.0941 H   0  0  0  0  0  0  0  0  0  0  0  0
   60.6075   32.9951   53.8881 H   0  0  0  0  0  0  0  0  0  0  0  0
   61.1529   33.0166   51.0296 H   0  0  0  0  0  0  0  0  0  0  0  0
   61.5027   34.6362   51.7568 H   0  0  0  0  0  0  0  0  0  0  0  0
   62.6252   33.0494   53.6453 H   0  0  0  0  0  0  0  0  0  0  0  0
   62.8384   31.9907   52.2099 H   0  0  0  0  0  0  0  0  0  0  0  0
   63.5213   33.6521   52.2099 H   0  0  0  0  0  0  0  0  0  0  0  0
   58.5224   33.7397   50.9198 H   0  0  0  0  0  0  0  0  0  0  0  0
   59.7892   32.5806   50.3898 H   0  0  0  0  0  0  0  0  0  0  0  0
   56.9085   31.8674   51.1551 H   0  0  0  0  0  0  0  0  0  0  0  0
   57.5825   31.9670   49.4747 H   0  0  0  0  0  0  0  0  0  0  0  0
   58.2544   32.1721   46.1311 H   0  0  0  0  0  0  0  0  0  0  0  0
   57.8357   32.1957   47.8890 H   0  0  0  0  0  0  0  0  0  0  0  0
   59.3054   34.0739   48.4072 H   0  0  0  0  0  0  0  0  0  0  0  0
   61.6264   34.7390   49.0366 H   0  0  0  0  0  0  0  0  0  0  0  0
   63.1653   31.1477   47.1804 H   0  0  0  0  0  0  0  0  0  0  0  0
   60.8476   30.4681   46.5621 H   0  0  0  0  0  0  0  0  0  0  0  0
  1  2  2  0
  2  3  1  0
  3  4  2  3
  4  5  1  0
  5  6  1  0
  6  7  1  0
  7  8  2  0
  7  9  1  0
  9 10  1  0
 10 11  1  0
  3 12  1  0
 12 13  2  0
 13 14  1  0
 14 15  2  0
 14 16  1  0
 16 17  1  0
 17 18  1  0
 18 19  1  0
 19 20  1  0
 20 21  1  0
 21 22  1  0
 19 23  1  0
 23 24  1  0
 13 25  1  0
 25 26  1  0
 26 27  1  0
 27 28  2  0
 28 29  1  0
 29 30  2  0
 30 31  1  0
 30 32  1  0
 32 33  2  0
 25  2  1  0
 33 27  1  0
 10  5  2  0
 24 16  1  0
  1 34  1  0
  1 35  1  0
  4 36  1  0
 12 37  1  0
 16 38  1  0
 17 39  1  0
 17 40  1  0
 18 41  1  0
 18 42  1  0
 20 43  1  0
 20 44  1  0
 21 45  1  0
 21 46  1  0
 22 47  1  0
 22 48  1  0
 22 49  1  0
 23 50  1  0
 23 51  1  0
 24 52  1  0
 24 53  1  0
 26 54  1  0
 26 55  1  0
 28 56  1  0
 29 57  1  0
 32 58  1  0
 33 59  1  0
M  CHG  4   6  -1   9  -1  11  -1  16   1
M  END
>  <UniqueID>  (9) 
9

>  <SMILES>  (9) 
C=c1c(=Cc2[n-]c(=O)[n-]c2[O-])cc(C(=O)[NH+]2CCN(CCC)CC2)n1Cc1ccc(Cl)cc1

>  <Energy>  (9) 
135.29648917993842

>  <Genealogy>  (9) 
C=c1c(=Cc2[n-]c(=O)[n-]c2[O-])cc(C(=O)[NH+]2CCN(CCC)CC2)n1Cc1ccc(Cl)cc1 (protonated)
C=c1c(=Cc2[n-]c(=O)[n-]c2[O-])cc(C(=O)[NH+]2CCN(CCC)CC2)n1Cc1ccc(Cl)cc1 (3D coordinates assigned)
C=c1c(=Cc2[n-]c(=O)[n-]c2[O-])cc(C(=O)[NH+]2CCN(CCC)CC2)n1Cc1ccc(Cl)cc1 (nonaromatic ring conformer: 135.29648917993842 kcal/mol)

>  <smiles>  (9) 
C=c1c(=Cc2[nH]c(=O)[nH]c2O)cc(C(=O)N2CCN(CCC)CC2)n1Cc1ccc(Cl)cc1

>  <score_type>  (9) 
oracle

>  <origin>  (9) 
adg

>  <m_score__min__energy>  (9) 
-15.24

>  <m_primary>  (9) 
energy

$$$$
9:0
     RDKit          3D

 35 37  0  0  0  0  0  0  0  0999 V2000
   59.0710   33.3750   47.4420 O   0  0  0  0  0  0  0  0  0  0  0  0
   60.1080   33.8220   46.8850 C   0  0  0  0  0  0  0  0  0  0  0  0
   60.0130   34.7900   45.7720 C   0  0  0  0  0  0  0  0  0  0  0  0
   58.3030   34.7890   45.1670 S   0  0  0  0  0  0  0  0  0  0  0  0
   57.8300   33.1880   44.5330 C   0  0  0  0  0  0  0  0  0  0  0  0
   57.7860   33.0450   43.1890 N   0  0  0  0  0  0  0  0  0  0  0  0
   57.4420   31.8800   42.6270 C   0  0  0  0  0  0  0  0  0  0  0  0
   57.3890   31.7050   41.3700 O   0  0  0  0  0  0  0  0  0  0  0  0
   57.1200   30.7870   43.4050 C   0  0  0  0  0  0  0  0  0  0  0  0
   56.7390   29.4960   43.1070 C   0  0  0  0  0  0  0  0  0  0  0  0
   56.5630   28.8960   44.3130 N   0  0  0  0  0  0  0  0  0  0  0  0
   56.8180   29.7550   45.2870 N   0  0  0  0  0  0  0  0  0  0  0  0
   57.1690   30.9460   44.7940 C   0  0  0  0  0  0  0  0  0  0  0  0
   57.5230   32.1460   45.3280 N   0  0  0  0  0  0  0  0  0  0  0  0
   61.3510   33.3380   47.3920 N   0  0  0  0  0  0  0  0  0  0  0  0
   61.3240   32.3880   48.4850 C   0  0  0  0  0  0  0  0  0  0  0  0
   62.4480   31.3690   48.3540 C   0  0  0  0  0  0  0  0  0  0  0  0
   63.7650   31.9890   48.0170 C   0  0  0  0  0  0  0  0  0  0  0  0
   63.7070   33.4890   47.8300 C   0  0  0  0  0  0  0  0  0  0  0  0
   62.6180   33.7870   46.8250 C   0  0  0  0  0  0  0  0  0  0  0  0
   60.2816   35.7954   46.1286 H   0  0  0  0  0  0  0  0  0  0  0  0
   60.7032   34.5087   44.9630 H   0  0  0  0  0  0  0  0  0  0  0  0
   56.6065   29.0494   42.1105 H   0  0  0  0  0  0  0  0  0  0  0  0
   56.2670   27.8890   44.3670 H   0  0  0  0  0  0  0  0  0  0  0  0
   57.5590   32.2640   46.3650 H   0  0  0  0  0  0  0  0  0  0  0  0
   61.4396   32.9302   49.4351 H   0  0  0  0  0  0  0  0  0  0  0  0
   60.3631   31.8533   48.4593 H   0  0  0  0  0  0  0  0  0  0  0  0
   62.5477   30.8330   49.3094 H   0  0  0  0  0  0  0  0  0  0  0  0
   62.1829   30.6927   47.5279 H   0  0  0  0  0  0  0  0  0  0  0  0
   64.4701   31.7687   48.8321 H   0  0  0  0  0  0  0  0  0  0  0  0
   64.0830   31.5597   47.0555 H   0  0  0  0  0  0  0  0  0  0  0  0
   63.4757   33.9770   48.7883 H   0  0  0  0  0  0  0  0  0  0  0  0
   64.6750   33.8695   47.4721 H   0  0  0  0  0  0  0  0  0  0  0  0
   62.5770   34.8684   46.6276 H   0  0  0  0  0  0  0  0  0  0  0  0
   62.8191   33.2680   45.8762 H   0  0  0  0  0  0  0  0  0  0  0  0
  1  2  2  0
  2  3  1  0
  3  4  1  0
  4  5  1  0
  5  6  2  0
  6  7  1  0
  7  8  2  0
  7  9  1  0
  9 10  2  0
 10 11  1  0
 11 12  1  0
 12 13  2  0
 13 14  1  0
  2 15  1  0
 15 16  1  0
 16 17  1  0
 17 18  1  0
 18 19  1  0
 19 20  1  0
 14  5  1  0
 20 15  1  0
 13  9  1  0
  3 21  1  0
  3 22  1  0
 10 23  1  0
 11 24  1  0
 14 25  1  0
 16 26  1  0
 16 27  1  0
 17 28  1  0
 17 29  1  0
 18 30  1  0
 18 31  1  0
 19 32  1  0
 19 33  1  0
 20 34  1  0
 20 35  1  0
M  END
>  <smiles>  (10) 
O=C(CSc1nc(=O)c2c[nH]nc2[nH]1)N1CCCCC1

>  <score_type>  (10) 
oracle

>  <origin>  (10) 
adg

>  <m_score__min__energy>  (10) 
-7.6600000000000001

>  <m_primary>  (10) 
energy

$$$$
10:0
     RDKit          3D

 39 41  0  0  0  0  0  0  0  0999 V2000
   58.8880   35.1310   51.0490 H   0  0  0  0  0  0  0  0  0  0  0  0
   58.8370   34.5170   51.8530 O   0  0  0  0  0  0  0  0  0  0  0  0
   58.4080   33.1950   51.7410 C   0  0  0  0  0  0  0  0  0  0  0  0
   57.5360   32.6780   52.7100 C   0  0  0  0  0  0  0  0  0  0  0  0
   57.2542   33.2936   53.5770 H   0  0  0  0  0  0  0  0  0  0  0  0
   57.0250   31.3890   52.5800 C   0  0  0  0  0  0  0  0  0  0  0  0
   56.3436   30.9815   53.3414 H   0  0  0  0  0  0  0  0  0  0  0  0
   57.3860   30.6220   51.4760 C   0  0  0  0  0  0  0  0  0  0  0  0
   56.9758   29.6089   51.3519 H   0  0  0  0  0  0  0  0  0  0  0  0
   58.2450   31.1250   50.5520 N   0  0  0  0  0  0  0  0  0  0  0  0
   58.7890   32.3690   50.6520 C   0  0  0  0  0  0  0  0  0  0  0  0
   59.6060   32.7460   49.7060 N   0  0  0  0  0  0  0  0  0  0  0  0
   59.4730   33.8180   48.7610 C   0  0  0  0  0  0  0  0  0  0  0  0
   59.7960   34.9910   49.0940 O   0  0  0  0  0  0  0  0  0  0  0  0
   59.0740   33.5140   47.3670 C   0  0  0  0  0  0  0  0  0  0  0  0
   58.5060   32.2620   47.0770 C   0  0  0  0  0  0  0  0  0  0  0  0
   58.3054   31.5560   47.8964 H   0  0  0  0  0  0  0  0  0  0  0  0
   58.1900   31.8970   45.7570 C   0  0  0  0  0  0  0  0  0  0  0  0
   57.6120   30.5700   45.4310 C   0  0  0  0  0  0  0  0  0  0  0  0
   56.5254   30.5194   45.2675 H   0  0  0  0  0  0  0  0  0  0  0  0
   58.3060   29.4250   45.3190 C   0  0  0  0  0  0  0  0  0  0  0  0
   59.3342   29.4905   44.9337 H   0  0  0  0  0  0  0  0  0  0  0  0
   57.7940   28.0820   45.6740 C   0  0  0  0  0  0  0  0  0  0  0  0
   58.6760   27.0500   46.0430 C   0  0  0  0  0  0  0  0  0  0  0  0
   59.7604   27.2342   46.0514 H   0  0  0  0  0  0  0  0  0  0  0  0
   58.1820   25.7920   46.3990 C   0  0  0  0  0  0  0  0  0  0  0  0
   58.8765   24.9937   46.6998 H   0  0  0  0  0  0  0  0  0  0  0  0
   56.8080   25.5480   46.3730 C   0  0  0  0  0  0  0  0  0  0  0  0
   56.4205   24.5598   46.6615 H   0  0  0  0  0  0  0  0  0  0  0  0
   55.9230   26.5570   45.9810 C   0  0  0  0  0  0  0  0  0  0  0  0
   54.5570   26.3020   45.9500 O   0  0  0  0  0  0  0  0  0  0  0  0
   56.4130   27.8210   45.6240 C   0  0  0  0  0  0  0  0  0  0  0  0
   55.5220   28.8180   45.2370 O   0  0  0  0  0  0  0  0  0  0  0  0
   58.3630   32.8350   44.7310 C   0  0  0  0  0  0  0  0  0  0  0  0
   58.0784   32.5771   43.7002 H   0  0  0  0  0  0  0  0  0  0  0  0
   58.8950   34.0960   45.0100 C   0  0  0  0  0  0  0  0  0  0  0  0
   59.0272   34.8252   44.1971 H   0  0  0  0  0  0  0  0  0  0  0  0
   59.2610   34.4380   46.3170 C   0  0  0  0  0  0  0  0  0  0  0  0
   59.8180   35.6900   46.5510 O   0  0  0  0  0  0  0  0  0  0  0  0
  1  2  1  0
  2  3  1  0
  3  4  2  0
  4  5  1  0
  4  6  1  0
  6  7  1  0
  6  8  2  0
  8  9  1  0
  8 10  1  0
 10 11  1  0
 11 12  2  0
 12 13  1  0
 13 14  2  0
 13 15  1  0
 15 16  2  0
 16 17  1  0
 16 18  1  0
 18 19  1  0
 19 20  1  0
 19 21  2  3
 21 22  1  0
 21 23  1  0
 23 24  2  0
 24 25  1  0
 24 26  1  0
 26 27  1  0
 26 28  2  0
 28 29  1  0
 28 30  1  0
 30 31  1  0
 30 32  2  0
 32 33  1  0
 18 34  2  0
 34 35  1  0
 34 36  1  0
 36 37  1  0
 36 38  2  0
 38 39  1  0
 11  3  1  0
 38 15  1  0
 32 23  1  0
M  CHG  4  10  -1  31  -1  33  -1  39  -1
M  END
>  <UniqueID>  (11) 
10

>  <SMILES>  (11) 
O=C(/N=c1/[n-]cccc1O)c1cc(C=Cc2cccc([O-])c2[O-])ccc1[O-]

>  <Energy>  (11) 
66.5007137902831

>  <Genealogy>  (11) 
O=C(N=c1[n-]cccc1O)c1cc(C=Cc2cccc([O-])c2[O-])ccc1[O-] (protonated)
O=C(/N=c1/[n-]cccc1O)c1cc(C=Cc2cccc([O-])c2[O-])ccc1[O-] (cis-trans isomerization)
O=C(/N=c1/[n-]cccc1O)c1cc(C=Cc2cccc([O-])c2[O-])ccc1[O-] (3D coordinates assigned)
O=C(/N=c1/[n-]cccc1O)c1cc(C=Cc2cccc([O-])c2[O-])ccc1[O-] (optimized conformer: 66.5007137902831 kcal/mol)

>  <smiles>  (11) 
O=C(N=c1[nH]cccc1O)c1cc(C=Cc2cccc(O)c2O)ccc1O

>  <score_type>  (11) 
oracle

>  <origin>  (11) 
adg

>  <m_score__min__energy>  (11) 
-17.109999999999999

>  <m_primary>  (11) 
energy

$$$$
11:0
     RDKit          3D

 52 55  0  0  0  0  0  0  0  0999 V2000
   57.4320   30.4760   45.6780 O   0  0  0  0  0  0  0  0  0  0  0  0
   58.6420   31.0860   45.0270 S   0  0  0  0  0  0  0  0  0  0  0  0
   58.4090   31.1450   43.5430 O   0  0  0  0  0  0  0  0  0  0  0  0
   58.8820   32.7280   45.6220 C   0  0  0  0  0  0  0  0  0  0  0  0
   58.9980   33.7860   44.7120 C   0  0  0  0  0  0  0  0  0  0  0  0
   59.1980   35.0890   45.1740 C   0  0  0  0  0  0  0  0  0  0  0  0
   59.2890   35.3410   46.5450 C   0  0  0  0  0  0  0  0  0  0  0  0
   59.1830   34.2940   47.4690 C   0  0  0  0  0  0  0  0  0  0  0  0
   59.2880   34.6030   48.8350 O   0  0  0  0  0  0  0  0  0  0  0  0
   60.0480   33.8660   49.7900 C   0  0  0  0  0  0  0  0  0  0  0  0
   59.6400   34.1850   51.0730 F   0  0  0  0  0  0  0  0  0  0  0  0
   59.8430   32.5150   49.5800 F   0  0  0  0  0  0  0  0  0  0  0  0
   61.3950   34.1400   49.6420 F   0  0  0  0  0  0  0  0  0  0  0  0
   58.9790   32.9810   46.9980 C   0  0  0  0  0  0  0  0  0  0  0  0
   60.0580   30.1170   45.3750 N   0  0  0  0  0  0  0  0  0  0  0  0
   60.6460   30.4890   46.6940 C   0  0  0  0  0  0  0  0  0  0  0  0
   60.8820   29.2940   47.6330 C   0  0  0  0  0  0  0  0  0  0  0  0
   59.6780   28.4050   47.6260 C   0  0  0  0  0  0  0  0  0  0  0  0
   59.1150   28.0950   46.4530 C   0  0  0  0  0  0  0  0  0  0  0  0
   57.9260   27.2170   46.3720 C   0  0  0  0  0  0  0  0  0  0  0  0
   56.6440   27.5860   45.9810 C   0  0  0  0  0  0  0  0  0  0  0  0
   55.8950   26.4300   46.0210 C   0  0  0  0  0  0  0  0  0  0  0  0
   54.5520   26.3380   45.6770 O   0  0  0  0  0  0  0  0  0  0  0  0
   56.6450   25.3900   46.4260 N   0  0  0  0  0  0  0  0  0  0  0  0
   56.1370   23.7420   46.5830 S   0  0  0  0  0  0  0  0  0  0  0  0
   56.9450   23.0600   47.6510 O   0  0  0  0  0  0  0  0  0  0  0  0
   54.6870   23.7030   46.9780 O   0  0  0  0  0  0  0  0  0  0  0  0
   56.3600   22.9100   45.0540 C   0  0  0  0  0  0  0  0  0  0  0  0
   55.7670   23.4080   43.8870 C   0  0  0  0  0  0  0  0  0  0  0  0
   55.9680   22.7360   42.6800 C   0  0  0  0  0  0  0  0  0  0  0  0
   56.7540   21.5820   42.6490 C   0  0  0  0  0  0  0  0  0  0  0  0
   57.3290   21.1170   43.8340 C   0  0  0  0  0  0  0  0  0  0  0  0
   57.1230   21.7860   45.0000 N   0  0  0  0  0  0  0  0  0  0  0  0
   57.8880   25.8550   46.6380 C   0  0  0  0  0  0  0  0  0  0  0  0
   59.7500   28.6760   45.2090 C   0  0  0  0  0  0  0  0  0  0  0  0
   58.9315   33.5907   43.6315 H   0  0  0  0  0  0  0  0  0  0  0  0
   59.2840   35.9185   44.4567 H   0  0  0  0  0  0  0  0  0  0  0  0
   59.4451   36.3698   46.9016 H   0  0  0  0  0  0  0  0  0  0  0  0
   58.8954   32.1501   47.7140 H   0  0  0  0  0  0  0  0  0  0  0  0
   61.6118   30.9842   46.5149 H   0  0  0  0  0  0  0  0  0  0  0  0
   59.9188   31.1467   47.1925 H   0  0  0  0  0  0  0  0  0  0  0  0
   61.7588   28.7257   47.2891 H   0  0  0  0  0  0  0  0  0  0  0  0
   61.0591   29.6614   48.6546 H   0  0  0  0  0  0  0  0  0  0  0  0
   59.2642   28.0142   48.5673 H   0  0  0  0  0  0  0  0  0  0  0  0
   56.2992   28.5916   45.6984 H   0  0  0  0  0  0  0  0  0  0  0  0
   55.1500   24.3181   43.9211 H   0  0  0  0  0  0  0  0  0  0  0  0
   55.5082   23.1147   41.7552 H   0  0  0  0  0  0  0  0  0  0  0  0
   56.9183   21.0457   41.7027 H   0  0  0  0  0  0  0  0  0  0  0  0
   57.9492   20.2086   43.8241 H   0  0  0  0  0  0  0  0  0  0  0  0
   58.7438   25.2494   46.9711 H   0  0  0  0  0  0  0  0  0  0  0  0
   60.6834   28.1335   44.9981 H   0  0  0  0  0  0  0  0  0  0  0  0
   59.0375   28.5702   44.3777 H   0  0  0  0  0  0  0  0  0  0  0  0
  1  2  2  0
  2  3  2  0
  2  4  1  0
  4  5  2  0
  5  6  1  0
  6  7  2  0
  7  8  1  0
  8  9  1  0
  9 10  1  0
 10 11  1  0
 10 12  1  0
 10 13  1  0
  8 14  2  0
  2 15  1  0
 15 16  1  0
 16 17  1  0
 17 18  1  0
 18 19  2  0
 19 20  1  0
 20 21  1  0
 21 22  2  0
 22 23  1  0
 22 24  1  0
 24 25  1  0
 25 26  2  0
 25 27  2  0
 25 28  1  0
 28 29  2  0
 29 30  1  0
 30 31  2  0
 31 32  1  0
 32 33  2  0
 24 34  1  0
 19 35  1  0
 14  4  1  0
 35 15  1  0
 34 20  2  0
 33 28  1  0
  5 36  1  0
  6 37  1  0
  7 38  1  0
 14 39  1  0
 16 40  1  0
 16 41  1  0
 17 42  1  0
 17 43  1  0
 18 44  1  0
 21 45  1  0
 29 46  1  0
 30 47  1  0
 31 48  1  0
 32 49  1  0
 34 50  1  0
 35 51  1  0
 35 52  1  0
M  CHG  1  23  -1
M  END
>  <UniqueID>  (12) 
11

>  <SMILES>  (12) 
O=S(=O)(c1cccc(OC(F)(F)F)c1)N1CCC=C(c2cc([O-])n(S(=O)(=O)c3ccccn3)c2)C1

>  <Energy>  (12) 
94.1425777903036

>  <Genealogy>  (12) 
O=S(=O)(c1cccc(OC(F)(F)F)c1)N1CCC=C(c2cc([O-])n(S(=O)(=O)c3ccccn3)c2)C1 (protonated)
O=S(=O)(c1cccc(OC(F)(F)F)c1)N1CCC=C(c2cc([O-])n(S(=O)(=O)c3ccccn3)c2)C1 (3D coordinates assigned)
O=S(=O)(c1cccc(OC(F)(F)F)c1)N1CCC=C(c2cc([O-])n(S(=O)(=O)c3ccccn3)c2)C1 (nonaromatic ring conformer: 94.1425777903036 kcal/mol)

>  <smiles>  (12) 
O=S(=O)(c1cccc(OC(F)(F)F)c1)N1CCC=C(c2cc(O)n(S(=O)(=O)c3ccccn3)c2)C1

>  <score_type>  (12) 
oracle

>  <origin>  (12) 
adg

>  <m_score__min__energy>  (12) 
-13.27

>  <m_primary>  (12) 
energy

$$$$
12:0
     RDKit          3D

 61 63  0  0  0  0  0  0  0  0999 V2000
   60.5850   29.7690   46.0940 C   0  0  0  0  0  0  0  0  0  0  0  0
   60.3980   28.3780   45.4960 C   0  0  0  0  0  0  0  0  0  0  0  0
   59.0270   27.8950   45.7240 N   0  0  0  0  0  0  0  0  0  0  0  0
   58.0460   28.0220   44.6350 C   0  0  0  0  0  0  0  0  0  0  0  0
   56.7200   28.4520   45.1820 C   0  0  0  0  0  0  0  0  0  0  0  0
   55.9010   27.6010   45.6210 O   0  0  0  0  0  0  0  0  0  0  0  0
   56.3850   29.8400   45.2140 N   0  0  0  0  0  0  0  0  0  0  0  0
   56.8950   30.8230   44.2970 C   0  0  0  0  0  0  0  0  0  0  0  0
   56.7210   30.6700   42.9070 C   0  0  0  0  0  0  0  0  0  0  0  0
   57.3050   31.5710   42.0160 C   0  0  0  0  0  0  0  0  0  0  0  0
   58.0770   32.6280   42.4990 C   0  0  0  0  0  0  0  0  0  0  0  0
   58.2560   32.7990   43.8740 C   0  0  0  0  0  0  0  0  0  0  0  0
   57.6560   31.9120   44.7880 C   0  0  0  0  0  0  0  0  0  0  0  0
   57.8280   32.1490   46.2430 C   0  0  0  0  0  0  0  0  0  0  0  0
   58.1560   31.2000   47.0040 O   0  0  0  0  0  0  0  0  0  0  0  0
   57.5940   33.4520   46.7910 N   0  0  0  0  0  0  0  0  0  0  0  0
   58.5280   34.5650   46.6510 C   0  0  0  0  0  0  0  0  0  0  0  0
   59.8810   34.1760   47.1830 C   0  0  0  0  0  0  0  0  0  0  0  0
   60.9140   33.8390   46.2930 C   0  0  0  0  0  0  0  0  0  0  0  0
   62.1860   33.5120   46.7800 C   0  0  0  0  0  0  0  0  0  0  0  0
   62.4300   33.5140   48.1560 C   0  0  0  0  0  0  0  0  0  0  0  0
   61.4090   33.8530   49.0470 C   0  0  0  0  0  0  0  0  0  0  0  0
   60.1410   34.1920   48.5650 C   0  0  0  0  0  0  0  0  0  0  0  0
   58.7030   27.2410   46.9760 C   0  0  0  0  0  0  0  0  0  0  0  0
   58.8810   27.8590   48.0630 O   0  0  0  0  0  0  0  0  0  0  0  0
   58.1030   25.8540   47.0250 C   0  0  0  0  0  0  0  0  0  0  0  0
   58.9900   24.8160   46.3230 C   0  0  0  0  0  0  0  0  0  0  0  0
   58.2030   24.0690   45.2800 C   0  0  0  0  0  0  0  0  0  0  0  0
   58.4370   22.7040   45.0520 C   0  0  0  0  0  0  0  0  0  0  0  0
   57.6710   22.0030   44.1150 C   0  0  0  0  0  0  0  0  0  0  0  0
   56.6590   22.6560   43.4040 C   0  0  0  0  0  0  0  0  0  0  0  0
   55.8990   21.9450   42.4770 O   0  0  0  0  0  0  0  0  0  0  0  0
   56.4150   24.0160   43.6350 C   0  0  0  0  0  0  0  0  0  0  0  0
   57.1780   24.7190   44.5730 C   0  0  0  0  0  0  0  0  0  0  0  0
   60.5758   29.7004   47.1918 H   0  0  0  0  0  0  0  0  0  0  0  0
   61.5472   30.1851   45.7607 H   0  0  0  0  0  0  0  0  0  0  0  0
   59.7669   30.4244   45.7607 H   0  0  0  0  0  0  0  0  0  0  0  0
   60.5906   28.4211   44.4138 H   0  0  0  0  0  0  0  0  0  0  0  0
   61.1024   27.6863   45.9812 H   0  0  0  0  0  0  0  0  0  0  0  0
   58.4009   28.7708   43.9116 H   0  0  0  0  0  0  0  0  0  0  0  0
   57.9310   27.0467   44.1395 H   0  0  0  0  0  0  0  0  0  0  0  0
   56.1199   29.8334   42.5213 H   0  0  0  0  0  0  0  0  0  0  0  0
   57.1568   31.4480   40.9330 H   0  0  0  0  0  0  0  0  0  0  0  0
   58.5468   33.3298   41.7942 H   0  0  0  0  0  0  0  0  0  0  0  0
   58.8702   33.6327   44.2452 H   0  0  0  0  0  0  0  0  0  0  0  0
   58.6184   34.8323   45.5878 H   0  0  0  0  0  0  0  0  0  0  0  0
   58.1505   35.4254   47.2230 H   0  0  0  0  0  0  0  0  0  0  0  0
   60.7234   33.8318   45.2097 H   0  0  0  0  0  0  0  0  0  0  0  0
   62.9933   33.2535   46.0789 H   0  0  0  0  0  0  0  0  0  0  0  0
   63.4269   33.2484   48.5378 H   0  0  0  0  0  0  0  0  0  0  0  0
   61.6029   33.8533   50.1298 H   0  0  0  0  0  0  0  0  0  0  0  0
   59.3439   34.4722   49.2693 H   0  0  0  0  0  0  0  0  0  0  0  0
   57.9767   25.5591   48.0772 H   0  0  0  0  0  0  0  0  0  0  0  0
   57.1367   25.8842   46.5003 H   0  0  0  0  0  0  0  0  0  0  0  0
   59.8349   25.3290   45.8404 H   0  0  0  0  0  0  0  0  0  0  0  0
   59.3590   24.0991   47.0713 H   0  0  0  0  0  0  0  0  0  0  0  0
   59.2268   22.1830   45.6130 H   0  0  0  0  0  0  0  0  0  0  0  0
   57.8650   20.9350   43.9368 H   0  0  0  0  0  0  0  0  0  0  0  0
   55.9510   22.1450   41.4850 H   0  0  0  0  0  0  0  0  0  0  0  0
   55.6205   24.5328   43.0767 H   0  0  0  0  0  0  0  0  0  0  0  0
   56.9748   25.7842   44.7576 H   0  0  0  0  0  0  0  0  0  0  0  0
  1  2  1  0
  2  3  1  0
  3  4  1  0
  4  5  1  0
  5  6  2  0
  5  7  1  0
  7  8  1  0
  8  9  2  0
  9 10  1  0
 10 11  2  0
 11 12  1  0
 12 13  2  0
 13 14  1  0
 14 15  2  0
 14 16  1  0
 16 17  1  0
 17 18  1  0
 18 19  2  0
 19 20  1  0
 20 21  2  0
 21 22  1  0
 22 23  2  0
  3 24  1  0
 24 25  2  0
 24 26  1  0
 26 27  1  0
 27 28  1  0
 28 29  2  0
 29 30  1  0
 30 31  2  0
 31 32  1  0
 31 33  1  0
 33 34  2  0
 13  8  1  0
 23 18  1  0
 34 28  1  0
  1 35  1  0
  1 36  1  0
  1 37  1  0
  2 38  1  0
  2 39  1  0
  4 40  1  0
  4 41  1  0
  9 42  1  0
 10 43  1  0
 11 44  1  0
 12 45  1  0
 17 46  1  0
 17 47  1  0
 19 48  1  0
 20 49  1  0
 21 50  1  0
 22 51  1  0
 23 52  1  0
 26 53  1  0
 26 54  1  0
 27 55  1  0
 27 56  1  0
 29 57  1  0
 30 58  1  0
 32 59  1  0
 33 60  1  0
 34 61  1  0
M  CHG  2   7  -1  16  -1
M  END
>  <UniqueID>  (13) 
12

>  <SMILES>  (13) 
CCN(CC(=O)[N-]c1ccccc1C(=O)[N-]Cc1ccccc1)C(=O)CCc1ccc(O)cc1

>  <Energy>  (13) 
63.44636152391438

>  <Genealogy>  (13) 
CCN(CC(=O)[N-]c1ccccc1C(=O)[N-]Cc1ccccc1)C(=O)CCc1ccc(O)cc1 (protonated)
CCN(CC(=O)[N-]c1ccccc1C(=O)[N-]Cc1ccccc1)C(=O)CCc1ccc(O)cc1 (3D coordinates assigned)
CCN(CC(=O)[N-]c1ccccc1C(=O)[N-]Cc1ccccc1)C(=O)CCc1ccc(O)cc1 (optimized conformer: 63.44636152391438 kcal/mol)

>  <smiles>  (13) 
CCN(CC(=O)Nc1ccccc1C(=O)NCc1ccccc1)C(=O)CCc1ccc(O)cc1

>  <score_type>  (13) 
oracle

>  <origin>  (13) 
adg

>  <m_score__min__energy>  (13) 
-14.07

>  <m_primary>  (13) 
energy

$$$$
13:0
     RDKit          3D

 37 38  0  0  0  0  0  0  0  0999 V2000
   58.9485   30.4602   47.8626 H   0  0  0  0  0  0  0  0  0  0  0  0
   58.7510   29.4130   47.5900 C   0  0  0  0  0  0  0  0  0  0  0  0
   58.7356   28.6356   48.3681 H   0  0  0  0  0  0  0  0  0  0  0  0
   58.5290   29.0840   46.3090 C   0  0  0  0  0  0  0  0  0  0  0  0
   58.2620   27.8090   45.7790 C   0  0  0  0  0  0  0  0  0  0  0  0
   58.0070   26.6310   46.3880 C   0  0  0  0  0  0  0  0  0  0  0  0
   58.8063   26.1999   47.0086 H   0  0  0  0  0  0  0  0  0  0  0  0
   56.7440   25.8750   46.2890 C   0  0  0  0  0  0  0  0  0  0  0  0
   55.5520   26.4990   45.8850 C   0  0  0  0  0  0  0  0  0  0  0  0
   55.5210   27.8600   45.6030 O   0  0  0  0  0  0  0  0  0  0  0  0
   54.4130   25.7680   45.7610 N   0  0  0  0  0  0  0  0  0  0  0  0
   54.4080   24.4330   46.0050 C   0  0  0  0  0  0  0  0  0  0  0  0
   53.3420   23.7770   45.8880 O   0  0  0  0  0  0  0  0  0  0  0  0
   55.5550   23.8030   46.3690 N   0  0  0  0  0  0  0  0  0  0  0  0
   56.7190   24.4890   46.5070 C   0  0  0  0  0  0  0  0  0  0  0  0
   57.7660   23.8710   46.8390 O   0  0  0  0  0  0  0  0  0  0  0  0
   58.2770   28.0010   44.4010 C   0  0  0  0  0  0  0  0  0  0  0  0
   58.0170   26.9720   43.3440 C   0  0  0  0  0  0  0  0  0  0  0  0
   57.7741   26.0106   43.8201 H   0  0  0  0  0  0  0  0  0  0  0  0
   57.1722   27.2949   42.7178 H   0  0  0  0  0  0  0  0  0  0  0  0
   58.9138   26.8549   42.7178 H   0  0  0  0  0  0  0  0  0  0  0  0
   58.4800   29.3030   44.1350 N   0  0  0  0  0  0  0  0  0  0  0  0
   58.5060   29.7420   43.1880 H   0  0  0  0  0  0  0  0  0  0  0  0
   58.6290   29.9590   45.2750 N   0  0  0  0  0  0  0  0  0  0  0  0
   58.8550   31.4070   45.3360 C   0  0  0  0  0  0  0  0  0  0  0  0
   59.1601   31.6773   46.3577 H   0  0  0  0  0  0  0  0  0  0  0  0
   59.6403   31.6621   44.6092 H   0  0  0  0  0  0  0  0  0  0  0  0
   57.5880   32.1970   44.9690 C   0  0  0  0  0  0  0  0  0  0  0  0
   57.5621   32.3258   43.8769 H   0  0  0  0  0  0  0  0  0  0  0  0
   56.7282   31.6209   45.3416 H   0  0  0  0  0  0  0  0  0  0  0  0
   57.5200   33.5890   45.6260 C   0  0  0  0  0  0  0  0  0  0  0  0
   56.5284   34.0228   45.4295 H   0  0  0  0  0  0  0  0  0  0  0  0
   57.7002   33.4571   46.7031 H   0  0  0  0  0  0  0  0  0  0  0  0
   58.5870   34.5460   45.0930 C   0  0  0  0  0  0  0  0  0  0  0  0
   59.1119   35.0168   45.9373 H   0  0  0  0  0  0  0  0  0  0  0  0
   59.3080   33.9862   44.4792 H   0  0  0  0  0  0  0  0  0  0  0  0
   58.1086   35.3234   44.4792 H   0  0  0  0  0  0  0  0  0  0  0  0
  1  2  1  0
  2  3  1  0
  2  4  2  0
  4  5  1  0
  5  6  2  0
  6  7  1  0
  6  8  1  0
  8  9  2  0
  9 10  1  0
  9 11  1  0
 11 12  1  0
 12 13  2  0
 12 14  1  0
 14 15  1  0
 15 16  2  0
  5 17  1  0
 17 18  1  0
 18 19  1  0
 18 20  1  0
 18 21  1  0
 17 22  2  0
 22 23  1  0
 22 24  1  0
 24 25  1  0
 25 26  1  0
 25 27  1  0
 25 28  1  0
 28 29  1  0
 28 30  1  0
 28 31  1  0
 31 32  1  0
 31 33  1  0
 31 34  1  0
 34 35  1  0
 34 36  1  0
 34 37  1  0
 24  4  1  0
 15  8  1  0
M  CHG  4  10  -1  11  -1  14  -1  22   1
M  END
>  <UniqueID>  (14) 
13

>  <SMILES>  (14) 
C=c1/c(=C\c2c([O-])[n-]c(=O)[n-]c2=O)c(C)[nH+]n1CCCC

>  <Energy>  (14) 
78.19765978019682

>  <Genealogy>  (14) 
C=c1c(=Cc2c([O-])[n-]c(=O)[n-]c2=O)c(C)[nH+]n1CCCC (protonated)
C=c1/c(=C\c2c([O-])[n-]c(=O)[n-]c2=O)c(C)[nH+]n1CCCC (cis-trans isomerization)
C=c1/c(=C\c2c([O-])[n-]c(=O)[n-]c2=O)c(C)[nH+]n1CCCC (3D coordinates assigned)
C=c1/c(=C\c2c([O-])[n-]c(=O)[n-]c2=O)c(C)[nH+]n1CCCC (optimized conformer: 78.19765978019682 kcal/mol)

>  <smiles>  (14) 
C=c1c(=Cc2c(O)[nH]c(=O)[nH]c2=O)c(C)nn1CCCC

>  <score_type>  (14) 
oracle

>  <origin>  (14) 
adg

>  <m_score__min__energy>  (14) 
-13.300000000000001

>  <m_primary>  (14) 
energy

$$$$
14:0
     RDKit          3D

 34 36  0  0  0  0  0  0  0  0999 V2000
   59.5195   34.5053   49.9370 H   0  0  0  0  0  0  0  0  0  0  0  0
   59.8830   34.2190   48.9390 C   0  0  0  0  0  0  0  0  0  0  0  0
   58.9960   33.9290   47.9510 N   0  0  0  0  0  0  0  0  0  0  0  0
   59.3980   33.5760   46.6980 C   0  0  0  0  0  0  0  0  0  0  0  0
   58.3850   33.2510   45.6690 C   0  0  0  0  0  0  0  0  0  0  0  0
   57.4590   34.0670   45.4170 O   0  0  0  0  0  0  0  0  0  0  0  0
   58.4900   32.0580   44.8780 N   0  0  0  0  0  0  0  0  0  0  0  0
   57.6730   31.0390   44.8860 C   0  0  0  0  0  0  0  0  0  0  0  0
   56.4920   31.1250   44.1440 C   0  0  0  0  0  0  0  0  0  0  0  0
   56.2763   32.0277   43.5535 H   0  0  0  0  0  0  0  0  0  0  0  0
   55.5880   30.0640   44.1540 C   0  0  0  0  0  0  0  0  0  0  0  0
   54.6594   30.1309   43.5682 H   0  0  0  0  0  0  0  0  0  0  0  0
   55.8480   28.9470   44.8840 N   0  0  0  0  0  0  0  0  0  0  0  0
   55.1490   28.1700   44.8800 H   0  0  0  0  0  0  0  0  0  0  0  0
   56.9910   28.8160   45.6130 C   0  0  0  0  0  0  0  0  0  0  0  0
   57.1720   27.6320   46.4100 N   0  0  0  0  0  0  0  0  0  0  0  0
   56.6640   26.4530   46.1930 C   0  0  0  0  0  0  0  0  0  0  0  0
   55.3310   26.2870   45.9450 N   0  0  0  0  0  0  0  0  0  0  0  0
   54.7860   25.0590   45.7410 C   0  0  0  0  0  0  0  0  0  0  0  0
   53.7091   24.9632   45.5384 H   0  0  0  0  0  0  0  0  0  0  0  0
   55.5900   23.9190   45.7880 C   0  0  0  0  0  0  0  0  0  0  0  0
   55.1542   22.9231   45.6197 H   0  0  0  0  0  0  0  0  0  0  0  0
   56.9530   24.0580   46.0510 C   0  0  0  0  0  0  0  0  0  0  0  0
   57.5991   23.1688   46.0945 H   0  0  0  0  0  0  0  0  0  0  0  0
   57.4960   25.3280   46.2590 C   0  0  0  0  0  0  0  0  0  0  0  0
   58.5687   25.4438   46.4730 H   0  0  0  0  0  0  0  0  0  0  0  0
   57.9130   29.8780   45.6500 C   0  0  0  0  0  0  0  0  0  0  0  0
   58.8171   29.8032   46.2721 H   0  0  0  0  0  0  0  0  0  0  0  0
   60.7710   33.5000   46.4120 C   0  0  0  0  0  0  0  0  0  0  0  0
   61.1134   33.2108   45.4074 H   0  0  0  0  0  0  0  0  0  0  0  0
   61.6980   33.7950   47.4150 C   0  0  0  0  0  0  0  0  0  0  0  0
   62.7758   33.7445   47.2012 H   0  0  0  0  0  0  0  0  0  0  0  0
   61.2540   34.1540   48.6890 C   0  0  0  0  0  0  0  0  0  0  0  0
   61.9766   34.3829   49.4862 H   0  0  0  0  0  0  0  0  0  0  0  0
  1  2  1  0
  2  3  2  0
  3  4  1  0
  4  5  1  0
  5  6  2  0
  5  7  1  0
  7  8  2  3
  8  9  1  0
  9 10  1  0
  9 11  2  0
 11 12  1  0
 11 13  1  0
 13 14  1  0
 13 15  1  0
 15 16  1  0
 16 17  2  0
 17 18  1  0
 18 19  1  0
 19 20  1  0
 19 21  2  0
 21 22  1  0
 21 23  1  0
 23 24  1  0
 23 25  2  0
 25 26  1  0
 15 27  2  0
 27 28  1  0
  4 29  2  0
 29 30  1  0
 29 31  1  0
 31 32  1  0
 31 33  2  0
 33 34  1  0
 33  2  1  0
 27  8  1  0
 25 17  1  0
M  CHG  1  18  -1
M  END
>  <UniqueID>  (15) 
14

>  <SMILES>  (15) 
O=C(N=c1cc[nH]c(/N=c2/cccc[n-]2)c1)c1ccccn1

>  <Energy>  (15) 
52.76292812288063

>  <Genealogy>  (15) 
O=C(N=c1cc[nH]c(N=c2cccc[n-]2)c1)c1ccccn1 (protonated)
O=C(N=c1cc[nH]c(/N=c2/cccc[n-]2)c1)c1ccccn1 (cis-trans isomerization)
O=C(N=c1cc[nH]c(/N=c2/cccc[n-]2)c1)c1ccccn1 (3D coordinates assigned)
O=C(N=c1cc[nH]c(/N=c2/cccc[n-]2)c1)c1ccccn1 (optimized conformer: 52.76292812288063 kcal/mol)

>  <smiles>  (15) 
O=C(N=c1cc[nH]c(N=c2cccc[nH]2)c1)c1ccccn1

>  <score_type>  (15) 
oracle

>  <origin>  (15) 
adg

>  <m_score__min__energy>  (15) 
-9.7400000000000002

>  <m_primary>  (15) 
energy

$$$$
15:0
     RDKit          3D

 64 68  0  0  0  0  0  0  0  0999 V2000
   59.8110   29.7150   45.0000 C   0  0  0  0  0  0  0  0  0  0  0  0
   59.8400   29.0500   46.1660 C   0  0  0  0  0  0  0  0  0  0  0  0
   59.4340   27.7250   46.4030 C   0  0  0  0  0  0  0  0  0  0  0  0
   58.7750   26.8480   45.6230 C   0  0  0  0  0  0  0  0  0  0  0  0
   57.3560   26.4930   45.7510 C   0  0  0  0  0  0  0  0  0  0  0  0
   56.9230   25.2500   46.0210 N   0  0  0  0  0  0  0  0  0  0  0  0
   55.5850   25.4030   46.1320 C   0  0  0  0  0  0  0  0  0  0  0  0
   54.8110   24.4400   46.3710 O   0  0  0  0  0  0  0  0  0  0  0  0
   55.1440   26.6700   45.9760 N   0  0  0  0  0  0  0  0  0  0  0  0
   56.2780   27.3530   45.7510 C   0  0  0  0  0  0  0  0  0  0  0  0
   56.3190   28.7340   45.5820 O   0  0  0  0  0  0  0  0  0  0  0  0
   59.8630   27.4140   47.6830 C   0  0  0  0  0  0  0  0  0  0  0  0
   60.4510   28.5500   48.1960 C   0  0  0  0  0  0  0  0  0  0  0  0
   61.1510   28.6240   49.5160 C   0  0  0  0  0  0  0  0  0  0  0  0
   60.4170   29.5490   47.2880 N   0  0  0  0  0  0  0  0  0  0  0  0
   61.0460   30.8340   47.4460 C   0  0  0  0  0  0  0  0  0  0  0  0
   62.4420   30.9270   47.3250 C   0  0  0  0  0  0  0  0  0  0  0  0
   63.0850   32.1540   47.4940 C   0  0  0  0  0  0  0  0  0  0  0  0
   62.3420   33.2970   47.7900 C   0  0  0  0  0  0  0  0  0  0  0  0
   60.9530   33.2180   47.9130 C   0  0  0  0  0  0  0  0  0  0  0  0
   60.2910   31.9920   47.7410 C   0  0  0  0  0  0  0  0  0  0  0  0
   58.5340   31.9200   47.9280 S   0  0  0  0  0  0  0  0  0  0  0  0
   57.9210   33.2470   47.5710 O   0  0  0  0  0  0  0  0  0  0  0  0
   57.9820   30.8920   46.9800 O   0  0  0  0  0  0  0  0  0  0  0  0
   58.1380   31.5040   49.5790 N   0  0  0  0  0  0  0  0  0  0  0  0
   58.4720   32.6270   50.4680 C   0  0  0  0  0  0  0  0  0  0  0  0
   57.9380   32.3660   51.8900 C   0  0  0  0  0  0  0  0  0  0  0  0
   57.8940   30.8550   52.2690 C   0  0  0  0  0  0  0  0  0  0  0  0
   56.5630   30.2400   51.9880 N   0  0  0  0  0  0  0  0  0  0  0  0
   55.4570   31.2120   52.0540 C   0  0  0  0  0  0  0  0  0  0  0  0
   54.2360   30.5150   52.6430 C   0  0  0  0  0  0  0  0  0  0  0  0
   54.7070   29.1400   53.0580 C   0  0  0  0  0  0  0  0  0  0  0  0
   56.2170   29.1970   52.9670 C   0  0  0  0  0  0  0  0  0  0  0  0
   59.0200   30.1280   51.5010 C   0  0  0  0  0  0  0  0  0  0  0  0
   58.8520   30.2660   49.9730 C   0  0  0  0  0  0  0  0  0  0  0  0
   60.1610   30.7567   44.9521 H   0  0  0  0  0  0  0  0  0  0  0  0
   59.4373   29.2181   44.0926 H   0  0  0  0  0  0  0  0  0  0  0  0
   59.3474   26.3561   44.8227 H   0  0  0  0  0  0  0  0  0  0  0  0
   56.6370   29.3460   46.3230 H   0  0  0  0  0  0  0  0  0  0  0  0
   59.7549   26.4452   48.1927 H   0  0  0  0  0  0  0  0  0  0  0  0
   60.4125   28.5459   50.3275 H   0  0  0  0  0  0  0  0  0  0  0  0
   61.8720   27.7971   49.5955 H   0  0  0  0  0  0  0  0  0  0  0  0
   61.6832   29.5834   49.5955 H   0  0  0  0  0  0  0  0  0  0  0  0
   63.0321   30.0274   47.0957 H   0  0  0  0  0  0  0  0  0  0  0  0
   64.1784   32.2199   47.3937 H   0  0  0  0  0  0  0  0  0  0  0  0
   62.8511   34.2624   47.9268 H   0  0  0  0  0  0  0  0  0  0  0  0
   60.3733   34.1233   48.1464 H   0  0  0  0  0  0  0  0  0  0  0  0
   59.5650   32.7449   50.5076 H   0  0  0  0  0  0  0  0  0  0  0  0
   58.0062   33.5428   50.0752 H   0  0  0  0  0  0  0  0  0  0  0  0
   58.5894   32.8863   52.6076 H   0  0  0  0  0  0  0  0  0  0  0  0
   56.9032   32.7379   51.9207 H   0  0  0  0  0  0  0  0  0  0  0  0
   58.0509   30.7535   53.3530 H   0  0  0  0  0  0  0  0  0  0  0  0
   55.7452   32.0593   52.6935 H   0  0  0  0  0  0  0  0  0  0  0  0
   55.2264   31.5899   51.0470 H   0  0  0  0  0  0  0  0  0  0  0  0
   53.8611   31.0709   53.5151 H   0  0  0  0  0  0  0  0  0  0  0  0
   53.4122   30.4585   51.9162 H   0  0  0  0  0  0  0  0  0  0  0  0
   54.3902   28.9176   54.0876 H   0  0  0  0  0  0  0  0  0  0  0  0
   54.2849   28.3495   52.4200 H   0  0  0  0  0  0  0  0  0  0  0  0
   56.6431   29.4482   53.9495 H   0  0  0  0  0  0  0  0  0  0  0  0
   56.6230   28.2234   52.6551 H   0  0  0  0  0  0  0  0  0  0  0  0
   59.9879   30.5612   51.7935 H   0  0  0  0  0  0  0  0  0  0  0  0
   58.9728   29.0589   51.7554 H   0  0  0  0  0  0  0  0  0  0  0  0
   59.8497   30.2741   49.5098 H   0  0  0  0  0  0  0  0  0  0  0  0
   58.2473   29.4136   49.6298 H   0  0  0  0  0  0  0  0  0  0  0  0
  1  2  2  0
  2  3  1  0
  3  4  2  3
  4  5  1  0
  5  6  1  0
  6  7  1  0
  7  8  2  0
  7  9  1  0
  9 10  1  0
 10 11  1  0
  3 12  1  0
 12 13  2  0
 13 14  1  0
 13 15  1  0
 15 16  1  0
 16 17  2  0
 17 18  1  0
 18 19  2  0
 19 20  1  0
 20 21  2  0
 21 22  1  0
 22 23  2  0
 22 24  2  0
 22 25  1  0
 25 26  1  0
 26 27  1  0
 27 28  1  0
 28 29  1  0
 29 30  1  0
 30 31  1  0
 31 32  1  0
 32 33  1  0
 28 34  1  0
 34 35  1  0
 15  2  1  0
 21 16  1  0
 35 25  1  0
 10  5  2  0
 33 29  1  0
  1 36  1  0
  1 37  1  0
  4 38  1  0
 11 39  1  0
 12 40  1  0
 14 41  1  0
 14 42  1  0
 14 43  1  0
 17 44  1  0
 18 45  1  0
 19 46  1  0
 20 47  1  0
 26 48  1  0
 26 49  1  0
 27 50  1  0
 27 51  1  0
 28 52  1  0
 30 53  1  0
 30 54  1  0
 31 55  1  0
 31 56  1  0
 32 57  1  0
 32 58  1  0
 33 59  1  0
 33 60  1  0
 34 61  1  0
 34 62  1  0
 35 63  1  0
 35 64  1  0
M  CHG  2   6  -1   9  -1
M  END
>  <UniqueID>  (16) 
15

>  <SMILES>  (16) 
C=c1c(=Cc2[n-]c(=O)[n-]c2O)cc(C)n1-c1ccccc1S(=O)(=O)N1CCC(N2CCCC2)CC1

>  <Energy>  (16) 
149.31037328779738

>  <Genealogy>  (16) 
C=c1c(=Cc2[n-]c(=O)[n-]c2O)cc(C)n1-c1ccccc1S(=O)(=O)N1CCC(N2CCCC2)CC1 (protonated)
C=c1c(=Cc2[n-]c(=O)[n-]c2O)cc(C)n1-c1ccccc1S(=O)(=O)N1CCC(N2CCCC2)CC1 (3D coordinates assigned)
C=c1c(=Cc2[n-]c(=O)[n-]c2O)cc(C)n1-c1ccccc1S(=O)(=O)N1CCC(N2CCCC2)CC1 (nonaromatic ring conformer: 149.31037328779738 kcal/mol)

>  <smiles>  (16) 
C=c1c(=Cc2[nH]c(=O)[nH]c2O)cc(C)n1-c1ccccc1S(=O)(=O)N1CCC(N2CCCC2)CC1

>  <score_type>  (16) 
oracle

>  <origin>  (16) 
adg

>  <m_score__min__energy>  (16) 
-14.970000000000001

>  <m_primary>  (16) 
energy

$$$$
16:0
     RDKit          3D

 55 58  0  0  0  0  0  0  0  0999 V2000
   55.3570   31.2300   52.1830 C   0  0  0  0  0  0  0  0  0  0  0  0
   56.6800   30.6950   51.7490 C   0  0  0  0  0  0  0  0  0  0  0  0
   57.5940   31.3470   50.9430 C   0  0  0  0  0  0  0  0  0  0  0  0
   58.6540   30.4700   50.8390 C   0  0  0  0  0  0  0  0  0  0  0  0
   59.8600   30.6730   50.1630 O   0  0  0  0  0  0  0  0  0  0  0  0
   60.0710   30.2310   48.8560 C   0  0  0  0  0  0  0  0  0  0  0  0
   59.3440   29.1450   48.3590 C   0  0  0  0  0  0  0  0  0  0  0  0
   59.5250   28.6980   47.0400 C   0  0  0  0  0  0  0  0  0  0  0  0
   58.5600   27.3240   46.4570 S   0  0  0  0  0  0  0  0  0  0  0  0
   57.2860   27.2520   47.2500 O   0  0  0  0  0  0  0  0  0  0  0  0
   59.3250   26.0400   46.6300 O   0  0  0  0  0  0  0  0  0  0  0  0
   58.1470   27.4650   44.7210 C   0  0  0  0  0  0  0  0  0  0  0  0
   57.3070   28.6750   44.4480 C   0  0  0  0  0  0  0  0  0  0  0  0
   57.7610   29.7000   43.8180 N   0  0  0  0  0  0  0  0  0  0  0  0
   56.7190   30.7120   43.7460 C   0  0  0  0  0  0  0  0  0  0  0  0
   55.5220   30.0920   44.4820 C   0  0  0  0  0  0  0  0  0  0  0  0
   56.0040   28.8220   44.8810 O   0  0  0  0  0  0  0  0  0  0  0  0
   60.5000   29.3300   46.2270 C   0  0  0  0  0  0  0  0  0  0  0  0
   60.7830   28.8780   44.8200 C   0  0  0  0  0  0  0  0  0  0  0  0
   61.2060   30.4350   46.7310 C   0  0  0  0  0  0  0  0  0  0  0  0
   60.9960   30.8890   48.0380 C   0  0  0  0  0  0  0  0  0  0  0  0
   61.6830   32.0490   48.5210 N   0  0  0  0  0  0  0  0  0  0  0  0
   61.4330   33.5890   47.7700 S   0  0  0  0  0  0  0  0  0  0  0  0
   61.4610   34.6650   48.8190 O   0  0  0  0  0  0  0  0  0  0  0  0
   62.5270   33.8640   46.7770 O   0  0  0  0  0  0  0  0  0  0  0  0
   59.8610   33.5910   46.9760 C   0  0  0  0  0  0  0  0  0  0  0  0
   59.7500   33.9730   45.6300 C   0  0  0  0  0  0  0  0  0  0  0  0
   58.5120   33.9140   44.9840 C   0  0  0  0  0  0  0  0  0  0  0  0
   57.3790   33.4790   45.6780 C   0  0  0  0  0  0  0  0  0  0  0  0
   57.4840   33.1040   47.0200 C   0  0  0  0  0  0  0  0  0  0  0  0
   58.7220   33.1500   47.6650 C   0  0  0  0  0  0  0  0  0  0  0  0
   58.3300   29.3470   51.5660 C   0  0  0  0  0  0  0  0  0  0  0  0
   57.1400   29.5120   52.0970 O   0  0  0  0  0  0  0  0  0  0  0  0
   55.3115   31.2484   53.2819 H   0  0  0  0  0  0  0  0  0  0  0  0
   55.2286   32.2507   51.7936 H   0  0  0  0  0  0  0  0  0  0  0  0
   54.5552   30.5854   51.7936 H   0  0  0  0  0  0  0  0  0  0  0  0
   57.4978   32.3431   50.4863 H   0  0  0  0  0  0  0  0  0  0  0  0
   58.6200   28.6335   49.0103 H   0  0  0  0  0  0  0  0  0  0  0  0
   59.0770   27.5377   44.1380 H   0  0  0  0  0  0  0  0  0  0  0  0
   57.5695   26.5744   44.4324 H   0  0  0  0  0  0  0  0  0  0  0  0
   57.0428   31.6382   44.2433 H   0  0  0  0  0  0  0  0  0  0  0  0
   56.4742   30.9843   42.7087 H   0  0  0  0  0  0  0  0  0  0  0  0
   55.2401   30.6982   45.3555 H   0  0  0  0  0  0  0  0  0  0  0  0
   54.6184   30.0316   43.8576 H   0  0  0  0  0  0  0  0  0  0  0  0
   61.3666   27.9459   44.8447 H   0  0  0  0  0  0  0  0  0  0  0  0
   59.8334   28.7022   44.2934 H   0  0  0  0  0  0  0  0  0  0  0  0
   61.3559   29.6555   44.2934 H   0  0  0  0  0  0  0  0  0  0  0  0
   61.9348   30.9511   46.0887 H   0  0  0  0  0  0  0  0  0  0  0  0
   62.0540   32.0490   49.4980 H   0  0  0  0  0  0  0  0  0  0  0  0
   60.6390   34.3194   45.0825 H   0  0  0  0  0  0  0  0  0  0  0  0
   58.4290   34.2103   43.9279 H   0  0  0  0  0  0  0  0  0  0  0  0
   56.4055   33.4320   45.1680 H   0  0  0  0  0  0  0  0  0  0  0  0
   56.5905   32.7721   47.5691 H   0  0  0  0  0  0  0  0  0  0  0  0
   58.8038   32.8393   48.7170 H   0  0  0  0  0  0  0  0  0  0  0  0
   58.9645   28.4561   51.6832 H   0  0  0  0  0  0  0  0  0  0  0  0
  1  2  1  0
  2  3  2  0
  3  4  1  0
  4  5  1  0
  5  6  1  0
  6  7  2  0
  7  8  1  0
  8  9  1  0
  9 10  2  0
  9 11  2  0
  9 12  1  0
 12 13  1  0
 13 14  2  0
 14 15  1  0
 15 16  1  0
 16 17  1  0
  8 18  2  0
 18 19  1  0
 18 20  1  0
 20 21  2  0
 21 22  1  0
 22 23  1  0
 23 24  2  0
 23 25  2  0
 23 26  1  0
 26 27  2  0
 27 28  1  0
 28 29  2  0
 29 30  1  0
 30 31  2  0
  4 32  2  0
 32 33  1  0
 33  2  1  0
 21  6  1  0
 31 26  1  0
 17 13  1  0
  1 34  1  0
  1 35  1  0
  1 36  1  0
  3 37  1  0
  7 38  1  0
 12 39  1  0
 12 40  1  0
 15 41  1  0
 15 42  1  0
 16 43  1  0
 16 44  1  0
 19 45  1  0
 19 46  1  0
 19 47  1  0
 20 48  1  0
 22 49  1  0
 27 50  1  0
 28 51  1  0
 29 52  1  0
 30 53  1  0
 31 54  1  0
 32 55  1  0
M  END
>  <UniqueID>  (17) 
16

>  <SMILES>  (17) 
Cc1cc(Oc2cc(S(=O)(=O)CC3=NCCO3)c(C)cc2NS(=O)(=O)c2ccccc2)co1

>  <Energy>  (17) 
101.17012995896576

>  <Genealogy>  (17) 
Cc1cc(Oc2cc(S(=O)(=O)CC3=NCCO3)c(C)cc2NS(=O)(=O)c2ccccc2)co1 (3D coordinates assigned)
Cc1cc(Oc2cc(S(=O)(=O)CC3=NCCO3)c(C)cc2NS(=O)(=O)c2ccccc2)co1 (nonaromatic ring conformer: 101.17012995896576 kcal/mol)

>  <smiles>  (17) 
Cc1cc(Oc2cc(S(=O)(=O)CC3=NCCO3)c(C)cc2NS(=O)(=O)c2ccccc2)co1

>  <score_type>  (17) 
oracle

>  <origin>  (17) 
adg

>  <m_score__min__energy>  (17) 
-10.1

>  <m_primary>  (17) 
energy

$$$$
17:0
     RDKit          3D

 43 45  0  0  0  0  0  0  0  0999 V2000
   57.8460   27.4480   43.7260 C   0  0  0  0  0  0  0  0  0  0  0  0
   58.0470   28.0930   44.8860 C   0  0  0  0  0  0  0  0  0  0  0  0
   58.1320   27.5470   46.1740 C   0  0  0  0  0  0  0  0  0  0  0  0
   57.9100   26.2930   46.6250 C   0  0  0  0  0  0  0  0  0  0  0  0
   56.6760   25.5200   46.3980 C   0  0  0  0  0  0  0  0  0  0  0  0
   55.5290   26.1430   45.8900 C   0  0  0  0  0  0  0  0  0  0  0  0
   55.5240   27.5090   45.6230 O   0  0  0  0  0  0  0  0  0  0  0  0
   54.4050   25.4150   45.6650 N   0  0  0  0  0  0  0  0  0  0  0  0
   54.3750   24.0790   45.9100 C   0  0  0  0  0  0  0  0  0  0  0  0
   53.3210   23.4250   45.7000 O   0  0  0  0  0  0  0  0  0  0  0  0
   55.4830   23.4470   46.3760 N   0  0  0  0  0  0  0  0  0  0  0  0
   56.6310   24.1320   46.6170 C   0  0  0  0  0  0  0  0  0  0  0  0
   57.6470   23.5120   47.0300 O   0  0  0  0  0  0  0  0  0  0  0  0
   58.4930   28.6260   46.9740 C   0  0  0  0  0  0  0  0  0  0  0  0
   58.7070   28.6150   48.4550 C   0  0  0  0  0  0  0  0  0  0  0  0
   58.5690   29.7450   46.2300 N   0  0  0  0  0  0  0  0  0  0  0  0
   58.3020   29.4230   44.9760 N   0  0  0  0  0  0  0  0  0  0  0  0
   58.2820   30.4170   43.9000 C   0  0  0  0  0  0  0  0  0  0  0  0
   57.1900   31.4110   44.1360 C   0  0  0  0  0  0  0  0  0  0  0  0
   56.0530   31.0160   44.5130 O   0  0  0  0  0  0  0  0  0  0  0  0
   57.4360   32.8020   43.9130 N   0  0  0  0  0  0  0  0  0  0  0  0
   57.1070   33.8410   44.8810 C   0  0  0  0  0  0  0  0  0  0  0  0
   58.1260   33.8550   45.9860 C   0  0  0  0  0  0  0  0  0  0  0  0
   59.2710   34.6610   45.8770 C   0  0  0  0  0  0  0  0  0  0  0  0
   60.2140   34.6910   46.9090 C   0  0  0  0  0  0  0  0  0  0  0  0
   60.0220   33.9160   48.0570 C   0  0  0  0  0  0  0  0  0  0  0  0
   60.9640   33.9390   49.0760 O   0  0  0  0  0  0  0  0  0  0  0  0
   58.8770   33.1210   48.1780 C   0  0  0  0  0  0  0  0  0  0  0  0
   57.9300   33.0920   47.1500 C   0  0  0  0  0  0  0  0  0  0  0  0
   57.8019   28.0128   42.7831 H   0  0  0  0  0  0  0  0  0  0  0  0
   57.7254   26.3547   43.7183 H   0  0  0  0  0  0  0  0  0  0  0  0
   58.7111   25.8125   47.2057 H   0  0  0  0  0  0  0  0  0  0  0  0
   57.7344   28.6650   48.9664 H   0  0  0  0  0  0  0  0  0  0  0  0
   59.2259   27.6890   48.7436 H   0  0  0  0  0  0  0  0  0  0  0  0
   59.3181   29.4829   48.7436 H   0  0  0  0  0  0  0  0  0  0  0  0
   59.2493   30.9400   43.8703 H   0  0  0  0  0  0  0  0  0  0  0  0
   58.1019   29.9062   42.9426 H   0  0  0  0  0  0  0  0  0  0  0  0
   57.1017   34.8192   44.3779 H   0  0  0  0  0  0  0  0  0  0  0  0
   56.1142   33.6358   45.3078 H   0  0  0  0  0  0  0  0  0  0  0  0
   59.4267   35.2716   44.9754 H   0  0  0  0  0  0  0  0  0  0  0  0
   61.1082   35.3252   46.8177 H   0  0  0  0  0  0  0  0  0  0  0  0
   58.7216   32.5173   49.0843 H   0  0  0  0  0  0  0  0  0  0  0  0
   57.0285   32.4700   47.2525 H   0  0  0  0  0  0  0  0  0  0  0  0
  1  2  2  0
  2  3  1  0
  3  4  2  3
  4  5  1  0
  5  6  2  0
  6  7  1  0
  6  8  1  0
  8  9  1  0
  9 10  2  0
  9 11  1  0
 11 12  1  0
 12 13  2  0
  3 14  1  0
 14 15  1  0
 14 16  2  0
 16 17  1  0
 17 18  1  0
 18 19  1  0
 19 20  2  0
 19 21  1  0
 21 22  1  0
 22 23  1  0
 23 24  2  0
 24 25  1  0
 25 26  2  0
 26 27  1  0
 26 28  1  0
 28 29  2  0
 17  2  1  0
 29 23  1  0
 12  5  1  0
  1 30  1  0
  1 31  1  0
  4 32  1  0
 15 33  1  0
 15 34  1  0
 15 35  1  0
 18 36  1  0
 18 37  1  0
 22 38  1  0
 22 39  1  0
 24 40  1  0
 25 41  1  0
 28 42  1  0
 29 43  1  0
M  CHG  5   7  -1   8  -1  11  -1  21  -1  27  -1
M  END
>  <UniqueID>  (18) 
17

>  <SMILES>  (18) 
C=c1c(=Cc2c([O-])[n-]c(=O)[n-]c2=O)c(C)nn1CC(=O)[N-]Cc1ccc([O-])cc1

>  <Energy>  (18) 
84.7666754631045

>  <Genealogy>  (18) 
C=c1c(=Cc2c([O-])[n-]c(=O)[n-]c2=O)c(C)nn1CC(=O)[N-]Cc1ccc([O-])cc1 (protonated)
C=c1c(=Cc2c([O-])[n-]c(=O)[n-]c2=O)c(C)nn1CC(=O)[N-]Cc1ccc([O-])cc1 (3D coordinates assigned)
C=c1c(=Cc2c([O-])[n-]c(=O)[n-]c2=O)c(C)nn1CC(=O)[N-]Cc1ccc([O-])cc1 (optimized conformer: 84.7666754631045 kcal/mol)

>  <smiles>  (18) 
C=c1c(=Cc2c(O)[nH]c(=O)[nH]c2=O)c(C)nn1CC(=O)NCc1ccc(O)cc1

>  <score_type>  (18) 
oracle

>  <origin>  (18) 
adg

>  <m_score__min__energy>  (18) 
-18.030000000000001

>  <m_primary>  (18) 
energy

$$$$
18:0
     RDKit          3D

 45 48  0  0  0  0  0  0  0  0999 V2000
   54.5731   30.2027   43.6176 H   0  0  0  0  0  0  0  0  0  0  0  0
   55.5240   30.1000   44.1610 C   0  0  0  0  0  0  0  0  0  0  0  0
   55.7800   28.9730   44.8690 N   0  0  0  0  0  0  0  0  0  0  0  0
   56.9460   28.8050   45.5430 C   0  0  0  0  0  0  0  0  0  0  0  0
   57.1239   27.8716   46.0972 H   0  0  0  0  0  0  0  0  0  0  0  0
   57.9280   29.8090   45.5410 C   0  0  0  0  0  0  0  0  0  0  0  0
   59.2470   29.4620   46.1040 C   0  0  0  0  0  0  0  0  0  0  0  0
   60.0410   28.7700   45.4100 O   0  0  0  0  0  0  0  0  0  0  0  0
   59.6350   29.8840   47.4240 N   0  0  0  0  0  0  0  0  0  0  0  0
   60.9200   29.5480   48.0100 C   0  0  0  0  0  0  0  0  0  0  0  0
   60.9394   28.4898   48.3099 H   0  0  0  0  0  0  0  0  0  0  0  0
   61.7427   29.6970   47.2951 H   0  0  0  0  0  0  0  0  0  0  0  0
   61.0670   30.4480   49.2300 C   0  0  0  0  0  0  0  0  0  0  0  0
   61.4403   29.8702   50.0884 H   0  0  0  0  0  0  0  0  0  0  0  0
   61.7852   31.2608   49.0468 H   0  0  0  0  0  0  0  0  0  0  0  0
   59.6710   30.9910   49.5230 C   0  0  0  0  0  0  0  0  0  0  0  0
   59.2024   30.4205   50.3385 H   0  0  0  0  0  0  0  0  0  0  0  0
   59.7067   32.0438   49.8399 H   0  0  0  0  0  0  0  0  0  0  0  0
   58.8760   30.8230   48.2350 C   0  0  0  0  0  0  0  0  0  0  0  0
   57.8752   30.4211   48.4516 H   0  0  0  0  0  0  0  0  0  0  0  0
   58.7331   31.7832   47.7178 H   0  0  0  0  0  0  0  0  0  0  0  0
   57.6620   31.0220   44.8360 C   0  0  0  0  0  0  0  0  0  0  0  0
   58.4640   32.0550   44.8040 N   0  0  0  0  0  0  0  0  0  0  0  0
   58.3630   33.3140   45.4820 C   0  0  0  0  0  0  0  0  0  0  0  0
   57.2400   33.7620   45.8340 O   0  0  0  0  0  0  0  0  0  0  0  0
   59.5830   34.1690   45.6290 C   0  0  0  0  0  0  0  0  0  0  0  0
   60.3615   33.8109   44.9393 H   0  0  0  0  0  0  0  0  0  0  0  0
   59.3186   35.2105   45.3936 H   0  0  0  0  0  0  0  0  0  0  0  0
   60.1040   34.1050   47.0420 C   0  0  0  0  0  0  0  0  0  0  0  0
   59.2200   34.3220   48.0510 N   0  0  0  0  0  0  0  0  0  0  0  0
   59.5750   34.2640   49.3340 N   0  0  0  0  0  0  0  0  0  0  0  0
   60.8450   33.9760   49.7110 C   0  0  0  0  0  0  0  0  0  0  0  0
   61.1290   33.9360   50.9380 O   0  0  0  0  0  0  0  0  0  0  0  0
   61.8190   33.7280   48.7300 C   0  0  0  0  0  0  0  0  0  0  0  0
   63.1460   33.4190   49.0810 C   0  0  0  0  0  0  0  0  0  0  0  0
   63.4356   33.3744   50.1413 H   0  0  0  0  0  0  0  0  0  0  0  0
   64.0960   33.1690   48.0910 C   0  0  0  0  0  0  0  0  0  0  0  0
   65.1315   32.9277   48.3729 H   0  0  0  0  0  0  0  0  0  0  0  0
   63.7370   33.2240   46.7460 C   0  0  0  0  0  0  0  0  0  0  0  0
   64.4906   33.0246   45.9699 H   0  0  0  0  0  0  0  0  0  0  0  0
   62.4250   33.5310   46.3780 C   0  0  0  0  0  0  0  0  0  0  0  0
   62.1518   33.5720   45.3132 H   0  0  0  0  0  0  0  0  0  0  0  0
   61.4470   33.7890   47.3630 C   0  0  0  0  0  0  0  0  0  0  0  0
   56.4630   31.1290   44.1200 C   0  0  0  0  0  0  0  0  0  0  0  0
   56.2614   32.0300   43.5221 H   0  0  0  0  0  0  0  0  0  0  0  0
  1  2  1  0
  2  3  1  0
  3  4  1  0
  4  5  1  0
  4  6  2  0
  6  7  1  0
  7  8  2  0
  7  9  1  0
  9 10  1  0
 10 11  1  0
 10 12  1  0
 10 13  1  0
 13 14  1  0
 13 15  1  0
 13 16  1  0
 16 17  1  0
 16 18  1  0
 16 19  1  0
 19 20  1  0
 19 21  1  0
  6 22  1  0
 22 23  2  0
 23 24  1  0
 24 25  2  0
 24 26  1  0
 26 27  1  0
 26 28  1  0
 26 29  1  0
 29 30  2  0
 30 31  1  0
 31 32  1  0
 32 33  2  0
 32 34  1  0
 34 35  2  0
 35 36  1  0
 35 37  1  0
 37 38  1  0
 37 39  2  0
 39 40  1  0
 39 41  1  0
 41 42  1  0
 41 43  2  0
 22 44  1  0
 44 45  1  0
 44  2  2  0
 19  9  1  0
 43 29  1  0
 43 34  1  0
M  CHG  2   3  -1  31  -1
M  END
>  <UniqueID>  (19) 
18

>  <SMILES>  (19) 
O=C(Cc1n[n-]c(=O)c2ccccc12)/N=c1/cc[n-]cc1C(=O)N1CCCC1

>  <Energy>  (19) 
74.46416849387323

>  <Genealogy>  (19) 
O=C(Cc1n[n-]c(=O)c2ccccc12)N=c1cc[n-]cc1C(=O)N1CCCC1 (protonated)
O=C(Cc1n[n-]c(=O)c2ccccc12)/N=c1/cc[n-]cc1C(=O)N1CCCC1 (cis-trans isomerization)
O=C(Cc1n[n-]c(=O)c2ccccc12)/N=c1/cc[n-]cc1C(=O)N1CCCC1 (3D coordinates assigned)
O=C(Cc1n[n-]c(=O)c2ccccc12)/N=c1/cc[n-]cc1C(=O)N1CCCC1 (nonaromatic ring conformer: 74.46416849387323 kcal/mol)

>  <smiles>  (19) 
O=C(Cc1n[nH]c(=O)c2ccccc12)N=c1cc[nH]cc1C(=O)N1CCCC1

>  <score_type>  (19) 
oracle

>  <origin>  (19) 
adg

>  <m_score__min__energy>  (19) 
-11.890000000000001

>  <m_primary>  (19) 
energy

$$$$
19:0
     RDKit          3D

 38 41  0  0  0  0  0  0  0  0999 V2000
   60.3710   29.0890   46.8320 C   0  0  0  0  0  0  0  0  0  0  0  0
   59.1510   28.5960   46.5240 C   0  0  0  0  0  0  0  0  0  0  0  0
   58.8510   27.2440   46.8210 C   0  0  0  0  0  0  0  0  0  0  0  0
   59.6980   26.5260   47.4240 O   0  0  0  0  0  0  0  0  0  0  0  0
   57.5780   26.7310   46.4800 C   0  0  0  0  0  0  0  0  0  0  0  0
   57.1830   25.4560   46.6820 C   0  0  0  0  0  0  0  0  0  0  0  0
   56.2450   24.6850   45.8430 C   0  0  0  0  0  0  0  0  0  0  0  0
   56.5800   23.4950   45.1760 C   0  0  0  0  0  0  0  0  0  0  0  0
   55.5620   23.0070   44.3620 C   0  0  0  0  0  0  0  0  0  0  0  0
   54.2570   24.0700   44.4390 S   0  0  0  0  0  0  0  0  0  0  0  0
   54.9800   25.1440   45.5060 C   0  0  0  0  0  0  0  0  0  0  0  0
   54.3940   26.3130   45.9730 O   0  0  0  0  0  0  0  0  0  0  0  0
   56.6680   27.5780   45.9400 N   0  0  0  0  0  0  0  0  0  0  0  0
   56.9460   28.8750   45.6690 C   0  0  0  0  0  0  0  0  0  0  0  0
   56.0460   29.5960   45.1570 O   0  0  0  0  0  0  0  0  0  0  0  0
   58.1850   29.3900   45.9410 N   0  0  0  0  0  0  0  0  0  0  0  0
   58.4370   30.7700   45.6060 C   0  0  0  0  0  0  0  0  0  0  0  0
   58.2040   31.2290   44.3020 C   0  0  0  0  0  0  0  0  0  0  0  0
   58.4470   32.5650   43.9700 C   0  0  0  0  0  0  0  0  0  0  0  0
   58.9250   33.4570   44.9410 C   0  0  0  0  0  0  0  0  0  0  0  0
   59.1730   34.8000   44.6200 C   0  0  0  0  0  0  0  0  0  0  0  0
   59.6480   35.6800   45.5970 C   0  0  0  0  0  0  0  0  0  0  0  0
   59.8800   35.2270   46.8990 C   0  0  0  0  0  0  0  0  0  0  0  0
   59.6370   33.8910   47.2330 C   0  0  0  0  0  0  0  0  0  0  0  0
   59.1590   32.9980   46.2610 C   0  0  0  0  0  0  0  0  0  0  0  0
   58.9110   31.6550   46.5840 C   0  0  0  0  0  0  0  0  0  0  0  0
   60.6137   30.1377   46.6054 H   0  0  0  0  0  0  0  0  0  0  0  0
   61.1213   28.4416   47.3093 H   0  0  0  0  0  0  0  0  0  0  0  0
   57.6018   24.9406   47.5589 H   0  0  0  0  0  0  0  0  0  0  0  0
   57.5542   22.9963   45.2865 H   0  0  0  0  0  0  0  0  0  0  0  0
   55.6026   22.0822   43.7679 H   0  0  0  0  0  0  0  0  0  0  0  0
   57.8281   30.5344   43.5363 H   0  0  0  0  0  0  0  0  0  0  0  0
   58.2628   32.9176   42.9445 H   0  0  0  0  0  0  0  0  0  0  0  0
   58.9932   35.1616   43.5968 H   0  0  0  0  0  0  0  0  0  0  0  0
   59.8398   36.7323   45.3404 H   0  0  0  0  0  0  0  0  0  0  0  0
   60.2549   35.9237   47.6632 H   0  0  0  0  0  0  0  0  0  0  0  0
   59.8207   33.5393   48.2589 H   0  0  0  0  0  0  0  0  0  0  0  0
   59.0892   31.2957   47.6083 H   0  0  0  0  0  0  0  0  0  0  0  0
  1  2  2  0
  2  3  1  0
  3  4  2  0
  3  5  1  0
  5  6  2  3
  6  7  1  0
  7  8  1  0
  8  9  2  0
  9 10  1  0
 10 11  1  0
 11 12  1  0
  5 13  1  0
 13 14  1  0
 14 15  2  0
 14 16  1  0
 16 17  1  0
 17 18  2  0
 18 19  1  0
 19 20  2  0
 20 21  1  0
 21 22  2  0
 22 23  1  0
 23 24  2  0
 24 25  1  0
 25 26  2  0
 16  2  1  0
 26 17  1  0
 11  7  2  0
 25 20  1  0
  1 27  1  0
  1 28  1  0
  6 29  1  0
  8 30  1  0
  9 31  1  0
 18 32  1  0
 19 33  1  0
 21 34  1  0
 22 35  1  0
 23 36  1  0
 24 37  1  0
 26 38  1  0
M  CHG  2  12  -1  13  -1
M  END
>  <UniqueID>  (20) 
19

>  <SMILES>  (20) 
C=c1c(=O)c(=Cc2ccsc2[O-])[n-]c(=O)n1-c1ccc2ccccc2c1

>  <Energy>  (20) 
100.98152978822543

>  <Genealogy>  (20) 
C=c1c(=O)c(=Cc2ccsc2[O-])[n-]c(=O)n1-c1ccc2ccccc2c1 (protonated)
C=c1c(=O)c(=Cc2ccsc2[O-])[n-]c(=O)n1-c1ccc2ccccc2c1 (3D coordinates assigned)
C=c1c(=O)c(=Cc2ccsc2[O-])[n-]c(=O)n1-c1ccc2ccccc2c1 (optimized conformer: 100.98152978822543 kcal/mol)

>  <smiles>  (20) 
C=c1c(=O)c(=Cc2ccsc2O)[nH]c(=O)n1-c1ccc2ccccc2c1

>  <score_type>  (20) 
oracle

>  <origin>  (20) 
adg

>  <m_score__min__energy>  (20) 
-14.390000000000001

>  <m_primary>  (20) 
energy

$$$$
20:0
     RDKit          3D

 62 64  0  0  0  0  0  0  0  0999 V2000
   63.6870   31.6260   51.2210 C   0  0  0  0  0  0  0  0  0  0  0  0
   62.2770   31.4470   51.1290 O   0  0  0  0  0  0  0  0  0  0  0  0
   61.6460   30.4750   50.3370 C   0  0  0  0  0  0  0  0  0  0  0  0
   61.3660   29.1880   50.8380 C   0  0  0  0  0  0  0  0  0  0  0  0
   60.7750   28.2220   50.0250 C   0  0  0  0  0  0  0  0  0  0  0  0
   60.4500   28.5160   48.6930 C   0  0  0  0  0  0  0  0  0  0  0  0
   59.7860   27.5030   47.8440 C   0  0  0  0  0  0  0  0  0  0  0  0
   59.7270   26.3070   48.2370 O   0  0  0  0  0  0  0  0  0  0  0  0
   59.2040   27.8640   46.5810 N   0  0  0  0  0  0  0  0  0  0  0  0
   59.9840   28.6380   45.6080 C   0  0  0  0  0  0  0  0  0  0  0  0
   59.0880   29.6800   44.9380 C   0  0  0  0  0  0  0  0  0  0  0  0
   57.8100   29.0620   44.3060 C   0  0  0  0  0  0  0  0  0  0  0  0
   56.5930   29.9220   44.6000 C   0  0  0  0  0  0  0  0  0  0  0  0
   55.5450   29.3690   45.0240 O   0  0  0  0  0  0  0  0  0  0  0  0
   56.5860   31.3500   44.4340 N   0  0  0  0  0  0  0  0  0  0  0  0
   57.4020   32.3360   45.1470 C   0  0  0  0  0  0  0  0  0  0  0  0
   57.9040   31.7490   46.4890 C   0  0  0  0  0  0  0  0  0  0  0  0
   58.1340   32.7860   47.6060 C   0  0  0  0  0  0  0  0  0  0  0  0
   58.4570   34.1890   47.0880 C   0  0  0  0  0  0  0  0  0  0  0  0
   59.6490   34.2200   46.1270 C   0  0  0  0  0  0  0  0  0  0  0  0
   59.1980   34.2100   44.6600 C   0  0  0  0  0  0  0  0  0  0  0  0
   58.5170   32.9020   44.2260 C   0  0  0  0  0  0  0  0  0  0  0  0
   57.5610   27.5920   44.7300 C   0  0  0  0  0  0  0  0  0  0  0  0
   57.8890   27.3210   46.2070 C   0  0  0  0  0  0  0  0  0  0  0  0
   60.7490   29.7890   48.1820 C   0  0  0  0  0  0  0  0  0  0  0  0
   61.3100   30.7790   49.0010 C   0  0  0  0  0  0  0  0  0  0  0  0
   61.5410   32.0750   48.4290 N   0  0  0  0  0  0  0  0  0  0  0  0
   62.8970   32.4910   47.4250 S   0  0  0  0  0  0  0  0  0  0  0  0
   64.1250   33.3680   48.3730 C   0  0  0  0  0  0  0  0  0  0  0  0
   63.4970   31.2550   46.8160 O   0  0  0  0  0  0  0  0  0  0  0  0
   62.4210   33.3940   46.3230 O   0  0  0  0  0  0  0  0  0  0  0  0
   63.9835   31.6636   52.2796 H   0  0  0  0  0  0  0  0  0  0  0  0
   64.1963   30.7853   50.7272 H   0  0  0  0  0  0  0  0  0  0  0  0
   63.9701   32.5673   50.7272 H   0  0  0  0  0  0  0  0  0  0  0  0
   61.6162   28.9432   51.8808 H   0  0  0  0  0  0  0  0  0  0  0  0
   60.5621   27.2222   50.4312 H   0  0  0  0  0  0  0  0  0  0  0  0
   60.8117   29.1460   46.1246 H   0  0  0  0  0  0  0  0  0  0  0  0
   60.3866   27.9587   44.8422 H   0  0  0  0  0  0  0  0  0  0  0  0
   58.7836   30.4191   45.6937 H   0  0  0  0  0  0  0  0  0  0  0  0
   59.6685   30.1408   44.1252 H   0  0  0  0  0  0  0  0  0  0  0  0
   57.9833   29.0427   43.2199 H   0  0  0  0  0  0  0  0  0  0  0  0
   56.7872   33.2073   45.4169 H   0  0  0  0  0  0  0  0  0  0  0  0
   57.1578   31.0234   46.8449 H   0  0  0  0  0  0  0  0  0  0  0  0
   58.8853   31.2980   46.2803 H   0  0  0  0  0  0  0  0  0  0  0  0
   57.2224   32.8438   48.2189 H   0  0  0  0  0  0  0  0  0  0  0  0
   59.0077   32.4479   48.1825 H   0  0  0  0  0  0  0  0  0  0  0  0
   57.5735   34.5787   46.5612 H   0  0  0  0  0  0  0  0  0  0  0  0
   58.7248   34.8046   47.9594 H   0  0  0  0  0  0  0  0  0  0  0  0
   60.2334   35.1330   46.3137 H   0  0  0  0  0  0  0  0  0  0  0  0
   60.2553   33.3196   46.3047 H   0  0  0  0  0  0  0  0  0  0  0  0
   58.4875   35.0364   44.5106 H   0  0  0  0  0  0  0  0  0  0  0  0
   60.1050   34.3162   44.0467 H   0  0  0  0  0  0  0  0  0  0  0  0
   58.0704   33.0755   43.2358 H   0  0  0  0  0  0  0  0  0  0  0  0
   59.3158   32.1463   44.2551 H   0  0  0  0  0  0  0  0  0  0  0  0
   56.5008   27.3540   44.5585 H   0  0  0  0  0  0  0  0  0  0  0  0
   58.2304   26.9612   44.1267 H   0  0  0  0  0  0  0  0  0  0  0  0
   57.1177   27.7904   46.8353 H   0  0  0  0  0  0  0  0  0  0  0  0
   57.9121   26.2318   46.3588 H   0  0  0  0  0  0  0  0  0  0  0  0
   60.5404   30.0126   47.1253 H   0  0  0  0  0  0  0  0  0  0  0  0
   63.9287   33.2278   49.4462 H   0  0  0  0  0  0  0  0  0  0  0  0
   65.1241   32.9779   48.1290 H   0  0  0  0  0  0  0  0  0  0  0  0
   64.0802   34.4397   48.1290 H   0  0  0  0  0  0  0  0  0  0  0  0
  1  2  1  0
  2  3  1  0
  3  4  2  0
  4  5  1  0
  5  6  2  0
  6  7  1  0
  7  8  2  0
  7  9  1  0
  9 10  1  0
 10 11  1  0
 11 12  1  0
 12 13  1  0
 13 14  2  0
 13 15  1  0
 15 16  1  0
 16 17  1  0
 17 18  1  0
 18 19  1  0
 19 20  1  0
 20 21  1  0
 21 22  1  0
 12 23  1  0
 23 24  1  0
  6 25  1  0
 25 26  2  0
 26 27  1  0
 27 28  1  0
 28 29  1  0
 28 30  2  0
 28 31  2  0
 26  3  1  0
 24  9  1  0
 22 16  1  0
  1 32  1  0
  1 33  1  0
  1 34  1  0
  4 35  1  0
  5 36  1  0
 10 37  1  0
 10 38  1  0
 11 39  1  0
 11 40  1  0
 12 41  1  0
 16 42  1  0
 17 43  1  0
 17 44  1  0
 18 45  1  0
 18 46  1  0
 19 47  1  0
 19 48  1  0
 20 49  1  0
 20 50  1  0
 21 51  1  0
 21 52  1  0
 22 53  1  0
 22 54  1  0
 23 55  1  0
 23 56  1  0
 24 57  1  0
 24 58  1  0
 25 59  1  0
 29 60  1  0
 29 61  1  0
 29 62  1  0
M  CHG  2  15  -1  27  -1
M  END
>  <UniqueID>  (21) 
20

>  <SMILES>  (21) 
COc1ccc(C(=O)N2CCC(C(=O)[N-]C3CCCCCC3)CC2)cc1[N-]S(C)(=O)=O

>  <Energy>  (21) 
74.46449674661878

>  <Genealogy>  (21) 
COc1ccc(C(=O)N2CCC(C(=O)[N-]C3CCCCCC3)CC2)cc1[N-]S(C)(=O)=O (protonated)
COc1ccc(C(=O)N2CCC(C(=O)[N-]C3CCCCCC3)CC2)cc1[N-]S(C)(=O)=O (3D coordinates assigned)
COc1ccc(C(=O)N2CCC(C(=O)[N-]C3CCCCCC3)CC2)cc1[N-]S(C)(=O)=O (nonaromatic ring conformer: 74.46449674661878 kcal/mol)

>  <smiles>  (21) 
COc1ccc(C(=O)N2CCC(C(=O)NC3CCCCCC3)CC2)cc1NS(C)(=O)=O

>  <score_type>  (21) 
oracle

>  <origin>  (21) 
adg

>  <m_score__min__energy>  (21) 
-9.2699999999999996

>  <m_primary>  (21) 
energy

$$$$
21:0
     RDKit          3D

 41 43  0  0  0  0  0  0  0  0999 V2000
   60.4561   29.0159   46.3113 H   0  0  0  0  0  0  0  0  0  0  0  0
   60.1120   30.0400   46.5180 C   0  0  0  0  0  0  0  0  0  0  0  0
   60.6813   30.6833   47.2051 H   0  0  0  0  0  0  0  0  0  0  0  0
   58.9920   30.5070   45.9290 C   0  0  0  0  0  0  0  0  0  0  0  0
   58.5860   31.8360   46.2260 C   0  0  0  0  0  0  0  0  0  0  0  0
   59.1960   32.5310   47.2820 O   0  0  0  0  0  0  0  0  0  0  0  0
   59.9140   33.7490   47.0970 C   0  0  0  0  0  0  0  0  0  0  0  0
   59.9208   34.0051   46.0273 H   0  0  0  0  0  0  0  0  0  0  0  0
   59.4193   34.5423   47.6766 H   0  0  0  0  0  0  0  0  0  0  0  0
   61.3310   33.6100   47.5800 C   0  0  0  0  0  0  0  0  0  0  0  0
   62.3760   33.3800   46.6690 C   0  0  0  0  0  0  0  0  0  0  0  0
   62.1576   33.2925   45.5944 H   0  0  0  0  0  0  0  0  0  0  0  0
   63.6930   33.2620   47.1250 C   0  0  0  0  0  0  0  0  0  0  0  0
   64.5062   33.0666   46.4105 H   0  0  0  0  0  0  0  0  0  0  0  0
   63.9770   33.3920   48.4870 C   0  0  0  0  0  0  0  0  0  0  0  0
   65.0137   33.3014   48.8435 H   0  0  0  0  0  0  0  0  0  0  0  0
   62.9450   33.6370   49.3960 C   0  0  0  0  0  0  0  0  0  0  0  0
   63.1706   33.7458   50.4671 H   0  0  0  0  0  0  0  0  0  0  0  0
   61.6260   33.7440   48.9460 C   0  0  0  0  0  0  0  0  0  0  0  0
   60.8157   33.9340   49.6652 H   0  0  0  0  0  0  0  0  0  0  0  0
   57.6190   32.4790   45.4250 C   0  0  0  0  0  0  0  0  0  0  0  0
   57.2240   33.9110   45.6600 C   0  0  0  0  0  0  0  0  0  0  0  0
   57.1708   34.1039   46.7416 H   0  0  0  0  0  0  0  0  0  0  0  0
   57.9720   34.5771   45.2051 H   0  0  0  0  0  0  0  0  0  0  0  0
   56.2403   34.0994   45.2051 H   0  0  0  0  0  0  0  0  0  0  0  0
   57.0200   31.7810   44.3750 C   0  0  0  0  0  0  0  0  0  0  0  0
   56.2820   32.2879   43.7359 H   0  0  0  0  0  0  0  0  0  0  0  0
   57.3460   30.4520   44.1280 C   0  0  0  0  0  0  0  0  0  0  0  0
   56.8692   29.9282   43.2864 H   0  0  0  0  0  0  0  0  0  0  0  0
   58.2730   29.7630   44.9320 C   0  0  0  0  0  0  0  0  0  0  0  0
   58.3860   28.4250   44.7150 C   0  0  0  0  0  0  0  0  0  0  0  0
   59.1137   28.1040   43.9551 H   0  0  0  0  0  0  0  0  0  0  0  0
   57.6230   27.3590   45.4040 C   0  0  0  0  0  0  0  0  0  0  0  0
   56.2330   27.4560   45.5900 C   0  0  0  0  0  0  0  0  0  0  0  0
   55.5300   28.5610   45.1260 O   0  0  0  0  0  0  0  0  0  0  0  0
   55.5610   26.4530   46.2120 N   0  0  0  0  0  0  0  0  0  0  0  0
   56.2060   25.3390   46.6420 C   0  0  0  0  0  0  0  0  0  0  0  0
   55.5630   24.4250   47.2210 O   0  0  0  0  0  0  0  0  0  0  0  0
   57.5420   25.2070   46.4430 N   0  0  0  0  0  0  0  0  0  0  0  0
   58.2600   26.1830   45.8290 C   0  0  0  0  0  0  0  0  0  0  0  0
   59.4990   26.0250   45.6580 O   0  0  0  0  0  0  0  0  0  0  0  0
  1  2  1  0
  2  3  1  0
  2  4  2  0
  4  5  1  0
  5  6  1  0
  6  7  1  0
  7  8  1  0
  7  9  1  0
  7 10  1  0
 10 11  2  0
 11 12  1  0
 11 13  1  0
 13 14  1  0
 13 15  2  0
 15 16  1  0
 15 17  1  0
 17 18  1  0
 17 19  2  0
 19 20  1  0
  5 21  2  0
 21 22  1  0
 22 23  1  0
 22 24  1  0
 22 25  1  0
 21 26  1  0
 26 27  1  0
 26 28  2  0
 28 29  1  0
 28 30  1  0
 30 31  2  0
 31 32  1  0
 31 33  1  0
 33 34  2  0
 34 35  1  0
 34 36  1  0
 36 37  1  0
 37 38  2  0
 37 39  1  0
 39 40  1  0
 40 41  2  0
 30  4  1  0
 40 33  1  0
 19 10  1  0
M  CHG  3  35  -1  36  -1  39  -1
M  END
>  <UniqueID>  (22) 
21

>  <SMILES>  (22) 
C=c1c(OCc2ccccc2)c(C)cc/c1=C/c1c([O-])[n-]c(=O)[n-]c1=O

>  <Energy>  (22) 
73.25928653028767

>  <Genealogy>  (22) 
C=c1c(OCc2ccccc2)c(C)ccc1=Cc1c([O-])[n-]c(=O)[n-]c1=O (protonated)
C=c1c(OCc2ccccc2)c(C)cc/c1=C/c1c([O-])[n-]c(=O)[n-]c1=O (cis-trans isomerization)
C=c1c(OCc2ccccc2)c(C)cc/c1=C/c1c([O-])[n-]c(=O)[n-]c1=O (3D coordinates assigned)
C=c1c(OCc2ccccc2)c(C)cc/c1=C/c1c([O-])[n-]c(=O)[n-]c1=O (optimized conformer: 73.25928653028767 kcal/mol)

>  <smiles>  (22) 
C=c1c(OCc2ccccc2)c(C)ccc1=Cc1c(O)[nH]c(=O)[nH]c1=O

>  <score_type>  (22) 
oracle

>  <origin>  (22) 
adg

>  <m_score__min__energy>  (22) 
-16.100000000000001

>  <m_primary>  (22) 
energy

$$$$
22:0
     RDKit          3D

 65 68  0  0  0  0  0  0  0  0999 V2000
   62.1170   32.7560   45.9750 H   0  0  0  0  0  0  0  0  0  0  0  0
   62.7890   33.2340   46.5630 O   0  0  0  0  0  0  0  0  0  0  0  0
   63.1160   32.7560   47.8320 C   0  0  0  0  0  0  0  0  0  0  0  0
   64.1980   33.3160   48.5240 C   0  0  0  0  0  0  0  0  0  0  0  0
   64.7677   34.1411   48.0717 H   0  0  0  0  0  0  0  0  0  0  0  0
   64.5600   32.8310   49.7910 C   0  0  0  0  0  0  0  0  0  0  0  0
   65.6450   33.3490   50.5110 O   0  0  0  0  0  0  0  0  0  0  0  0
   66.9610   32.8050   50.4930 C   0  0  0  0  0  0  0  0  0  0  0  0
   67.3119   32.6599   51.5254 H   0  0  0  0  0  0  0  0  0  0  0  0
   66.9507   31.8374   49.9699 H   0  0  0  0  0  0  0  0  0  0  0  0
   67.6369   33.4975   49.9699 H   0  0  0  0  0  0  0  0  0  0  0  0
   63.8180   31.7930   50.3650 C   0  0  0  0  0  0  0  0  0  0  0  0
   64.1013   31.4082   51.3558 H   0  0  0  0  0  0  0  0  0  0  0  0
   62.7150   31.2340   49.6940 C   0  0  0  0  0  0  0  0  0  0  0  0
   61.9270   30.2280   50.2760 O   0  0  0  0  0  0  0  0  0  0  0  0
   62.3090   29.4530   51.4050 C   0  0  0  0  0  0  0  0  0  0  0  0
   62.0434   29.9918   52.3265 H   0  0  0  0  0  0  0  0  0  0  0  0
   61.7840   28.4867   51.3810 H   0  0  0  0  0  0  0  0  0  0  0  0
   63.3952   29.2808   51.3810 H   0  0  0  0  0  0  0  0  0  0  0  0
   62.3700   31.7140   48.4140 C   0  0  0  0  0  0  0  0  0  0  0  0
   61.2020   31.1370   47.7010 C   0  0  0  0  0  0  0  0  0  0  0  0
   61.3450   30.7220   46.5190 O   0  0  0  0  0  0  0  0  0  0  0  0
   59.8530   31.0810   48.3100 C   0  0  0  0  0  0  0  0  0  0  0  0
   59.6865   30.3490   49.1140 H   0  0  0  0  0  0  0  0  0  0  0  0
   58.8180   31.8590   47.9520 C   0  0  0  0  0  0  0  0  0  0  0  0
   57.8624   31.7146   48.4773 H   0  0  0  0  0  0  0  0  0  0  0  0
   58.8760   32.8960   46.9000 C   0  0  0  0  0  0  0  0  0  0  0  0
   59.6210   34.0690   47.0970 C   0  0  0  0  0  0  0  0  0  0  0  0
   60.1894   34.2066   48.0287 H   0  0  0  0  0  0  0  0  0  0  0  0
   59.6440   35.0630   46.1150 C   0  0  0  0  0  0  0  0  0  0  0  0
   60.2529   35.9669   46.2637 H   0  0  0  0  0  0  0  0  0  0  0  0
   58.8970   34.9120   44.9470 C   0  0  0  0  0  0  0  0  0  0  0  0
   58.9246   35.6910   44.1709 H   0  0  0  0  0  0  0  0  0  0  0  0
   58.1130   33.7690   44.7640 C   0  0  0  0  0  0  0  0  0  0  0  0
   57.5036   33.6629   43.8544 H   0  0  0  0  0  0  0  0  0  0  0  0
   58.1000   32.7590   45.7330 C   0  0  0  0  0  0  0  0  0  0  0  0
   57.3560   31.6050   45.5040 O   0  0  0  0  0  0  0  0  0  0  0  0
   57.5980   30.7660   44.3820 C   0  0  0  0  0  0  0  0  0  0  0  0
   56.6843   30.6933   43.7738 H   0  0  0  0  0  0  0  0  0  0  0  0
   58.4091   31.1910   43.7725 H   0  0  0  0  0  0  0  0  0  0  0  0
   57.9920   29.3990   44.8600 C   0  0  0  0  0  0  0  0  0  0  0  0
   59.3410   29.0960   45.0940 C   0  0  0  0  0  0  0  0  0  0  0  0
   60.1084   29.8726   44.9601 H   0  0  0  0  0  0  0  0  0  0  0  0
   59.7140   27.8100   45.4970 C   0  0  0  0  0  0  0  0  0  0  0  0
   60.7742   27.5778   45.6761 H   0  0  0  0  0  0  0  0  0  0  0  0
   58.7450   26.8190   45.6730 C   0  0  0  0  0  0  0  0  0  0  0  0
   59.0457   25.8047   45.9744 H   0  0  0  0  0  0  0  0  0  0  0  0
   57.3880   27.1150   45.4660 C   0  0  0  0  0  0  0  0  0  0  0  0
   56.3640   26.0640   45.6300 C   0  0  0  0  0  0  0  0  0  0  0  0
   55.3490   26.3070   46.3400 O   0  0  0  0  0  0  0  0  0  0  0  0
   56.5080   24.7720   45.0120 N   0  0  0  0  0  0  0  0  0  0  0  0
   57.1960   24.5480   43.7470 C   0  0  0  0  0  0  0  0  0  0  0  0
   56.7465   25.1614   42.9522 H   0  0  0  0  0  0  0  0  0  0  0  0
   58.2584   24.8264   43.8081 H   0  0  0  0  0  0  0  0  0  0  0  0
   57.0200   23.0660   43.4380 C   0  0  0  0  0  0  0  0  0  0  0  0
   56.7112   22.9300   42.3910 H   0  0  0  0  0  0  0  0  0  0  0  0
   57.9614   22.5150   43.5799 H   0  0  0  0  0  0  0  0  0  0  0  0
   55.9300   22.5530   44.3820 C   0  0  0  0  0  0  0  0  0  0  0  0
   54.9797   22.4385   43.8399 H   0  0  0  0  0  0  0  0  0  0  0  0
   56.1925   21.5694   44.7986 H   0  0  0  0  0  0  0  0  0  0  0  0
   55.7880   23.5990   45.4800 C   0  0  0  0  0  0  0  0  0  0  0  0
   54.7273   23.8412   45.6422 H   0  0  0  0  0  0  0  0  0  0  0  0
   56.1897   23.2352   46.4372 H   0  0  0  0  0  0  0  0  0  0  0  0
   57.0200   28.4020   45.0390 C   0  0  0  0  0  0  0  0  0  0  0  0
   55.9619   28.6302   44.8434 H   0  0  0  0  0  0  0  0  0  0  0  0
  1  2  1  0
  2  3  1  0
  3  4  2  0
  4  5  1  0
  4  6  1  0
  6  7  1  0
  7  8  1  0
  8  9  1  0
  8 10  1  0
  8 11  1  0
  6 12  2  0
 12 13  1  0
 12 14  1  0
 14 15  1  0
 15 16  1  0
 16 17  1  0
 16 18  1  0
 16 19  1  0
 14 20  2  0
 20 21  1  0
 21 22  2  0
 21 23  1  0
 23 24  1  0
 23 25  2  0
 25 26  1  0
 25 27  1  0
 27 28  2  0
 28 29  1  0
 28 30  1  0
 30 31  1  0
 30 32  2  0
 32 33  1  0
 32 34  1  0
 34 35  1  0
 34 36  2  0
 36 37  1  0
 37 38  1  0
 38 39  1  0
 38 40  1  0
 38 41  1  0
 41 42  2  0
 42 43  1  0
 42 44  1  0
 44 45  1  0
 44 46  2  0
 46 47  1  0
 46 48  1  0
 48 49  1  0
 49 50  2  0
 49 51  1  0
 51 52  1  0
 52 53  1  0
 52 54  1  0
 52 55  1  0
 55 56  1  0
 55 57  1  0
 55 58  1  0
 58 59  1  0
 58 60  1  0
 58 61  1  0
 61 62  1  0
 61 63  1  0
 48 64  2  0
 64 65  1  0
 20  3  1  0
 36 27  1  0
 64 41  1  0
 61 51  1  0
M  END
>  <UniqueID>  (23) 
22

>  <SMILES>  (23) 
COc1cc(O)c(C(=O)/C=C\c2ccccc2OCc2cccc(C(=O)N3CCCC3)c2)c(OC)c1

>  <Energy>  (23) 
89.50486091284586

>  <Genealogy>  (23) 
COc1cc(O)c(C(=O)/C=C\c2ccccc2OCc2cccc(C(=O)N3CCCC3)c2)c(OC)c1 (cis-trans isomerization)
COc1cc(O)c(C(=O)/C=C\c2ccccc2OCc2cccc(C(=O)N3CCCC3)c2)c(OC)c1 (3D coordinates assigned)
COc1cc(O)c(C(=O)/C=C\c2ccccc2OCc2cccc(C(=O)N3CCCC3)c2)c(OC)c1 (nonaromatic ring conformer: 89.50486091284586 kcal/mol)

>  <smiles>  (23) 
COc1cc(O)c(C(=O)C=Cc2ccccc2OCc2cccc(C(=O)N3CCCC3)c2)c(OC)c1

>  <score_type>  (23) 
oracle

>  <origin>  (23) 
adg

>  <m_score__min__energy>  (23) 
-10.77

>  <m_primary>  (23) 
energy

$$$$
23:0
     RDKit          3D

 64 68  0  0  0  0  0  0  0  0999 V2000
   58.5850   31.0070   43.8700 O   0  0  0  0  0  0  0  0  0  0  0  0
   57.6350   31.1670   44.6830 C   0  0  0  0  0  0  0  0  0  0  0  0
   57.0110   32.5140   44.8410 C   0  0  0  0  0  0  0  0  0  0  0  0
   57.9820   33.4510   45.4890 C   0  0  0  0  0  0  0  0  0  0  0  0
   58.8980   34.2600   44.8270 C   0  0  0  0  0  0  0  0  0  0  0  0
   59.6200   35.0930   45.6900 C   0  0  0  0  0  0  0  0  0  0  0  0
   59.2720   34.9470   47.0280 C   0  0  0  0  0  0  0  0  0  0  0  0
   58.0570   33.7850   47.1340 S   0  0  0  0  0  0  0  0  0  0  0  0
   57.2080   30.0970   45.5340 N   0  0  0  0  0  0  0  0  0  0  0  0
   57.8940   28.8570   45.7570 C   0  0  0  0  0  0  0  0  0  0  0  0
   57.1940   27.6350   45.7770 C   0  0  0  0  0  0  0  0  0  0  0  0
   55.8480   27.5980   45.6120 F   0  0  0  0  0  0  0  0  0  0  0  0
   57.8710   26.4420   46.0340 C   0  0  0  0  0  0  0  0  0  0  0  0
   59.2400   26.4560   46.2910 C   0  0  0  0  0  0  0  0  0  0  0  0
   59.9410   27.6620   46.3060 C   0  0  0  0  0  0  0  0  0  0  0  0
   59.2810   28.8790   46.0390 C   0  0  0  0  0  0  0  0  0  0  0  0
   59.9910   30.1400   46.0470 N   0  0  0  0  0  0  0  0  0  0  0  0
   60.2770   30.9340   47.2490 C   0  0  0  0  0  0  0  0  0  0  0  0
   60.9540   30.0510   48.3350 C   0  0  0  0  0  0  0  0  0  0  0  0
   61.9340   30.8360   49.2250 C   0  0  0  0  0  0  0  0  0  0  0  0
   61.5030   32.2340   49.3450 N   0  0  0  0  0  0  0  0  0  0  0  0
   60.9060   32.7060   50.5570 C   0  0  0  0  0  0  0  0  0  0  0  0
   61.3630   33.7340   51.1210 O   0  0  0  0  0  0  0  0  0  0  0  0
   59.6690   32.0940   51.0540 C   0  0  0  0  0  0  0  0  0  0  0  0
   59.5390   30.7020   51.1350 C   0  0  0  0  0  0  0  0  0  0  0  0
   58.3350   30.1320   51.5590 C   0  0  0  0  0  0  0  0  0  0  0  0
   57.2440   30.9470   51.9210 C   0  0  0  0  0  0  0  0  0  0  0  0
   55.9610   30.3410   52.3670 C   0  0  0  0  0  0  0  0  0  0  0  0
   54.7310   30.8690   51.9350 C   0  0  0  0  0  0  0  0  0  0  0  0
   53.5370   30.2890   52.3700 C   0  0  0  0  0  0  0  0  0  0  0  0
   53.5620   29.2190   53.2070 N   0  0  0  0  0  0  0  0  0  0  0  0
   54.7350   28.6820   53.6360 C   0  0  0  0  0  0  0  0  0  0  0  0
   55.9520   29.2310   53.2300 C   0  0  0  0  0  0  0  0  0  0  0  0
   57.3880   32.3450   51.8420 C   0  0  0  0  0  0  0  0  0  0  0  0
   58.5880   32.9110   51.4070 C   0  0  0  0  0  0  0  0  0  0  0  0
   61.3680   33.0460   48.1270 C   0  0  0  0  0  0  0  0  0  0  0  0
   61.1610   32.1500   46.8940 C   0  0  0  0  0  0  0  0  0  0  0  0
   56.7313   32.9050   43.8516 H   0  0  0  0  0  0  0  0  0  0  0  0
   56.1146   32.4267   45.4726 H   0  0  0  0  0  0  0  0  0  0  0  0
   59.0410   34.2471   43.7364 H   0  0  0  0  0  0  0  0  0  0  0  0
   60.3903   35.7969   45.3421 H   0  0  0  0  0  0  0  0  0  0  0  0
   59.7141   35.4960   47.8725 H   0  0  0  0  0  0  0  0  0  0  0  0
   57.3224   25.4886   46.0336 H   0  0  0  0  0  0  0  0  0  0  0  0
   59.7707   25.5118   46.4830 H   0  0  0  0  0  0  0  0  0  0  0  0
   61.0183   27.6635   46.5281 H   0  0  0  0  0  0  0  0  0  0  0  0
   60.3020   30.5370   45.1290 H   0  0  0  0  0  0  0  0  0  0  0  0
   59.3272   31.3094   47.6576 H   0  0  0  0  0  0  0  0  0  0  0  0
   60.1698   29.6188   48.9739 H   0  0  0  0  0  0  0  0  0  0  0  0
   61.5334   29.2751   47.8132 H   0  0  0  0  0  0  0  0  0  0  0  0
   61.9634   30.3780   50.2247 H   0  0  0  0  0  0  0  0  0  0  0  0
   62.9344   30.8073   48.7686 H   0  0  0  0  0  0  0  0  0  0  0  0
   60.3866   30.0553   50.8642 H   0  0  0  0  0  0  0  0  0  0  0  0
   58.2384   29.0375   51.6105 H   0  0  0  0  0  0  0  0  0  0  0  0
   54.7094   31.7352   51.2573 H   0  0  0  0  0  0  0  0  0  0  0  0
   52.5735   30.6998   52.0339 H   0  0  0  0  0  0  0  0  0  0  0  0
   52.6620   28.7980   53.5250 H   0  0  0  0  0  0  0  0  0  0  0  0
   54.7247   27.8102   54.3067 H   0  0  0  0  0  0  0  0  0  0  0  0
   56.8993   28.7976   53.5833 H   0  0  0  0  0  0  0  0  0  0  0  0
   56.5484   32.9968   52.1252 H   0  0  0  0  0  0  0  0  0  0  0  0
   58.6847   34.0048   51.3413 H   0  0  0  0  0  0  0  0  0  0  0  0
   60.5029   33.7169   48.2347 H   0  0  0  0  0  0  0  0  0  0  0  0
   62.2899   33.6297   47.9882 H   0  0  0  0  0  0  0  0  0  0  0  0
   60.6713   32.7339   46.1007 H   0  0  0  0  0  0  0  0  0  0  0  0
   62.1410   31.7880   46.5496 H   0  0  0  0  0  0  0  0  0  0  0  0
  1  2  2  0
  2  3  1  0
  3  4  1  0
  4  5  2  0
  5  6  1  0
  6  7  2  0
  7  8  1  0
  2  9  1  0
  9 10  1  0
 10 11  2  0
 11 12  1  0
 11 13  1  0
 13 14  2  0
 14 15  1  0
 15 16  2  0
 16 17  1  0
 17 18  1  0
 18 19  1  0
 19 20  1  0
 20 21  1  0
 21 22  1  0
 22 23  2  0
 22 24  1  0
 24 25  2  0
 25 26  1  0
 26 27  2  0
 27 28  1  0
 28 29  2  0
 29 30  1  0
 30 31  2  0
 31 32  1  0
 32 33  2  0
 27 34  1  0
 34 35  2  0
 21 36  1  0
 36 37  1  0
  8  4  1  0
 16 10  1  0
 37 18  1  0
 35 24  1  0
 33 28  1  0
  3 38  1  0
  3 39  1  0
  5 40  1  0
  6 41  1  0
  7 42  1  0
 13 43  1  0
 14 44  1  0
 15 45  1  0
 17 46  1  0
 18 47  1  0
 19 48  1  0
 19 49  1  0
 20 50  1  0
 20 51  1  0
 25 52  1  0
 26 53  1  0
 29 54  1  0
 30 55  1  0
 31 56  1  0
 32 57  1  0
 33 58  1  0
 34 59  1  0
 35 60  1  0
 36 61  1  0
 36 62  1  0
 37 63  1  0
 37 64  1  0
M  CHG  2   9  -1  31   1
M  END
>  <UniqueID>  (24) 
23

>  <SMILES>  (24) 
O=C(Cc1cccs1)[N-]c1c(F)cccc1NC1CCN(C(=O)c2ccc(-c3cc[nH+]cc3)cc2)CC1

>  <Energy>  (24) 
117.96551742904867

>  <Genealogy>  (24) 
O=C(Cc1cccs1)[N-]c1c(F)cccc1NC1CCN(C(=O)c2ccc(-c3cc[nH+]cc3)cc2)CC1 (protonated)
O=C(Cc1cccs1)[N-]c1c(F)cccc1NC1CCN(C(=O)c2ccc(-c3cc[nH+]cc3)cc2)CC1 (3D coordinates assigned)
O=C(Cc1cccs1)[N-]c1c(F)cccc1NC1CCN(C(=O)c2ccc(-c3cc[nH+]cc3)cc2)CC1 (nonaromatic ring conformer: 117.96551742904867 kcal/mol)

>  <smiles>  (24) 
O=C(Cc1cccs1)Nc1c(F)cccc1NC1CCN(C(=O)c2ccc(-c3ccncc3)cc2)CC1

>  <score_type>  (24) 
oracle

>  <origin>  (24) 
adg

>  <m_score__min__energy>  (24) 
-10.859999999999999

>  <m_primary>  (24) 
energy

$$$$
24:0
     RDKit          3D

 52 55  0  0  0  0  0  0  0  0999 V2000
   57.3896   24.2695   44.1194 H   0  0  0  0  0  0  0  0  0  0  0  0
   57.7160   25.2970   44.3380 C   0  0  0  0  0  0  0  0  0  0  0  0
   57.7690   26.2460   43.3120 C   0  0  0  0  0  0  0  0  0  0  0  0
   57.4879   25.9624   42.2870 H   0  0  0  0  0  0  0  0  0  0  0  0
   58.1780   27.5530   43.5860 C   0  0  0  0  0  0  0  0  0  0  0  0
   58.2237   28.2937   42.7741 H   0  0  0  0  0  0  0  0  0  0  0  0
   58.5320   27.9270   44.8960 C   0  0  0  0  0  0  0  0  0  0  0  0
   58.4830   26.9680   45.9290 C   0  0  0  0  0  0  0  0  0  0  0  0
   58.0770   25.6520   45.6400 C   0  0  0  0  0  0  0  0  0  0  0  0
   58.0438   24.9001   46.4422 H   0  0  0  0  0  0  0  0  0  0  0  0
   58.8680   27.3450   47.3030 C   0  0  0  0  0  0  0  0  0  0  0  0
   59.1860   26.4410   48.1250 O   0  0  0  0  0  0  0  0  0  0  0  0
   58.9450   28.7840   47.6840 C   0  0  0  0  0  0  0  0  0  0  0  0
   59.0040   29.1850   48.9270 N   0  0  0  0  0  0  0  0  0  0  0  0
   59.8830   30.1610   49.5050 C   0  0  0  0  0  0  0  0  0  0  0  0
   61.1480   29.7880   49.9960 C   0  0  0  0  0  0  0  0  0  0  0  0
   61.4963   28.7506   49.8843 H   0  0  0  0  0  0  0  0  0  0  0  0
   61.9620   30.7330   50.6250 C   0  0  0  0  0  0  0  0  0  0  0  0
   62.9574   30.4425   50.9921 H   0  0  0  0  0  0  0  0  0  0  0  0
   61.5140   32.0480   50.7890 C   0  0  0  0  0  0  0  0  0  0  0  0
   62.1608   32.7885   51.2821 H   0  0  0  0  0  0  0  0  0  0  0  0
   60.2440   32.4280   50.3280 C   0  0  0  0  0  0  0  0  0  0  0  0
   59.7560   33.8380   50.5340 C   0  0  0  0  0  0  0  0  0  0  0  0
   59.6836   34.0472   51.6115 H   0  0  0  0  0  0  0  0  0  0  0  0
   60.4628   34.5420   50.0705 H   0  0  0  0  0  0  0  0  0  0  0  0
   58.7653   33.9545   50.0705 H   0  0  0  0  0  0  0  0  0  0  0  0
   59.4200   31.4720   49.7060 C   0  0  0  0  0  0  0  0  0  0  0  0
   58.1400   31.8230   49.2790 O   0  0  0  0  0  0  0  0  0  0  0  0
   59.0650   29.8430   46.6000 C   0  0  2  0  0  0  0  0  0  0  0  0
   60.0923   30.2226   46.7033 H   0  0  0  0  0  0  0  0  0  0  0  0
   58.1330   30.9850   46.8150 N   0  0  0  0  0  0  0  0  0  0  0  0
   58.0490   31.0670   47.8520 H   0  0  0  0  0  0  0  0  0  0  0  0
   57.1760   30.7670   46.4570 H   0  0  0  0  0  0  0  0  0  0  0  0
   58.5520   32.2660   46.2540 C   0  0  0  0  0  0  0  0  0  0  0  0
   59.5000   33.0720   46.9260 C   0  0  0  0  0  0  0  0  0  0  0  0
   59.9703   32.6994   47.8479 H   0  0  0  0  0  0  0  0  0  0  0  0
   59.8490   34.3340   46.4380 C   0  0  0  0  0  0  0  0  0  0  0  0
   60.5630   34.9582   46.9953 H   0  0  0  0  0  0  0  0  0  0  0  0
   59.2950   34.8070   45.2450 C   0  0  0  0  0  0  0  0  0  0  0  0
   59.5495   35.8130   44.8801 H   0  0  0  0  0  0  0  0  0  0  0  0
   58.4200   34.0020   44.5190 C   0  0  0  0  0  0  0  0  0  0  0  0
   58.0015   34.3707   43.5709 H   0  0  0  0  0  0  0  0  0  0  0  0
   58.0650   32.7200   44.9860 C   0  0  0  0  0  0  0  0  0  0  0  0
   57.2370   31.8750   44.0950 C   0  0  0  0  0  0  0  0  0  0  0  0
   57.3820   31.9550   42.8410 O   0  0  0  0  0  0  0  0  0  0  0  0
   56.3330   30.9510   44.6470 O   0  0  0  0  0  0  0  0  0  0  0  0
   55.7390   29.9090   43.8820 C   0  0  0  0  0  0  0  0  0  0  0  0
   55.3097   29.1559   44.5592 H   0  0  0  0  0  0  0  0  0  0  0  0
   54.9437   30.3275   43.2476 H   0  0  0  0  0  0  0  0  0  0  0  0
   56.5043   29.4379   43.2476 H   0  0  0  0  0  0  0  0  0  0  0  0
   58.9760   29.3090   45.1830 C   0  0  0  0  0  0  0  0  0  0  0  0
   59.2760   30.0750   44.2320 O   0  0  0  0  0  0  0  0  0  0  0  0
  1  2  1  0
  2  3  2  0
  3  4  1  0
  3  5  1  0
  5  6  1  0
  5  7  2  0
  7  8  1  0
  8  9  2  0
  9 10  1  0
  8 11  1  0
 11 12  2  0
 11 13  1  0
 13 14  2  0
 14 15  1  0
 15 16  2  0
 16 17  1  0
 16 18  1  0
 18 19  1  0
 18 20  2  0
 20 21  1  0
 20 22  1  0
 22 23  1  0
 23 24  1  0
 23 25  1  0
 23 26  1  0
 22 27  2  0
 27 28  1  0
 13 29  1  0
 29 30  1  6
 29 31  1  0
 31 32  1  0
 31 33  1  0
 31 34  1  0
 34 35  2  0
 35 36  1  0
 35 37  1  0
 37 38  1  0
 37 39  2  0
 39 40  1  0
 39 41  1  0
 41 42  1  0
 41 43  2  0
 43 44  1  0
 44 45  2  0
 44 46  1  0
 46 47  1  0
 47 48  1  0
 47 49  1  0
 47 50  1  0
 29 51  1  0
 51 52  2  0
  9  2  1  0
 27 15  1  0
 43 34  1  0
 51  7  1  0
M  CHG  2  28  -1  31   1
M  END
>  <UniqueID>  (25) 
24

>  <SMILES>  (25) 
COC(=O)c1ccccc1[NH2+][C@@H]1C(=O)c2ccccc2C(=O)/C1=N\c1cccc(C)c1[O-]

>  <Energy>  (25) 
84.01255973501549

>  <Genealogy>  (25) 
COC(=O)c1ccccc1[NH2+]C1C(=O)c2ccccc2C(=O)C1=Nc1cccc(C)c1[O-] (protonated)
COC(=O)c1ccccc1[NH2+][C@@H]1C(=O)c2ccccc2C(=O)C1=Nc1cccc(C)c1[O-] (chirality)
COC(=O)c1ccccc1[NH2+][C@@H]1C(=O)c2ccccc2C(=O)/C1=N\c1cccc(C)c1[O-] (cis-trans isomerization)
COC(=O)c1ccccc1[NH2+][C@@H]1C(=O)c2ccccc2C(=O)/C1=N\c1cccc(C)c1[O-] (3D coordinates assigned)
COC(=O)c1ccccc1[NH2+][C@@H]1C(=O)c2ccccc2C(=O)/C1=N\c1cccc(C)c1[O-] (nonaromatic ring conformer: 84.01255973501549 kcal/mol)

>  <smiles>  (25) 
COC(=O)c1ccccc1NC1C(=O)c2ccccc2C(=O)C1=Nc1cccc(C)c1O

>  <score_type>  (25) 
oracle

>  <origin>  (25) 
adg

>  <m_score__min__energy>  (25) 
-10.91

>  <m_primary>  (25) 
energy

$$$$
25:0
     RDKit          3D

 55 58  0  0  0  0  0  0  0  0999 V2000
   67.0080   32.6470   51.5180 C   0  0  0  0  0  0  0  0  0  0  0  0
   65.7200   32.5710   51.1680 C   0  0  0  0  0  0  0  0  0  0  0  0
   65.2820   32.5020   49.7180 C   0  0  0  0  0  0  0  0  0  0  0  0
   63.8070   32.4550   49.5580 N   0  0  0  0  0  0  0  0  0  0  0  0
   63.3770   32.6730   48.1420 C   0  0  0  0  0  0  0  0  0  0  0  0
   62.4860   33.9080   47.9610 C   0  0  0  0  0  0  0  0  0  0  0  0
   61.3600   33.8280   48.8990 N   0  0  0  0  0  0  0  0  0  0  0  0
   60.0440   34.2780   48.5230 C   0  0  0  0  0  0  0  0  0  0  0  0
   59.3600   34.9420   49.3460 O   0  0  0  0  0  0  0  0  0  0  0  0
   59.4760   33.9700   47.1880 C   0  0  0  0  0  0  0  0  0  0  0  0
   58.8550   32.7300   46.9600 C   0  0  0  0  0  0  0  0  0  0  0  0
   58.3530   32.4150   45.6920 C   0  0  0  0  0  0  0  0  0  0  0  0
   57.7560   31.1730   45.4330 C   0  0  0  0  0  0  0  0  0  0  0  0
   57.2790   30.8740   44.1480 C   0  0  0  0  0  0  0  0  0  0  0  0
   56.5290   29.3120   43.8260 S   0  0  0  0  0  0  0  0  0  0  0  0
   56.2830   29.1820   42.3500 O   0  0  0  0  0  0  0  0  0  0  0  0
   55.2050   29.2560   44.5340 O   0  0  0  0  0  0  0  0  0  0  0  0
   57.5000   27.9750   44.3550 N   0  0  0  0  0  0  0  0  0  0  0  0
   58.3070   27.9610   45.5380 C   0  0  0  0  0  0  0  0  0  0  0  0
   57.8960   27.2910   46.7020 C   0  0  0  0  0  0  0  0  0  0  0  0
   58.7220   27.2710   47.8320 C   0  0  0  0  0  0  0  0  0  0  0  0
   59.9720   27.8960   47.7980 C   0  0  0  0  0  0  0  0  0  0  0  0
   60.7760   27.8680   48.8910 F   0  0  0  0  0  0  0  0  0  0  0  0
   60.4020   28.5340   46.6300 C   0  0  0  0  0  0  0  0  0  0  0  0
   59.5760   28.5580   45.5020 C   0  0  0  0  0  0  0  0  0  0  0  0
   57.3910   31.8280   43.1250 C   0  0  0  0  0  0  0  0  0  0  0  0
   57.9750   33.0710   43.3820 C   0  0  0  0  0  0  0  0  0  0  0  0
   58.4590   33.3680   44.6590 C   0  0  0  0  0  0  0  0  0  0  0  0
   59.0360   34.5730   44.9070 N   0  0  0  0  0  0  0  0  0  0  0  0
   59.5380   34.8980   46.1280 C   0  0  0  0  0  0  0  0  0  0  0  0
   60.0720   36.0270   46.2900 O   0  0  0  0  0  0  0  0  0  0  0  0
   61.6240   33.4340   50.2890 C   0  0  0  0  0  0  0  0  0  0  0  0
   63.1330   33.3300   50.5530 C   0  0  0  0  0  0  0  0  0  0  0  0
   67.2872   32.6955   52.5809 H   0  0  0  0  0  0  0  0  0  0  0  0
   67.7886   32.6611   50.7431 H   0  0  0  0  0  0  0  0  0  0  0  0
   64.9536   32.5581   51.9570 H   0  0  0  0  0  0  0  0  0  0  0  0
   65.6630   33.3911   49.1943 H   0  0  0  0  0  0  0  0  0  0  0  0
   65.6880   31.5707   49.2962 H   0  0  0  0  0  0  0  0  0  0  0  0
   63.5290   31.4740   49.8060 H   0  0  0  0  0  0  0  0  0  0  0  0
   64.2755   32.7966   47.5195 H   0  0  0  0  0  0  0  0  0  0  0  0
   62.7829   31.7966   47.8437 H   0  0  0  0  0  0  0  0  0  0  0  0
   63.0708   34.8173   48.1639 H   0  0  0  0  0  0  0  0  0  0  0  0
   62.1073   33.9444   46.9289 H   0  0  0  0  0  0  0  0  0  0  0  0
   58.7631   32.0041   47.7814 H   0  0  0  0  0  0  0  0  0  0  0  0
   57.6614   30.4311   46.2396 H   0  0  0  0  0  0  0  0  0  0  0  0
   56.9220   26.7804   46.7257 H   0  0  0  0  0  0  0  0  0  0  0  0
   58.3870   26.7627   48.7482 H   0  0  0  0  0  0  0  0  0  0  0  0
   61.3899   29.0168   46.5988 H   0  0  0  0  0  0  0  0  0  0  0  0
   59.9234   29.0481   44.5805 H   0  0  0  0  0  0  0  0  0  0  0  0
   57.0175   31.5963   42.1166 H   0  0  0  0  0  0  0  0  0  0  0  0
   58.0540   33.8172   42.5777 H   0  0  0  0  0  0  0  0  0  0  0  0
   61.1914   34.1864   50.9648 H   0  0  0  0  0  0  0  0  0  0  0  0
   61.1678   32.4491   50.4673 H   0  0  0  0  0  0  0  0  0  0  0  0
   63.5743   34.3362   50.4995 H   0  0  0  0  0  0  0  0  0  0  0  0
   63.2767   32.8886   51.5503 H   0  0  0  0  0  0  0  0  0  0  0  0
  1  2  2  0
  2  3  1  0
  3  4  1  0
  4  5  1  0
  5  6  1  0
  6  7  1  0
  7  8  1  0
  8  9  2  0
  8 10  1  0
 10 11  2  0
 11 12  1  0
 12 13  2  0
 13 14  1  0
 14 15  1  0
 15 16  2  0
 15 17  2  0
 15 18  1  0
 18 19  1  0
 19 20  2  0
 20 21  1  0
 21 22  2  0
 22 23  1  0
 22 24  1  0
 24 25  2  0
 14 26  2  0
 26 27  1  0
 27 28  2  0
 28 29  1  0
 29 30  1  0
 30 31  2  0
  7 32  1  0
 32 33  1  0
 33  4  1  0
 30 10  1  0
 28 12  1  0
 25 19  1  0
  1 34  1  0
  1 35  1  0
  2 36  1  0
  3 37  1  0
  3 38  1  0
  4 39  1  0
  5 40  1  0
  5 41  1  0
  6 42  1  0
  6 43  1  0
 11 44  1  0
 13 45  1  0
 20 46  1  0
 21 47  1  0
 24 48  1  0
 25 49  1  0
 26 50  1  0
 27 51  1  0
 32 52  1  0
 32 53  1  0
 33 54  1  0
 33 55  1  0
M  CHG  3   4   1  18  -1  29  -1
M  END
>  <UniqueID>  (26) 
25

>  <SMILES>  (26) 
C=CC[NH+]1CCN(C(=O)c2cc3cc(S(=O)(=O)[N-]c4ccc(F)cc4)ccc3[n-]c2=O)CC1

>  <Energy>  (26) 
84.57393313423412

>  <Genealogy>  (26) 
C=CC[NH+]1CCN(C(=O)c2cc3cc(S(=O)(=O)[N-]c4ccc(F)cc4)ccc3[n-]c2=O)CC1 (protonated)
C=CC[NH+]1CCN(C(=O)c2cc3cc(S(=O)(=O)[N-]c4ccc(F)cc4)ccc3[n-]c2=O)CC1 (3D coordinates assigned)
C=CC[NH+]1CCN(C(=O)c2cc3cc(S(=O)(=O)[N-]c4ccc(F)cc4)ccc3[n-]c2=O)CC1 (nonaromatic ring conformer: 84.57393313423412 kcal/mol)

>  <smiles>  (26) 
C=CCN1CCN(C(=O)c2cc3cc(S(=O)(=O)Nc4ccc(F)cc4)ccc3[nH]c2=O)CC1

>  <score_type>  (26) 
oracle

>  <origin>  (26) 
adg

>  <m_score__min__energy>  (26) 
-10.73

>  <m_primary>  (26) 
energy

$$$$
26:0
     RDKit          3D

 53 56  0  0  0  0  0  0  0  0999 V2000
   58.6110   33.0110   51.3020 C   0  0  0  0  0  0  0  0  0  0  0  0
   59.6130   32.9100   50.2000 C   0  0  0  0  0  0  0  0  0  0  0  0
   59.2940   32.2650   49.0490 N   0  0  0  0  0  0  0  0  0  0  0  0
   60.1930   32.1210   48.0370 C   0  0  0  0  0  0  0  0  0  0  0  0
   59.7900   31.4360   46.8400 N   0  0  0  0  0  0  0  0  0  0  0  0
   59.0440   32.1700   45.8410 C   0  0  0  0  0  0  0  0  0  0  0  0
   59.4750   33.2940   45.4600 O   0  0  0  0  0  0  0  0  0  0  0  0
   57.7050   31.6910   45.3230 C   0  0  0  0  0  0  0  0  0  0  0  0
   57.6910   31.4110   43.8060 C   0  0  0  0  0  0  0  0  0  0  0  0
   56.6930   30.3150   43.3870 C   0  0  0  0  0  0  0  0  0  0  0  0
   57.0450   28.9560   43.9360 C   0  0  0  0  0  0  0  0  0  0  0  0
   56.6560   28.5930   45.2370 C   0  0  0  0  0  0  0  0  0  0  0  0
   57.0090   27.3450   45.7560 C   0  0  0  0  0  0  0  0  0  0  0  0
   57.7610   26.4490   44.9850 C   0  0  0  0  0  0  0  0  0  0  0  0
   58.1400   25.2120   45.5030 O   0  0  0  0  0  0  0  0  0  0  0  0
   58.1350   26.7970   43.6840 C   0  0  0  0  0  0  0  0  0  0  0  0
   57.7730   28.0420   43.1580 C   0  0  0  0  0  0  0  0  0  0  0  0
   59.8930   30.0010   46.8130 C   0  0  0  0  0  0  0  0  0  0  0  0
   60.4590   29.3440   45.7080 C   0  0  0  0  0  0  0  0  0  0  0  0
   60.5810   27.9510   45.7010 C   0  0  0  0  0  0  0  0  0  0  0  0
   60.1460   27.2040   46.8000 C   0  0  0  0  0  0  0  0  0  0  0  0
   60.2670   25.8200   46.7920 O   0  0  0  0  0  0  0  0  0  0  0  0
   59.5890   27.8510   47.9080 C   0  0  0  0  0  0  0  0  0  0  0  0
   59.4660   29.2430   47.9170 C   0  0  0  0  0  0  0  0  0  0  0  0
   61.4880   32.6560   48.1840 C   0  0  0  0  0  0  0  0  0  0  0  0
   62.4620   32.5770   47.1730 C   0  0  0  0  0  0  0  0  0  0  0  0
   63.7270   33.1380   47.3720 C   0  0  0  0  0  0  0  0  0  0  0  0
   64.0320   33.7780   48.5760 C   0  0  0  0  0  0  0  0  0  0  0  0
   63.0710   33.8640   49.5870 C   0  0  0  0  0  0  0  0  0  0  0  0
   61.7990   33.3120   49.3950 C   0  0  0  0  0  0  0  0  0  0  0  0
   60.8610   33.4170   50.3710 N   0  0  0  0  0  0  0  0  0  0  0  0
   59.1266   32.9590   52.2723 H   0  0  0  0  0  0  0  0  0  0  0  0
   58.0741   33.9678   51.2229 H   0  0  0  0  0  0  0  0  0  0  0  0
   57.8940   32.1806   51.2229 H   0  0  0  0  0  0  0  0  0  0  0  0
   57.4408   30.7623   45.8500 H   0  0  0  0  0  0  0  0  0  0  0  0
   56.9814   32.4987   45.5075 H   0  0  0  0  0  0  0  0  0  0  0  0
   57.4241   32.3416   43.2837 H   0  0  0  0  0  0  0  0  0  0  0  0
   58.6950   31.0511   43.5366 H   0  0  0  0  0  0  0  0  0  0  0  0
   55.6935   30.5927   43.7530 H   0  0  0  0  0  0  0  0  0  0  0  0
   56.7238   30.2444   42.2897 H   0  0  0  0  0  0  0  0  0  0  0  0
   56.0709   29.2949   45.8493 H   0  0  0  0  0  0  0  0  0  0  0  0
   56.6957   27.0651   46.7726 H   0  0  0  0  0  0  0  0  0  0  0  0
   58.9830   25.1060   46.0560 H   0  0  0  0  0  0  0  0  0  0  0  0
   58.7152   26.0905   43.0723 H   0  0  0  0  0  0  0  0  0  0  0  0
   58.0603   28.3059   42.1295 H   0  0  0  0  0  0  0  0  0  0  0  0
   60.8080   29.9282   44.8438 H   0  0  0  0  0  0  0  0  0  0  0  0
   61.0197   27.4423   44.8299 H   0  0  0  0  0  0  0  0  0  0  0  0
   59.2475   27.2636   48.7730 H   0  0  0  0  0  0  0  0  0  0  0  0
   59.0327   29.7482   48.7928 H   0  0  0  0  0  0  0  0  0  0  0  0
   62.2282   32.0728   46.2237 H   0  0  0  0  0  0  0  0  0  0  0  0
   64.4852   33.0753   46.5775 H   0  0  0  0  0  0  0  0  0  0  0  0
   65.0300   34.2148   48.7283 H   0  0  0  0  0  0  0  0  0  0  0  0
   63.3145   34.3661   50.5349 H   0  0  0  0  0  0  0  0  0  0  0  0
  1  2  1  0
  2  3  2  0
  3  4  1  0
  4  5  1  0
  5  6  1  0
  6  7  2  0
  6  8  1  0
  8  9  1  0
  9 10  1  0
 10 11  1  0
 11 12  2  0
 12 13  1  0
 13 14  2  0
 14 15  1  0
 14 16  1  0
 16 17  2  0
  5 18  1  0
 18 19  2  0
 19 20  1  0
 20 21  2  0
 21 22  1  0
 21 23  1  0
 23 24  2  0
  4 25  2  0
 25 26  1  0
 26 27  2  0
 27 28  1  0
 28 29  2  0
 29 30  1  0
 30 31  2  0
 31  2  1  0
 17 11  1  0
 24 18  1  0
 30 25  1  0
  1 32  1  0
  1 33  1  0
  1 34  1  0
  8 35  1  0
  8 36  1  0
  9 37  1  0
  9 38  1  0
 10 39  1  0
 10 40  1  0
 12 41  1  0
 13 42  1  0
 15 43  1  0
 16 44  1  0
 17 45  1  0
 19 46  1  0
 20 47  1  0
 23 48  1  0
 24 49  1  0
 26 50  1  0
 27 51  1  0
 28 52  1  0
 29 53  1  0
M  CHG  1  22  -1
M  END
>  <UniqueID>  (27) 
26

>  <SMILES>  (27) 
Cc1nc(N(C(=O)CCCc2ccc(O)cc2)c2ccc([O-])cc2)c2ccccc2n1

>  <Energy>  (27) 
67.73175956263557

>  <Genealogy>  (27) 
Cc1nc(N(C(=O)CCCc2ccc(O)cc2)c2ccc([O-])cc2)c2ccccc2n1 (protonated)
Cc1nc(N(C(=O)CCCc2ccc(O)cc2)c2ccc([O-])cc2)c2ccccc2n1 (3D coordinates assigned)
Cc1nc(N(C(=O)CCCc2ccc(O)cc2)c2ccc([O-])cc2)c2ccccc2n1 (optimized conformer: 67.73175956263557 kcal/mol)

>  <smiles>  (27) 
Cc1nc(N(C(=O)CCCc2ccc(O)cc2)c2ccc(O)cc2)c2ccccc2n1

>  <score_type>  (27) 
oracle

>  <origin>  (27) 
adg

>  <m_score__min__energy>  (27) 
-9.8699999999999992

>  <m_primary>  (27) 
energy

$$$$
27:0
     RDKit          3D

 54 57  0  0  0  0  0  0  0  0999 V2000
   59.6170   26.9010   48.1980 C   0  0  0  0  0  0  0  0  0  0  0  0
   59.5810   28.1270   47.6490 C   0  0  0  0  0  0  0  0  0  0  0  0
   59.1350   28.4550   46.3590 C   0  0  0  0  0  0  0  0  0  0  0  0
   58.4640   27.7300   45.4410 C   0  0  0  0  0  0  0  0  0  0  0  0
   57.2660   26.9140   45.6970 C   0  0  0  0  0  0  0  0  0  0  0  0
   57.2820   25.6750   46.2240 N   0  0  0  0  0  0  0  0  0  0  0  0
   55.9720   25.3970   46.4020 C   0  0  0  0  0  0  0  0  0  0  0  0
   55.5700   24.3000   46.8700 O   0  0  0  0  0  0  0  0  0  0  0  0
   55.1280   26.3900   46.0500 N   0  0  0  0  0  0  0  0  0  0  0  0
   55.9660   27.3480   45.6200 C   0  0  0  0  0  0  0  0  0  0  0  0
   55.5500   28.5950   45.1720 O   0  0  0  0  0  0  0  0  0  0  0  0
   59.4870   29.7750   46.1510 C   0  0  0  0  0  0  0  0  0  0  0  0
   60.0760   30.2240   47.3130 C   0  0  0  0  0  0  0  0  0  0  0  0
   60.5010   31.6280   47.5110 C   0  0  0  0  0  0  0  0  0  0  0  0
   61.6630   31.9410   47.1290 O   0  0  0  0  0  0  0  0  0  0  0  0
   59.6240   32.6170   48.1240 N   0  0  2  0  0  0  0  0  0  0  0  0
   58.1800   32.3390   47.9160 C   0  0  0  0  0  0  0  0  0  0  0  0
   57.7200   32.5910   46.4680 C   0  0  0  0  0  0  0  0  0  0  0  0
   58.0850   34.0120   46.0160 C   0  0  2  0  0  0  0  0  0  0  0  0
   57.7100   34.2270   44.5460 C   0  0  0  0  0  0  0  0  0  0  0  0
   59.5820   34.2660   46.2370 C   0  0  0  0  0  0  0  0  0  0  0  0
   59.9570   33.9980   47.7010 C   0  0  0  0  0  0  0  0  0  0  0  0
   60.1230   29.2310   48.2360 N   0  0  0  0  0  0  0  0  0  0  0  0
   60.5910   29.3570   49.6280 C   0  0  0  0  0  0  0  0  0  0  0  0
   59.7450   30.3080   50.4470 C   0  0  0  0  0  0  0  0  0  0  0  0
   58.3470   30.1690   50.5510 C   0  0  0  0  0  0  0  0  0  0  0  0
   57.5990   31.0810   51.3020 C   0  0  0  0  0  0  0  0  0  0  0  0
   58.2320   32.1500   51.9390 C   0  0  0  0  0  0  0  0  0  0  0  0
   59.6130   32.3140   51.8210 C   0  0  0  0  0  0  0  0  0  0  0  0
   60.3650   31.4040   51.0720 C   0  0  0  0  0  0  0  0  0  0  0  0
   59.9901   26.7687   49.2243 H   0  0  0  0  0  0  0  0  0  0  0  0
   59.2734   26.0297   47.6211 H   0  0  0  0  0  0  0  0  0  0  0  0
   58.8458   27.7502   44.4096 H   0  0  0  0  0  0  0  0  0  0  0  0
   59.3272   30.3573   45.2315 H   0  0  0  0  0  0  0  0  0  0  0  0
   59.7770   32.5600   49.1530 H   0  0  0  0  0  0  0  0  0  0  0  0
   57.9864   31.2856   48.1668 H   0  0  0  0  0  0  0  0  0  0  0  0
   57.6164   33.0263   48.5641 H   0  0  0  0  0  0  0  0  0  0  0  0
   58.2101   31.8646   45.8030 H   0  0  0  0  0  0  0  0  0  0  0  0
   56.6268   32.4778   46.4221 H   0  0  0  0  0  0  0  0  0  0  0  0
   57.5128   34.7312   46.6205 H   0  0  0  0  0  0  0  0  0  0  0  0
   56.7571   34.7733   44.4868 H   0  0  0  0  0  0  0  0  0  0  0  0
   58.4986   34.8102   44.0479 H   0  0  0  0  0  0  0  0  0  0  0  0
   57.6051   33.2518   44.0479 H   0  0  0  0  0  0  0  0  0  0  0  0
   60.1636   33.5976   45.5852 H   0  0  0  0  0  0  0  0  0  0  0  0
   59.8063   35.3157   45.9964 H   0  0  0  0  0  0  0  0  0  0  0  0
   61.0390   34.1540   47.8231 H   0  0  0  0  0  0  0  0  0  0  0  0
   59.3774   34.6909   48.3287 H   0  0  0  0  0  0  0  0  0  0  0  0
   60.5608   28.3640   50.1002 H   0  0  0  0  0  0  0  0  0  0  0  0
   61.6126   29.7638   49.5986 H   0  0  0  0  0  0  0  0  0  0  0  0
   57.8407   29.3379   50.0383 H   0  0  0  0  0  0  0  0  0  0  0  0
   56.5098   30.9560   51.3911 H   0  0  0  0  0  0  0  0  0  0  0  0
   57.6423   32.8630   52.5339 H   0  0  0  0  0  0  0  0  0  0  0  0
   60.1103   33.1601   52.3178 H   0  0  0  0  0  0  0  0  0  0  0  0
   61.4510   31.5468   50.9709 H   0  0  0  0  0  0  0  0  0  0  0  0
  1  2  2  0
  2  3  1  0
  3  4  2  3
  4  5  1  0
  5  6  1  0
  6  7  1  0
  7  8  2  0
  7  9  1  0
  9 10  1  0
 10 11  1  0
  3 12  1  0
 12 13  2  0
 13 14  1  0
 14 15  2  0
 14 16  1  0
 16 17  1  0
 17 18  1  0
 18 19  1  0
 19 20  1  0
 19 21  1  0
 21 22  1  0
 13 23  1  0
 23 24  1  0
 24 25  1  0
 25 26  2  0
 26 27  1  0
 27 28  2  0
 28 29  1  0
 29 30  2  0
 23  2  1  0
 30 25  1  0
 10  5  2  0
 22 16  1  0
  1 31  1  0
  1 32  1  0
  4 33  1  0
 12 34  1  0
 16 35  1  1
 17 36  1  0
 17 37  1  0
 18 38  1  0
 18 39  1  0
 19 40  1  1
 20 41  1  0
 20 42  1  0
 20 43  1  0
 21 44  1  0
 21 45  1  0
 22 46  1  0
 22 47  1  0
 24 48  1  0
 24 49  1  0
 26 50  1  0
 27 51  1  0
 28 52  1  0
 29 53  1  0
 30 54  1  0
M  CHG  4   6  -1   9  -1  11  -1  16   1
M  END
>  <UniqueID>  (28) 
27

>  <SMILES>  (28) 
C=c1c(=Cc2[n-]c(=O)[n-]c2[O-])cc(C(=O)[NH+]2CCC(C)CC2)n1Cc1ccccc1

>  <Energy>  (28) 
133.17909386158237

>  <Genealogy>  (28) 
C=c1c(=Cc2[n-]c(=O)[n-]c2[O-])cc(C(=O)[NH+]2CCC(C)CC2)n1Cc1ccccc1 (protonated)
C=c1c(=Cc2[n-]c(=O)[n-]c2[O-])cc(C(=O)[NH+]2CCC(C)CC2)n1Cc1ccccc1 (3D coordinates assigned)
C=c1c(=Cc2[n-]c(=O)[n-]c2[O-])cc(C(=O)[NH+]2CCC(C)CC2)n1Cc1ccccc1 (nonaromatic ring conformer: 133.17909386158237 kcal/mol)

>  <smiles>  (28) 
C=c1c(=Cc2[nH]c(=O)[nH]c2O)cc(C(=O)N2CCC(C)CC2)n1Cc1ccccc1

>  <score_type>  (28) 
oracle

>  <origin>  (28) 
adg

>  <m_score__min__energy>  (28) 
-15.52

>  <m_primary>  (28) 
energy

$$$$
28:0
     RDKit          3D

 59 63  0  0  0  0  0  0  0  0999 V2000
   64.4040   31.7700   50.4500 C   0  0  0  0  0  0  0  0  0  0  0  0
   64.0290   33.1350   50.0440 N   0  0  0  0  0  0  0  0  0  0  0  0
   64.3200   33.3690   48.6090 C   0  0  0  0  0  0  0  0  0  0  0  0
   63.1660   32.9360   47.6930 C   0  0  0  0  0  0  0  0  0  0  0  0
   61.8940   33.5100   48.1470 N   0  0  0  0  0  0  0  0  0  0  0  0
   60.6990   33.2970   47.3750 C   0  0  0  0  0  0  0  0  0  0  0  0
   60.4930   33.9980   46.1740 C   0  0  0  0  0  0  0  0  0  0  0  0
   59.2900   33.8630   45.4760 C   0  0  0  0  0  0  0  0  0  0  0  0
   58.2780   33.0180   45.9650 C   0  0  0  0  0  0  0  0  0  0  0  0
   56.9090   33.0450   45.3510 C   0  0  0  0  0  0  0  0  0  0  0  0
   56.6080   31.7130   44.8420 N   0  0  0  0  0  0  0  0  0  0  0  0
   57.6300   30.7890   44.4620 C   0  0  0  0  0  0  0  0  0  0  0  0
   58.5550   31.1560   43.6900 O   0  0  0  0  0  0  0  0  0  0  0  0
   57.5830   29.4020   44.9550 C   0  0  0  0  0  0  0  0  0  0  0  0
   58.7710   28.6370   45.0770 C   0  0  0  0  0  0  0  0  0  0  0  0
   58.7220   27.3020   45.5230 C   0  0  0  0  0  0  0  0  0  0  0  0
   57.4720   26.7600   45.8080 C   0  0  0  0  0  0  0  0  0  0  0  0
   57.1900   25.5070   46.1950 N   0  0  0  0  0  0  0  0  0  0  0  0
   55.8350   25.5230   46.2610 C   0  0  0  0  0  0  0  0  0  0  0  0
   55.1590   24.4620   46.5900 N   0  0  0  0  0  0  0  0  0  0  0  0
   54.9450   23.2990   45.7730 C   0  0  0  0  0  0  0  0  0  0  0  0
   53.7800   22.8620   45.5840 O   0  0  0  0  0  0  0  0  0  0  0  0
   56.0760   22.6520   45.0710 C   0  0  0  0  0  0  0  0  0  0  0  0
   55.8850   22.2260   43.7890 N   0  0  0  0  0  0  0  0  0  0  0  0
   56.8780   21.6350   43.0750 C   0  0  0  0  0  0  0  0  0  0  0  0
   58.1350   21.4660   43.6580 C   0  0  0  0  0  0  0  0  0  0  0  0
   58.3380   21.8800   44.9340 N   0  0  0  0  0  0  0  0  0  0  0  0
   57.3490   22.4620   45.6630 C   0  0  0  0  0  0  0  0  0  0  0  0
   57.5810   22.8070   46.8920 N   0  0  0  0  0  0  0  0  0  0  0  0
   55.2590   26.7150   45.9460 N   0  0  0  0  0  0  0  0  0  0  0  0
   56.3270   27.4790   45.6700 C   0  0  0  0  0  0  0  0  0  0  0  0
   56.3360   28.8110   45.2620 C   0  0  0  0  0  0  0  0  0  0  0  0
   58.4940   32.2960   47.1500 C   0  0  0  0  0  0  0  0  0  0  0  0
   59.6970   32.4290   47.8470 C   0  0  0  0  0  0  0  0  0  0  0  0
   61.8490   34.2430   49.4140 C   0  0  0  0  0  0  0  0  0  0  0  0
   62.6410   33.4630   50.4700 C   0  0  0  0  0  0  0  0  0  0  0  0
   64.4216   31.7058   51.5480 H   0  0  0  0  0  0  0  0  0  0  0  0
   63.6692   31.0544   50.0526 H   0  0  0  0  0  0  0  0  0  0  0  0
   65.4013   31.5302   50.0526 H   0  0  0  0  0  0  0  0  0  0  0  0
   64.5056   34.4426   48.4579 H   0  0  0  0  0  0  0  0  0  0  0  0
   65.1995   32.7635   48.3449 H   0  0  0  0  0  0  0  0  0  0  0  0
   63.3710   33.2797   46.6684 H   0  0  0  0  0  0  0  0  0  0  0  0
   63.0869   31.8392   47.7215 H   0  0  0  0  0  0  0  0  0  0  0  0
   61.2825   34.6559   45.7818 H   0  0  0  0  0  0  0  0  0  0  0  0
   59.1341   34.4199   44.5403 H   0  0  0  0  0  0  0  0  0  0  0  0
   56.1663   33.3291   46.1110 H   0  0  0  0  0  0  0  0  0  0  0  0
   56.8757   33.7793   44.5326 H   0  0  0  0  0  0  0  0  0  0  0  0
   59.7398   29.0906   44.8209 H   0  0  0  0  0  0  0  0  0  0  0  0
   59.6401   26.7080   45.6420 H   0  0  0  0  0  0  0  0  0  0  0  0
   56.6932   21.2925   42.0462 H   0  0  0  0  0  0  0  0  0  0  0  0
   58.9533   21.0015   43.0882 H   0  0  0  0  0  0  0  0  0  0  0  0
   57.1280   23.6460   47.3200 H   0  0  0  0  0  0  0  0  0  0  0  0
   55.4013   29.3854   45.1812 H   0  0  0  0  0  0  0  0  0  0  0  0
   57.7121   31.6226   47.5310 H   0  0  0  0  0  0  0  0  0  0  0  0
   59.8620   31.8525   48.7692 H   0  0  0  0  0  0  0  0  0  0  0  0
   62.2953   35.2394   49.2797 H   0  0  0  0  0  0  0  0  0  0  0  0
   60.8049   34.3563   49.7410 H   0  0  0  0  0  0  0  0  0  0  0  0
   62.6915   34.0693   51.3864 H   0  0  0  0  0  0  0  0  0  0  0  0
   62.1165   32.5096   50.6311 H   0  0  0  0  0  0  0  0  0  0  0  0
  1  2  1  0
  2  3  1  0
  3  4  1  0
  4  5  1  0
  5  6  1  0
  6  7  2  0
  7  8  1  0
  8  9  2  0
  9 10  1  0
 10 11  1  0
 11 12  1  0
 12 13  2  0
 12 14  1  0
 14 15  2  0
 15 16  1  0
 16 17  2  0
 17 18  1  0
 18 19  1  0
 19 20  2  3
 20 21  1  0
 21 22  2  0
 21 23  1  0
 23 24  2  0
 24 25  1  0
 25 26  2  0
 26 27  1  0
 27 28  1  0
 28 29  2  3
 19 30  1  0
 30 31  1  0
 31 32  2  0
  9 33  1  0
 33 34  2  0
  5 35  1  0
 35 36  1  0
 36  2  1  0
 34  6  1  0
 32 14  1  0
 31 17  1  0
 28 23  1  0
  1 37  1  0
  1 38  1  0
  1 39  1  0
  3 40  1  0
  3 41  1  0
  4 42  1  0
  4 43  1  0
  7 44  1  0
  8 45  1  0
 10 46  1  0
 10 47  1  0
 15 48  1  0
 16 49  1  0
 25 50  1  0
 26 51  1  0
 29 52  1  0
 32 53  1  0
 33 54  1  0
 34 55  1  0
 35 56  1  0
 35 57  1  0
 36 58  1  0
 36 59  1  0
M  CHG  4  11  -1  18  -1  27  -1  30  -1
M  END
>  <UniqueID>  (29) 
28

>  <SMILES>  (29) 
CN1CCN(c2ccc(C[N-]C(=O)c3ccc4[n-]c(=NC(=O)c5ncc[n-]c5=N)[n-]c4c3)cc2)CC1

>  <Energy>  (29) 
121.29801351657467

>  <Genealogy>  (29) 
CN1CCN(c2ccc(C[N-]C(=O)c3ccc4[n-]c(=NC(=O)c5ncc[n-]c5=N)[n-]c4c3)cc2)CC1 (protonated)
CN1CCN(c2ccc(C[N-]C(=O)c3ccc4[n-]c(=NC(=O)c5ncc[n-]c5=N)[n-]c4c3)cc2)CC1 (3D coordinates assigned)
CN1CCN(c2ccc(C[N-]C(=O)c3ccc4[n-]c(=NC(=O)c5ncc[n-]c5=N)[n-]c4c3)cc2)CC1 (nonaromatic ring conformer: 121.29801351657467 kcal/mol)

>  <smiles>  (29) 
CN1CCN(c2ccc(CNC(=O)c3ccc4[nH]c(=NC(=O)c5ncc[nH]c5=N)[nH]c4c3)cc2)CC1

>  <score_type>  (29) 
oracle

>  <origin>  (29) 
adg

>  <m_score__min__energy>  (29) 
-16.199999999999999

>  <m_primary>  (29) 
energy

$$$$
29:0
     RDKit          3D

 71 74  0  0  0  0  0  0  0  0999 V2000
   55.1520   26.6600   46.0350 N   0  0  0  0  0  0  0  0  0  0  0  0
   56.4180   26.1500   46.4460 C   0  0  0  0  0  0  0  0  0  0  0  0
   56.4780   25.0040   46.9690 O   0  0  0  0  0  0  0  0  0  0  0  0
   57.6500   26.9530   46.2550 C   0  0  0  0  0  0  0  0  0  0  0  0
   58.1400   27.2190   44.9640 C   0  0  0  0  0  0  0  0  0  0  0  0
   59.3020   27.9740   44.7880 C   0  0  0  0  0  0  0  0  0  0  0  0
   59.9910   28.4740   45.8960 C   0  0  0  0  0  0  0  0  0  0  0  0
   59.5200   28.2190   47.1930 C   0  0  0  0  0  0  0  0  0  0  0  0
   60.2520   28.7750   48.3910 C   0  0  0  0  0  0  0  0  0  0  0  0
   59.4940   29.9340   49.0760 C   0  0  1  0  0  0  0  0  0  0  0  0
   60.0950   30.2270   50.3860 N   0  0  0  0  0  0  0  0  0  0  0  0
   58.9030   30.2960   51.6490 S   0  0  0  0  0  0  0  0  0  0  0  0
   57.5470   30.0310   51.0610 O   0  0  0  0  0  0  0  0  0  0  0  0
   59.1910   29.2360   52.6710 O   0  0  0  0  0  0  0  0  0  0  0  0
   58.8920   31.8780   52.4220 C   0  0  0  0  0  0  0  0  0  0  0  0
   59.5530   32.0750   53.6450 C   0  0  0  0  0  0  0  0  0  0  0  0
   59.5440   33.3370   54.2500 C   0  0  0  0  0  0  0  0  0  0  0  0
   58.8850   34.4040   53.6350 C   0  0  0  0  0  0  0  0  0  0  0  0
   58.2330   34.2130   52.4140 C   0  0  0  0  0  0  0  0  0  0  0  0
   58.2380   32.9530   51.8050 C   0  0  0  0  0  0  0  0  0  0  0  0
   59.5300   31.1790   48.2180 C   0  0  0  0  0  0  0  0  0  0  0  0
   58.4420   31.6800   47.8210 O   0  0  0  0  0  0  0  0  0  0  0  0
   60.7650   31.8570   47.9050 N   0  0  0  0  0  0  0  0  0  0  0  0
   61.9470   31.1280   47.4690 C   0  0  0  0  0  0  0  0  0  0  0  0
   62.9890   32.1860   47.1350 C   0  0  0  0  0  0  0  0  0  0  0  0
   62.2070   33.4860   46.9810 C   0  0  0  0  0  0  0  0  0  0  0  0
   60.9440   33.3050   47.8240 C   0  0  2  0  0  0  0  0  0  0  0  0
   61.1270   33.9100   49.1930 C   0  0  0  0  0  0  0  0  0  0  0  0
   60.2380   33.7240   50.0670 O   0  0  0  0  0  0  0  0  0  0  0  0
   62.2700   34.7250   49.4910 N   0  0  0  0  0  0  0  0  0  0  0  0
   63.2690   34.3970   50.5030 C   0  0  0  0  0  0  0  0  0  0  0  0
   63.1140   32.9800   50.9890 C   0  0  0  0  0  0  0  0  0  0  0  0
   63.5300   31.9060   50.1890 C   0  0  0  0  0  0  0  0  0  0  0  0
   63.3950   30.5900   50.6440 C   0  0  0  0  0  0  0  0  0  0  0  0
   62.8410   30.3260   51.9070 C   0  0  0  0  0  0  0  0  0  0  0  0
   62.6920   28.9230   52.3750 C   0  0  0  0  0  0  0  0  0  0  0  0
   61.5120   28.1800   52.0480 N   0  0  0  0  0  0  0  0  0  0  0  0
   63.6100   28.3670   53.1100 N   0  0  0  0  0  0  0  0  0  0  0  0
   62.4160   31.4060   52.7040 C   0  0  0  0  0  0  0  0  0  0  0  0
   62.5430   32.7190   52.2440 C   0  0  0  0  0  0  0  0  0  0  0  0
   58.3520   27.4580   47.3660 C   0  0  0  0  0  0  0  0  0  0  0  0
   54.5010   27.1080   46.7130 H   0  0  0  0  0  0  0  0  0  0  0  0
   57.6041   26.8295   44.0859 H   0  0  0  0  0  0  0  0  0  0  0  0
   59.6760   28.1757   43.7734 H   0  0  0  0  0  0  0  0  0  0  0  0
   60.9048   29.0689   45.7512 H   0  0  0  0  0  0  0  0  0  0  0  0
   60.3916   27.9660   49.1232 H   0  0  0  0  0  0  0  0  0  0  0  0
   61.2124   29.1751   48.0337 H   0  0  0  0  0  0  0  0  0  0  0  0
   58.4470   29.6252   49.2121 H   0  0  0  0  0  0  0  0  0  0  0  0
   60.0779   31.2374   54.1276 H   0  0  0  0  0  0  0  0  0  0  0  0
   60.0567   33.4888   55.2113 H   0  0  0  0  0  0  0  0  0  0  0  0
   58.8793   35.3951   54.1121 H   0  0  0  0  0  0  0  0  0  0  0  0
   57.7149   35.0544   51.9307 H   0  0  0  0  0  0  0  0  0  0  0  0
   57.7282   32.8063   50.8414 H   0  0  0  0  0  0  0  0  0  0  0  0
   62.3112   30.4728   48.2740 H   0  0  0  0  0  0  0  0  0  0  0  0
   61.7296   30.4869   46.6020 H   0  0  0  0  0  0  0  0  0  0  0  0
   63.7245   32.2728   47.9483 H   0  0  0  0  0  0  0  0  0  0  0  0
   63.5510   31.9349   46.2233 H   0  0  0  0  0  0  0  0  0  0  0  0
   62.7981   34.3364   47.3517 H   0  0  0  0  0  0  0  0  0  0  0  0
   61.9683   33.6965   45.9280 H   0  0  0  0  0  0  0  0  0  0  0  0
   60.0678   33.8057   47.3862 H   0  0  0  0  0  0  0  0  0  0  0  0
   64.2721   34.5186   50.0683 H   0  0  0  0  0  0  0  0  0  0  0  0
   63.1299   35.0738   51.3589 H   0  0  0  0  0  0  0  0  0  0  0  0
   63.9652   32.0995   49.1975 H   0  0  0  0  0  0  0  0  0  0  0  0
   63.7253   29.7558   50.0076 H   0  0  0  0  0  0  0  0  0  0  0  0
   60.7950   28.5660   51.3950 H   0  0  0  0  0  0  0  0  0  0  0  0
   61.3530   27.2260   52.4500 H   0  0  0  0  0  0  0  0  0  0  0  0
   63.7380   28.6190   54.1150 H   0  0  0  0  0  0  0  0  0  0  0  0
   64.2280   27.6180   52.7190 H   0  0  0  0  0  0  0  0  0  0  0  0
   61.9808   31.2146   53.6960 H   0  0  0  0  0  0  0  0  0  0  0  0
   62.1932   33.5535   52.8695 H   0  0  0  0  0  0  0  0  0  0  0  0
   57.9815   27.2542   48.3815 H   0  0  0  0  0  0  0  0  0  0  0  0
  1  2  1  0
  2  3  2  0
  2  4  1  0
  4  5  2  0
  5  6  1  0
  6  7  2  0
  7  8  1  0
  8  9  1  0
  9 10  1  0
 10 11  1  0
 11 12  1  0
 12 13  2  0
 12 14  2  0
 12 15  1  0
 15 16  2  0
 16 17  1  0
 17 18  2  0
 18 19  1  0
 19 20  2  0
 10 21  1  0
 21 22  2  0
 21 23  1  0
 23 24  1  0
 24 25  1  0
 25 26  1  0
 26 27  1  0
 27 28  1  0
 28 29  2  0
 28 30  1  0
 30 31  1  0
 31 32  1  0
 32 33  2  0
 33 34  1  0
 34 35  2  0
 35 36  1  0
 36 37  1  0
 36 38  2  0
 35 39  1  0
 39 40  2  0
  8 41  2  0
 41  4  1  0
 20 15  1  0
 27 23  1  0
 40 32  1  0
  1 42  1  0
  5 43  1  0
  6 44  1  0
  7 45  1  0
  9 46  1  0
  9 47  1  0
 10 48  1  1
 16 49  1  0
 17 50  1  0
 18 51  1  0
 19 52  1  0
 20 53  1  0
 24 54  1  0
 24 55  1  0
 25 56  1  0
 25 57  1  0
 26 58  1  0
 26 59  1  0
 27 60  1  6
 31 61  1  0
 31 62  1  0
 33 63  1  0
 34 64  1  0
 37 65  1  0
 37 66  1  0
 38 67  1  0
 38 68  1  0
 39 69  1  0
 40 70  1  0
 41 71  1  0
M  CHG  4   1  -1  11  -1  30  -1  38   1
M  END
>  <UniqueID>  (30) 
29

>  <SMILES>  (30) 
[NH-]C(=O)c1cccc(C[C@@H]([N-]S(=O)(=O)c2ccccc2)C(=O)N2CCC[C@@H]2C(=O)[N-]Cc2ccc(C(N)=[NH2+])cc2)c1

>  <Energy>  (30) 
69.92812137787722

>  <Genealogy>  (30) 
[NH-]C(=O)c1cccc(CC([N-]S(=O)(=O)c2ccccc2)C(=O)N2CCCC2C(=O)[N-]Cc2ccc(C(N)=[NH2+])cc2)c1 (protonated)
[NH-]C(=O)c1cccc(C[C@@H]([N-]S(=O)(=O)c2ccccc2)C(=O)N2CCC[C@@H]2C(=O)[N-]Cc2ccc(C(N)=[NH2+])cc2)c1 (chirality)
[NH-]C(=O)c1cccc(C[C@@H]([N-]S(=O)(=O)c2ccccc2)C(=O)N2CCC[C@@H]2C(=O)[N-]Cc2ccc(C(N)=[NH2+])cc2)c1 (3D coordinates assigned)
[NH-]C(=O)c1cccc(C[C@@H]([N-]S(=O)(=O)c2ccccc2)C(=O)N2CCC[C@@H]2C(=O)[N-]Cc2ccc(C(N)=[NH2+])cc2)c1 (nonaromatic ring conformer: 69.92812137787722 kcal/mol)

>  <smiles>  (30) 
N=C(N)c1ccc(CNC(=O)C2CCCN2C(=O)C(Cc2cccc(C(N)=O)c2)NS(=O)(=O)c2ccccc2)cc1

>  <score_type>  (30) 
oracle

>  <origin>  (30) 
adg

>  <m_score__min__energy>  (30) 
-14.57

>  <m_primary>  (30) 
energy

$$$$
30:0
     RDKit          3D

 65 68  0  0  0  0  0  0  0  0999 V2000
   59.3860   26.1810   47.8380 C   0  0  0  0  0  0  0  0  0  0  0  0
   58.5820   26.7830   46.9320 C   0  0  0  0  0  0  0  0  0  0  0  0
   58.9110   28.0870   46.4510 C   0  0  0  0  0  0  0  0  0  0  0  0
   60.2470   28.7780   46.6920 C   0  0  0  0  0  0  0  0  0  0  0  0
   60.5440   29.8860   45.6610 C   0  0  0  0  0  0  0  0  0  0  0  0
   60.6180   31.2290   46.2910 N   0  0  0  0  0  0  0  0  0  0  0  0
   61.6200   31.4450   47.2100 C   0  0  0  0  0  0  0  0  0  0  0  0
   62.4640   30.5320   47.4440 O   0  0  0  0  0  0  0  0  0  0  0  0
   61.7130   32.6280   47.8950 N   0  0  0  0  0  0  0  0  0  0  0  0
   62.8290   32.8340   48.8480 C   0  0  0  0  0  0  0  0  0  0  0  0
   62.5410   32.1620   50.1980 C   0  0  0  0  0  0  0  0  0  0  0  0
   61.0810   31.8280   50.3530 C   0  0  0  0  0  0  0  0  0  0  0  0
   60.1610   32.8230   50.7310 C   0  0  0  0  0  0  0  0  0  0  0  0
   58.7980   32.5260   50.8110 C   0  0  0  0  0  0  0  0  0  0  0  0
   58.3420   31.2390   50.5140 C   0  0  0  0  0  0  0  0  0  0  0  0
   59.2480   30.2460   50.1320 C   0  0  0  0  0  0  0  0  0  0  0  0
   60.6140   30.5390   50.0480 C   0  0  0  0  0  0  0  0  0  0  0  0
   60.8050   33.6280   47.6760 C   0  0  0  0  0  0  0  0  0  0  0  0
   60.9050   34.7120   48.3170 O   0  0  0  0  0  0  0  0  0  0  0  0
   59.7680   33.4570   46.7420 C   0  0  0  0  0  0  0  0  0  0  0  0
   58.8060   34.4740   46.4990 C   0  0  0  0  0  0  0  0  0  0  0  0
   58.8520   35.6930   47.1800 O   0  0  0  0  0  0  0  0  0  0  0  0
   57.7880   34.2660   45.5660 C   0  0  0  0  0  0  0  0  0  0  0  0
   57.7130   33.0730   44.8650 C   0  0  0  0  0  0  0  0  0  0  0  0
   58.6520   32.0700   45.0830 C   0  0  0  0  0  0  0  0  0  0  0  0
   59.6950   32.2280   46.0330 C   0  0  0  0  0  0  0  0  0  0  0  0
   57.9390   28.8400   45.7850 C   0  0  0  0  0  0  0  0  0  0  0  0
   56.6410   28.3580   45.6140 C   0  0  0  0  0  0  0  0  0  0  0  0
   55.6260   29.1460   45.0470 O   0  0  0  0  0  0  0  0  0  0  0  0
   55.8210   30.0840   43.9930 C   0  0  0  0  0  0  0  0  0  0  0  0
   56.3320   27.0500   45.9900 C   0  0  0  0  0  0  0  0  0  0  0  0
   55.0440   26.6080   45.7030 O   0  0  0  0  0  0  0  0  0  0  0  0
   57.3160   26.1940   46.5720 C   0  0  0  0  0  0  0  0  0  0  0  0
   57.0670   24.8460   46.7140 C   0  0  0  0  0  0  0  0  0  0  0  0
   57.3660   23.8520   45.6120 C   0  0  0  0  0  0  0  0  0  0  0  0
   56.3370   24.2620   47.9000 C   0  0  0  0  0  0  0  0  0  0  0  0
   59.1378   25.1768   48.2121 H   0  0  0  0  0  0  0  0  0  0  0  0
   60.2880   26.6957   48.2007 H   0  0  0  0  0  0  0  0  0  0  0  0
   60.2338   29.2272   47.6960 H   0  0  0  0  0  0  0  0  0  0  0  0
   61.0349   28.0166   46.5946 H   0  0  0  0  0  0  0  0  0  0  0  0
   61.5062   29.6690   45.1741 H   0  0  0  0  0  0  0  0  0  0  0  0
   59.7215   29.8989   44.9307 H   0  0  0  0  0  0  0  0  0  0  0  0
   63.7476   32.4039   48.4224 H   0  0  0  0  0  0  0  0  0  0  0  0
   62.9469   33.9146   49.0162 H   0  0  0  0  0  0  0  0  0  0  0  0
   63.1283   31.2345   50.2671 H   0  0  0  0  0  0  0  0  0  0  0  0
   62.8190   32.8647   50.9973 H   0  0  0  0  0  0  0  0  0  0  0  0
   60.5157   33.8378   50.9643 H   0  0  0  0  0  0  0  0  0  0  0  0
   58.0826   33.3069   51.1084 H   0  0  0  0  0  0  0  0  0  0  0  0
   57.2688   31.0073   50.5810 H   0  0  0  0  0  0  0  0  0  0  0  0
   58.8874   29.2336   49.8972 H   0  0  0  0  0  0  0  0  0  0  0  0
   61.3244   29.7569   49.7420 H   0  0  0  0  0  0  0  0  0  0  0  0
   59.0140   35.7430   48.1790 H   0  0  0  0  0  0  0  0  0  0  0  0
   57.0414   35.0536   45.3865 H   0  0  0  0  0  0  0  0  0  0  0  0
   56.9070   32.9183   44.1326 H   0  0  0  0  0  0  0  0  0  0  0  0
   58.5849   31.1351   44.5073 H   0  0  0  0  0  0  0  0  0  0  0  0
   58.2029   29.8315   45.3883 H   0  0  0  0  0  0  0  0  0  0  0  0
   56.0274   31.0768   44.4192 H   0  0  0  0  0  0  0  0  0  0  0  0
   56.6724   29.7670   43.3729 H   0  0  0  0  0  0  0  0  0  0  0  0
   54.9138   30.1326   43.3729 H   0  0  0  0  0  0  0  0  0  0  0  0
   57.6559   22.8883   46.0562 H   0  0  0  0  0  0  0  0  0  0  0  0
   56.4696   23.7140   44.9895 H   0  0  0  0  0  0  0  0  0  0  0  0
   58.1898   24.2314   44.9895 H   0  0  0  0  0  0  0  0  0  0  0  0
   56.7958   24.6290   48.8300 H   0  0  0  0  0  0  0  0  0  0  0  0
   55.2807   24.5671   47.8670 H   0  0  0  0  0  0  0  0  0  0  0  0
   56.4028   23.1645   47.8670 H   0  0  0  0  0  0  0  0  0  0  0  0
  1  2  2  0
  2  3  1  0
  3  4  1  0
  4  5  1  0
  5  6  1  0
  6  7  1  0
  7  8  2  0
  7  9  1  0
  9 10  1  0
 10 11  1  0
 11 12  1  0
 12 13  2  0
 13 14  1  0
 14 15  2  0
 15 16  1  0
 16 17  2  0
  9 18  1  0
 18 19  2  0
 18 20  1  0
 20 21  2  0
 21 22  1  0
 21 23  1  0
 23 24  2  0
 24 25  1  0
 25 26  2  0
  3 27  2  0
 27 28  1  0
 28 29  1  0
 29 30  1  0
 28 31  2  0
 31 32  1  0
 31 33  1  0
 33 34  2  3
 34 35  1  0
 34 36  1  0
 33  2  1  0
 26  6  1  0
 17 12  1  0
 26 20  1  0
  1 37  1  0
  1 38  1  0
  4 39  1  0
  4 40  1  0
  5 41  1  0
  5 42  1  0
 10 43  1  0
 10 44  1  0
 11 45  1  0
 11 46  1  0
 13 47  1  0
 14 48  1  0
 15 49  1  0
 16 50  1  0
 17 51  1  0
 22 52  1  0
 23 53  1  0
 24 54  1  0
 25 55  1  0
 27 56  1  0
 30 57  1  0
 30 58  1  0
 30 59  1  0
 35 60  1  0
 35 61  1  0
 35 62  1  0
 36 63  1  0
 36 64  1  0
 36 65  1  0
M  CHG  1  32  -1
M  END
>  <UniqueID>  (31) 
30

>  <SMILES>  (31) 
C=c1c(CCn2c(=O)n(CCc3ccccc3)c(=O)c3c(O)cccc32)cc(OC)c([O-])c1=C(C)C

>  <Energy>  (31) 
111.86216931962123

>  <Genealogy>  (31) 
C=c1c(CCn2c(=O)n(CCc3ccccc3)c(=O)c3c(O)cccc32)cc(OC)c([O-])c1=C(C)C (protonated)
C=c1c(CCn2c(=O)n(CCc3ccccc3)c(=O)c3c(O)cccc32)cc(OC)c([O-])c1=C(C)C (3D coordinates assigned)
C=c1c(CCn2c(=O)n(CCc3ccccc3)c(=O)c3c(O)cccc32)cc(OC)c([O-])c1=C(C)C (optimized conformer: 111.86216931962123 kcal/mol)

>  <smiles>  (31) 
C=c1c(CCn2c(=O)n(CCc3ccccc3)c(=O)c3c(O)cccc32)cc(OC)c(O)c1=C(C)C

>  <score_type>  (31) 
oracle

>  <origin>  (31) 
adg

>  <m_score__min__energy>  (31) 
-13.1

>  <m_primary>  (31) 
energy

$$$$
31:0
     RDKit          3D

 60 63  0  0  0  0  0  0  0  0999 V2000
   58.1770   21.6700   44.0890 C   0  0  0  0  0  0  0  0  0  0  0  0
   58.8820   22.2480   45.2770 C   0  0  0  0  0  0  0  0  0  0  0  0
   60.0940   21.9610   45.4650 O   0  0  0  0  0  0  0  0  0  0  0  0
   58.2340   23.1490   46.1850 N   0  0  0  0  0  0  0  0  0  0  0  0
   58.3170   24.5800   46.1760 C   0  0  0  0  0  0  0  0  0  0  0  0
   57.1320   25.3270   46.2300 C   0  0  0  0  0  0  0  0  0  0  0  0
   57.1740   26.7240   46.1930 C   0  0  0  0  0  0  0  0  0  0  0  0
   58.4020   27.3870   46.0820 C   0  0  0  0  0  0  0  0  0  0  0  0
   58.4450   28.8240   46.0380 C   0  0  0  0  0  0  0  0  0  0  0  0
   58.4800   30.0290   45.9970 C   0  0  0  0  0  0  0  0  0  0  0  0
   58.5240   31.4690   45.9520 C   0  0  0  0  0  0  0  0  0  0  0  0
   59.6090   32.1490   46.5130 C   0  0  0  0  0  0  0  0  0  0  0  0
   59.6500   33.5140   46.4780 N   0  0  0  0  0  0  0  0  0  0  0  0
   60.7630   34.2340   47.1110 C   0  0  2  0  0  0  0  0  0  0  0  0
   62.0640   33.9570   46.3680 C   0  0  0  0  0  0  0  0  0  0  0  0
   62.7230   32.9160   47.2230 C   0  0  1  0  0  0  0  0  0  0  0  0
   64.1230   33.0120   47.1660 O   0  0  0  0  0  0  0  0  0  0  0  0
   62.1570   33.2140   48.6150 C   0  0  1  0  0  0  0  0  0  0  0  0
   63.0480   34.1330   49.4740 C   0  0  0  0  0  0  0  0  0  0  0  0
   64.3980   33.6730   49.4960 O   0  0  0  0  0  0  0  0  0  0  0  0
   64.7920   32.4570   50.0680 C   0  0  0  0  0  0  0  0  0  0  0  0
   64.2390   31.3770   49.7250 O   0  0  0  0  0  0  0  0  0  0  0  0
   65.8880   32.4360   51.0980 C   0  0  0  0  0  0  0  0  0  0  0  0
   66.4610   31.0400   51.3070 C   0  0  0  0  0  0  0  0  0  0  0  0
   67.8910   31.2550   51.7900 C   0  0  0  0  0  0  0  0  0  0  0  0
   68.2690   32.6950   51.4390 C   0  0  0  0  0  0  0  0  0  0  0  0
   67.0800   33.2930   50.6990 C   0  0  0  0  0  0  0  0  0  0  0  0
   60.8950   33.8260   48.4580 O   0  0  0  0  0  0  0  0  0  0  0  0
   58.6470   34.2090   45.9290 N   0  0  0  0  0  0  0  0  0  0  0  0
   57.5720   33.6000   45.3660 C   0  0  0  0  0  0  0  0  0  0  0  0
   57.4910   32.2090   45.3660 C   0  0  0  0  0  0  0  0  0  0  0  0
   56.4950   31.6360   44.8480 O   0  0  0  0  0  0  0  0  0  0  0  0
   59.5880   26.6470   45.9990 C   0  0  0  0  0  0  0  0  0  0  0  0
   59.5460   25.2490   46.0350 C   0  0  0  0  0  0  0  0  0  0  0  0
   57.3681   21.0068   44.4295 H   0  0  0  0  0  0  0  0  0  0  0  0
   57.7531   22.4838   43.4824 H   0  0  0  0  0  0  0  0  0  0  0  0
   58.8919   21.0947   43.4824 H   0  0  0  0  0  0  0  0  0  0  0  0
   56.1632   24.8109   46.3019 H   0  0  0  0  0  0  0  0  0  0  0  0
   56.2406   27.3031   46.2512 H   0  0  0  0  0  0  0  0  0  0  0  0
   60.4289   31.5854   46.9822 H   0  0  0  0  0  0  0  0  0  0  0  0
   60.5501   35.3125   47.0725 H   0  0  0  0  0  0  0  0  0  0  0  0
   61.8678   33.5721   45.3564 H   0  0  0  0  0  0  0  0  0  0  0  0
   62.6818   34.8556   46.2240 H   0  0  0  0  0  0  0  0  0  0  0  0
   62.5203   31.8837   46.9016 H   0  0  0  0  0  0  0  0  0  0  0  0
   64.4770   32.3390   47.8040 H   0  0  0  0  0  0  0  0  0  0  0  0
   62.0957   32.2532   49.1472 H   0  0  0  0  0  0  0  0  0  0  0  0
   63.0227   35.1499   49.0553 H   0  0  0  0  0  0  0  0  0  0  0  0
   62.6622   34.1265   50.5041 H   0  0  0  0  0  0  0  0  0  0  0  0
   65.4033   32.8174   52.0088 H   0  0  0  0  0  0  0  0  0  0  0  0
   65.8777   30.4942   52.0633 H   0  0  0  0  0  0  0  0  0  0  0  0
   66.4274   30.4426   50.3840 H   0  0  0  0  0  0  0  0  0  0  0  0
   67.9492   31.1035   52.8780 H   0  0  0  0  0  0  0  0  0  0  0  0
   68.5784   30.5409   51.3129 H   0  0  0  0  0  0  0  0  0  0  0  0
   68.4716   33.2678   52.3560 H   0  0  0  0  0  0  0  0  0  0  0  0
   69.1766   32.7251   50.8182 H   0  0  0  0  0  0  0  0  0  0  0  0
   66.9225   34.3382   51.0035 H   0  0  0  0  0  0  0  0  0  0  0  0
   67.2350   33.2992   49.6100 H   0  0  0  0  0  0  0  0  0  0  0  0
   56.7700   34.2010   44.9127 H   0  0  0  0  0  0  0  0  0  0  0  0
   60.5536   27.1654   45.9054 H   0  0  0  0  0  0  0  0  0  0  0  0
   60.4781   24.6707   45.9527 H   0  0  0  0  0  0  0  0  0  0  0  0
  1  2  1  0
  2  3  2  0
  2  4  1  0
  4  5  1  0
  5  6  2  0
  6  7  1  0
  7  8  2  0
  8  9  1  0
  9 10  3  0
 10 11  1  0
 11 12  2  0
 12 13  1  0
 13 14  1  0
 14 15  1  0
 15 16  1  0
 16 17  1  0
 16 18  1  0
 18 19  1  0
 19 20  1  0
 20 21  1  0
 21 22  2  0
 21 23  1  0
 23 24  1  0
 24 25  1  0
 25 26  1  0
 26 27  1  0
 18 28  1  0
 13 29  1  0
 29 30  2  0
 30 31  1  0
 31 32  2  0
  8 33  1  0
 33 34  2  0
 34  5  1  0
 31 11  1  0
 28 14  1  0
 27 23  1  0
  1 35  1  0
  1 36  1  0
  1 37  1  0
  6 38  1  0
  7 39  1  0
 12 40  1  0
 14 41  1  1
 15 42  1  0
 15 43  1  0
 16 44  1  6
 17 45  1  0
 18 46  1  1
 19 47  1  0
 19 48  1  0
 23 49  1  0
 24 50  1  0
 24 51  1  0
 25 52  1  0
 25 53  1  0
 26 54  1  0
 26 55  1  0
 27 56  1  0
 27 57  1  0
 30 58  1  0
 33 59  1  0
 34 60  1  0
M  CHG  1   4  -1
M  END
>  <UniqueID>  (32) 
31

>  <SMILES>  (32) 
CC(=O)[N-]c1ccc(C#Cc2cn([C@@H]3C[C@@H](O)C(COC(=O)C4CCCC4)O3)ncc2=O)cc1

>  <Energy>  (32) 
62.58179198937718

>  <Genealogy>  (32) 
CC(=O)[N-]c1ccc(C#Cc2cn(C3CC(O)C(COC(=O)C4CCCC4)O3)ncc2=O)cc1 (protonated)
CC(=O)[N-]c1ccc(C#Cc2cn([C@@H]3C[C@@H](O)C(COC(=O)C4CCCC4)O3)ncc2=O)cc1 (chirality)
CC(=O)[N-]c1ccc(C#Cc2cn([C@@H]3C[C@@H](O)C(COC(=O)C4CCCC4)O3)ncc2=O)cc1 (3D coordinates assigned)
CC(=O)[N-]c1ccc(C#Cc2cn([C@@H]3C[C@@H](O)C(COC(=O)C4CCCC4)O3)ncc2=O)cc1 (nonaromatic ring conformer: 62.58179198937718 kcal/mol)

>  <smiles>  (32) 
CC(=O)Nc1ccc(C#Cc2cn(C3CC(O)C(COC(=O)C4CCCC4)O3)ncc2=O)cc1

>  <score_type>  (32) 
oracle

>  <origin>  (32) 
adg

>  <m_score__min__energy>  (32) 
-9.8499999999999996

>  <m_primary>  (32) 
energy

$$$$
32:0
     RDKit          3D

 73 77  0  0  0  0  0  0  0  0999 V2000
   61.1260   34.5930   49.1730 O   0  0  0  0  0  0  0  0  0  0  0  0
   59.9340   34.2000   49.0610 C   0  0  0  0  0  0  0  0  0  0  0  0
   59.2670   33.7010   50.2260 N   0  0  0  0  0  0  0  0  0  0  0  0
   59.8710   32.8800   51.2380 C   0  0  0  0  0  0  0  0  0  0  0  0
   60.7260   33.4590   52.1900 C   0  0  0  0  0  0  0  0  0  0  0  0
   61.4120   32.6560   53.1020 C   0  0  0  0  0  0  0  0  0  0  0  0
   61.2560   31.2710   53.0700 C   0  0  0  0  0  0  0  0  0  0  0  0
   60.3940   30.6830   52.1400 C   0  0  0  0  0  0  0  0  0  0  0  0
   59.6790   31.4770   51.2270 C   0  0  0  0  0  0  0  0  0  0  0  0
   58.6480   30.8460   50.3680 C   0  0  0  0  0  0  0  0  0  0  0  0
   57.5520   30.4720   50.8650 O   0  0  0  0  0  0  0  0  0  0  0  0
   58.8820   30.7460   48.9590 N   0  0  0  0  0  0  0  0  0  0  0  0
   59.9720   30.0800   48.2450 C   0  0  2  0  0  0  0  0  0  0  0  0
   60.6980   31.0270   47.2610 C   0  0  0  0  0  0  0  0  0  0  0  0
   61.8970   31.7370   47.8340 C   0  0  0  0  0  0  0  0  0  0  0  0
   62.5190   32.7730   47.1140 C   0  0  0  0  0  0  0  0  0  0  0  0
   63.6360   33.4270   47.6420 C   0  0  0  0  0  0  0  0  0  0  0  0
   64.1340   33.0630   48.8970 C   0  0  0  0  0  0  0  0  0  0  0  0
   63.5110   32.0460   49.6260 C   0  0  0  0  0  0  0  0  0  0  0  0
   62.3960   31.3860   49.1010 C   0  0  0  0  0  0  0  0  0  0  0  0
   59.5710   28.7530   47.6330 C   0  0  0  0  0  0  0  0  0  0  0  0
   60.2740   27.7260   47.8290 O   0  0  0  0  0  0  0  0  0  0  0  0
   58.3530   28.6130   46.8840 N   0  0  0  0  0  0  0  0  0  0  0  0
   58.1400   27.7070   45.7920 C   0  0  0  0  0  0  0  0  0  0  0  0
   58.7110   27.9900   44.5470 C   0  0  0  0  0  0  0  0  0  0  0  0
   58.5170   27.1210   43.4690 C   0  0  0  0  0  0  0  0  0  0  0  0
   57.7460   25.9670   43.6280 C   0  0  0  0  0  0  0  0  0  0  0  0
   57.1510   25.6820   44.8650 C   0  0  0  0  0  0  0  0  0  0  0  0
   56.1820   24.2210   45.0700 S   0  0  0  0  0  0  0  0  0  0  0  0
   55.2880   24.3880   46.2680 O   0  0  0  0  0  0  0  0  0  0  0  0
   55.3020   24.0500   43.8630 O   0  0  0  0  0  0  0  0  0  0  0  0
   57.1600   22.7840   45.2990 N   0  0  0  0  0  0  0  0  0  0  0  0
   58.0470   22.5180   44.1490 C   0  0  0  0  0  0  0  0  0  0  0  0
   57.3520   21.7200   43.0180 C   0  0  0  0  0  0  0  0  0  0  0  0
   56.1120   21.1580   43.3970 O   0  0  0  0  0  0  0  0  0  0  0  0
   56.2310   20.5410   44.6550 C   0  0  0  0  0  0  0  0  0  0  0  0
   56.3780   21.6100   45.7460 C   0  0  0  0  0  0  0  0  0  0  0  0
   57.3240   26.5730   45.9350 C   0  0  0  0  0  0  0  0  0  0  0  0
   59.2880   34.1880   47.7260 C   0  0  0  0  0  0  0  0  0  0  0  0
   58.1740   33.3660   47.4660 C   0  0  0  0  0  0  0  0  0  0  0  0
   57.6100   33.3200   46.1870 C   0  0  0  0  0  0  0  0  0  0  0  0
   58.1510   34.0900   45.1540 C   0  0  0  0  0  0  0  0  0  0  0  0
   59.2590   34.9040   45.3980 C   0  0  0  0  0  0  0  0  0  0  0  0
   59.8280   34.9520   46.6750 C   0  0  0  0  0  0  0  0  0  0  0  0
   60.8555   34.5510   52.2168 H   0  0  0  0  0  0  0  0  0  0  0  0
   62.0770   33.1166   53.8474 H   0  0  0  0  0  0  0  0  0  0  0  0
   61.8125   30.6396   53.7782 H   0  0  0  0  0  0  0  0  0  0  0  0
   60.2742   29.5897   52.1225 H   0  0  0  0  0  0  0  0  0  0  0  0
   60.7185   29.8150   49.0082 H   0  0  0  0  0  0  0  0  0  0  0  0
   61.0327   30.4324   46.3982 H   0  0  0  0  0  0  0  0  0  0  0  0
   59.9732   31.8103   46.9942 H   0  0  0  0  0  0  0  0  0  0  0  0
   62.1247   33.0699   46.1310 H   0  0  0  0  0  0  0  0  0  0  0  0
   64.1241   34.2294   47.0693 H   0  0  0  0  0  0  0  0  0  0  0  0
   65.0149   33.5763   49.3100 H   0  0  0  0  0  0  0  0  0  0  0  0
   63.8993   31.7641   50.6158 H   0  0  0  0  0  0  0  0  0  0  0  0
   61.9073   30.5893   49.6811 H   0  0  0  0  0  0  0  0  0  0  0  0
   59.3151   28.8998   44.4154 H   0  0  0  0  0  0  0  0  0  0  0  0
   58.9725   27.3465   42.4935 H   0  0  0  0  0  0  0  0  0  0  0  0
   57.6054   25.2801   42.7804 H   0  0  0  0  0  0  0  0  0  0  0  0
   58.3881   23.4804   43.7399 H   0  0  0  0  0  0  0  0  0  0  0  0
   58.8847   21.9063   44.5152 H   0  0  0  0  0  0  0  0  0  0  0  0
   57.1806   22.3985   42.1693 H   0  0  0  0  0  0  0  0  0  0  0  0
   58.0179   20.8835   42.7596 H   0  0  0  0  0  0  0  0  0  0  0  0
   55.3322   19.9385   44.8528 H   0  0  0  0  0  0  0  0  0  0  0  0
   57.1198   19.8929   44.6592 H   0  0  0  0  0  0  0  0  0  0  0  0
   55.3745   21.9489   46.0430 H   0  0  0  0  0  0  0  0  0  0  0  0
   56.9204   21.1521   46.5864 H   0  0  0  0  0  0  0  0  0  0  0  0
   56.8170   26.3820   46.8924 H   0  0  0  0  0  0  0  0  0  0  0  0
   57.7447   32.7561   48.2745 H   0  0  0  0  0  0  0  0  0  0  0  0
   56.7390   32.6765   45.9939 H   0  0  0  0  0  0  0  0  0  0  0  0
   57.7044   34.0549   44.1494 H   0  0  0  0  0  0  0  0  0  0  0  0
   59.6854   35.5089   44.5842 H   0  0  0  0  0  0  0  0  0  0  0  0
   60.7039   35.5916   46.8589 H   0  0  0  0  0  0  0  0  0  0  0  0
  1  2  2  0
  2  3  1  0
  3  4  1  0
  4  5  2  0
  5  6  1  0
  6  7  2  0
  7  8  1  0
  8  9  2  0
  9 10  1  0
 10 11  2  0
 10 12  1  0
 12 13  1  0
 13 14  1  0
 14 15  1  0
 15 16  2  0
 16 17  1  0
 17 18  2  0
 18 19  1  0
 19 20  2  0
 13 21  1  0
 21 22  2  0
 21 23  1  0
 23 24  1  0
 24 25  2  0
 25 26  1  0
 26 27  2  0
 27 28  1  0
 28 29  1  0
 29 30  2  0
 29 31  2  0
 29 32  1  0
 32 33  1  0
 33 34  1  0
 34 35  1  0
 35 36  1  0
 36 37  1  0
 28 38  2  0
  2 39  1  0
 39 40  2  0
 40 41  1  0
 41 42  2  0
 42 43  1  0
 43 44  2  0
  9  4  1  0
 20 15  1  0
 38 24  1  0
 44 39  1  0
 37 32  1  0
  5 45  1  0
  6 46  1  0
  7 47  1  0
  8 48  1  0
 13 49  1  1
 14 50  1  0
 14 51  1  0
 16 52  1  0
 17 53  1  0
 18 54  1  0
 19 55  1  0
 20 56  1  0
 25 57  1  0
 26 58  1  0
 27 59  1  0
 33 60  1  0
 33 61  1  0
 34 62  1  0
 34 63  1  0
 36 64  1  0
 36 65  1  0
 37 66  1  0
 37 67  1  0
 38 68  1  0
 40 69  1  0
 41 70  1  0
 42 71  1  0
 43 72  1  0
 44 73  1  0
M  CHG  3   3  -1  12  -1  23  -1
M  END
>  <UniqueID>  (33) 
32

>  <SMILES>  (33) 
O=C([N-]c1ccccc1C(=O)[N-][C@H](Cc1ccccc1)C(=O)[N-]c1cccc(S(=O)(=O)N2CCOCC2)c1)c1ccccc1

>  <Energy>  (33) 
105.22652145520726

>  <Genealogy>  (33) 
O=C([N-]c1ccccc1C(=O)[N-]C(Cc1ccccc1)C(=O)[N-]c1cccc(S(=O)(=O)N2CCOCC2)c1)c1ccccc1 (protonated)
O=C([N-]c1ccccc1C(=O)[N-][C@H](Cc1ccccc1)C(=O)[N-]c1cccc(S(=O)(=O)N2CCOCC2)c1)c1ccccc1 (chirality)
O=C([N-]c1ccccc1C(=O)[N-][C@H](Cc1ccccc1)C(=O)[N-]c1cccc(S(=O)(=O)N2CCOCC2)c1)c1ccccc1 (3D coordinates assigned)
O=C([N-]c1ccccc1C(=O)[N-][C@H](Cc1ccccc1)C(=O)[N-]c1cccc(S(=O)(=O)N2CCOCC2)c1)c1ccccc1 (nonaromatic ring conformer: 105.22652145520726 kcal/mol)

>  <smiles>  (33) 
O=C(Nc1ccccc1C(=O)NC(Cc1ccccc1)C(=O)Nc1cccc(S(=O)(=O)N2CCOCC2)c1)c1ccccc1

>  <score_type>  (33) 
oracle

>  <origin>  (33) 
adg

>  <m_score__min__energy>  (33) 
-15.68

>  <m_primary>  (33) 
energy

$$$$
33:0
     RDKit          3D

 48 51  0  0  0  0  0  0  0  0999 V2000
   57.5100   30.0140   44.1280 C   0  0  0  0  0  0  0  0  0  0  0  0
   57.9670   29.6650   45.3400 C   0  0  0  0  0  0  0  0  0  0  0  0
   57.9800   28.3780   45.8980 C   0  0  0  0  0  0  0  0  0  0  0  0
   57.8150   27.1710   45.3260 C   0  0  0  0  0  0  0  0  0  0  0  0
   57.2230   25.9950   45.9860 C   0  0  0  0  0  0  0  0  0  0  0  0
   57.9280   24.9760   46.5130 N   0  0  0  0  0  0  0  0  0  0  0  0
   56.9830   24.2190   47.1100 C   0  0  0  0  0  0  0  0  0  0  0  0
   57.2540   23.1470   47.7130 O   0  0  0  0  0  0  0  0  0  0  0  0
   55.7270   24.7060   47.0210 N   0  0  0  0  0  0  0  0  0  0  0  0
   55.9000   25.8370   46.3180 C   0  0  0  0  0  0  0  0  0  0  0  0
   54.8700   26.7110   45.9920 O   0  0  0  0  0  0  0  0  0  0  0  0
   58.2620   28.5440   47.2460 C   0  0  0  0  0  0  0  0  0  0  0  0
   58.4980   29.8900   47.4410 C   0  0  0  0  0  0  0  0  0  0  0  0
   58.8960   30.5110   48.7440 C   0  0  0  0  0  0  0  0  0  0  0  0
   58.3280   30.5690   46.2850 N   0  0  0  0  0  0  0  0  0  0  0  0
   58.5330   31.9810   46.1000 C   0  0  0  0  0  0  0  0  0  0  0  0
   57.4660   32.7860   45.6740 C   0  0  0  0  0  0  0  0  0  0  0  0
   57.6540   34.1530   45.4640 C   0  0  0  0  0  0  0  0  0  0  0  0
   58.9080   34.7290   45.6830 C   0  0  0  0  0  0  0  0  0  0  0  0
   59.9770   33.9390   46.1130 C   0  0  0  0  0  0  0  0  0  0  0  0
   59.8030   32.5620   46.3190 C   0  0  0  0  0  0  0  0  0  0  0  0
   60.9290   31.7420   46.8150 C   0  0  0  0  0  0  0  0  0  0  0  0
   61.1470   30.6220   46.2770 O   0  0  0  0  0  0  0  0  0  0  0  0
   61.8070   32.2110   47.8550 N   0  0  0  0  0  0  0  0  0  0  0  0
   61.4570   33.2240   48.8390 C   0  0  0  0  0  0  0  0  0  0  0  0
   62.7790   33.6950   49.4280 C   0  0  0  0  0  0  0  0  0  0  0  0
   63.7830   32.5830   49.1140 C   0  0  2  0  0  0  0  0  0  0  0  0
   65.0540   33.1070   48.8330 O   0  0  0  0  0  0  0  0  0  0  0  0
   63.2170   31.8590   47.8980 C   0  0  0  0  0  0  0  0  0  0  0  0
   57.5557   31.0643   43.8044 H   0  0  0  0  0  0  0  0  0  0  0  0
   57.0895   29.2498   43.4577 H   0  0  0  0  0  0  0  0  0  0  0  0
   58.1483   27.0537   44.2843 H   0  0  0  0  0  0  0  0  0  0  0  0
   58.2918   27.7551   48.0120 H   0  0  0  0  0  0  0  0  0  0  0  0
   58.5065   29.9032   49.5740 H   0  0  0  0  0  0  0  0  0  0  0  0
   59.9931   30.5584   48.8076 H   0  0  0  0  0  0  0  0  0  0  0  0
   58.4808   31.5276   48.8076 H   0  0  0  0  0  0  0  0  0  0  0  0
   56.4760   32.3375   45.5046 H   0  0  0  0  0  0  0  0  0  0  0  0
   56.8140   34.7775   45.1257 H   0  0  0  0  0  0  0  0  0  0  0  0
   59.0538   35.8065   45.5165 H   0  0  0  0  0  0  0  0  0  0  0  0
   60.9603   34.3989   46.2910 H   0  0  0  0  0  0  0  0  0  0  0  0
   60.9308   34.0615   48.3577 H   0  0  0  0  0  0  0  0  0  0  0  0
   60.7851   32.8250   49.6132 H   0  0  0  0  0  0  0  0  0  0  0  0
   63.0932   34.6403   48.9614 H   0  0  0  0  0  0  0  0  0  0  0  0
   62.7014   33.8828   50.5091 H   0  0  0  0  0  0  0  0  0  0  0  0
   63.9144   31.9070   49.9718 H   0  0  0  0  0  0  0  0  0  0  0  0
   65.1800   33.0280   47.8520 H   0  0  0  0  0  0  0  0  0  0  0  0
   63.7245   32.1936   46.9812 H   0  0  0  0  0  0  0  0  0  0  0  0
   63.3631   30.7710   47.9675 H   0  0  0  0  0  0  0  0  0  0  0  0
  1  2  2  0
  2  3  1  0
  3  4  2  3
  4  5  1  0
  5  6  1  0
  6  7  1  0
  7  8  2  0
  7  9  1  0
  9 10  1  0
 10 11  1  0
  3 12  1  0
 12 13  2  0
 13 14  1  0
 13 15  1  0
 15 16  1  0
 16 17  2  0
 17 18  1  0
 18 19  2  0
 19 20  1  0
 20 21  2  0
 21 22  1  0
 22 23  2  0
 22 24  1  0
 24 25  1  0
 25 26  1  0
 26 27  1  0
 27 28  1  0
 27 29  1  0
 15  2  1  0
 21 16  1  0
 29 24  1  0
 10  5  2  0
  1 30  1  0
  1 31  1  0
  4 32  1  0
 12 33  1  0
 14 34  1  0
 14 35  1  0
 14 36  1  0
 17 37  1  0
 18 38  1  0
 19 39  1  0
 20 40  1  0
 25 41  1  0
 25 42  1  0
 26 43  1  0
 26 44  1  0
 27 45  1  1
 28 46  1  0
 29 47  1  0
 29 48  1  0
M  CHG  3   6  -1   9  -1  11  -1
M  END
>  <UniqueID>  (34) 
33

>  <SMILES>  (34) 
C=c1c(=Cc2[n-]c(=O)[n-]c2[O-])cc(C)n1-c1ccccc1C(=O)N1CC[C@H](O)C1

>  <Energy>  (34) 
128.9869817829566

>  <Genealogy>  (34) 
C=c1c(=Cc2[n-]c(=O)[n-]c2[O-])cc(C)n1-c1ccccc1C(=O)N1CCC(O)C1 (protonated)
C=c1c(=Cc2[n-]c(=O)[n-]c2[O-])cc(C)n1-c1ccccc1C(=O)N1CC[C@H](O)C1 (chirality)
C=c1c(=Cc2[n-]c(=O)[n-]c2[O-])cc(C)n1-c1ccccc1C(=O)N1CC[C@H](O)C1 (3D coordinates assigned)
C=c1c(=Cc2[n-]c(=O)[n-]c2[O-])cc(C)n1-c1ccccc1C(=O)N1CC[C@H](O)C1 (nonaromatic ring conformer: 128.9869817829566 kcal/mol)

>  <smiles>  (34) 
C=c1c(=Cc2[nH]c(=O)[nH]c2O)cc(C)n1-c1ccccc1C(=O)N1CCC(O)C1

>  <score_type>  (34) 
oracle

>  <origin>  (34) 
adg

>  <m_score__min__energy>  (34) 
-16.190000000000001

>  <m_primary>  (34) 
energy

$$$$
34:0
     RDKit          3D

 48 50  0  0  0  0  0  0  0  0999 V2000
   54.7720   26.3430   45.9290 N   0  0  0  0  0  0  0  0  0  0  0  0
   55.0750   24.9510   45.9570 C   0  0  0  0  0  0  0  0  0  0  0  0
   54.1630   24.1140   46.1970 O   0  0  0  0  0  0  0  0  0  0  0  0
   56.4660   24.4790   45.6630 C   0  0  0  0  0  0  0  0  0  0  0  0
   57.2520   24.2890   46.9330 C   0  0  0  0  0  0  0  0  0  0  0  0
   57.4920   23.1220   47.3440 O   0  0  0  0  0  0  0  0  0  0  0  0
   57.7290   25.3990   47.7020 N   0  0  0  0  0  0  0  0  0  0  0  0
   58.4120   26.5520   47.1940 C   0  0  0  0  0  0  0  0  0  0  0  0
   59.7290   26.8620   47.4540 C   0  0  0  0  0  0  0  0  0  0  0  0
   60.0840   27.9390   46.7320 N   0  0  0  0  0  0  0  0  0  0  0  0
   59.0060   28.3060   46.0110 C   0  0  0  0  0  0  0  0  0  0  0  0
   59.0180   29.4020   44.9910 C   0  0  0  0  0  0  0  0  0  0  0  0
   58.9030   30.7410   45.6720 C   0  0  0  0  0  0  0  0  0  0  0  0
   60.0020   31.2570   46.3800 C   0  0  0  0  0  0  0  0  0  0  0  0
   59.9390   32.5270   46.9650 C   0  0  0  0  0  0  0  0  0  0  0  0
   61.0660   33.0200   47.6980 N   0  0  0  0  0  0  0  0  0  0  0  0
   61.0000   33.6720   48.9730 C   0  0  0  0  0  0  0  0  0  0  0  0
   60.7250   34.9000   49.0120 O   0  0  0  0  0  0  0  0  0  0  0  0
   61.1360   32.9050   50.2630 C   0  0  0  0  0  0  0  0  0  0  0  0
   59.8140   32.3590   50.7420 C   0  0  0  0  0  0  0  0  0  0  0  0
   58.9740   33.1370   51.5580 C   0  0  0  0  0  0  0  0  0  0  0  0
   57.7430   32.6340   51.9890 C   0  0  0  0  0  0  0  0  0  0  0  0
   57.3340   31.3550   51.6010 C   0  0  0  0  0  0  0  0  0  0  0  0
   56.1410   30.8680   52.0210 F   0  0  0  0  0  0  0  0  0  0  0  0
   58.1540   30.5800   50.7760 C   0  0  0  0  0  0  0  0  0  0  0  0
   59.3830   31.0810   50.3400 C   0  0  0  0  0  0  0  0  0  0  0  0
   58.7530   33.2690   46.8840 C   0  0  0  0  0  0  0  0  0  0  0  0
   57.6610   32.7700   46.1710 C   0  0  0  0  0  0  0  0  0  0  0  0
   57.7330   31.5170   45.5560 C   0  0  0  0  0  0  0  0  0  0  0  0
   56.6370   31.0480   44.8380 O   0  0  0  0  0  0  0  0  0  0  0  0
   57.9450   27.4520   46.2540 C   0  0  0  0  0  0  0  0  0  0  0  0
   53.8990   26.7110   46.3680 H   0  0  0  0  0  0  0  0  0  0  0  0
   56.4144   23.5208   45.1253 H   0  0  0  0  0  0  0  0  0  0  0  0
   56.9712   25.2392   45.0491 H   0  0  0  0  0  0  0  0  0  0  0  0
   60.3871   26.3140   48.1444 H   0  0  0  0  0  0  0  0  0  0  0  0
   61.0290   28.3850   46.7120 H   0  0  0  0  0  0  0  0  0  0  0  0
   59.9596   29.3615   44.4238 H   0  0  0  0  0  0  0  0  0  0  0  0
   58.1655   29.2696   44.3086 H   0  0  0  0  0  0  0  0  0  0  0  0
   60.9195   30.6577   46.4752 H   0  0  0  0  0  0  0  0  0  0  0  0
   61.8297   32.0661   50.1051 H   0  0  0  0  0  0  0  0  0  0  0  0
   61.5138   33.5973   51.0298 H   0  0  0  0  0  0  0  0  0  0  0  0
   59.2873   34.1475   51.8591 H   0  0  0  0  0  0  0  0  0  0  0  0
   57.0953   33.2456   52.6344 H   0  0  0  0  0  0  0  0  0  0  0  0
   57.8311   29.5741   50.4696 H   0  0  0  0  0  0  0  0  0  0  0  0
   60.0176   30.4730   49.6785 H   0  0  0  0  0  0  0  0  0  0  0  0
   58.6821   34.2467   47.3832 H   0  0  0  0  0  0  0  0  0  0  0  0
   56.7397   33.3659   46.0930 H   0  0  0  0  0  0  0  0  0  0  0  0
   56.9447   27.4825   45.7974 H   0  0  0  0  0  0  0  0  0  0  0  0
  1  2  1  0
  2  3  2  0
  2  4  1  0
  4  5  1  0
  5  6  2  0
  5  7  1  0
  7  8  1  0
  8  9  2  0
  9 10  1  0
 10 11  1  0
 11 12  1  0
 12 13  1  0
 13 14  2  0
 14 15  1  0
 15 16  1  0
 16 17  1  0
 17 18  2  0
 17 19  1  0
 19 20  1  0
 20 21  2  0
 21 22  1  0
 22 23  2  0
 23 24  1  0
 23 25  1  0
 25 26  2  0
 15 27  2  0
 27 28  1  0
 28 29  2  0
 29 30  1  0
 11 31  2  0
 31  8  1  0
 29 13  1  0
 26 20  1  0
  1 32  1  0
  4 33  1  0
  4 34  1  0
  9 35  1  0
 10 36  1  0
 12 37  1  0
 12 38  1  0
 14 39  1  0
 19 40  1  0
 19 41  1  0
 21 42  1  0
 22 43  1  0
 25 44  1  0
 26 45  1  0
 27 46  1  0
 28 47  1  0
 31 48  1  0
M  CHG  4   1  -1   7  -1  16  -1  30  -1
M  END
>  <UniqueID>  (35) 
34

>  <SMILES>  (35) 
[NH-]C(=O)CC(=O)[N-]c1c[nH]c(Cc2cc([N-]C(=O)Cc3ccc(F)cc3)ccc2[O-])c1

>  <Energy>  (35) 
80.77955627350947

>  <Genealogy>  (35) 
[NH-]C(=O)CC(=O)[N-]c1c[nH]c(Cc2cc([N-]C(=O)Cc3ccc(F)cc3)ccc2[O-])c1 (protonated)
[NH-]C(=O)CC(=O)[N-]c1c[nH]c(Cc2cc([N-]C(=O)Cc3ccc(F)cc3)ccc2[O-])c1 (3D coordinates assigned)
[NH-]C(=O)CC(=O)[N-]c1c[nH]c(Cc2cc([N-]C(=O)Cc3ccc(F)cc3)ccc2[O-])c1 (optimized conformer: 80.77955627350947 kcal/mol)

>  <smiles>  (35) 
NC(=O)CC(=O)Nc1c[nH]c(Cc2cc(NC(=O)Cc3ccc(F)cc3)ccc2O)c1

>  <score_type>  (35) 
oracle

>  <origin>  (35) 
adg

>  <m_score__min__energy>  (35) 
-16.07

>  <m_primary>  (35) 
energy

$$$$
35:0
     RDKit          3D

 24 25  0  0  0  0  0  0  0  0999 V2000
   55.5220   28.3100   45.2580 O   0  0  0  0  0  0  0  0  0  0  0  0
   56.1500   29.3600   44.6010 C   0  0  0  0  0  0  0  0  0  0  0  0
   56.9960   30.2770   45.2070 C   0  0  0  0  0  0  0  0  0  0  0  0
   57.3820   31.1290   44.1870 C   0  0  0  0  0  0  0  0  0  0  0  0
   58.2290   32.2480   44.1840 C   0  0  0  0  0  0  0  0  0  0  0  0
   58.8870   32.7700   45.4380 C   0  0  0  0  0  0  0  0  0  0  0  0
   57.9110   33.5970   46.2850 C   0  0  0  0  0  0  0  0  0  0  0  0
   58.0670   33.3240   47.7100 N   0  0  0  0  0  0  0  0  0  0  0  0
   59.1460   33.5880   48.3320 C   0  0  0  0  0  0  0  0  0  0  0  0
   60.5110   33.9220   49.1180 S   0  0  0  0  0  0  0  0  0  0  0  0
   58.4190   32.9120   42.9510 C   0  0  0  0  0  0  0  0  0  0  0  0
   57.7840   32.4520   41.7780 C   0  0  0  0  0  0  0  0  0  0  0  0
   56.9430   31.3280   41.8150 C   0  0  0  0  0  0  0  0  0  0  0  0
   56.7630   30.6880   43.0400 C   0  0  0  0  0  0  0  0  0  0  0  0
   56.0050   29.6060   43.2820 N   0  0  0  0  0  0  0  0  0  0  0  0
   57.2943   30.3180   46.2650 H   0  0  0  0  0  0  0  0  0  0  0  0
   59.2444   31.9180   46.0349 H   0  0  0  0  0  0  0  0  0  0  0  0
   59.7233   33.4207   45.1427 H   0  0  0  0  0  0  0  0  0  0  0  0
   58.0993   34.6656   46.1042 H   0  0  0  0  0  0  0  0  0  0  0  0
   56.8865   33.3221   45.9936 H   0  0  0  0  0  0  0  0  0  0  0  0
   59.0696   33.7978   42.9053 H   0  0  0  0  0  0  0  0  0  0  0  0
   57.9491   32.9784   40.8263 H   0  0  0  0  0  0  0  0  0  0  0  0
   56.4421   30.9641   40.9058 H   0  0  0  0  0  0  0  0  0  0  0  0
   55.4280   29.0680   42.5980 H   0  0  0  0  0  0  0  0  0  0  0  0
  1  2  1  0
  2  3  2  0
  3  4  1  0
  4  5  2  0
  5  6  1  0
  6  7  1  0
  7  8  1  0
  8  9  2  0
  9 10  2  0
  5 11  1  0
 11 12  2  0
 12 13  1  0
 13 14  2  0
 14 15  1  0
 15  2  1  0
 14  4  1  0
  3 16  1  0
  6 17  1  0
  6 18  1  0
  7 19  1  0
  7 20  1  0
 11 21  1  0
 12 22  1  0
 13 23  1  0
 15 24  1  0
M  CHG  1   1  -1
M  END
>  <UniqueID>  (36) 
35

>  <SMILES>  (36) 
[O-]c1cc2c(CCN=C=S)cccc2[nH]1

>  <Energy>  (36) 
53.48674977487088

>  <Genealogy>  (36) 
[O-]c1cc2c(CCN=C=S)cccc2[nH]1 (protonated)
[O-]c1cc2c(CCN=C=S)cccc2[nH]1 (3D coordinates assigned)
[O-]c1cc2c(CCN=C=S)cccc2[nH]1 (optimized conformer: 53.48674977487088 kcal/mol)

>  <smiles>  (36) 
Oc1cc2c(CCN=C=S)cccc2[nH]1

>  <score_type>  (36) 
oracle

>  <origin>  (36) 
adg

>  <m_score__min__energy>  (36) 
-9.4900000000000002

>  <m_primary>  (36) 
energy

$$$$
36:0
     RDKit          3D

 64 67  0  0  0  0  0  0  0  0999 V2000
   55.1570   28.6020   45.6260 H   0  0  0  0  0  0  0  0  0  0  0  0
   55.2600   29.2780   44.8370 N   0  0  0  0  0  0  0  0  0  0  0  0
   56.5430   29.5870   44.3000 C   0  0  0  0  0  0  0  0  0  0  0  0
   56.7830   29.3440   43.0880 O   0  0  0  0  0  0  0  0  0  0  0  0
   57.5470   30.2550   45.1460 C   0  0  0  0  0  0  0  0  0  0  0  0
   57.7330   31.6220   45.1960 C   0  0  0  0  0  0  0  0  0  0  0  0
   57.0586   32.3730   44.7587 H   0  0  0  0  0  0  0  0  0  0  0  0
   58.8760   31.8920   45.8680 N   0  0  0  0  0  0  0  0  0  0  0  0
   59.4100   33.2440   46.1790 C   0  0  1  0  0  0  0  0  0  0  0  0
   59.0750   34.1590   44.9640 C   0  0  0  0  0  0  0  0  0  0  0  0
   59.3406   33.6199   44.0426 H   0  0  0  0  0  0  0  0  0  0  0  0
   59.6527   35.0855   45.0973 H   0  0  0  0  0  0  0  0  0  0  0  0
   57.6600   34.5520   44.8770 C   0  0  0  0  0  0  0  0  0  0  0  0
   56.5460   34.8560   44.8120 N   0  0  0  0  0  0  0  0  0  0  0  0
   58.7440   33.8050   47.4910 C   0  0  0  0  0  0  0  0  0  0  0  0
   57.9136   34.4684   47.2077 H   0  0  0  0  0  0  0  0  0  0  0  0
   58.3954   32.9438   48.0800 H   0  0  0  0  0  0  0  0  0  0  0  0
   59.7300   34.5980   48.3680 C   0  0  0  0  0  0  0  0  0  0  0  0
   60.0932   35.4640   47.7951 H   0  0  0  0  0  0  0  0  0  0  0  0
   59.1926   34.9088   49.2761 H   0  0  0  0  0  0  0  0  0  0  0  0
   60.9020   33.7820   48.7940 N   0  0  1  0  0  0  0  0  0  0  0  0
   61.7090   34.4460   48.8770 H   0  0  0  0  0  0  0  0  0  0  0  0
   60.6560   33.2040   50.1020 C   0  0  0  0  0  0  0  0  0  0  0  0
   61.5430   32.5040   50.6640 O   0  0  0  0  0  0  0  0  0  0  0  0
   59.3120   33.2330   50.7090 C   0  0  0  0  0  0  0  0  0  0  0  0
   59.0614   34.0948   51.3450 H   0  0  0  0  0  0  0  0  0  0  0  0
   58.3720   32.2910   50.5460 C   0  0  0  0  0  0  0  0  0  0  0  0
   57.7593   32.3390   49.6337 H   0  0  0  0  0  0  0  0  0  0  0  0
   58.0890   31.1720   51.5140 C   0  0  0  0  0  0  0  0  0  0  0  0
   58.8255   31.2037   52.3304 H   0  0  0  0  0  0  0  0  0  0  0  0
   57.0732   31.2965   51.9173 H   0  0  0  0  0  0  0  0  0  0  0  0
   58.1770   29.8640   50.8280 N   0  0  0  0  0  0  0  0  0  0  0  0
   59.2500   29.0450   51.4100 C   0  0  0  0  0  0  0  0  0  0  0  0
   59.3780   29.2964   52.4732 H   0  0  0  0  0  0  0  0  0  0  0  0
   59.0019   27.9760   51.3341 H   0  0  0  0  0  0  0  0  0  0  0  0
   60.5320   29.3490   50.6480 C   0  0  0  0  0  0  0  0  0  0  0  0
   61.1515   30.0662   51.2064 H   0  0  0  0  0  0  0  0  0  0  0  0
   61.1450   28.4478   50.4996 H   0  0  0  0  0  0  0  0  0  0  0  0
   60.0800   29.9500   49.3300 C   0  0  0  0  0  0  0  0  0  0  0  0
   60.5054   30.9560   49.1999 H   0  0  0  0  0  0  0  0  0  0  0  0
   60.4126   29.3488   48.4710 H   0  0  0  0  0  0  0  0  0  0  0  0
   58.5620   30.0210   49.4170 C   0  0  0  0  0  0  0  0  0  0  0  0
   58.2121   30.9938   49.0411 H   0  0  0  0  0  0  0  0  0  0  0  0
   58.1079   29.2259   48.8075 H   0  0  0  0  0  0  0  0  0  0  0  0
   61.2960   32.7360   47.8090 C   0  0  0  0  0  0  0  0  0  0  0  0
   62.3801   32.5658   47.8847 H   0  0  0  0  0  0  0  0  0  0  0  0
   60.7349   31.8188   48.0411 H   0  0  0  0  0  0  0  0  0  0  0  0
   60.9580   33.1510   46.3730 C   0  0  0  0  0  0  0  0  0  0  0  0
   61.4084   34.1327   46.1646 H   0  0  0  0  0  0  0  0  0  0  0  0
   61.3580   32.3951   45.6812 H   0  0  0  0  0  0  0  0  0  0  0  0
   59.4110   30.7520   46.2840 N   0  0  0  0  0  0  0  0  0  0  0  0
   58.6270   29.7430   45.8690 C   0  0  0  0  0  0  0  0  0  0  0  0
   58.8910   28.5050   46.1780 N   0  0  0  0  0  0  0  0  0  0  0  0
   58.1480   27.3320   45.8230 C   0  0  0  0  0  0  0  0  0  0  0  0
   57.0110   26.9880   46.5670 C   0  0  0  0  0  0  0  0  0  0  0  0
   56.7255   27.5907   47.4418 H   0  0  0  0  0  0  0  0  0  0  0  0
   56.2380   25.8810   46.2010 C   0  0  0  0  0  0  0  0  0  0  0  0
   55.3586   25.6026   46.8004 H   0  0  0  0  0  0  0  0  0  0  0  0
   56.5820   25.1280   45.0740 C   0  0  0  0  0  0  0  0  0  0  0  0
   55.8310   24.0560   44.7190 F   0  0  0  0  0  0  0  0  0  0  0  0
   57.6930   25.4880   44.3060 C   0  0  0  0  0  0  0  0  0  0  0  0
   57.9586   24.8998   43.4152 H   0  0  0  0  0  0  0  0  0  0  0  0
   58.4670   26.5940   44.6680 C   0  0  0  0  0  0  0  0  0  0  0  0
   59.3273   26.8882   44.0488 H   0  0  0  0  0  0  0  0  0  0  0  0
  1  2  1  0
  2  3  1  0
  3  4  2  0
  3  5  1  0
  5  6  2  0
  6  7  1  0
  6  8  1  0
  8  9  1  0
  9 10  1  1
 10 11  1  0
 10 12  1  0
 10 13  1  0
 13 14  3  0
  9 15  1  0
 15 16  1  0
 15 17  1  0
 15 18  1  0
 18 19  1  0
 18 20  1  0
 18 21  1  0
 21 22  1  6
 21 23  1  0
 23 24  2  0
 23 25  1  0
 25 26  1  0
 25 27  2  0
 27 28  1  0
 27 29  1  0
 29 30  1  0
 29 31  1  0
 29 32  1  0
 32 33  1  0
 33 34  1  0
 33 35  1  0
 33 36  1  0
 36 37  1  0
 36 38  1  0
 36 39  1  0
 39 40  1  0
 39 41  1  0
 39 42  1  0
 42 43  1  0
 42 44  1  0
 21 45  1  0
 45 46  1  0
 45 47  1  0
 45 48  1  0
 48 49  1  0
 48 50  1  0
  8 51  1  0
 51 52  1  0
 52 53  2  0
 53 54  1  0
 54 55  2  0
 55 56  1  0
 55 57  1  0
 57 58  1  0
 57 59  2  0
 59 60  1  0
 59 61  1  0
 61 62  1  0
 61 63  2  0
 63 64  1  0
 52  5  1  0
 63 54  1  0
 48  9  1  0
 42 32  1  0
M  CHG  3   2  -1  21   1  51  -1
M  END
>  <UniqueID>  (37) 
36

>  <SMILES>  (37) 
N#CCC1(n2cc(C([NH-])=O)/c(=N\c3ccc(F)cc3)[n-]2)CC[NH+](C(=O)/C=C\CN2CCCC2)CC1

>  <Energy>  (37) 
134.42199644201068

>  <Genealogy>  (37) 
N#CCC1(n2cc(C([NH-])=O)c(=Nc3ccc(F)cc3)[n-]2)CC[NH+](C(=O)C=CCN2CCCC2)CC1 (protonated)
N#CCC1(n2cc(C([NH-])=O)/c(=N\c3ccc(F)cc3)[n-]2)CC[NH+](C(=O)/C=C\CN2CCCC2)CC1 (cis-trans isomerization)
N#CCC1(n2cc(C([NH-])=O)/c(=N\c3ccc(F)cc3)[n-]2)CC[NH+](C(=O)/C=C\CN2CCCC2)CC1 (3D coordinates assigned)
N#CCC1(n2cc(C([NH-])=O)/c(=N\c3ccc(F)cc3)[n-]2)CC[NH+](C(=O)/C=C\CN2CCCC2)CC1 (nonaromatic ring conformer: 134.42199644201068 kcal/mol)

>  <smiles>  (37) 
N#CCC1(n2cc(C(N)=O)c(=Nc3ccc(F)cc3)[nH]2)CCN(C(=O)C=CCN2CCCC2)CC1

>  <score_type>  (37) 
oracle

>  <origin>  (37) 
adg

>  <m_score__min__energy>  (37) 
-11.470000000000001

>  <m_primary>  (37) 
energy

$$$$
37:0
     RDKit          3D

 56 60  0  0  0  0  0  0  0  0999 V2000
   54.5520   31.3070   51.9000 C   0  0  0  0  0  0  0  0  0  0  0  0
   54.2210   30.1650   52.5220 C   0  0  0  0  0  0  0  0  0  0  0  0
   52.9440   29.5850   52.6040 C   0  0  0  0  0  0  0  0  0  0  0  0
   51.7320   30.0750   52.2860 C   0  0  0  0  0  0  0  0  0  0  0  0
   51.2440   31.4220   52.6220 C   0  0  0  0  0  0  0  0  0  0  0  0
   50.9060   31.8210   53.8630 N   0  0  0  0  0  0  0  0  0  0  0  0
   50.3740   33.0450   53.6630 C   0  0  0  0  0  0  0  0  0  0  0  0
   49.9470   33.7610   54.6050 O   0  0  0  0  0  0  0  0  0  0  0  0
   50.3280   33.4370   52.3720 N   0  0  0  0  0  0  0  0  0  0  0  0
   50.8670   32.3900   51.7260 C   0  0  0  0  0  0  0  0  0  0  0  0
   51.0100   32.3200   50.3460 O   0  0  0  0  0  0  0  0  0  0  0  0
   53.1290   28.3090   53.1080 C   0  0  0  0  0  0  0  0  0  0  0  0
   54.4760   28.1770   53.3780 C   0  0  0  0  0  0  0  0  0  0  0  0
   55.1120   26.9370   53.9270 C   0  0  0  0  0  0  0  0  0  0  0  0
   55.1390   29.3000   53.0260 N   0  0  0  0  0  0  0  0  0  0  0  0
   56.5660   29.4790   53.0680 C   0  0  0  0  0  0  0  0  0  0  0  0
   57.3000   29.0600   54.1810 C   0  0  0  0  0  0  0  0  0  0  0  0
   58.6860   29.2070   54.1970 C   0  0  0  0  0  0  0  0  0  0  0  0
   59.3360   29.7790   53.0920 C   0  0  0  0  0  0  0  0  0  0  0  0
   60.7700   29.9020   53.0760 N   0  0  0  0  0  0  0  0  0  0  0  0
   61.5390   29.2910   51.9800 C   0  0  0  0  0  0  0  0  0  0  0  0
   63.0260   29.6530   52.0580 C   0  0  0  0  0  0  0  0  0  0  0  0
   63.1910   31.0740   52.3960 N   0  0  0  0  0  0  0  0  0  0  0  0
   64.1390   31.9030   51.6950 C   0  0  0  0  0  0  0  0  0  0  0  0
   64.6790   32.8770   52.2880 O   0  0  0  0  0  0  0  0  0  0  0  0
   64.5120   31.6210   50.2660 C   0  0  0  0  0  0  0  0  0  0  0  0
   63.4680   32.0990   49.2530 C   0  0  0  0  0  0  0  0  0  0  0  0
   64.7790   32.8540   49.4090 C   0  0  0  0  0  0  0  0  0  0  0  0
   62.4320   31.6580   53.5150 C   0  0  0  0  0  0  0  0  0  0  0  0
   61.4660   30.6430   54.1360 C   0  0  0  0  0  0  0  0  0  0  0  0
   58.6000   30.1890   52.0170 N   0  0  0  0  0  0  0  0  0  0  0  0
   57.2460   30.0500   51.9850 C   0  0  0  0  0  0  0  0  0  0  0  0
   55.5952   31.6557   51.9088 H   0  0  0  0  0  0  0  0  0  0  0  0
   53.7801   31.8945   51.3813 H   0  0  0  0  0  0  0  0  0  0  0  0
   51.0503   29.4150   51.7295 H   0  0  0  0  0  0  0  0  0  0  0  0
   52.3515   27.5465   53.2635 H   0  0  0  0  0  0  0  0  0  0  0  0
   55.0942   26.9717   55.0263 H   0  0  0  0  0  0  0  0  0  0  0  0
   54.5553   26.0544   53.5789 H   0  0  0  0  0  0  0  0  0  0  0  0
   56.1536   26.8742   53.5789 H   0  0  0  0  0  0  0  0  0  0  0  0
   56.7841   28.6143   55.0442 H   0  0  0  0  0  0  0  0  0  0  0  0
   59.2672   28.8767   55.0706 H   0  0  0  0  0  0  0  0  0  0  0  0
   61.4351   28.1975   52.0385 H   0  0  0  0  0  0  0  0  0  0  0  0
   61.1428   29.6752   51.0285 H   0  0  0  0  0  0  0  0  0  0  0  0
   63.5085   29.0381   52.8320 H   0  0  0  0  0  0  0  0  0  0  0  0
   63.4911   29.4629   51.0794 H   0  0  0  0  0  0  0  0  0  0  0  0
   65.0530   30.6834   50.4617 H   0  0  0  0  0  0  0  0  0  0  0  0
   63.2760   31.5123   48.3425 H   0  0  0  0  0  0  0  0  0  0  0  0
   62.4032   32.3705   49.3024 H   0  0  0  0  0  0  0  0  0  0  0  0
   65.5339   32.8142   48.6099 H   0  0  0  0  0  0  0  0  0  0  0  0
   65.0523   33.8990   49.6171 H   0  0  0  0  0  0  0  0  0  0  0  0
   63.1388   31.9960   54.2872 H   0  0  0  0  0  0  0  0  0  0  0  0
   61.8409   32.5000   53.1258 H   0  0  0  0  0  0  0  0  0  0  0  0
   62.0313   29.9379   54.7631 H   0  0  0  0  0  0  0  0  0  0  0  0
   60.7260   31.1765   54.7507 H   0  0  0  0  0  0  0  0  0  0  0  0
   59.0790   30.5940   51.1820 H   0  0  0  0  0  0  0  0  0  0  0  0
   56.6826   30.3883   51.1029 H   0  0  0  0  0  0  0  0  0  0  0  0
  1  2  2  0
  2  3  1  0
  3  4  2  3
  4  5  1  0
  5  6  1  0
  6  7  1  0
  7  8  2  0
  7  9  1  0
  9 10  1  0
 10 11  1  0
  3 12  1  0
 12 13  2  0
 13 14  1  0
 13 15  1  0
 15 16  1  0
 16 17  2  0
 17 18  1  0
 18 19  2  0
 19 20  1  0
 20 21  1  0
 21 22  1  0
 22 23  1  0
 23 24  1  0
 24 25  2  0
 24 26  1  0
 26 27  1  0
 27 28  1  0
 23 29  1  0
 29 30  1  0
 19 31  1  0
 31 32  2  0
 15  2  1  0
 32 16  1  0
 10  5  2  0
 30 20  1  0
 28 26  1  0
  1 33  1  0
  1 34  1  0
  4 35  1  0
 12 36  1  0
 14 37  1  0
 14 38  1  0
 14 39  1  0
 17 40  1  0
 18 41  1  0
 21 42  1  0
 21 43  1  0
 22 44  1  0
 22 45  1  0
 26 46  1  0
 27 47  1  0
 27 48  1  0
 28 49  1  0
 28 50  1  0
 29 51  1  0
 29 52  1  0
 30 53  1  0
 30 54  1  0
 31 55  1  0
 32 56  1  0
M  CHG  4   6  -1   9  -1  11  -1  31   1
M  END
>  <UniqueID>  (38) 
37

>  <SMILES>  (38) 
C=c1c(=Cc2[n-]c(=O)[n-]c2[O-])cc(C)n1-c1ccc(N2CCN(C(=O)C3CC3)CC2)[nH+]c1

>  <Energy>  (38) 
403.1568206022643

>  <Genealogy>  (38) 
C=c1c(=Cc2[n-]c(=O)[n-]c2[O-])cc(C)n1-c1ccc(N2CCN(C(=O)C3CC3)CC2)[nH+]c1 (protonated)
C=c1c(=Cc2[n-]c(=O)[n-]c2[O-])cc(C)n1-c1ccc(N2CCN(C(=O)C3CC3)CC2)[nH+]c1 (3D coordinates assigned)
C=c1c(=Cc2[n-]c(=O)[n-]c2[O-])cc(C)n1-c1ccc(N2CCN(C(=O)C3CC3)CC2)[nH+]c1 (nonaromatic ring conformer: 403.1568206022643 kcal/mol)

>  <smiles>  (38) 
C=c1c(=Cc2[nH]c(=O)[nH]c2O)cc(C)n1-c1ccc(N2CCN(C(=O)C3CC3)CC2)nc1

>  <score_type>  (38) 
oracle

>  <origin>  (38) 
adg

>  <m_score__min__energy>  (38) 
-15.31

>  <m_primary>  (38) 
energy

$$$$
38:0
     RDKit          3D

 37 38  0  0  0  0  0  0  0  0999 V2000
   54.7590   26.7120   47.1260 H   0  0  0  0  0  0  0  0  0  0  0  0
   55.2510   26.4520   46.2790 O   0  0  0  0  0  0  0  0  0  0  0  0
   56.1760   27.3160   45.7050 C   0  0  0  0  0  0  0  0  0  0  0  0
   55.8610   28.5480   45.2640 N   0  0  0  0  0  0  0  0  0  0  0  0
   57.0110   29.0570   44.7750 C   0  0  0  0  0  0  0  0  0  0  0  0
   57.1280   30.4390   44.2800 C   0  0  0  0  0  0  0  0  0  0  0  0
   56.6668   30.6657   43.3074 H   0  0  0  0  0  0  0  0  0  0  0  0
   57.7520   31.4500   44.9170 C   0  0  0  0  0  0  0  0  0  0  0  0
   58.4400   31.4530   46.1430 C   0  0  0  0  0  0  0  0  0  0  0  0
   58.5090   30.4780   47.0610 C   0  0  0  0  0  0  0  0  0  0  0  0
   58.0566   29.4965   46.8560 H   0  0  0  0  0  0  0  0  0  0  0  0
   59.0180   30.6597   48.0191 H   0  0  0  0  0  0  0  0  0  0  0  0
   58.9750   32.7360   46.2890 C   0  0  0  0  0  0  0  0  0  0  0  0
   59.7550   33.2580   47.4350 C   0  0  0  0  0  0  0  0  0  0  0  0
   59.1590   33.6420   48.4770 O   0  0  0  0  0  0  0  0  0  0  0  0
   61.2450   33.3840   47.3690 C   0  0  0  0  0  0  0  0  0  0  0  0
   61.6556   33.4187   48.3889 H   0  0  0  0  0  0  0  0  0  0  0  0
   61.6629   32.5180   46.8348 H   0  0  0  0  0  0  0  0  0  0  0  0
   61.5115   34.3079   46.8348 H   0  0  0  0  0  0  0  0  0  0  0  0
   58.5480   33.4620   45.1850 C   0  0  0  0  0  0  0  0  0  0  0  0
   58.8100   34.9100   44.9100 C   0  0  0  0  0  0  0  0  0  0  0  0
   58.9081   35.4521   45.8621 H   0  0  0  0  0  0  0  0  0  0  0  0
   59.7410   35.0110   44.3329 H   0  0  0  0  0  0  0  0  0  0  0  0
   57.9734   35.3308   44.3329 H   0  0  0  0  0  0  0  0  0  0  0  0
   57.8060   32.6850   44.3750 N   0  0  0  0  0  0  0  0  0  0  0  0
   57.3740   32.9850   43.4710 H   0  0  0  0  0  0  0  0  0  0  0  0
   58.0650   28.1680   44.9480 C   0  0  0  0  0  0  0  0  0  0  0  0
   59.5010   28.4090   44.5830 C   0  0  0  0  0  0  0  0  0  0  0  0
   60.1004   28.5096   45.4998 H   0  0  0  0  0  0  0  0  0  0  0  0
   59.8761   27.5612   43.9909 H   0  0  0  0  0  0  0  0  0  0  0  0
   59.5788   29.3328   43.9909 H   0  0  0  0  0  0  0  0  0  0  0  0
   57.5120   27.0260   45.5140 C   0  0  0  0  0  0  0  0  0  0  0  0
   58.1620   25.7600   45.9130 C   0  0  0  0  0  0  0  0  0  0  0  0
   57.6068   24.8213   45.7694 H   0  0  0  0  0  0  0  0  0  0  0  0
   59.3840   25.6960   46.4370 C   0  0  0  0  0  0  0  0  0  0  0  0
   59.8133   24.7219   46.7140 H   0  0  0  0  0  0  0  0  0  0  0  0
   59.9645   26.6173   46.5930 H   0  0  0  0  0  0  0  0  0  0  0  0
  1  2  1  0
  2  3  1  0
  3  4  1  0
  4  5  1  0
  5  6  1  0
  6  7  1  0
  6  8  2  0
  8  9  1  0
  9 10  2  0
 10 11  1  0
 10 12  1  0
  9 13  1  0
 13 14  1  0
 14 15  2  0
 14 16  1  0
 16 17  1  0
 16 18  1  0
 16 19  1  0
 13 20  2  0
 20 21  1  0
 21 22  1  0
 21 23  1  0
 21 24  1  0
 20 25  1  0
 25 26  1  0
  5 27  2  0
 27 28  1  0
 28 29  1  0
 28 30  1  0
 28 31  1  0
 27 32  1  0
 32 33  1  0
 33 34  1  0
 33 35  2  0
 35 36  1  0
 35 37  1  0
 32  3  2  0
 25  8  1  0
M  CHG  1   4  -1
M  END
>  <UniqueID>  (39) 
38

>  <SMILES>  (39) 
C=Cc1c(O)[n-]c(/C=c2/[nH]c(C)c(C(C)=O)c2=C)c1C

>  <Energy>  (39) 
104.8244139433757

>  <Genealogy>  (39) 
C=Cc1c(O)[n-]c(C=c2[nH]c(C)c(C(C)=O)c2=C)c1C (protonated)
C=Cc1c(O)[n-]c(/C=c2/[nH]c(C)c(C(C)=O)c2=C)c1C (cis-trans isomerization)
C=Cc1c(O)[n-]c(/C=c2/[nH]c(C)c(C(C)=O)c2=C)c1C (3D coordinates assigned)
C=Cc1c(O)[n-]c(/C=c2/[nH]c(C)c(C(C)=O)c2=C)c1C (optimized conformer: 104.8244139433757 kcal/mol)

>  <smiles>  (39) 
C=Cc1c(O)[nH]c(C=c2[nH]c(C)c(C(C)=O)c2=C)c1C

>  <score_type>  (39) 
oracle

>  <origin>  (39) 
adg

>  <m_score__min__energy>  (39) 
-10.609999999999999

>  <m_primary>  (39) 
energy

$$$$
39:0
     RDKit          3D

 40 42  0  0  0  0  0  0  0  0999 V2000
   57.3700   26.1690   47.0070 O   0  0  0  0  0  0  0  0  0  0  0  0
   56.8500   26.2200   45.8580 C   0  0  0  0  0  0  0  0  0  0  0  0
   57.1650   27.3110   44.9760 N   0  0  0  0  0  0  0  0  0  0  0  0
   57.7920   28.5320   45.4020 C   0  0  0  0  0  0  0  0  0  0  0  0
   58.1430   28.6930   46.7500 C   0  0  0  0  0  0  0  0  0  0  0  0
   58.7720   29.8630   47.1850 C   0  0  0  0  0  0  0  0  0  0  0  0
   59.0770   30.8840   46.2720 C   0  0  0  0  0  0  0  0  0  0  0  0
   59.7390   32.1570   46.7360 C   0  0  0  0  0  0  0  0  0  0  0  0
   58.7300   33.1320   47.2070 N   0  0  0  0  0  0  0  0  0  0  0  0
   59.2870   34.4910   47.3750 C   0  0  0  0  0  0  0  0  0  0  0  0
   59.5710   35.1750   46.0160 C   0  0  0  0  0  0  0  0  0  0  0  0
   58.9490   34.5210   44.9240 O   0  0  0  0  0  0  0  0  0  0  0  0
   57.6050   34.2290   45.2380 C   0  0  0  0  0  0  0  0  0  0  0  0
   57.5250   33.1570   46.3440 C   0  0  0  0  0  0  0  0  0  0  0  0
   58.7460   30.7190   44.9200 C   0  0  0  0  0  0  0  0  0  0  0  0
   58.1160   29.5490   44.4850 C   0  0  0  0  0  0  0  0  0  0  0  0
   55.9490   25.1350   45.4120 C   0  0  0  0  0  0  0  0  0  0  0  0
   56.3910   24.1450   44.5210 C   0  0  0  0  0  0  0  0  0  0  0  0
   55.4970   23.1430   44.1380 C   0  0  0  0  0  0  0  0  0  0  0  0
   55.8620   22.2400   43.3400 O   0  0  0  0  0  0  0  0  0  0  0  0
   54.2310   23.1410   44.6270 N   0  0  0  0  0  0  0  0  0  0  0  0
   53.8150   24.1040   45.4900 C   0  0  0  0  0  0  0  0  0  0  0  0
   52.6380   24.0860   45.9340 O   0  0  0  0  0  0  0  0  0  0  0  0
   54.6700   25.0870   45.8740 N   0  0  0  0  0  0  0  0  0  0  0  0
   57.0140   27.1750   43.9500 H   0  0  0  0  0  0  0  0  0  0  0  0
   57.9216   27.8922   47.4709 H   0  0  0  0  0  0  0  0  0  0  0  0
   59.0290   29.9839   48.2477 H   0  0  0  0  0  0  0  0  0  0  0  0
   60.4289   31.9249   47.5607 H   0  0  0  0  0  0  0  0  0  0  0  0
   60.2878   32.5977   45.8906 H   0  0  0  0  0  0  0  0  0  0  0  0
   58.5659   35.1031   47.9365 H   0  0  0  0  0  0  0  0  0  0  0  0
   60.2408   34.4021   47.9157 H   0  0  0  0  0  0  0  0  0  0  0  0
   59.2012   36.2100   46.0609 H   0  0  0  0  0  0  0  0  0  0  0  0
   60.6573   35.1327   45.8481 H   0  0  0  0  0  0  0  0  0  0  0  0
   57.1081   35.1461   45.5872 H   0  0  0  0  0  0  0  0  0  0  0  0
   57.1061   33.8450   44.3360 H   0  0  0  0  0  0  0  0  0  0  0  0
   56.6466   33.3652   46.9726 H   0  0  0  0  0  0  0  0  0  0  0  0
   57.4502   32.1767   45.8507 H   0  0  0  0  0  0  0  0  0  0  0  0
   58.9830   31.5139   44.1976 H   0  0  0  0  0  0  0  0  0  0  0  0
   57.8722   29.4228   43.4198 H   0  0  0  0  0  0  0  0  0  0  0  0
   57.4200   24.1580   44.1325 H   0  0  0  0  0  0  0  0  0  0  0  0
  1  2  2  0
  2  3  1  0
  3  4  1  0
  4  5  2  0
  5  6  1  0
  6  7  2  0
  7  8  1  0
  8  9  1  0
  9 10  1  0
 10 11  1  0
 11 12  1  0
 12 13  1  0
 13 14  1  0
  7 15  1  0
 15 16  2  0
  2 17  1  0
 17 18  2  0
 18 19  1  0
 19 20  2  0
 19 21  1  0
 21 22  1  0
 22 23  2  0
 22 24  1  0
 16  4  1  0
 24 17  1  0
 14  9  1  0
  3 25  1  0
  5 26  1  0
  6 27  1  0
  8 28  1  0
  8 29  1  0
 10 30  1  0
 10 31  1  0
 11 32  1  0
 11 33  1  0
 13 34  1  0
 13 35  1  0
 14 36  1  0
 14 37  1  0
 15 38  1  0
 16 39  1  0
 18 40  1  0
M  CHG  2  21  -1  24  -1
M  END
>  <UniqueID>  (40) 
39

>  <SMILES>  (40) 
O=C(Nc1ccc(CN2CCOCC2)cc1)c1cc(=O)[n-]c(=O)[n-]1

>  <Energy>  (40) 
58.704601650407064

>  <Genealogy>  (40) 
O=C(Nc1ccc(CN2CCOCC2)cc1)c1cc(=O)[n-]c(=O)[n-]1 (protonated)
O=C(Nc1ccc(CN2CCOCC2)cc1)c1cc(=O)[n-]c(=O)[n-]1 (3D coordinates assigned)
O=C(Nc1ccc(CN2CCOCC2)cc1)c1cc(=O)[n-]c(=O)[n-]1 (nonaromatic ring conformer: 58.704601650407064 kcal/mol)

>  <smiles>  (40) 
O=C(Nc1ccc(CN2CCOCC2)cc1)c1cc(=O)[nH]c(=O)[nH]1

>  <score_type>  (40) 
oracle

>  <origin>  (40) 
adg

>  <m_score__min__energy>  (40) 
-11.43

>  <m_primary>  (40) 
energy

$$$$
40:0
     RDKit          3D

 84 89  0  0  0  0  0  0  0  0999 V2000
   57.7290   32.2570   42.9330 O   0  0  0  0  0  0  0  0  0  0  0  0
   57.3960   32.4210   44.1370 C   0  0  0  0  0  0  0  0  0  0  0  0
   57.3140   33.8030   44.7110 C   0  0  0  0  0  0  0  0  0  0  0  0
   58.3720   33.9900   45.7690 C   0  0  0  0  0  0  0  0  0  0  0  0
   58.0570   33.8230   47.1270 C   0  0  0  0  0  0  0  0  0  0  0  0
   59.0640   33.8740   48.0940 C   0  0  0  0  0  0  0  0  0  0  0  0
   60.4040   34.0520   47.7130 C   0  0  0  0  0  0  0  0  0  0  0  0
   61.4640   34.0000   48.6750 N   0  0  0  0  0  0  0  0  0  0  0  0
   61.4420   33.1780   49.8470 C   0  0  0  0  0  0  0  0  0  0  0  0
   62.3570   32.3290   50.0150 O   0  0  0  0  0  0  0  0  0  0  0  0
   60.3040   33.2550   50.8420 C   0  0  2  0  0  0  0  0  0  0  0  0
   60.8190   33.5030   52.2780 C   0  0  0  0  0  0  0  0  0  0  0  0
   59.7390   33.3020   53.3650 C   0  0  0  0  0  0  0  0  0  0  0  0
   58.3240   33.1370   52.7920 C   0  0  0  0  0  0  0  0  0  0  0  0
   58.3080   32.0840   51.7620 N   0  0  0  0  0  0  0  0  0  0  0  0
   57.1980   31.1600   51.6800 C   0  0  0  0  0  0  0  0  0  0  0  0
   57.3170   30.1000   51.0020 O   0  0  0  0  0  0  0  0  0  0  0  0
   55.8960   31.4460   52.3990 C   0  0  0  0  0  0  0  0  0  0  0  0
   54.6450   30.8030   51.8140 C   0  0  0  0  0  0  0  0  0  0  0  0
   55.2650   30.2430   53.0860 C   0  0  0  0  0  0  0  0  0  0  0  0
   59.4090   32.0030   50.7880 C   0  0  0  0  0  0  0  0  0  0  0  0
   60.7140   34.2640   46.3640 C   0  0  0  0  0  0  0  0  0  0  0  0
   59.7070   34.2250   45.3960 C   0  0  0  0  0  0  0  0  0  0  0  0
   57.1790   31.2890   44.9800 N   0  0  0  0  0  0  0  0  0  0  0  0
   57.7810   30.0020   44.7770 C   0  0  0  0  0  0  0  0  0  0  0  0
   57.1780   29.0640   43.9220 C   0  0  0  0  0  0  0  0  0  0  0  0
   57.7670   27.8140   43.7190 C   0  0  0  0  0  0  0  0  0  0  0  0
   58.9600   27.4900   44.3620 C   0  0  0  0  0  0  0  0  0  0  0  0
   59.5620   28.4080   45.2260 C   0  0  0  0  0  0  0  0  0  0  0  0
   58.9700   29.6630   45.4560 C   0  0  0  0  0  0  0  0  0  0  0  0
   59.6760   30.6700   46.3360 C   0  0  0  0  0  0  0  0  0  0  0  0
   59.0950   30.6400   47.7560 C   0  0  0  0  0  0  0  0  0  0  0  0
   59.6140   29.4990   48.5880 C   0  0  0  0  0  0  0  0  0  0  0  0
   58.9850   28.4050   48.6470 O   0  0  0  0  0  0  0  0  0  0  0  0
   60.8030   29.6860   49.3650 N   0  0  0  0  0  0  0  0  0  0  0  0
   61.2760   28.7090   50.3430 C   0  0  0  0  0  0  0  0  0  0  0  0
   61.4770   29.3690   51.6940 C   0  0  0  0  0  0  0  0  0  0  0  0
   62.6820   30.0700   51.8800 C   0  0  0  0  0  0  0  0  0  0  0  0
   62.9720   30.6960   53.0900 C   0  0  0  0  0  0  0  0  0  0  0  0
   62.0720   30.6290   54.1490 C   0  0  0  0  0  0  0  0  0  0  0  0
   60.8570   29.9480   54.0020 C   0  0  0  0  0  0  0  0  0  0  0  0
   59.9600   29.8930   55.0800 C   0  0  0  0  0  0  0  0  0  0  0  0
   58.7390   29.2360   54.9490 C   0  0  0  0  0  0  0  0  0  0  0  0
   58.3970   28.6360   53.7380 C   0  0  0  0  0  0  0  0  0  0  0  0
   59.2790   28.6750   52.6550 C   0  0  0  0  0  0  0  0  0  0  0  0
   60.5330   29.3190   52.7650 C   0  0  0  0  0  0  0  0  0  0  0  0
   57.4680   34.5396   43.9087 H   0  0  0  0  0  0  0  0  0  0  0  0
   56.3224   33.9451   45.1654 H   0  0  0  0  0  0  0  0  0  0  0  0
   57.0137   33.6514   47.4306 H   0  0  0  0  0  0  0  0  0  0  0  0
   58.8062   33.7743   49.1587 H   0  0  0  0  0  0  0  0  0  0  0  0
   59.6861   34.1176   50.5518 H   0  0  0  0  0  0  0  0  0  0  0  0
   61.6462   32.8055   52.4763 H   0  0  0  0  0  0  0  0  0  0  0  0
   61.1375   34.5546   52.3298 H   0  0  0  0  0  0  0  0  0  0  0  0
   59.9890   32.4001   53.9430 H   0  0  0  0  0  0  0  0  0  0  0  0
   59.7338   34.2069   53.9904 H   0  0  0  0  0  0  0  0  0  0  0  0
   57.6341   32.8614   53.6032 H   0  0  0  0  0  0  0  0  0  0  0  0
   58.0099   34.0876   52.3362 H   0  0  0  0  0  0  0  0  0  0  0  0
   56.1705   32.4688   52.6964 H   0  0  0  0  0  0  0  0  0  0  0  0
   53.6820   31.3328   51.8586 H   0  0  0  0  0  0  0  0  0  0  0  0
   54.3703   30.3863   50.8337 H   0  0  0  0  0  0  0  0  0  0  0  0
   54.7499   30.3679   54.0499 H   0  0  0  0  0  0  0  0  0  0  0  0
   55.6238   29.2535   53.4057 H   0  0  0  0  0  0  0  0  0  0  0  0
   60.0205   31.1166   51.0127 H   0  0  0  0  0  0  0  0  0  0  0  0
   58.9736   31.9334   49.7802 H   0  0  0  0  0  0  0  0  0  0  0  0
   61.7540   34.4620   46.0652 H   0  0  0  0  0  0  0  0  0  0  0  0
   59.9601   34.3790   44.3366 H   0  0  0  0  0  0  0  0  0  0  0  0
   56.2374   29.3154   43.4100 H   0  0  0  0  0  0  0  0  0  0  0  0
   57.2881   27.0837   43.0501 H   0  0  0  0  0  0  0  0  0  0  0  0
   59.4285   26.5099   44.1890 H   0  0  0  0  0  0  0  0  0  0  0  0
   60.5047   28.1478   45.7295 H   0  0  0  0  0  0  0  0  0  0  0  0
   60.7479   30.4263   46.3777 H   0  0  0  0  0  0  0  0  0  0  0  0
   59.5331   31.6754   45.9132 H   0  0  0  0  0  0  0  0  0  0  0  0
   59.3527   31.5839   48.2586 H   0  0  0  0  0  0  0  0  0  0  0  0
   58.0076   30.5046   47.6600 H   0  0  0  0  0  0  0  0  0  0  0  0
   61.3390   30.5810   49.2560 H   0  0  0  0  0  0  0  0  0  0  0  0
   60.5328   27.9038   50.4398 H   0  0  0  0  0  0  0  0  0  0  0  0
   62.2366   28.2970   50.0003 H   0  0  0  0  0  0  0  0  0  0  0  0
   63.4081   30.1249   51.0555 H   0  0  0  0  0  0  0  0  0  0  0  0
   63.9172   31.2460   53.2089 H   0  0  0  0  0  0  0  0  0  0  0  0
   62.3159   31.1131   55.1061 H   0  0  0  0  0  0  0  0  0  0  0  0
   60.2231   30.3720   56.0347 H   0  0  0  0  0  0  0  0  0  0  0  0
   58.0446   29.1905   55.8009 H   0  0  0  0  0  0  0  0  0  0  0  0
   57.4265   28.1286   53.6344 H   0  0  0  0  0  0  0  0  0  0  0  0
   58.9943   28.1988   51.7051 H   0  0  0  0  0  0  0  0  0  0  0  0
  1  2  2  0
  2  3  1  0
  3  4  1  0
  4  5  2  0
  5  6  1  0
  6  7  2  0
  7  8  1  0
  8  9  1  0
  9 10  2  0
  9 11  1  0
 11 12  1  0
 12 13  1  0
 13 14  1  0
 14 15  1  0
 15 16  1  0
 16 17  2  0
 16 18  1  0
 18 19  1  0
 19 20  1  0
 15 21  1  0
  7 22  1  0
 22 23  2  0
  2 24  1  0
 24 25  1  0
 25 26  2  0
 26 27  1  0
 27 28  2  0
 28 29  1  0
 29 30  2  0
 30 31  1  0
 31 32  1  0
 32 33  1  0
 33 34  2  0
 33 35  1  0
 35 36  1  0
 36 37  1  0
 37 38  2  0
 38 39  1  0
 39 40  2  0
 40 41  1  0
 41 42  2  0
 42 43  1  0
 43 44  2  0
 44 45  1  0
 45 46  2  0
 23  4  1  0
 30 25  1  0
 46 37  1  0
 21 11  1  0
 46 41  1  0
 20 18  1  0
  3 47  1  0
  3 48  1  0
  5 49  1  0
  6 50  1  0
 11 51  1  6
 12 52  1  0
 12 53  1  0
 13 54  1  0
 13 55  1  0
 14 56  1  0
 14 57  1  0
 18 58  1  0
 19 59  1  0
 19 60  1  0
 20 61  1  0
 20 62  1  0
 21 63  1  0
 21 64  1  0
 22 65  1  0
 23 66  1  0
 26 67  1  0
 27 68  1  0
 28 69  1  0
 29 70  1  0
 31 71  1  0
 31 72  1  0
 32 73  1  0
 32 74  1  0
 35 75  1  0
 36 76  1  0
 36 77  1  0
 38 78  1  0
 39 79  1  0
 40 80  1  0
 42 81  1  0
 43 82  1  0
 44 83  1  0
 45 84  1  0
M  CHG  2   8  -1  24  -1
M  END
>  <UniqueID>  (41) 
40

>  <SMILES>  (41) 
O=C(Cc1ccc([N-]C(=O)[C@@H]2CCCN(C(=O)C3CC3)C2)cc1)[N-]c1ccccc1CCC(=O)NCc1cccc2ccccc12

>  <Energy>  (41) 
371.73474381553

>  <Genealogy>  (41) 
O=C(Cc1ccc([N-]C(=O)C2CCCN(C(=O)C3CC3)C2)cc1)[N-]c1ccccc1CCC(=O)NCc1cccc2ccccc12 (protonated)
O=C(Cc1ccc([N-]C(=O)[C@@H]2CCCN(C(=O)C3CC3)C2)cc1)[N-]c1ccccc1CCC(=O)NCc1cccc2ccccc12 (chirality)
O=C(Cc1ccc([N-]C(=O)[C@@H]2CCCN(C(=O)C3CC3)C2)cc1)[N-]c1ccccc1CCC(=O)NCc1cccc2ccccc12 (3D coordinates assigned)
O=C(Cc1ccc([N-]C(=O)[C@@H]2CCCN(C(=O)C3CC3)C2)cc1)[N-]c1ccccc1CCC(=O)NCc1cccc2ccccc12 (nonaromatic ring conformer: 371.73474381553 kcal/mol)

>  <smiles>  (41) 
O=C(CCc1ccccc1NC(=O)Cc1ccc(NC(=O)C2CCCN(C(=O)C3CC3)C2)cc1)NCc1cccc2ccccc12

>  <score_type>  (41) 
oracle

>  <origin>  (41) 
adg

>  <m_score__min__energy>  (41) 
-13.48

>  <m_primary>  (41) 
energy

$$$$
41:0
     RDKit          3D

 44 46  0  0  0  0  0  0  0  0999 V2000
   59.4891   23.7382   45.9475 H   0  0  0  0  0  0  0  0  0  0  0  0
   58.5750   24.3500   45.9550 C   0  0  0  0  0  0  0  0  0  0  0  0
   58.5560   25.5500   45.3190 N   0  0  0  0  0  0  0  0  0  0  0  0
   57.4450   26.3410   45.2950 C   0  0  0  0  0  0  0  0  0  0  0  0
   57.4590   27.5010   44.7030 N   0  0  0  0  0  0  0  0  0  0  0  0
   56.9840   28.7390   45.2550 C   0  0  0  0  0  0  0  0  0  0  0  0
   55.8000   29.0940   45.0180 O   0  0  0  0  0  0  0  0  0  0  0  0
   57.8500   29.6190   46.0700 C   0  0  0  0  0  0  0  0  0  0  0  0
   57.7620   31.0110   45.9220 C   0  0  0  0  0  0  0  0  0  0  0  0
   57.0850   31.4382   45.1676 H   0  0  0  0  0  0  0  0  0  0  0  0
   58.5310   31.8620   46.7290 C   0  0  0  0  0  0  0  0  0  0  0  0
   58.3940   33.2800   46.6370 N   0  0  0  0  0  0  0  0  0  0  0  0
   59.7330   34.3150   46.2650 S   0  0  0  0  0  0  0  0  0  0  0  0
   59.3400   35.7390   46.5410 O   0  0  0  0  0  0  0  0  0  0  0  0
   60.0650   34.1910   44.8050 O   0  0  0  0  0  0  0  0  0  0  0  0
   61.1480   33.9100   47.2350 C   0  0  0  0  0  0  0  0  0  0  0  0
   62.3260   33.4800   46.6150 C   0  0  0  0  0  0  0  0  0  0  0  0
   62.3661   33.3835   45.5200 H   0  0  0  0  0  0  0  0  0  0  0  0
   63.4510   33.1730   47.3830 C   0  0  0  0  0  0  0  0  0  0  0  0
   64.3682   32.8173   46.8909 H   0  0  0  0  0  0  0  0  0  0  0  0
   63.4190   33.3150   48.7750 C   0  0  0  0  0  0  0  0  0  0  0  0
   64.8250   32.7980   49.6980 Cl  0  0  0  0  0  0  0  0  0  0  0  0
   62.2480   33.7920   49.4030 C   0  0  0  0  0  0  0  0  0  0  0  0
   62.1660   33.9710   50.8220 N   0  0  0  0  0  0  0  0  0  0  0  0
   61.2390   33.2870   51.6720 C   0  0  0  0  0  0  0  0  0  0  0  0
   61.6460   32.4630   52.5360 O   0  0  0  0  0  0  0  0  0  0  0  0
   59.7770   33.5480   51.5310 C   0  0  0  0  0  0  0  0  0  0  0  0
   59.3212   33.6294   52.5288 H   0  0  0  0  0  0  0  0  0  0  0  0
   59.6237   34.4877   50.9801 H   0  0  0  0  0  0  0  0  0  0  0  0
   59.3081   32.7194   50.9801 H   0  0  0  0  0  0  0  0  0  0  0  0
   61.1110   34.0570   48.6290 C   0  0  0  0  0  0  0  0  0  0  0  0
   60.1816   34.3831   49.1187 H   0  0  0  0  0  0  0  0  0  0  0  0
   59.4520   31.3160   47.6300 C   0  0  0  0  0  0  0  0  0  0  0  0
   60.0868   31.9796   48.2356 H   0  0  0  0  0  0  0  0  0  0  0  0
   59.5670   29.9310   47.7620 C   0  0  0  0  0  0  0  0  0  0  0  0
   60.2913   29.5067   48.4729 H   0  0  0  0  0  0  0  0  0  0  0  0
   58.7650   29.0810   46.9940 C   0  0  0  0  0  0  0  0  0  0  0  0
   58.9010   27.7380   47.1350 F   0  0  0  0  0  0  0  0  0  0  0  0
   56.2850   25.9150   45.9590 C   0  0  0  0  0  0  0  0  0  0  0  0
   55.1400   26.7060   45.9690 O   0  0  0  0  0  0  0  0  0  0  0  0
   56.2850   24.6830   46.6190 C   0  0  0  0  0  0  0  0  0  0  0  0
   55.3794   24.3366   47.1386 H   0  0  0  0  0  0  0  0  0  0  0  0
   57.4350   23.8930   46.6180 C   0  0  0  0  0  0  0  0  0  0  0  0
   57.4431   22.9214   47.1337 H   0  0  0  0  0  0  0  0  0  0  0  0
  1  2  1  0
  2  3  1  0
  3  4  1  0
  4  5  2  0
  5  6  1  0
  6  7  2  0
  6  8  1  0
  8  9  2  0
  9 10  1  0
  9 11  1  0
 11 12  1  0
 12 13  1  0
 13 14  2  0
 13 15  2  0
 13 16  1  0
 16 17  2  0
 17 18  1  0
 17 19  1  0
 19 20  1  0
 19 21  2  0
 21 22  1  0
 21 23  1  0
 23 24  1  0
 24 25  1  0
 25 26  2  0
 25 27  1  0
 27 28  1  0
 27 29  1  0
 27 30  1  0
 23 31  2  0
 31 32  1  0
 11 33  2  0
 33 34  1  0
 33 35  1  0
 35 36  1  0
 35 37  2  0
 37 38  1  0
  4 39  1  0
 39 40  1  0
 39 41  2  0
 41 42  1  0
 41 43  1  0
 43 44  1  0
 43  2  2  0
 37  8  1  0
 31 16  1  0
M  CHG  4   3  -1  12  -1  24  -1  40  -1
M  END
>  <UniqueID>  (42) 
41

>  <SMILES>  (42) 
CC(=O)[N-]c1cc(S(=O)(=O)[N-]c2ccc(F)c(C(=O)/N=c3\[n-]cccc3[O-])c2)ccc1Cl

>  <Energy>  (42) 
65.87688900706273

>  <Genealogy>  (42) 
CC(=O)[N-]c1cc(S(=O)(=O)[N-]c2ccc(F)c(C(=O)N=c3[n-]cccc3[O-])c2)ccc1Cl (protonated)
CC(=O)[N-]c1cc(S(=O)(=O)[N-]c2ccc(F)c(C(=O)/N=c3\[n-]cccc3[O-])c2)ccc1Cl (cis-trans isomerization)
CC(=O)[N-]c1cc(S(=O)(=O)[N-]c2ccc(F)c(C(=O)/N=c3\[n-]cccc3[O-])c2)ccc1Cl (3D coordinates assigned)
CC(=O)[N-]c1cc(S(=O)(=O)[N-]c2ccc(F)c(C(=O)/N=c3\[n-]cccc3[O-])c2)ccc1Cl (optimized conformer: 65.87688900706273 kcal/mol)

>  <smiles>  (42) 
CC(=O)Nc1cc(S(=O)(=O)Nc2ccc(F)c(C(=O)N=c3[nH]cccc3O)c2)ccc1Cl

>  <score_type>  (42) 
oracle

>  <origin>  (42) 
adg

>  <m_score__min__energy>  (42) 
-16.690000000000001

>  <m_primary>  (42) 
energy

$$$$
42:0
     RDKit          3D

 55 58  0  0  0  0  0  0  0  0999 V2000
   55.2240   28.6390   43.3470 H   0  0  0  0  0  0  0  0  0  0  0  0
   55.2180   29.3670   44.0970 N   0  0  0  0  0  0  0  0  0  0  0  0
   56.2450   29.5620   44.8570 C   0  0  0  0  0  0  0  0  0  0  0  0
   56.6810   30.8250   45.0910 N   0  0  0  0  0  0  0  0  0  0  0  0
   57.7640   31.0790   45.8760 C   0  0  0  0  0  0  0  0  0  0  0  0
   58.2150   32.4490   46.0510 N   0  0  0  0  0  0  0  0  0  0  0  0
   58.4430   32.9810   47.4070 C   0  0  0  0  0  0  0  0  0  0  0  0
   57.4660   33.2391   47.8417 H   0  0  0  0  0  0  0  0  0  0  0  0
   58.9721   32.1930   47.9630 H   0  0  0  0  0  0  0  0  0  0  0  0
   59.3400   34.2310   47.4700 C   0  0  0  0  0  0  0  0  0  0  0  0
   58.7088   35.0919   47.7353 H   0  0  0  0  0  0  0  0  0  0  0  0
   60.1181   34.0160   48.2173 H   0  0  0  0  0  0  0  0  0  0  0  0
   60.0470   34.5500   46.2150 N   0  0  0  0  0  0  0  0  0  0  0  0
   60.3450   35.5500   46.3340 H   0  0  0  0  0  0  0  0  0  0  0  0
   61.3380   33.8390   46.0010 C   0  0  0  0  0  0  0  0  0  0  0  0
   61.1885   33.1013   45.1988 H   0  0  0  0  0  0  0  0  0  0  0  0
   62.0734   34.6201   45.7579 H   0  0  0  0  0  0  0  0  0  0  0  0
   61.8940   33.1100   47.2050 C   0  0  0  0  0  0  0  0  0  0  0  0
   62.7550   33.7670   48.1010 C   0  0  0  0  0  0  0  0  0  0  0  0
   63.0402   34.8134   47.9176 H   0  0  0  0  0  0  0  0  0  0  0  0
   63.2510   33.0980   49.2240 C   0  0  0  0  0  0  0  0  0  0  0  0
   63.8990   33.6287   49.9370 H   0  0  0  0  0  0  0  0  0  0  0  0
   62.9250   31.7550   49.4430 C   0  0  0  0  0  0  0  0  0  0  0  0
   63.4080   31.0770   50.6160 C   0  0  0  0  0  0  0  0  0  0  0  0
   63.8010   30.5330   51.5600 N   0  0  0  0  0  0  0  0  0  0  0  0
   62.1240   31.0750   48.5190 C   0  0  0  0  0  0  0  0  0  0  0  0
   61.8903   30.0112   48.6728 H   0  0  0  0  0  0  0  0  0  0  0  0
   61.6200   31.7460   47.4000 C   0  0  0  0  0  0  0  0  0  0  0  0
   61.0051   31.2021   46.6679 H   0  0  0  0  0  0  0  0  0  0  0  0
   59.1320   34.5850   45.0600 C   0  0  0  0  0  0  0  0  0  0  0  0
   58.4226   35.4127   45.2074 H   0  0  0  0  0  0  0  0  0  0  0  0
   59.7588   34.7135   44.1652 H   0  0  0  0  0  0  0  0  0  0  0  0
   58.3280   33.2940   44.8520 C   0  0  0  0  0  0  0  0  0  0  0  0
   57.3134   33.5689   44.5279 H   0  0  0  0  0  0  0  0  0  0  0  0
   58.8723   32.7025   44.1011 H   0  0  0  0  0  0  0  0  0  0  0  0
   58.4310   29.9920   46.4720 C   0  0  0  0  0  0  0  0  0  0  0  0
   59.2957   30.1618   47.1304 H   0  0  0  0  0  0  0  0  0  0  0  0
   57.9780   28.6890   46.2150 C   0  0  0  0  0  0  0  0  0  0  0  0
   58.6680   27.5130   46.7930 C   0  0  0  0  0  0  0  0  0  0  0  0
   58.0320   26.4360   46.9610 O   0  0  0  0  0  0  0  0  0  0  0  0
   60.0980   27.6120   47.2630 C   0  0  0  0  0  0  0  0  0  0  0  0
   60.5926   26.6422   47.1054 H   0  0  0  0  0  0  0  0  0  0  0  0
   60.5934   28.4067   46.6860 H   0  0  0  0  0  0  0  0  0  0  0  0
   60.1830   27.9710   48.7230 C   0  0  0  0  0  0  0  0  0  0  0  0
   59.6300   29.1750   49.1940 C   0  0  0  0  0  0  0  0  0  0  0  0
   59.1524   29.8715   48.4891 H   0  0  0  0  0  0  0  0  0  0  0  0
   59.6850   29.4900   50.5550 C   0  0  0  0  0  0  0  0  0  0  0  0
   59.2577   30.4367   50.9173 H   0  0  0  0  0  0  0  0  0  0  0  0
   60.2820   28.6040   51.4560 C   0  0  0  0  0  0  0  0  0  0  0  0
   60.3272   28.8554   52.5259 H   0  0  0  0  0  0  0  0  0  0  0  0
   60.8220   27.3980   50.9980 C   0  0  0  0  0  0  0  0  0  0  0  0
   61.2878   26.6992   51.7085 H   0  0  0  0  0  0  0  0  0  0  0  0
   60.7700   27.0800   49.6370 C   0  0  0  0  0  0  0  0  0  0  0  0
   61.1906   26.1281   49.2806 H   0  0  0  0  0  0  0  0  0  0  0  0
   56.8970   28.5080   45.4120 N   0  0  0  0  0  0  0  0  0  0  0  0
  1  2  1  0
  2  3  2  0
  3  4  1  0
  4  5  2  0
  5  6  1  0
  6  7  1  0
  7  8  1  0
  7  9  1  0
  7 10  1  0
 10 11  1  0
 10 12  1  0
 10 13  1  0
 13 14  1  0
 13 15  1  0
 15 16  1  0
 15 17  1  0
 15 18  1  0
 18 19  2  0
 19 20  1  0
 19 21  1  0
 21 22  1  0
 21 23  2  0
 23 24  1  0
 24 25  3  0
 23 26  1  0
 26 27  1  0
 26 28  2  0
 28 29  1  0
 13 30  1  0
 30 31  1  0
 30 32  1  0
 30 33  1  0
 33 34  1  0
 33 35  1  0
  5 36  1  0
 36 37  1  0
 36 38  2  0
 38 39  1  0
 39 40  2  0
 39 41  1  0
 41 42  1  0
 41 43  1  0
 41 44  1  0
 44 45  2  0
 45 46  1  0
 45 47  1  0
 47 48  1  0
 47 49  2  0
 49 50  1  0
 49 51  1  0
 51 52  1  0
 51 53  2  0
 53 54  1  0
 38 55  1  0
 55  3  1  0
 33  6  1  0
 53 44  1  0
 28 18  1  0
M  CHG  2  13   1  55  -1
M  END
>  <UniqueID>  (43) 
42

>  <SMILES>  (43) 
[H]/N=c1/nc(N2CC[NH+](Cc3ccc(C#N)cc3)CC2)cc(C(=O)Cc2ccccc2)[n-]1

>  <Energy>  (43) 
72.89540539547409

>  <Genealogy>  (43) 
N#Cc1ccc(C[NH+]2CCN(c3cc(C(=O)Cc4ccccc4)[n-]c(=N)n3)CC2)cc1 (protonated)
[H]/N=c1/nc(N2CC[NH+](Cc3ccc(C#N)cc3)CC2)cc(C(=O)Cc2ccccc2)[n-]1 (cis-trans isomerization)
[H]/N=c1/nc(N2CC[NH+](Cc3ccc(C#N)cc3)CC2)cc(C(=O)Cc2ccccc2)[n-]1 (3D coordinates assigned)
[H]/N=c1/nc(N2CC[NH+](Cc3ccc(C#N)cc3)CC2)cc(C(=O)Cc2ccccc2)[n-]1 (nonaromatic ring conformer: 72.89540539547409 kcal/mol)

>  <smiles>  (43) 
N#Cc1ccc(CN2CCN(c3cc(C(=O)Cc4ccccc4)[nH]c(=N)n3)CC2)cc1

>  <score_type>  (43) 
oracle

>  <origin>  (43) 
adg

>  <m_score__min__energy>  (43) 
-9.3300000000000001

>  <m_primary>  (43) 
energy

$$$$
43:0
     RDKit          3D

 63 67  0  0  0  0  0  0  0  0999 V2000
   58.4070   30.7820   46.2030 C   0  0  0  0  0  0  0  0  0  0  0  0
   59.0010   29.7950   46.8920 C   0  0  0  0  0  0  0  0  0  0  0  0
   58.5810   28.4590   46.9790 C   0  0  0  0  0  0  0  0  0  0  0  0
   57.6870   27.7650   46.2500 C   0  0  0  0  0  0  0  0  0  0  0  0
   57.2080   26.4060   46.5520 C   0  0  0  0  0  0  0  0  0  0  0  0
   57.9580   25.4310   47.0980 N   0  0  0  0  0  0  0  0  0  0  0  0
   57.0740   24.4310   47.2960 C   0  0  0  0  0  0  0  0  0  0  0  0
   57.4050   23.3200   47.7880 O   0  0  0  0  0  0  0  0  0  0  0  0
   55.8050   24.7140   46.9300 N   0  0  0  0  0  0  0  0  0  0  0  0
   55.9080   25.9750   46.4760 C   0  0  0  0  0  0  0  0  0  0  0  0
   54.8330   26.7170   46.0040 O   0  0  0  0  0  0  0  0  0  0  0  0
   59.3030   27.8930   48.0150 C   0  0  0  0  0  0  0  0  0  0  0  0
   60.1820   28.8550   48.4640 C   0  0  0  0  0  0  0  0  0  0  0  0
   61.1340   28.6500   49.6050 C   0  0  0  0  0  0  0  0  0  0  0  0
   60.0140   30.0070   47.7720 N   0  0  0  0  0  0  0  0  0  0  0  0
   60.7370   31.2360   47.9850 C   0  0  0  0  0  0  0  0  0  0  0  0
   62.0390   31.3630   47.4760 C   0  0  0  0  0  0  0  0  0  0  0  0
   62.7820   32.5210   47.7080 C   0  0  0  0  0  0  0  0  0  0  0  0
   62.2360   33.5640   48.4580 C   0  0  0  0  0  0  0  0  0  0  0  0
   60.9460   33.4510   48.9770 C   0  0  0  0  0  0  0  0  0  0  0  0
   60.1780   32.3000   48.7380 C   0  0  0  0  0  0  0  0  0  0  0  0
   58.8160   32.2200   49.3100 C   0  0  0  0  0  0  0  0  0  0  0  0
   57.8290   32.5480   48.5960 O   0  0  0  0  0  0  0  0  0  0  0  0
   58.5980   31.7660   50.6540 N   0  0  0  0  0  0  0  0  0  0  0  0
   57.5800   32.4140   51.4950 C   0  0  0  0  0  0  0  0  0  0  0  0
   56.5380   31.3910   51.9700 C   0  0  0  0  0  0  0  0  0  0  0  0
   57.1640   30.0350   52.4020 C   0  0  0  0  0  0  0  0  0  0  0  0
   56.5890   29.4860   53.6550 N   0  0  0  0  0  0  0  0  0  0  0  0
   56.0760   28.1040   53.5750 C   0  0  0  0  0  0  0  0  0  0  0  0
   54.5510   28.0680   53.5160 C   0  0  0  0  0  0  0  0  0  0  0  0
   54.0130   28.7410   54.6300 O   0  0  0  0  0  0  0  0  0  0  0  0
   54.2960   30.1180   54.5220 C   0  0  0  0  0  0  0  0  0  0  0  0
   55.8130   30.3980   54.5320 C   0  0  0  0  0  0  0  0  0  0  0  0
   58.7070   30.0750   52.4680 C   0  0  0  0  0  0  0  0  0  0  0  0
   59.2740   30.5480   51.1230 C   0  0  0  0  0  0  0  0  0  0  0  0
   58.8356   31.7950   46.2131 H   0  0  0  0  0  0  0  0  0  0  0  0
   57.4916   30.5778   45.6282 H   0  0  0  0  0  0  0  0  0  0  0  0
   57.2801   28.2546   45.3530 H   0  0  0  0  0  0  0  0  0  0  0  0
   59.1958   26.8703   48.4057 H   0  0  0  0  0  0  0  0  0  0  0  0
   60.5955   28.7660   50.5572 H   0  0  0  0  0  0  0  0  0  0  0  0
   61.5632   27.6388   49.5473 H   0  0  0  0  0  0  0  0  0  0  0  0
   61.9414   29.3949   49.5473 H   0  0  0  0  0  0  0  0  0  0  0  0
   62.4774   30.5424   46.8891 H   0  0  0  0  0  0  0  0  0  0  0  0
   63.7992   32.6121   47.2994 H   0  0  0  0  0  0  0  0  0  0  0  0
   62.8235   34.4760   48.6400 H   0  0  0  0  0  0  0  0  0  0  0  0
   60.5268   34.2708   49.5788 H   0  0  0  0  0  0  0  0  0  0  0  0
   58.0689   32.8650   52.3711 H   0  0  0  0  0  0  0  0  0  0  0  0
   57.0712   33.1881   50.9017 H   0  0  0  0  0  0  0  0  0  0  0  0
   55.9971   31.8157   52.8285 H   0  0  0  0  0  0  0  0  0  0  0  0
   55.8695   31.1867   51.1207 H   0  0  0  0  0  0  0  0  0  0  0  0
   56.8884   29.3375   51.5973 H   0  0  0  0  0  0  0  0  0  0  0  0
   56.4787   27.6265   52.6696 H   0  0  0  0  0  0  0  0  0  0  0  0
   56.3959   27.5675   54.4805 H   0  0  0  0  0  0  0  0  0  0  0  0
   54.2098   28.5596   52.5930 H   0  0  0  0  0  0  0  0  0  0  0  0
   54.2124   27.0215   53.5264 H   0  0  0  0  0  0  0  0  0  0  0  0
   53.8713   30.4952   53.5800 H   0  0  0  0  0  0  0  0  0  0  0  0
   53.8507   30.6258   55.3902 H   0  0  0  0  0  0  0  0  0  0  0  0
   55.9786   31.4314   54.1933 H   0  0  0  0  0  0  0  0  0  0  0  0
   56.1654   30.2349   55.5612 H   0  0  0  0  0  0  0  0  0  0  0  0
   59.0205   30.7700   53.2609 H   0  0  0  0  0  0  0  0  0  0  0  0
   59.0869   29.0662   52.6870 H   0  0  0  0  0  0  0  0  0  0  0  0
   60.3474   30.7574   51.2410 H   0  0  0  0  0  0  0  0  0  0  0  0
   59.1104   29.7536   50.3800 H   0  0  0  0  0  0  0  0  0  0  0  0
  1  2  2  0
  2  3  1  0
  3  4  2  3
  4  5  1  0
  5  6  1  0
  6  7  1  0
  7  8  2  0
  7  9  1  0
  9 10  1  0
 10 11  1  0
  3 12  1  0
 12 13  2  0
 13 14  1  0
 13 15  1  0
 15 16  1  0
 16 17  2  0
 17 18  1  0
 18 19  2  0
 19 20  1  0
 20 21  2  0
 21 22  1  0
 22 23  2  0
 22 24  1  0
 24 25  1  0
 25 26  1  0
 26 27  1  0
 27 28  1  0
 28 29  1  0
 29 30  1  0
 30 31  1  0
 31 32  1  0
 32 33  1  0
 27 34  1  0
 34 35  1  0
 15  2  1  0
 21 16  1  0
 35 24  1  0
 10  5  2  0
 33 28  1  0
  1 36  1  0
  1 37  1  0
  4 38  1  0
 12 39  1  0
 14 40  1  0
 14 41  1  0
 14 42  1  0
 17 43  1  0
 18 44  1  0
 19 45  1  0
 20 46  1  0
 25 47  1  0
 25 48  1  0
 26 49  1  0
 26 50  1  0
 27 51  1  0
 29 52  1  0
 29 53  1  0
 30 54  1  0
 30 55  1  0
 32 56  1  0
 32 57  1  0
 33 58  1  0
 33 59  1  0
 34 60  1  0
 34 61  1  0
 35 62  1  0
 35 63  1  0
M  CHG  3   6  -1   9  -1  11  -1
M  END
>  <UniqueID>  (44) 
43

>  <SMILES>  (44) 
C=c1c(=Cc2[n-]c(=O)[n-]c2[O-])cc(C)n1-c1ccccc1C(=O)N1CCC(N2CCOCC2)CC1

>  <Energy>  (44) 
162.0381298748351

>  <Genealogy>  (44) 
C=c1c(=Cc2[n-]c(=O)[n-]c2[O-])cc(C)n1-c1ccccc1C(=O)N1CCC(N2CCOCC2)CC1 (protonated)
C=c1c(=Cc2[n-]c(=O)[n-]c2[O-])cc(C)n1-c1ccccc1C(=O)N1CCC(N2CCOCC2)CC1 (3D coordinates assigned)
C=c1c(=Cc2[n-]c(=O)[n-]c2[O-])cc(C)n1-c1ccccc1C(=O)N1CCC(N2CCOCC2)CC1 (nonaromatic ring conformer: 162.0381298748351 kcal/mol)

>  <smiles>  (44) 
C=c1c(=Cc2[nH]c(=O)[nH]c2O)cc(C)n1-c1ccccc1C(=O)N1CCC(N2CCOCC2)CC1

>  <score_type>  (44) 
oracle

>  <origin>  (44) 
adg

>  <m_score__min__energy>  (44) 
-17.399999999999999

>  <m_primary>  (44) 
energy

$$$$
44:0
     RDKit          3D

 60 63  0  0  0  0  0  0  0  0999 V2000
   61.5130   30.8800   48.1140 C   0  0  0  0  0  0  0  0  0  0  0  0
   60.5630   31.8040   47.3940 C   0  0  0  0  0  0  0  0  0  0  0  0
   60.4720   33.1370   47.8190 C   0  0  0  0  0  0  0  0  0  0  0  0
   59.6510   34.0430   47.1480 C   0  0  0  0  0  0  0  0  0  0  0  0
   58.9120   33.6270   46.0400 C   0  0  0  0  0  0  0  0  0  0  0  0
   58.9620   32.2970   45.6140 C   0  0  0  0  0  0  0  0  0  0  0  0
   58.2220   31.9190   44.4420 N   0  0  0  0  0  0  0  0  0  0  0  0
   58.1490   32.8290   43.2970 C   0  0  0  0  0  0  0  0  0  0  0  0
   57.7920   32.0470   42.0240 C   0  0  0  0  0  0  0  0  0  0  0  0
   56.6460   31.2420   42.2440 O   0  0  0  0  0  0  0  0  0  0  0  0
   56.9560   30.2330   43.1870 C   0  0  0  0  0  0  0  0  0  0  0  0
   57.2310   30.8470   44.5620 C   0  0  0  0  0  0  0  0  0  0  0  0
   59.7700   31.3660   46.3060 C   0  0  0  0  0  0  0  0  0  0  0  0
   59.8170   30.0050   45.8550 N   0  0  0  0  0  0  0  0  0  0  0  0
   59.1050   28.9530   46.5220 C   0  0  0  0  0  0  0  0  0  0  0  0
   58.7680   29.0820   47.7270 O   0  0  0  0  0  0  0  0  0  0  0  0
   58.7930   27.7470   45.8060 N   0  0  0  0  0  0  0  0  0  0  0  0
   58.0300   26.6560   46.3520 C   0  0  0  0  0  0  0  0  0  0  0  0
   57.4550   26.7740   47.4670 O   0  0  0  0  0  0  0  0  0  0  0  0
   57.8920   25.3940   45.5940 C   0  0  0  0  0  0  0  0  0  0  0  0
   58.3420   24.1800   46.1450 C   0  0  0  0  0  0  0  0  0  0  0  0
   58.2120   22.9870   45.4280 C   0  0  0  0  0  0  0  0  0  0  0  0
   57.6350   22.9900   44.1480 C   0  0  0  0  0  0  0  0  0  0  0  0
   57.4700   21.7120   43.3840 C   0  0  0  0  0  0  0  0  0  0  0  0
   56.2290   21.1110   43.7390 O   0  0  0  0  0  0  0  0  0  0  0  0
   55.9000   20.6540   45.0240 C   0  0  0  0  0  0  0  0  0  0  0  0
   56.3480   19.4110   45.5170 C   0  0  0  0  0  0  0  0  0  0  0  0
   56.0150   19.0050   46.8130 C   0  0  0  0  0  0  0  0  0  0  0  0
   55.2230   19.8240   47.6210 C   0  0  0  0  0  0  0  0  0  0  0  0
   54.7660   21.0530   47.1370 C   0  0  0  0  0  0  0  0  0  0  0  0
   55.1010   21.4700   45.8440 C   0  0  0  0  0  0  0  0  0  0  0  0
   54.4980   23.0140   45.2520 Cl  0  0  0  0  0  0  0  0  0  0  0  0
   57.1510   24.1940   43.6120 C   0  0  0  0  0  0  0  0  0  0  0  0
   57.2810   25.3900   44.3290 C   0  0  0  0  0  0  0  0  0  0  0  0
   61.3890   31.0006   49.2003 H   0  0  0  0  0  0  0  0  0  0  0  0
   61.2952   29.8389   47.8334 H   0  0  0  0  0  0  0  0  0  0  0  0
   62.5476   31.1266   47.8334 H   0  0  0  0  0  0  0  0  0  0  0  0
   61.0540   33.4716   48.6904 H   0  0  0  0  0  0  0  0  0  0  0  0
   59.5861   35.0857   47.4923 H   0  0  0  0  0  0  0  0  0  0  0  0
   58.2857   34.3509   45.4981 H   0  0  0  0  0  0  0  0  0  0  0  0
   57.3771   33.5897   43.4853 H   0  0  0  0  0  0  0  0  0  0  0  0
   59.1266   33.3142   43.1595 H   0  0  0  0  0  0  0  0  0  0  0  0
   57.5858   32.7561   41.2088 H   0  0  0  0  0  0  0  0  0  0  0  0
   58.6381   31.3976   41.7549 H   0  0  0  0  0  0  0  0  0  0  0  0
   56.1072   29.5377   43.2648 H   0  0  0  0  0  0  0  0  0  0  0  0
   57.8565   29.6980   42.8509 H   0  0  0  0  0  0  0  0  0  0  0  0
   56.2964   31.2587   44.9707 H   0  0  0  0  0  0  0  0  0  0  0  0
   57.6206   30.0683   45.2342 H   0  0  0  0  0  0  0  0  0  0  0  0
   60.1200   29.8310   44.8730 H   0  0  0  0  0  0  0  0  0  0  0  0
   59.0530   27.7050   44.7970 H   0  0  0  0  0  0  0  0  0  0  0  0
   58.7987   24.1696   47.1457 H   0  0  0  0  0  0  0  0  0  0  0  0
   58.5632   22.0421   45.8684 H   0  0  0  0  0  0  0  0  0  0  0  0
   57.4804   21.9246   42.3048 H   0  0  0  0  0  0  0  0  0  0  0  0
   58.2954   21.0268   43.6274 H   0  0  0  0  0  0  0  0  0  0  0  0
   56.9620   18.7580   44.8793 H   0  0  0  0  0  0  0  0  0  0  0  0
   56.3771   18.0397   47.1965 H   0  0  0  0  0  0  0  0  0  0  0  0
   54.9587   19.5015   48.6389 H   0  0  0  0  0  0  0  0  0  0  0  0
   54.1406   21.6948   47.7749 H   0  0  0  0  0  0  0  0  0  0  0  0
   56.6673   24.1980   42.6241 H   0  0  0  0  0  0  0  0  0  0  0  0
   56.9032   26.3298   43.9000 H   0  0  0  0  0  0  0  0  0  0  0  0
  1  2  1  0
  2  3  2  0
  3  4  1  0
  4  5  2  0
  5  6  1  0
  6  7  1  0
  7  8  1  0
  8  9  1  0
  9 10  1  0
 10 11  1  0
 11 12  1  0
  6 13  2  0
 13 14  1  0
 14 15  1  0
 15 16  2  0
 15 17  1  0
 17 18  1  0
 18 19  2  0
 18 20  1  0
 20 21  2  0
 21 22  1  0
 22 23  2  0
 23 24  1  0
 24 25  1  0
 25 26  1  0
 26 27  2  0
 27 28  1  0
 28 29  2  0
 29 30  1  0
 30 31  2  0
 31 32  1  0
 23 33  1  0
 33 34  2  0
 13  2  1  0
 34 20  1  0
 12  7  1  0
 31 26  1  0
  1 35  1  0
  1 36  1  0
  1 37  1  0
  3 38  1  0
  4 39  1  0
  5 40  1  0
  8 41  1  0
  8 42  1  0
  9 43  1  0
  9 44  1  0
 11 45  1  0
 11 46  1  0
 12 47  1  0
 12 48  1  0
 14 49  1  0
 17 50  1  0
 21 51  1  0
 22 52  1  0
 24 53  1  0
 24 54  1  0
 27 55  1  0
 28 56  1  0
 29 57  1  0
 30 58  1  0
 33 59  1  0
 34 60  1  0
M  END
>  <UniqueID>  (45) 
44

>  <SMILES>  (45) 
Cc1cccc(N2CCOCC2)c1NC(=O)NC(=O)c1ccc(COc2ccccc2Cl)cc1

>  <Energy>  (45) 
79.31732848837564

>  <Genealogy>  (45) 
Cc1cccc(N2CCOCC2)c1NC(=O)NC(=O)c1ccc(COc2ccccc2Cl)cc1 (3D coordinates assigned)
Cc1cccc(N2CCOCC2)c1NC(=O)NC(=O)c1ccc(COc2ccccc2Cl)cc1 (nonaromatic ring conformer: 79.31732848837564 kcal/mol)

>  <smiles>  (45) 
Cc1cccc(N2CCOCC2)c1NC(=O)NC(=O)c1ccc(COc2ccccc2Cl)cc1

>  <score_type>  (45) 
oracle

>  <origin>  (45) 
adg

>  <m_score__min__energy>  (45) 
-8.3800000000000008

>  <m_primary>  (45) 
energy

$$$$
45:0
     RDKit          3D

 54 56  0  0  0  0  0  0  0  0999 V2000
   57.7617   27.8841   42.6932 H   0  0  0  0  0  0  0  0  0  0  0  0
   57.6780   28.1550   43.7560 C   0  0  0  0  0  0  0  0  0  0  0  0
   56.5470   28.9930   44.1920 C   0  0  0  0  0  0  0  0  0  0  0  0
   55.9080   28.6450   45.2200 O   0  0  0  0  0  0  0  0  0  0  0  0
   56.1900   30.2240   43.5440 N   0  0  0  0  0  0  0  0  0  0  0  0
   57.1020   31.2150   42.9740 C   0  0  0  0  0  0  0  0  0  0  0  0
   56.5286   31.9047   42.3372 H   0  0  0  0  0  0  0  0  0  0  0  0
   57.8659   30.6851   42.3861 H   0  0  0  0  0  0  0  0  0  0  0  0
   57.7970   32.0060   44.0520 C   0  0  0  0  0  0  0  0  0  0  0  0
   57.7800   31.5620   45.3840 C   0  0  0  0  0  0  0  0  0  0  0  0
   57.2762   30.6181   45.6395 H   0  0  0  0  0  0  0  0  0  0  0  0
   58.3990   32.3120   46.3860 C   0  0  0  0  0  0  0  0  0  0  0  0
   58.3742   31.9565   47.4267 H   0  0  0  0  0  0  0  0  0  0  0  0
   59.0540   33.5180   46.0770 C   0  0  0  0  0  0  0  0  0  0  0  0
   59.6950   34.3080   47.1550 C   0  0  0  0  0  0  0  0  0  0  0  0
   59.6690   35.5680   47.0950 O   0  0  0  0  0  0  0  0  0  0  0  0
   60.3650   33.6650   48.2530 N   0  0  0  0  0  0  0  0  0  0  0  0
   60.5040   32.6310   48.2450 H   0  0  0  0  0  0  0  0  0  0  0  0
   61.0010   34.4230   49.3270 C   0  0  0  0  0  0  0  0  0  0  0  0
   60.4244   34.2923   50.2546 H   0  0  0  0  0  0  0  0  0  0  0  0
   61.0280   35.4867   49.0480 H   0  0  0  0  0  0  0  0  0  0  0  0
   62.4080   33.9370   49.5440 C   0  0  0  0  0  0  0  0  0  0  0  0
   63.1940   33.5560   48.4460 C   0  0  0  0  0  0  0  0  0  0  0  0
   62.7708   33.5920   47.4313 H   0  0  0  0  0  0  0  0  0  0  0  0
   64.5120   33.1310   48.6350 C   0  0  0  0  0  0  0  0  0  0  0  0
   65.1174   32.8226   47.7699 H   0  0  0  0  0  0  0  0  0  0  0  0
   65.0660   33.0960   49.9230 C   0  0  0  0  0  0  0  0  0  0  0  0
   66.4710   32.6120   50.1260 C   0  0  0  0  0  0  0  0  0  0  0  0
   66.6818   32.5394   51.2032 H   0  0  0  0  0  0  0  0  0  0  0  0
   66.5883   31.6216   49.6619 H   0  0  0  0  0  0  0  0  0  0  0  0
   67.1734   33.3200   49.6619 H   0  0  0  0  0  0  0  0  0  0  0  0
   64.2760   33.4600   51.0230 C   0  0  0  0  0  0  0  0  0  0  0  0
   64.6950   33.4094   52.0388 H   0  0  0  0  0  0  0  0  0  0  0  0
   62.9580   33.8870   50.8340 C   0  0  0  0  0  0  0  0  0  0  0  0
   62.3495   34.1851   51.7005 H   0  0  0  0  0  0  0  0  0  0  0  0
   59.0990   33.9400   44.7350 C   0  0  0  0  0  0  0  0  0  0  0  0
   59.6297   34.8669   44.4721 H   0  0  0  0  0  0  0  0  0  0  0  0
   58.4750   33.1910   43.7340 C   0  0  0  0  0  0  0  0  0  0  0  0
   58.5161   33.5335   42.6895 H   0  0  0  0  0  0  0  0  0  0  0  0
   58.6070   27.7130   44.6130 C   0  0  0  0  0  0  0  0  0  0  0  0
   59.0173   26.7063   44.4448 H   0  0  0  0  0  0  0  0  0  0  0  0
   59.1250   28.4820   45.7750 C   0  0  0  0  0  0  0  0  0  0  0  0
   60.2570   29.2910   45.5790 C   0  0  0  0  0  0  0  0  0  0  0  0
   60.7404   29.3184   44.5913 H   0  0  0  0  0  0  0  0  0  0  0  0
   60.7770   30.0620   46.6240 C   0  0  0  0  0  0  0  0  0  0  0  0
   61.6623   30.6911   46.4491 H   0  0  0  0  0  0  0  0  0  0  0  0
   60.1790   30.0400   47.8940 C   0  0  0  0  0  0  0  0  0  0  0  0
   60.7150   30.8370   48.9650 N   0  0  0  0  0  0  0  0  0  0  0  0
   61.9390   31.0770   49.0300 O   0  0  0  0  0  0  0  0  0  0  0  0
   59.8840   31.3760   49.9200 O   0  0  0  0  0  0  0  0  0  0  0  0
   59.0430   29.2340   48.0940 C   0  0  0  0  0  0  0  0  0  0  0  0
   58.5624   29.2062   49.0830 H   0  0  0  0  0  0  0  0  0  0  0  0
   58.5190   28.4680   47.0480 C   0  0  0  0  0  0  0  0  0  0  0  0
   57.6261   27.8490   47.2199 H   0  0  0  0  0  0  0  0  0  0  0  0
  1  2  1  0
  2  3  1  0
  3  4  2  0
  3  5  1  0
  5  6  1  0
  6  7  1  0
  6  8  1  0
  6  9  1  0
  9 10  2  0
 10 11  1  0
 10 12  1  0
 12 13  1  0
 12 14  2  0
 14 15  1  0
 15 16  2  0
 15 17  1  0
 17 18  1  0
 17 19  1  0
 19 20  1  0
 19 21  1  0
 19 22  1  0
 22 23  2  0
 23 24  1  0
 23 25  1  0
 25 26  1  0
 25 27  2  0
 27 28  1  0
 28 29  1  0
 28 30  1  0
 28 31  1  0
 27 32  1  0
 32 33  1  0
 32 34  2  0
 34 35  1  0
 14 36  1  0
 36 37  1  0
 36 38  2  0
 38 39  1  0
  2 40  2  0
 40 41  1  0
 40 42  1  0
 42 43  2  0
 43 44  1  0
 43 45  1  0
 45 46  1  0
 45 47  2  0
 47 48  1  0
 48 49  2  0
 48 50  1  0
 47 51  1  0
 51 52  1  0
 51 53  2  0
 53 54  1  0
 38  9  1  0
 53 42  1  0
 34 22  1  0
M  CHG  3   5  -1  48   1  50  -1
M  END
>  <UniqueID>  (46) 
45

>  <SMILES>  (46) 
Cc1ccc(CNC(=O)c2ccc(C[N-]C(=O)/C=C/c3ccc([N+](=O)[O-])cc3)cc2)cc1

>  <Energy>  (46) 
60.68524685255952

>  <Genealogy>  (46) 
Cc1ccc(CNC(=O)c2ccc(C[N-]C(=O)C=Cc3ccc([N+](=O)[O-])cc3)cc2)cc1 (protonated)
Cc1ccc(CNC(=O)c2ccc(C[N-]C(=O)/C=C/c3ccc([N+](=O)[O-])cc3)cc2)cc1 (cis-trans isomerization)
Cc1ccc(CNC(=O)c2ccc(C[N-]C(=O)/C=C/c3ccc([N+](=O)[O-])cc3)cc2)cc1 (3D coordinates assigned)
Cc1ccc(CNC(=O)c2ccc(C[N-]C(=O)/C=C/c3ccc([N+](=O)[O-])cc3)cc2)cc1 (optimized conformer: 60.68524685255952 kcal/mol)

>  <smiles>  (46) 
Cc1ccc(CNC(=O)c2ccc(CNC(=O)C=Cc3ccc([N+](=O)[O-])cc3)cc2)cc1

>  <score_type>  (46) 
oracle

>  <origin>  (46) 
adg

>  <m_score__min__energy>  (46) 
-10.74

>  <m_primary>  (46) 
energy

$$$$
46:0
     RDKit          3D

 42 43  0  0  0  0  0  0  0  0999 V2000
   55.9110   31.4790   44.8260 O   0  0  0  0  0  0  0  0  0  0  0  0
   57.0920   31.9120   44.9060 C   0  0  0  0  0  0  0  0  0  0  0  0
   57.3800   33.3500   44.6220 C   0  0  0  0  0  0  0  0  0  0  0  0
   58.8270   33.5700   44.7200 N   0  0  0  0  0  0  0  0  0  0  0  0
   59.1350   34.6020   45.7160 C   0  0  0  0  0  0  0  0  0  0  0  0
   59.1840   33.9900   47.1210 C   0  0  0  0  0  0  0  0  0  0  0  0
   60.4130   33.1360   47.3050 C   0  0  0  0  0  0  0  0  0  0  0  0
   60.2910   31.7890   47.6860 C   0  0  0  0  0  0  0  0  0  0  0  0
   61.4300   30.9890   47.8180 C   0  0  0  0  0  0  0  0  0  0  0  0
   62.6950   31.5230   47.5590 C   0  0  0  0  0  0  0  0  0  0  0  0
   62.8260   32.8620   47.1650 C   0  0  0  0  0  0  0  0  0  0  0  0
   64.0820   33.4030   46.8970 O   0  0  0  0  0  0  0  0  0  0  0  0
   61.6860   33.6640   47.0370 C   0  0  0  0  0  0  0  0  0  0  0  0
   58.1750   31.0210   45.1890 N   0  0  0  0  0  0  0  0  0  0  0  0
   58.4860   29.8570   44.3680 C   0  0  0  0  0  0  0  0  0  0  0  0
   58.2840   28.5830   45.1780 C   0  0  0  0  0  0  0  0  0  0  0  0
   59.4430   28.0450   45.7590 C   0  0  0  0  0  0  0  0  0  0  0  0
   59.5950   26.9270   46.5640 C   0  0  0  0  0  0  0  0  0  0  0  0
   58.6290   26.0400   47.0000 C   0  0  0  0  0  0  0  0  0  0  0  0
   57.2690   26.0600   46.7490 C   0  0  0  0  0  0  0  0  0  0  0  0
   56.5170   26.9700   46.0130 C   0  0  0  0  0  0  0  0  0  0  0  0
   55.1470   26.7110   45.9790 O   0  0  0  0  0  0  0  0  0  0  0  0
   56.9600   28.1010   45.3090 C   0  0  0  0  0  0  0  0  0  0  0  0
   56.0530   28.7600   44.7250 O   0  0  0  0  0  0  0  0  0  0  0  0
   57.0353   33.6030   43.6085 H   0  0  0  0  0  0  0  0  0  0  0  0
   56.8548   33.9872   45.3487 H   0  0  0  0  0  0  0  0  0  0  0  0
   59.2700   32.6740   45.0330 H   0  0  0  0  0  0  0  0  0  0  0  0
   60.1112   35.0517   45.4822 H   0  0  0  0  0  0  0  0  0  0  0  0
   58.3488   35.3708   45.6885 H   0  0  0  0  0  0  0  0  0  0  0  0
   59.1965   34.8006   47.8645 H   0  0  0  0  0  0  0  0  0  0  0  0
   58.2965   33.3537   47.2532 H   0  0  0  0  0  0  0  0  0  0  0  0
   59.2960   31.3625   47.8811 H   0  0  0  0  0  0  0  0  0  0  0  0
   61.3302   29.9378   48.1262 H   0  0  0  0  0  0  0  0  0  0  0  0
   63.5896   30.8917   47.6644 H   0  0  0  0  0  0  0  0  0  0  0  0
   64.8980   32.8140   46.7810 H   0  0  0  0  0  0  0  0  0  0  0  0
   61.7881   34.7138   46.7247 H   0  0  0  0  0  0  0  0  0  0  0  0
   57.8219   29.8410   43.4912 H   0  0  0  0  0  0  0  0  0  0  0  0
   59.5341   29.9150   44.0393 H   0  0  0  0  0  0  0  0  0  0  0  0
   60.3714   28.5939   45.5426 H   0  0  0  0  0  0  0  0  0  0  0  0
   60.6211   26.7179   46.9007 H   0  0  0  0  0  0  0  0  0  0  0  0
   58.9881   25.2111   47.6277 H   0  0  0  0  0  0  0  0  0  0  0  0
   56.6974   25.2342   47.1977 H   0  0  0  0  0  0  0  0  0  0  0  0
  1  2  2  0
  2  3  1  0
  3  4  1  0
  4  5  1  0
  5  6  1  0
  6  7  1  0
  7  8  2  0
  8  9  1  0
  9 10  2  0
 10 11  1  0
 11 12  1  0
 11 13  2  0
  2 14  1  0
 14 15  1  0
 15 16  1  0
 16 17  2  0
 17 18  1  0
 18 19  2  0
 19 20  1  0
 20 21  2  0
 21 22  1  0
 21 23  1  0
 23 24  2  0
 13  7  1  0
 23 16  1  0
  3 25  1  0
  3 26  1  0
  4 27  1  0
  5 28  1  0
  5 29  1  0
  6 30  1  0
  6 31  1  0
  8 32  1  0
  9 33  1  0
 10 34  1  0
 12 35  1  0
 13 36  1  0
 15 37  1  0
 15 38  1  0
 17 39  1  0
 18 40  1  0
 19 41  1  0
 20 42  1  0
M  CHG  2  14  -1  22  -1
M  END
>  <UniqueID>  (47) 
46

>  <SMILES>  (47) 
O=C(CNCCc1cccc(O)c1)[N-]Cc1ccccc([O-])c1=O

>  <Energy>  (47) 
54.633511472682585

>  <Genealogy>  (47) 
O=C(CNCCc1cccc(O)c1)[N-]Cc1ccccc([O-])c1=O (protonated)
O=C(CNCCc1cccc(O)c1)[N-]Cc1ccccc([O-])c1=O (3D coordinates assigned)
O=C(CNCCc1cccc(O)c1)[N-]Cc1ccccc([O-])c1=O (optimized conformer: 54.633511472682585 kcal/mol)

>  <smiles>  (47) 
O=C(CNCCc1cccc(O)c1)NCc1ccccc(O)c1=O

>  <score_type>  (47) 
oracle

>  <origin>  (47) 
adg

>  <m_score__min__energy>  (47) 
-13.25

>  <m_primary>  (47) 
energy

$$$$
47:0
     RDKit          3D

 40 42  0  0  0  0  0  0  0  0999 V2000
   56.3900   24.1170   46.4490 C   0  0  0  0  0  0  0  0  0  0  0  0
   57.1310   25.1970   47.0070 O   0  0  0  0  0  0  0  0  0  0  0  0
   57.4150   26.3940   46.3310 C   0  0  0  0  0  0  0  0  0  0  0  0
   58.7320   26.8600   46.1510 C   0  0  0  0  0  0  0  0  0  0  0  0
   58.9700   28.0600   45.4750 C   0  0  0  0  0  0  0  0  0  0  0  0
   57.9020   28.8090   44.9610 C   0  0  0  0  0  0  0  0  0  0  0  0
   58.1470   30.1270   44.2810 C   0  0  0  0  0  0  0  0  0  0  0  0
   57.7370   31.2190   45.1590 N   0  0  0  0  0  0  0  0  0  0  0  0
   57.7860   32.5920   44.7510 C   0  0  0  0  0  0  0  0  0  0  0  0
   57.9640   32.8890   43.5390 O   0  0  0  0  0  0  0  0  0  0  0  0
   57.6850   33.6820   45.7720 C   0  0  0  0  0  0  0  0  0  0  0  0
   58.8950   34.6110   45.6720 C   0  0  0  0  0  0  0  0  0  0  0  0
   60.0990   33.9690   46.2850 C   0  0  0  0  0  0  0  0  0  0  0  0
   61.3230   34.5530   46.3680 N   0  0  0  0  0  0  0  0  0  0  0  0
   62.0710   33.6510   47.0500 C   0  0  0  0  0  0  0  0  0  0  0  0
   63.2830   33.8350   47.3360 O   0  0  0  0  0  0  0  0  0  0  0  0
   61.3740   32.5510   47.3970 N   0  0  0  0  0  0  0  0  0  0  0  0
   61.6830   31.4250   48.0820 C   0  0  0  0  0  0  0  0  0  0  0  0
   62.8420   31.2300   48.5340 O   0  0  0  0  0  0  0  0  0  0  0  0
   60.7000   30.5040   48.2750 N   0  0  0  0  0  0  0  0  0  0  0  0
   59.4460   30.7380   47.7790 C   0  0  0  0  0  0  0  0  0  0  0  0
   58.5360   29.8860   47.9540 O   0  0  0  0  0  0  0  0  0  0  0  0
   59.1790   31.8640   47.1110 O   0  0  0  0  0  0  0  0  0  0  0  0
   60.1440   32.7520   46.9290 C   0  0  0  0  0  0  0  0  0  0  0  0
   56.5880   28.3500   45.1470 C   0  0  0  0  0  0  0  0  0  0  0  0
   56.3470   27.1500   45.8240 C   0  0  0  0  0  0  0  0  0  0  0  0
   55.0400   26.7110   45.9980 O   0  0  0  0  0  0  0  0  0  0  0  0
   55.9692   23.5037   47.2594 H   0  0  0  0  0  0  0  0  0  0  0  0
   55.5735   24.5146   45.8282 H   0  0  0  0  0  0  0  0  0  0  0  0
   57.0547   23.4983   45.8282 H   0  0  0  0  0  0  0  0  0  0  0  0
   59.5775   26.2766   46.5444 H   0  0  0  0  0  0  0  0  0  0  0  0
   60.0017   28.4190   45.3454 H   0  0  0  0  0  0  0  0  0  0  0  0
   59.2181   30.2258   44.0507 H   0  0  0  0  0  0  0  0  0  0  0  0
   57.5628   30.1700   43.3500 H   0  0  0  0  0  0  0  0  0  0  0  0
   57.5190   30.9950   46.1560 H   0  0  0  0  0  0  0  0  0  0  0  0
   56.7665   34.2611   45.5960 H   0  0  0  0  0  0  0  0  0  0  0  0
   57.6585   33.2330   46.7758 H   0  0  0  0  0  0  0  0  0  0  0  0
   59.0993   34.8269   44.6129 H   0  0  0  0  0  0  0  0  0  0  0  0
   58.6741   35.5431   46.2127 H   0  0  0  0  0  0  0  0  0  0  0  0
   55.7433   28.9376   44.7580 H   0  0  0  0  0  0  0  0  0  0  0  0
  1  2  1  0
  2  3  1  0
  3  4  2  0
  4  5  1  0
  5  6  2  0
  6  7  1  0
  7  8  1  0
  8  9  1  0
  9 10  2  0
  9 11  1  0
 11 12  1  0
 12 13  1  0
 13 14  1  0
 14 15  1  0
 15 16  2  0
 15 17  1  0
 17 18  1  0
 18 19  2  0
 18 20  1  0
 20 21  1  0
 21 22  2  0
 21 23  1  0
 23 24  1  0
  6 25  1  0
 25 26  2  0
 26 27  1  0
 26  3  1  0
 24 13  2  0
 24 17  1  0
  1 28  1  0
  1 29  1  0
  1 30  1  0
  4 31  1  0
  5 32  1  0
  7 33  1  0
  7 34  1  0
  8 35  1  0
 11 36  1  0
 11 37  1  0
 12 38  1  0
 12 39  1  0
 25 40  1  0
M  CHG  3  14  -1  20  -1  27  -1
M  END
>  <UniqueID>  (48) 
47

>  <SMILES>  (48) 
COc1ccc(CNC(=O)CCc2[n-]c(=O)n3c(=O)[n-]c(=O)oc23)cc1[O-]

>  <Energy>  (48) 
75.71965470362277

>  <Genealogy>  (48) 
COc1ccc(CNC(=O)CCc2[n-]c(=O)n3c(=O)[n-]c(=O)oc23)cc1[O-] (protonated)
COc1ccc(CNC(=O)CCc2[n-]c(=O)n3c(=O)[n-]c(=O)oc23)cc1[O-] (3D coordinates assigned)
COc1ccc(CNC(=O)CCc2[n-]c(=O)n3c(=O)[n-]c(=O)oc23)cc1[O-] (optimized conformer: 75.71965470362277 kcal/mol)

>  <smiles>  (48) 
COc1ccc(CNC(=O)CCc2[nH]c(=O)n3c(=O)[nH]c(=O)oc23)cc1O

>  <score_type>  (48) 
oracle

>  <origin>  (48) 
adg

>  <m_score__min__energy>  (48) 
-12.609999999999999

>  <m_primary>  (48) 
energy

$$$$
48:0
     RDKit          3D

 49 51  0  0  0  0  0  0  0  0999 V2000
   59.7940   33.9810   48.9510 C   0  0  0  0  0  0  0  0  0  0  0  0
   59.4800   34.1670   47.5270 N   0  0  0  0  0  0  0  0  0  0  0  0
   59.9640   35.2850   46.8980 C   0  0  0  0  0  0  0  0  0  0  0  0
   59.6580   35.5470   45.5640 C   0  0  0  0  0  0  0  0  0  0  0  0
   58.8390   34.6700   44.8650 C   0  0  0  0  0  0  0  0  0  0  0  0
   58.3480   33.5350   45.4990 C   0  0  0  0  0  0  0  0  0  0  0  0
   58.6840   33.2730   46.8370 C   0  0  0  0  0  0  0  0  0  0  0  0
   58.1540   31.9910   47.4560 C   0  0  0  0  0  0  0  0  0  0  0  0
   58.5890   30.8090   46.6970 N   0  0  0  0  0  0  0  0  0  0  0  0
   59.4940   29.8250   47.3110 C   0  0  0  0  0  0  0  0  0  0  0  0
   60.6930   30.5190   47.8990 C   0  0  0  0  0  0  0  0  0  0  0  0
   60.8830   30.5410   49.2890 C   0  0  0  0  0  0  0  0  0  0  0  0
   61.9600   31.2400   49.8400 C   0  0  0  0  0  0  0  0  0  0  0  0
   62.8570   31.9180   49.0080 C   0  0  0  0  0  0  0  0  0  0  0  0
   62.6760   31.9070   47.6230 C   0  0  0  0  0  0  0  0  0  0  0  0
   63.5660   32.6020   46.8070 O   0  0  0  0  0  0  0  0  0  0  0  0
   61.5950   31.2080   47.0690 C   0  0  0  0  0  0  0  0  0  0  0  0
   57.8620   30.4270   45.5160 C   0  0  0  0  0  0  0  0  0  0  0  0
   56.8140   31.0530   45.1980 O   0  0  0  0  0  0  0  0  0  0  0  0
   58.2920   29.2560   44.6830 C   0  0  0  0  0  0  0  0  0  0  0  0
   57.8720   27.9670   45.3420 C   0  0  0  0  0  0  0  0  0  0  0  0
   58.8430   27.0050   45.6680 C   0  0  0  0  0  0  0  0  0  0  0  0
   58.4690   25.7800   46.2280 C   0  0  0  0  0  0  0  0  0  0  0  0
   57.1210   25.5040   46.4630 C   0  0  0  0  0  0  0  0  0  0  0  0
   56.1460   26.4490   46.1390 C   0  0  0  0  0  0  0  0  0  0  0  0
   56.5120   27.6760   45.5760 C   0  0  0  0  0  0  0  0  0  0  0  0
   55.5200   28.5930   45.2480 O   0  0  0  0  0  0  0  0  0  0  0  0
   59.0080   34.4466   49.5637 H   0  0  0  0  0  0  0  0  0  0  0  0
   59.8468   32.9059   49.1775 H   0  0  0  0  0  0  0  0  0  0  0  0
   60.7622   34.4513   49.1775 H   0  0  0  0  0  0  0  0  0  0  0  0
   60.6035   35.9857   47.4548 H   0  0  0  0  0  0  0  0  0  0  0  0
   60.0622   36.4419   45.0683 H   0  0  0  0  0  0  0  0  0  0  0  0
   58.5803   34.8726   43.8152 H   0  0  0  0  0  0  0  0  0  0  0  0
   57.6945   32.8401   44.9513 H   0  0  0  0  0  0  0  0  0  0  0  0
   58.5269   31.9109   48.4878 H   0  0  0  0  0  0  0  0  0  0  0  0
   57.0547   32.0275   47.4400 H   0  0  0  0  0  0  0  0  0  0  0  0
   58.9591   29.2863   48.1071 H   0  0  0  0  0  0  0  0  0  0  0  0
   59.8311   29.1167   46.5399 H   0  0  0  0  0  0  0  0  0  0  0  0
   60.1820   30.0064   49.9468 H   0  0  0  0  0  0  0  0  0  0  0  0
   62.1028   31.2572   50.9306 H   0  0  0  0  0  0  0  0  0  0  0  0
   63.7074   32.4614   49.4457 H   0  0  0  0  0  0  0  0  0  0  0  0
   64.5490   32.3720   46.7850 H   0  0  0  0  0  0  0  0  0  0  0  0
   61.4513   31.1983   45.9785 H   0  0  0  0  0  0  0  0  0  0  0  0
   57.8247   29.3255   43.6896 H   0  0  0  0  0  0  0  0  0  0  0  0
   59.3875   29.2685   44.5840 H   0  0  0  0  0  0  0  0  0  0  0  0
   59.9059   27.2176   45.4810 H   0  0  0  0  0  0  0  0  0  0  0  0
   59.2363   25.0342   46.4832 H   0  0  0  0  0  0  0  0  0  0  0  0
   56.8266   24.5403   46.9042 H   0  0  0  0  0  0  0  0  0  0  0  0
   55.0851   26.2277   46.3273 H   0  0  0  0  0  0  0  0  0  0  0  0
  1  2  1  0
  2  3  2  0
  3  4  1  0
  4  5  2  0
  5  6  1  0
  6  7  2  0
  7  8  1  0
  8  9  1  0
  9 10  1  0
 10 11  1  0
 11 12  2  0
 12 13  1  0
 13 14  2  0
 14 15  1  0
 15 16  1  0
 15 17  2  0
  9 18  1  0
 18 19  2  0
 18 20  1  0
 20 21  1  0
 21 22  2  0
 22 23  1  0
 23 24  2  0
 24 25  1  0
 25 26  2  0
 26 27  1  0
  7  2  1  0
 17 11  1  0
 26 21  1  0
  1 28  1  0
  1 29  1  0
  1 30  1  0
  3 31  1  0
  4 32  1  0
  5 33  1  0
  6 34  1  0
  8 35  1  0
  8 36  1  0
 10 37  1  0
 10 38  1  0
 12 39  1  0
 13 40  1  0
 14 41  1  0
 16 42  1  0
 17 43  1  0
 20 44  1  0
 20 45  1  0
 22 46  1  0
 23 47  1  0
 24 48  1  0
 25 49  1  0
M  CHG  2   2   1  27  -1
M  END
>  <UniqueID>  (49) 
48

>  <SMILES>  (49) 
C[n+]1ccccc1CN(Cc1cccc(O)c1)C(=O)Cc1ccccc1[O-]

>  <Energy>  (49) 
50.68622638221005

>  <Genealogy>  (49) 
C[n+]1ccccc1CN(Cc1cccc(O)c1)C(=O)Cc1ccccc1[O-] (protonated)
C[n+]1ccccc1CN(Cc1cccc(O)c1)C(=O)Cc1ccccc1[O-] (3D coordinates assigned)
C[n+]1ccccc1CN(Cc1cccc(O)c1)C(=O)Cc1ccccc1[O-] (optimized conformer: 50.68622638221005 kcal/mol)

>  <smiles>  (49) 
C[n+]1ccccc1CN(Cc1cccc(O)c1)C(=O)Cc1ccccc1O

>  <score_type>  (49) 
oracle

>  <origin>  (49) 
adg

>  <m_score__min__energy>  (49) 
-10.58

>  <m_primary>  (49) 
energy

$$$$
49:0
     RDKit          3D

 65 68  0  0  0  0  0  0  0  0999 V2000
   62.2860   33.4090   50.7280 C   0  0  0  0  0  0  0  0  0  0  0  0
   63.5990   33.8460   50.0790 C   0  0  0  0  0  0  0  0  0  0  0  0
   64.2860   32.7340   49.3170 C   0  0  0  0  0  0  0  0  0  0  0  0
   65.2860   32.1960   49.7800 O   0  0  0  0  0  0  0  0  0  0  0  0
   63.7740   32.3190   48.0220 N   0  0  0  0  0  0  0  0  0  0  0  0
   63.5070   33.5040   47.1640 C   0  0  0  0  0  0  0  0  0  0  0  0
   62.0460   33.9740   47.2280 C   0  0  0  0  0  0  0  0  0  0  0  0
   61.1330   32.8650   46.9180 N   0  0  0  0  0  0  0  0  0  0  0  0
   59.7490   33.1370   46.6100 C   0  0  0  0  0  0  0  0  0  0  0  0
   59.3720   33.3960   45.2790 C   0  0  0  0  0  0  0  0  0  0  0  0
   58.0440   33.6790   44.9590 C   0  0  0  0  0  0  0  0  0  0  0  0
   57.0760   33.7110   45.9610 C   0  0  0  0  0  0  0  0  0  0  0  0
   57.4300   33.4510   47.2860 C   0  0  0  0  0  0  0  0  0  0  0  0
   58.7620   33.1390   47.6220 C   0  0  0  0  0  0  0  0  0  0  0  0
   59.1380   32.8650   48.9840 N   0  0  0  0  0  0  0  0  0  0  0  0
   58.7430   31.7310   49.7650 C   0  0  0  0  0  0  0  0  0  0  0  0
   57.7630   31.8270   50.5530 O   0  0  0  0  0  0  0  0  0  0  0  0
   59.4610   30.4350   49.6090 C   0  0  0  0  0  0  0  0  0  0  0  0
   60.1570   29.8940   50.7010 C   0  0  0  0  0  0  0  0  0  0  0  0
   60.8110   28.6720   50.5840 C   0  0  0  0  0  0  0  0  0  0  0  0
   60.7750   27.9860   49.3740 C   0  0  0  0  0  0  0  0  0  0  0  0
   60.1140   28.5050   48.2950 N   0  0  0  0  0  0  0  0  0  0  0  0
   60.0860   27.7240   47.0460 C   0  0  0  0  0  0  0  0  0  0  0  0
   58.6840   27.2670   46.7440 C   0  0  0  0  0  0  0  0  0  0  0  0
   57.8680   28.0140   45.8810 C   0  0  0  0  0  0  0  0  0  0  0  0
   56.5790   27.5740   45.5680 C   0  0  0  0  0  0  0  0  0  0  0  0
   56.0900   26.3700   46.1100 C   0  0  0  0  0  0  0  0  0  0  0  0
   54.8090   25.8790   45.8180 O   0  0  0  0  0  0  0  0  0  0  0  0
   54.5100   24.5110   45.5650 C   0  0  0  0  0  0  0  0  0  0  0  0
   56.9070   25.6290   46.9700 C   0  0  0  0  0  0  0  0  0  0  0  0
   58.1950   26.0680   47.2840 C   0  0  0  0  0  0  0  0  0  0  0  0
   59.4540   29.7090   48.3910 C   0  0  0  0  0  0  0  0  0  0  0  0
   58.8450   30.1730   47.3870 O   0  0  0  0  0  0  0  0  0  0  0  0
   61.6220   31.4870   47.0310 C   0  0  0  0  0  0  0  0  0  0  0  0
   62.6150   31.3990   48.1940 C   0  0  0  0  0  0  0  0  0  0  0  0
   62.3889   33.4432   51.8226 H   0  0  0  0  0  0  0  0  0  0  0  0
   61.4785   34.0868   50.4142 H   0  0  0  0  0  0  0  0  0  0  0  0
   62.0457   32.3824   50.4142 H   0  0  0  0  0  0  0  0  0  0  0  0
   63.3870   34.6692   49.3808 H   0  0  0  0  0  0  0  0  0  0  0  0
   64.2768   34.1551   50.8883 H   0  0  0  0  0  0  0  0  0  0  0  0
   64.5260   31.7690   47.5420 H   0  0  0  0  0  0  0  0  0  0  0  0
   64.1555   34.3290   47.4940 H   0  0  0  0  0  0  0  0  0  0  0  0
   63.7131   33.2106   46.1241 H   0  0  0  0  0  0  0  0  0  0  0  0
   61.8303   34.3480   48.2397 H   0  0  0  0  0  0  0  0  0  0  0  0
   61.8975   34.7738   46.4875 H   0  0  0  0  0  0  0  0  0  0  0  0
   60.1316   33.3751   44.4836 H   0  0  0  0  0  0  0  0  0  0  0  0
   57.7606   33.8771   43.9147 H   0  0  0  0  0  0  0  0  0  0  0  0
   56.0308   33.9416   45.7073 H   0  0  0  0  0  0  0  0  0  0  0  0
   56.6631   33.4900   48.0736 H   0  0  0  0  0  0  0  0  0  0  0  0
   60.1855   30.4399   51.6556 H   0  0  0  0  0  0  0  0  0  0  0  0
   61.3535   28.2504   51.4430 H   0  0  0  0  0  0  0  0  0  0  0  0
   61.2841   27.0150   49.2842 H   0  0  0  0  0  0  0  0  0  0  0  0
   60.4490   28.3510   46.2183 H   0  0  0  0  0  0  0  0  0  0  0  0
   60.7316   26.8411   47.1628 H   0  0  0  0  0  0  0  0  0  0  0  0
   58.2453   28.9521   45.4479 H   0  0  0  0  0  0  0  0  0  0  0  0
   55.9443   28.1703   44.8960 H   0  0  0  0  0  0  0  0  0  0  0  0
   54.3936   23.9784   46.5204 H   0  0  0  0  0  0  0  0  0  0  0  0
   53.5752   24.4403   44.9895 H   0  0  0  0  0  0  0  0  0  0  0  0
   55.3301   24.0568   44.9895 H   0  0  0  0  0  0  0  0  0  0  0  0
   56.5311   24.6906   47.4036 H   0  0  0  0  0  0  0  0  0  0  0  0
   58.8284   25.4716   47.9571 H   0  0  0  0  0  0  0  0  0  0  0  0
   60.7752   30.8103   47.2181 H   0  0  0  0  0  0  0  0  0  0  0  0
   62.1213   31.1940   46.0956 H   0  0  0  0  0  0  0  0  0  0  0  0
   62.0919   31.6602   49.1257 H   0  0  0  0  0  0  0  0  0  0  0  0
   63.0047   30.3708   48.2252 H   0  0  0  0  0  0  0  0  0  0  0  0
  1  2  1  0
  2  3  1  0
  3  4  2  0
  3  5  1  0
  5  6  1  0
  6  7  1  0
  7  8  1  0
  8  9  1  0
  9 10  2  0
 10 11  1  0
 11 12  2  0
 12 13  1  0
 13 14  2  0
 14 15  1  0
 15 16  1  0
 16 17  2  0
 16 18  1  0
 18 19  2  0
 19 20  1  0
 20 21  2  0
 21 22  1  0
 22 23  1  0
 23 24  1  0
 24 25  2  0
 25 26  1  0
 26 27  2  0
 27 28  1  0
 28 29  1  0
 27 30  1  0
 30 31  2  0
 22 32  1  0
 32 33  2  0
  8 34  1  0
 34 35  1  0
 35  5  1  0
 14  9  1  0
 32 18  1  0
 31 24  1  0
  1 36  1  0
  1 37  1  0
  1 38  1  0
  2 39  1  0
  2 40  1  0
  5 41  1  0
  6 42  1  0
  6 43  1  0
  7 44  1  0
  7 45  1  0
 10 46  1  0
 11 47  1  0
 12 48  1  0
 13 49  1  0
 19 50  1  0
 20 51  1  0
 21 52  1  0
 23 53  1  0
 23 54  1  0
 25 55  1  0
 26 56  1  0
 29 57  1  0
 29 58  1  0
 29 59  1  0
 30 60  1  0
 31 61  1  0
 34 62  1  0
 34 63  1  0
 35 64  1  0
 35 65  1  0
M  CHG  2   5   1  15  -1
M  END
>  <UniqueID>  (50) 
49

>  <SMILES>  (50) 
CCC(=O)[NH+]1CCN(c2ccccc2[N-]C(=O)c2cccn(Cc3ccc(OC)cc3)c2=O)CC1

>  <Energy>  (50) 
85.88931900233283

>  <Genealogy>  (50) 
CCC(=O)[NH+]1CCN(c2ccccc2[N-]C(=O)c2cccn(Cc3ccc(OC)cc3)c2=O)CC1 (protonated)
CCC(=O)[NH+]1CCN(c2ccccc2[N-]C(=O)c2cccn(Cc3ccc(OC)cc3)c2=O)CC1 (3D coordinates assigned)
CCC(=O)[NH+]1CCN(c2ccccc2[N-]C(=O)c2cccn(Cc3ccc(OC)cc3)c2=O)CC1 (nonaromatic ring conformer: 85.88931900233283 kcal/mol)

>  <smiles>  (50) 
CCC(=O)N1CCN(c2ccccc2NC(=O)c2cccn(Cc3ccc(OC)cc3)c2=O)CC1

>  <score_type>  (50) 
oracle

>  <origin>  (50) 
adg

>  <m_score__min__energy>  (50) 
-8.9700000000000006

>  <m_primary>  (50) 
energy

$$$$
50:0
     RDKit          3D

 48 50  0  0  0  0  0  0  0  0999 V2000
   60.5900   34.2290   48.6200 C   0  0  0  0  0  0  0  0  0  0  0  0
   59.3030   33.9300   47.4250 S   0  0  0  0  0  0  0  0  0  0  0  0
   58.9310   35.2520   46.8160 O   0  0  0  0  0  0  0  0  0  0  0  0
   58.1010   33.3910   48.1530 O   0  0  0  0  0  0  0  0  0  0  0  0
   59.7590   32.8380   46.1300 N   0  0  0  0  0  0  0  0  0  0  0  0
   60.1180   31.4780   46.5770 C   0  0  0  0  0  0  0  0  0  0  0  0
   58.9140   30.5290   46.7010 C   0  0  0  0  0  0  0  0  0  0  0  0
   58.0160   30.6610   45.5500 N   0  0  0  0  0  0  0  0  0  0  0  0
   57.2260   29.5370   45.1170 C   0  0  0  0  0  0  0  0  0  0  0  0
   55.9900   29.6870   44.9020 O   0  0  0  0  0  0  0  0  0  0  0  0
   57.8460   28.1800   44.9330 C   0  0  0  0  0  0  0  0  0  0  0  0
   57.1040   27.1450   45.7190 C   0  0  0  0  0  0  0  0  0  0  0  0
   55.7740   26.9360   45.6170 N   0  0  0  0  0  0  0  0  0  0  0  0
   55.3390   25.9260   46.3690 N   0  0  0  0  0  0  0  0  0  0  0  0
   56.3220   25.3260   47.0730 C   0  0  0  0  0  0  0  0  0  0  0  0
   56.1010   24.2900   47.8260 N   0  0  0  0  0  0  0  0  0  0  0  0
   56.2940   22.9170   47.4620 C   0  0  0  0  0  0  0  0  0  0  0  0
   57.3910   22.3650   47.7490 O   0  0  0  0  0  0  0  0  0  0  0  0
   55.3140   22.1890   46.5780 C   0  0  0  0  0  0  0  0  0  0  0  0
   55.7660   22.1750   45.1390 C   0  0  0  0  0  0  0  0  0  0  0  0
   56.4410   21.0620   44.6090 C   0  0  0  0  0  0  0  0  0  0  0  0
   56.8710   21.0640   43.2780 C   0  0  0  0  0  0  0  0  0  0  0  0
   56.6290   22.1740   42.4640 C   0  0  0  0  0  0  0  0  0  0  0  0
   55.9520   23.2840   42.9800 C   0  0  0  0  0  0  0  0  0  0  0  0
   55.5210   23.2850   44.3110 C   0  0  0  0  0  0  0  0  0  0  0  0
   57.8240   26.0320   46.7600 S   0  0  0  0  0  0  0  0  0  0  0  0
   57.6220   32.0120   45.1500 C   0  0  0  0  0  0  0  0  0  0  0  0
   58.8680   32.8720   44.9570 C   0  0  0  0  0  0  0  0  0  0  0  0
   60.1773   34.1331   49.6351 H   0  0  0  0  0  0  0  0  0  0  0  0
   61.3969   33.4944   48.4814 H   0  0  0  0  0  0  0  0  0  0  0  0
   60.9904   35.2441   48.4814 H   0  0  0  0  0  0  0  0  0  0  0  0
   60.8246   31.0493   45.8511 H   0  0  0  0  0  0  0  0  0  0  0  0
   60.5550   31.5752   47.5818 H   0  0  0  0  0  0  0  0  0  0  0  0
   59.2780   29.4924   46.7554 H   0  0  0  0  0  0  0  0  0  0  0  0
   58.3552   30.7914   47.6114 H   0  0  0  0  0  0  0  0  0  0  0  0
   57.8171   27.9121   43.8665 H   0  0  0  0  0  0  0  0  0  0  0  0
   58.8855   28.2161   45.2911 H   0  0  0  0  0  0  0  0  0  0  0  0
   55.2170   21.1519   46.9315 H   0  0  0  0  0  0  0  0  0  0  0  0
   54.3490   22.7144   46.6297 H   0  0  0  0  0  0  0  0  0  0  0  0
   56.6322   20.1846   45.2443 H   0  0  0  0  0  0  0  0  0  0  0  0
   57.4008   20.1901   42.8711 H   0  0  0  0  0  0  0  0  0  0  0  0
   56.9706   22.1748   41.4184 H   0  0  0  0  0  0  0  0  0  0  0  0
   55.7584   24.1566   42.3389 H   0  0  0  0  0  0  0  0  0  0  0  0
   54.9873   24.1592   44.7122 H   0  0  0  0  0  0  0  0  0  0  0  0
   57.0596   31.9650   44.2058 H   0  0  0  0  0  0  0  0  0  0  0  0
   56.9896   32.4553   45.9332 H   0  0  0  0  0  0  0  0  0  0  0  0
   59.4215   32.5012   44.0817 H   0  0  0  0  0  0  0  0  0  0  0  0
   58.5398   33.9121   44.8142 H   0  0  0  0  0  0  0  0  0  0  0  0
  1  2  1  0
  2  3  2  0
  2  4  2  0
  2  5  1  0
  5  6  1  0
  6  7  1  0
  7  8  1  0
  8  9  1  0
  9 10  2  0
  9 11  1  0
 11 12  1  0
 12 13  2  0
 13 14  1  0
 14 15  1  0
 15 16  2  3
 16 17  1  0
 17 18  2  0
 17 19  1  0
 19 20  1  0
 20 21  2  0
 21 22  1  0
 22 23  2  0
 23 24  1  0
 24 25  2  0
 15 26  1  0
  8 27  1  0
 27 28  1  0
 28  5  1  0
 26 12  1  0
 25 20  1  0
  1 29  1  0
  1 30  1  0
  1 31  1  0
  6 32  1  0
  6 33  1  0
  7 34  1  0
  7 35  1  0
 11 36  1  0
 11 37  1  0
 19 38  1  0
 19 39  1  0
 21 40  1  0
 22 41  1  0
 23 42  1  0
 24 43  1  0
 25 44  1  0
 27 45  1  0
 27 46  1  0
 28 47  1  0
 28 48  1  0
M  CHG  1  14  -1
M  END
>  <UniqueID>  (51) 
50

>  <SMILES>  (51) 
CS(=O)(=O)N1CCN(C(=O)Cc2n[n-]c(=NC(=O)Cc3ccccc3)s2)CC1

>  <Energy>  (51) 
91.65300488074666

>  <Genealogy>  (51) 
CS(=O)(=O)N1CCN(C(=O)Cc2n[n-]c(=NC(=O)Cc3ccccc3)s2)CC1 (protonated)
CS(=O)(=O)N1CCN(C(=O)Cc2n[n-]c(=NC(=O)Cc3ccccc3)s2)CC1 (3D coordinates assigned)
CS(=O)(=O)N1CCN(C(=O)Cc2n[n-]c(=NC(=O)Cc3ccccc3)s2)CC1 (nonaromatic ring conformer: 91.65300488074666 kcal/mol)

>  <smiles>  (51) 
CS(=O)(=O)N1CCN(C(=O)Cc2n[nH]c(=NC(=O)Cc3ccccc3)s2)CC1

>  <score_type>  (51) 
oracle

>  <origin>  (51) 
adg

>  <m_score__min__energy>  (51) 
-11

>  <m_primary>  (51) 
energy

$$$$
51:0
     RDKit          3D

 46 48  0  0  0  0  0  0  0  0999 V2000
   54.0436   28.8845   51.1709 H   0  0  0  0  0  0  0  0  0  0  0  0
   54.2090   29.8740   51.6220 C   0  0  0  0  0  0  0  0  0  0  0  0
   55.2570   30.0160   52.6560 C   0  0  0  0  0  0  0  0  0  0  0  0
   54.9710   30.4730   53.7940 O   0  0  0  0  0  0  0  0  0  0  0  0
   56.6230   29.6960   52.3600 N   0  0  0  0  0  0  0  0  0  0  0  0
   57.5020   30.5410   51.6060 C   0  0  0  0  0  0  0  0  0  0  0  0
   57.6360   31.8870   51.9610 C   0  0  0  0  0  0  0  0  0  0  0  0
   57.1223   32.2725   52.8541 H   0  0  0  0  0  0  0  0  0  0  0  0
   58.4210   32.7440   51.1840 C   0  0  0  0  0  0  0  0  0  0  0  0
   58.5066   33.8062   51.4567 H   0  0  0  0  0  0  0  0  0  0  0  0
   59.1000   32.2550   50.0580 C   0  0  0  0  0  0  0  0  0  0  0  0
   59.9760   33.3560   48.9960 S   0  0  0  0  0  0  0  0  0  0  0  0
   61.4530   33.2080   49.2350 O   0  0  0  0  0  0  0  0  0  0  0  0
   59.5920   34.7740   49.3210 O   0  0  0  0  0  0  0  0  0  0  0  0
   59.6130   33.0360   47.3140 N   0  0  0  0  0  0  0  0  0  0  0  0
   60.4070   33.9040   46.4100 C   0  0  0  0  0  0  0  0  0  0  0  0
   61.2651   34.3027   46.9710 H   0  0  0  0  0  0  0  0  0  0  0  0
   60.7255   33.2870   45.5568 H   0  0  0  0  0  0  0  0  0  0  0  0
   59.5980   35.0840   45.8480 C   0  0  0  0  0  0  0  0  0  0  0  0
   59.2682   35.7216   46.6814 H   0  0  0  0  0  0  0  0  0  0  0  0
   60.2415   35.6486   45.1572 H   0  0  0  0  0  0  0  0  0  0  0  0
   58.3620   34.5950   45.0710 C   0  0  0  0  0  0  0  0  0  0  0  0
   57.5697   35.3532   45.1572 H   0  0  0  0  0  0  0  0  0  0  0  0
   58.6668   34.4414   44.0253 H   0  0  0  0  0  0  0  0  0  0  0  0
   57.8200   33.2550   45.5980 C   0  0  0  0  0  0  0  0  0  0  0  0
   56.7279   33.2326   45.4683 H   0  0  0  0  0  0  0  0  0  0  0  0
   58.2919   32.4387   45.0315 H   0  0  0  0  0  0  0  0  0  0  0  0
   58.1520   33.0750   47.0820 C   0  0  0  0  0  0  0  0  0  0  0  0
   57.7233   33.9152   47.6479 H   0  0  0  0  0  0  0  0  0  0  0  0
   57.7256   32.1174   47.4156 H   0  0  0  0  0  0  0  0  0  0  0  0
   59.0280   30.8890   49.7490 C   0  0  0  0  0  0  0  0  0  0  0  0
   59.6010   30.4877   48.9001 H   0  0  0  0  0  0  0  0  0  0  0  0
   58.2310   30.0370   50.5160 C   0  0  0  0  0  0  0  0  0  0  0  0
   58.1737   28.9673   50.2659 H   0  0  0  0  0  0  0  0  0  0  0  0
   53.4540   30.9000   51.2130 C   0  0  0  0  0  0  0  0  0  0  0  0
   53.7294   31.4158   50.2813 H   0  0  0  0  0  0  0  0  0  0  0  0
   52.2590   31.3750   51.9610 C   0  0  0  0  0  0  0  0  0  0  0  0
   52.0130   30.9880   53.2930 C   0  0  0  0  0  0  0  0  0  0  0  0
   52.7125   30.3101   53.8040 H   0  0  0  0  0  0  0  0  0  0  0  0
   50.8870   31.4600   53.9670 C   0  0  0  0  0  0  0  0  0  0  0  0
   50.6915   31.1511   55.0045 H   0  0  0  0  0  0  0  0  0  0  0  0
   50.0120   32.3260   53.3150 C   0  0  0  0  0  0  0  0  0  0  0  0
   49.1182   32.6996   53.8360 H   0  0  0  0  0  0  0  0  0  0  0  0
   50.2620   32.7090   52.0370 N   0  0  0  0  0  0  0  0  0  0  0  0
   51.3500   32.2660   51.3500 C   0  0  0  0  0  0  0  0  0  0  0  0
   51.5280   32.6540   50.1650 O   0  0  0  0  0  0  0  0  0  0  0  0
  1  2  1  0
  2  3  1  0
  3  4  2  0
  3  5  1  0
  5  6  1  0
  6  7  2  0
  7  8  1  0
  7  9  1  0
  9 10  1  0
  9 11  2  0
 11 12  1  0
 12 13  2  0
 12 14  2  0
 12 15  1  0
 15 16  1  0
 16 17  1  0
 16 18  1  0
 16 19  1  0
 19 20  1  0
 19 21  1  0
 19 22  1  0
 22 23  1  0
 22 24  1  0
 22 25  1  0
 25 26  1  0
 25 27  1  0
 25 28  1  0
 28 29  1  0
 28 30  1  0
 11 31  1  0
 31 32  1  0
 31 33  2  0
 33 34  1  0
  2 35  2  0
 35 36  1  0
 35 37  1  0
 37 38  2  0
 38 39  1  0
 38 40  1  0
 40 41  1  0
 40 42  2  0
 42 43  1  0
 42 44  1  0
 44 45  1  0
 45 46  2  0
 33  6  1  0
 45 37  1  0
 28 15  1  0
M  CHG  2   5  -1  44  -1
M  END
>  <UniqueID>  (52) 
51

>  <SMILES>  (52) 
O=C(/C=C/c1ccc[n-]c1=O)[N-]c1ccc(S(=O)(=O)N2CCCCC2)cc1

>  <Energy>  (52) 
59.52252924737144

>  <Genealogy>  (52) 
O=C(C=Cc1ccc[n-]c1=O)[N-]c1ccc(S(=O)(=O)N2CCCCC2)cc1 (protonated)
O=C(/C=C/c1ccc[n-]c1=O)[N-]c1ccc(S(=O)(=O)N2CCCCC2)cc1 (cis-trans isomerization)
O=C(/C=C/c1ccc[n-]c1=O)[N-]c1ccc(S(=O)(=O)N2CCCCC2)cc1 (3D coordinates assigned)
O=C(/C=C/c1ccc[n-]c1=O)[N-]c1ccc(S(=O)(=O)N2CCCCC2)cc1 (nonaromatic ring conformer: 59.52252924737144 kcal/mol)

>  <smiles>  (52) 
O=C(C=Cc1ccc[nH]c1=O)Nc1ccc(S(=O)(=O)N2CCCCC2)cc1

>  <score_type>  (52) 
oracle

>  <origin>  (52) 
adg

>  <m_score__min__energy>  (52) 
-13.390000000000001

>  <m_primary>  (52) 
energy

$$$$
52:0
     RDKit          3D

 54 57  0  0  0  0  0  0  0  0999 V2000
   60.2110   22.9690   45.2570 C   0  0  0  0  0  0  0  0  0  0  0  0
   58.9920   23.3880   45.3270 C   0  0  0  0  0  0  0  0  0  0  0  0
   57.8270   23.1710   44.5190 C   0  0  0  0  0  0  0  0  0  0  0  0
   56.9980   24.2750   44.2490 C   0  0  0  0  0  0  0  0  0  0  0  0
   57.3050   25.5780   44.7620 N   0  0  0  0  0  0  0  0  0  0  0  0
   56.7820   25.9270   46.0670 C   0  0  0  0  0  0  0  0  0  0  0  0
   57.7730   26.6940   46.8970 C   0  0  0  0  0  0  0  0  0  0  0  0
   58.7360   27.4780   46.0370 C   0  0  0  0  0  0  0  0  0  0  0  0
   59.2770   28.6620   46.7460 C   0  0  0  0  0  0  0  0  0  0  0  0
   58.8570   29.9180   46.4580 N   0  0  0  0  0  0  0  0  0  0  0  0
   59.3350   31.0130   47.0900 C   0  0  0  0  0  0  0  0  0  0  0  0
   58.8720   32.3280   46.7630 N   0  0  0  0  0  0  0  0  0  0  0  0
   59.4690   33.4700   47.4270 C   0  0  0  0  0  0  0  0  0  0  0  0
   59.2210   34.7570   46.7080 C   0  0  0  0  0  0  0  0  0  0  0  0
   59.2060   34.4660   45.2030 C   0  0  0  0  0  0  0  0  0  0  0  0
   57.9300   33.7130   44.9440 C   0  0  0  0  0  0  0  0  0  0  0  0
   57.8300   32.4900   45.7880 C   0  0  0  0  0  0  0  0  0  0  0  0
   60.2700   30.8370   48.0510 N   0  0  0  0  0  0  0  0  0  0  0  0
   60.7490   29.6290   48.4080 C   0  0  0  0  0  0  0  0  0  0  0  0
   60.2440   28.5290   47.7450 C   0  0  0  0  0  0  0  0  0  0  0  0
   60.6860   27.2770   48.0580 F   0  0  0  0  0  0  0  0  0  0  0  0
   58.2020   27.7890   44.6820 C   0  0  0  0  0  0  0  0  0  0  0  0
   58.1010   26.4450   43.9490 C   0  0  0  0  0  0  0  0  0  0  0  0
   55.8880   24.1910   43.5090 N   0  0  0  0  0  0  0  0  0  0  0  0
   55.5250   23.0220   42.9910 C   0  0  0  0  0  0  0  0  0  0  0  0
   56.2630   21.9510   43.2090 N   0  0  0  0  0  0  0  0  0  0  0  0
   57.4140   21.9850   43.9630 C   0  0  0  0  0  0  0  0  0  0  0  0
   57.9820   20.8780   44.0650 N   0  0  0  0  0  0  0  0  0  0  0  0
   60.9444   23.2815   46.0149 H   0  0  0  0  0  0  0  0  0  0  0  0
   60.5163   22.2994   44.4394 H   0  0  0  0  0  0  0  0  0  0  0  0
   58.8083   24.0500   46.1861 H   0  0  0  0  0  0  0  0  0  0  0  0
   55.8814   26.5442   45.9328 H   0  0  0  0  0  0  0  0  0  0  0  0
   56.5547   24.9907   46.5977 H   0  0  0  0  0  0  0  0  0  0  0  0
   57.2272   27.3925   47.5483 H   0  0  0  0  0  0  0  0  0  0  0  0
   58.3536   25.9724   47.4905 H   0  0  0  0  0  0  0  0  0  0  0  0
   59.5932   26.8145   45.8498 H   0  0  0  0  0  0  0  0  0  0  0  0
   59.0470   33.5470   48.4399 H   0  0  0  0  0  0  0  0  0  0  0  0
   60.5568   33.3080   47.4476 H   0  0  0  0  0  0  0  0  0  0  0  0
   58.2518   35.1758   47.0165 H   0  0  0  0  0  0  0  0  0  0  0  0
   60.0095   35.4857   46.9476 H   0  0  0  0  0  0  0  0  0  0  0  0
   59.2192   35.4055   44.6310 H   0  0  0  0  0  0  0  0  0  0  0  0
   60.0882   33.8862   44.8939 H   0  0  0  0  0  0  0  0  0  0  0  0
   57.0768   34.3705   45.1669 H   0  0  0  0  0  0  0  0  0  0  0  0
   57.9238   33.4024   43.8888 H   0  0  0  0  0  0  0  0  0  0  0  0
   56.8684   32.5232   46.3212 H   0  0  0  0  0  0  0  0  0  0  0  0
   57.9241   31.6376   45.0991 H   0  0  0  0  0  0  0  0  0  0  0  0
   61.5105   29.5242   49.1948 H   0  0  0  0  0  0  0  0  0  0  0  0
   57.2097   28.2572   44.7604 H   0  0  0  0  0  0  0  0  0  0  0  0
   58.8533   28.4936   44.1440 H   0  0  0  0  0  0  0  0  0  0  0  0
   57.6232   26.5857   42.9682 H   0  0  0  0  0  0  0  0  0  0  0  0
   59.0998   26.0154   43.7822 H   0  0  0  0  0  0  0  0  0  0  0  0
   55.2880   25.0320   43.3250 H   0  0  0  0  0  0  0  0  0  0  0  0
   54.6118   22.9481   42.3823 H   0  0  0  0  0  0  0  0  0  0  0  0
   57.8310   19.9680   43.7890 H   0  0  0  0  0  0  0  0  0  0  0  0
  1  2  2  0
  2  3  1  0
  3  4  2  0
  4  5  1  0
  5  6  1  0
  6  7  1  0
  7  8  1  0
  8  9  1  0
  9 10  2  0
 10 11  1  0
 11 12  1  0
 12 13  1  0
 13 14  1  0
 14 15  1  0
 15 16  1  0
 16 17  1  0
 11 18  2  0
 18 19  1  0
 19 20  2  0
 20 21  1  0
  8 22  1  0
 22 23  1  0
  4 24  1  0
 24 25  1  0
 25 26  2  0
 26 27  1  0
 27 28  2  3
 27  3  1  0
 23  5  1  0
 20  9  1  0
 17 12  1  0
  1 29  1  0
  1 30  1  0
  2 31  1  0
  6 32  1  0
  6 33  1  0
  7 34  1  0
  7 35  1  0
  8 36  1  0
 13 37  1  0
 13 38  1  0
 14 39  1  0
 14 40  1  0
 15 41  1  0
 15 42  1  0
 16 43  1  0
 16 44  1  0
 17 45  1  0
 17 46  1  0
 19 47  1  0
 22 48  1  0
 22 49  1  0
 23 50  1  0
 23 51  1  0
 24 52  1  0
 25 53  1  0
 28 54  1  0
M  END
>  <smiles>  (53) 
C=Cc1c(N2CCC(c3nc(N4CCCCC4)ncc3F)CC2)[nH]cnc1=N

>  <score_type>  (53) 
oracle

>  <origin>  (53) 
adg

>  <m_score__min__energy>  (53) 
-7.8399999999999999

>  <m_primary>  (53) 
energy

$$$$
53:0
     RDKit          3D

 51 54  0  0  0  0  0  0  0  0999 V2000
   59.4286   28.9060   47.7665 H   0  0  0  0  0  0  0  0  0  0  0  0
   59.0050   28.2180   47.0200 C   0  0  0  0  0  0  0  0  0  0  0  0
   59.1286   27.1316   47.1406 H   0  0  0  0  0  0  0  0  0  0  0  0
   58.3360   28.7050   45.9600 C   0  0  0  0  0  0  0  0  0  0  0  0
   57.7550   27.9300   44.9490 C   0  0  0  0  0  0  0  0  0  0  0  0
   57.7940   26.5880   44.8170 C   0  0  0  0  0  0  0  0  0  0  0  0
   58.3450   26.1691   43.9621 H   0  0  0  0  0  0  0  0  0  0  0  0
   57.1430   25.6480   45.7490 C   0  0  0  0  0  0  0  0  0  0  0  0
   57.7840   24.6130   46.3180 N   0  0  0  0  0  0  0  0  0  0  0  0
   56.8560   24.0850   47.1460 C   0  0  0  0  0  0  0  0  0  0  0  0
   57.0800   23.0730   47.8580 O   0  0  0  0  0  0  0  0  0  0  0  0
   55.6730   24.7350   47.1590 N   0  0  0  0  0  0  0  0  0  0  0  0
   55.8740   25.7290   46.2780 C   0  0  0  0  0  0  0  0  0  0  0  0
   54.9330   26.7140   46.0050 O   0  0  0  0  0  0  0  0  0  0  0  0
   57.1740   28.8180   44.0620 C   0  0  0  0  0  0  0  0  0  0  0  0
   56.6320   28.5635   43.1393 H   0  0  0  0  0  0  0  0  0  0  0  0
   57.4050   30.0830   44.5570 C   0  0  0  0  0  0  0  0  0  0  0  0
   56.9360   31.3390   43.8830 C   0  0  0  0  0  0  0  0  0  0  0  0
   56.6585   32.0823   44.6449 H   0  0  0  0  0  0  0  0  0  0  0  0
   57.7443   31.7419   43.2550 H   0  0  0  0  0  0  0  0  0  0  0  0
   56.0615   31.1135   43.2550 H   0  0  0  0  0  0  0  0  0  0  0  0
   58.1140   30.0310   45.7140 N   0  0  0  0  0  0  0  0  0  0  0  0
   58.5030   31.2100   46.5200 C   0  0  0  0  0  0  0  0  0  0  0  0
   57.6202   31.5255   47.0954 H   0  0  0  0  0  0  0  0  0  0  0  0
   59.5870   30.8540   47.5580 C   0  0  0  0  0  0  0  0  0  0  0  0
   59.1937   30.0771   48.2302 H   0  0  0  0  0  0  0  0  0  0  0  0
   60.4743   30.4975   47.0143 H   0  0  0  0  0  0  0  0  0  0  0  0
   60.0050   32.0810   48.4030 C   0  0  0  0  0  0  0  0  0  0  0  0
   59.4907   32.0287   49.3740 H   0  0  0  0  0  0  0  0  0  0  0  0
   61.0989   32.0454   48.5130 H   0  0  0  0  0  0  0  0  0  0  0  0
   59.6680   33.3740   47.7600 N   0  0  0  0  0  0  0  0  0  0  0  0
   60.4130   34.4760   48.4000 C   0  0  0  0  0  0  0  0  0  0  0  0
   60.4193   35.3472   47.7284 H   0  0  0  0  0  0  0  0  0  0  0  0
   59.9218   34.7342   49.3498 H   0  0  0  0  0  0  0  0  0  0  0  0
   61.8310   34.0570   48.6820 C   0  0  0  0  0  0  0  0  0  0  0  0
   62.2870   33.9100   50.0040 C   0  0  0  0  0  0  0  0  0  0  0  0
   61.6069   34.1135   50.8443 H   0  0  0  0  0  0  0  0  0  0  0  0
   63.6020   33.5060   50.2540 C   0  0  0  0  0  0  0  0  0  0  0  0
   63.9544   33.3935   51.2899 H   0  0  0  0  0  0  0  0  0  0  0  0
   64.4690   33.2450   49.1900 C   0  0  0  0  0  0  0  0  0  0  0  0
   65.5033   32.9276   49.3889 H   0  0  0  0  0  0  0  0  0  0  0  0
   64.0230   33.3870   47.8730 C   0  0  0  0  0  0  0  0  0  0  0  0
   64.7063   33.1810   47.0359 H   0  0  0  0  0  0  0  0  0  0  0  0
   62.7080   33.7910   47.6190 C   0  0  0  0  0  0  0  0  0  0  0  0
   62.3597   33.9007   46.5814 H   0  0  0  0  0  0  0  0  0  0  0  0
   59.9210   33.3240   46.3080 C   0  0  0  0  0  0  0  0  0  0  0  0
   59.8543   34.3391   45.8896 H   0  0  0  0  0  0  0  0  0  0  0  0
   60.9263   32.9161   46.1261 H   0  0  0  0  0  0  0  0  0  0  0  0
   58.8760   32.4240   45.6340 C   0  0  0  0  0  0  0  0  0  0  0  0
   57.9689   33.0154   45.4406 H   0  0  0  0  0  0  0  0  0  0  0  0
   59.3076   32.0427   44.6968 H   0  0  0  0  0  0  0  0  0  0  0  0
  1  2  1  0
  2  3  1  0
  2  4  2  0
  4  5  1  0
  5  6  2  0
  6  7  1  0
  6  8  1  0
  8  9  1  0
  9 10  1  0
 10 11  2  0
 10 12  1  0
 12 13  1  0
 13 14  1  0
  5 15  1  0
 15 16  1  0
 15 17  2  0
 17 18  1  0
 18 19  1  0
 18 20  1  0
 18 21  1  0
 17 22  1  0
 22 23  1  0
 23 24  1  0
 23 25  1  0
 25 26  1  0
 25 27  1  0
 25 28  1  0
 28 29  1  0
 28 30  1  0
 28 31  1  0
 31 32  1  0
 32 33  1  0
 32 34  1  0
 32 35  1  0
 35 36  2  0
 36 37  1  0
 36 38  1  0
 38 39  1  0
 38 40  2  0
 40 41  1  0
 40 42  1  0
 42 43  1  0
 42 44  2  0
 44 45  1  0
 31 46  1  0
 46 47  1  0
 46 48  1  0
 46 49  1  0
 49 50  1  0
 49 51  1  0
 22  4  1  0
 49 23  1  0
 13  8  2  0
 44 35  1  0
M  CHG  3   9  -1  12  -1  14  -1
M  END
>  <UniqueID>  (54) 
52

>  <SMILES>  (54) 
C=c1/c(=C/c2[n-]c(=O)[n-]c2[O-])cc(C)n1C1CCN(Cc2ccccc2)CC1

>  <Energy>  (54) 
128.4174099515087

>  <Genealogy>  (54) 
C=c1c(=Cc2[n-]c(=O)[n-]c2[O-])cc(C)n1C1CCN(Cc2ccccc2)CC1 (protonated)
C=c1/c(=C/c2[n-]c(=O)[n-]c2[O-])cc(C)n1C1CCN(Cc2ccccc2)CC1 (cis-trans isomerization)
C=c1/c(=C/c2[n-]c(=O)[n-]c2[O-])cc(C)n1C1CCN(Cc2ccccc2)CC1 (3D coordinates assigned)
C=c1/c(=C/c2[n-]c(=O)[n-]c2[O-])cc(C)n1C1CCN(Cc2ccccc2)CC1 (nonaromatic ring conformer: 128.4174099515087 kcal/mol)

>  <smiles>  (54) 
C=c1c(=Cc2[nH]c(=O)[nH]c2O)cc(C)n1C1CCN(Cc2ccccc2)CC1

>  <score_type>  (54) 
oracle

>  <origin>  (54) 
adg

>  <m_score__min__energy>  (54) 
-16.370000000000001

>  <m_primary>  (54) 
energy

$$$$
54:0
     RDKit          3D

 25 26  0  0  0  0  0  0  0  0999 V2000
   57.2210   31.4310   42.6910 C   0  0  0  0  0  0  0  0  0  0  0  0
   57.6650   31.6410   43.9440 C   0  0  0  0  0  0  0  0  0  0  0  0
   57.6830   32.9750   44.4010 C   0  0  0  0  0  0  0  0  0  0  0  0
   57.9060   33.2700   45.7440 C   0  0  0  0  0  0  0  0  0  0  0  0
   58.1060   32.2450   46.6600 C   0  0  0  0  0  0  0  0  0  0  0  0
   58.2890   32.5360   47.9720 F   0  0  0  0  0  0  0  0  0  0  0  0
   58.1460   30.9190   46.2280 C   0  0  0  0  0  0  0  0  0  0  0  0
   58.0020   30.5880   44.8620 C   0  0  0  0  0  0  0  0  0  0  0  0
   58.2330   29.2900   44.5270 C   0  0  0  0  0  0  0  0  0  0  0  0
   57.5680   28.0990   45.1050 C   0  0  0  0  0  0  0  0  0  0  0  0
   56.1680   28.0560   45.2550 C   0  0  0  0  0  0  0  0  0  0  0  0
   55.3470   29.0950   44.8120 O   0  0  0  0  0  0  0  0  0  0  0  0
   55.5870   26.9710   45.8290 N   0  0  0  0  0  0  0  0  0  0  0  0
   56.3280   25.9250   46.2760 C   0  0  0  0  0  0  0  0  0  0  0  0
   55.7620   24.9320   46.8000 O   0  0  0  0  0  0  0  0  0  0  0  0
   57.6790   25.9540   46.1640 N   0  0  0  0  0  0  0  0  0  0  0  0
   58.3160   27.0140   45.6020 C   0  0  0  0  0  0  0  0  0  0  0  0
   59.5740   27.0160   45.5420 O   0  0  0  0  0  0  0  0  0  0  0  0
   57.1858   30.4097   42.2839 H   0  0  0  0  0  0  0  0  0  0  0  0
   56.8933   32.2806   42.0740 H   0  0  0  0  0  0  0  0  0  0  0  0
   57.5185   33.7948   43.6863 H   0  0  0  0  0  0  0  0  0  0  0  0
   57.9238   34.3173   46.0800 H   0  0  0  0  0  0  0  0  0  0  0  0
   58.2925   30.1157   46.9651 H   0  0  0  0  0  0  0  0  0  0  0  0
   58.9890   29.1064   43.7493 H   0  0  0  0  0  0  0  0  0  0  0  0
   54.3920   28.9490   44.5080 H   0  0  0  0  0  0  0  0  0  0  0  0
  1  2  2  0
  2  3  1  0
  3  4  2  0
  4  5  1  0
  5  6  1  0
  5  7  2  0
  7  8  1  0
  8  9  2  3
  9 10  1  0
 10 11  2  0
 11 12  1  0
 11 13  1  0
 13 14  1  0
 14 15  2  0
 14 16  1  0
 16 17  1  0
 17 18  2  0
  8  2  1  0
 17 10  1  0
  1 19  1  0
  1 20  1  0
  3 21  1  0
  4 22  1  0
  7 23  1  0
  9 24  1  0
 12 25  1  0
M  CHG  2  13  -1  16  -1
M  END
>  <UniqueID>  (55) 
53

>  <SMILES>  (55) 
C=c1ccc(F)cc1=Cc1c(O)[n-]c(=O)[n-]c1=O

>  <Energy>  (55) 
50.79942896426849

>  <Genealogy>  (55) 
C=c1ccc(F)cc1=Cc1c(O)[n-]c(=O)[n-]c1=O (protonated)
C=c1ccc(F)cc1=Cc1c(O)[n-]c(=O)[n-]c1=O (3D coordinates assigned)
C=c1ccc(F)cc1=Cc1c(O)[n-]c(=O)[n-]c1=O (optimized conformer: 50.79942896426849 kcal/mol)

>  <smiles>  (55) 
C=c1ccc(F)cc1=Cc1c(O)[nH]c(=O)[nH]c1=O

>  <score_type>  (55) 
oracle

>  <origin>  (55) 
adg

>  <m_score__min__energy>  (55) 
-11.17

>  <m_primary>  (55) 
energy

$$$$
55:0
     RDKit          3D

 63 66  0  0  0  0  0  0  0  0999 V2000
   59.1760   33.8100   52.4370 C   0  0  0  0  0  0  0  0  0  0  0  0
   60.4400   33.1710   52.5880 O   0  0  0  0  0  0  0  0  0  0  0  0
   60.8920   32.1090   51.7910 C   0  0  0  0  0  0  0  0  0  0  0  0
   62.1010   31.4350   52.0490 C   0  0  0  0  0  0  0  0  0  0  0  0
   62.5000   30.3750   51.2340 C   0  0  0  0  0  0  0  0  0  0  0  0
   61.7060   29.9800   50.1540 C   0  0  0  0  0  0  0  0  0  0  0  0
   60.5050   30.6520   49.8700 C   0  0  0  0  0  0  0  0  0  0  0  0
   59.6690   30.2160   48.7260 C   0  0  0  0  0  0  0  0  0  0  0  0
   58.5380   30.7460   48.5590 O   0  0  0  0  0  0  0  0  0  0  0  0
   60.1380   29.2130   47.8050 N   0  0  0  0  0  0  0  0  0  0  0  0
   59.4380   28.8390   46.6080 C   0  0  0  0  0  0  0  0  0  0  0  0
   59.9290   27.8410   45.7530 C   0  0  0  0  0  0  0  0  0  0  0  0
   59.2340   27.5090   44.5880 C   0  0  0  0  0  0  0  0  0  0  0  0
   58.0470   28.1710   44.2590 C   0  0  0  0  0  0  0  0  0  0  0  0
   57.4000   27.8170   43.1200 F   0  0  0  0  0  0  0  0  0  0  0  0
   57.5470   29.1890   45.0960 C   0  0  0  0  0  0  0  0  0  0  0  0
   56.2730   29.8870   44.7920 C   0  0  0  0  0  0  0  0  0  0  0  0
   55.1750   29.2690   44.8300 O   0  0  0  0  0  0  0  0  0  0  0  0
   56.2740   31.2830   44.4790 N   0  0  0  0  0  0  0  0  0  0  0  0
   57.2650   32.2090   44.9450 C   0  0  0  0  0  0  0  0  0  0  0  0
   58.0670   32.9430   44.0530 C   0  0  0  0  0  0  0  0  0  0  0  0
   58.9720   33.8900   44.5380 C   0  0  0  0  0  0  0  0  0  0  0  0
   59.0850   34.1230   45.9180 C   0  0  0  0  0  0  0  0  0  0  0  0
   60.0080   35.1990   46.4240 C   0  0  0  0  0  0  0  0  0  0  0  0
   61.1420   34.5980   47.1530 N   0  0  0  0  0  0  0  0  0  0  0  0
   61.4940   33.2840   46.5720 C   0  0  0  0  0  0  0  0  0  0  0  0
   62.4960   32.5180   47.4600 C   0  0  0  0  0  0  0  0  0  0  0  0
   63.1170   33.4330   48.4350 N   0  0  0  0  0  0  0  0  0  0  0  0
   64.1700   32.7410   49.1940 C   0  0  0  0  0  0  0  0  0  0  0  0
   62.0960   33.9800   49.3530 C   0  0  0  0  0  0  0  0  0  0  0  0
   60.8410   34.4540   48.5910 C   0  0  0  0  0  0  0  0  0  0  0  0
   58.2910   33.3810   46.8070 C   0  0  0  0  0  0  0  0  0  0  0  0
   57.3890   32.4290   46.3210 C   0  0  0  0  0  0  0  0  0  0  0  0
   58.2650   29.5230   46.2600 C   0  0  0  0  0  0  0  0  0  0  0  0
   60.1040   31.7110   50.7050 C   0  0  0  0  0  0  0  0  0  0  0  0
   58.7525   34.0241   53.4294 H   0  0  0  0  0  0  0  0  0  0  0  0
   59.3049   34.7512   51.8825 H   0  0  0  0  0  0  0  0  0  0  0  0
   58.4945   33.1482   51.8825 H   0  0  0  0  0  0  0  0  0  0  0  0
   62.7323   31.7447   52.8949 H   0  0  0  0  0  0  0  0  0  0  0  0
   63.4430   29.8484   51.4424 H   0  0  0  0  0  0  0  0  0  0  0  0
   62.0233   29.1374   49.5220 H   0  0  0  0  0  0  0  0  0  0  0  0
   61.0830   28.7950   47.9490 H   0  0  0  0  0  0  0  0  0  0  0  0
   60.8645   27.3182   46.0010 H   0  0  0  0  0  0  0  0  0  0  0  0
   59.6227   26.7219   43.9251 H   0  0  0  0  0  0  0  0  0  0  0  0
   57.9814   32.7708   42.9699 H   0  0  0  0  0  0  0  0  0  0  0  0
   59.5999   34.4566   43.8346 H   0  0  0  0  0  0  0  0  0  0  0  0
   60.3909   35.7794   45.5716 H   0  0  0  0  0  0  0  0  0  0  0  0
   59.4510   35.8570   47.1072 H   0  0  0  0  0  0  0  0  0  0  0  0
   60.5783   32.6834   46.4678 H   0  0  0  0  0  0  0  0  0  0  0  0
   61.9654   33.4568   45.5933 H   0  0  0  0  0  0  0  0  0  0  0  0
   61.9664   31.7184   47.9986 H   0  0  0  0  0  0  0  0  0  0  0  0
   63.2819   32.0859   46.8231 H   0  0  0  0  0  0  0  0  0  0  0  0
   63.9853   32.8624   50.2716 H   0  0  0  0  0  0  0  0  0  0  0  0
   64.1628   31.6710   48.9390 H   0  0  0  0  0  0  0  0  0  0  0  0
   65.1493   33.1721   48.9390 H   0  0  0  0  0  0  0  0  0  0  0  0
   61.8043   33.1976   50.0691 H   0  0  0  0  0  0  0  0  0  0  0  0
   62.5303   34.8469   49.8726 H   0  0  0  0  0  0  0  0  0  0  0  0
   60.0361   33.7157   48.7216 H   0  0  0  0  0  0  0  0  0  0  0  0
   60.5249   35.4287   48.9910 H   0  0  0  0  0  0  0  0  0  0  0  0
   58.3787   33.5492   47.8905 H   0  0  0  0  0  0  0  0  0  0  0  0
   56.7734   31.8498   47.0249 H   0  0  0  0  0  0  0  0  0  0  0  0
   57.8995   30.3340   46.9070 H   0  0  0  0  0  0  0  0  0  0  0  0
   59.1577   32.2336   50.5014 H   0  0  0  0  0  0  0  0  0  0  0  0
  1  2  1  0
  2  3  1  0
  3  4  2  0
  4  5  1  0
  5  6  2  0
  6  7  1  0
  7  8  1  0
  8  9  2  0
  8 10  1  0
 10 11  1  0
 11 12  2  0
 12 13  1  0
 13 14  2  0
 14 15  1  0
 14 16  1  0
 16 17  1  0
 17 18  2  0
 17 19  1  0
 19 20  1  0
 20 21  2  0
 21 22  1  0
 22 23  2  0
 23 24  1  0
 24 25  1  0
 25 26  1  0
 26 27  1  0
 27 28  1  0
 28 29  1  0
 28 30  1  0
 30 31  1  0
 23 32  1  0
 32 33  2  0
 16 34  2  0
  7 35  2  0
 35  3  1  0
 34 11  1  0
 33 20  1  0
 31 25  1  0
  1 36  1  0
  1 37  1  0
  1 38  1  0
  4 39  1  0
  5 40  1  0
  6 41  1  0
 10 42  1  0
 12 43  1  0
 13 44  1  0
 21 45  1  0
 22 46  1  0
 24 47  1  0
 24 48  1  0
 26 49  1  0
 26 50  1  0
 27 51  1  0
 27 52  1  0
 29 53  1  0
 29 54  1  0
 29 55  1  0
 30 56  1  0
 30 57  1  0
 31 58  1  0
 31 59  1  0
 32 60  1  0
 33 61  1  0
 34 62  1  0
 35 63  1  0
M  CHG  1  19  -1
M  END
>  <UniqueID>  (56) 
54

>  <SMILES>  (56) 
COc1cccc(C(=O)Nc2ccc(F)c(C(=O)[N-]c3ccc(CN4CCN(C)CC4)cc3)c2)c1

>  <Energy>  (56) 
90.07482361433006

>  <Genealogy>  (56) 
COc1cccc(C(=O)Nc2ccc(F)c(C(=O)[N-]c3ccc(CN4CCN(C)CC4)cc3)c2)c1 (protonated)
COc1cccc(C(=O)Nc2ccc(F)c(C(=O)[N-]c3ccc(CN4CCN(C)CC4)cc3)c2)c1 (3D coordinates assigned)
COc1cccc(C(=O)Nc2ccc(F)c(C(=O)[N-]c3ccc(CN4CCN(C)CC4)cc3)c2)c1 (nonaromatic ring conformer: 90.07482361433006 kcal/mol)

>  <smiles>  (56) 
COc1cccc(C(=O)Nc2ccc(F)c(C(=O)Nc3ccc(CN4CCN(C)CC4)cc3)c2)c1

>  <score_type>  (56) 
oracle

>  <origin>  (56) 
adg

>  <m_score__min__energy>  (56) 
-10.08

>  <m_primary>  (56) 
energy

$$$$
56:0
     RDKit          3D

 28 29  0  0  0  0  0  0  0  0999 V2000
   55.7200   26.9310   45.3540 H   0  0  0  0  0  0  0  0  0  0  0  0
   55.0410   26.3630   45.8460 O   0  0  0  0  0  0  0  0  0  0  0  0
   54.7640   25.0410   45.4980 C   0  0  0  0  0  0  0  0  0  0  0  0
   53.6130   24.4790   45.9480 N   0  0  0  0  0  0  0  0  0  0  0  0
   53.2880   23.1960   45.6490 C   0  0  0  0  0  0  0  0  0  0  0  0
   52.2170   22.7000   46.0850 O   0  0  0  0  0  0  0  0  0  0  0  0
   54.1150   22.4480   44.8760 N   0  0  0  0  0  0  0  0  0  0  0  0
   55.2770   22.9580   44.3940 C   0  0  0  0  0  0  0  0  0  0  0  0
   56.0020   22.2420   43.6530 O   0  0  0  0  0  0  0  0  0  0  0  0
   55.6490   24.2790   44.7080 C   0  0  0  0  0  0  0  0  0  0  0  0
   56.8950   24.8760   44.1720 C   0  0  0  0  0  0  0  0  0  0  0  0
   56.9096   25.1827   43.1157 H   0  0  0  0  0  0  0  0  0  0  0  0
   58.0110   25.0650   44.9030 C   0  0  0  0  0  0  0  0  0  0  0  0
   58.8440   23.9450   45.2860 C   0  0  0  0  0  0  0  0  0  0  0  0
   59.5100   23.0490   45.5940 N   0  0  0  0  0  0  0  0  0  0  0  0
   58.3880   26.4150   45.3810 C   0  0  0  0  0  0  0  0  0  0  0  0
   59.5860   26.6710   45.6830 O   0  0  0  0  0  0  0  0  0  0  0  0
   57.3720   27.4140   45.5510 N   0  0  0  0  0  0  0  0  0  0  0  0
   57.5160   28.8270   45.3380 C   0  0  0  0  0  0  0  0  0  0  0  0
   56.3900   29.5840   44.9850 C   0  0  0  0  0  0  0  0  0  0  0  0
   55.1450   28.9770   44.8740 O   0  0  0  0  0  0  0  0  0  0  0  0
   56.5060   30.9190   44.7540 N   0  0  0  0  0  0  0  0  0  0  0  0
   57.7020   31.5600   44.8430 C   0  0  0  0  0  0  0  0  0  0  0  0
   57.7670   32.7970   44.6230 O   0  0  0  0  0  0  0  0  0  0  0  0
   58.8550   30.8430   45.1690 C   0  0  0  0  0  0  0  0  0  0  0  0
   59.8264   31.3548   45.2353 H   0  0  0  0  0  0  0  0  0  0  0  0
   58.7640   29.4710   45.4100 C   0  0  0  0  0  0  0  0  0  0  0  0
   59.6677   28.8942   45.6560 H   0  0  0  0  0  0  0  0  0  0  0  0
  1  2  1  0
  2  3  1  0
  3  4  1  0
  4  5  1  0
  5  6  2  0
  5  7  1  0
  7  8  1  0
  8  9  2  0
  8 10  1  0
 10 11  1  0
 11 12  1  0
 11 13  2  0
 13 14  1  0
 14 15  3  0
 13 16  1  0
 16 17  2  0
 16 18  1  0
 18 19  1  0
 19 20  2  0
 20 21  1  0
 20 22  1  0
 22 23  1  0
 23 24  2  0
 23 25  1  0
 25 26  1  0
 25 27  2  0
 27 28  1  0
 10  3  2  0
 27 19  1  0
M  CHG  5   4  -1   7  -1  18  -1  21  -1  22  -1
M  END
>  <UniqueID>  (57) 
55

>  <SMILES>  (57) 
N#C/C(=C\c1c(O)[n-]c(=O)[n-]c1=O)C(=O)[N-]c1ccc(=O)[n-]c1[O-]

>  <Energy>  (57) 
43.2536412821496

>  <Genealogy>  (57) 
N#CC(=Cc1c(O)[n-]c(=O)[n-]c1=O)C(=O)[N-]c1ccc(=O)[n-]c1[O-] (protonated)
N#C/C(=C\c1c(O)[n-]c(=O)[n-]c1=O)C(=O)[N-]c1ccc(=O)[n-]c1[O-] (cis-trans isomerization)
N#C/C(=C\c1c(O)[n-]c(=O)[n-]c1=O)C(=O)[N-]c1ccc(=O)[n-]c1[O-] (3D coordinates assigned)
N#C/C(=C\c1c(O)[n-]c(=O)[n-]c1=O)C(=O)[N-]c1ccc(=O)[n-]c1[O-] (optimized conformer: 43.2536412821496 kcal/mol)

>  <smiles>  (57) 
N#CC(=Cc1c(O)[nH]c(=O)[nH]c1=O)C(=O)Nc1ccc(=O)[nH]c1O

>  <score_type>  (57) 
oracle

>  <origin>  (57) 
adg

>  <m_score__min__energy>  (57) 
-17.390000000000001

>  <m_primary>  (57) 
energy

$$$$
57:0
     RDKit          3D

 54 56  0  0  0  0  0  0  0  0999 V2000
   63.3680   32.7750   47.1590 C   0  0  0  0  0  0  0  0  0  0  0  0
   63.6120   33.0790   48.8950 S   0  0  0  0  0  0  0  0  0  0  0  0
   63.0210   34.4170   49.2430 O   0  0  0  0  0  0  0  0  0  0  0  0
   65.0860   33.0760   49.1910 O   0  0  0  0  0  0  0  0  0  0  0  0
   62.8220   31.8330   49.8100 N   0  0  0  0  0  0  0  0  0  0  0  0
   61.5640   31.2360   49.4380 C   0  0  0  0  0  0  0  0  0  0  0  0
   61.3590   29.8450   49.5140 C   0  0  0  0  0  0  0  0  0  0  0  0
   60.1370   29.2880   49.1320 C   0  0  0  0  0  0  0  0  0  0  0  0
   59.1040   30.1070   48.6740 C   0  0  0  0  0  0  0  0  0  0  0  0
   59.2790   31.4970   48.6000 C   0  0  0  0  0  0  0  0  0  0  0  0
   58.1500   32.3710   48.1060 C   0  0  0  0  0  0  0  0  0  0  0  0
   58.5400   33.0820   46.8240 C   0  0  0  0  0  0  0  0  0  0  0  0
   58.9370   34.4300   46.9190 C   0  0  0  0  0  0  0  0  0  0  0  0
   59.2460   35.1660   45.7750 C   0  0  0  0  0  0  0  0  0  0  0  0
   59.1620   34.5720   44.5180 C   0  0  0  0  0  0  0  0  0  0  0  0
   58.7790   33.2370   44.3990 C   0  0  0  0  0  0  0  0  0  0  0  0
   58.4620   32.4720   45.5400 C   0  0  0  0  0  0  0  0  0  0  0  0
   58.1190   31.0380   45.3740 C   0  0  0  0  0  0  0  0  0  0  0  0
   57.1480   30.6260   44.5470 C   0  0  0  0  0  0  0  0  0  0  0  0
   56.4240   29.3520   44.7600 C   0  0  0  0  0  0  0  0  0  0  0  0
   55.1680   29.3510   44.8520 O   0  0  0  0  0  0  0  0  0  0  0  0
   57.1140   28.1020   44.8590 N   0  0  0  0  0  0  0  0  0  0  0  0
   56.7890   26.8810   46.0480 S   0  0  0  0  0  0  0  0  0  0  0  0
   55.3030   26.6970   46.2030 O   0  0  0  0  0  0  0  0  0  0  0  0
   57.3820   27.2940   47.3670 O   0  0  0  0  0  0  0  0  0  0  0  0
   57.5020   25.3620   45.5110 C   0  0  0  0  0  0  0  0  0  0  0  0
   58.7400   24.9560   46.0300 C   0  0  0  0  0  0  0  0  0  0  0  0
   59.3080   23.7430   45.6260 C   0  0  0  0  0  0  0  0  0  0  0  0
   58.6410   22.9270   44.7080 C   0  0  0  0  0  0  0  0  0  0  0  0
   57.3980   23.3220   44.1920 C   0  0  0  0  0  0  0  0  0  0  0  0
   56.7090   22.4740   43.2520 C   0  0  0  0  0  0  0  0  0  0  0  0
   56.1560   21.7920   42.4950 N   0  0  0  0  0  0  0  0  0  0  0  0
   56.8300   24.5410   44.5920 C   0  0  0  0  0  0  0  0  0  0  0  0
   60.5170   32.0560   48.9750 C   0  0  0  0  0  0  0  0  0  0  0  0
   60.6960   33.4010   48.9100 F   0  0  0  0  0  0  0  0  0  0  0  0
   62.6843   31.9232   47.0285 H   0  0  0  0  0  0  0  0  0  0  0  0
   62.9340   33.6691   46.6876 H   0  0  0  0  0  0  0  0  0  0  0  0
   64.3348   32.5447   46.6876 H   0  0  0  0  0  0  0  0  0  0  0  0
   63.3060   31.5060   50.6730 H   0  0  0  0  0  0  0  0  0  0  0  0
   62.1671   29.1927   49.8768 H   0  0  0  0  0  0  0  0  0  0  0  0
   59.9880   28.1998   49.1923 H   0  0  0  0  0  0  0  0  0  0  0  0
   58.1464   29.6598   48.3691 H   0  0  0  0  0  0  0  0  0  0  0  0
   57.2657   31.7448   47.9164 H   0  0  0  0  0  0  0  0  0  0  0  0
   57.9270   33.1262   48.8740 H   0  0  0  0  0  0  0  0  0  0  0  0
   59.0042   34.9082   47.9073 H   0  0  0  0  0  0  0  0  0  0  0  0
   59.5565   36.2173   45.8658 H   0  0  0  0  0  0  0  0  0  0  0  0
   59.3984   35.1576   43.6173 H   0  0  0  0  0  0  0  0  0  0  0  0
   58.7234   32.7746   43.4024 H   0  0  0  0  0  0  0  0  0  0  0  0
   58.6808   30.2874   45.9493 H   0  0  0  0  0  0  0  0  0  0  0  0
   56.8808   31.2534   43.6838 H   0  0  0  0  0  0  0  0  0  0  0  0
   59.2658   25.5929   46.7566 H   0  0  0  0  0  0  0  0  0  0  0  0
   60.2816   23.4308   46.0317 H   0  0  0  0  0  0  0  0  0  0  0  0
   59.0909   21.9749   44.3901 H   0  0  0  0  0  0  0  0  0  0  0  0
   55.8571   24.8536   44.1850 H   0  0  0  0  0  0  0  0  0  0  0  0
  1  2  1  0
  2  3  2  0
  2  4  2  0
  2  5  1  0
  5  6  1  0
  6  7  2  0
  7  8  1  0
  8  9  2  0
  9 10  1  0
 10 11  1  0
 11 12  1  0
 12 13  2  0
 13 14  1  0
 14 15  2  0
 15 16  1  0
 16 17  2  0
 17 18  1  0
 18 19  2  3
 19 20  1  0
 20 21  2  0
 20 22  1  0
 22 23  1  0
 23 24  2  0
 23 25  2  0
 23 26  1  0
 26 27  2  0
 27 28  1  0
 28 29  2  0
 29 30  1  0
 30 31  1  0
 31 32  3  0
 30 33  2  0
 10 34  2  0
 34 35  1  0
 34  6  1  0
 17 12  1  0
 33 26  1  0
  1 36  1  0
  1 37  1  0
  1 38  1  0
  5 39  1  0
  7 40  1  0
  8 41  1  0
  9 42  1  0
 11 43  1  0
 11 44  1  0
 13 45  1  0
 14 46  1  0
 15 47  1  0
 16 48  1  0
 18 49  1  0
 19 50  1  0
 27 51  1  0
 28 52  1  0
 29 53  1  0
 33 54  1  0
M  CHG  1  22  -1
M  END
>  <UniqueID>  (58) 
56

>  <SMILES>  (58) 
CS(=O)(=O)Nc1cccc(Cc2ccccc2C=CC(=O)[N-]S(=O)(=O)c2cccc(C#N)c2)c1F

>  <Energy>  (58) 
63.10118286932134

>  <Genealogy>  (58) 
CS(=O)(=O)Nc1cccc(Cc2ccccc2C=CC(=O)[N-]S(=O)(=O)c2cccc(C#N)c2)c1F (protonated)
CS(=O)(=O)Nc1cccc(Cc2ccccc2C=CC(=O)[N-]S(=O)(=O)c2cccc(C#N)c2)c1F (3D coordinates assigned)
CS(=O)(=O)Nc1cccc(Cc2ccccc2C=CC(=O)[N-]S(=O)(=O)c2cccc(C#N)c2)c1F (optimized conformer: 63.10118286932134 kcal/mol)

>  <smiles>  (58) 
CS(=O)(=O)Nc1cccc(Cc2ccccc2C=CC(=O)NS(=O)(=O)c2cccc(C#N)c2)c1F

>  <score_type>  (58) 
oracle

>  <origin>  (58) 
adg

>  <m_score__min__energy>  (58) 
-12.23

>  <m_primary>  (58) 
energy

$$$$
58:0
     RDKit          3D

 47 49  0  0  0  0  0  0  0  0999 V2000
   57.2261   31.9941   51.9515 H   0  0  0  0  0  0  0  0  0  0  0  0
   56.1380   31.8670   52.0510 C   0  0  0  0  0  0  0  0  0  0  0  0
   55.4595   32.6779   51.7475 H   0  0  0  0  0  0  0  0  0  0  0  0
   55.6380   30.7220   52.5430 C   0  0  0  0  0  0  0  0  0  0  0  0
   54.2820   30.4200   52.7260 C   0  0  0  0  0  0  0  0  0  0  0  0
   53.2290   31.2190   52.4470 C   0  0  0  0  0  0  0  0  0  0  0  0
   52.9635   31.9822   53.1933 H   0  0  0  0  0  0  0  0  0  0  0  0
   52.4030   31.1530   51.2210 C   0  0  0  0  0  0  0  0  0  0  0  0
   52.4580   30.1870   50.2850 N   0  0  0  0  0  0  0  0  0  0  0  0
   51.4850   30.5340   49.4160 C   0  0  0  0  0  0  0  0  0  0  0  0
   51.2290   29.8630   48.3820 O   0  0  0  0  0  0  0  0  0  0  0  0
   50.8040   31.6530   49.7440 N   0  0  0  0  0  0  0  0  0  0  0  0
   51.3950   32.0270   50.8900 C   0  0  0  0  0  0  0  0  0  0  0  0
   51.0160   33.1450   51.6230 O   0  0  0  0  0  0  0  0  0  0  0  0
   54.2400   29.1310   53.2390 C   0  0  0  0  0  0  0  0  0  0  0  0
   53.3378   28.5574   53.4978 H   0  0  0  0  0  0  0  0  0  0  0  0
   55.5480   28.7070   53.3620 C   0  0  0  0  0  0  0  0  0  0  0  0
   55.9500   27.3560   53.8730 C   0  0  0  0  0  0  0  0  0  0  0  0
   55.9475   27.3644   54.9730 H   0  0  0  0  0  0  0  0  0  0  0  0
   55.2379   26.6001   53.5105 H   0  0  0  0  0  0  0  0  0  0  0  0
   56.9596   27.1124   53.5105 H   0  0  0  0  0  0  0  0  0  0  0  0
   56.4030   29.6730   52.9500 N   0  0  0  0  0  0  0  0  0  0  0  0
   57.8720   29.6230   53.0450 C   0  0  0  0  0  0  0  0  0  0  0  0
   58.2390   30.5884   53.4237 H   0  0  0  0  0  0  0  0  0  0  0  0
   58.1466   28.8053   53.7276 H   0  0  0  0  0  0  0  0  0  0  0  0
   58.5150   29.3460   51.6760 C   0  0  0  0  0  0  0  0  0  0  0  0
   59.2925   28.5773   51.7966 H   0  0  0  0  0  0  0  0  0  0  0  0
   57.7259   29.0050   50.9897 H   0  0  0  0  0  0  0  0  0  0  0  0
   59.1410   30.5860   51.0920 C   0  0  0  0  0  0  0  0  0  0  0  0
   59.6520   30.5650   49.7850 C   0  0  0  0  0  0  0  0  0  0  0  0
   59.6622   29.6222   49.2184 H   0  0  0  0  0  0  0  0  0  0  0  0
   60.1510   31.7390   49.1940 C   0  0  0  0  0  0  0  0  0  0  0  0
   60.6290   31.7700   47.8760 O   0  0  0  0  0  0  0  0  0  0  0  0
   61.8310   32.4190   47.4710 C   0  0  0  0  0  0  0  0  0  0  0  0
   62.3997   32.7261   48.3611 H   0  0  0  0  0  0  0  0  0  0  0  0
   62.4373   31.7257   46.8696 H   0  0  0  0  0  0  0  0  0  0  0  0
   61.5839   33.3063   46.8696 H   0  0  0  0  0  0  0  0  0  0  0  0
   60.1650   32.9250   49.9370 C   0  0  0  0  0  0  0  0  0  0  0  0
   60.5742   33.8415   49.4870 H   0  0  0  0  0  0  0  0  0  0  0  0
   59.6660   32.9620   51.2440 C   0  0  0  0  0  0  0  0  0  0  0  0
   59.6960   34.1840   51.9320 O   0  0  0  0  0  0  0  0  0  0  0  0
   58.7370   34.5830   52.9060 C   0  0  0  0  0  0  0  0  0  0  0  0
   59.1450   34.4132   53.9133 H   0  0  0  0  0  0  0  0  0  0  0  0
   58.5076   35.6512   52.7786 H   0  0  0  0  0  0  0  0  0  0  0  0
   57.8176   33.9928   52.7786 H   0  0  0  0  0  0  0  0  0  0  0  0
   59.1460   31.7860   51.8180 C   0  0  0  0  0  0  0  0  0  0  0  0
   58.7417   31.8086   52.8408 H   0  0  0  0  0  0  0  0  0  0  0  0
  1  2  1  0
  2  3  1  0
  2  4  2  0
  4  5  1  0
  5  6  2  0
  6  7  1  0
  6  8  1  0
  8  9  1  0
  9 10  1  0
 10 11  2  0
 10 12  1  0
 12 13  1  0
 13 14  1  0
  5 15  1  0
 15 16  1  0
 15 17  2  0
 17 18  1  0
 18 19  1  0
 18 20  1  0
 18 21  1  0
 17 22  1  0
 22 23  1  0
 23 24  1  0
 23 25  1  0
 23 26  1  0
 26 27  1  0
 26 28  1  0
 26 29  1  0
 29 30  2  0
 30 31  1  0
 30 32  1  0
 32 33  1  0
 33 34  1  0
 34 35  1  0
 34 36  1  0
 34 37  1  0
 32 38  2  0
 38 39  1  0
 38 40  1  0
 40 41  1  0
 41 42  1  0
 42 43  1  0
 42 44  1  0
 42 45  1  0
 40 46  2  0
 46 47  1  0
 22  4  1  0
 46 29  1  0
 13  8  2  0
M  CHG  3   9  -1  12  -1  14  -1
M  END
>  <UniqueID>  (59) 
57

>  <SMILES>  (59) 
C=c1/c(=C/c2[n-]c(=O)[n-]c2[O-])cc(C)n1CCc1cc(OC)cc(OC)c1

>  <Energy>  (59) 
103.68698300823539

>  <Genealogy>  (59) 
C=c1c(=Cc2[n-]c(=O)[n-]c2[O-])cc(C)n1CCc1cc(OC)cc(OC)c1 (protonated)
C=c1/c(=C/c2[n-]c(=O)[n-]c2[O-])cc(C)n1CCc1cc(OC)cc(OC)c1 (cis-trans isomerization)
C=c1/c(=C/c2[n-]c(=O)[n-]c2[O-])cc(C)n1CCc1cc(OC)cc(OC)c1 (3D coordinates assigned)
C=c1/c(=C/c2[n-]c(=O)[n-]c2[O-])cc(C)n1CCc1cc(OC)cc(OC)c1 (optimized conformer: 103.68698300823539 kcal/mol)

>  <smiles>  (59) 
C=c1c(=Cc2[nH]c(=O)[nH]c2O)cc(C)n1CCc1cc(OC)cc(OC)c1

>  <score_type>  (59) 
oracle

>  <origin>  (59) 
adg

>  <m_score__min__energy>  (59) 
-15.369999999999999

>  <m_primary>  (59) 
energy

$$$$
59:0
     RDKit          3D

 37 39  0  0  0  0  0  0  0  0999 V2000
   57.4770   23.1490   44.9380 C   0  0  0  0  0  0  0  0  0  0  0  0
   56.7370   24.4130   45.2790 C   0  0  0  0  0  0  0  0  0  0  0  0
   57.3960   25.6480   45.2620 C   0  0  0  0  0  0  0  0  0  0  0  0
   56.6960   26.8160   45.6040 C   0  0  0  0  0  0  0  0  0  0  0  0
   57.3340   28.1130   45.5900 N   0  0  0  0  0  0  0  0  0  0  0  0
   57.3400   28.9050   44.3520 C   0  0  0  0  0  0  0  0  0  0  0  0
   57.3020   30.4030   44.6700 C   0  0  0  0  0  0  0  0  0  0  0  0
   58.3300   30.7780   45.6500 N   0  0  0  0  0  0  0  0  0  0  0  0
   58.6620   32.1730   45.8090 C   0  0  0  0  0  0  0  0  0  0  0  0
   58.1980   33.1460   44.9050 C   0  0  0  0  0  0  0  0  0  0  0  0
   58.5340   34.4870   45.1030 C   0  0  0  0  0  0  0  0  0  0  0  0
   59.3200   34.8560   46.1950 C   0  0  0  0  0  0  0  0  0  0  0  0
   59.6550   36.1930   46.3910 O   0  0  0  0  0  0  0  0  0  0  0  0
   59.7570   33.8670   47.0830 C   0  0  0  0  0  0  0  0  0  0  0  0
   59.4190   32.5670   46.8730 N   0  0  0  0  0  0  0  0  0  0  0  0
   59.0400   29.7360   46.4070 C   0  0  0  0  0  0  0  0  0  0  0  0
   58.0960   28.5800   46.7600 C   0  0  0  0  0  0  0  0  0  0  0  0
   55.3870   26.7090   45.9630 N   0  0  0  0  0  0  0  0  0  0  0  0
   54.7570   25.5340   45.9930 N   0  0  0  0  0  0  0  0  0  0  0  0
   55.3900   24.3780   45.6650 C   0  0  0  0  0  0  0  0  0  0  0  0
   54.7580   23.2890   45.7150 O   0  0  0  0  0  0  0  0  0  0  0  0
   57.7762   22.6379   45.8649 H   0  0  0  0  0  0  0  0  0  0  0  0
   56.8229   22.4885   44.3498 H   0  0  0  0  0  0  0  0  0  0  0  0
   58.3731   23.3961   44.3498 H   0  0  0  0  0  0  0  0  0  0  0  0
   58.4583   25.7031   44.9817 H   0  0  0  0  0  0  0  0  0  0  0  0
   58.2539   28.6793   43.7829 H   0  0  0  0  0  0  0  0  0  0  0  0
   56.4496   28.6453   43.7606 H   0  0  0  0  0  0  0  0  0  0  0  0
   57.4714   30.9686   43.7419 H   0  0  0  0  0  0  0  0  0  0  0  0
   56.3171   30.6366   45.1006 H   0  0  0  0  0  0  0  0  0  0  0  0
   57.5745   32.8524   44.0476 H   0  0  0  0  0  0  0  0  0  0  0  0
   58.1788   35.2527   44.3976 H   0  0  0  0  0  0  0  0  0  0  0  0
   59.2540   36.7330   47.1490 H   0  0  0  0  0  0  0  0  0  0  0  0
   60.3742   34.1413   47.9512 H   0  0  0  0  0  0  0  0  0  0  0  0
   59.8704   29.3501   45.7975 H   0  0  0  0  0  0  0  0  0  0  0  0
   59.4219   30.1765   47.3398 H   0  0  0  0  0  0  0  0  0  0  0  0
   58.6914   27.7428   47.1533 H   0  0  0  0  0  0  0  0  0  0  0  0
   57.3781   28.9445   47.5095 H   0  0  0  0  0  0  0  0  0  0  0  0
  1  2  1  0
  2  3  2  0
  3  4  1  0
  4  5  1  0
  5  6  1  0
  6  7  1  0
  7  8  1  0
  8  9  1  0
  9 10  2  0
 10 11  1  0
 11 12  2  0
 12 13  1  0
 12 14  1  0
 14 15  2  0
  8 16  1  0
 16 17  1  0
  4 18  2  0
 18 19  1  0
 19 20  1  0
 20 21  2  0
 20  2  1  0
 17  5  1  0
 15  9  1  0
  1 22  1  0
  1 23  1  0
  1 24  1  0
  3 25  1  0
  6 26  1  0
  6 27  1  0
  7 28  1  0
  7 29  1  0
 10 30  1  0
 11 31  1  0
 13 32  1  0
 14 33  1  0
 16 34  1  0
 16 35  1  0
 17 36  1  0
 17 37  1  0
M  CHG  1  19  -1
M  END
>  <UniqueID>  (60) 
58

>  <SMILES>  (60) 
Cc1cc(N2CCN(c3ccc(O)cn3)CC2)n[n-]c1=O

>  <Energy>  (60) 
44.536541862399666

>  <Genealogy>  (60) 
Cc1cc(N2CCN(c3ccc(O)cn3)CC2)n[n-]c1=O (protonated)
Cc1cc(N2CCN(c3ccc(O)cn3)CC2)n[n-]c1=O (3D coordinates assigned)
Cc1cc(N2CCN(c3ccc(O)cn3)CC2)n[n-]c1=O (nonaromatic ring conformer: 44.536541862399666 kcal/mol)

>  <smiles>  (60) 
Cc1cc(N2CCN(c3ccc(O)cn3)CC2)n[nH]c1=O

>  <score_type>  (60) 
oracle

>  <origin>  (60) 
adg

>  <m_score__min__energy>  (60) 
-9.1799999999999997

>  <m_primary>  (60) 
energy

$$$$
60:0
     RDKit          3D

 29 30  0  0  0  0  0  0  0  0999 V2000
   57.8420   27.6400   43.6230 C   0  0  0  0  0  0  0  0  0  0  0  0
   57.7430   29.0870   43.7640 N   0  0  0  0  0  0  0  0  0  0  0  0
   56.6160   29.7090   44.3970 C   0  0  0  0  0  0  0  0  0  0  0  0
   55.6920   29.0030   44.8850 O   0  0  0  0  0  0  0  0  0  0  0  0
   56.5060   31.2020   44.4470 C   0  0  0  0  0  0  0  0  0  0  0  0
   57.8870   31.9780   43.5380 S   0  0  0  0  0  0  0  0  0  0  0  0
   58.4070   33.0030   44.9110 C   0  0  0  0  0  0  0  0  0  0  0  0
   59.6100   32.8930   45.5080 N   0  0  0  0  0  0  0  0  0  0  0  0
   59.7510   33.7600   46.5490 C   0  0  0  0  0  0  0  0  0  0  0  0
   60.9900   33.7860   47.3710 C   0  0  0  0  0  0  0  0  0  0  0  0
   62.2240   33.4390   46.7850 C   0  0  0  0  0  0  0  0  0  0  0  0
   63.3990   33.4520   47.5420 C   0  0  0  0  0  0  0  0  0  0  0  0
   63.3610   33.8140   48.8900 C   0  0  0  0  0  0  0  0  0  0  0  0
   64.5020   33.8250   49.6220 F   0  0  0  0  0  0  0  0  0  0  0  0
   62.1470   34.1670   49.4810 C   0  0  0  0  0  0  0  0  0  0  0  0
   60.9680   34.1560   48.7300 C   0  0  0  0  0  0  0  0  0  0  0  0
   58.6340   34.5730   46.7740 C   0  0  0  0  0  0  0  0  0  0  0  0
   57.4590   34.1810   45.6370 S   0  0  0  0  0  0  0  0  0  0  0  0
   57.8738   27.1758   44.6197 H   0  0  0  0  0  0  0  0  0  0  0  0
   56.9674   27.2647   43.0714 H   0  0  0  0  0  0  0  0  0  0  0  0
   58.7595   27.3873   43.0714 H   0  0  0  0  0  0  0  0  0  0  0  0
   58.5030   29.6840   43.3650 H   0  0  0  0  0  0  0  0  0  0  0  0
   55.5539   31.5100   43.9902 H   0  0  0  0  0  0  0  0  0  0  0  0
   56.5459   31.5259   45.4975 H   0  0  0  0  0  0  0  0  0  0  0  0
   62.2627   33.1555   45.7229 H   0  0  0  0  0  0  0  0  0  0  0  0
   64.3559   33.1764   47.0746 H   0  0  0  0  0  0  0  0  0  0  0  0
   62.1177   34.4551   50.5422 H   0  0  0  0  0  0  0  0  0  0  0  0
   60.0162   34.4383   49.2037 H   0  0  0  0  0  0  0  0  0  0  0  0
   58.5409   35.3372   47.5597 H   0  0  0  0  0  0  0  0  0  0  0  0
  1  2  1  0
  2  3  1  0
  3  4  2  0
  3  5  1  0
  5  6  1  0
  6  7  1  0
  7  8  2  0
  8  9  1  0
  9 10  1  0
 10 11  2  0
 11 12  1  0
 12 13  2  0
 13 14  1  0
 13 15  1  0
 15 16  2  0
  9 17  2  0
 17 18  1  0
 18  7  1  0
 16 10  1  0
  1 19  1  0
  1 20  1  0
  1 21  1  0
  2 22  1  0
  5 23  1  0
  5 24  1  0
 11 25  1  0
 12 26  1  0
 15 27  1  0
 16 28  1  0
 17 29  1  0
M  END
>  <UniqueID>  (61) 
59

>  <SMILES>  (61) 
CNC(=O)CSc1nc(-c2ccc(F)cc2)cs1

>  <Energy>  (61) 
51.70985715536424

>  <Genealogy>  (61) 
CNC(=O)CSc1nc(-c2ccc(F)cc2)cs1 (3D coordinates assigned)
CNC(=O)CSc1nc(-c2ccc(F)cc2)cs1 (optimized conformer: 51.70985715536424 kcal/mol)

>  <smiles>  (61) 
CNC(=O)CSc1nc(-c2ccc(F)cc2)cs1

>  <score_type>  (61) 
oracle

>  <origin>  (61) 
adg

>  <m_score__min__energy>  (61) 
-6.9100000000000001

>  <m_primary>  (61) 
energy

$$$$
61:0
     RDKit          3D

 43 45  0  0  0  0  0  0  0  0999 V2000
   63.4060   31.5090   49.8870 C   0  0  0  0  0  0  0  0  0  0  0  0
   62.9000   32.1150   48.6170 C   0  0  0  0  0  0  0  0  0  0  0  0
   63.5440   33.0440   48.0020 N   0  0  0  0  0  0  0  0  0  0  0  0
   62.8290   33.4260   46.7920 C   0  0  0  0  0  0  0  0  0  0  0  0
   61.5920   32.5170   46.7520 C   0  0  0  0  0  0  0  0  0  0  0  0
   61.7030   31.7150   47.9630 N   0  0  0  0  0  0  0  0  0  0  0  0
   60.9840   30.4890   48.1890 C   0  0  0  0  0  0  0  0  0  0  0  0
   61.0520   29.9250   49.3140 O   0  0  0  0  0  0  0  0  0  0  0  0
   60.1870   29.8630   47.1120 C   0  0  0  0  0  0  0  0  0  0  0  0
   60.3930   28.5140   46.7740 C   0  0  0  0  0  0  0  0  0  0  0  0
   59.6340   27.9170   45.7640 C   0  0  0  0  0  0  0  0  0  0  0  0
   58.6590   28.6540   45.0890 C   0  0  0  0  0  0  0  0  0  0  0  0
   58.4350   29.9950   45.4240 C   0  0  0  0  0  0  0  0  0  0  0  0
   57.1900   30.9190   44.5930 S   0  0  0  0  0  0  0  0  0  0  0  0
   57.6740   31.2720   43.2150 O   0  0  0  0  0  0  0  0  0  0  0  0
   55.9360   30.0940   44.4980 O   0  0  0  0  0  0  0  0  0  0  0  0
   56.8560   32.3450   45.4770 O   0  0  0  0  0  0  0  0  0  0  0  0
   57.7940   33.3450   45.7690 C   0  0  0  0  0  0  0  0  0  0  0  0
   58.3060   34.2170   44.7890 C   0  0  0  0  0  0  0  0  0  0  0  0
   59.2480   35.1900   45.1380 C   0  0  0  0  0  0  0  0  0  0  0  0
   59.6800   35.3080   46.4610 C   0  0  0  0  0  0  0  0  0  0  0  0
   59.1650   34.4590   47.4490 C   0  0  0  0  0  0  0  0  0  0  0  0
   59.6570   34.5580   48.8630 C   0  0  0  0  0  0  0  0  0  0  0  0
   58.2330   33.4700   47.0930 C   0  0  0  0  0  0  0  0  0  0  0  0
   59.1910   30.5920   46.4420 C   0  0  0  0  0  0  0  0  0  0  0  0
   62.9655   32.0365   50.7459 H   0  0  0  0  0  0  0  0  0  0  0  0
   63.1229   30.4467   49.9246 H   0  0  0  0  0  0  0  0  0  0  0  0
   64.5017   31.5980   49.9246 H   0  0  0  0  0  0  0  0  0  0  0  0
   62.5294   34.4834   46.8384 H   0  0  0  0  0  0  0  0  0  0  0  0
   63.4522   33.3123   45.8927 H   0  0  0  0  0  0  0  0  0  0  0  0
   60.6680   33.1138   46.7619 H   0  0  0  0  0  0  0  0  0  0  0  0
   61.5480   31.9027   45.8406 H   0  0  0  0  0  0  0  0  0  0  0  0
   61.1548   27.9260   47.3068 H   0  0  0  0  0  0  0  0  0  0  0  0
   59.8052   26.8630   45.4999 H   0  0  0  0  0  0  0  0  0  0  0  0
   58.0659   28.1804   44.2928 H   0  0  0  0  0  0  0  0  0  0  0  0
   57.9643   34.1327   43.7468 H   0  0  0  0  0  0  0  0  0  0  0  0
   59.6501   35.8647   44.3679 H   0  0  0  0  0  0  0  0  0  0  0  0
   60.4270   36.0701   46.7279 H   0  0  0  0  0  0  0  0  0  0  0  0
   58.8191   34.3894   49.5554 H   0  0  0  0  0  0  0  0  0  0  0  0
   60.4335   33.7981   49.0351 H   0  0  0  0  0  0  0  0  0  0  0  0
   60.0791   35.5591   49.0351 H   0  0  0  0  0  0  0  0  0  0  0  0
   57.8440   32.7866   47.8622 H   0  0  0  0  0  0  0  0  0  0  0  0
   59.0027   31.6399   46.7184 H   0  0  0  0  0  0  0  0  0  0  0  0
  1  2  1  0
  2  3  2  0
  3  4  1  0
  4  5  1  0
  5  6  1  0
  6  7  1  0
  7  8  2  0
  7  9  1  0
  9 10  2  0
 10 11  1  0
 11 12  2  0
 12 13  1  0
 13 14  1  0
 14 15  2  0
 14 16  2  0
 14 17  1  0
 17 18  1  0
 18 19  2  0
 19 20  1  0
 20 21  2  0
 21 22  1  0
 22 23  1  0
 22 24  2  0
 13 25  2  0
  6  2  1  0
 25  9  1  0
 24 18  1  0
  1 26  1  0
  1 27  1  0
  1 28  1  0
  4 29  1  0
  4 30  1  0
  5 31  1  0
  5 32  1  0
 10 33  1  0
 11 34  1  0
 12 35  1  0
 19 36  1  0
 20 37  1  0
 21 38  1  0
 23 39  1  0
 23 40  1  0
 23 41  1  0
 24 42  1  0
 25 43  1  0
M  END
>  <UniqueID>  (62) 
60

>  <SMILES>  (62) 
CC1=NCCN1C(=O)c1cccc(S(=O)(=O)Oc2cccc(C)c2)c1

>  <Energy>  (62) 
60.57857148703754

>  <Genealogy>  (62) 
CC1=NCCN1C(=O)c1cccc(S(=O)(=O)Oc2cccc(C)c2)c1 (3D coordinates assigned)
CC1=NCCN1C(=O)c1cccc(S(=O)(=O)Oc2cccc(C)c2)c1 (nonaromatic ring conformer: 60.57857148703754 kcal/mol)

>  <smiles>  (62) 
CC1=NCCN1C(=O)c1cccc(S(=O)(=O)Oc2cccc(C)c2)c1

>  <score_type>  (62) 
oracle

>  <origin>  (62) 
adg

>  <m_score__min__energy>  (62) 
-9.3200000000000003

>  <m_primary>  (62) 
energy

$$$$
62:0
     RDKit          3D

 69 72  0  0  0  0  0  0  0  0999 V2000
   57.7290   31.9800   51.2930 C   0  0  0  0  0  0  0  0  0  0  0  0
   58.6500   31.9010   50.1530 N   0  0  0  0  0  0  0  0  0  0  0  0
   59.8540   31.1050   50.4660 C   0  0  1  0  0  0  0  0  0  0  0  0
   59.9790   30.9300   52.0000 C   0  0  0  0  0  0  0  0  0  0  0  0
   60.8320   29.7110   52.4110 C   0  0  0  0  0  0  0  0  0  0  0  0
   61.7520   29.3100   51.3300 N   0  0  1  0  0  0  0  0  0  0  0  0
   62.6630   28.2840   51.8020 C   0  0  0  0  0  0  0  0  0  0  0  0
   62.3260   27.1060   51.7900 O   0  0  0  0  0  0  0  0  0  0  0  0
   64.0200   28.6780   52.3340 C   0  0  0  0  0  0  0  0  0  0  0  0
   64.5450   29.8670   51.6600 N   0  0  0  0  0  0  0  0  0  0  0  0
   63.7920   30.8970   51.3070 N   0  0  0  0  0  0  0  0  0  0  0  0
   64.5850   31.7930   50.6880 C   0  0  0  0  0  0  0  0  0  0  0  0
   64.1470   33.0920   50.1350 C   0  0  0  0  0  0  0  0  0  0  0  0
   64.2170   34.1050   50.8870 O   0  0  0  0  0  0  0  0  0  0  0  0
   63.5110   33.2250   48.8420 N   0  0  0  0  0  0  0  0  0  0  0  0
   63.7620   32.3240   47.7090 C   0  0  0  0  0  0  0  0  0  0  0  0
   62.5210   31.4510   47.4450 C   0  0  0  0  0  0  0  0  0  0  0  0
   61.1980   32.1870   47.7970 C   0  0  0  0  0  0  0  0  0  0  0  0
   60.0310   31.7020   46.9570 C   0  0  0  0  0  0  0  0  0  0  0  0
   59.9860   30.3800   46.4740 C   0  0  0  0  0  0  0  0  0  0  0  0
   58.9230   29.9550   45.6700 C   0  0  0  0  0  0  0  0  0  0  0  0
   57.8940   30.8440   45.3380 C   0  0  0  0  0  0  0  0  0  0  0  0
   56.8080   30.4100   44.5000 C   0  0  0  0  0  0  0  0  0  0  0  0
   55.9350   30.0590   43.8270 N   0  0  0  0  0  0  0  0  0  0  0  0
   57.9290   32.1590   45.8160 C   0  0  0  0  0  0  0  0  0  0  0  0
   58.9890   32.5860   46.6200 C   0  0  0  0  0  0  0  0  0  0  0  0
   61.3550   33.7190   47.7010 C   0  0  0  0  0  0  0  0  0  0  0  0
   62.4230   34.2080   48.6980 C   0  0  0  0  0  0  0  0  0  0  0  0
   65.8860   31.3200   50.6390 C   0  0  0  0  0  0  0  0  0  0  0  0
   65.8170   30.0950   51.2800 C   0  0  0  0  0  0  0  0  0  0  0  0
   66.8040   29.2900   51.5570 N   0  0  0  0  0  0  0  0  0  0  0  0
   67.0830   28.0110   50.9670 C   0  0  0  0  0  0  0  0  0  0  0  0
   68.2440   27.7870   50.0470 C   0  0  0  0  0  0  0  0  0  0  0  0
   66.2920   27.0560   51.1890 O   0  0  0  0  0  0  0  0  0  0  0  0
   61.0100   28.8360   50.1370 C   0  0  0  0  0  0  0  0  0  0  0  0
   59.7860   29.7200   49.7930 C   0  0  0  0  0  0  0  0  0  0  0  0
   58.3015   31.9309   52.2310 H   0  0  0  0  0  0  0  0  0  0  0  0
   57.1744   32.9290   51.2512 H   0  0  0  0  0  0  0  0  0  0  0  0
   57.0208   31.1393   51.2512 H   0  0  0  0  0  0  0  0  0  0  0  0
   58.1230   31.4190   49.3860 H   0  0  0  0  0  0  0  0  0  0  0  0
   60.7344   31.6393   50.0796 H   0  0  0  0  0  0  0  0  0  0  0  0
   58.9699   30.8069   52.4202 H   0  0  0  0  0  0  0  0  0  0  0  0
   60.4851   31.8260   52.3886 H   0  0  0  0  0  0  0  0  0  0  0  0
   60.1640   28.8686   52.6436 H   0  0  0  0  0  0  0  0  0  0  0  0
   61.4310   29.9880   53.2910 H   0  0  0  0  0  0  0  0  0  0  0  0
   62.3210   30.1480   51.0570 H   0  0  0  0  0  0  0  0  0  0  0  0
   63.9330   28.8883   53.4102 H   0  0  0  0  0  0  0  0  0  0  0  0
   64.7145   27.8455   52.1482 H   0  0  0  0  0  0  0  0  0  0  0  0
   63.9854   32.9203   46.8120 H   0  0  0  0  0  0  0  0  0  0  0  0
   64.6167   31.6738   47.9473 H   0  0  0  0  0  0  0  0  0  0  0  0
   62.5010   31.1770   46.3799 H   0  0  0  0  0  0  0  0  0  0  0  0
   62.5925   30.5606   48.0869 H   0  0  0  0  0  0  0  0  0  0  0  0
   60.9694   31.9387   48.8440 H   0  0  0  0  0  0  0  0  0  0  0  0
   60.7921   29.6768   46.7306 H   0  0  0  0  0  0  0  0  0  0  0  0
   58.8957   28.9202   45.2980 H   0  0  0  0  0  0  0  0  0  0  0  0
   57.1199   32.8582   45.5581 H   0  0  0  0  0  0  0  0  0  0  0  0
   59.0092   33.6209   46.9924 H   0  0  0  0  0  0  0  0  0  0  0  0
   61.6605   33.9896   46.6795 H   0  0  0  0  0  0  0  0  0  0  0  0
   60.3931   34.1943   47.9437 H   0  0  0  0  0  0  0  0  0  0  0  0
   62.8437   35.1575   48.3354 H   0  0  0  0  0  0  0  0  0  0  0  0
   61.9454   34.3435   49.6796 H   0  0  0  0  0  0  0  0  0  0  0  0
   66.7679   31.8046   50.1946 H   0  0  0  0  0  0  0  0  0  0  0  0
   69.1535   27.6115   50.6404 H   0  0  0  0  0  0  0  0  0  0  0  0
   68.0453   26.9106   49.4126 H   0  0  0  0  0  0  0  0  0  0  0  0
   68.3856   28.6744   49.4126 H   0  0  0  0  0  0  0  0  0  0  0  0
   60.6593   27.8109   50.3271 H   0  0  0  0  0  0  0  0  0  0  0  0
   61.6997   28.8829   49.2814 H   0  0  0  0  0  0  0  0  0  0  0  0
   58.8736   29.2072   50.1314 H   0  0  0  0  0  0  0  0  0  0  0  0
   59.7803   29.8760   48.7041 H   0  0  0  0  0  0  0  0  0  0  0  0
  1  2  1  0
  2  3  1  0
  3  4  1  0
  4  5  1  0
  5  6  1  0
  6  7  1  0
  7  8  2  0
  7  9  1  0
  9 10  1  0
 10 11  1  0
 11 12  1  0
 12 13  1  0
 13 14  2  0
 13 15  1  0
 15 16  1  0
 16 17  1  0
 17 18  1  0
 18 19  1  0
 19 20  2  0
 20 21  1  0
 21 22  2  0
 22 23  1  0
 23 24  3  0
 22 25  1  0
 25 26  2  0
 18 27  1  0
 27 28  1  0
 12 29  2  0
 29 30  1  0
 30 31  2  3
 31 32  1  0
 32 33  1  0
 32 34  2  0
  6 35  1  0
 35 36  1  0
 36  3  1  0
 30 10  1  0
 28 15  1  0
 26 19  1  0
  1 37  1  0
  1 38  1  0
  1 39  1  0
  2 40  1  0
  3 41  1  6
  4 42  1  0
  4 43  1  0
  5 44  1  0
  5 45  1  0
  6 46  1  6
  9 47  1  0
  9 48  1  0
 16 49  1  0
 16 50  1  0
 17 51  1  0
 17 52  1  0
 18 53  1  0
 20 54  1  0
 21 55  1  0
 25 56  1  0
 26 57  1  0
 27 58  1  0
 27 59  1  0
 28 60  1  0
 28 61  1  0
 29 62  1  0
 33 63  1  0
 33 64  1  0
 33 65  1  0
 35 66  1  0
 35 67  1  0
 36 68  1  0
 36 69  1  0
M  CHG  2   6   1  11  -1
M  END
>  <UniqueID>  (63) 
61

>  <SMILES>  (63) 
CNC1CC[NH+](C(=O)Cn2[n-]c(C(=O)N3CCC(c4ccc(C#N)cc4)CC3)cc2=NC(C)=O)CC1

>  <Energy>  (63) 
123.85128001369726

>  <Genealogy>  (63) 
CNC1CC[NH+](C(=O)Cn2[n-]c(C(=O)N3CCC(c4ccc(C#N)cc4)CC3)cc2=NC(C)=O)CC1 (protonated)
CNC1CC[NH+](C(=O)Cn2[n-]c(C(=O)N3CCC(c4ccc(C#N)cc4)CC3)cc2=NC(C)=O)CC1 (3D coordinates assigned)
CNC1CC[NH+](C(=O)Cn2[n-]c(C(=O)N3CCC(c4ccc(C#N)cc4)CC3)cc2=NC(C)=O)CC1 (nonaromatic ring conformer: 123.85128001369726 kcal/mol)

>  <smiles>  (63) 
CNC1CCN(C(=O)Cn2[nH]c(C(=O)N3CCC(c4ccc(C#N)cc4)CC3)cc2=NC(C)=O)CC1

>  <score_type>  (63) 
oracle

>  <origin>  (63) 
adg

>  <m_score__min__energy>  (63) 
-9.0999999999999996

>  <m_primary>  (63) 
energy

$$$$
63:0
     RDKit          3D

 32 34  0  0  0  0  0  0  0  0999 V2000
   56.2640   23.1920   42.6150 N   0  0  0  0  0  0  0  0  0  0  0  0
   57.0390   23.4990   44.1290 S   0  0  0  0  0  0  0  0  0  0  0  0
   58.3440   22.7540   44.1900 O   0  0  0  0  0  0  0  0  0  0  0  0
   56.1580   23.0200   45.2490 O   0  0  0  0  0  0  0  0  0  0  0  0
   57.3320   25.2260   44.2970 C   0  0  0  0  0  0  0  0  0  0  0  0
   57.7810   25.9740   43.2020 C   0  0  0  0  0  0  0  0  0  0  0  0
   58.0010   27.3480   43.3300 C   0  0  0  0  0  0  0  0  0  0  0  0
   57.7790   27.9950   44.5560 C   0  0  0  0  0  0  0  0  0  0  0  0
   57.9980   29.4130   44.6750 N   0  0  0  0  0  0  0  0  0  0  0  0
   58.9870   30.0620   45.4900 C   0  0  0  0  0  0  0  0  0  0  0  0
   59.9580   29.4510   46.0100 O   0  0  0  0  0  0  0  0  0  0  0  0
   58.7850   31.5110   45.6130 C   0  0  0  0  0  0  0  0  0  0  0  0
   59.5630   32.4170   46.3380 C   0  0  0  0  0  0  0  0  0  0  0  0
   59.2050   33.7740   46.3290 C   0  0  0  0  0  0  0  0  0  0  0  0
   58.0820   34.2080   45.5980 C   0  0  0  0  0  0  0  0  0  0  0  0
   57.3110   33.2880   44.8710 C   0  0  0  0  0  0  0  0  0  0  0  0
   57.6830   31.9450   44.8950 C   0  0  0  0  0  0  0  0  0  0  0  0
   56.9110   30.6190   44.0770 S   0  0  0  0  0  0  0  0  0  0  0  0
   55.5070   30.3880   44.5620 O   0  0  0  0  0  0  0  0  0  0  0  0
   56.9880   30.7530   42.5840 O   0  0  0  0  0  0  0  0  0  0  0  0
   57.3110   27.2420   45.6480 C   0  0  0  0  0  0  0  0  0  0  0  0
   57.0900   25.8680   45.5190 C   0  0  0  0  0  0  0  0  0  0  0  0
   57.0180   22.9710   41.9260 H   0  0  0  0  0  0  0  0  0  0  0  0
   55.8280   24.0890   42.3090 H   0  0  0  0  0  0  0  0  0  0  0  0
   57.9613   25.4780   42.2369 H   0  0  0  0  0  0  0  0  0  0  0  0
   58.3510   27.9275   42.4630 H   0  0  0  0  0  0  0  0  0  0  0  0
   60.4402   32.0730   46.9056 H   0  0  0  0  0  0  0  0  0  0  0  0
   59.8042   34.5020   46.8955 H   0  0  0  0  0  0  0  0  0  0  0  0
   57.8080   35.2733   45.5970 H   0  0  0  0  0  0  0  0  0  0  0  0
   56.4338   33.6190   44.2958 H   0  0  0  0  0  0  0  0  0  0  0  0
   57.1175   27.7381   46.6105 H   0  0  0  0  0  0  0  0  0  0  0  0
   56.7248   25.2885   46.3797 H   0  0  0  0  0  0  0  0  0  0  0  0
  1  2  1  0
  2  3  2  0
  2  4  2  0
  2  5  1  0
  5  6  2  0
  6  7  1  0
  7  8  2  0
  8  9  1  0
  9 10  1  0
 10 11  2  0
 10 12  1  0
 12 13  2  0
 13 14  1  0
 14 15  2  0
 15 16  1  0
 16 17  2  0
 17 18  1  0
 18 19  2  0
 18 20  2  0
  8 21  1  0
 21 22  2  0
 22  5  1  0
 18  9  1  0
 17 12  1  0
  1 23  1  0
  1 24  1  0
  6 25  1  0
  7 26  1  0
 13 27  1  0
 14 28  1  0
 15 29  1  0
 16 30  1  0
 21 31  1  0
 22 32  1  0
M  END
>  <UniqueID>  (64) 
62

>  <SMILES>  (64) 
NS(=O)(=O)c1ccc(N2C(=O)c3ccccc3S2(=O)=O)cc1

>  <Energy>  (64) 
60.514581286472115

>  <Genealogy>  (64) 
NS(=O)(=O)c1ccc(N2C(=O)c3ccccc3S2(=O)=O)cc1 (3D coordinates assigned)
NS(=O)(=O)c1ccc(N2C(=O)c3ccccc3S2(=O)=O)cc1 (nonaromatic ring conformer: 60.514581286472115 kcal/mol)

>  <smiles>  (64) 
NS(=O)(=O)c1ccc(N2C(=O)c3ccccc3S2(=O)=O)cc1

>  <score_type>  (64) 
oracle

>  <origin>  (64) 
adg

>  <m_score__min__energy>  (64) 
-8.6600000000000001

>  <m_primary>  (64) 
energy

$$$$
64:0
     RDKit          3D

 34 36  0  0  0  0  0  0  0  0999 V2000
   58.3030   29.7110   46.6720 H   0  0  0  0  0  0  0  0  0  0  0  0
   57.7550   30.5010   46.3540 O   0  0  0  0  0  0  0  0  0  0  0  0
   57.4660   30.6940   45.0040 C   0  0  0  0  0  0  0  0  0  0  0  0
   58.1660   31.6580   44.2630 C   0  0  0  0  0  0  0  0  0  0  0  0
   58.9385   32.2699   44.7517 H   0  0  0  0  0  0  0  0  0  0  0  0
   57.8860   31.8440   42.9070 C   0  0  0  0  0  0  0  0  0  0  0  0
   58.4300   32.6083   42.3326 H   0  0  0  0  0  0  0  0  0  0  0  0
   56.9150   31.0590   42.2810 C   0  0  0  0  0  0  0  0  0  0  0  0
   56.7009   31.1996   41.2112 H   0  0  0  0  0  0  0  0  0  0  0  0
   56.2150   30.0950   43.0120 C   0  0  0  0  0  0  0  0  0  0  0  0
   55.4634   29.4674   42.5108 H   0  0  0  0  0  0  0  0  0  0  0  0
   56.4670   29.9230   44.3870 C   0  0  0  0  0  0  0  0  0  0  0  0
   55.7910   28.9150   45.1590 N   0  0  0  0  0  0  0  0  0  0  0  0
   56.3020   27.8110   45.6210 C   0  0  0  0  0  0  0  0  0  0  0  0
   57.6370   27.7540   45.8700 N   0  0  0  0  0  0  0  0  0  0  0  0
   58.2170   26.6310   46.3710 C   0  0  0  0  0  0  0  0  0  0  0  0
   59.7010   26.5940   46.5820 C   0  0  0  0  0  0  0  0  0  0  0  0
   60.1857   27.2510   45.8448 H   0  0  0  0  0  0  0  0  0  0  0  0
   60.0468   25.5569   46.4598 H   0  0  0  0  0  0  0  0  0  0  0  0
   60.1370   27.1590   48.2640 S   0  0  0  0  0  0  0  0  0  0  0  0
   60.1960   28.8960   47.8290 C   0  0  0  0  0  0  0  0  0  0  0  0
   60.3000   29.3460   46.5610 N   0  0  0  0  0  0  0  0  0  0  0  0
   60.3080   30.6750   46.4760 N   0  0  0  0  0  0  0  0  0  0  0  0
   60.2260   31.2850   47.6800 C   0  0  0  0  0  0  0  0  0  0  0  0
   60.1430   32.7640   47.8500 C   0  0  0  0  0  0  0  0  0  0  0  0
   60.1292   33.0096   48.9221 H   0  0  0  0  0  0  0  0  0  0  0  0
   61.0160   33.2371   47.3766 H   0  0  0  0  0  0  0  0  0  0  0  0
   59.2225   33.1364   47.3766 H   0  0  0  0  0  0  0  0  0  0  0  0
   60.1070   30.1640   48.9320 S   0  0  0  0  0  0  0  0  0  0  0  0
   57.4280   25.5070   46.6380 C   0  0  0  0  0  0  0  0  0  0  0  0
   57.8779   24.5843   47.0333 H   0  0  0  0  0  0  0  0  0  0  0  0
   56.0570   25.5840   46.3910 C   0  0  0  0  0  0  0  0  0  0  0  0
   55.3140   24.5960   46.6260 O   0  0  0  0  0  0  0  0  0  0  0  0
   55.5220   26.7280   45.8930 N   0  0  0  0  0  0  0  0  0  0  0  0
  1  2  1  0
  2  3  1  0
  3  4  2  0
  4  5  1  0
  4  6  1  0
  6  7  1  0
  6  8  2  0
  8  9  1  0
  8 10  1  0
 10 11  1  0
 10 12  2  0
 12 13  1  0
 13 14  2  0
 14 15  1  0
 15 16  1  0
 16 17  1  0
 17 18  1  0
 17 19  1  0
 17 20  1  0
 20 21  1  0
 21 22  2  0
 22 23  1  0
 23 24  2  0
 24 25  1  0
 25 26  1  0
 25 27  1  0
 25 28  1  0
 24 29  1  0
 16 30  2  0
 30 31  1  0
 30 32  1  0
 32 33  2  0
 32 34  1  0
 12  3  1  0
 34 14  1  0
 29 21  1  0
M  CHG  2  15  -1  34  -1
M  END
>  <UniqueID>  (65) 
63

>  <SMILES>  (65) 
Cc1nnc(SCc2cc(=O)[n-]/c(=N\c3ccccc3O)[n-]2)s1

>  <Energy>  (65) 
71.17039266554346

>  <Genealogy>  (65) 
Cc1nnc(SCc2cc(=O)[n-]c(=Nc3ccccc3O)[n-]2)s1 (protonated)
Cc1nnc(SCc2cc(=O)[n-]/c(=N\c3ccccc3O)[n-]2)s1 (cis-trans isomerization)
Cc1nnc(SCc2cc(=O)[n-]/c(=N\c3ccccc3O)[n-]2)s1 (3D coordinates assigned)
Cc1nnc(SCc2cc(=O)[n-]/c(=N\c3ccccc3O)[n-]2)s1 (optimized conformer: 71.17039266554346 kcal/mol)

>  <smiles>  (65) 
Cc1nnc(SCc2cc(=O)[nH]c(=Nc3ccccc3O)[nH]2)s1

>  <score_type>  (65) 
oracle

>  <origin>  (65) 
adg

>  <m_score__min__energy>  (65) 
-12.51

>  <m_primary>  (65) 
energy

$$$$
65:0
     RDKit          3D

 58 62  0  0  0  0  0  0  0  0999 V2000
   54.7070   31.2060   51.6840 C   0  0  0  0  0  0  0  0  0  0  0  0
   54.7480   30.0890   52.4280 C   0  0  0  0  0  0  0  0  0  0  0  0
   53.6610   29.2920   52.8230 C   0  0  0  0  0  0  0  0  0  0  0  0
   52.3340   29.5130   52.7530 C   0  0  0  0  0  0  0  0  0  0  0  0
   51.6960   30.7210   52.2090 C   0  0  0  0  0  0  0  0  0  0  0  0
   51.3780   31.7940   52.9520 N   0  0  0  0  0  0  0  0  0  0  0  0
   50.9460   32.6910   52.0380 C   0  0  0  0  0  0  0  0  0  0  0  0
   50.5360   33.8380   52.3550 O   0  0  0  0  0  0  0  0  0  0  0  0
   50.9960   32.2650   50.7570 N   0  0  0  0  0  0  0  0  0  0  0  0
   51.4880   31.0220   50.8810 C   0  0  0  0  0  0  0  0  0  0  0  0
   51.7710   30.1870   49.8040 O   0  0  0  0  0  0  0  0  0  0  0  0
   54.2020   28.1380   53.3670 C   0  0  0  0  0  0  0  0  0  0  0  0
   55.5720   28.2980   53.3600 C   0  0  0  0  0  0  0  0  0  0  0  0
   56.5470   27.2970   53.9030 C   0  0  0  0  0  0  0  0  0  0  0  0
   55.9060   29.4760   52.7850 N   0  0  0  0  0  0  0  0  0  0  0  0
   57.2410   29.9740   52.5950 C   0  0  0  0  0  0  0  0  0  0  0  0
   57.7470   30.1320   51.2970 C   0  0  0  0  0  0  0  0  0  0  0  0
   59.0510   30.6220   51.0800 C   0  0  0  0  0  0  0  0  0  0  0  0
   59.5710   30.7760   49.7370 N   0  0  0  0  0  0  0  0  0  0  0  0
   60.8460   30.2290   49.2980 C   0  0  0  0  0  0  0  0  0  0  0  0
   61.0020   30.5910   47.8230 C   0  0  0  0  0  0  0  0  0  0  0  0
   59.7670   31.4180   47.4330 C   0  0  2  0  0  0  0  0  0  0  0  0
   60.1520   32.7480   46.8890 N   0  0  0  0  0  0  0  0  0  0  0  0
   60.2220   33.8430   47.8760 C   0  0  0  0  0  0  0  0  0  0  0  0
   59.2940   34.9530   47.4080 C   0  0  0  0  0  0  0  0  0  0  0  0
   59.0990   34.6900   45.9330 C   0  0  0  0  0  0  0  0  0  0  0  0
   59.2790   33.1900   45.7900 C   0  0  0  0  0  0  0  0  0  0  0  0
   58.8650   31.4820   48.6790 C   0  0  0  0  0  0  0  0  0  0  0  0
   59.8370   30.9520   52.2020 C   0  0  0  0  0  0  0  0  0  0  0  0
   59.3400   30.7850   53.4960 C   0  0  0  0  0  0  0  0  0  0  0  0
   58.0510   30.2900   53.6980 C   0  0  0  0  0  0  0  0  0  0  0  0
   57.5860   30.0960   54.9940 O   0  0  0  0  0  0  0  0  0  0  0  0
   55.6375   31.7410   51.4433 H   0  0  0  0  0  0  0  0  0  0  0  0
   53.7429   31.5861   51.3152 H   0  0  0  0  0  0  0  0  0  0  0  0
   51.6713   28.7226   53.1353 H   0  0  0  0  0  0  0  0  0  0  0  0
   51.0400   29.6300   49.3780 H   0  0  0  0  0  0  0  0  0  0  0  0
   53.6458   27.2627   53.7338 H   0  0  0  0  0  0  0  0  0  0  0  0
   56.5234   27.3213   55.0025 H   0  0  0  0  0  0  0  0  0  0  0  0
   56.2731   26.2910   53.5525 H   0  0  0  0  0  0  0  0  0  0  0  0
   57.5599   27.5443   53.5525 H   0  0  0  0  0  0  0  0  0  0  0  0
   57.1167   29.8695   50.4345 H   0  0  0  0  0  0  0  0  0  0  0  0
   61.6672   30.6678   49.8837 H   0  0  0  0  0  0  0  0  0  0  0  0
   60.8756   29.1386   49.4402 H   0  0  0  0  0  0  0  0  0  0  0  0
   61.9166   31.1836   47.6737 H   0  0  0  0  0  0  0  0  0  0  0  0
   61.0822   29.6865   47.2021 H   0  0  0  0  0  0  0  0  0  0  0  0
   59.2054   30.9497   46.6112 H   0  0  0  0  0  0  0  0  0  0  0  0
   59.9006   33.4781   48.8627 H   0  0  0  0  0  0  0  0  0  0  0  0
   61.2532   34.2161   47.9624 H   0  0  0  0  0  0  0  0  0  0  0  0
   58.3330   34.9064   47.9412 H   0  0  0  0  0  0  0  0  0  0  0  0
   59.7087   35.9531   47.6022 H   0  0  0  0  0  0  0  0  0  0  0  0
   58.0911   34.9933   45.6135 H   0  0  0  0  0  0  0  0  0  0  0  0
   59.8044   35.2583   45.3089 H   0  0  0  0  0  0  0  0  0  0  0  0
   58.3038   32.6856   45.8576 H   0  0  0  0  0  0  0  0  0  0  0  0
   59.7239   32.9421   44.8150 H   0  0  0  0  0  0  0  0  0  0  0  0
   58.6927   32.5287   48.9700 H   0  0  0  0  0  0  0  0  0  0  0  0
   57.8833   31.0261   48.4831 H   0  0  0  0  0  0  0  0  0  0  0  0
   60.8538   31.3457   52.0567 H   0  0  0  0  0  0  0  0  0  0  0  0
   59.9679   31.0450   54.3609 H   0  0  0  0  0  0  0  0  0  0  0  0
  1  2  2  0
  2  3  1  0
  3  4  2  3
  4  5  1  0
  5  6  1  0
  6  7  1  0
  7  8  2  0
  7  9  1  0
  9 10  1  0
 10 11  1  0
  3 12  1  0
 12 13  2  0
 13 14  1  0
 13 15  1  0
 15 16  1  0
 16 17  2  0
 17 18  1  0
 18 19  1  0
 19 20  1  0
 20 21  1  0
 21 22  1  0
 22 23  1  0
 23 24  1  0
 24 25  1  0
 25 26  1  0
 26 27  1  0
 22 28  1  0
 18 29  2  0
 29 30  1  0
 30 31  2  0
 31 32  1  0
 15  2  1  0
 31 16  1  0
 10  5  2  0
 28 19  1  0
 27 23  1  0
  1 33  1  0
  1 34  1  0
  4 35  1  0
 11 36  1  0
 12 37  1  0
 14 38  1  0
 14 39  1  0
 14 40  1  0
 17 41  1  0
 20 42  1  0
 20 43  1  0
 21 44  1  0
 21 45  1  0
 22 46  1  6
 24 47  1  0
 24 48  1  0
 25 49  1  0
 25 50  1  0
 26 51  1  0
 26 52  1  0
 27 53  1  0
 27 54  1  0
 28 55  1  0
 28 56  1  0
 29 57  1  0
 30 58  1  0
M  CHG  3   6  -1   9  -1  32  -1
M  END
>  <UniqueID>  (66) 
64

>  <SMILES>  (66) 
C=c1c(=Cc2[n-]c(=O)[n-]c2O)cc(C)n1-c1cc(N2CC[C@H](N3CCCC3)C2)ccc1[O-]

>  <Energy>  (66) 
145.9434624074421

>  <Genealogy>  (66) 
C=c1c(=Cc2[n-]c(=O)[n-]c2O)cc(C)n1-c1cc(N2CCC(N3CCCC3)C2)ccc1[O-] (protonated)
C=c1c(=Cc2[n-]c(=O)[n-]c2O)cc(C)n1-c1cc(N2CC[C@H](N3CCCC3)C2)ccc1[O-] (chirality)
C=c1c(=Cc2[n-]c(=O)[n-]c2O)cc(C)n1-c1cc(N2CC[C@H](N3CCCC3)C2)ccc1[O-] (3D coordinates assigned)
C=c1c(=Cc2[n-]c(=O)[n-]c2O)cc(C)n1-c1cc(N2CC[C@H](N3CCCC3)C2)ccc1[O-] (nonaromatic ring conformer: 145.9434624074421 kcal/mol)

>  <smiles>  (66) 
C=c1c(=Cc2[nH]c(=O)[nH]c2O)cc(C)n1-c1cc(N2CCC(N3CCCC3)C2)ccc1O

>  <score_type>  (66) 
oracle

>  <origin>  (66) 
adg

>  <m_score__min__energy>  (66) 
-15.289999999999999

>  <m_primary>  (66) 
energy

$$$$
66:0
     RDKit          3D

 54 57  0  0  0  0  0  0  0  0999 V2000
   59.3970   27.7880   46.6050 C   0  0  0  0  0  0  0  0  0  0  0  0
   58.6040   28.2880   45.6450 C   0  0  0  0  0  0  0  0  0  0  0  0
   57.9030   27.5710   44.6600 C   0  0  0  0  0  0  0  0  0  0  0  0
   57.6800   26.2490   44.5170 C   0  0  0  0  0  0  0  0  0  0  0  0
   57.0550   25.3700   45.5180 C   0  0  0  0  0  0  0  0  0  0  0  0
   57.6320   24.2720   46.0430 N   0  0  0  0  0  0  0  0  0  0  0  0
   56.7650   23.8940   47.0060 C   0  0  0  0  0  0  0  0  0  0  0  0
   56.9500   22.8770   47.7220 O   0  0  0  0  0  0  0  0  0  0  0  0
   55.6890   24.6970   47.1470 N   0  0  0  0  0  0  0  0  0  0  0  0
   55.8970   25.6340   46.2070 C   0  0  0  0  0  0  0  0  0  0  0  0
   55.0510   26.7140   45.9930 O   0  0  0  0  0  0  0  0  0  0  0  0
   57.4010   28.5130   43.7780 C   0  0  0  0  0  0  0  0  0  0  0  0
   57.7520   29.7520   44.2740 C   0  0  0  0  0  0  0  0  0  0  0  0
   57.3830   31.0610   43.6450 C   0  0  0  0  0  0  0  0  0  0  0  0
   58.4660   29.6170   45.4120 N   0  0  0  0  0  0  0  0  0  0  0  0
   59.0530   30.7000   46.1540 C   0  0  0  0  0  0  0  0  0  0  0  0
   58.2420   31.7210   46.6670 C   0  0  0  0  0  0  0  0  0  0  0  0
   58.8050   32.7610   47.4100 C   0  0  0  0  0  0  0  0  0  0  0  0
   60.1870   32.7850   47.6640 C   0  0  0  0  0  0  0  0  0  0  0  0
   60.7900   33.8880   48.4430 C   0  0  0  0  0  0  0  0  0  0  0  0
   60.1580   34.9740   48.5610 O   0  0  0  0  0  0  0  0  0  0  0  0
   62.0810   33.7480   49.0670 N   0  0  0  0  0  0  0  0  0  0  0  0
   63.1780   33.1030   48.3290 C   0  0  0  0  0  0  0  0  0  0  0  0
   64.5470   33.4550   48.9210 C   0  0  0  0  0  0  0  0  0  0  0  0
   64.5370   33.2770   50.3810 N   0  0  0  0  0  0  0  0  0  0  0  0
   65.6850   32.7590   51.0870 C   0  0  0  0  0  0  0  0  0  0  0  0
   67.0230   32.6120   50.4230 C   0  0  0  0  0  0  0  0  0  0  0  0
   65.5700   32.3970   52.2890 O   0  0  0  0  0  0  0  0  0  0  0  0
   63.3690   33.7150   51.1630 C   0  0  0  0  0  0  0  0  0  0  0  0
   62.3610   34.4840   50.3050 C   0  0  0  0  0  0  0  0  0  0  0  0
   60.9980   31.7700   47.1330 C   0  0  0  0  0  0  0  0  0  0  0  0
   60.4350   30.7280   46.3890 C   0  0  0  0  0  0  0  0  0  0  0  0
   61.2340   29.7550   45.8870 F   0  0  0  0  0  0  0  0  0  0  0  0
   59.8904   28.4644   47.3185 H   0  0  0  0  0  0  0  0  0  0  0  0
   59.5537   26.7017   46.6785 H   0  0  0  0  0  0  0  0  0  0  0  0
   57.9927   25.7870   43.5689 H   0  0  0  0  0  0  0  0  0  0  0  0
   56.8317   28.3122   42.8584 H   0  0  0  0  0  0  0  0  0  0  0  0
   57.1746   31.8003   44.4324 H   0  0  0  0  0  0  0  0  0  0  0  0
   58.2162   31.4155   43.0204 H   0  0  0  0  0  0  0  0  0  0  0  0
   56.4873   30.9281   43.0204 H   0  0  0  0  0  0  0  0  0  0  0  0
   57.1575   31.7034   46.4838 H   0  0  0  0  0  0  0  0  0  0  0  0
   58.1633   33.5656   47.7984 H   0  0  0  0  0  0  0  0  0  0  0  0
   63.0420   32.0122   48.3706 H   0  0  0  0  0  0  0  0  0  0  0  0
   63.1511   33.4657   47.2909 H   0  0  0  0  0  0  0  0  0  0  0  0
   65.3116   32.7977   48.4812 H   0  0  0  0  0  0  0  0  0  0  0  0
   64.7744   34.5066   48.6919 H   0  0  0  0  0  0  0  0  0  0  0  0
   67.8059   32.5260   51.1909 H   0  0  0  0  0  0  0  0  0  0  0  0
   67.0238   31.7084   49.7957 H   0  0  0  0  0  0  0  0  0  0  0  0
   67.2199   33.4939   49.7957 H   0  0  0  0  0  0  0  0  0  0  0  0
   62.8726   32.8294   51.5864 H   0  0  0  0  0  0  0  0  0  0  0  0
   63.7243   34.3889   51.9565 H   0  0  0  0  0  0  0  0  0  0  0  0
   61.4262   34.6122   50.8704 H   0  0  0  0  0  0  0  0  0  0  0  0
   62.7842   35.4667   50.0495 H   0  0  0  0  0  0  0  0  0  0  0  0
   62.0845   31.7942   47.3032 H   0  0  0  0  0  0  0  0  0  0  0  0
  1  2  2  0
  2  3  1  0
  3  4  2  3
  4  5  1  0
  5  6  1  0
  6  7  1  0
  7  8  2  0
  7  9  1  0
  9 10  1  0
 10 11  1  0
  3 12  1  0
 12 13  2  0
 13 14  1  0
 13 15  1  0
 15 16  1  0
 16 17  2  0
 17 18  1  0
 18 19  2  0
 19 20  1  0
 20 21  2  0
 20 22  1  0
 22 23  1  0
 23 24  1  0
 24 25  1  0
 25 26  1  0
 26 27  1  0
 26 28  2  0
 25 29  1  0
 29 30  1  0
 19 31  1  0
 31 32  2  0
 32 33  1  0
 15  2  1  0
 32 16  1  0
 10  5  2  0
 30 22  1  0
  1 34  1  0
  1 35  1  0
  4 36  1  0
 12 37  1  0
 14 38  1  0
 14 39  1  0
 14 40  1  0
 17 41  1  0
 18 42  1  0
 23 43  1  0
 23 44  1  0
 24 45  1  0
 24 46  1  0
 27 47  1  0
 27 48  1  0
 27 49  1  0
 29 50  1  0
 29 51  1  0
 30 52  1  0
 30 53  1  0
 31 54  1  0
M  CHG  3   6  -1   9  -1  11  -1
M  END
>  <UniqueID>  (67) 
65

>  <SMILES>  (67) 
C=c1c(=Cc2[n-]c(=O)[n-]c2[O-])cc(C)n1-c1ccc(C(=O)N2CCN(C(C)=O)CC2)cc1F

>  <Energy>  (67) 
136.6366588440642

>  <Genealogy>  (67) 
C=c1c(=Cc2[n-]c(=O)[n-]c2[O-])cc(C)n1-c1ccc(C(=O)N2CCN(C(C)=O)CC2)cc1F (protonated)
C=c1c(=Cc2[n-]c(=O)[n-]c2[O-])cc(C)n1-c1ccc(C(=O)N2CCN(C(C)=O)CC2)cc1F (3D coordinates assigned)
C=c1c(=Cc2[n-]c(=O)[n-]c2[O-])cc(C)n1-c1ccc(C(=O)N2CCN(C(C)=O)CC2)cc1F (nonaromatic ring conformer: 136.6366588440642 kcal/mol)

>  <smiles>  (67) 
C=c1c(=Cc2[nH]c(=O)[nH]c2O)cc(C)n1-c1ccc(C(=O)N2CCN(C(C)=O)CC2)cc1F

>  <score_type>  (67) 
oracle

>  <origin>  (67) 
adg

>  <m_score__min__energy>  (67) 
-16.129999999999999

>  <m_primary>  (67) 
energy

$$$$
67:0
     RDKit          3D

 46 48  0  0  0  0  0  0  0  0999 V2000
   64.0210   33.8050   49.6120 C   0  0  0  0  0  0  0  0  0  0  0  0
   63.1570   32.7540   48.9800 C   0  0  0  0  0  0  0  0  0  0  0  0
   62.5970   32.9680   47.7120 C   0  0  0  0  0  0  0  0  0  0  0  0
   61.7620   32.0050   47.1380 C   0  0  0  0  0  0  0  0  0  0  0  0
   61.4650   30.8240   47.8330 C   0  0  0  0  0  0  0  0  0  0  0  0
   60.4050   29.6000   47.1320 S   0  0  0  0  0  0  0  0  0  0  0  0
   60.8220   28.2760   47.7080 O   0  0  0  0  0  0  0  0  0  0  0  0
   60.6000   29.5530   45.6420 O   0  0  0  0  0  0  0  0  0  0  0  0
   58.7170   29.9190   47.5250 N   0  0  0  0  0  0  0  0  0  0  0  0
   58.5190   30.1230   48.9770 C   0  0  0  0  0  0  0  0  0  0  0  0
   59.2270   31.3890   49.4940 C   0  0  0  0  0  0  0  0  0  0  0  0
   59.0090   32.5280   48.6080 N   0  0  0  0  0  0  0  0  0  0  0  0
   58.6350   32.3740   47.2380 C   0  0  0  0  0  0  0  0  0  0  0  0
   58.6400   33.3800   46.4800 O   0  0  0  0  0  0  0  0  0  0  0  0
   58.1070   31.0400   46.7620 C   0  0  1  0  0  0  0  0  0  0  0  0
   58.1950   30.8660   45.2240 C   0  0  0  0  0  0  0  0  0  0  0  0
   57.1980   29.8590   44.6950 C   0  0  0  0  0  0  0  0  0  0  0  0
   56.8080   29.9390   43.5000 O   0  0  0  0  0  0  0  0  0  0  0  0
   56.5770   28.8920   45.5510 N   0  0  0  0  0  0  0  0  0  0  0  0
   57.0480   27.5600   45.8000 C   0  0  0  0  0  0  0  0  0  0  0  0
   58.4270   27.3360   45.8900 C   0  0  0  0  0  0  0  0  0  0  0  0
   58.9200   26.0510   46.1470 C   0  0  0  0  0  0  0  0  0  0  0  0
   60.6560   25.7910   46.2290 Cl  0  0  0  0  0  0  0  0  0  0  0  0
   58.0300   24.9860   46.3360 C   0  0  0  0  0  0  0  0  0  0  0  0
   58.5080   23.7050   46.5870 O   0  0  0  0  0  0  0  0  0  0  0  0
   56.6510   25.2110   46.2800 C   0  0  0  0  0  0  0  0  0  0  0  0
   56.1560   26.4950   46.0290 C   0  0  0  0  0  0  0  0  0  0  0  0
   54.7820   26.7070   46.0330 O   0  0  0  0  0  0  0  0  0  0  0  0
   62.0140   30.6150   49.1060 C   0  0  0  0  0  0  0  0  0  0  0  0
   62.8490   31.5780   49.6800 C   0  0  0  0  0  0  0  0  0  0  0  0
   63.9547   33.7244   50.7070 H   0  0  0  0  0  0  0  0  0  0  0  0
   65.0647   33.6603   49.2962 H   0  0  0  0  0  0  0  0  0  0  0  0
   63.6771   34.8010   49.2962 H   0  0  0  0  0  0  0  0  0  0  0  0
   62.8159   33.8979   47.1667 H   0  0  0  0  0  0  0  0  0  0  0  0
   61.3366   32.1743   46.1378 H   0  0  0  0  0  0  0  0  0  0  0  0
   57.4412   30.2144   49.1771 H   0  0  0  0  0  0  0  0  0  0  0  0
   58.9542   29.2584   49.4995 H   0  0  0  0  0  0  0  0  0  0  0  0
   58.8358   31.6338   50.4925 H   0  0  0  0  0  0  0  0  0  0  0  0
   60.3075   31.1864   49.5333 H   0  0  0  0  0  0  0  0  0  0  0  0
   57.0288   31.0184   46.9786 H   0  0  0  0  0  0  0  0  0  0  0  0
   58.0004   31.8382   44.7477 H   0  0  0  0  0  0  0  0  0  0  0  0
   59.2026   30.4932   44.9878 H   0  0  0  0  0  0  0  0  0  0  0  0
   59.1270   28.1742   45.7581 H   0  0  0  0  0  0  0  0  0  0  0  0
   55.9528   24.3751   46.4339 H   0  0  0  0  0  0  0  0  0  0  0  0
   61.7868   29.6895   49.6553 H   0  0  0  0  0  0  0  0  0  0  0  0
   63.2661   31.4130   50.6844 H   0  0  0  0  0  0  0  0  0  0  0  0
  1  2  1  0
  2  3  2  0
  3  4  1  0
  4  5  2  0
  5  6  1  0
  6  7  2  0
  6  8  2  0
  6  9  1  0
  9 10  1  0
 10 11  1  0
 11 12  1  0
 12 13  1  0
 13 14  2  0
 13 15  1  0
 15 16  1  0
 16 17  1  0
 17 18  2  0
 17 19  1  0
 19 20  1  0
 20 21  2  0
 21 22  1  0
 22 23  1  0
 22 24  2  0
 24 25  1  0
 24 26  1  0
 26 27  2  0
 27 28  1  0
  5 29  1  0
 29 30  2  0
 30  2  1  0
 15  9  1  0
 27 20  1  0
  1 31  1  0
  1 32  1  0
  1 33  1  0
  3 34  1  0
  4 35  1  0
 10 36  1  0
 10 37  1  0
 11 38  1  0
 11 39  1  0
 15 40  1  1
 16 41  1  0
 16 42  1  0
 21 43  1  0
 26 44  1  0
 29 45  1  0
 30 46  1  0
M  CHG  4  12  -1  19  -1  25  -1  28  -1
M  END
>  <UniqueID>  (68) 
66

>  <SMILES>  (68) 
Cc1ccc(S(=O)(=O)N2CC[N-]C(=O)[C@H]2CC(=O)[N-]c2cc(Cl)c([O-])cc2[O-])cc1

>  <Energy>  (68) 
62.654245548468175

>  <Genealogy>  (68) 
Cc1ccc(S(=O)(=O)N2CC[N-]C(=O)C2CC(=O)[N-]c2cc(Cl)c([O-])cc2[O-])cc1 (protonated)
Cc1ccc(S(=O)(=O)N2CC[N-]C(=O)[C@H]2CC(=O)[N-]c2cc(Cl)c([O-])cc2[O-])cc1 (chirality)
Cc1ccc(S(=O)(=O)N2CC[N-]C(=O)[C@H]2CC(=O)[N-]c2cc(Cl)c([O-])cc2[O-])cc1 (3D coordinates assigned)
Cc1ccc(S(=O)(=O)N2CC[N-]C(=O)[C@H]2CC(=O)[N-]c2cc(Cl)c([O-])cc2[O-])cc1 (nonaromatic ring conformer: 62.654245548468175 kcal/mol)

>  <smiles>  (68) 
Cc1ccc(S(=O)(=O)N2CCNC(=O)C2CC(=O)Nc2cc(Cl)c(O)cc2O)cc1

>  <score_type>  (68) 
oracle

>  <origin>  (68) 
adg

>  <m_score__min__energy>  (68) 
-17.949999999999999

>  <m_primary>  (68) 
energy

$$$$
68:0
     RDKit          3D

 83 86  0  0  0  0  0  0  0  0999 V2000
   58.2940   22.7470   52.5800 C   0  0  0  0  0  0  0  0  0  0  0  0
   59.3710   23.0830   51.7130 O   0  0  0  0  0  0  0  0  0  0  0  0
   60.4740   23.8650   52.0860 C   0  0  0  0  0  0  0  0  0  0  0  0
   61.7290   23.3050   52.3870 C   0  0  0  0  0  0  0  0  0  0  0  0
   62.7950   24.1270   52.7610 C   0  0  0  0  0  0  0  0  0  0  0  0
   62.6220   25.5110   52.8350 C   0  0  0  0  0  0  0  0  0  0  0  0
   61.3790   26.0850   52.5290 C   0  0  0  0  0  0  0  0  0  0  0  0
   61.1700   27.5770   52.6630 C   0  0  0  0  0  0  0  0  0  0  0  0
   61.6730   28.3010   51.4770 N   0  0  2  0  0  0  0  0  0  0  0  0
   63.1060   28.6020   51.6240 C   0  0  0  0  0  0  0  0  0  0  0  0
   60.9290   29.5310   51.2730 C   0  0  0  0  0  0  0  0  0  0  0  0
   61.3890   30.6000   51.6500 O   0  0  0  0  0  0  0  0  0  0  0  0
   59.5700   29.5080   50.6220 C   0  0  0  0  0  0  0  0  0  0  0  0
   59.6770   29.2270   49.1360 C   0  0  0  0  0  0  0  0  0  0  0  0
   60.1400   27.9830   48.6950 C   0  0  0  0  0  0  0  0  0  0  0  0
   60.4730   27.0050   49.6290 O   0  0  0  0  0  0  0  0  0  0  0  0
   60.2790   27.7210   47.3240 C   0  0  0  0  0  0  0  0  0  0  0  0
   60.7810   26.3680   46.8700 C   0  0  0  0  0  0  0  0  0  0  0  0
   59.9340   28.7310   46.3880 C   0  0  0  0  0  0  0  0  0  0  0  0
   60.0810   28.4410   44.9020 C   0  0  0  0  0  0  0  0  0  0  0  0
   59.5480   29.9810   46.8390 N   0  0  0  0  0  0  0  0  0  0  0  0
   59.3480   31.1020   45.8920 C   0  0  0  0  0  0  0  0  0  0  0  0
   57.8870   31.1740   45.4240 C   0  0  0  0  0  0  0  0  0  0  0  0
   57.6950   32.2860   44.3700 C   0  0  0  0  0  0  0  0  0  0  0  0
   57.7540   33.6570   44.9210 N   0  0  0  0  0  0  0  0  0  0  0  0
   57.2430   33.8260   46.3020 C   0  0  0  0  0  0  0  0  0  0  0  0
   58.3430   33.7190   47.3750 C   0  0  0  0  0  0  0  0  0  0  0  0
   59.6370   34.1770   46.8620 N   0  0  0  0  0  0  0  0  0  0  0  0
   60.8600   33.7790   47.5130 C   0  0  0  0  0  0  0  0  0  0  0  0
   61.9790   33.4210   46.7390 C   0  0  0  0  0  0  0  0  0  0  0  0
   63.1690   33.0270   47.3540 C   0  0  0  0  0  0  0  0  0  0  0  0
   63.2560   32.9860   48.7450 C   0  0  0  0  0  0  0  0  0  0  0  0
   62.1600   33.3500   49.5260 C   0  0  0  0  0  0  0  0  0  0  0  0
   60.9570   33.7660   48.9210 C   0  0  0  0  0  0  0  0  0  0  0  0
   59.8540   34.1850   49.6810 O   0  0  0  0  0  0  0  0  0  0  0  0
   59.4130   33.5710   50.8850 C   0  0  0  0  0  0  0  0  0  0  0  0
   59.6420   35.1080   45.7330 C   0  0  0  0  0  0  0  0  0  0  0  0
   58.9380   34.4600   44.5340 C   0  0  0  0  0  0  0  0  0  0  0  0
   59.3600   30.2120   48.1830 C   0  0  0  0  0  0  0  0  0  0  0  0
   58.9080   31.3250   48.5760 O   0  0  0  0  0  0  0  0  0  0  0  0
   60.3090   25.2530   52.1610 C   0  0  0  0  0  0  0  0  0  0  0  0
   58.6197   22.8486   53.6257 H   0  0  0  0  0  0  0  0  0  0  0  0
   57.4473   23.4237   52.3923 H   0  0  0  0  0  0  0  0  0  0  0  0
   57.9823   21.7089   52.3923 H   0  0  0  0  0  0  0  0  0  0  0  0
   61.8715   22.2159   52.3277 H   0  0  0  0  0  0  0  0  0  0  0  0
   63.7732   23.6830   52.9978 H   0  0  0  0  0  0  0  0  0  0  0  0
   63.4634   26.1532   53.1343 H   0  0  0  0  0  0  0  0  0  0  0  0
   60.0946   27.7789   52.7760 H   0  0  0  0  0  0  0  0  0  0  0  0
   61.7278   27.9268   53.5442 H   0  0  0  0  0  0  0  0  0  0  0  0
   61.5690   27.6860   50.6360 H   0  0  0  0  0  0  0  0  0  0  0  0
   63.3617   28.6557   52.6925 H   0  0  0  0  0  0  0  0  0  0  0  0
   63.6984   27.8087   51.1447 H   0  0  0  0  0  0  0  0  0  0  0  0
   63.3291   29.5666   51.1447 H   0  0  0  0  0  0  0  0  0  0  0  0
   58.9603   28.7225   51.0924 H   0  0  0  0  0  0  0  0  0  0  0  0
   59.1033   30.4950   50.7565 H   0  0  0  0  0  0  0  0  0  0  0  0
   61.0109   25.7483   47.7493 H   0  0  0  0  0  0  0  0  0  0  0  0
   60.0065   25.8735   46.2653 H   0  0  0  0  0  0  0  0  0  0  0  0
   61.6906   26.4984   46.2653 H   0  0  0  0  0  0  0  0  0  0  0  0
   60.5745   27.4674   44.7655 H   0  0  0  0  0  0  0  0  0  0  0  0
   59.0863   28.4168   44.4330 H   0  0  0  0  0  0  0  0  0  0  0  0
   60.6885   29.2290   44.4330 H   0  0  0  0  0  0  0  0  0  0  0  0
   59.6127   32.0459   46.3910 H   0  0  0  0  0  0  0  0  0  0  0  0
   59.9893   30.9370   45.0137 H   0  0  0  0  0  0  0  0  0  0  0  0
   57.6032   30.2074   44.9822 H   0  0  0  0  0  0  0  0  0  0  0  0
   57.2527   31.4030   46.2930 H   0  0  0  0  0  0  0  0  0  0  0  0
   58.4858   32.1839   43.6122 H   0  0  0  0  0  0  0  0  0  0  0  0
   56.6861   32.1555   43.9515 H   0  0  0  0  0  0  0  0  0  0  0  0
   56.7726   34.8172   46.3816 H   0  0  0  0  0  0  0  0  0  0  0  0
   56.5268   33.0118   46.4867 H   0  0  0  0  0  0  0  0  0  0  0  0
   58.0612   34.3383   48.2393 H   0  0  0  0  0  0  0  0  0  0  0  0
   58.4405   32.6628   47.6666 H   0  0  0  0  0  0  0  0  0  0  0  0
   61.9159   33.4517   45.6412 H   0  0  0  0  0  0  0  0  0  0  0  0
   64.0386   32.7487   46.7406 H   0  0  0  0  0  0  0  0  0  0  0  0
   64.1914   32.6658   49.2272 H   0  0  0  0  0  0  0  0  0  0  0  0
   62.2348   33.3122   50.6228 H   0  0  0  0  0  0  0  0  0  0  0  0
   59.8116   34.1260   51.7470 H   0  0  0  0  0  0  0  0  0  0  0  0
   58.3136   33.5799   50.9198 H   0  0  0  0  0  0  0  0  0  0  0  0
   59.7726   32.5320   50.9198 H   0  0  0  0  0  0  0  0  0  0  0  0
   59.1122   36.0297   46.0153 H   0  0  0  0  0  0  0  0  0  0  0  0
   60.6801   35.3507   45.4619 H   0  0  0  0  0  0  0  0  0  0  0  0
   58.6127   35.2552   43.8471 H   0  0  0  0  0  0  0  0  0  0  0  0
   59.6580   33.7765   44.0603 H   0  0  0  0  0  0  0  0  0  0  0  0
   59.3298   25.6973   51.9290 H   0  0  0  0  0  0  0  0  0  0  0  0
  1  2  1  0
  2  3  1  0
  3  4  2  0
  4  5  1  0
  5  6  2  0
  6  7  1  0
  7  8  1  0
  8  9  1  0
  9 10  1  0
  9 11  1  0
 11 12  2  0
 11 13  1  0
 13 14  1  0
 14 15  2  0
 15 16  1  0
 15 17  1  0
 17 18  1  0
 17 19  2  0
 19 20  1  0
 19 21  1  0
 21 22  1  0
 22 23  1  0
 23 24  1  0
 24 25  1  0
 25 26  1  0
 26 27  1  0
 27 28  1  0
 28 29  1  0
 29 30  2  0
 30 31  1  0
 31 32  2  0
 32 33  1  0
 33 34  2  0
 34 35  1  0
 35 36  1  0
 28 37  1  0
 37 38  1  0
 21 39  1  0
 39 40  2  0
  7 41  2  0
 41  3  1  0
 39 14  1  0
 38 25  1  0
 34 29  1  0
  1 42  1  0
  1 43  1  0
  1 44  1  0
  4 45  1  0
  5 46  1  0
  6 47  1  0
  8 48  1  0
  8 49  1  0
  9 50  1  6
 10 51  1  0
 10 52  1  0
 10 53  1  0
 13 54  1  0
 13 55  1  0
 18 56  1  0
 18 57  1  0
 18 58  1  0
 20 59  1  0
 20 60  1  0
 20 61  1  0
 22 62  1  0
 22 63  1  0
 23 64  1  0
 23 65  1  0
 24 66  1  0
 24 67  1  0
 26 68  1  0
 26 69  1  0
 27 70  1  0
 27 71  1  0
 30 72  1  0
 31 73  1  0
 32 74  1  0
 33 75  1  0
 36 76  1  0
 36 77  1  0
 36 78  1  0
 37 79  1  0
 37 80  1  0
 38 81  1  0
 38 82  1  0
 41 83  1  0
M  CHG  2   9   1  16  -1
M  END
>  <UniqueID>  (69) 
67

>  <SMILES>  (69) 
COc1cccc(C[N@H+](C)C(=O)Cc2c([O-])c(C)c(C)n(CCCN3CCN(c4ccccc4OC)CC3)c2=O)c1

>  <Energy>  (69) 
104.96142718509627

>  <Genealogy>  (69) 
COc1cccc(C[NH+](C)C(=O)Cc2c([O-])c(C)c(C)n(CCCN3CCN(c4ccccc4OC)CC3)c2=O)c1 (protonated)
COc1cccc(C[N@H+](C)C(=O)Cc2c([O-])c(C)c(C)n(CCCN3CCN(c4ccccc4OC)CC3)c2=O)c1 (chirality)
COc1cccc(C[N@H+](C)C(=O)Cc2c([O-])c(C)c(C)n(CCCN3CCN(c4ccccc4OC)CC3)c2=O)c1 (3D coordinates assigned)
COc1cccc(C[N@H+](C)C(=O)Cc2c([O-])c(C)c(C)n(CCCN3CCN(c4ccccc4OC)CC3)c2=O)c1 (nonaromatic ring conformer: 104.96142718509627 kcal/mol)

>  <smiles>  (69) 
COc1cccc(CN(C)C(=O)Cc2c(O)c(C)c(C)n(CCCN3CCN(c4ccccc4OC)CC3)c2=O)c1

>  <score_type>  (69) 
oracle

>  <origin>  (69) 
adg

>  <m_score__min__energy>  (69) 
-9.8000000000000007

>  <m_primary>  (69) 
energy

$$$$
69:0
     RDKit          3D

 40 41  0  0  0  0  0  0  0  0999 V2000
   63.2510   33.6660   48.3050 C   0  0  0  0  0  0  0  0  0  0  0  0
   61.9810   34.2030   48.6610 O   0  0  0  0  0  0  0  0  0  0  0  0
   60.7910   33.9560   47.9590 C   0  0  0  0  0  0  0  0  0  0  0  0
   59.6480   33.4190   48.5790 C   0  0  0  0  0  0  0  0  0  0  0  0
   58.4770   33.2190   47.8440 C   0  0  0  0  0  0  0  0  0  0  0  0
   58.4250   33.5460   46.4790 C   0  0  0  0  0  0  0  0  0  0  0  0
   57.1180   33.4170   45.7410 C   0  0  0  0  0  0  0  0  0  0  0  0
   57.3440   32.7340   44.4710 N   0  0  0  0  0  0  0  0  0  0  0  0
   56.9220   31.3800   44.2760 C   0  0  0  0  0  0  0  0  0  0  0  0
   55.8440   30.9730   44.7850 O   0  0  0  0  0  0  0  0  0  0  0  0
   57.8160   30.4160   43.5580 C   0  0  0  0  0  0  0  0  0  0  0  0
   58.2750   29.3540   44.5230 C   0  0  0  0  0  0  0  0  0  0  0  0
   59.4750   29.5070   45.2350 C   0  0  0  0  0  0  0  0  0  0  0  0
   59.8630   28.5510   46.1780 C   0  0  0  0  0  0  0  0  0  0  0  0
   59.0480   27.4440   46.4270 C   0  0  0  0  0  0  0  0  0  0  0  0
   57.8380   27.2900   45.7380 C   0  0  0  0  0  0  0  0  0  0  0  0
   56.8000   25.9040   46.0550 S   0  0  0  0  0  0  0  0  0  0  0  0
   55.1470   26.4060   46.0210 N   0  0  0  0  0  0  0  0  0  0  0  0
   57.0240   24.8450   45.0120 O   0  0  0  0  0  0  0  0  0  0  0  0
   57.1240   25.3290   47.4050 O   0  0  0  0  0  0  0  0  0  0  0  0
   57.4570   28.2430   44.7830 C   0  0  0  0  0  0  0  0  0  0  0  0
   59.5690   34.0850   45.8590 C   0  0  0  0  0  0  0  0  0  0  0  0
   59.5480   34.4500   44.5170 O   0  0  0  0  0  0  0  0  0  0  0  0
   60.7430   34.2730   46.5980 C   0  0  0  0  0  0  0  0  0  0  0  0
   63.8168   33.4268   49.2175 H   0  0  0  0  0  0  0  0  0  0  0  0
   63.1088   32.7510   47.7113 H   0  0  0  0  0  0  0  0  0  0  0  0
   63.8084   34.4055   47.7113 H   0  0  0  0  0  0  0  0  0  0  0  0
   59.6765   33.1556   49.6466 H   0  0  0  0  0  0  0  0  0  0  0  0
   57.5876   32.8016   48.3387 H   0  0  0  0  0  0  0  0  0  0  0  0
   56.4089   32.8361   46.3491 H   0  0  0  0  0  0  0  0  0  0  0  0
   56.7027   34.4178   45.5513 H   0  0  0  0  0  0  0  0  0  0  0  0
   58.1030   33.1070   43.8550 H   0  0  0  0  0  0  0  0  0  0  0  0
   57.2629   29.9473   42.7307 H   0  0  0  0  0  0  0  0  0  0  0  0
   58.6883   30.9509   43.1544 H   0  0  0  0  0  0  0  0  0  0  0  0
   60.1132   30.3836   45.0499 H   0  0  0  0  0  0  0  0  0  0  0  0
   60.8103   28.6703   46.7242 H   0  0  0  0  0  0  0  0  0  0  0  0
   59.3574   26.6908   47.1665 H   0  0  0  0  0  0  0  0  0  0  0  0
   55.1480   27.4510   46.0000 H   0  0  0  0  0  0  0  0  0  0  0  0
   56.5117   28.1196   44.2342 H   0  0  0  0  0  0  0  0  0  0  0  0
   61.6387   34.6750   46.1019 H   0  0  0  0  0  0  0  0  0  0  0  0
  1  2  1  0
  2  3  1  0
  3  4  2  0
  4  5  1  0
  5  6  2  0
  6  7  1  0
  7  8  1  0
  8  9  1  0
  9 10  2  0
  9 11  1  0
 11 12  1  0
 12 13  2  0
 13 14  1  0
 14 15  2  0
 15 16  1  0
 16 17  1  0
 17 18  1  0
 17 19  2  0
 17 20  2  0
 16 21  2  0
  6 22  1  0
 22 23  1  0
 22 24  2  0
 24  3  1  0
 21 12  1  0
  1 25  1  0
  1 26  1  0
  1 27  1  0
  4 28  1  0
  5 29  1  0
  7 30  1  0
  7 31  1  0
  8 32  1  0
 11 33  1  0
 11 34  1  0
 13 35  1  0
 14 36  1  0
 15 37  1  0
 18 38  1  0
 21 39  1  0
 24 40  1  0
M  CHG  2  18  -1  23  -1
M  END
>  <UniqueID>  (70) 
68

>  <SMILES>  (70) 
COc1ccc(CNC(=O)Cc2cccc(S([NH-])(=O)=O)c2)c([O-])c1

>  <Energy>  (70) 
31.012727405646967

>  <Genealogy>  (70) 
COc1ccc(CNC(=O)Cc2cccc(S([NH-])(=O)=O)c2)c([O-])c1 (protonated)
COc1ccc(CNC(=O)Cc2cccc(S([NH-])(=O)=O)c2)c([O-])c1 (3D coordinates assigned)
COc1ccc(CNC(=O)Cc2cccc(S([NH-])(=O)=O)c2)c([O-])c1 (optimized conformer: 31.012727405646967 kcal/mol)

>  <smiles>  (70) 
COc1ccc(CNC(=O)Cc2cccc(S(N)(=O)=O)c2)c(O)c1

>  <score_type>  (70) 
oracle

>  <origin>  (70) 
adg

>  <m_score__min__energy>  (70) 
-13.529999999999999

>  <m_primary>  (70) 
energy

$$$$
70:0
     RDKit          3D

 47 49  0  0  0  0  0  0  0  0999 V2000
   55.1670   26.5510   45.9900 N   0  0  0  0  0  0  0  0  0  0  0  0
   56.8700   26.8570   45.9900 S   0  0  0  0  0  0  0  0  0  0  0  0
   57.5620   25.8660   45.0970 O   0  0  0  0  0  0  0  0  0  0  0  0
   57.3850   26.7050   47.3940 O   0  0  0  0  0  0  0  0  0  0  0  0
   57.1730   28.4930   45.4120 C   0  0  0  0  0  0  0  0  0  0  0  0
   56.1740   29.1840   44.7130 C   0  0  0  0  0  0  0  0  0  0  0  0
   56.3970   30.4900   44.2700 C   0  0  0  0  0  0  0  0  0  0  0  0
   57.6210   31.1270   44.5330 C   0  0  0  0  0  0  0  0  0  0  0  0
   57.8850   32.5170   44.0220 C   0  0  0  0  0  0  0  0  0  0  0  0
   57.5830   33.4810   45.0700 N   0  0  0  0  0  0  0  0  0  0  0  0
   58.5840   34.2950   45.6840 C   0  0  0  0  0  0  0  0  0  0  0  0
   59.2450   35.1200   44.9970 O   0  0  0  0  0  0  0  0  0  0  0  0
   58.9360   34.0690   47.1170 C   0  0  0  0  0  0  0  0  0  0  0  0
   60.3100   33.4770   47.1810 C   0  0  0  0  0  0  0  0  0  0  0  0
   61.4330   33.9540   46.5250 C   0  0  0  0  0  0  0  0  0  0  0  0
   62.5050   33.2680   47.0670 C   0  0  0  0  0  0  0  0  0  0  0  0
   63.8380   33.4680   46.7250 O   0  0  0  0  0  0  0  0  0  0  0  0
   62.0960   32.3930   48.0070 N   0  0  0  0  0  0  0  0  0  0  0  0
   62.9480   31.5980   48.8920 C   0  0  0  0  0  0  0  0  0  0  0  0
   63.8000   32.5030   49.7460 C   0  0  0  0  0  0  0  0  0  0  0  0
   63.2070   33.5010   50.5380 C   0  0  0  0  0  0  0  0  0  0  0  0
   64.0000   34.3240   51.3450 C   0  0  0  0  0  0  0  0  0  0  0  0
   65.3870   34.1620   51.3650 C   0  0  0  0  0  0  0  0  0  0  0  0
   65.9840   33.1760   50.5740 C   0  0  0  0  0  0  0  0  0  0  0  0
   65.1960   32.3500   49.7680 C   0  0  0  0  0  0  0  0  0  0  0  0
   60.7580   32.5370   48.0900 C   0  0  0  0  0  0  0  0  0  0  0  0
   59.9570   31.8540   48.9970 O   0  0  0  0  0  0  0  0  0  0  0  0
   58.6290   30.4230   45.2090 C   0  0  0  0  0  0  0  0  0  0  0  0
   58.4060   29.1140   45.6470 C   0  0  0  0  0  0  0  0  0  0  0  0
   54.7620   27.0830   46.7930 H   0  0  0  0  0  0  0  0  0  0  0  0
   55.2092   28.6954   44.5121 H   0  0  0  0  0  0  0  0  0  0  0  0
   55.6112   31.0215   43.7132 H   0  0  0  0  0  0  0  0  0  0  0  0
   58.9426   32.6075   43.7333 H   0  0  0  0  0  0  0  0  0  0  0  0
   57.2494   32.7142   43.1461 H   0  0  0  0  0  0  0  0  0  0  0  0
   58.9188   35.0262   47.6587 H   0  0  0  0  0  0  0  0  0  0  0  0
   58.2092   33.3857   47.5804 H   0  0  0  0  0  0  0  0  0  0  0  0
   61.4656   34.7199   45.7362 H   0  0  0  0  0  0  0  0  0  0  0  0
   64.5130   32.7160   46.8020 H   0  0  0  0  0  0  0  0  0  0  0  0
   62.3158   30.9748   49.5416 H   0  0  0  0  0  0  0  0  0  0  0  0
   63.6032   30.9596   48.2811 H   0  0  0  0  0  0  0  0  0  0  0  0
   62.1154   33.6356   50.5234 H   0  0  0  0  0  0  0  0  0  0  0  0
   63.5296   35.1010   51.9656 H   0  0  0  0  0  0  0  0  0  0  0  0
   66.0084   34.8088   52.0018 H   0  0  0  0  0  0  0  0  0  0  0  0
   67.0767   33.0500   50.5861 H   0  0  0  0  0  0  0  0  0  0  0  0
   65.6715   31.5760   49.1476 H   0  0  0  0  0  0  0  0  0  0  0  0
   59.6006   30.9038   45.3955 H   0  0  0  0  0  0  0  0  0  0  0  0
   59.2014   28.5704   46.1778 H   0  0  0  0  0  0  0  0  0  0  0  0
  1  2  1  0
  2  3  2  0
  2  4  2  0
  2  5  1  0
  5  6  2  0
  6  7  1  0
  7  8  2  0
  8  9  1  0
  9 10  1  0
 10 11  1  0
 11 12  2  0
 11 13  1  0
 13 14  1  0
 14 15  1  0
 15 16  2  0
 16 17  1  0
 16 18  1  0
 18 19  1  0
 19 20  1  0
 20 21  2  0
 21 22  1  0
 22 23  2  0
 23 24  1  0
 24 25  2  0
 18 26  1  0
 26 27  1  0
  8 28  1  0
 28 29  2  0
 29  5  1  0
 26 14  2  0
 25 20  1  0
  1 30  1  0
  6 31  1  0
  7 32  1  0
  9 33  1  0
  9 34  1  0
 13 35  1  0
 13 36  1  0
 15 37  1  0
 17 38  1  0
 19 39  1  0
 19 40  1  0
 21 41  1  0
 22 42  1  0
 23 43  1  0
 24 44  1  0
 25 45  1  0
 28 46  1  0
 29 47  1  0
M  CHG  3   1  -1  10  -1  27  -1
M  END
>  <UniqueID>  (71) 
69

>  <SMILES>  (71) 
[NH-]S(=O)(=O)c1ccc(C[N-]C(=O)Cc2cc(O)n(Cc3ccccc3)c2[O-])cc1

>  <Energy>  (71) 
65.50631912167704

>  <Genealogy>  (71) 
[NH-]S(=O)(=O)c1ccc(C[N-]C(=O)Cc2cc(O)n(Cc3ccccc3)c2[O-])cc1 (protonated)
[NH-]S(=O)(=O)c1ccc(C[N-]C(=O)Cc2cc(O)n(Cc3ccccc3)c2[O-])cc1 (3D coordinates assigned)
[NH-]S(=O)(=O)c1ccc(C[N-]C(=O)Cc2cc(O)n(Cc3ccccc3)c2[O-])cc1 (optimized conformer: 65.50631912167704 kcal/mol)

>  <smiles>  (71) 
NS(=O)(=O)c1ccc(CNC(=O)Cc2cc(O)n(Cc3ccccc3)c2O)cc1

>  <score_type>  (71) 
oracle

>  <origin>  (71) 
adg

>  <m_score__min__energy>  (71) 
-13.09

>  <m_primary>  (71) 
energy

$$$$
71:0
     RDKit          3D

 46 46  0  0  0  0  0  0  0  0999 V2000
   58.4340   32.6528   42.4151 H   0  0  0  0  0  0  0  0  0  0  0  0
   58.1250   32.7540   43.4660 C   0  0  0  0  0  0  0  0  0  0  0  0
   57.7860   32.8650   44.6190 C   0  0  0  0  0  0  0  0  0  0  0  0
   57.3800   33.0030   46.0230 C   0  0  0  0  0  0  0  0  0  0  0  0
   56.2914   33.1539   46.0703 H   0  0  0  0  0  0  0  0  0  0  0  0
   57.6640   32.0879   46.5633 H   0  0  0  0  0  0  0  0  0  0  0  0
   58.0800   34.1950   46.6770 C   0  0  0  0  0  0  0  0  0  0  0  0
   57.5278   35.1147   46.4337 H   0  0  0  0  0  0  0  0  0  0  0  0
   58.1014   34.0360   47.7652 H   0  0  0  0  0  0  0  0  0  0  0  0
   59.4220   34.3180   46.2080 O   0  0  0  0  0  0  0  0  0  0  0  0
   60.5370   33.8480   46.9130 C   0  0  0  0  0  0  0  0  0  0  0  0
   61.6250   33.6450   46.3100 O   0  0  0  0  0  0  0  0  0  0  0  0
   59.8880   32.5890   48.9950 C   0  0  0  0  0  0  0  0  0  0  0  0
   61.7643   30.1931   46.5738 H   0  0  0  0  0  0  0  0  0  0  0  0
   60.2760   29.0450   45.6330 C   0  0  0  0  0  0  0  0  0  0  0  0
   59.9530   31.2040   48.4730 C   0  0  0  0  0  0  0  0  0  0  0  0
   60.1681   30.3806   49.1700 H   0  0  0  0  0  0  0  0  0  0  0  0
   59.7580   30.9250   47.1800 C   0  0  0  0  0  0  0  0  0  0  0  0
   58.8968   31.3635   46.6545 H   0  0  0  0  0  0  0  0  0  0  0  0
   60.4850   33.6260   48.3740 C   0  0  0  0  0  0  0  0  0  0  0  0
   60.9779   34.3746   49.0117 H   0  0  0  0  0  0  0  0  0  0  0  0
   60.6830   30.0360   46.4470 C   0  0  0  0  0  0  0  0  0  0  0  0
   58.9270   28.4350   45.7400 C   0  0  0  0  0  0  0  0  0  0  0  0
   57.8780   28.9040   44.9260 C   0  0  0  0  0  0  0  0  0  0  0  0
   58.1010   29.9540   44.0340 O   0  0  0  0  0  0  0  0  0  0  0  0
   58.2780   29.7870   43.0510 H   0  0  0  0  0  0  0  0  0  0  0  0
   56.6070   28.3260   45.0200 C   0  0  0  0  0  0  0  0  0  0  0  0
   55.7890   28.6950   44.3838 H   0  0  0  0  0  0  0  0  0  0  0  0
   56.3730   27.2830   45.9180 C   0  0  0  0  0  0  0  0  0  0  0  0
   55.1070   26.7160   46.0080 O   0  0  0  0  0  0  0  0  0  0  0  0
   57.4090   26.8080   46.7260 C   0  0  0  0  0  0  0  0  0  0  0  0
   57.2183   25.9872   47.4331 H   0  0  0  0  0  0  0  0  0  0  0  0
   58.6950   27.3730   46.6410 C   0  0  0  0  0  0  0  0  0  0  0  0
   59.7610   26.9110   47.4330 O   0  0  0  0  0  0  0  0  0  0  0  0
   60.1560   27.4900   48.6720 C   0  0  0  0  0  0  0  0  0  0  0  0
   59.7490   26.8935   49.5018 H   0  0  0  0  0  0  0  0  0  0  0  0
   61.2540   27.5058   48.7358 H   0  0  0  0  0  0  0  0  0  0  0  0
   59.7702   28.5181   48.7358 H   0  0  0  0  0  0  0  0  0  0  0  0
   59.1220   32.8540   50.2670 C   0  0  0  0  0  0  0  0  0  0  0  0
   59.7623   32.6325   51.1335 H   0  0  0  0  0  0  0  0  0  0  0  0
   58.8162   33.9102   50.2976 H   0  0  0  0  0  0  0  0  0  0  0  0
   58.2289   32.2126   50.2976 H   0  0  0  0  0  0  0  0  0  0  0  0
   61.2000   28.5660   44.5490 C   0  0  0  0  0  0  0  0  0  0  0  0
   62.0896   28.1048   45.0028 H   0  0  0  0  0  0  0  0  0  0  0  0
   60.6800   27.8239   43.9254 H   0  0  0  0  0  0  0  0  0  0  0  0
   61.5067   29.4186   43.9254 H   0  0  0  0  0  0  0  0  0  0  0  0
  1  2  1  0
  2  3  3  0
  3  4  1  0
  4  5  1  0
  4  6  1  0
  4  7  1  0
  7  8  1  0
  7  9  1  0
  7 10  1  0
 10 11  1  0
 11 12  2  0
 11 13  1  0
 13 14  1  0
 13 15  2  0
 15 16  1  0
 16 17  1  0
 16 18  2  0
 18 19  1  0
 18 20  1  0
 20 21  1  0
 20 22  2  3
 22 23  1  0
 23 24  2  0
 24 25  1  0
 25 26  1  0
 24 27  1  0
 27 28  1  0
 27 29  2  0
 29 30  1  0
 29 31  1  0
 31 32  1  0
 31 33  2  0
 33 34  1  0
 34 35  1  0
 35 36  1  0
 35 37  1  0
 35 38  1  0
 22 39  1  0
 39 40  1  0
 39 41  1  0
 39 42  1  0
 15 43  1  0
 43 44  1  0
 43 45  1  0
 43 46  1  0
 33 23  1  0
M  CHG  1  30  -1
M  END
>  <UniqueID>  (72) 
70

>  <SMILES>  (72) 
C#CCCOC(=O)C=C(C)/C=C/C=C(C)c1c(O)cc([O-])cc1OC

>  <Energy>  (72) 
45.34728316422313

>  <Genealogy>  (72) 
C#CCCOC(=O)C=C(C)C=CC=C(C)c1c(O)cc([O-])cc1OC (protonated)
C#CCCOC(=O)C=C(C)/C=C/C=C(C)c1c(O)cc([O-])cc1OC (cis-trans isomerization)
C#CCCOC(=O)C=C(C)/C=C/C=C(C)c1c(O)cc([O-])cc1OC (3D coordinates assigned)
C#CCCOC(=O)C=C(C)/C=C/C=C(C)c1c(O)cc([O-])cc1OC (optimized conformer: 45.34728316422313 kcal/mol)

>  <smiles>  (72) 
C#CCCOC(=O)C=C(C)C=CC=C(C)c1c(O)cc(O)cc1OC

>  <score_type>  (72) 
oracle

>  <origin>  (72) 
adg

>  <m_score__min__energy>  (72) 
-10.140000000000001

>  <m_primary>  (72) 
energy

$$$$
72:0
     RDKit          3D

 48 50  0  0  0  0  0  0  0  0999 V2000
   59.7730   33.4410   50.6380 C   0  0  0  0  0  0  0  0  0  0  0  0
   58.8890   33.4690   49.5230 O   0  0  0  0  0  0  0  0  0  0  0  0
   59.3350   33.5800   48.2030 C   0  0  0  0  0  0  0  0  0  0  0  0
   60.6910   33.7940   47.9540 C   0  0  0  0  0  0  0  0  0  0  0  0
   61.1190   33.9140   46.6320 C   0  0  0  0  0  0  0  0  0  0  0  0
   62.4740   34.1310   46.3650 O   0  0  0  0  0  0  0  0  0  0  0  0
   63.5120   33.4080   47.0150 C   0  0  0  0  0  0  0  0  0  0  0  0
   60.2140   33.8200   45.6200 N   0  0  0  0  0  0  0  0  0  0  0  0
   58.8960   33.6030   45.8690 C   0  0  0  0  0  0  0  0  0  0  0  0
   58.0640   33.5460   44.8710 N   0  0  0  0  0  0  0  0  0  0  0  0
   57.7510   32.3780   44.0930 C   0  0  0  0  0  0  0  0  0  0  0  0
   57.4220   32.5290   42.8870 O   0  0  0  0  0  0  0  0  0  0  0  0
   57.8430   31.0090   44.6490 C   0  0  0  0  0  0  0  0  0  0  0  0
   57.8570   29.9440   43.8300 C   0  0  0  0  0  0  0  0  0  0  0  0
   58.0570   28.5430   44.3410 C   0  0  0  0  0  0  0  0  0  0  0  0
   57.6780   28.4080   45.7600 N   0  0  0  0  0  0  0  0  0  0  0  0
   58.1630   26.8360   46.3500 S   0  0  0  0  0  0  0  0  0  0  0  0
   57.9350   26.7710   47.8340 O   0  0  0  0  0  0  0  0  0  0  0  0
   59.6340   26.6410   46.1020 O   0  0  0  0  0  0  0  0  0  0  0  0
   57.2490   25.5370   45.5650 C   0  0  0  0  0  0  0  0  0  0  0  0
   57.9350   24.4340   45.0340 C   0  0  0  0  0  0  0  0  0  0  0  0
   57.2340   23.3800   44.4440 C   0  0  0  0  0  0  0  0  0  0  0  0
   55.8380   23.4170   44.3730 C   0  0  0  0  0  0  0  0  0  0  0  0
   55.1510   22.3560   43.7880 O   0  0  0  0  0  0  0  0  0  0  0  0
   55.1450   24.5170   44.8940 C   0  0  0  0  0  0  0  0  0  0  0  0
   55.8430   25.5750   45.4870 C   0  0  0  0  0  0  0  0  0  0  0  0
   55.1290   26.6510   46.0010 O   0  0  0  0  0  0  0  0  0  0  0  0
   58.3110   29.4600   46.5690 C   0  0  0  0  0  0  0  0  0  0  0  0
   57.7690   30.8240   46.1440 C   0  0  0  0  0  0  0  0  0  0  0  0
   58.4660   33.4910   47.1580 N   0  0  0  0  0  0  0  0  0  0  0  0
   59.1886   33.4595   51.5698 H   0  0  0  0  0  0  0  0  0  0  0  0
   60.3784   32.5232   50.6030 H   0  0  0  0  0  0  0  0  0  0  0  0
   60.4352   34.3186   50.6030 H   0  0  0  0  0  0  0  0  0  0  0  0
   61.4088   33.8667   48.7844 H   0  0  0  0  0  0  0  0  0  0  0  0
   63.3907   33.4925   48.1050 H   0  0  0  0  0  0  0  0  0  0  0  0
   63.4607   32.3492   46.7214 H   0  0  0  0  0  0  0  0  0  0  0  0
   64.4874   33.8231   46.7214 H   0  0  0  0  0  0  0  0  0  0  0  0
   57.7176   30.1015   42.7503 H   0  0  0  0  0  0  0  0  0  0  0  0
   57.4401   27.8563   43.7427 H   0  0  0  0  0  0  0  0  0  0  0  0
   59.1264   28.3008   44.2526 H   0  0  0  0  0  0  0  0  0  0  0  0
   59.0334   24.3993   45.0828 H   0  0  0  0  0  0  0  0  0  0  0  0
   57.7815   22.5185   44.0341 H   0  0  0  0  0  0  0  0  0  0  0  0
   55.5510   21.4250   43.7450 H   0  0  0  0  0  0  0  0  0  0  0  0
   54.0470   24.5494   44.8368 H   0  0  0  0  0  0  0  0  0  0  0  0
   58.0854   29.2907   47.6322 H   0  0  0  0  0  0  0  0  0  0  0  0
   59.4001   29.4344   46.4170 H   0  0  0  0  0  0  0  0  0  0  0  0
   56.7193   30.9061   46.4624 H   0  0  0  0  0  0  0  0  0  0  0  0
   58.3851   31.6022   46.6181 H   0  0  0  0  0  0  0  0  0  0  0  0
  1  2  1  0
  2  3  1  0
  3  4  1  0
  4  5  2  0
  5  6  1  0
  6  7  1  0
  5  8  1  0
  8  9  1  0
  9 10  2  3
 10 11  1  0
 11 12  2  0
 11 13  1  0
 13 14  2  0
 14 15  1  0
 15 16  1  0
 16 17  1  0
 17 18  2  0
 17 19  2  0
 17 20  1  0
 20 21  2  0
 21 22  1  0
 22 23  2  0
 23 24  1  0
 23 25  1  0
 25 26  2  0
 26 27  1  0
 16 28  1  0
 28 29  1  0
  9 30  1  0
 30  3  2  0
 29 13  1  0
 26 20  1  0
  1 31  1  0
  1 32  1  0
  1 33  1  0
  4 34  1  0
  7 35  1  0
  7 36  1  0
  7 37  1  0
 14 38  1  0
 15 39  1  0
 15 40  1  0
 21 41  1  0
 22 42  1  0
 24 43  1  0
 25 44  1  0
 28 45  1  0
 28 46  1  0
 29 47  1  0
 29 48  1  0
M  CHG  2   8  -1  27  -1
M  END
>  <UniqueID>  (73) 
71

>  <SMILES>  (73) 
COc1cc(OC)[n-]c(=NC(=O)C2=CCN(S(=O)(=O)c3ccc(O)cc3[O-])CC2)n1

>  <Energy>  (73) 
50.426010265989014

>  <Genealogy>  (73) 
COc1cc(OC)[n-]c(=NC(=O)C2=CCN(S(=O)(=O)c3ccc(O)cc3[O-])CC2)n1 (protonated)
COc1cc(OC)[n-]c(=NC(=O)C2=CCN(S(=O)(=O)c3ccc(O)cc3[O-])CC2)n1 (3D coordinates assigned)
COc1cc(OC)[n-]c(=NC(=O)C2=CCN(S(=O)(=O)c3ccc(O)cc3[O-])CC2)n1 (nonaromatic ring conformer: 50.426010265989014 kcal/mol)

>  <smiles>  (73) 
COc1cc(OC)[nH]c(=NC(=O)C2=CCN(S(=O)(=O)c3ccc(O)cc3O)CC2)n1

>  <score_type>  (73) 
oracle

>  <origin>  (73) 
adg

>  <m_score__min__energy>  (73) 
-13.359999999999999

>  <m_primary>  (73) 
energy

$$$$
73:0
     RDKit          3D

 49 51  0  0  0  0  0  0  0  0999 V2000
   57.3400   22.3980   44.3670 C   0  0  0  0  0  0  0  0  0  0  0  0
   56.8780   23.4920   44.9920 C   0  0  0  0  0  0  0  0  0  0  0  0
   55.5350   23.7410   45.0070 N   0  0  0  0  0  0  0  0  0  0  0  0
   55.0320   24.8400   45.6260 C   0  0  0  0  0  0  0  0  0  0  0  0
   53.7900   25.0540   45.6290 O   0  0  0  0  0  0  0  0  0  0  0  0
   55.8630   25.7140   46.2450 N   0  0  0  0  0  0  0  0  0  0  0  0
   57.2100   25.5260   46.2770 C   0  0  0  0  0  0  0  0  0  0  0  0
   57.9980   26.4290   46.8950 C   0  0  0  0  0  0  0  0  0  0  0  0
   58.0160   27.8690   46.5500 C   0  0  0  0  0  0  0  0  0  0  0  0
   57.0520   28.3530   45.6560 C   0  0  0  0  0  0  0  0  0  0  0  0
   57.0250   29.7120   45.2950 C   0  0  0  0  0  0  0  0  0  0  0  0
   56.0610   30.2310   44.4150 O   0  0  0  0  0  0  0  0  0  0  0  0
   56.1040   30.0950   42.9980 C   0  0  0  0  0  0  0  0  0  0  0  0
   57.9840   30.5880   45.8200 C   0  0  0  0  0  0  0  0  0  0  0  0
   57.9240   31.9390   45.4430 O   0  0  0  0  0  0  0  0  0  0  0  0
   57.7650   33.0280   46.3490 C   0  0  0  0  0  0  0  0  0  0  0  0
   59.0890   33.3350   46.9860 C   0  0  0  0  0  0  0  0  0  0  0  0
   60.2270   33.5320   46.1920 C   0  0  0  0  0  0  0  0  0  0  0  0
   61.4680   33.7790   46.7850 C   0  0  0  0  0  0  0  0  0  0  0  0
   61.5950   33.8190   48.1850 C   0  0  0  0  0  0  0  0  0  0  0  0
   62.9060   34.0790   48.8190 C   0  0  0  0  0  0  0  0  0  0  0  0
   62.9710   34.6180   49.9560 O   0  0  0  0  0  0  0  0  0  0  0  0
   64.0850   33.7320   48.1680 O   0  0  0  0  0  0  0  0  0  0  0  0
   60.4540   33.6020   48.9770 C   0  0  0  0  0  0  0  0  0  0  0  0
   59.2130   33.3560   48.3830 C   0  0  0  0  0  0  0  0  0  0  0  0
   58.9720   30.0980   46.6940 C   0  0  0  0  0  0  0  0  0  0  0  0
   59.0060   28.7370   47.0520 C   0  0  0  0  0  0  0  0  0  0  0  0
   60.0150   28.2160   47.8800 O   0  0  0  0  0  0  0  0  0  0  0  0
   60.3630   28.7330   49.1590 C   0  0  0  0  0  0  0  0  0  0  0  0
   57.7540   24.3940   45.6340 C   0  0  0  0  0  0  0  0  0  0  0  0
   59.0010   24.1890   45.6340 O   0  0  0  0  0  0  0  0  0  0  0  0
   58.4199   22.1893   44.3497 H   0  0  0  0  0  0  0  0  0  0  0  0
   56.6388   21.7100   43.8720 H   0  0  0  0  0  0  0  0  0  0  0  0
   54.8690   23.0830   44.5370 H   0  0  0  0  0  0  0  0  0  0  0  0
   58.6626   26.0774   47.6979 H   0  0  0  0  0  0  0  0  0  0  0  0
   56.3081   27.6626   45.2318 H   0  0  0  0  0  0  0  0  0  0  0  0
   56.4261   29.0761   42.7371 H   0  0  0  0  0  0  0  0  0  0  0  0
   55.1032   30.2812   42.5812 H   0  0  0  0  0  0  0  0  0  0  0  0
   56.8159   30.8227   42.5812 H   0  0  0  0  0  0  0  0  0  0  0  0
   57.4055   33.9123   45.8024 H   0  0  0  0  0  0  0  0  0  0  0  0
   57.0337   32.7598   47.1257 H   0  0  0  0  0  0  0  0  0  0  0  0
   60.1428   33.4920   45.0960 H   0  0  0  0  0  0  0  0  0  0  0  0
   62.3524   33.9434   46.1519 H   0  0  0  0  0  0  0  0  0  0  0  0
   60.5386   33.6260   50.0735 H   0  0  0  0  0  0  0  0  0  0  0  0
   58.3296   33.1781   49.0139 H   0  0  0  0  0  0  0  0  0  0  0  0
   59.7265   30.7865   47.1022 H   0  0  0  0  0  0  0  0  0  0  0  0
   59.9321   28.0928   49.9429 H   0  0  0  0  0  0  0  0  0  0  0  0
   61.4581   28.7514   49.2615 H   0  0  0  0  0  0  0  0  0  0  0  0
   59.9679   29.7545   49.2615 H   0  0  0  0  0  0  0  0  0  0  0  0
  1  2  2  0
  2  3  1  0
  3  4  1  0
  4  5  2  0
  4  6  1  0
  6  7  1  0
  7  8  2  3
  8  9  1  0
  9 10  2  0
 10 11  1  0
 11 12  1  0
 12 13  1  0
 11 14  2  0
 14 15  1  0
 15 16  1  0
 16 17  1  0
 17 18  2  0
 18 19  1  0
 19 20  2  0
 20 21  1  0
 21 22  2  0
 21 23  1  0
 20 24  1  0
 24 25  2  0
 14 26  1  0
 26 27  2  0
 27 28  1  0
 28 29  1  0
  7 30  1  0
 30 31  2  0
 30  2  1  0
 27  9  1  0
 25 17  1  0
  1 32  1  0
  1 33  1  0
  3 34  1  0
  8 35  1  0
 10 36  1  0
 13 37  1  0
 13 38  1  0
 13 39  1  0
 16 40  1  0
 16 41  1  0
 18 42  1  0
 19 43  1  0
 24 44  1  0
 25 45  1  0
 26 46  1  0
 29 47  1  0
 29 48  1  0
 29 49  1  0
M  CHG  2   6  -1  23  -1
M  END
>  <UniqueID>  (74) 
72

>  <SMILES>  (74) 
C=c1[nH]c(=O)[n-]c(=Cc2cc(OC)c(OCc3ccc(C(=O)[O-])cc3)cc2OC)c1=O

>  <Energy>  (74) 
62.113827256161265

>  <Genealogy>  (74) 
C=c1[nH]c(=O)[n-]c(=Cc2cc(OC)c(OCc3ccc(C(=O)[O-])cc3)cc2OC)c1=O (protonated)
C=c1[nH]c(=O)[n-]c(=Cc2cc(OC)c(OCc3ccc(C(=O)[O-])cc3)cc2OC)c1=O (3D coordinates assigned)
C=c1[nH]c(=O)[n-]c(=Cc2cc(OC)c(OCc3ccc(C(=O)[O-])cc3)cc2OC)c1=O (optimized conformer: 62.113827256161265 kcal/mol)

>  <smiles>  (74) 
C=c1[nH]c(=O)[nH]c(=Cc2cc(OC)c(OCc3ccc(C(=O)O)cc3)cc2OC)c1=O

>  <score_type>  (74) 
oracle

>  <origin>  (74) 
adg

>  <m_score__min__energy>  (74) 
-12.73

>  <m_primary>  (74) 
energy

$$$$
74:0
     RDKit          3D

 57 60  0  0  0  0  0  0  0  0999 V2000
   57.5884   31.6073   41.2939 H   0  0  0  0  0  0  0  0  0  0  0  0
   57.5230   31.6520   42.3910 C   0  0  0  0  0  0  0  0  0  0  0  0
   56.8570   30.6820   43.0710 N   0  0  0  0  0  0  0  0  0  0  0  0
   56.7580   30.6790   44.4270 C   0  0  0  0  0  0  0  0  0  0  0  0
   56.0920   29.7140   44.9980 N   0  0  0  0  0  0  0  0  0  0  0  0
   56.6130   28.4880   45.5330 C   0  0  0  0  0  0  0  0  0  0  0  0
   55.8430   27.4940   45.6240 O   0  0  0  0  0  0  0  0  0  0  0  0
   58.0340   28.3370   45.9290 C   0  0  0  0  0  0  0  0  0  0  0  0
   58.4320   28.7770   47.2010 C   0  0  0  0  0  0  0  0  0  0  0  0
   57.6878   29.2032   47.8899 H   0  0  0  0  0  0  0  0  0  0  0  0
   59.7640   28.6770   47.5960 C   0  0  0  0  0  0  0  0  0  0  0  0
   60.0776   29.0342   48.5880 H   0  0  0  0  0  0  0  0  0  0  0  0
   60.6950   28.1200   46.7220 C   0  0  0  0  0  0  0  0  0  0  0  0
   61.7486   28.0333   47.0261 H   0  0  0  0  0  0  0  0  0  0  0  0
   60.3060   27.6830   45.4940 N   0  0  0  0  0  0  0  0  0  0  0  0
   61.0240   27.2570   44.8650 H   0  0  0  0  0  0  0  0  0  0  0  0
   59.0110   27.7690   45.0760 C   0  0  0  0  0  0  0  0  0  0  0  0
   58.5930   27.0930   43.4600 S   0  0  0  0  0  0  0  0  0  0  0  0
   57.8960   25.5960   44.1600 C   0  0  0  0  0  0  0  0  0  0  0  0
   58.1420   25.2700   45.5000 C   0  0  0  0  0  0  0  0  0  0  0  0
   58.7706   25.9274   46.1186 H   0  0  0  0  0  0  0  0  0  0  0  0
   57.5900   24.1110   46.0520 C   0  0  0  0  0  0  0  0  0  0  0  0
   57.7905   23.8554   47.1029 H   0  0  0  0  0  0  0  0  0  0  0  0
   56.7790   23.2700   45.2690 C   0  0  0  0  0  0  0  0  0  0  0  0
   56.1960   22.0140   45.8470 C   0  0  0  0  0  0  0  0  0  0  0  0
   56.2217   22.0694   46.9453 H   0  0  0  0  0  0  0  0  0  0  0  0
   55.1548   21.9040   45.5097 H   0  0  0  0  0  0  0  0  0  0  0  0
   56.7841   21.1478   45.5097 H   0  0  0  0  0  0  0  0  0  0  0  0
   56.5500   23.5930   43.9220 C   0  0  0  0  0  0  0  0  0  0  0  0
   55.9312   22.9314   43.2979 H   0  0  0  0  0  0  0  0  0  0  0  0
   57.1050   24.7520   43.3700 C   0  0  0  0  0  0  0  0  0  0  0  0
   56.9202   25.0010   42.3146 H   0  0  0  0  0  0  0  0  0  0  0  0
   57.3490   31.7320   45.1560 C   0  0  0  0  0  0  0  0  0  0  0  0
   57.2785   31.7513   46.2536 H   0  0  0  0  0  0  0  0  0  0  0  0
   58.0260   32.7530   44.4770 C   0  0  0  0  0  0  0  0  0  0  0  0
   58.6400   33.8670   45.2300 C   0  0  0  0  0  0  0  0  0  0  0  0
   58.4450   35.0480   44.8380 O   0  0  0  0  0  0  0  0  0  0  0  0
   59.4380   33.6320   46.4070 N   0  0  0  0  0  0  0  0  0  0  0  0
   59.5100   34.6670   47.4450 C   0  0  0  0  0  0  0  0  0  0  0  0
   59.9620   35.5741   47.0174 H   0  0  0  0  0  0  0  0  0  0  0  0
   58.4908   34.8752   47.8027 H   0  0  0  0  0  0  0  0  0  0  0  0
   60.3600   34.1960   48.6370 C   0  0  0  0  0  0  0  0  0  0  0  0
   61.4243   34.2992   48.3788 H   0  0  0  0  0  0  0  0  0  0  0  0
   60.1035   34.8173   49.5078 H   0  0  0  0  0  0  0  0  0  0  0  0
   60.0850   32.7840   48.9810 N   0  0  0  0  0  0  0  0  0  0  0  0
   58.7410   32.6140   49.5570 C   0  0  0  0  0  0  0  0  0  0  0  0
   58.8088   32.6226   50.6549 H   0  0  0  0  0  0  0  0  0  0  0  0
   58.0922   33.4372   49.2233 H   0  0  0  0  0  0  0  0  0  0  0  0
   58.3176   31.6551   49.2233 H   0  0  0  0  0  0  0  0  0  0  0  0
   60.3300   31.8390   47.8580 C   0  0  0  0  0  0  0  0  0  0  0  0
   61.2925   31.3362   48.0337 H   0  0  0  0  0  0  0  0  0  0  0  0
   59.4811   31.1396   47.8419 H   0  0  0  0  0  0  0  0  0  0  0  0
   60.3800   32.5080   46.4700 C   0  0  0  0  0  0  0  0  0  0  0  0
   61.3987   32.8785   46.2832 H   0  0  0  0  0  0  0  0  0  0  0  0
   60.1005   31.7663   45.7072 H   0  0  0  0  0  0  0  0  0  0  0  0
   58.1220   32.7010   43.0800 C   0  0  0  0  0  0  0  0  0  0  0  0
   58.6671   33.4840   42.5325 H   0  0  0  0  0  0  0  0  0  0  0  0
  1  2  1  0
  2  3  1  0
  3  4  1  0
  4  5  2  0
  5  6  1  0
  6  7  2  0
  6  8  1  0
  8  9  2  0
  9 10  1  0
  9 11  1  0
 11 12  1  0
 11 13  2  0
 13 14  1  0
 13 15  1  0
 15 16  1  0
 15 17  2  0
 17 18  1  0
 18 19  1  0
 19 20  2  0
 20 21  1  0
 20 22  1  0
 22 23  1  0
 22 24  2  0
 24 25  1  0
 25 26  1  0
 25 27  1  0
 25 28  1  0
 24 29  1  0
 29 30  1  0
 29 31  2  0
 31 32  1  0
  4 33  1  0
 33 34  1  0
 33 35  2  0
 35 36  1  0
 36 37  2  0
 36 38  1  0
 38 39  1  0
 39 40  1  0
 39 41  1  0
 39 42  1  0
 42 43  1  0
 42 44  1  0
 42 45  1  0
 45 46  1  0
 46 47  1  0
 46 48  1  0
 46 49  1  0
 45 50  1  0
 50 51  1  0
 50 52  1  0
 50 53  1  0
 53 54  1  0
 53 55  1  0
 35 56  1  0
 56 57  1  0
 56  2  2  0
 17  8  1  0
 31 19  1  0
 53 38  1  0
M  CHG  2   3  -1  15   1
M  END
>  <UniqueID>  (75) 
73

>  <SMILES>  (75) 
Cc1ccc(Sc2[nH+]cccc2C(=O)/N=c2\cc(C(=O)N3CCN(C)CC3)cc[n-]2)cc1

>  <Energy>  (75) 
80.65630440877253

>  <Genealogy>  (75) 
Cc1ccc(Sc2[nH+]cccc2C(=O)N=c2cc(C(=O)N3CCN(C)CC3)cc[n-]2)cc1 (protonated)
Cc1ccc(Sc2[nH+]cccc2C(=O)/N=c2\cc(C(=O)N3CCN(C)CC3)cc[n-]2)cc1 (cis-trans isomerization)
Cc1ccc(Sc2[nH+]cccc2C(=O)/N=c2\cc(C(=O)N3CCN(C)CC3)cc[n-]2)cc1 (3D coordinates assigned)
Cc1ccc(Sc2[nH+]cccc2C(=O)/N=c2\cc(C(=O)N3CCN(C)CC3)cc[n-]2)cc1 (nonaromatic ring conformer: 80.65630440877253 kcal/mol)

>  <smiles>  (75) 
Cc1ccc(Sc2ncccc2C(=O)N=c2cc(C(=O)N3CCN(C)CC3)cc[nH]2)cc1

>  <score_type>  (75) 
oracle

>  <origin>  (75) 
adg

>  <m_score__min__energy>  (75) 
-9.4299999999999997

>  <m_primary>  (75) 
energy

$$$$
75:0
     RDKit          3D

 45 47  0  0  0  0  0  0  0  0999 V2000
   59.8289   27.5212   47.5857 H   0  0  0  0  0  0  0  0  0  0  0  0
   58.9930   26.8190   47.4510 C   0  0  0  0  0  0  0  0  0  0  0  0
   58.5776   26.2854   48.3186 H   0  0  0  0  0  0  0  0  0  0  0  0
   58.4790   26.6130   46.2260 C   0  0  0  0  0  0  0  0  0  0  0  0
   57.4200   25.7500   45.9210 C   0  0  0  0  0  0  0  0  0  0  0  0
   56.7440   24.9460   46.7660 C   0  0  0  0  0  0  0  0  0  0  0  0
   57.1315   24.8201   47.7877 H   0  0  0  0  0  0  0  0  0  0  0  0
   55.5080   24.2240   46.3910 C   0  0  0  0  0  0  0  0  0  0  0  0
   54.3770   24.9390   45.9700 C   0  0  0  0  0  0  0  0  0  0  0  0
   54.3920   26.3280   45.9330 O   0  0  0  0  0  0  0  0  0  0  0  0
   53.2510   24.2740   45.6020 N   0  0  0  0  0  0  0  0  0  0  0  0
   53.1990   22.9180   45.6200 C   0  0  0  0  0  0  0  0  0  0  0  0
   52.1440   22.3250   45.2800 O   0  0  0  0  0  0  0  0  0  0  0  0
   54.2890   22.2020   45.9990 N   0  0  0  0  0  0  0  0  0  0  0  0
   55.4390   22.8180   46.3730 C   0  0  0  0  0  0  0  0  0  0  0  0
   56.4400   22.1190   46.6840 O   0  0  0  0  0  0  0  0  0  0  0  0
   57.2280   25.8350   44.5510 C   0  0  0  0  0  0  0  0  0  0  0  0
   56.4847   25.2838   43.9563 H   0  0  0  0  0  0  0  0  0  0  0  0
   58.1510   26.7460   44.0780 C   0  0  0  0  0  0  0  0  0  0  0  0
   58.3290   27.0830   42.6280 C   0  0  0  0  0  0  0  0  0  0  0  0
   58.8410   28.0523   42.5370 H   0  0  0  0  0  0  0  0  0  0  0  0
   58.9325   26.3025   42.1416 H   0  0  0  0  0  0  0  0  0  0  0  0
   57.3441   27.1414   42.1416 H   0  0  0  0  0  0  0  0  0  0  0  0
   58.9170   27.2230   45.0900 N   0  0  0  0  0  0  0  0  0  0  0  0
   60.0390   28.1630   44.9350 C   0  0  0  0  0  0  0  0  0  0  0  0
   60.8206   27.9167   45.6688 H   0  0  0  0  0  0  0  0  0  0  0  0
   60.4350   28.0760   43.9125 H   0  0  0  0  0  0  0  0  0  0  0  0
   59.5800   29.5800   45.1580 C   0  0  0  0  0  0  0  0  0  0  0  0
   58.5780   30.1370   44.3480 C   0  0  0  0  0  0  0  0  0  0  0  0
   58.1334   29.5386   43.5391 H   0  0  0  0  0  0  0  0  0  0  0  0
   58.1420   31.4470   44.5630 C   0  0  0  0  0  0  0  0  0  0  0  0
   57.3572   31.8752   43.9221 H   0  0  0  0  0  0  0  0  0  0  0  0
   58.7000   32.2170   45.5910 C   0  0  0  0  0  0  0  0  0  0  0  0
   58.1700   33.8760   45.8590 S   0  0  0  0  0  0  0  0  0  0  0  0
   58.8210   34.7960   44.8630 O   0  0  0  0  0  0  0  0  0  0  0  0
   56.6810   33.9500   45.6720 O   0  0  0  0  0  0  0  0  0  0  0  0
   58.5660   34.3830   47.4730 N   0  0  0  0  0  0  0  0  0  0  0  0
   59.9950   34.6620   47.5650 C   0  0  0  0  0  0  0  0  0  0  0  0
   60.2900   34.7196   48.6231 H   0  0  0  0  0  0  0  0  0  0  0  0
   60.5584   33.8569   47.0706 H   0  0  0  0  0  0  0  0  0  0  0  0
   60.2141   35.6199   47.0706 H   0  0  0  0  0  0  0  0  0  0  0  0
   59.7070   31.6690   46.3960 C   0  0  0  0  0  0  0  0  0  0  0  0
   60.1548   32.2720   47.1997 H   0  0  0  0  0  0  0  0  0  0  0  0
   60.1450   30.3590   46.1820 C   0  0  0  0  0  0  0  0  0  0  0  0
   60.9360   29.9357   46.8184 H   0  0  0  0  0  0  0  0  0  0  0  0
  1  2  1  0
  2  3  1  0
  2  4  2  0
  4  5  1  0
  5  6  2  0
  6  7  1  0
  6  8  1  0
  8  9  2  0
  9 10  1  0
  9 11  1  0
 11 12  1  0
 12 13  2  0
 12 14  1  0
 14 15  1  0
 15 16  2  0
  5 17  1  0
 17 18  1  0
 17 19  2  0
 19 20  1  0
 20 21  1  0
 20 22  1  0
 20 23  1  0
 19 24  1  0
 24 25  1  0
 25 26  1  0
 25 27  1  0
 25 28  1  0
 28 29  2  0
 29 30  1  0
 29 31  1  0
 31 32  1  0
 31 33  2  0
 33 34  1  0
 34 35  2  0
 34 36  2  0
 34 37  1  0
 37 38  1  0
 38 39  1  0
 38 40  1  0
 38 41  1  0
 33 42  1  0
 42 43  1  0
 42 44  2  0
 44 45  1  0
 24  4  1  0
 44 28  1  0
 15  8  1  0
M  CHG  4  10  -1  11  -1  14  -1  37  -1
M  END
>  <UniqueID>  (76) 
74

>  <SMILES>  (76) 
C=c1/c(=C/c2c([O-])[n-]c(=O)[n-]c2=O)cc(C)n1Cc1ccc(S(=O)(=O)[N-]C)cc1

>  <Energy>  (76) 
83.73199448359155

>  <Genealogy>  (76) 
C=c1c(=Cc2c([O-])[n-]c(=O)[n-]c2=O)cc(C)n1Cc1ccc(S(=O)(=O)[N-]C)cc1 (protonated)
C=c1/c(=C/c2c([O-])[n-]c(=O)[n-]c2=O)cc(C)n1Cc1ccc(S(=O)(=O)[N-]C)cc1 (cis-trans isomerization)
C=c1/c(=C/c2c([O-])[n-]c(=O)[n-]c2=O)cc(C)n1Cc1ccc(S(=O)(=O)[N-]C)cc1 (3D coordinates assigned)
C=c1/c(=C/c2c([O-])[n-]c(=O)[n-]c2=O)cc(C)n1Cc1ccc(S(=O)(=O)[N-]C)cc1 (optimized conformer: 83.73199448359155 kcal/mol)

>  <smiles>  (76) 
C=c1c(=Cc2c(O)[nH]c(=O)[nH]c2=O)cc(C)n1Cc1ccc(S(=O)(=O)NC)cc1

>  <score_type>  (76) 
oracle

>  <origin>  (76) 
adg

>  <m_score__min__energy>  (76) 
-16.199999999999999

>  <m_primary>  (76) 
energy

$$$$
76:0
     RDKit          3D

 59 62  0  0  0  0  0  0  0  0999 V2000
   59.6360   34.4520   44.5030 C   0  0  0  0  0  0  0  0  0  0  0  0
   59.5460   33.9460   45.9140 C   0  0  0  0  0  0  0  0  0  0  0  0
   60.6790   33.9520   46.6640 N   0  0  0  0  0  0  0  0  0  0  0  0
   60.7130   33.4550   47.9290 C   0  0  0  0  0  0  0  0  0  0  0  0
   61.9800   33.5160   48.6980 C   0  0  0  0  0  0  0  0  0  0  0  0
   63.1810   33.0020   48.1710 C   0  0  0  0  0  0  0  0  0  0  0  0
   64.3670   33.0760   48.9090 C   0  0  0  0  0  0  0  0  0  0  0  0
   64.3700   33.6670   50.1740 C   0  0  0  0  0  0  0  0  0  0  0  0
   63.1870   34.1890   50.7040 C   0  0  0  0  0  0  0  0  0  0  0  0
   61.9990   34.1190   49.9700 C   0  0  0  0  0  0  0  0  0  0  0  0
   59.5780   32.9210   48.4660 N   0  0  0  0  0  0  0  0  0  0  0  0
   58.4160   32.8960   47.7630 C   0  0  0  0  0  0  0  0  0  0  0  0
   58.3470   33.4440   46.4740 C   0  0  0  0  0  0  0  0  0  0  0  0
   57.0250   33.4430   45.7210 C   0  0  0  0  0  0  0  0  0  0  0  0
   56.6330   32.1170   45.1950 N   0  0  0  0  0  0  0  0  0  0  0  0
   57.7070   31.3800   44.5010 C   0  0  0  0  0  0  0  0  0  0  0  0
   57.9620   29.9900   45.1150 C   0  0  0  0  0  0  0  0  0  0  0  0
   58.7870   29.0770   44.1740 C   0  0  0  0  0  0  0  0  0  0  0  0
   59.6170   28.0160   44.9250 C   0  0  0  0  0  0  0  0  0  0  0  0
   59.0160   27.6790   46.2250 N   0  0  0  0  0  0  0  0  0  0  0  0
   58.9150   26.3100   46.6540 C   0  0  0  0  0  0  0  0  0  0  0  0
   59.2920   25.9990   47.8180 O   0  0  0  0  0  0  0  0  0  0  0  0
   58.3620   25.2640   45.7660 C   0  0  0  0  0  0  0  0  0  0  0  0
   58.8980   23.9630   45.7740 C   0  0  0  0  0  0  0  0  0  0  0  0
   58.3830   22.9820   44.9210 C   0  0  0  0  0  0  0  0  0  0  0  0
   57.3250   23.2870   44.0600 C   0  0  0  0  0  0  0  0  0  0  0  0
   56.6700   22.0520   43.0030 Cl  0  0  0  0  0  0  0  0  0  0  0  0
   56.7880   24.5780   44.0440 C   0  0  0  0  0  0  0  0  0  0  0  0
   57.3110   25.5650   44.8840 C   0  0  0  0  0  0  0  0  0  0  0  0
   58.6650   28.7460   47.1730 C   0  0  0  0  0  0  0  0  0  0  0  0
   58.6390   30.1190   46.4900 C   0  0  0  0  0  0  0  0  0  0  0  0
   59.8286   35.5350   44.5134 H   0  0  0  0  0  0  0  0  0  0  0  0
   60.4569   33.9386   43.9810 H   0  0  0  0  0  0  0  0  0  0  0  0
   58.6884   34.2531   43.9810 H   0  0  0  0  0  0  0  0  0  0  0  0
   63.1862   32.5396   47.1729 H   0  0  0  0  0  0  0  0  0  0  0  0
   65.2993   32.6677   48.4918 H   0  0  0  0  0  0  0  0  0  0  0  0
   65.3035   33.7217   50.7534 H   0  0  0  0  0  0  0  0  0  0  0  0
   63.1904   34.6556   51.7001 H   0  0  0  0  0  0  0  0  0  0  0  0
   61.0725   34.5381   50.3895 H   0  0  0  0  0  0  0  0  0  0  0  0
   59.5690   32.5530   49.4430 H   0  0  0  0  0  0  0  0  0  0  0  0
   57.5196   32.4411   48.2096 H   0  0  0  0  0  0  0  0  0  0  0  0
   56.2369   33.7904   46.4053 H   0  0  0  0  0  0  0  0  0  0  0  0
   57.1534   34.1048   44.8518 H   0  0  0  0  0  0  0  0  0  0  0  0
   55.8310   32.2340   44.5330 H   0  0  0  0  0  0  0  0  0  0  0  0
   57.4225   31.2527   43.4461 H   0  0  0  0  0  0  0  0  0  0  0  0
   58.6330   31.9649   44.6029 H   0  0  0  0  0  0  0  0  0  0  0  0
   56.9823   29.5086   45.2509 H   0  0  0  0  0  0  0  0  0  0  0  0
   58.0942   28.5605   43.4934 H   0  0  0  0  0  0  0  0  0  0  0  0
   59.4957   29.7220   43.6340 H   0  0  0  0  0  0  0  0  0  0  0  0
   59.6723   27.1054   44.3105 H   0  0  0  0  0  0  0  0  0  0  0  0
   60.6203   28.4290   45.1064 H   0  0  0  0  0  0  0  0  0  0  0  0
   59.7262   23.7165   46.4546 H   0  0  0  0  0  0  0  0  0  0  0  0
   58.8111   21.9687   44.9276 H   0  0  0  0  0  0  0  0  0  0  0  0
   55.9527   24.8171   43.3693 H   0  0  0  0  0  0  0  0  0  0  0  0
   56.8971   26.5837   44.8543 H   0  0  0  0  0  0  0  0  0  0  0  0
   57.6703   28.5373   47.5938 H   0  0  0  0  0  0  0  0  0  0  0  0
   59.4283   28.7689   47.9647 H   0  0  0  0  0  0  0  0  0  0  0  0
   58.0741   30.8285   47.1126 H   0  0  0  0  0  0  0  0  0  0  0  0
   59.6679   30.4860   46.3611 H   0  0  0  0  0  0  0  0  0  0  0  0
  1  2  1  0
  2  3  2  0
  3  4  1  0
  4  5  1  0
  5  6  2  0
  6  7  1  0
  7  8  2  0
  8  9  1  0
  9 10  2  0
  4 11  2  0
 11 12  1  0
 12 13  2  0
 13 14  1  0
 14 15  1  0
 15 16  1  0
 16 17  1  0
 17 18  1  0
 18 19  1  0
 19 20  1  0
 20 21  1  0
 21 22  2  0
 21 23  1  0
 23 24  2  0
 24 25  1  0
 25 26  2  0
 26 27  1  0
 26 28  1  0
 28 29  2  0
 20 30  1  0
 30 31  1  0
 13  2  1  0
 31 17  1  0
 10  5  1  0
 29 23  1  0
  1 32  1  0
  1 33  1  0
  1 34  1  0
  6 35  1  0
  7 36  1  0
  8 37  1  0
  9 38  1  0
 10 39  1  0
 11 40  1  0
 12 41  1  0
 14 42  1  0
 14 43  1  0
 15 44  1  0
 16 45  1  0
 16 46  1  0
 17 47  1  0
 18 48  1  0
 18 49  1  0
 19 50  1  0
 19 51  1  0
 24 52  1  0
 25 53  1  0
 28 54  1  0
 29 55  1  0
 30 56  1  0
 30 57  1  0
 31 58  1  0
 31 59  1  0
M  CHG  1  11   1
M  END
>  <UniqueID>  (77) 
75

>  <SMILES>  (77) 
Cc1nc(-c2ccccc2)[nH+]cc1CNCC1CCN(C(=O)c2ccc(Cl)cc2)CC1

>  <Energy>  (77) 
74.55896238047416

>  <Genealogy>  (77) 
Cc1nc(-c2ccccc2)[nH+]cc1CNCC1CCN(C(=O)c2ccc(Cl)cc2)CC1 (protonated)
Cc1nc(-c2ccccc2)[nH+]cc1CNCC1CCN(C(=O)c2ccc(Cl)cc2)CC1 (3D coordinates assigned)
Cc1nc(-c2ccccc2)[nH+]cc1CNCC1CCN(C(=O)c2ccc(Cl)cc2)CC1 (nonaromatic ring conformer: 74.55896238047416 kcal/mol)

>  <smiles>  (77) 
Cc1nc(-c2ccccc2)ncc1CNCC1CCN(C(=O)c2ccc(Cl)cc2)CC1

>  <score_type>  (77) 
oracle

>  <origin>  (77) 
adg

>  <m_score__min__energy>  (77) 
-8.2899999999999991

>  <m_primary>  (77) 
energy

$$$$
77:0
     RDKit          3D

 59 62  0  0  0  0  0  0  0  0999 V2000
   59.3960   25.1500   46.4690 O   0  0  0  0  0  0  0  0  0  0  0  0
   58.6500   26.1000   46.8370 C   0  0  0  0  0  0  0  0  0  0  0  0
   57.2310   25.9020   46.9800 N   0  0  0  0  0  0  0  0  0  0  0  0
   56.4890   25.0290   46.3600 C   0  0  0  0  0  0  0  0  0  0  0  0
   56.9140   23.7470   46.1650 N   0  0  0  0  0  0  0  0  0  0  0  0
   56.1570   22.8240   45.5090 C   0  0  0  0  0  0  0  0  0  0  0  0
   54.9010   23.1790   45.0140 C   0  0  0  0  0  0  0  0  0  0  0  0
   54.4380   24.4820   45.1970 C   0  0  0  0  0  0  0  0  0  0  0  0
   55.2320   25.4170   45.8700 C   0  0  0  0  0  0  0  0  0  0  0  0
   54.7710   26.7160   46.0480 O   0  0  0  0  0  0  0  0  0  0  0  0
   59.2380   27.4310   47.1150 C   0  0  0  0  0  0  0  0  0  0  0  0
   58.8520   28.1620   48.2530 C   0  0  0  0  0  0  0  0  0  0  0  0
   59.3970   29.4240   48.5050 C   0  0  0  0  0  0  0  0  0  0  0  0
   60.3360   29.9770   47.6260 C   0  0  0  0  0  0  0  0  0  0  0  0
   60.9940   31.5780   47.9550 S   0  0  0  0  0  0  0  0  0  0  0  0
   61.5220   32.1720   46.6780 O   0  0  0  0  0  0  0  0  0  0  0  0
   62.1230   31.4430   48.9390 O   0  0  0  0  0  0  0  0  0  0  0  0
   59.7820   32.6220   48.6450 N   0  0  0  0  0  0  0  0  0  0  0  0
   60.0780   34.0350   48.3880 C   0  0  0  0  0  0  0  0  0  0  0  0
   59.1010   34.6200   47.3480 C   0  0  0  0  0  0  0  0  0  0  0  0
   59.7780   34.6900   45.9590 C   0  0  0  0  0  0  0  0  0  0  0  0
   58.7280   34.7350   44.8400 C   0  0  0  0  0  0  0  0  0  0  0  0
   57.8630   33.5250   44.8140 N   0  0  0  0  0  0  0  0  0  0  0  0
   58.2830   32.5840   43.7530 C   0  0  0  0  0  0  0  0  0  0  0  0
   57.7260   31.2040   43.9970 C   0  0  0  0  0  0  0  0  0  0  0  0
   56.3370   31.0190   44.1200 C   0  0  0  0  0  0  0  0  0  0  0  0
   55.8170   29.7470   44.3760 C   0  0  0  0  0  0  0  0  0  0  0  0
   56.6790   28.6520   44.5120 C   0  0  0  0  0  0  0  0  0  0  0  0
   58.0620   28.8300   44.3940 C   0  0  0  0  0  0  0  0  0  0  0  0
   58.5850   30.1010   44.1370 C   0  0  0  0  0  0  0  0  0  0  0  0
   57.7470   32.8380   46.1280 C   0  0  0  0  0  0  0  0  0  0  0  0
   57.7640   33.8320   47.2940 C   0  0  0  0  0  0  0  0  0  0  0  0
   60.7400   29.2480   46.4980 C   0  0  0  0  0  0  0  0  0  0  0  0
   60.1980   27.9840   46.2480 C   0  0  0  0  0  0  0  0  0  0  0  0
   56.5348   21.8004   45.3695 H   0  0  0  0  0  0  0  0  0  0  0  0
   54.2827   22.4388   44.4850 H   0  0  0  0  0  0  0  0  0  0  0  0
   53.4496   24.7742   44.8126 H   0  0  0  0  0  0  0  0  0  0  0  0
   58.1151   27.7369   48.9503 H   0  0  0  0  0  0  0  0  0  0  0  0
   59.0867   29.9856   49.3984 H   0  0  0  0  0  0  0  0  0  0  0  0
   59.9848   34.5994   49.3275 H   0  0  0  0  0  0  0  0  0  0  0  0
   61.1016   34.1141   47.9931 H   0  0  0  0  0  0  0  0  0  0  0  0
   58.8455   35.6428   47.6621 H   0  0  0  0  0  0  0  0  0  0  0  0
   60.3995   35.5961   45.9064 H   0  0  0  0  0  0  0  0  0  0  0  0
   60.3975   33.7911   45.8240 H   0  0  0  0  0  0  0  0  0  0  0  0
   58.0913   35.6193   44.9905 H   0  0  0  0  0  0  0  0  0  0  0  0
   59.2661   34.7788   43.8816 H   0  0  0  0  0  0  0  0  0  0  0  0
   57.9187   32.9516   42.7824 H   0  0  0  0  0  0  0  0  0  0  0  0
   59.3813   32.5223   43.7566 H   0  0  0  0  0  0  0  0  0  0  0  0
   55.6580   31.8779   44.0144 H   0  0  0  0  0  0  0  0  0  0  0  0
   54.7302   29.6062   44.4707 H   0  0  0  0  0  0  0  0  0  0  0  0
   56.2688   27.6511   44.7117 H   0  0  0  0  0  0  0  0  0  0  0  0
   58.7382   27.9693   44.5035 H   0  0  0  0  0  0  0  0  0  0  0  0
   59.6725   30.2378   44.0441 H   0  0  0  0  0  0  0  0  0  0  0  0
   56.8020   32.2756   46.1534 H   0  0  0  0  0  0  0  0  0  0  0  0
   58.6106   32.1658   46.2395 H   0  0  0  0  0  0  0  0  0  0  0  0
   56.9342   34.5433   47.1699 H   0  0  0  0  0  0  0  0  0  0  0  0
   57.6572   33.2671   48.2318 H   0  0  0  0  0  0  0  0  0  0  0  0
   61.4850   29.6718   45.8085 H   0  0  0  0  0  0  0  0  0  0  0  0
   60.5254   27.4161   45.3646 H   0  0  0  0  0  0  0  0  0  0  0  0
  1  2  2  0
  2  3  1  0
  3  4  2  3
  4  5  1  0
  5  6  1  0
  6  7  2  0
  7  8  1  0
  8  9  2  0
  9 10  1  0
  2 11  1  0
 11 12  2  0
 12 13  1  0
 13 14  2  0
 14 15  1  0
 15 16  2  0
 15 17  2  0
 15 18  1  0
 18 19  1  0
 19 20  1  0
 20 21  1  0
 21 22  1  0
 22 23  1  0
 23 24  1  0
 24 25  1  0
 25 26  2  0
 26 27  1  0
 27 28  2  0
 28 29  1  0
 29 30  2  0
 23 31  1  0
 31 32  1  0
 14 33  1  0
 33 34  2  0
  9  4  1  0
 34 11  1  0
 32 20  1  0
 30 25  1  0
  6 35  1  0
  7 36  1  0
  8 37  1  0
 12 38  1  0
 13 39  1  0
 19 40  1  0
 19 41  1  0
 20 42  1  0
 21 43  1  0
 21 44  1  0
 22 45  1  0
 22 46  1  0
 24 47  1  0
 24 48  1  0
 26 49  1  0
 27 50  1  0
 28 51  1  0
 29 52  1  0
 30 53  1  0
 31 54  1  0
 31 55  1  0
 32 56  1  0
 32 57  1  0
 33 58  1  0
 34 59  1  0
M  CHG  3   5  -1  10  -1  18  -1
M  END
>  <UniqueID>  (78) 
76

>  <SMILES>  (78) 
O=C(N=c1[n-]cccc1[O-])c1ccc(S(=O)(=O)[N-]CC2CCN(Cc3ccccc3)CC2)cc1

>  <Energy>  (78) 
75.09596990169081

>  <Genealogy>  (78) 
O=C(N=c1[n-]cccc1[O-])c1ccc(S(=O)(=O)[N-]CC2CCN(Cc3ccccc3)CC2)cc1 (protonated)
O=C(N=c1[n-]cccc1[O-])c1ccc(S(=O)(=O)[N-]CC2CCN(Cc3ccccc3)CC2)cc1 (3D coordinates assigned)
O=C(N=c1[n-]cccc1[O-])c1ccc(S(=O)(=O)[N-]CC2CCN(Cc3ccccc3)CC2)cc1 (nonaromatic ring conformer: 75.09596990169081 kcal/mol)

>  <smiles>  (78) 
O=C(N=c1[nH]cccc1O)c1ccc(S(=O)(=O)NCC2CCN(Cc3ccccc3)CC2)cc1

>  <score_type>  (78) 
oracle

>  <origin>  (78) 
adg

>  <m_score__min__energy>  (78) 
-15.789999999999999

>  <m_primary>  (78) 
energy

$$$$
78:0
     RDKit          3D

 40 42  0  0  0  0  0  0  0  0999 V2000
   60.3870   28.4100   46.9670 C   0  0  0  0  0  0  0  0  0  0  0  0
   60.0700   29.4670   46.2060 C   0  0  0  0  0  0  0  0  0  0  0  0
   60.3270   30.8550   46.7330 C   0  0  0  0  0  0  0  0  0  0  0  0
   59.4910   29.2660   44.8250 C   0  0  0  0  0  0  0  0  0  0  0  0
   58.0260   29.3710   44.8530 N   0  0  0  0  0  0  0  0  0  0  0  0
   57.2380   30.3040   44.2740 C   0  0  0  0  0  0  0  0  0  0  0  0
   57.7170   31.5300   43.5520 C   0  0  0  0  0  0  0  0  0  0  0  0
   58.0210   32.6200   44.5320 C   0  0  0  0  0  0  0  0  0  0  0  0
   58.8520   33.7100   44.3080 C   0  0  0  0  0  0  0  0  0  0  0  0
   58.9550   34.5590   45.4170 C   0  0  0  0  0  0  0  0  0  0  0  0
   58.2060   34.1430   46.5110 C   0  0  0  0  0  0  0  0  0  0  0  0
   57.4170   32.7170   46.0990 S   0  0  0  0  0  0  0  0  0  0  0  0
   55.9330   30.0550   44.5030 N   0  0  0  0  0  0  0  0  0  0  0  0
   55.8690   28.9450   45.2220 N   0  0  0  0  0  0  0  0  0  0  0  0
   57.1350   28.5370   45.4340 C   0  0  0  0  0  0  0  0  0  0  0  0
   57.4720   27.3060   46.2280 C   0  0  0  0  0  0  0  0  0  0  0  0
   56.9900   26.1060   45.5270 N   0  0  0  0  0  0  0  0  0  0  0  0
   57.8490   25.4040   44.7290 C   0  0  0  0  0  0  0  0  0  0  0  0
   57.4110   24.2790   44.0340 C   0  0  0  0  0  0  0  0  0  0  0  0
   56.0790   23.8920   44.1650 C   0  0  0  0  0  0  0  0  0  0  0  0
   55.6490   22.8800   43.5540 O   0  0  0  0  0  0  0  0  0  0  0  0
   55.2440   24.6130   44.9540 N   0  0  0  0  0  0  0  0  0  0  0  0
   55.6800   25.7090   45.6280 C   0  0  0  0  0  0  0  0  0  0  0  0
   54.8650   26.3550   46.3410 O   0  0  0  0  0  0  0  0  0  0  0  0
   60.2052   27.3906   46.5957 H   0  0  0  0  0  0  0  0  0  0  0  0
   60.8289   28.5620   47.9628 H   0  0  0  0  0  0  0  0  0  0  0  0
   60.3235   30.8361   47.8328 H   0  0  0  0  0  0  0  0  0  0  0  0
   61.3057   31.2076   46.3755 H   0  0  0  0  0  0  0  0  0  0  0  0
   59.5394   31.5346   46.3755 H   0  0  0  0  0  0  0  0  0  0  0  0
   59.8947   30.0344   44.1494 H   0  0  0  0  0  0  0  0  0  0  0  0
   59.7657   28.2616   44.4704 H   0  0  0  0  0  0  0  0  0  0  0  0
   58.6279   31.2858   42.9857 H   0  0  0  0  0  0  0  0  0  0  0  0
   56.9293   31.8735   42.8653 H   0  0  0  0  0  0  0  0  0  0  0  0
   59.3755   33.8882   43.3571 H   0  0  0  0  0  0  0  0  0  0  0  0
   59.5713   35.4701   45.4216 H   0  0  0  0  0  0  0  0  0  0  0  0
   58.1406   34.6585   47.4805 H   0  0  0  0  0  0  0  0  0  0  0  0
   58.5629   27.2409   46.3532 H   0  0  0  0  0  0  0  0  0  0  0  0
   56.9858   27.3679   47.2128 H   0  0  0  0  0  0  0  0  0  0  0  0
   58.8953   25.7301   44.6347 H   0  0  0  0  0  0  0  0  0  0  0  0
   58.1017   23.7086   43.3956 H   0  0  0  0  0  0  0  0  0  0  0  0
  1  2  2  0
  2  3  1  0
  2  4  1  0
  4  5  1  0
  5  6  1  0
  6  7  1  0
  7  8  1  0
  8  9  2  0
  9 10  1  0
 10 11  2  0
 11 12  1  0
  6 13  2  0
 13 14  1  0
 14 15  2  0
 15 16  1  0
 16 17  1  0
 17 18  1  0
 18 19  2  0
 19 20  1  0
 20 21  2  0
 20 22  1  0
 22 23  1  0
 23 24  2  0
 15  5  1  0
 23 17  1  0
 12  8  1  0
  1 25  1  0
  1 26  1  0
  3 27  1  0
  3 28  1  0
  3 29  1  0
  4 30  1  0
  4 31  1  0
  7 32  1  0
  7 33  1  0
  9 34  1  0
 10 35  1  0
 11 36  1  0
 16 37  1  0
 16 38  1  0
 18 39  1  0
 19 40  1  0
M  CHG  1  22  -1
M  END
>  <UniqueID>  (79) 
77

>  <SMILES>  (79) 
C=C(C)Cn1c(Cc2cccs2)nnc1Cn1ccc(=O)[n-]c1=O

>  <Energy>  (79) 
96.89195597963946

>  <Genealogy>  (79) 
C=C(C)Cn1c(Cc2cccs2)nnc1Cn1ccc(=O)[n-]c1=O (protonated)
C=C(C)Cn1c(Cc2cccs2)nnc1Cn1ccc(=O)[n-]c1=O (3D coordinates assigned)
C=C(C)Cn1c(Cc2cccs2)nnc1Cn1ccc(=O)[n-]c1=O (optimized conformer: 96.89195597963946 kcal/mol)

>  <smiles>  (79) 
C=C(C)Cn1c(Cc2cccs2)nnc1Cn1ccc(=O)[nH]c1=O

>  <score_type>  (79) 
oracle

>  <origin>  (79) 
adg

>  <m_score__min__energy>  (79) 
-10.130000000000001

>  <m_primary>  (79) 
energy

$$$$
79:0
     RDKit          3D

 51 54  0  0  0  0  0  0  0  0999 V2000
   54.7430   27.4340   46.3860 H   0  0  0  0  0  0  0  0  0  0  0  0
   55.1620   26.6980   45.8310 O   0  0  0  0  0  0  0  0  0  0  0  0
   56.0700   25.8100   46.3980 C   0  0  0  0  0  0  0  0  0  0  0  0
   55.7110   24.7210   47.0980 N   0  0  0  0  0  0  0  0  0  0  0  0
   56.8990   24.2210   47.4980 C   0  0  0  0  0  0  0  0  0  0  0  0
   56.9950   23.1800   48.2000 O   0  0  0  0  0  0  0  0  0  0  0  0
   57.9760   24.9270   47.0950 N   0  0  0  0  0  0  0  0  0  0  0  0
   57.4430   25.9270   46.3720 C   0  0  0  0  0  0  0  0  0  0  0  0
   58.2430   27.0150   45.7840 C   0  0  0  0  0  0  0  0  0  0  0  0
   58.5620   26.9129   44.7362 H   0  0  0  0  0  0  0  0  0  0  0  0
   58.6080   28.1270   46.4500 C   0  0  0  0  0  0  0  0  0  0  0  0
   58.2000   28.4970   47.7270 C   0  0  0  0  0  0  0  0  0  0  0  0
   57.5425   27.9251   48.3983 H   0  0  0  0  0  0  0  0  0  0  0  0
   58.7810   29.7220   47.9880 C   0  0  0  0  0  0  0  0  0  0  0  0
   58.5800   30.5190   49.2410 C   0  0  0  0  0  0  0  0  0  0  0  0
   58.7429   29.8732   50.1164 H   0  0  0  0  0  0  0  0  0  0  0  0
   59.2957   31.3541   49.2632 H   0  0  0  0  0  0  0  0  0  0  0  0
   57.5539   30.9148   49.2632 H   0  0  0  0  0  0  0  0  0  0  0  0
   59.5080   30.1330   46.9280 N   0  0  0  0  0  0  0  0  0  0  0  0
   60.2110   31.3830   46.8300 C   0  0  0  0  0  0  0  0  0  0  0  0
   61.5630   31.4310   47.1890 C   0  0  0  0  0  0  0  0  0  0  0  0
   62.0663   30.5209   47.5474 H   0  0  0  0  0  0  0  0  0  0  0  0
   62.2750   32.6250   47.0950 C   0  0  0  0  0  0  0  0  0  0  0  0
   63.3409   32.6514   47.3654 H   0  0  0  0  0  0  0  0  0  0  0  0
   61.6390   33.7860   46.6590 C   0  0  0  0  0  0  0  0  0  0  0  0
   62.2098   34.7232   46.5827 H   0  0  0  0  0  0  0  0  0  0  0  0
   60.2770   33.7720   46.3160 C   0  0  0  0  0  0  0  0  0  0  0  0
   59.6350   35.0610   45.8740 C   0  0  0  0  0  0  0  0  0  0  0  0
   59.3431   35.6472   46.7579 H   0  0  0  0  0  0  0  0  0  0  0  0
   60.3505   35.6390   45.2707 H   0  0  0  0  0  0  0  0  0  0  0  0
   58.7426   34.8382   45.2707 H   0  0  0  0  0  0  0  0  0  0  0  0
   59.5590   32.5480   46.3680 C   0  0  0  0  0  0  0  0  0  0  0  0
   58.1270   32.4830   45.9920 C   0  0  0  0  0  0  0  0  0  0  0  0
   57.2730   32.8880   46.8260 O   0  0  0  0  0  0  0  0  0  0  0  0
   57.6920   31.9810   44.7070 N   0  0  0  0  0  0  0  0  0  0  0  0
   58.1340   32.7090   43.5010 C   0  0  0  0  0  0  0  0  0  0  0  0
   59.2338   32.7268   43.4877 H   0  0  0  0  0  0  0  0  0  0  0  0
   57.7030   33.7196   43.5549 H   0  0  0  0  0  0  0  0  0  0  0  0
   57.6510   32.0870   42.2180 C   0  0  0  0  0  0  0  0  0  0  0  0
   57.8310   32.6910   41.1290 O   0  0  0  0  0  0  0  0  0  0  0  0
   56.9820   30.8270   42.2180 N   0  0  0  0  0  0  0  0  0  0  0  0
   56.8680   30.0440   43.4370 C   0  0  0  0  0  0  0  0  0  0  0  0
   57.8003   29.4837   43.6010 H   0  0  0  0  0  0  0  0  0  0  0  0
   56.0279   29.3402   43.3426 H   0  0  0  0  0  0  0  0  0  0  0  0
   56.6200   30.9740   44.6190 C   0  0  0  0  0  0  0  0  0  0  0  0
   56.5983   30.3842   45.5472 H   0  0  0  0  0  0  0  0  0  0  0  0
   55.6569   31.4861   44.4772 H   0  0  0  0  0  0  0  0  0  0  0  0
   59.4190   29.1670   45.9820 C   0  0  0  0  0  0  0  0  0  0  0  0
   60.0500   29.2200   44.8000 C   0  0  0  0  0  0  0  0  0  0  0  0
   60.6634   30.0961   44.5428 H   0  0  0  0  0  0  0  0  0  0  0  0
   59.9542   28.3874   44.0876 H   0  0  0  0  0  0  0  0  0  0  0  0
  1  2  1  0
  2  3  1  0
  3  4  1  0
  4  5  1  0
  5  6  2  0
  5  7  1  0
  7  8  1  0
  8  9  1  0
  9 10  1  0
  9 11  2  0
 11 12  1  0
 12 13  1  0
 12 14  2  0
 14 15  1  0
 15 16  1  0
 15 17  1  0
 15 18  1  0
 14 19  1  0
 19 20  1  0
 20 21  2  0
 21 22  1  0
 21 23  1  0
 23 24  1  0
 23 25  2  0
 25 26  1  0
 25 27  1  0
 27 28  1  0
 28 29  1  0
 28 30  1  0
 28 31  1  0
 27 32  2  0
 32 33  1  0
 33 34  2  0
 33 35  1  0
 35 36  1  0
 36 37  1  0
 36 38  1  0
 36 39  1  0
 39 40  2  0
 39 41  1  0
 41 42  1  0
 42 43  1  0
 42 44  1  0
 42 45  1  0
 45 46  1  0
 45 47  1  0
 19 48  1  0
 48 49  2  0
 49 50  1  0
 49 51  1  0
  8  3  2  0
 48 11  1  0
 32 20  1  0
 45 35  1  0
M  CHG  3   4  -1   7  -1  41  -1
M  END
>  <UniqueID>  (80) 
78

>  <SMILES>  (80) 
C=c1/c(=C/c2[n-]c(=O)[n-]c2O)cc(C)n1-c1cccc(C)c1C(=O)N1CC[N-]C(=O)C1

>  <Energy>  (80) 
130.38362486616438

>  <Genealogy>  (80) 
C=c1c(=Cc2[n-]c(=O)[n-]c2O)cc(C)n1-c1cccc(C)c1C(=O)N1CC[N-]C(=O)C1 (protonated)
C=c1/c(=C/c2[n-]c(=O)[n-]c2O)cc(C)n1-c1cccc(C)c1C(=O)N1CC[N-]C(=O)C1 (cis-trans isomerization)
C=c1/c(=C/c2[n-]c(=O)[n-]c2O)cc(C)n1-c1cccc(C)c1C(=O)N1CC[N-]C(=O)C1 (3D coordinates assigned)
C=c1/c(=C/c2[n-]c(=O)[n-]c2O)cc(C)n1-c1cccc(C)c1C(=O)N1CC[N-]C(=O)C1 (nonaromatic ring conformer: 130.38362486616438 kcal/mol)

>  <smiles>  (80) 
C=c1c(=Cc2[nH]c(=O)[nH]c2O)cc(C)n1-c1cccc(C)c1C(=O)N1CCNC(=O)C1

>  <score_type>  (80) 
oracle

>  <origin>  (80) 
adg

>  <m_score__min__energy>  (80) 
-15.09

>  <m_primary>  (80) 
energy

$$$$
80:0
     RDKit          3D

 38 40  0  0  0  0  0  0  0  0999 V2000
   57.7550   29.7100   42.4260 H   0  0  0  0  0  0  0  0  0  0  0  0
   57.3150   30.5880   42.6770 O   0  0  0  0  0  0  0  0  0  0  0  0
   57.7420   31.3440   43.7720 C   0  0  0  0  0  0  0  0  0  0  0  0
   57.7630   32.7350   43.6420 C   0  0  0  0  0  0  0  0  0  0  0  0
   57.5603   33.1929   42.6626 H   0  0  0  0  0  0  0  0  0  0  0  0
   58.0360   33.5430   44.7320 C   0  0  0  0  0  0  0  0  0  0  0  0
   57.9852   34.6366   44.6254 H   0  0  0  0  0  0  0  0  0  0  0  0
   58.3740   32.9860   45.9610 C   0  0  0  0  0  0  0  0  0  0  0  0
   58.6490   33.8630   47.0060 O   0  0  0  0  0  0  0  0  0  0  0  0
   58.4630   31.5750   46.1180 C   0  0  0  0  0  0  0  0  0  0  0  0
   59.0380   31.0560   47.2330 C   0  0  0  0  0  0  0  0  0  0  0  0
   58.4166   30.9057   48.1282 H   0  0  0  0  0  0  0  0  0  0  0  0
   60.3920   30.7050   47.2860 O   0  0  0  0  0  0  0  0  0  0  0  0
   61.4490   31.6130   47.4360 C   0  0  0  0  0  0  0  0  0  0  0  0
   62.5490   31.3640   48.2830 C   0  0  0  0  0  0  0  0  0  0  0  0
   62.6019   30.4241   48.8520 H   0  0  0  0  0  0  0  0  0  0  0  0
   63.5730   32.3100   48.4010 C   0  0  0  0  0  0  0  0  0  0  0  0
   64.4321   32.1096   49.0581 H   0  0  0  0  0  0  0  0  0  0  0  0
   63.5070   33.5090   47.6860 C   0  0  0  0  0  0  0  0  0  0  0  0
   64.3163   34.2485   47.7760 H   0  0  0  0  0  0  0  0  0  0  0  0
   62.4130   33.7680   46.8570 C   0  0  0  0  0  0  0  0  0  0  0  0
   62.3587   34.7139   46.2981 H   0  0  0  0  0  0  0  0  0  0  0  0
   61.3870   32.8260   46.7370 C   0  0  0  0  0  0  0  0  0  0  0  0
   60.5242   33.0386   46.0887 H   0  0  0  0  0  0  0  0  0  0  0  0
   58.0630   30.7280   45.0180 C   0  0  0  0  0  0  0  0  0  0  0  0
   57.9000   29.3750   45.1560 C   0  0  0  0  0  0  0  0  0  0  0  0
   58.9610   28.4750   44.9090 C   0  0  0  0  0  0  0  0  0  0  0  0
   59.9460   28.8680   44.6171 H   0  0  0  0  0  0  0  0  0  0  0  0
   58.7810   27.0950   45.0290 C   0  0  0  0  0  0  0  0  0  0  0  0
   59.6258   26.4170   44.8379 H   0  0  0  0  0  0  0  0  0  0  0  0
   57.5330   26.5650   45.3910 C   0  0  0  0  0  0  0  0  0  0  0  0
   57.3810   25.2390   45.5050 C   0  0  0  0  0  0  0  0  0  0  0  0
   56.4044   24.8197   45.7885 H   0  0  0  0  0  0  0  0  0  0  0  0
   58.2328   24.5694   45.3151 H   0  0  0  0  0  0  0  0  0  0  0  0
   56.4610   27.4460   45.6300 C   0  0  0  0  0  0  0  0  0  0  0  0
   55.2020   26.9650   45.9800 O   0  0  0  0  0  0  0  0  0  0  0  0
   56.6450   28.8270   45.5100 C   0  0  0  0  0  0  0  0  0  0  0  0
   55.7958   29.5014   45.6948 H   0  0  0  0  0  0  0  0  0  0  0  0
  1  2  1  0
  2  3  1  0
  3  4  2  0
  4  5  1  0
  4  6  1  0
  6  7  1  0
  6  8  2  0
  8  9  1  0
  8 10  1  0
 10 11  2  0
 11 12  1  0
 11 13  1  0
 13 14  1  0
 14 15  2  0
 15 16  1  0
 15 17  1  0
 17 18  1  0
 17 19  2  0
 19 20  1  0
 19 21  1  0
 21 22  1  0
 21 23  2  0
 23 24  1  0
 10 25  1  0
 25 26  2  3
 26 27  1  0
 27 28  1  0
 27 29  2  0
 29 30  1  0
 29 31  1  0
 31 32  2  0
 32 33  1  0
 32 34  1  0
 31 35  1  0
 35 36  1  0
 35 37  2  0
 37 38  1  0
 25  3  1  0
 37 26  1  0
 23 14  1  0
M  CHG  2   9  -1  36  -1
M  END
>  <UniqueID>  (81) 
79

>  <SMILES>  (81) 
C=c1ccc(=c2c(O)ccc([O-])/c2=C\Oc2ccccc2)cc1[O-]

>  <Energy>  (81) 
82.11209159756773

>  <Genealogy>  (81) 
C=c1ccc(=c2c(O)ccc([O-])c2=COc2ccccc2)cc1[O-] (protonated)
C=c1ccc(=c2c(O)ccc([O-])/c2=C\Oc2ccccc2)cc1[O-] (cis-trans isomerization)
C=c1ccc(=c2c(O)ccc([O-])/c2=C\Oc2ccccc2)cc1[O-] (3D coordinates assigned)
C=c1ccc(=c2c(O)ccc([O-])/c2=C\Oc2ccccc2)cc1[O-] (optimized conformer: 82.11209159756773 kcal/mol)

>  <smiles>  (81) 
C=c1ccc(=c2c(O)ccc(O)c2=COc2ccccc2)cc1O

>  <score_type>  (81) 
oracle

>  <origin>  (81) 
adg

>  <m_score__min__energy>  (81) 
-11.74

>  <m_primary>  (81) 
energy

$$$$
81:0
     RDKit          3D

 67 69  0  0  0  0  0  0  0  0999 V2000
   59.3780   34.9250   45.3590 C   0  0  0  0  0  0  0  0  0  0  0  0
   59.4520   34.4840   46.8180 C   0  0  0  0  0  0  0  0  0  0  0  0
   59.0220   33.0220   46.9770 C   0  0  0  0  0  0  0  0  0  0  0  0
   59.4050   32.1960   45.7420 C   0  0  0  0  0  0  0  0  0  0  0  0
   58.2700   31.3540   45.3120 N   0  0  0  0  0  0  0  0  0  0  0  0
   58.3680   29.9770   45.2830 C   0  0  0  0  0  0  0  0  0  0  0  0
   59.5900   29.3040   45.6420 N   0  0  0  0  0  0  0  0  0  0  0  0
   57.2540   29.2050   44.8980 C   0  0  0  0  0  0  0  0  0  0  0  0
   57.3220   27.7700   44.8490 N   0  0  0  0  0  0  0  0  0  0  0  0
   58.0390   27.1370   43.7380 C   0  0  0  0  0  0  0  0  0  0  0  0
   56.7860   26.9940   45.9420 C   0  0  0  0  0  0  0  0  0  0  0  0
   55.5930   26.5840   45.8870 O   0  0  0  0  0  0  0  0  0  0  0  0
   57.6430   26.6000   47.1190 C   0  0  0  0  0  0  0  0  0  0  0  0
   58.1460   27.7770   47.8290 N   0  0  0  0  0  0  0  0  0  0  0  0
   59.5440   27.9450   48.1150 C   0  0  0  0  0  0  0  0  0  0  0  0
   60.3790   27.1200   47.6550 O   0  0  0  0  0  0  0  0  0  0  0  0
   60.0230   29.0880   48.9310 C   0  0  0  0  0  0  0  0  0  0  0  0
   59.3710   30.3330   48.8870 C   0  0  0  0  0  0  0  0  0  0  0  0
   59.8300   31.4000   49.6640 C   0  0  0  0  0  0  0  0  0  0  0  0
   60.9460   31.2430   50.4950 C   0  0  0  0  0  0  0  0  0  0  0  0
   61.5400   32.6020   51.4540 S   0  0  0  0  0  0  0  0  0  0  0  0
   62.0330   32.0940   52.7810 O   0  0  0  0  0  0  0  0  0  0  0  0
   60.4100   33.5570   51.7120 O   0  0  0  0  0  0  0  0  0  0  0  0
   62.8360   33.4460   50.6360 N   0  0  0  0  0  0  0  0  0  0  0  0
   63.9370   32.5100   50.3170 C   0  0  0  0  0  0  0  0  0  0  0  0
   64.8780   33.0970   49.2600 C   0  0  0  0  0  0  0  0  0  0  0  0
   64.1370   33.3440   47.9340 C   0  0  0  0  0  0  0  0  0  0  0  0
   62.6260   33.5660   48.1290 C   0  0  0  0  0  0  0  0  0  0  0  0
   62.3330   34.2320   49.4820 C   0  0  0  0  0  0  0  0  0  0  0  0
   61.5890   30.0000   50.5560 C   0  0  0  0  0  0  0  0  0  0  0  0
   61.1300   28.9290   49.7830 C   0  0  0  0  0  0  0  0  0  0  0  0
   56.0780   29.8620   44.5310 C   0  0  0  0  0  0  0  0  0  0  0  0
   55.0620   29.2080   44.1750 O   0  0  0  0  0  0  0  0  0  0  0  0
   56.0310   31.2120   44.5410 N   0  0  0  0  0  0  0  0  0  0  0  0
   57.1000   31.9580   44.9150 C   0  0  0  0  0  0  0  0  0  0  0  0
   56.9970   33.2150   44.8890 O   0  0  0  0  0  0  0  0  0  0  0  0
   59.1961   36.0089   45.3123 H   0  0  0  0  0  0  0  0  0  0  0  0
   60.3280   34.6907   44.8565 H   0  0  0  0  0  0  0  0  0  0  0  0
   58.5565   34.3934   44.8565 H   0  0  0  0  0  0  0  0  0  0  0  0
   60.4868   34.5945   47.1743 H   0  0  0  0  0  0  0  0  0  0  0  0
   58.7697   35.1140   47.4075 H   0  0  0  0  0  0  0  0  0  0  0  0
   59.5175   32.5960   47.8619 H   0  0  0  0  0  0  0  0  0  0  0  0
   57.9286   32.9901   47.0932 H   0  0  0  0  0  0  0  0  0  0  0  0
   59.6822   32.8761   44.9231 H   0  0  0  0  0  0  0  0  0  0  0  0
   60.2544   31.5455   45.9978 H   0  0  0  0  0  0  0  0  0  0  0  0
   59.5840   28.3160   45.9760 H   0  0  0  0  0  0  0  0  0  0  0  0
   60.5300   29.7370   45.5200 H   0  0  0  0  0  0  0  0  0  0  0  0
   58.8075   26.4585   44.1367 H   0  0  0  0  0  0  0  0  0  0  0  0
   57.3293   26.5655   43.1218 H   0  0  0  0  0  0  0  0  0  0  0  0
   58.5182   27.9121   43.1218 H   0  0  0  0  0  0  0  0  0  0  0  0
   57.0422   25.9931   47.8123 H   0  0  0  0  0  0  0  0  0  0  0  0
   58.5038   26.0264   46.7448 H   0  0  0  0  0  0  0  0  0  0  0  0
   57.5110   28.5990   47.9360 H   0  0  0  0  0  0  0  0  0  0  0  0
   58.4940   30.4680   48.2368 H   0  0  0  0  0  0  0  0  0  0  0  0
   59.3114   32.3692   49.6225 H   0  0  0  0  0  0  0  0  0  0  0  0
   64.5103   32.3056   51.2333 H   0  0  0  0  0  0  0  0  0  0  0  0
   63.4999   31.5834   49.9166 H   0  0  0  0  0  0  0  0  0  0  0  0
   65.2819   34.0513   49.6289 H   0  0  0  0  0  0  0  0  0  0  0  0
   65.6902   32.3780   49.0775 H   0  0  0  0  0  0  0  0  0  0  0  0
   64.5644   34.2362   47.4531 H   0  0  0  0  0  0  0  0  0  0  0  0
   64.2628   32.4460   47.3113 H   0  0  0  0  0  0  0  0  0  0  0  0
   62.2512   34.2127   47.3220 H   0  0  0  0  0  0  0  0  0  0  0  0
   62.1241   32.5874   48.1062 H   0  0  0  0  0  0  0  0  0  0  0  0
   62.8123   35.2220   49.4965 H   0  0  0  0  0  0  0  0  0  0  0  0
   61.2401   34.3035   49.5838 H   0  0  0  0  0  0  0  0  0  0  0  0
   62.4593   29.8658   51.2152 H   0  0  0  0  0  0  0  0  0  0  0  0
   61.6385   27.9554   49.8419 H   0  0  0  0  0  0  0  0  0  0  0  0
  1  2  1  0
  2  3  1  0
  3  4  1  0
  4  5  1  0
  5  6  1  0
  6  7  1  0
  6  8  2  0
  8  9  1  0
  9 10  1  0
  9 11  1  0
 11 12  2  0
 11 13  1  0
 13 14  1  0
 14 15  1  0
 15 16  2  0
 15 17  1  0
 17 18  2  0
 18 19  1  0
 19 20  2  0
 20 21  1  0
 21 22  2  0
 21 23  2  0
 21 24  1  0
 24 25  1  0
 25 26  1  0
 26 27  1  0
 27 28  1  0
 28 29  1  0
 20 30  1  0
 30 31  2  0
  8 32  1  0
 32 33  2  0
 32 34  1  0
 34 35  1  0
 35 36  2  0
 35  5  1  0
 31 17  1  0
 29 24  1  0
  1 37  1  0
  1 38  1  0
  1 39  1  0
  2 40  1  0
  2 41  1  0
  3 42  1  0
  3 43  1  0
  4 44  1  0
  4 45  1  0
  7 46  1  0
  7 47  1  0
 10 48  1  0
 10 49  1  0
 10 50  1  0
 13 51  1  0
 13 52  1  0
 14 53  1  0
 18 54  1  0
 19 55  1  0
 25 56  1  0
 25 57  1  0
 26 58  1  0
 26 59  1  0
 27 60  1  0
 27 61  1  0
 28 62  1  0
 28 63  1  0
 29 64  1  0
 29 65  1  0
 30 66  1  0
 31 67  1  0
M  CHG  1  34  -1
M  END
>  <UniqueID>  (82) 
80

>  <SMILES>  (82) 
CCCCn1c(N)c(N(C)C(=O)CNC(=O)c2ccc(S(=O)(=O)N3CCCCC3)cc2)c(=O)[n-]c1=O

>  <Energy>  (82) 
79.88424102364156

>  <Genealogy>  (82) 
CCCCn1c(N)c(N(C)C(=O)CNC(=O)c2ccc(S(=O)(=O)N3CCCCC3)cc2)c(=O)[n-]c1=O (protonated)
CCCCn1c(N)c(N(C)C(=O)CNC(=O)c2ccc(S(=O)(=O)N3CCCCC3)cc2)c(=O)[n-]c1=O (3D coordinates assigned)
CCCCn1c(N)c(N(C)C(=O)CNC(=O)c2ccc(S(=O)(=O)N3CCCCC3)cc2)c(=O)[n-]c1=O (nonaromatic ring conformer: 79.88424102364156 kcal/mol)

>  <smiles>  (82) 
CCCCn1c(N)c(N(C)C(=O)CNC(=O)c2ccc(S(=O)(=O)N3CCCCC3)cc2)c(=O)[nH]c1=O

>  <score_type>  (82) 
oracle

>  <origin>  (82) 
adg

>  <m_score__min__energy>  (82) 
-9.6899999999999995

>  <m_primary>  (82) 
energy

$$$$
82:0
     RDKit          3D

 30 32  0  0  0  0  0  0  0  0999 V2000
   58.1520   30.6430   47.3750 O   0  0  0  0  0  0  0  0  0  0  0  0
   58.1610   31.5080   46.4600 C   0  0  0  0  0  0  0  0  0  0  0  0
   57.5220   31.4010   45.2330 C   0  0  0  0  0  0  0  0  0  0  0  0
   56.8160   30.3690   44.8650 N   0  0  0  0  0  0  0  0  0  0  0  0
   57.2810   29.2100   44.1040 C   0  0  0  0  0  0  0  0  0  0  0  0
   58.4180   28.5130   44.8150 C   0  0  0  0  0  0  0  0  0  0  0  0
   59.7320   28.9840   44.6480 C   0  0  0  0  0  0  0  0  0  0  0  0
   60.7990   28.3590   45.2980 C   0  0  0  0  0  0  0  0  0  0  0  0
   60.5660   27.2660   46.1340 C   0  0  0  0  0  0  0  0  0  0  0  0
   59.2640   26.8020   46.3290 C   0  0  0  0  0  0  0  0  0  0  0  0
   58.1860   27.4200   45.6820 C   0  0  0  0  0  0  0  0  0  0  0  0
   56.5650   26.8140   46.0030 Cl  0  0  0  0  0  0  0  0  0  0  0  0
   57.7870   32.5710   44.5190 C   0  0  0  0  0  0  0  0  0  0  0  0
   57.4010   32.8500   43.3540 O   0  0  0  0  0  0  0  0  0  0  0  0
   58.5760   33.3810   45.3130 C   0  0  0  0  0  0  0  0  0  0  0  0
   59.1090   34.6450   45.0600 C   0  0  0  0  0  0  0  0  0  0  0  0
   59.8910   35.2450   46.0640 C   0  0  0  0  0  0  0  0  0  0  0  0
   60.1250   34.5760   47.2840 C   0  0  0  0  0  0  0  0  0  0  0  0
   59.5800   33.3000   47.5160 C   0  0  0  0  0  0  0  0  0  0  0  0
   58.8060   32.7280   46.5060 C   0  0  0  0  0  0  0  0  0  0  0  0
   56.4472   28.5031   43.9807 H   0  0  0  0  0  0  0  0  0  0  0  0
   57.6417   29.5570   43.1245 H   0  0  0  0  0  0  0  0  0  0  0  0
   59.9217   29.8523   43.9998 H   0  0  0  0  0  0  0  0  0  0  0  0
   61.8244   28.7289   45.1507 H   0  0  0  0  0  0  0  0  0  0  0  0
   61.4081   26.7703   46.6391 H   0  0  0  0  0  0  0  0  0  0  0  0
   59.0832   25.9455   46.9951 H   0  0  0  0  0  0  0  0  0  0  0  0
   58.9235   35.1572   44.1044 H   0  0  0  0  0  0  0  0  0  0  0  0
   60.3230   36.2427   45.8966 H   0  0  0  0  0  0  0  0  0  0  0  0
   60.7388   35.0562   48.0603 H   0  0  0  0  0  0  0  0  0  0  0  0
   59.7584   32.7702   48.4634 H   0  0  0  0  0  0  0  0  0  0  0  0
  1  2  2  0
  2  3  1  0
  3  4  2  3
  4  5  1  0
  5  6  1  0
  6  7  2  0
  7  8  1  0
  8  9  2  0
  9 10  1  0
 10 11  2  0
 11 12  1  0
  3 13  1  0
 13 14  2  0
 13 15  1  0
 15 16  2  0
 16 17  1  0
 17 18  2  0
 18 19  1  0
 19 20  2  0
 20  2  1  0
 11  6  1  0
 20 15  1  0
  5 21  1  0
  5 22  1  0
  7 23  1  0
  8 24  1  0
  9 25  1  0
 10 26  1  0
 16 27  1  0
 17 28  1  0
 18 29  1  0
 19 30  1  0
M  END
>  <UniqueID>  (83) 
81

>  <SMILES>  (83) 
O=c1c(=NCc2ccccc2Cl)c(=O)c2ccccc12

>  <Energy>  (83) 
70.4970206205536

>  <Genealogy>  (83) 
O=c1c(=NCc2ccccc2Cl)c(=O)c2ccccc12 (3D coordinates assigned)
O=c1c(=NCc2ccccc2Cl)c(=O)c2ccccc12 (optimized conformer: 70.4970206205536 kcal/mol)

>  <smiles>  (83) 
O=c1c(=NCc2ccccc2Cl)c(=O)c2ccccc12

>  <score_type>  (83) 
oracle

>  <origin>  (83) 
adg

>  <m_score__min__energy>  (83) 
-7.2699999999999996

>  <m_primary>  (83) 
energy

$$$$
83:0
     RDKit          3D

 36 38  0  0  0  0  0  0  0  0999 V2000
   61.1240   28.9577   44.8183 H   0  0  0  0  0  0  0  0  0  0  0  0
   60.1670   29.3060   45.2340 C   0  0  0  0  0  0  0  0  0  0  0  0
   60.1310   29.8720   46.4680 N   0  0  0  0  0  0  0  0  0  0  0  0
   58.9680   30.3220   47.0170 C   0  0  0  0  0  0  0  0  0  0  0  0
   58.9550   30.8680   48.1980 N   0  0  0  0  0  0  0  0  0  0  0  0
   59.1360   32.2960   48.4720 C   0  0  2  0  0  0  0  0  0  0  0  0
   58.4794   32.6117   49.2961 H   0  0  0  0  0  0  0  0  0  0  0  0
   58.7690   33.0750   47.2270 C   0  0  0  0  0  0  0  0  0  0  0  0
   57.4110   33.2200   46.8950 C   0  0  0  0  0  0  0  0  0  0  0  0
   56.6393   32.8141   47.5656 H   0  0  0  0  0  0  0  0  0  0  0  0
   57.0330   33.8750   45.7210 C   0  0  0  0  0  0  0  0  0  0  0  0
   55.9671   33.9872   45.4735 H   0  0  0  0  0  0  0  0  0  0  0  0
   58.0050   34.3870   44.8620 C   0  0  0  0  0  0  0  0  0  0  0  0
   57.7046   34.9043   43.9389 H   0  0  0  0  0  0  0  0  0  0  0  0
   59.3590   34.2440   45.1720 C   0  0  0  0  0  0  0  0  0  0  0  0
   60.1206   34.6577   44.4946 H   0  0  0  0  0  0  0  0  0  0  0  0
   59.7560   33.5760   46.3420 C   0  0  0  0  0  0  0  0  0  0  0  0
   61.2270   33.5140   46.6780 C   0  0  0  0  0  0  0  0  0  0  0  0
   61.5440   34.4986   47.0522 H   0  0  0  0  0  0  0  0  0  0  0  0
   61.7652   33.2340   45.7604 H   0  0  0  0  0  0  0  0  0  0  0  0
   61.5480   32.4600   47.7410 C   0  0  0  0  0  0  0  0  0  0  0  0
   62.5772   32.6087   48.0997 H   0  0  0  0  0  0  0  0  0  0  0  0
   61.4440   31.4600   47.2947 H   0  0  0  0  0  0  0  0  0  0  0  0
   60.5820   32.5800   48.9190 C   0  0  0  0  0  0  0  0  0  0  0  0
   60.6389   33.5989   49.3296 H   0  0  0  0  0  0  0  0  0  0  0  0
   60.8657   31.8423   49.6840 H   0  0  0  0  0  0  0  0  0  0  0  0
   57.7700   30.1950   46.3060 C   0  0  0  0  0  0  0  0  0  0  0  0
   56.8280   30.5572   46.7436 H   0  0  0  0  0  0  0  0  0  0  0  0
   57.7730   29.6030   45.0300 C   0  0  0  0  0  0  0  0  0  0  0  0
   56.5220   29.4580   44.2440 C   0  0  0  0  0  0  0  0  0  0  0  0
   55.4150   29.3780   44.8430 O   0  0  0  0  0  0  0  0  0  0  0  0
   56.5370   29.4240   42.8150 N   0  0  0  0  0  0  0  0  0  0  0  0
   57.3970   29.6440   42.2680 H   0  0  0  0  0  0  0  0  0  0  0  0
   55.6490   29.2610   42.2890 H   0  0  0  0  0  0  0  0  0  0  0  0
   58.9940   29.1650   44.4920 C   0  0  0  0  0  0  0  0  0  0  0  0
   59.0254   28.7127   43.4898 H   0  0  0  0  0  0  0  0  0  0  0  0
  1  2  1  0
  2  3  1  0
  3  4  1  0
  4  5  2  0
  5  6  1  0
  6  7  1  1
  6  8  1  0
  8  9  2  0
  9 10  1  0
  9 11  1  0
 11 12  1  0
 11 13  2  0
 13 14  1  0
 13 15  1  0
 15 16  1  0
 15 17  2  0
 17 18  1  0
 18 19  1  0
 18 20  1  0
 18 21  1  0
 21 22  1  0
 21 23  1  0
 21 24  1  0
 24 25  1  0
 24 26  1  0
  4 27  1  0
 27 28  1  0
 27 29  2  0
 29 30  1  0
 30 31  2  0
 30 32  1  0
 32 33  1  0
 32 34  1  0
 29 35  1  0
 35 36  1  0
 35  2  2  0
 24  6  1  0
 17  8  1  0
M  CHG  1   3  -1
M  END
>  <UniqueID>  (84) 
82

>  <SMILES>  (84) 
NC(=O)c1cc[n-]/c(=N\[C@H]2CCCc3ccccc32)c1

>  <Energy>  (84) 
39.739764548419544

>  <Genealogy>  (84) 
NC(=O)c1cc[n-]c(=NC2CCCc3ccccc32)c1 (protonated)
NC(=O)c1cc[n-]c(=N[C@H]2CCCc3ccccc32)c1 (chirality)
NC(=O)c1cc[n-]/c(=N\[C@H]2CCCc3ccccc32)c1 (cis-trans isomerization)
NC(=O)c1cc[n-]/c(=N\[C@H]2CCCc3ccccc32)c1 (3D coordinates assigned)
NC(=O)c1cc[n-]/c(=N\[C@H]2CCCc3ccccc32)c1 (nonaromatic ring conformer: 39.739764548419544 kcal/mol)

>  <smiles>  (84) 
NC(=O)c1cc[nH]c(=NC2CCCc3ccccc32)c1

>  <score_type>  (84) 
oracle

>  <origin>  (84) 
adg

>  <m_score__min__energy>  (84) 
-9.1099999999999994

>  <m_primary>  (84) 
energy

$$$$
84:0
     RDKit          3D

 72 76  0  0  0  0  0  0  0  0999 V2000
   55.4220   28.9740   51.6680 H   0  0  0  0  0  0  0  0  0  0  0  0
   55.8380   29.6640   52.3420 N   0  0  0  0  0  0  0  0  0  0  0  0
   56.8100   30.4540   52.0080 C   0  0  0  0  0  0  0  0  0  0  0  0
   57.6070   30.1220   50.9560 N   0  0  0  0  0  0  0  0  0  0  0  0
   58.6100   30.9430   50.5340 C   0  0  0  0  0  0  0  0  0  0  0  0
   59.2340   30.6480   49.6775 H   0  0  0  0  0  0  0  0  0  0  0  0
   58.8520   32.1650   51.1870 C   0  0  0  0  0  0  0  0  0  0  0  0
   59.8980   33.0800   50.6910 C   0  0  0  0  0  0  0  0  0  0  0  0
   59.6780   33.8260   49.7020 O   0  0  0  0  0  0  0  0  0  0  0  0
   61.1090   33.1690   51.3810 O   0  0  0  0  0  0  0  0  0  0  0  0
   61.9320   32.0450   51.6720 C   0  0  1  0  0  0  0  0  0  0  0  0
   61.6120   31.6609   52.6519 H   0  0  0  0  0  0  0  0  0  0  0  0
   61.7990   30.9660   50.6430 C   0  0  0  0  0  0  0  0  0  0  0  0
   61.3930   29.8630   50.9660 O   0  0  0  0  0  0  0  0  0  0  0  0
   62.3780   31.1820   49.2700 C   0  0  1  0  0  0  0  0  0  0  0  0
   62.4680   30.1980   48.7867 H   0  0  0  0  0  0  0  0  0  0  0  0
   61.5070   32.0140   48.5160 O   0  0  0  0  0  0  0  0  0  0  0  0
   61.5820   31.8070   47.1030 C   0  0  1  0  0  0  0  0  0  0  0  0
   62.5695   31.3817   46.8704 H   0  0  0  0  0  0  0  0  0  0  0  0
   60.4490   30.8640   46.6500 C   0  0  1  0  0  0  0  0  0  0  0  0
   60.4871   30.7589   45.5557 H   0  0  0  0  0  0  0  0  0  0  0  0
   60.6390   29.4250   47.1950 C   0  0  0  0  0  0  0  0  0  0  0  0
   61.7014   29.1499   47.1201 H   0  0  0  0  0  0  0  0  0  0  0  0
   60.3063   29.4019   48.2432 H   0  0  0  0  0  0  0  0  0  0  0  0
   59.8150   28.4310   46.4080 C   0  0  0  0  0  0  0  0  0  0  0  0
   59.3150   27.2820   47.0440 C   0  0  0  0  0  0  0  0  0  0  0  0
   59.5381   27.1051   48.1065 H   0  0  0  0  0  0  0  0  0  0  0  0
   58.5350   26.3610   46.3350 C   0  0  0  0  0  0  0  0  0  0  0  0
   58.1606   25.4574   46.8384 H   0  0  0  0  0  0  0  0  0  0  0  0
   58.2310   26.5850   44.9930 C   0  0  0  0  0  0  0  0  0  0  0  0
   57.6077   25.8663   44.4407 H   0  0  0  0  0  0  0  0  0  0  0  0
   58.7210   27.7260   44.3520 C   0  0  0  0  0  0  0  0  0  0  0  0
   58.4844   27.9041   43.2926 H   0  0  0  0  0  0  0  0  0  0  0  0
   59.5120   28.6430   45.0540 C   0  0  0  0  0  0  0  0  0  0  0  0
   59.8988   29.5359   44.5410 H   0  0  0  0  0  0  0  0  0  0  0  0
   59.0990   31.4730   46.9960 C   0  0  0  0  0  0  0  0  0  0  0  0
   58.1320   30.7400   47.1420 O   0  0  0  0  0  0  0  0  0  0  0  0
   58.9060   32.9120   47.1260 N   0  0  2  0  0  0  0  0  0  0  0  0
   58.4660   33.1240   48.0530 H   0  0  0  0  0  0  0  0  0  0  0  0
   58.1730   33.5860   46.0280 C   0  0  2  0  0  0  0  0  0  0  0  0
   57.1635   33.9682   46.2398 H   0  0  0  0  0  0  0  0  0  0  0  0
   57.8150   32.7140   44.8340 C   0  0  0  0  0  0  0  0  0  0  0  0
   58.4180   32.8240   43.7310 O   0  0  0  0  0  0  0  0  0  0  0  0
   56.7880   31.7370   44.9810 N   0  0  0  0  0  0  0  0  0  0  0  0
   57.0110   30.7660   45.3020 H   0  0  0  0  0  0  0  0  0  0  0  0
   59.3090   34.5780   45.7740 C   0  0  0  0  0  0  0  0  0  0  0  0
   59.0736   35.6269   46.0074 H   0  0  0  0  0  0  0  0  0  0  0  0
   59.7370   34.7518   44.7757 H   0  0  0  0  0  0  0  0  0  0  0  0
   60.0530   33.8190   46.8750 C   0  0  2  0  0  0  0  0  0  0  0  0
   60.4671   34.3649   47.7355 H   0  0  0  0  0  0  0  0  0  0  0  0
   61.3600   33.1380   46.3750 C   0  0  1  0  0  0  0  0  0  0  0  0
   61.2565   32.9179   45.3022 H   0  0  0  0  0  0  0  0  0  0  0  0
   62.5600   34.0820   46.5330 C   0  0  0  0  0  0  0  0  0  0  0  0
   62.7627   34.2415   47.6023 H   0  0  0  0  0  0  0  0  0  0  0  0
   63.4439   33.6346   46.0550 H   0  0  0  0  0  0  0  0  0  0  0  0
   62.3333   35.0464   46.0550 H   0  0  0  0  0  0  0  0  0  0  0  0
   63.6920   31.7340   49.3070 O   0  0  0  0  0  0  0  0  0  0  0  0
   63.8870   32.8070   50.2330 C   0  0  1  0  0  0  0  0  0  0  0  0
   64.9745   32.9289   50.3451 H   0  0  0  0  0  0  0  0  0  0  0  0
   63.3900   34.1620   49.6810 C   0  0  0  0  0  0  0  0  0  0  0  0
   64.2236   34.6897   49.1946 H   0  0  0  0  0  0  0  0  0  0  0  0
   62.5905   33.9915   48.9449 H   0  0  0  0  0  0  0  0  0  0  0  0
   62.9010   34.9330   50.7360 O   0  0  0  0  0  0  0  0  0  0  0  0
   62.1480   34.4180   51.1300 H   0  0  0  0  0  0  0  0  0  0  0  0
   63.3990   32.4760   51.6670 C   0  0  1  0  0  0  0  0  0  0  0  0
   64.0085   31.6363   52.0323 H   0  0  0  0  0  0  0  0  0  0  0  0
   63.5780   33.5710   52.5250 O   0  0  0  0  0  0  0  0  0  0  0  0
   62.6860   33.9870   52.6360 H   0  0  0  0  0  0  0  0  0  0  0  0
   58.0510   32.5170   52.2860 C   0  0  0  0  0  0  0  0  0  0  0  0
   58.2070   33.4775   52.7988 H   0  0  0  0  0  0  0  0  0  0  0  0
   57.0510   31.6370   52.7260 C   0  0  0  0  0  0  0  0  0  0  0  0
   56.4613   31.8711   53.6246 H   0  0  0  0  0  0  0  0  0  0  0  0
  1  2  1  0
  2  3  2  0
  3  4  1  0
  4  5  1  0
  5  6  1  0
  5  7  2  0
  7  8  1  0
  8  9  2  0
  8 10  1  0
 10 11  1  0
 11 12  1  1
 11 13  1  0
 13 14  2  0
 13 15  1  0
 15 16  1  6
 15 17  1  0
 17 18  1  0
 18 19  1  1
 18 20  1  0
 20 21  1  6
 20 22  1  0
 22 23  1  0
 22 24  1  0
 22 25  1  0
 25 26  2  0
 26 27  1  0
 26 28  1  0
 28 29  1  0
 28 30  2  0
 30 31  1  0
 30 32  1  0
 32 33  1  0
 32 34  2  0
 34 35  1  0
 20 36  1  0
 36 37  2  0
 36 38  1  0
 38 39  1  1
 38 40  1  0
 40 41  1  1
 40 42  1  0
 42 43  2  0
 42 44  1  0
 44 45  1  0
 40 46  1  0
 46 47  1  0
 46 48  1  0
 46 49  1  0
 49 50  1  1
 49 51  1  0
 51 52  1  6
 51 53  1  0
 53 54  1  0
 53 55  1  0
 53 56  1  0
 15 57  1  0
 57 58  1  0
 58 59  1  1
 58 60  1  0
 60 61  1  0
 60 62  1  0
 60 63  1  0
 63 64  1  0
 58 65  1  0
 65 66  1  1
 65 67  1  0
 67 68  1  0
  7 69  1  0
 69 70  1  0
 69 71  2  0
 71 72  1  0
 71  3  1  0
 65 11  1  0
 51 18  1  0
 34 25  1  0
 49 38  1  0
M  CHG  3   4  -1  38   1  44  -1
M  END
>  <UniqueID>  (85) 
83

>  <SMILES>  (85) 
[H]/N=c1\ccc(C(=O)OC2C(=O)C(O[C@H]3C(Cc4ccccc4)C(=O)[NH+]4C(C([NH-])=O)CC4[C@H]3C)OC(CO)C2O)c[n-]1

>  <Energy>  (85) 
178.75271859639514

>  <Genealogy>  (85) 
CC1C(OC2OC(CO)C(O)C(OC(=O)c3ccc(=N)[n-]c3)C2=O)C(Cc2ccccc2)C(=O)[NH+]2C(C([NH-])=O)CC12 (protonated)
C[C@@H]1C2CC(C([NH-])=O)[NH+]2C(=O)C(Cc2ccccc2)[C@@H]1OC1OC(CO)C(O)C(OC(=O)c2ccc(=N)[n-]c2)C1=O (chirality)
[H]/N=c1\ccc(C(=O)OC2C(=O)C(O[C@H]3C(Cc4ccccc4)C(=O)[NH+]4C(C([NH-])=O)CC4[C@H]3C)OC(CO)C2O)c[n-]1 (cis-trans isomerization)
[H]/N=c1\ccc(C(=O)OC2C(=O)C(O[C@H]3C(Cc4ccccc4)C(=O)[NH+]4C(C([NH-])=O)CC4[C@H]3C)OC(CO)C2O)c[n-]1 (3D coordinates assigned)
[H]/N=c1\ccc(C(=O)OC2C(=O)C(O[C@H]3C(Cc4ccccc4)C(=O)[NH+]4C(C([NH-])=O)CC4[C@H]3C)OC(CO)C2O)c[n-]1 (nonaromatic ring conformer: 178.75271859639514 kcal/mol)

>  <smiles>  (85) 
CC1C(OC2OC(CO)C(O)C(OC(=O)c3ccc(=N)[nH]c3)C2=O)C(Cc2ccccc2)C(=O)N2C(C(N)=O)CC12

>  <score_type>  (85) 
oracle

>  <origin>  (85) 
adg

>  <m_score__min__energy>  (85) 
-10.699999999999999

>  <m_primary>  (85) 
energy

$$$$
85:0
     RDKit          3D

 61 65  0  0  0  0  0  0  0  0999 V2000
   57.8030   32.1960   42.4710 O   0  0  0  0  0  0  0  0  0  0  0  0
   58.0690   32.2910   43.6960 C   0  0  0  0  0  0  0  0  0  0  0  0
   58.0190   31.4220   44.8540 C   0  0  0  0  0  0  0  0  0  0  0  0
   57.6890   30.0400   45.0210 N   0  0  0  0  0  0  0  0  0  0  0  0
   58.7080   29.1360   45.5630 C   0  0  0  0  0  0  0  0  0  0  0  0
   58.3580   27.6660   45.2810 C   0  0  0  0  0  0  0  0  0  0  0  0
   56.9590   27.3430   45.8110 C   0  0  0  0  0  0  0  0  0  0  0  0
   55.9760   28.2580   45.2410 N   0  0  0  0  0  0  0  0  0  0  0  0
   56.3140   29.6160   44.9530 C   0  0  0  0  0  0  0  0  0  0  0  0
   55.4070   30.4230   44.6180 O   0  0  0  0  0  0  0  0  0  0  0  0
   58.4370   32.4440   45.6470 C   0  0  0  0  0  0  0  0  0  0  0  0
   58.5880   33.2900   44.5690 C   0  0  0  0  0  0  0  0  0  0  0  0
   59.0790   34.5770   44.6440 C   0  0  0  0  0  0  0  0  0  0  0  0
   59.4490   35.0060   45.9360 C   0  0  0  0  0  0  0  0  0  0  0  0
   59.2860   34.1590   47.0720 C   0  0  0  0  0  0  0  0  0  0  0  0
   58.7440   32.8430   46.9580 C   0  0  0  0  0  0  0  0  0  0  0  0
   58.5220   32.1170   48.0710 C   0  0  0  0  0  0  0  0  0  0  0  0
   58.9750   30.7020   48.2940 C   0  0  0  0  0  0  0  0  0  0  0  0
   59.1480   30.4410   49.7640 C   0  0  0  0  0  0  0  0  0  0  0  0
   58.7260   29.3530   50.2400 O   0  0  0  0  0  0  0  0  0  0  0  0
   59.8540   31.3670   50.6150 N   0  0  0  0  0  0  0  0  0  0  0  0
   61.3250   31.3410   50.6470 C   0  0  0  0  0  0  0  0  0  0  0  0
   61.8840   32.0920   49.4670 C   0  0  0  0  0  0  0  0  0  0  0  0
   62.2700   31.4030   48.3050 C   0  0  0  0  0  0  0  0  0  0  0  0
   62.8610   32.0900   47.2390 C   0  0  0  0  0  0  0  0  0  0  0  0
   63.0620   33.4710   47.3240 C   0  0  0  0  0  0  0  0  0  0  0  0
   62.6740   34.1630   48.4710 C   0  0  0  0  0  0  0  0  0  0  0  0
   62.0860   33.4780   49.5380 C   0  0  0  0  0  0  0  0  0  0  0  0
   59.1250   32.1860   51.5960 C   0  0  0  0  0  0  0  0  0  0  0  0
   57.9900   31.4200   52.2300 C   0  0  0  0  0  0  0  0  0  0  0  0
   56.6710   31.5570   51.7660 C   0  0  0  0  0  0  0  0  0  0  0  0
   55.6450   30.8190   52.3490 C   0  0  0  0  0  0  0  0  0  0  0  0
   55.9430   29.9330   53.3820 C   0  0  0  0  0  0  0  0  0  0  0  0
   57.2260   29.7900   53.8150 N   0  0  0  0  0  0  0  0  0  0  0  0
   58.2440   30.5020   53.2630 C   0  0  0  0  0  0  0  0  0  0  0  0
   59.6774   29.3690   45.0982 H   0  0  0  0  0  0  0  0  0  0  0  0
   58.7544   29.2788   46.6527 H   0  0  0  0  0  0  0  0  0  0  0  0
   58.3851   27.4881   44.1958 H   0  0  0  0  0  0  0  0  0  0  0  0
   59.0907   27.0199   45.7868 H   0  0  0  0  0  0  0  0  0  0  0  0
   56.6962   26.3110   45.5354 H   0  0  0  0  0  0  0  0  0  0  0  0
   56.9574   27.4538   46.9054 H   0  0  0  0  0  0  0  0  0  0  0  0
   59.1752   35.2231   43.7589 H   0  0  0  0  0  0  0  0  0  0  0  0
   59.8712   36.0129   46.0699 H   0  0  0  0  0  0  0  0  0  0  0  0
   59.5861   34.5299   48.0632 H   0  0  0  0  0  0  0  0  0  0  0  0
   57.9620   32.6009   48.8848 H   0  0  0  0  0  0  0  0  0  0  0  0
   58.2220   30.0106   47.8878 H   0  0  0  0  0  0  0  0  0  0  0  0
   59.9379   30.5476   47.7850 H   0  0  0  0  0  0  0  0  0  0  0  0
   61.6766   31.8116   51.5770 H   0  0  0  0  0  0  0  0  0  0  0  0
   61.6667   30.2964   50.6024 H   0  0  0  0  0  0  0  0  0  0  0  0
   62.1067   30.3176   48.2329 H   0  0  0  0  0  0  0  0  0  0  0  0
   63.1673   31.5439   46.3346 H   0  0  0  0  0  0  0  0  0  0  0  0
   63.5262   34.0118   46.4861 H   0  0  0  0  0  0  0  0  0  0  0  0
   62.8310   35.2498   48.5360 H   0  0  0  0  0  0  0  0  0  0  0  0
   61.7797   34.0295   50.4391 H   0  0  0  0  0  0  0  0  0  0  0  0
   59.8237   32.5047   52.3836 H   0  0  0  0  0  0  0  0  0  0  0  0
   58.7009   33.0540   51.0700 H   0  0  0  0  0  0  0  0  0  0  0  0
   56.4487   32.2489   50.9403 H   0  0  0  0  0  0  0  0  0  0  0  0
   54.6090   30.9342   51.9976 H   0  0  0  0  0  0  0  0  0  0  0  0
   55.1385   29.3465   53.8498 H   0  0  0  0  0  0  0  0  0  0  0  0
   57.4360   29.1130   54.5820 H   0  0  0  0  0  0  0  0  0  0  0  0
   59.2721   30.3587   53.6270 H   0  0  0  0  0  0  0  0  0  0  0  0
  1  2  2  0
  2  3  1  0
  3  4  1  0
  4  5  1  0
  5  6  1  0
  6  7  1  0
  7  8  1  0
  8  9  1  0
  9 10  2  0
  3 11  2  0
 11 12  1  0
 12 13  2  0
 13 14  1  0
 14 15  2  0
 15 16  1  0
 16 17  2  3
 17 18  1  0
 18 19  1  0
 19 20  2  0
 19 21  1  0
 21 22  1  0
 22 23  1  0
 23 24  2  0
 24 25  1  0
 25 26  2  0
 26 27  1  0
 27 28  2  0
 21 29  1  0
 29 30  1  0
 30 31  2  0
 31 32  1  0
 32 33  2  0
 33 34  1  0
 34 35  2  0
 12  2  1  0
 28 23  1  0
 35 30  1  0
  9  4  1  0
 16 11  1  0
  5 36  1  0
  5 37  1  0
  6 38  1  0
  6 39  1  0
  7 40  1  0
  7 41  1  0
 13 42  1  0
 14 43  1  0
 15 44  1  0
 17 45  1  0
 18 46  1  0
 18 47  1  0
 22 48  1  0
 22 49  1  0
 24 50  1  0
 25 51  1  0
 26 52  1  0
 27 53  1  0
 28 54  1  0
 29 55  1  0
 29 56  1  0
 31 57  1  0
 32 58  1  0
 33 59  1  0
 34 60  1  0
 35 61  1  0
M  CHG  2   8  -1  34   1
M  END
>  <UniqueID>  (86) 
84

>  <SMILES>  (86) 
O=C1C(N2CCC[N-]C2=O)=c2c1cccc2=CCC(=O)N(Cc1ccccc1)Cc1ccc[nH+]c1

>  <Energy>  (86) 
79.94083249146269

>  <Genealogy>  (86) 
O=C1C(N2CCC[N-]C2=O)=c2c1cccc2=CCC(=O)N(Cc1ccccc1)Cc1ccc[nH+]c1 (protonated)
O=C1C(N2CCC[N-]C2=O)=c2c1cccc2=CCC(=O)N(Cc1ccccc1)Cc1ccc[nH+]c1 (3D coordinates assigned)
O=C1C(N2CCC[N-]C2=O)=c2c1cccc2=CCC(=O)N(Cc1ccccc1)Cc1ccc[nH+]c1 (nonaromatic ring conformer: 79.94083249146269 kcal/mol)

>  <smiles>  (86) 
O=C1C(N2CCCNC2=O)=c2c1cccc2=CCC(=O)N(Cc1ccccc1)Cc1cccnc1

>  <score_type>  (86) 
oracle

>  <origin>  (86) 
adg

>  <m_score__min__energy>  (86) 
-10.6

>  <m_primary>  (86) 
energy

$$$$
86:0
     RDKit          3D

 37 39  0  0  0  0  0  0  0  0999 V2000
   54.0160   22.5240   46.7350 C   0  0  0  0  0  0  0  0  0  0  0  0
   53.7000   23.5130   45.2910 S   0  0  0  0  0  0  0  0  0  0  0  0
   52.2690   23.3250   44.8700 O   0  0  0  0  0  0  0  0  0  0  0  0
   53.9510   24.9580   45.6220 O   0  0  0  0  0  0  0  0  0  0  0  0
   54.7610   23.0050   44.0180 N   0  0  0  0  0  0  0  0  0  0  0  0
   56.1670   22.7630   44.1620 C   0  0  0  0  0  0  0  0  0  0  0  0
   56.8020   21.6630   43.5590 C   0  0  0  0  0  0  0  0  0  0  0  0
   58.1730   21.4600   43.7340 C   0  0  0  0  0  0  0  0  0  0  0  0
   58.9230   22.3500   44.5060 C   0  0  0  0  0  0  0  0  0  0  0  0
   58.3050   23.4610   45.1010 C   0  0  0  0  0  0  0  0  0  0  0  0
   59.1050   24.4010   45.9660 C   0  0  0  0  0  0  0  0  0  0  0  0
   58.2330   25.0630   46.9460 N   0  0  0  0  0  0  0  0  0  0  0  0
   57.9980   26.4330   46.5560 C   0  0  0  0  0  0  0  0  0  0  0  0
   56.7870   26.7730   45.9070 C   0  0  0  0  0  0  0  0  0  0  0  0
   56.5970   28.0950   45.5160 C   0  0  0  0  0  0  0  0  0  0  0  0
   55.5300   28.6210   44.8960 N   0  0  0  0  0  0  0  0  0  0  0  0
   55.8930   29.9220   44.7650 C   0  0  0  0  0  0  0  0  0  0  0  0
   55.1480   30.7780   44.2200 O   0  0  0  0  0  0  0  0  0  0  0  0
   57.1170   30.2350   45.2620 N   0  0  0  0  0  0  0  0  0  0  0  0
   57.5380   29.0530   45.7330 C   0  0  0  0  0  0  0  0  0  0  0  0
   58.7490   28.7690   46.3540 C   0  0  0  0  0  0  0  0  0  0  0  0
   58.9870   27.4430   46.7670 C   0  0  0  0  0  0  0  0  0  0  0  0
   60.5300   27.0800   47.5330 Cl  0  0  0  0  0  0  0  0  0  0  0  0
   56.9240   23.6530   44.9350 C   0  0  0  0  0  0  0  0  0  0  0  0
   53.8249   23.1222   47.6381 H   0  0  0  0  0  0  0  0  0  0  0  0
   53.3537   21.6457   46.7300 H   0  0  0  0  0  0  0  0  0  0  0  0
   55.0648   22.1924   46.7300 H   0  0  0  0  0  0  0  0  0  0  0  0
   56.2174   20.9600   42.9475 H   0  0  0  0  0  0  0  0  0  0  0  0
   58.6637   20.5960   43.2620 H   0  0  0  0  0  0  0  0  0  0  0  0
   60.0004   22.1799   44.6481 H   0  0  0  0  0  0  0  0  0  0  0  0
   59.8814   23.8317   46.4980 H   0  0  0  0  0  0  0  0  0  0  0  0
   59.5688   25.1666   45.3267 H   0  0  0  0  0  0  0  0  0  0  0  0
   58.6660   25.0260   47.8980 H   0  0  0  0  0  0  0  0  0  0  0  0
   57.3210   24.5510   47.0010 H   0  0  0  0  0  0  0  0  0  0  0  0
   56.0159   26.0119   45.7166 H   0  0  0  0  0  0  0  0  0  0  0  0
   59.4994   29.5564   46.5181 H   0  0  0  0  0  0  0  0  0  0  0  0
   56.4316   24.5107   45.4166 H   0  0  0  0  0  0  0  0  0  0  0  0
  1  2  1  0
  2  3  2  0
  2  4  2  0
  2  5  1  0
  5  6  1  0
  6  7  2  0
  7  8  1  0
  8  9  2  0
  9 10  1  0
 10 11  1  0
 11 12  1  0
 12 13  1  0
 13 14  2  0
 14 15  1  0
 15 16  1  0
 16 17  1  0
 17 18  2  0
 17 19  1  0
 19 20  1  0
 20 21  1  0
 21 22  2  0
 22 23  1  0
 10 24  2  0
 24  6  1  0
 22 13  1  0
 20 15  2  0
  1 25  1  0
  1 26  1  0
  1 27  1  0
  7 28  1  0
  8 29  1  0
  9 30  1  0
 11 31  1  0
 11 32  1  0
 12 33  1  0
 12 34  1  0
 14 35  1  0
 21 36  1  0
 24 37  1  0
M  CHG  4   5  -1  12   1  16  -1  19  -1
M  END
>  <UniqueID>  (87) 
85

>  <SMILES>  (87) 
CS(=O)(=O)[N-]c1cccc(C[NH2+]c2cc3[n-]c(=O)[n-]c3cc2Cl)c1

>  <Energy>  (87) 
74.43346002864475

>  <Genealogy>  (87) 
CS(=O)(=O)[N-]c1cccc(C[NH2+]c2cc3[n-]c(=O)[n-]c3cc2Cl)c1 (protonated)
CS(=O)(=O)[N-]c1cccc(C[NH2+]c2cc3[n-]c(=O)[n-]c3cc2Cl)c1 (3D coordinates assigned)
CS(=O)(=O)[N-]c1cccc(C[NH2+]c2cc3[n-]c(=O)[n-]c3cc2Cl)c1 (optimized conformer: 74.43346002864475 kcal/mol)

>  <smiles>  (87) 
CS(=O)(=O)Nc1cccc(CNc2cc3[nH]c(=O)[nH]c3cc2Cl)c1

>  <score_type>  (87) 
oracle

>  <origin>  (87) 
adg

>  <m_score__min__energy>  (87) 
-11.31

>  <m_primary>  (87) 
energy

$$$$
87:0
     RDKit          3D

 24 25  0  0  0  0  0  0  0  0999 V2000
   58.5932   28.5156   44.2117 H   0  0  0  0  0  0  0  0  0  0  0  0
   57.8790   29.0040   44.8910 C   0  0  0  0  0  0  0  0  0  0  0  0
   56.7360   28.1990   45.3630 C   0  0  0  0  0  0  0  0  0  0  0  0
   55.5790   28.6750   45.2150 O   0  0  0  0  0  0  0  0  0  0  0  0
   56.8990   26.8920   46.0530 C   0  0  0  0  0  0  0  0  0  0  0  0
   55.8130   26.0240   46.3040 C   0  0  0  0  0  0  0  0  0  0  0  0
   54.5280   26.3380   45.8770 O   0  0  0  0  0  0  0  0  0  0  0  0
   56.0170   24.8470   46.9530 N   0  0  0  0  0  0  0  0  0  0  0  0
   57.2490   24.4570   47.3710 C   0  0  0  0  0  0  0  0  0  0  0  0
   57.3890   23.3600   47.9720 O   0  0  0  0  0  0  0  0  0  0  0  0
   58.3560   25.2700   47.1290 C   0  0  0  0  0  0  0  0  0  0  0  0
   59.3577   24.9572   47.4587 H   0  0  0  0  0  0  0  0  0  0  0  0
   58.1800   26.4850   46.4640 C   0  0  0  0  0  0  0  0  0  0  0  0
   59.0492   27.1277   46.2605 H   0  0  0  0  0  0  0  0  0  0  0  0
   58.1220   30.2930   45.2240 C   0  0  0  0  0  0  0  0  0  0  0  0
   57.1200   31.3380   44.8920 C   0  0  0  0  0  0  0  0  0  0  0  0
   56.0970   31.0610   44.2100 O   0  0  0  0  0  0  0  0  0  0  0  0
   57.2930   32.6760   45.3630 N   0  0  0  0  0  0  0  0  0  0  0  0
   58.4340   33.0470   46.1330 C   0  0  0  0  0  0  0  0  0  0  0  0
   58.5400   34.2240   46.5660 O   0  0  0  0  0  0  0  0  0  0  0  0
   59.4600   32.0890   46.4020 N   0  0  0  0  0  0  0  0  0  0  0  0
   60.3120   32.3850   46.9300 H   0  0  0  0  0  0  0  0  0  0  0  0
   59.3690   30.7510   45.9020 C   0  0  0  0  0  0  0  0  0  0  0  0
   60.3760   30.0000   45.9960 O   0  0  0  0  0  0  0  0  0  0  0  0
  1  2  1  0
  2  3  1  0
  3  4  2  0
  3  5  1  0
  5  6  2  0
  6  7  1  0
  6  8  1  0
  8  9  1  0
  9 10  2  0
  9 11  1  0
 11 12  1  0
 11 13  2  0
 13 14  1  0
  2 15  2  0
 15 16  1  0
 16 17  2  0
 16 18  1  0
 18 19  1  0
 19 20  2  0
 19 21  1  0
 21 22  1  0
 21 23  1  0
 23 24  2  0
 13  5  1  0
 23 15  1  0
M  CHG  3   7  -1   8  -1  18  -1
M  END
>  <UniqueID>  (88) 
86

>  <SMILES>  (88) 
O=C1[N-]C(=O)/C(=C/C(=O)c2ccc(=O)[n-]c2[O-])C(=O)N1

>  <Energy>  (88) 
36.63623135443182

>  <Genealogy>  (88) 
O=C1[N-]C(=O)C(=CC(=O)c2ccc(=O)[n-]c2[O-])C(=O)N1 (protonated)
O=C1[N-]C(=O)/C(=C/C(=O)c2ccc(=O)[n-]c2[O-])C(=O)N1 (cis-trans isomerization)
O=C1[N-]C(=O)/C(=C/C(=O)c2ccc(=O)[n-]c2[O-])C(=O)N1 (3D coordinates assigned)
O=C1[N-]C(=O)/C(=C/C(=O)c2ccc(=O)[n-]c2[O-])C(=O)N1 (nonaromatic ring conformer: 36.63623135443182 kcal/mol)

>  <smiles>  (88) 
O=C1NC(=O)C(=CC(=O)c2ccc(=O)[nH]c2O)C(=O)N1

>  <score_type>  (88) 
oracle

>  <origin>  (88) 
adg

>  <m_score__min__energy>  (88) 
-14.539999999999999

>  <m_primary>  (88) 
energy

$$$$
88:0
     RDKit          3D

 58 61  0  0  0  0  0  0  0  0999 V2000
   55.5860   26.9500   45.6530 O   0  0  0  0  0  0  0  0  0  0  0  0
   56.0360   25.8040   45.9230 C   0  0  0  0  0  0  0  0  0  0  0  0
   55.1590   24.7640   46.3730 N   0  0  0  0  0  0  0  0  0  0  0  0
   55.3110   23.3560   46.1350 C   0  0  0  0  0  0  0  0  0  0  0  0
   54.9240   22.3910   47.0830 C   0  0  0  0  0  0  0  0  0  0  0  0
   55.0660   21.0280   46.8000 C   0  0  0  0  0  0  0  0  0  0  0  0
   55.5840   20.6190   45.5680 C   0  0  0  0  0  0  0  0  0  0  0  0
   55.9500   21.5710   44.6130 C   0  0  0  0  0  0  0  0  0  0  0  0
   56.4410   21.1740   43.4130 F   0  0  0  0  0  0  0  0  0  0  0  0
   55.8060   22.9340   44.8930 C   0  0  0  0  0  0  0  0  0  0  0  0
   57.4410   25.5440   45.8340 N   0  0  0  0  0  0  0  0  0  0  0  0
   58.3950   26.5730   45.4110 C   0  0  1  0  0  0  0  0  0  0  0  0
   58.4000   26.7260   43.8770 C   0  0  0  0  0  0  0  0  0  0  0  0
   57.6950   28.0570   43.5570 C   0  0  0  0  0  0  0  0  0  0  0  0
   57.6250   28.7850   44.8120 N   0  0  0  0  0  0  0  0  0  0  0  0
   57.0320   30.0870   44.9500 C   0  0  0  0  0  0  0  0  0  0  0  0
   55.8830   30.2920   44.4730 O   0  0  0  0  0  0  0  0  0  0  0  0
   57.7510   31.1990   45.6110 C   0  0  0  0  0  0  0  0  0  0  0  0
   58.4840   30.9790   46.7900 C   0  0  0  0  0  0  0  0  0  0  0  0
   59.1750   32.0290   47.3990 C   0  0  0  0  0  0  0  0  0  0  0  0
   59.1560   33.3110   46.8340 C   0  0  0  0  0  0  0  0  0  0  0  0
   60.0440   34.6310   47.5990 S   0  0  0  0  0  0  0  0  0  0  0  0
   59.9870   35.8470   46.7170 O   0  0  0  0  0  0  0  0  0  0  0  0
   59.3850   34.9730   48.9060 O   0  0  0  0  0  0  0  0  0  0  0  0
   61.7120   34.2000   47.8900 N   0  0  0  0  0  0  0  0  0  0  0  0
   61.8290   33.4110   49.1260 C   0  0  0  0  0  0  0  0  0  0  0  0
   63.3100   33.2480   49.5170 C   0  0  0  0  0  0  0  0  0  0  0  0
   64.2550   33.3760   48.3090 C   0  0  0  0  0  0  0  0  0  0  0  0
   63.6160   32.7920   47.0460 C   0  0  0  0  0  0  0  0  0  0  0  0
   62.2550   33.4560   46.7330 C   0  0  0  0  0  0  0  0  0  0  0  0
   58.4380   33.5320   45.6510 C   0  0  0  0  0  0  0  0  0  0  0  0
   57.7460   32.4830   45.0410 C   0  0  0  0  0  0  0  0  0  0  0  0
   57.9640   27.9120   45.8760 C   0  0  0  0  0  0  0  0  0  0  0  0
   57.8550   28.2250   47.0920 O   0  0  0  0  0  0  0  0  0  0  0  0
   54.5082   22.7093   48.0504 H   0  0  0  0  0  0  0  0  0  0  0  0
   54.7697   20.2777   47.5479 H   0  0  0  0  0  0  0  0  0  0  0  0
   55.7036   19.5474   45.3502 H   0  0  0  0  0  0  0  0  0  0  0  0
   56.0831   23.6799   44.1334 H   0  0  0  0  0  0  0  0  0  0  0  0
   57.7800   24.5870   46.0830 H   0  0  0  0  0  0  0  0  0  0  0  0
   59.3681   26.2610   45.8180 H   0  0  0  0  0  0  0  0  0  0  0  0
   59.4341   26.7462   43.5024 H   0  0  0  0  0  0  0  0  0  0  0  0
   57.8841   25.8820   43.3958 H   0  0  0  0  0  0  0  0  0  0  0  0
   58.2740   28.6276   42.8159 H   0  0  0  0  0  0  0  0  0  0  0  0
   56.6944   27.8907   43.1314 H   0  0  0  0  0  0  0  0  0  0  0  0
   58.5136   29.9738   47.2358 H   0  0  0  0  0  0  0  0  0  0  0  0
   59.7371   31.8485   48.3271 H   0  0  0  0  0  0  0  0  0  0  0  0
   61.2939   33.9260   49.9374 H   0  0  0  0  0  0  0  0  0  0  0  0
   61.3912   32.4159   48.9585 H   0  0  0  0  0  0  0  0  0  0  0  0
   63.5687   34.0250   50.2514 H   0  0  0  0  0  0  0  0  0  0  0  0
   63.4365   32.2386   49.9354 H   0  0  0  0  0  0  0  0  0  0  0  0
   64.4795   34.4394   48.1394 H   0  0  0  0  0  0  0  0  0  0  0  0
   65.1769   32.8163   48.5253 H   0  0  0  0  0  0  0  0  0  0  0  0
   64.2951   32.9534   46.1958 H   0  0  0  0  0  0  0  0  0  0  0  0
   63.4428   31.7189   47.2146 H   0  0  0  0  0  0  0  0  0  0  0  0
   62.3875   34.1550   45.8940 H   0  0  0  0  0  0  0  0  0  0  0  0
   61.5414   32.6571   46.4828 H   0  0  0  0  0  0  0  0  0  0  0  0
   58.4193   34.5355   45.2009 H   0  0  0  0  0  0  0  0  0  0  0  0
   57.1931   32.6637   44.1074 H   0  0  0  0  0  0  0  0  0  0  0  0
  1  2  2  0
  2  3  1  0
  3  4  1  0
  4  5  2  0
  5  6  1  0
  6  7  2  0
  7  8  1  0
  8  9  1  0
  8 10  2  0
  2 11  1  0
 11 12  1  0
 12 13  1  0
 13 14  1  0
 14 15  1  0
 15 16  1  0
 16 17  2  0
 16 18  1  0
 18 19  2  0
 19 20  1  0
 20 21  2  0
 21 22  1  0
 22 23  2  0
 22 24  2  0
 22 25  1  0
 25 26  1  0
 26 27  1  0
 27 28  1  0
 28 29  1  0
 29 30  1  0
 21 31  1  0
 31 32  2  0
 15 33  1  0
 33 34  2  0
 10  4  1  0
 33 12  1  0
 32 18  1  0
 30 25  1  0
  5 35  1  0
  6 36  1  0
  7 37  1  0
 10 38  1  0
 11 39  1  0
 12 40  1  1
 13 41  1  0
 13 42  1  0
 14 43  1  0
 14 44  1  0
 19 45  1  0
 20 46  1  0
 26 47  1  0
 26 48  1  0
 27 49  1  0
 27 50  1  0
 28 51  1  0
 28 52  1  0
 29 53  1  0
 29 54  1  0
 30 55  1  0
 30 56  1  0
 31 57  1  0
 32 58  1  0
M  CHG  1   3  -1
M  END
>  <UniqueID>  (89) 
87

>  <SMILES>  (89) 
O=C([N-]c1cccc(F)c1)N[C@H]1CCN(C(=O)c2ccc(S(=O)(=O)N3CCCCC3)cc2)C1=O

>  <Energy>  (89) 
76.72998669550007

>  <Genealogy>  (89) 
O=C([N-]c1cccc(F)c1)NC1CCN(C(=O)c2ccc(S(=O)(=O)N3CCCCC3)cc2)C1=O (protonated)
O=C([N-]c1cccc(F)c1)N[C@H]1CCN(C(=O)c2ccc(S(=O)(=O)N3CCCCC3)cc2)C1=O (chirality)
O=C([N-]c1cccc(F)c1)N[C@H]1CCN(C(=O)c2ccc(S(=O)(=O)N3CCCCC3)cc2)C1=O (3D coordinates assigned)
O=C([N-]c1cccc(F)c1)N[C@H]1CCN(C(=O)c2ccc(S(=O)(=O)N3CCCCC3)cc2)C1=O (nonaromatic ring conformer: 76.72998669550007 kcal/mol)

>  <smiles>  (89) 
O=C(Nc1cccc(F)c1)NC1CCN(C(=O)c2ccc(S(=O)(=O)N3CCCCC3)cc2)C1=O

>  <score_type>  (89) 
oracle

>  <origin>  (89) 
adg

>  <m_score__min__energy>  (89) 
-12.02

>  <m_primary>  (89) 
energy

$$$$
