0:0
     RDKit          3D

 85 89  0  0  0  0  0  0  0  0999 V2000
   57.0270   20.7210   42.8370 C   0  0  0  0  0  0  0  0  0  0  0  0
   56.0640   21.7700   42.8960 O   0  0  0  0  0  0  0  0  0  0  0  0
   56.0220   22.7570   43.8930 C   0  0  0  0  0  0  0  0  0  0  0  0
   55.2040   22.5450   45.0050 C   0  0  0  0  0  0  0  0  0  0  0  0
   55.1130   23.4990   46.0260 C   0  0  0  0  0  0  0  0  0  0  0  0
   54.2020   23.2540   47.1110 N   0  0  0  0  0  0  0  0  0  0  0  0
   52.8670   22.7260   47.0370 C   0  0  0  0  0  0  0  0  0  0  0  0
   52.4250   22.0730   48.0170 O   0  0  0  0  0  0  0  0  0  0  0  0
   51.9820   22.9630   45.8750 C   0  0  0  0  0  0  0  0  0  0  0  0
   52.1610   24.0820   45.0460 C   0  0  0  0  0  0  0  0  0  0  0  0
   51.3190   24.2670   43.9430 C   0  0  0  0  0  0  0  0  0  0  0  0
   50.3270   23.3730   43.6880 N   0  0  0  0  0  0  0  0  0  0  0  0
   50.1220   22.2900   44.4870 C   0  0  0  0  0  0  0  0  0  0  0  0
   50.9360   22.0690   45.6000 C   0  0  0  0  0  0  0  0  0  0  0  0
   55.8470   24.6940   45.9200 C   0  0  0  0  0  0  0  0  0  0  0  0
   56.6810   24.9150   44.8130 C   0  0  0  0  0  0  0  0  0  0  0  0
   57.4240   26.1780   44.6850 C   0  0  0  0  0  0  0  0  0  0  0  0
   58.0500   26.4140   43.6180 O   0  0  0  0  0  0  0  0  0  0  0  0
   57.4280   27.1340   45.7610 N   0  0  0  0  0  0  0  0  0  0  0  0
   58.1660   28.3620   45.6870 C   0  0  0  0  0  0  0  0  0  0  0  0
   59.5580   28.3670   45.8500 C   0  0  0  0  0  0  0  0  0  0  0  0
   60.2650   29.5700   45.8120 C   0  0  0  0  0  0  0  0  0  0  0  0
   59.5930   30.7750   45.6060 C   0  0  0  0  0  0  0  0  0  0  0  0
   58.2040   30.7870   45.4170 C   0  0  0  0  0  0  0  0  0  0  0  0
   57.4730   32.0960   45.2130 C   0  0  0  0  0  0  0  0  0  0  0  0
   58.3200   33.2470   45.5770 N   0  0  0  0  0  0  0  0  0  0  0  0
   58.8220   34.1130   44.5020 C   0  0  0  0  0  0  0  0  0  0  0  0
   58.8090   33.4310   46.9290 C   0  0  0  0  0  0  0  0  0  0  0  0
   59.7090   34.4680   47.2330 C   0  0  0  0  0  0  0  0  0  0  0  0
   60.1800   34.6220   48.5380 C   0  0  0  0  0  0  0  0  0  0  0  0
   59.7570   33.7870   49.5200 N   0  0  0  0  0  0  0  0  0  0  0  0
   58.8720   32.7840   49.2870 C   0  0  0  0  0  0  0  0  0  0  0  0
   58.5250   32.0260   50.2910 N   0  0  0  0  0  0  0  0  0  0  0  0
   58.9440   30.6820   50.5700 C   0  0  0  0  0  0  0  0  0  0  0  0
   58.1570   29.7110   50.4000 O   0  0  0  0  0  0  0  0  0  0  0  0
   60.3080   30.4420   51.1380 C   0  0  0  0  0  0  0  0  0  0  0  0
   61.3070   31.4850   50.6200 C   0  0  0  0  0  0  0  0  0  0  0  0
   62.3290   30.8480   49.7570 N   0  0  0  0  0  0  0  0  0  0  0  0
   61.8770   30.6460   48.3600 C   0  0  0  0  0  0  0  0  0  0  0  0
   61.9070   31.9420   47.5270 C   0  0  0  0  0  0  0  0  0  0  0  0
   63.2440   32.5610   47.5920 N   0  0  0  0  0  0  0  0  0  0  0  0
   63.2600   33.8000   46.7950 C   0  0  0  0  0  0  0  0  0  0  0  0
   63.6030   32.8540   48.9920 C   0  0  0  0  0  0  0  0  0  0  0  0
   63.6290   31.5500   49.8020 C   0  0  0  0  0  0  0  0  0  0  0  0
   58.3930   32.5840   47.9740 C   0  0  0  0  0  0  0  0  0  0  0  0
   57.4960   29.5710   45.4460 C   0  0  0  0  0  0  0  0  0  0  0  0
   56.7620   23.9500   43.8010 C   0  0  0  0  0  0  0  0  0  0  0  0
   57.3038   20.4195   43.8580 H   0  0  0  0  0  0  0  0  0  0  0  0
   56.5986   19.8596   42.3037 H   0  0  0  0  0  0  0  0  0  0  0  0
   57.9219   21.0743   42.3037 H   0  0  0  0  0  0  0  0  0  0  0  0
   54.6223   21.6144   45.0799 H   0  0  0  0  0  0  0  0  0  0  0  0
   52.9579   24.8088   45.2619 H   0  0  0  0  0  0  0  0  0  0  0  0
   51.4600   25.1355   43.2828 H   0  0  0  0  0  0  0  0  0  0  0  0
   49.3104   21.5848   44.2545 H   0  0  0  0  0  0  0  0  0  0  0  0
   50.7590   21.2028   46.2545 H   0  0  0  0  0  0  0  0  0  0  0  0
   55.7672   25.4580   46.7074 H   0  0  0  0  0  0  0  0  0  0  0  0
   57.0810   26.8230   46.6970 H   0  0  0  0  0  0  0  0  0  0  0  0
   60.0950   27.4201   46.0083 H   0  0  0  0  0  0  0  0  0  0  0  0
   61.3569   29.5678   45.9451 H   0  0  0  0  0  0  0  0  0  0  0  0
   60.1556   31.7201   45.5918 H   0  0  0  0  0  0  0  0  0  0  0  0
   57.1848   32.1840   44.1551 H   0  0  0  0  0  0  0  0  0  0  0  0
   56.5842   32.1012   45.8611 H   0  0  0  0  0  0  0  0  0  0  0  0
   59.3280   34.9858   44.9404 H   0  0  0  0  0  0  0  0  0  0  0  0
   59.5340   33.5504   43.8803 H   0  0  0  0  0  0  0  0  0  0  0  0
   57.9800   34.4513   43.8803 H   0  0  0  0  0  0  0  0  0  0  0  0
   60.0416   35.1573   46.4429 H   0  0  0  0  0  0  0  0  0  0  0  0
   60.8967   35.4233   48.7710 H   0  0  0  0  0  0  0  0  0  0  0  0
   60.2577   30.5050   52.2350 H   0  0  0  0  0  0  0  0  0  0  0  0
   60.6483   29.4435   50.8262 H   0  0  0  0  0  0  0  0  0  0  0  0
   60.7658   32.2453   50.0378 H   0  0  0  0  0  0  0  0  0  0  0  0
   61.8107   31.9500   51.4803 H   0  0  0  0  0  0  0  0  0  0  0  0
   62.5353   29.9059   47.8816 H   0  0  0  0  0  0  0  0  0  0  0  0
   60.8330   30.3015   48.3973 H   0  0  0  0  0  0  0  0  0  0  0  0
   61.6668   31.7060   46.4798 H   0  0  0  0  0  0  0  0  0  0  0  0
   61.1663   32.6462   47.9338 H   0  0  0  0  0  0  0  0  0  0  0  0
   63.2712   34.6693   47.4689 H   0  0  0  0  0  0  0  0  0  0  0  0
   64.1584   33.8163   46.1605 H   0  0  0  0  0  0  0  0  0  0  0  0
   62.3623   33.8395   46.1605 H   0  0  0  0  0  0  0  0  0  0  0  0
   64.5968   33.3245   49.0241 H   0  0  0  0  0  0  0  0  0  0  0  0
   62.8573   33.5373   49.4245 H   0  0  0  0  0  0  0  0  0  0  0  0
   64.4047   30.8892   49.3876 H   0  0  0  0  0  0  0  0  0  0  0  0
   63.8436   31.8039   50.8506 H   0  0  0  0  0  0  0  0  0  0  0  0
   57.6915   31.7625   47.7664 H   0  0  0  0  0  0  0  0  0  0  0  0
   56.4088   29.5684   45.2784 H   0  0  0  0  0  0  0  0  0  0  0  0
   57.4084   24.1261   42.9286 H   0  0  0  0  0  0  0  0  0  0  0  0
  1  2  1  0
  2  3  1  0
  3  4  2  0
  4  5  1  0
  5  6  1  0
  6  7  1  0
  7  8  2  0
  7  9  1  0
  9 10  2  0
 10 11  1  0
 11 12  2  0
 12 13  1  0
 13 14  2  0
  5 15  2  0
 15 16  1  0
 16 17  1  0
 17 18  2  0
 17 19  1  0
 19 20  1  0
 20 21  2  0
 21 22  1  0
 22 23  2  0
 23 24  1  0
 24 25  1  0
 25 26  1  0
 26 27  1  0
 26 28  1  0
 28 29  1  0
 29 30  2  0
 30 31  1  0
 31 32  1  0
 32 33  2  3
 33 34  1  0
 34 35  2  0
 34 36  1  0
 36 37  1  0
 37 38  1  0
 38 39  1  0
 39 40  1  0
 40 41  1  0
 41 42  1  0
 41 43  1  0
 43 44  1  0
 32 45  1  0
 24 46  2  0
 16 47  2  0
 47  3  1  0
 14  9  1  0
 46 20  1  0
 45 28  2  0
 44 38  1  0
  1 48  1  0
  1 49  1  0
  1 50  1  0
  4 51  1  0
 10 52  1  0
 11 53  1  0
 13 54  1  0
 14 55  1  0
 15 56  1  0
 19 57  1  0
 21 58  1  0
 22 59  1  0
 23 60  1  0
 25 61  1  0
 25 62  1  0
 27 63  1  0
 27 64  1  0
 27 65  1  0
 29 66  1  0
 30 67  1  0
 36 68  1  0
 36 69  1  0
 37 70  1  0
 37 71  1  0
 39 72  1  0
 39 73  1  0
 40 74  1  0
 40 75  1  0
 42 76  1  0
 42 77  1  0
 42 78  1  0
 43 79  1  0
 43 80  1  0
 44 81  1  0
 44 82  1  0
 45 83  1  0
 46 84  1  0
 47 85  1  0
M  CHG  2   6  -1  31  -1
M  END
>  <UniqueID>  (1) 
1

>  <SMILES>  (1) 
COc1cc([N-]C(=O)c2ccncc2)cc(C(=O)Nc2cccc(CN(C)c3cc[n-]c(=NC(=O)CCN4CCN(C)CC4)c3)c2)c1

>  <Energy>  (1) 
117.95766355051792

>  <Genealogy>  (1) 
COc1cc([N-]C(=O)c2ccncc2)cc(C(=O)Nc2cccc(CN(C)c3cc[n-]c(=NC(=O)CCN4CCN(C)CC4)c3)c2)c1 (protonated)
COc1cc([N-]C(=O)c2ccncc2)cc(C(=O)Nc2cccc(CN(C)c3cc[n-]c(=NC(=O)CCN4CCN(C)CC4)c3)c2)c1 (3D coordinates assigned)
COc1cc([N-]C(=O)c2ccncc2)cc(C(=O)Nc2cccc(CN(C)c3cc[n-]c(=NC(=O)CCN4CCN(C)CC4)c3)c2)c1 (nonaromatic ring conformer: 117.95766355051792 kcal/mol)

>  <smiles>  (1) 
COc1cc(NC(=O)c2ccncc2)cc(C(=O)Nc2cccc(CN(C)c3cc[nH]c(=NC(=O)CCN4CCN(C)CC4)c3)c2)c1

>  <score_type>  (1) 
oracle

>  <origin>  (1) 
adg

>  <m_score__min__energy>  (1) 
-11.210000000000001

>  <m_primary>  (1) 
energy

$$$$
1:0
     RDKit          3D

 56 59  0  0  1  0  0  0  0  0999 V2000
   54.1680   24.5170   45.6110 C   0  0  0  0  0  0  0  0  0  0  0  0
   54.7380   25.7540   45.9610 O   0  0  0  0  0  0  0  0  0  0  0  0
   56.0950   25.9490   45.7780 C   0  0  0  0  0  0  0  0  0  0  0  0
   56.8750   24.8610   45.5230 C   0  0  0  0  0  0  0  0  0  0  0  0
   58.2240   25.0640   45.3440 C   0  0  0  0  0  0  0  0  0  0  0  0
   58.7640   26.3370   45.4190 C   0  0  0  0  0  0  0  0  0  0  0  0
   57.9940   27.4590   45.6770 C   0  0  0  0  0  0  0  0  0  0  0  0
   58.5660   28.7960   45.7560 C   0  0  0  0  0  0  0  0  0  0  0  0
   59.5940   29.0960   46.6230 C   0  0  0  0  0  0  0  0  0  0  0  0
   60.1530   30.3700   46.7110 C   0  0  0  0  0  0  0  0  0  0  0  0
   61.1170   30.6160   47.5350 N   0  0  0  0  0  0  0  0  0  0  0  0
   60.7960   31.1550   48.8360 C   0  0  0  0  0  0  0  0  0  0  0  0
   61.6190   30.9020   49.7420 O   0  0  0  0  0  0  0  0  0  0  0  0
   59.6290   31.9070   49.0290 N   0  0  0  0  0  0  0  0  0  0  0  0
   59.1970   32.4880   50.2410 C   0  0  0  0  0  0  0  0  0  0  0  0
   59.6340   33.6640   50.7680 C   0  0  0  0  0  0  0  0  0  0  0  0
   59.1650   34.1860   51.9770 C   0  0  0  0  0  0  0  0  0  0  0  0
   58.2020   33.5000   52.7020 C   0  0  0  0  0  0  0  0  0  0  0  0
   57.7660   32.3110   52.1580 C   0  0  0  0  0  0  0  0  0  0  0  0
   58.2310   31.7990   50.9690 C   0  0  0  0  0  0  0  0  0  0  0  0
   57.7200   30.6080   50.5320 F   0  0  0  0  0  0  0  0  0  0  0  0
   59.6470   31.3210   45.9060 N   0  0  0  0  0  0  0  0  0  0  0  0
   58.6350   31.0560   45.0420 C   0  0  0  0  0  0  0  0  0  0  0  0
   58.1480   32.1550   44.2040 C   0  0  0  0  0  0  0  0  0  0  0  0
   58.0570   33.4210   44.8780 N   0  0  0  0  0  0  0  0  0  0  0  0
   59.3060   33.9680   45.3100 C   0  0  0  0  0  0  0  0  0  0  0  0
   59.0430   34.8710   46.5060 C   0  0  0  0  0  0  0  0  0  0  0  0
   58.6070   34.0860   47.5730 O   0  0  0  0  0  0  0  0  0  0  0  0
   57.5010   33.3130   47.2830 C   0  0  0  0  0  0  0  0  0  0  0  0
   57.0200   33.4190   45.8640 C   0  0  0  0  0  0  0  0  0  0  0  0
   58.1130   29.7970   44.9830 N   0  0  0  0  0  0  0  0  0  0  0  0
   56.6400   27.2330   45.8550 C   0  0  0  0  0  0  0  0  0  0  0  0
   53.9114   23.9600   46.5242 H   0  0  0  0  0  0  0  0  0  0  0  0
   53.2577   24.6876   45.0175 H   0  0  0  0  0  0  0  0  0  0  0  0
   54.8891   23.9358   45.0175 H   0  0  0  0  0  0  0  0  0  0  0  0
   56.4399   23.8525   45.4622 H   0  0  0  0  0  0  0  0  0  0  0  0
   58.8808   24.2057   45.1391 H   0  0  0  0  0  0  0  0  0  0  0  0
   59.8464   26.4619   45.2678 H   0  0  0  0  0  0  0  0  0  0  0  0
   59.9889   28.2994   47.2708 H   0  0  0  0  0  0  0  0  0  0  0  0
   59.0220   32.0410   48.1610 H   0  0  0  0  0  0  0  0  0  0  0  0
   60.3953   34.2330   50.2143 H   0  0  0  0  0  0  0  0  0  0  0  0
   59.5599   35.1412   52.3535 H   0  0  0  0  0  0  0  0  0  0  0  0
   57.8091   33.8825   53.6556 H   0  0  0  0  0  0  0  0  0  0  0  0
   57.0027   31.7390   52.7059 H   0  0  0  0  0  0  0  0  0  0  0  0
   58.8342   32.2677   43.3517 H   0  0  0  0  0  0  0  0  0  0  0  0
   57.1254   31.8877   43.8993 H   0  0  0  0  0  0  0  0  0  0  0  0
   59.9877   33.1550   45.6004 H   0  0  0  0  0  0  0  0  0  0  0  0
   59.7703   34.5431   44.4953 H   0  0  0  0  0  0  0  0  0  0  0  0
   59.9696   35.3937   46.7857 H   0  0  0  0  0  0  0  0  0  0  0  0
   58.2748   35.6158   46.2509 H   0  0  0  0  0  0  0  0  0  0  0  0
   57.7555   32.2614   47.4816 H   0  0  0  0  0  0  0  0  0  0  0  0
   56.6841   33.6860   47.9183 H   0  0  0  0  0  0  0  0  0  0  0  0
   56.3576   32.5643   45.6624 H   0  0  0  0  0  0  0  0  0  0  0  0
   56.5115   34.3909   45.7809 H   0  0  0  0  0  0  0  0  0  0  0  0
   57.3400   29.6840   44.2930 H   0  0  0  0  0  0  0  0  0  0  0  0
   55.9766   28.0856   46.0622 H   0  0  0  0  0  0  0  0  0  0  0  0
  1  2  1  0
  2  3  1  0
  3  4  2  0
  4  5  1  0
  5  6  2  0
  6  7  1  0
  7  8  1  0
  8  9  2  0
  9 10  1  0
 10 11  2  0
 11 12  1  0
 12 13  2  0
 12 14  1  0
 14 15  1  0
 15 16  2  0
 16 17  1  0
 17 18  2  0
 18 19  1  0
 19 20  2  0
 20 21  1  0
 10 22  1  0
 22 23  2  0
 23 24  1  0
 24 25  1  0
 25 26  1  0
 26 27  1  0
 27 28  1  0
 28 29  1  0
 29 30  1  0
 23 31  1  0
  7 32  2  0
 32  3  1  0
 31  8  1  0
 20 15  1  0
 30 25  1  0
  1 33  1  0
  1 34  1  0
  1 35  1  0
  4 36  1  0
  5 37  1  0
  6 38  1  0
  9 39  1  0
 14 40  1  0
 16 41  1  0
 17 42  1  0
 18 43  1  0
 19 44  1  0
 24 45  1  0
 24 46  1  0
 26 47  1  0
 26 48  1  0
 27 49  1  0
 27 50  1  0
 29 51  1  0
 29 52  1  0
 30 53  1  0
 30 54  1  0
 31 55  1  0
 32 56  1  0
M  END
>  <smiles>  (2) 
COc1cccc(-c2cc(=NC(=O)Nc3ccccc3F)nc(CN3CCOCC3)[nH]2)c1

>  <score_type>  (2) 
oracle

>  <origin>  (2) 
adg

>  <m_score__min__energy>  (2) 
-8.3699999999999992

>  <m_primary>  (2) 
energy

$$$$
2:0
     RDKit          3D

 33 35  0  0  0  0  0  0  0  0999 V2000
   53.5310   28.0680   53.2800 C   0  0  0  0  0  0  0  0  0  0  0  0
   54.3570   28.9960   52.7750 C   0  0  0  0  0  0  0  0  0  0  0  0
   55.6850   28.8290   53.0240 N   0  0  0  0  0  0  0  0  0  0  0  0
   56.6150   29.7730   52.7410 C   0  0  0  0  0  0  0  0  0  0  0  0
   56.2270   31.0050   52.2090 C   0  0  0  0  0  0  0  0  0  0  0  0
   57.2370   32.0590   51.9410 C   0  0  0  0  0  0  0  0  0  0  0  0
   57.0290   33.2350   52.3450 O   0  0  0  0  0  0  0  0  0  0  0  0
   58.4160   31.7990   51.1640 N   0  0  0  0  0  0  0  0  0  0  0  0
   58.8580   32.4880   50.1470 C   0  0  0  0  0  0  0  0  0  0  0  0
   59.8760   33.4240   50.3660 C   0  0  0  0  0  0  0  0  0  0  0  0
   60.3690   34.1760   49.2960 C   0  0  0  0  0  0  0  0  0  0  0  0
   59.8720   33.9910   48.0460 N   0  0  0  0  0  0  0  0  0  0  0  0
   58.8950   33.0810   47.7950 C   0  0  0  0  0  0  0  0  0  0  0  0
   58.3730   32.3070   48.8350 C   0  0  0  0  0  0  0  0  0  0  0  0
   54.8690   31.2130   51.9310 C   0  0  0  0  0  0  0  0  0  0  0  0
   53.9170   30.1900   52.1200 C   0  0  0  0  0  0  0  0  0  0  0  0
   52.6660   30.4170   51.6450 C   0  0  0  0  0  0  0  0  0  0  0  0
   51.6840   31.3720   52.1910 C   0  0  0  0  0  0  0  0  0  0  0  0
   51.4280   31.5030   53.5050 N   0  0  0  0  0  0  0  0  0  0  0  0
   50.5680   32.5440   53.5540 C   0  0  0  0  0  0  0  0  0  0  0  0
   50.0790   32.9670   54.6350 O   0  0  0  0  0  0  0  0  0  0  0  0
   50.2820   33.1010   52.3580 N   0  0  0  0  0  0  0  0  0  0  0  0
   51.0070   32.3580   51.5070 C   0  0  0  0  0  0  0  0  0  0  0  0
   51.0710   32.5970   50.1400 O   0  0  0  0  0  0  0  0  0  0  0  0
   52.4467   28.1475   53.1131 H   0  0  0  0  0  0  0  0  0  0  0  0
   53.9378   27.2273   53.8612 H   0  0  0  0  0  0  0  0  0  0  0  0
   57.6790   29.5685   52.9308 H   0  0  0  0  0  0  0  0  0  0  0  0
   60.2863   33.5670   51.3765 H   0  0  0  0  0  0  0  0  0  0  0  0
   61.1615   34.9195   49.4669 H   0  0  0  0  0  0  0  0  0  0  0  0
   58.5140   32.9531   46.7710 H   0  0  0  0  0  0  0  0  0  0  0  0
   57.5896   31.5620   48.6318 H   0  0  0  0  0  0  0  0  0  0  0  0
   54.5393   32.1939   51.5579 H   0  0  0  0  0  0  0  0  0  0  0  0
   52.3543   29.8316   50.7674 H   0  0  0  0  0  0  0  0  0  0  0  0
  1  2  2  0
  2  3  1  0
  3  4  2  0
  4  5  1  0
  5  6  1  0
  6  7  2  0
  6  8  1  0
  8  9  2  3
  9 10  1  0
 10 11  2  0
 11 12  1  0
 12 13  1  0
 13 14  2  0
  5 15  2  0
 15 16  1  0
 16 17  2  3
 17 18  1  0
 18 19  1  0
 19 20  1  0
 20 21  2  0
 20 22  1  0
 22 23  1  0
 23 24  1  0
 16  2  1  0
 23 18  2  0
 14  9  1  0
  1 25  1  0
  1 26  1  0
  4 27  1  0
 10 28  1  0
 11 29  1  0
 13 30  1  0
 14 31  1  0
 15 32  1  0
 17 33  1  0
M  CHG  4  12  -1  19  -1  22  -1  24  -1
M  END
>  <UniqueID>  (3) 
2

>  <SMILES>  (3) 
C=c1ncc(C(=O)N=c2cc[n-]cc2)cc1=Cc1[n-]c(=O)[n-]c1[O-]

>  <Energy>  (3) 
97.31767992623726

>  <Genealogy>  (3) 
C=c1ncc(C(=O)N=c2cc[n-]cc2)cc1=Cc1[n-]c(=O)[n-]c1[O-] (protonated)
C=c1ncc(C(=O)N=c2cc[n-]cc2)cc1=Cc1[n-]c(=O)[n-]c1[O-] (3D coordinates assigned)
C=c1ncc(C(=O)N=c2cc[n-]cc2)cc1=Cc1[n-]c(=O)[n-]c1[O-] (optimized conformer: 97.31767992623726 kcal/mol)

>  <smiles>  (3) 
C=c1ncc(C(=O)N=c2cc[nH]cc2)cc1=Cc1[nH]c(=O)[nH]c1O

>  <score_type>  (3) 
oracle

>  <origin>  (3) 
adg

>  <m_score__min__energy>  (3) 
-17.16

>  <m_primary>  (3) 
energy

$$$$
3:0
     RDKit          3D

 58 60  0  0  0  0  0  0  0  0999 V2000
   62.7500   31.9830   47.5460 C   0  0  0  0  0  0  0  0  0  0  0  0
   62.6280   33.5030   47.3390 C   0  0  0  0  0  0  0  0  0  0  0  0
   63.3900   33.8740   46.0490 C   0  0  0  0  0  0  0  0  0  0  0  0
   61.1260   33.8570   47.2330 C   0  0  0  0  0  0  0  0  0  0  0  0
   60.6890   34.5860   48.3460 O   0  0  0  0  0  0  0  0  0  0  0  0
   63.2310   34.1420   48.5200 N   0  0  0  0  0  0  0  0  0  0  0  0
   63.4900   33.6170   49.8310 C   0  0  0  0  0  0  0  0  0  0  0  0
   62.5790   33.6730   50.6980 O   0  0  0  0  0  0  0  0  0  0  0  0
   64.7410   33.0090   50.1930 C   0  0  0  0  0  0  0  0  0  0  0  0
   65.7910   32.5000   50.4960 C   0  0  0  0  0  0  0  0  0  0  0  0
   67.0280   31.8780   50.8670 C   0  0  0  0  0  0  0  0  0  0  0  0
   68.0020   32.5990   51.2140 O   0  0  0  0  0  0  0  0  0  0  0  0
   67.1240   30.4460   50.8360 N   0  0  0  0  0  0  0  0  0  0  0  0
   66.5010   29.6030   51.6080 C   0  0  0  0  0  0  0  0  0  0  0  0
   65.1010   29.5850   51.6080 C   0  0  0  0  0  0  0  0  0  0  0  0
   64.4150   28.6900   52.4490 C   0  0  0  0  0  0  0  0  0  0  0  0
   63.0150   28.6250   52.4820 O   0  0  0  0  0  0  0  0  0  0  0  0
   62.1540   29.2660   51.5800 C   0  0  0  0  0  0  0  0  0  0  0  0
   61.4530   28.4870   50.6540 C   0  0  0  0  0  0  0  0  0  0  0  0
   60.5820   29.0860   49.7390 C   0  0  0  0  0  0  0  0  0  0  0  0
   60.4000   30.4760   49.7360 C   0  0  0  0  0  0  0  0  0  0  0  0
   59.4810   31.0650   48.8000 N   0  0  0  0  0  0  0  0  0  0  0  0
   58.8650   32.3490   48.9740 C   0  0  0  0  0  0  0  0  0  0  0  0
   59.3010   33.1520   49.8430 O   0  0  0  0  0  0  0  0  0  0  0  0
   57.8130   32.7430   48.0860 N   0  0  0  0  0  0  0  0  0  0  0  0
   57.8060   32.6070   46.6580 C   0  0  0  0  0  0  0  0  0  0  0  0
   58.1290   31.3940   46.0200 C   0  0  0  0  0  0  0  0  0  0  0  0
   58.1330   31.3130   44.6240 C   0  0  0  0  0  0  0  0  0  0  0  0
   57.8300   32.4400   43.8540 C   0  0  0  0  0  0  0  0  0  0  0  0
   57.8380   32.3340   42.1030 Cl  0  0  0  0  0  0  0  0  0  0  0  0
   57.5320   33.6520   44.4810 C   0  0  0  0  0  0  0  0  0  0  0  0
   57.5280   33.7370   45.8760 C   0  0  0  0  0  0  0  0  0  0  0  0
   61.0690   31.2550   50.6970 C   0  0  0  0  0  0  0  0  0  0  0  0
   61.9390   30.6570   51.6140 C   0  0  0  0  0  0  0  0  0  0  0  0
   62.5250   31.4260   52.5660 F   0  0  0  0  0  0  0  0  0  0  0  0
   65.1490   27.8100   53.2470 C   0  0  0  0  0  0  0  0  0  0  0  0
   66.5440   27.8530   53.2210 C   0  0  0  0  0  0  0  0  0  0  0  0
   67.1830   28.7410   52.4140 N   0  0  0  0  0  0  0  0  0  0  0  0
   62.7679   31.7599   48.6230 H   0  0  0  0  0  0  0  0  0  0  0  0
   61.8894   31.4794   47.0815 H   0  0  0  0  0  0  0  0  0  0  0  0
   63.6799   31.6232   47.0815 H   0  0  0  0  0  0  0  0  0  0  0  0
   64.3503   34.3416   46.3120 H   0  0  0  0  0  0  0  0  0  0  0  0
   63.5745   32.9649   45.4578 H   0  0  0  0  0  0  0  0  0  0  0  0
   62.7882   34.5799   45.4578 H   0  0  0  0  0  0  0  0  0  0  0  0
   60.9640   34.4583   46.3262 H   0  0  0  0  0  0  0  0  0  0  0  0
   60.5534   32.9188   47.1894 H   0  0  0  0  0  0  0  0  0  0  0  0
   61.1270   34.1740   49.1360 H   0  0  0  0  0  0  0  0  0  0  0  0
   64.5399   30.2678   50.9531 H   0  0  0  0  0  0  0  0  0  0  0  0
   61.5878   27.3953   50.6455 H   0  0  0  0  0  0  0  0  0  0  0  0
   60.0356   28.4622   49.0163 H   0  0  0  0  0  0  0  0  0  0  0  0
   59.2990   30.5630   47.9020 H   0  0  0  0  0  0  0  0  0  0  0  0
   58.3789   30.5076   46.6215 H   0  0  0  0  0  0  0  0  0  0  0  0
   58.3751   30.3602   44.1304 H   0  0  0  0  0  0  0  0  0  0  0  0
   57.3001   34.5409   43.8760 H   0  0  0  0  0  0  0  0  0  0  0  0
   57.3051   34.6973   46.3639 H   0  0  0  0  0  0  0  0  0  0  0  0
   60.9067   32.3425   50.7275 H   0  0  0  0  0  0  0  0  0  0  0  0
   64.6304   27.0863   53.8930 H   0  0  0  0  0  0  0  0  0  0  0  0
   67.1268   27.1677   53.8541 H   0  0  0  0  0  0  0  0  0  0  0  0
  1  2  1  0
  2  3  1  0
  2  4  1  0
  4  5  1  0
  2  6  1  0
  6  7  1  0
  7  8  2  0
  7  9  1  0
  9 10  3  0
 10 11  1  0
 11 12  2  0
 11 13  1  0
 13 14  2  3
 14 15  1  0
 15 16  2  0
 16 17  1  0
 17 18  1  0
 18 19  2  0
 19 20  1  0
 20 21  2  0
 21 22  1  0
 22 23  1  0
 23 24  2  0
 23 25  1  0
 25 26  1  0
 26 27  2  0
 27 28  1  0
 28 29  2  0
 29 30  1  0
 29 31  1  0
 31 32  2  0
 21 33  1  0
 33 34  2  0
 34 35  1  0
 16 36  1  0
 36 37  2  0
 37 38  1  0
 38 14  1  0
 34 18  1  0
 32 26  1  0
  1 39  1  0
  1 40  1  0
  1 41  1  0
  3 42  1  0
  3 43  1  0
  3 44  1  0
  4 45  1  0
  4 46  1  0
  5 47  1  0
 15 48  1  0
 19 49  1  0
 20 50  1  0
 22 51  1  0
 27 52  1  0
 28 53  1  0
 31 54  1  0
 32 55  1  0
 33 56  1  0
 36 57  1  0
 37 58  1  0
M  CHG  3   6  -1  25  -1  38  -1
M  END
>  <UniqueID>  (4) 
3

>  <SMILES>  (4) 
CC(C)(CO)[N-]C(=O)C#CC(=O)N=c1cc(Oc2ccc(NC(=O)[N-]c3ccc(Cl)cc3)cc2F)cc[n-]1

>  <Energy>  (4) 
70.42538439984142

>  <Genealogy>  (4) 
CC(C)(CO)[N-]C(=O)C#CC(=O)N=c1cc(Oc2ccc(NC(=O)[N-]c3ccc(Cl)cc3)cc2F)cc[n-]1 (protonated)
CC(C)(CO)[N-]C(=O)C#CC(=O)N=c1cc(Oc2ccc(NC(=O)[N-]c3ccc(Cl)cc3)cc2F)cc[n-]1 (3D coordinates assigned)
CC(C)(CO)[N-]C(=O)C#CC(=O)N=c1cc(Oc2ccc(NC(=O)[N-]c3ccc(Cl)cc3)cc2F)cc[n-]1 (optimized conformer: 70.42538439984142 kcal/mol)

>  <smiles>  (4) 
CC(C)(CO)NC(=O)C#CC(=O)N=c1cc(Oc2ccc(NC(=O)Nc3ccc(Cl)cc3)cc2F)cc[nH]1

>  <score_type>  (4) 
oracle

>  <origin>  (4) 
adg

>  <m_score__min__energy>  (4) 
-13.4

>  <m_primary>  (4) 
energy

$$$$
4:0
     RDKit          3D

 49 52  0  0  0  0  0  0  0  0999 V2000
   64.7477   32.9663   47.0117 H   0  0  0  0  0  0  0  0  0  0  0  0
   63.7350   33.2430   47.3400 C   0  0  0  0  0  0  0  0  0  0  0  0
   62.7680   33.4960   46.4190 N   0  0  0  0  0  0  0  0  0  0  0  0
   61.5050   33.8420   46.7850 C   0  0  0  0  0  0  0  0  0  0  0  0
   60.7457   34.0402   46.0142 H   0  0  0  0  0  0  0  0  0  0  0  0
   61.1670   33.9470   48.1430 C   0  0  0  0  0  0  0  0  0  0  0  0
   59.7720   34.3230   48.5670 C   0  0  0  0  0  0  0  0  0  0  0  0
   59.5029   35.2865   48.1096 H   0  0  0  0  0  0  0  0  0  0  0  0
   59.7444   34.4005   49.6639 H   0  0  0  0  0  0  0  0  0  0  0  0
   58.8110   33.3050   48.1430 N   0  0  0  0  0  0  0  0  0  0  0  0
   58.3560   33.1720   46.9320 C   0  0  0  0  0  0  0  0  0  0  0  0
   57.8780   31.9650   46.5300 N   0  0  0  0  0  0  0  0  0  0  0  0
   57.4130   31.7740   45.2650 C   0  0  0  0  0  0  0  0  0  0  0  0
   56.8400   30.5190   44.8650 N   0  0  0  0  0  0  0  0  0  0  0  0
   57.3120   29.3120   45.0110 C   0  0  0  0  0  0  0  0  0  0  0  0
   56.4790   28.3570   45.5020 N   0  0  0  0  0  0  0  0  0  0  0  0
   56.8570   27.0670   45.7050 C   0  0  0  0  0  0  0  0  0  0  0  0
   55.8660   26.1060   46.2390 C   0  0  0  0  0  0  0  0  0  0  0  0
   56.1730   25.3860   47.2240 O   0  0  0  0  0  0  0  0  0  0  0  0
   54.5570   25.9540   45.6690 N   0  0  0  0  0  0  0  0  0  0  0  0
   53.9080   24.6960   45.3040 C   0  0  0  0  0  0  0  0  0  0  0  0
   53.3922   24.2895   46.1865 H   0  0  0  0  0  0  0  0  0  0  0  0
   53.1921   24.8967   44.4933 H   0  0  0  0  0  0  0  0  0  0  0  0
   54.9120   23.6850   44.8130 C   0  0  0  0  0  0  0  0  0  0  0  0
   55.4600   22.7420   45.7010 C   0  0  0  0  0  0  0  0  0  0  0  0
   55.1476   22.7364   46.7557 H   0  0  0  0  0  0  0  0  0  0  0  0
   56.4010   21.8110   45.2480 C   0  0  0  0  0  0  0  0  0  0  0  0
   56.8098   21.0617   45.9419 H   0  0  0  0  0  0  0  0  0  0  0  0
   56.8220   21.8310   43.9180 C   0  0  0  0  0  0  0  0  0  0  0  0
   57.5588   21.0953   43.5633 H   0  0  0  0  0  0  0  0  0  0  0  0
   56.3080   22.7850   43.0370 C   0  0  0  0  0  0  0  0  0  0  0  0
   56.6474   22.8054   41.9909 H   0  0  0  0  0  0  0  0  0  0  0  0
   55.3630   23.7140   43.4820 C   0  0  0  0  0  0  0  0  0  0  0  0
   54.9705   24.4712   42.7874 H   0  0  0  0  0  0  0  0  0  0  0  0
   58.1720   26.6790   45.3740 C   0  0  0  0  0  0  0  0  0  0  0  0
   58.7720   25.0450   45.6430 Cl  0  0  0  0  0  0  0  0  0  0  0  0
   59.0450   27.6310   44.8430 C   0  0  0  0  0  0  0  0  0  0  0  0
   60.0715   27.3415   44.5737 H   0  0  0  0  0  0  0  0  0  0  0  0
   58.6230   28.9470   44.6520 C   0  0  0  0  0  0  0  0  0  0  0  0
   59.3091   29.6930   44.2245 H   0  0  0  0  0  0  0  0  0  0  0  0
   57.3780   32.8500   44.3780 C   0  0  0  0  0  0  0  0  0  0  0  0
   56.9701   32.7277   43.3638 H   0  0  0  0  0  0  0  0  0  0  0  0
   57.8700   34.0830   44.8020 C   0  0  0  0  0  0  0  0  0  0  0  0
   57.8696   34.9421   44.1150 H   0  0  0  0  0  0  0  0  0  0  0  0
   58.3500   34.2220   46.0650 N   0  0  0  0  0  0  0  0  0  0  0  0
   62.1560   33.6900   49.1020 C   0  0  0  0  0  0  0  0  0  0  0  0
   61.9161   33.7692   50.1726 H   0  0  0  0  0  0  0  0  0  0  0  0
   63.4440   33.3340   48.7020 C   0  0  0  0  0  0  0  0  0  0  0  0
   64.2219   33.1272   49.4518 H   0  0  0  0  0  0  0  0  0  0  0  0
  1  2  1  0
  2  3  2  0
  3  4  1  0
  4  5  1  0
  4  6  2  0
  6  7  1  0
  7  8  1  0
  7  9  1  0
  7 10  1  0
 10 11  2  0
 11 12  1  0
 12 13  2  0
 13 14  1  0
 14 15  2  0
 15 16  1  0
 16 17  1  0
 17 18  1  0
 18 19  2  0
 18 20  1  0
 20 21  1  0
 21 22  1  0
 21 23  1  0
 21 24  1  0
 24 25  2  0
 25 26  1  0
 25 27  1  0
 27 28  1  0
 27 29  2  0
 29 30  1  0
 29 31  1  0
 31 32  1  0
 31 33  2  0
 33 34  1  0
 17 35  2  0
 35 36  1  0
 35 37  1  0
 37 38  1  0
 37 39  2  0
 39 40  1  0
 13 41  1  0
 41 42  1  0
 41 43  2  0
 43 44  1  0
 43 45  1  0
  6 46  1  0
 46 47  1  0
 46 48  2  0
 48 49  1  0
 48  2  1  0
 45 11  1  0
 39 15  1  0
 33 24  1  0
M  CHG  3  16  -1  20  -1  45  -1
M  END
>  <UniqueID>  (5) 
4

>  <SMILES>  (5) 
O=C([N-]Cc1ccccc1)c1[n-]/c(=N/c2cc[n-]/c(=N\Cc3cccnc3)n2)ccc1Cl

>  <Energy>  (5) 
66.78513360185468

>  <Genealogy>  (5) 
O=C([N-]Cc1ccccc1)c1[n-]c(=Nc2cc[n-]c(=NCc3cccnc3)n2)ccc1Cl (protonated)
O=C([N-]Cc1ccccc1)c1[n-]/c(=N/c2cc[n-]/c(=N\Cc3cccnc3)n2)ccc1Cl (cis-trans isomerization)
O=C([N-]Cc1ccccc1)c1[n-]/c(=N/c2cc[n-]/c(=N\Cc3cccnc3)n2)ccc1Cl (3D coordinates assigned)
O=C([N-]Cc1ccccc1)c1[n-]/c(=N/c2cc[n-]/c(=N\Cc3cccnc3)n2)ccc1Cl (optimized conformer: 66.78513360185468 kcal/mol)

>  <smiles>  (5) 
O=C(NCc1ccccc1)c1[nH]c(=Nc2cc[nH]c(=NCc3cccnc3)n2)ccc1Cl

>  <score_type>  (5) 
oracle

>  <origin>  (5) 
adg

>  <m_score__min__energy>  (5) 
-14.69

>  <m_primary>  (5) 
energy

$$$$
5:0
     RDKit          3D

 54 57  0  0  0  0  0  0  0  0999 V2000
   54.8770   24.0610   44.8250 C   0  0  0  0  0  0  0  0  0  0  0  0
   54.0160   25.0390   45.6260 C   0  0  0  0  0  0  0  0  0  0  0  0
   54.7770   26.2400   45.9740 N   0  0  0  0  0  0  0  0  0  0  0  0
   56.1280   26.2630   46.4630 C   0  0  0  0  0  0  0  0  0  0  0  0
   56.5530   25.2800   47.1280 O   0  0  0  0  0  0  0  0  0  0  0  0
   57.0230   27.4110   46.2320 C   0  0  0  0  0  0  0  0  0  0  0  0
   58.2650   27.4730   46.8860 C   0  0  0  0  0  0  0  0  0  0  0  0
   59.1010   28.5790   46.7080 C   0  0  0  0  0  0  0  0  0  0  0  0
   58.7250   29.6190   45.8400 C   0  0  0  0  0  0  0  0  0  0  0  0
   59.5910   30.8350   45.6920 C   0  0  0  0  0  0  0  0  0  0  0  0
   61.0010   30.7090   46.8390 S   0  0  0  0  0  0  0  0  0  0  0  0
   60.1130   31.3650   48.2670 C   0  0  0  0  0  0  0  0  0  0  0  0
   59.6170   30.4590   49.1490 N   0  0  0  0  0  0  0  0  0  0  0  0
   58.9860   30.8390   50.2840 C   0  0  0  0  0  0  0  0  0  0  0  0
   58.4750   29.8720   51.1600 C   0  0  0  0  0  0  0  0  0  0  0  0
   57.8400   30.2660   52.3420 C   0  0  0  0  0  0  0  0  0  0  0  0
   57.7170   31.6250   52.6540 C   0  0  0  0  0  0  0  0  0  0  0  0
   58.2270   32.5940   51.7840 C   0  0  0  0  0  0  0  0  0  0  0  0
   58.8640   32.2060   50.5890 C   0  0  0  0  0  0  0  0  0  0  0  0
   59.3950   33.1400   49.6820 C   0  0  0  0  0  0  0  0  0  0  0  0
   59.3320   34.3730   49.9550 O   0  0  0  0  0  0  0  0  0  0  0  0
   59.9870   32.7170   48.5120 N   0  0  0  0  0  0  0  0  0  0  0  0
   60.4900   33.7310   47.5530 C   0  0  0  0  0  0  0  0  0  0  0  0
   59.3460   34.3240   46.7050 C   0  0  1  0  0  0  0  0  0  0  0  0
   59.6170   34.2160   45.2080 C   0  0  0  0  0  0  0  0  0  0  0  0
   58.2440   34.0060   44.6170 C   0  0  0  0  0  0  0  0  0  0  0  0
   57.3340   33.8780   45.8290 C   0  0  0  0  0  0  0  0  0  0  0  0
   58.1350   33.6630   46.9660 O   0  0  0  0  0  0  0  0  0  0  0  0
   57.4960   29.5420   45.1630 C   0  0  0  0  0  0  0  0  0  0  0  0
   56.6500   28.4460   45.3570 C   0  0  0  0  0  0  0  0  0  0  0  0
   55.4423   23.4189   45.5165 H   0  0  0  0  0  0  0  0  0  0  0  0
   54.2298   23.4369   44.1912 H   0  0  0  0  0  0  0  0  0  0  0  0
   55.5781   24.6239   44.1912 H   0  0  0  0  0  0  0  0  0  0  0  0
   53.1429   25.3280   45.0225 H   0  0  0  0  0  0  0  0  0  0  0  0
   53.6943   24.5451   46.5547 H   0  0  0  0  0  0  0  0  0  0  0  0
   58.5808   26.6476   47.5409 H   0  0  0  0  0  0  0  0  0  0  0  0
   60.0569   28.6359   47.2493 H   0  0  0  0  0  0  0  0  0  0  0  0
   59.9620   30.8989   44.6584 H   0  0  0  0  0  0  0  0  0  0  0  0
   59.0051   31.7366   45.9240 H   0  0  0  0  0  0  0  0  0  0  0  0
   58.5733   28.8035   50.9180 H   0  0  0  0  0  0  0  0  0  0  0  0
   57.4364   29.5066   53.0278 H   0  0  0  0  0  0  0  0  0  0  0  0
   57.2182   31.9314   53.5853 H   0  0  0  0  0  0  0  0  0  0  0  0
   58.1305   33.6610   52.0333 H   0  0  0  0  0  0  0  0  0  0  0  0
   60.9770   34.5425   48.1136 H   0  0  0  0  0  0  0  0  0  0  0  0
   61.2036   33.2403   46.8748 H   0  0  0  0  0  0  0  0  0  0  0  0
   59.2808   35.3853   46.9869 H   0  0  0  0  0  0  0  0  0  0  0  0
   60.0739   35.1397   44.8232 H   0  0  0  0  0  0  0  0  0  0  0  0
   60.3204   33.4085   44.9565 H   0  0  0  0  0  0  0  0  0  0  0  0
   57.9500   34.8658   43.9971 H   0  0  0  0  0  0  0  0  0  0  0  0
   58.1976   33.1254   43.9594 H   0  0  0  0  0  0  0  0  0  0  0  0
   56.7509   34.8022   45.9549 H   0  0  0  0  0  0  0  0  0  0  0  0
   56.6389   33.0365   45.6921 H   0  0  0  0  0  0  0  0  0  0  0  0
   57.1980   30.3484   44.4767 H   0  0  0  0  0  0  0  0  0  0  0  0
   55.6896   28.3934   44.8233 H   0  0  0  0  0  0  0  0  0  0  0  0
  1  2  1  0
  2  3  1  0
  3  4  1  0
  4  5  2  0
  4  6  1  0
  6  7  2  0
  7  8  1  0
  8  9  2  0
  9 10  1  0
 10 11  1  0
 11 12  1  0
 12 13  2  0
 13 14  1  0
 14 15  2  0
 15 16  1  0
 16 17  2  0
 17 18  1  0
 18 19  2  0
 19 20  1  0
 20 21  2  0
 20 22  1  0
 22 23  1  0
 23 24  1  0
 24 25  1  0
 25 26  1  0
 26 27  1  0
 27 28  1  0
  9 29  1  0
 29 30  2  0
 30  6  1  0
 22 12  1  0
 28 24  1  0
 19 14  1  0
  1 31  1  0
  1 32  1  0
  1 33  1  0
  2 34  1  0
  2 35  1  0
  7 36  1  0
  8 37  1  0
 10 38  1  0
 10 39  1  0
 15 40  1  0
 16 41  1  0
 17 42  1  0
 18 43  1  0
 23 44  1  0
 23 45  1  0
 24 46  1  1
 25 47  1  0
 25 48  1  0
 26 49  1  0
 26 50  1  0
 27 51  1  0
 27 52  1  0
 29 53  1  0
 30 54  1  0
M  CHG  1   3  -1
M  END
>  <UniqueID>  (6) 
5

>  <SMILES>  (6) 
CC[N-]C(=O)c1ccc(CSc2nc3ccccc3c(=O)n2C[C@H]2CCCO2)cc1

>  <Energy>  (6) 
62.81075284140396

>  <Genealogy>  (6) 
CC[N-]C(=O)c1ccc(CSc2nc3ccccc3c(=O)n2CC2CCCO2)cc1 (protonated)
CC[N-]C(=O)c1ccc(CSc2nc3ccccc3c(=O)n2C[C@H]2CCCO2)cc1 (chirality)
CC[N-]C(=O)c1ccc(CSc2nc3ccccc3c(=O)n2C[C@H]2CCCO2)cc1 (3D coordinates assigned)
CC[N-]C(=O)c1ccc(CSc2nc3ccccc3c(=O)n2C[C@H]2CCCO2)cc1 (nonaromatic ring conformer: 62.81075284140396 kcal/mol)

>  <smiles>  (6) 
CCNC(=O)c1ccc(CSc2nc3ccccc3c(=O)n2CC2CCCO2)cc1

>  <score_type>  (6) 
oracle

>  <origin>  (6) 
adg

>  <m_score__min__energy>  (6) 
-10.869999999999999

>  <m_primary>  (6) 
energy

$$$$
6:0
     RDKit          3D

 45 48  0  0  1  0  0  0  0  0999 V2000
   59.7600   29.6930   47.2540 N   0  0  0  0  0  0  0  0  0  0  0  0
   59.4870   30.3840   48.1380 C   0  0  0  0  0  0  0  0  0  0  0  0
   59.1670   31.2590   49.2370 C   0  0  0  0  0  0  0  0  0  0  0  0
   58.3530   30.7520   50.2190 C   0  0  0  0  0  0  0  0  0  0  0  0
   57.9690   31.5180   51.3260 C   0  0  0  0  0  0  0  0  0  0  0  0
   56.9340   30.8490   52.5600 S   0  0  0  0  0  0  0  0  0  0  0  0
   56.8180   29.3630   52.2450 O   0  0  0  0  0  0  0  0  0  0  0  0
   57.5340   30.9140   53.9310 O   0  0  0  0  0  0  0  0  0  0  0  0
   55.3620   31.4970   52.4480 N   0  0  0  0  0  0  0  0  0  0  0  0
   54.3590   30.6220   52.4530 C   0  0  0  0  0  0  0  0  0  0  0  0
   54.1880   29.3830   52.8920 N   0  0  0  0  0  0  0  0  0  0  0  0
   53.0660   28.7530   52.7580 C   0  0  0  0  0  0  0  0  0  0  0  0
   51.9810   29.3690   52.1370 C   0  0  0  0  0  0  0  0  0  0  0  0
   52.7000   31.0470   51.7110 S   0  0  0  0  0  0  0  0  0  0  0  0
   58.4590   32.8060   51.3650 C   0  0  0  0  0  0  0  0  0  0  0  0
   59.2820   33.3310   50.3810 C   0  0  0  0  0  0  0  0  0  0  0  0
   59.6500   32.5670   49.3010 C   0  0  0  0  0  0  0  0  0  0  0  0
   60.4690   33.0730   48.3090 O   0  0  0  0  0  0  0  0  0  0  0  0
   59.9720   33.6260   47.1620 C   0  0  0  0  0  0  0  0  0  0  0  0
   60.1790   34.9200   46.7420 C   0  0  0  0  0  0  0  0  0  0  0  0
   59.6430   35.3950   45.5750 C   0  0  0  0  0  0  0  0  0  0  0  0
   58.8760   34.5460   44.8060 C   0  0  0  0  0  0  0  0  0  0  0  0
   58.6350   33.2590   45.1670 C   0  0  0  0  0  0  0  0  0  0  0  0
   57.8310   32.3160   44.3940 C   0  0  0  0  0  0  0  0  0  0  0  0
   57.8340   32.2950   43.0160 C   0  0  0  0  0  0  0  0  0  0  0  0
   57.0740   31.4020   42.2770 C   0  0  0  0  0  0  0  0  0  0  0  0
   56.2930   30.5120   42.9240 N   0  0  0  0  0  0  0  0  0  0  0  0
   56.3040   30.5490   44.2650 C   0  0  0  0  0  0  0  0  0  0  0  0
   55.5400   29.6770   44.8760 N   0  0  0  0  0  0  0  0  0  0  0  0
   57.0260   31.3960   44.9940 N   0  0  0  0  0  0  0  0  0  0  0  0
   59.1870   32.8040   46.3500 C   0  0  0  0  0  0  0  0  0  0  0  0
   57.9928   29.7161   50.1339 H   0  0  0  0  0  0  0  0  0  0  0  0
   55.0390   28.9010   53.3780 H   0  0  0  0  0  0  0  0  0  0  0  0
   52.9678   27.7249   53.1365 H   0  0  0  0  0  0  0  0  0  0  0  0
   50.9715   28.9754   51.9473 H   0  0  0  0  0  0  0  0  0  0  0  0
   58.1842   33.4464   52.2161 H   0  0  0  0  0  0  0  0  0  0  0  0
   59.6428   34.3667   50.4658 H   0  0  0  0  0  0  0  0  0  0  0  0
   60.7921   35.5915   47.3610 H   0  0  0  0  0  0  0  0  0  0  0  0
   59.8208   36.4331   45.2575 H   0  0  0  0  0  0  0  0  0  0  0  0
   58.4442   34.9240   43.8675 H   0  0  0  0  0  0  0  0  0  0  0  0
   58.4665   33.0177   42.4797 H   0  0  0  0  0  0  0  0  0  0  0  0
   57.1071   31.4186   41.1776 H   0  0  0  0  0  0  0  0  0  0  0  0
   55.7250   29.8460   42.3650 H   0  0  0  0  0  0  0  0  0  0  0  0
   55.4760   29.7020   45.9180 H   0  0  0  0  0  0  0  0  0  0  0  0
   59.0028   31.7650   46.6607 H   0  0  0  0  0  0  0  0  0  0  0  0
  1  2  3  0
  2  3  1  0
  3  4  2  0
  4  5  1  0
  5  6  1  0
  6  7  2  0
  6  8  2  0
  6  9  1  0
  9 10  2  0
 10 11  1  0
 11 12  1  0
 12 13  2  0
 13 14  1  0
  5 15  2  0
 15 16  1  0
 16 17  2  0
 17 18  1  0
 18 19  1  0
 19 20  2  0
 20 21  1  0
 21 22  2  0
 22 23  1  0
 23 24  1  0
 24 25  1  0
 25 26  2  0
 26 27  1  0
 27 28  1  0
 28 29  2  3
 28 30  1  0
 23 31  2  0
 17  3  1  0
 31 19  1  0
 14 10  1  0
 30 24  2  0
  4 32  1  0
 11 33  1  0
 12 34  1  0
 13 35  1  0
 15 36  1  0
 16 37  1  0
 20 38  1  0
 21 39  1  0
 22 40  1  0
 25 41  1  0
 26 42  1  0
 27 43  1  0
 29 44  1  0
 31 45  1  0
M  END
>  <smiles>  (7) 
N#Cc1cc(S(=O)(=O)N=c2[nH]ccs2)ccc1Oc1cccc(-c2cc[nH]c(=N)n2)c1

>  <score_type>  (7) 
oracle

>  <origin>  (7) 
adg

>  <m_score__min__energy>  (7) 
-9.5500000000000007

>  <m_primary>  (7) 
energy

$$$$
7:0
     RDKit          3D

 53 55  0  0  0  0  0  0  0  0999 V2000
   54.0280   26.3020   46.3680 H   0  0  0  0  0  0  0  0  0  0  0  0
   55.0060   26.4410   46.1430 O   0  0  0  0  0  0  0  0  0  0  0  0
   55.9550   25.4510   46.3780 C   0  0  0  0  0  0  0  0  0  0  0  0
   55.7150   24.3640   47.1290 N   0  0  0  0  0  0  0  0  0  0  0  0
   56.8940   23.7080   47.0910 C   0  0  0  0  0  0  0  0  0  0  0  0
   57.0850   22.6180   47.6900 O   0  0  0  0  0  0  0  0  0  0  0  0
   57.8570   24.3160   46.3670 N   0  0  0  0  0  0  0  0  0  0  0  0
   57.2450   25.4190   45.8930 C   0  0  0  0  0  0  0  0  0  0  0  0
   57.9150   26.4920   45.1240 C   0  0  0  0  0  0  0  0  0  0  0  0
   58.1581   26.2804   44.0723 H   0  0  0  0  0  0  0  0  0  0  0  0
   58.2560   27.7180   45.6070 C   0  0  0  0  0  0  0  0  0  0  0  0
   57.7950   28.8920   44.9680 C   0  0  0  0  0  0  0  0  0  0  0  0
   57.1834   28.8012   44.0582 H   0  0  0  0  0  0  0  0  0  0  0  0
   58.0960   30.1670   45.4620 C   0  0  0  0  0  0  0  0  0  0  0  0
   57.5260   31.3480   44.7760 C   0  0  0  0  0  0  0  0  0  0  0  0
   56.2810   31.4120   44.5950 O   0  0  0  0  0  0  0  0  0  0  0  0
   58.3910   32.5000   44.3360 C   0  0  0  0  0  0  0  0  0  0  0  0
   59.3868   32.3916   44.7905 H   0  0  0  0  0  0  0  0  0  0  0  0
   58.4538   32.4809   43.2380 H   0  0  0  0  0  0  0  0  0  0  0  0
   57.7940   33.8580   44.7590 C   0  0  0  0  0  0  0  0  0  0  0  0
   57.0577   34.1548   43.9976 H   0  0  0  0  0  0  0  0  0  0  0  0
   57.0670   33.7560   46.1080 C   0  0  0  0  0  0  0  0  0  0  0  0
   57.7955   33.8582   46.9258 H   0  0  0  0  0  0  0  0  0  0  0  0
   56.3176   34.5578   46.1822 H   0  0  0  0  0  0  0  0  0  0  0  0
   56.5672   32.7789   46.1822 H   0  0  0  0  0  0  0  0  0  0  0  0
   58.9000   34.9180   44.8390 C   0  0  0  0  0  0  0  0  0  0  0  0
   59.1253   35.1339   45.8938 H   0  0  0  0  0  0  0  0  0  0  0  0
   59.8053   34.5416   44.3403 H   0  0  0  0  0  0  0  0  0  0  0  0
   58.5624   35.8385   44.3403 H   0  0  0  0  0  0  0  0  0  0  0  0
   58.9000   30.2740   46.6080 C   0  0  0  0  0  0  0  0  0  0  0  0
   59.3340   31.5460   47.1160 N   0  0  0  0  0  0  0  0  0  0  0  0
   58.6210   32.1580   48.2450 C   0  0  0  0  0  0  0  0  0  0  0  0
   57.9155   32.9117   47.8652 H   0  0  0  0  0  0  0  0  0  0  0  0
   58.0727   31.3773   48.7926 H   0  0  0  0  0  0  0  0  0  0  0  0
   59.6210   32.8300   49.1920 C   0  0  0  0  0  0  0  0  0  0  0  0
   59.0660   33.3087   50.0123 H   0  0  0  0  0  0  0  0  0  0  0  0
   60.3027   32.0541   49.5705 H   0  0  0  0  0  0  0  0  0  0  0  0
   60.4380   33.8590   48.5030 N   0  0  0  0  0  0  0  0  0  0  0  0
   61.6680   34.1300   49.2730 C   0  0  0  0  0  0  0  0  0  0  0  0
   61.4452   34.0809   50.3491 H   0  0  0  0  0  0  0  0  0  0  0  0
   62.4309   33.3784   49.0218 H   0  0  0  0  0  0  0  0  0  0  0  0
   62.0444   35.1326   49.0218 H   0  0  0  0  0  0  0  0  0  0  0  0
   60.7470   33.5550   47.0790 C   0  0  0  0  0  0  0  0  0  0  0  0
   60.0322   34.0970   46.4424 H   0  0  0  0  0  0  0  0  0  0  0  0
   61.7847   33.8700   46.8945 H   0  0  0  0  0  0  0  0  0  0  0  0
   60.6580   32.0600   46.7490 C   0  0  0  0  0  0  0  0  0  0  0  0
   60.8199   31.9141   45.6708 H   0  0  0  0  0  0  0  0  0  0  0  0
   61.4277   31.5171   47.3172 H   0  0  0  0  0  0  0  0  0  0  0  0
   59.3250   29.1450   47.2280 N   0  0  0  0  0  0  0  0  0  0  0  0
   59.0390   27.8880   46.7940 C   0  0  0  0  0  0  0  0  0  0  0  0
   59.5560   26.8790   47.5140 C   0  0  0  0  0  0  0  0  0  0  0  0
   59.3636   25.8372   47.2181 H   0  0  0  0  0  0  0  0  0  0  0  0
   60.1719   27.0944   48.3996 H   0  0  0  0  0  0  0  0  0  0  0  0
  1  2  1  0
  2  3  1  0
  3  4  1  0
  4  5  1  0
  5  6  2  0
  5  7  1  0
  7  8  1  0
  8  9  1  0
  9 10  1  0
  9 11  2  0
 11 12  1  0
 12 13  1  0
 12 14  2  0
 14 15  1  0
 15 16  2  0
 15 17  1  0
 17 18  1  0
 17 19  1  0
 17 20  1  0
 20 21  1  0
 20 22  1  0
 22 23  1  0
 22 24  1  0
 22 25  1  0
 20 26  1  0
 26 27  1  0
 26 28  1  0
 26 29  1  0
 14 30  1  0
 30 31  1  0
 31 32  1  0
 32 33  1  0
 32 34  1  0
 32 35  1  0
 35 36  1  0
 35 37  1  0
 35 38  1  0
 38 39  1  0
 39 40  1  0
 39 41  1  0
 39 42  1  0
 38 43  1  0
 43 44  1  0
 43 45  1  0
 43 46  1  0
 46 47  1  0
 46 48  1  0
 30 49  2  0
 49 50  1  0
 50 51  2  0
 51 52  1  0
 51 53  1  0
  8  3  2  0
 50 11  1  0
 46 31  1  0
M  CHG  2   4  -1   7  -1
M  END
>  <UniqueID>  (8) 
6

>  <SMILES>  (8) 
C=c1nc(N2CCN(C)CC2)c(C(=O)CC(C)C)c/c1=C\c1[n-]c(=O)[n-]c1O

>  <Energy>  (8) 
106.72812820752499

>  <Genealogy>  (8) 
C=c1nc(N2CCN(C)CC2)c(C(=O)CC(C)C)cc1=Cc1[n-]c(=O)[n-]c1O (protonated)
C=c1nc(N2CCN(C)CC2)c(C(=O)CC(C)C)c/c1=C\c1[n-]c(=O)[n-]c1O (cis-trans isomerization)
C=c1nc(N2CCN(C)CC2)c(C(=O)CC(C)C)c/c1=C\c1[n-]c(=O)[n-]c1O (3D coordinates assigned)
C=c1nc(N2CCN(C)CC2)c(C(=O)CC(C)C)c/c1=C\c1[n-]c(=O)[n-]c1O (nonaromatic ring conformer: 106.72812820752499 kcal/mol)

>  <smiles>  (8) 
C=c1nc(N2CCN(C)CC2)c(C(=O)CC(C)C)cc1=Cc1[nH]c(=O)[nH]c1O

>  <score_type>  (8) 
oracle

>  <origin>  (8) 
adg

>  <m_score__min__energy>  (8) 
-13.82

>  <m_primary>  (8) 
energy

$$$$
8:0
     RDKit          3D

 50 53  0  0  0  0  0  0  0  0999 V2000
   57.6650   29.4510   51.3920 O   0  0  0  0  0  0  0  0  0  0  0  0
   57.1240   30.1480   52.2930 C   0  0  0  0  0  0  0  0  0  0  0  0
   57.5600   31.4950   52.5300 N   0  0  0  0  0  0  0  0  0  0  0  0
   58.3640   32.2560   51.6100 C   0  0  0  0  0  0  0  0  0  0  0  0
   59.3970   33.0970   52.0620 C   0  0  0  0  0  0  0  0  0  0  0  0
   60.1810   33.8030   51.1460 C   0  0  0  0  0  0  0  0  0  0  0  0
   59.9550   33.6640   49.7750 C   0  0  0  0  0  0  0  0  0  0  0  0
   58.9520   32.8080   49.3030 C   0  0  0  0  0  0  0  0  0  0  0  0
   58.7830   32.6860   47.9150 O   0  0  0  0  0  0  0  0  0  0  0  0
   59.5550   31.8410   47.0620 C   0  0  0  0  0  0  0  0  0  0  0  0
   61.0110   32.2270   47.1010 C   0  0  0  0  0  0  0  0  0  0  0  0
   61.4370   33.4290   46.5090 C   0  0  0  0  0  0  0  0  0  0  0  0
   62.7880   33.7870   46.5370 C   0  0  0  0  0  0  0  0  0  0  0  0
   63.7230   32.9480   47.1480 C   0  0  0  0  0  0  0  0  0  0  0  0
   63.3090   31.7450   47.7280 C   0  0  0  0  0  0  0  0  0  0  0  0
   61.9590   31.3810   47.7010 C   0  0  0  0  0  0  0  0  0  0  0  0
   58.1570   32.1050   50.2310 C   0  0  0  0  0  0  0  0  0  0  0  0
   56.0650   29.5560   53.1250 C   0  0  0  0  0  0  0  0  0  0  0  0
   54.8280   30.1120   53.3900 C   0  0  0  0  0  0  0  0  0  0  0  0
   54.2360   29.1890   54.2240 C   0  0  0  0  0  0  0  0  0  0  0  0
   52.8590   29.2750   54.8010 C   0  0  0  0  0  0  0  0  0  0  0  0
   51.8800   29.1390   53.7710 O   0  0  0  0  0  0  0  0  0  0  0  0
   51.7520   29.9820   52.6550 C   0  0  0  0  0  0  0  0  0  0  0  0
   52.0940   29.5750   51.3490 C   0  0  0  0  0  0  0  0  0  0  0  0
   51.9480   30.4590   50.2760 C   0  0  0  0  0  0  0  0  0  0  0  0
   51.4620   31.7500   50.4910 C   0  0  0  0  0  0  0  0  0  0  0  0
   51.1170   32.1600   51.7820 C   0  0  0  0  0  0  0  0  0  0  0  0
   50.6320   33.4450   51.9970 O   0  0  0  0  0  0  0  0  0  0  0  0
   51.2590   31.2780   52.8580 C   0  0  0  0  0  0  0  0  0  0  0  0
   55.0650   28.1910   54.4160 O   0  0  0  0  0  0  0  0  0  0  0  0
   56.1800   28.3780   53.7710 N   0  0  0  0  0  0  0  0  0  0  0  0
   57.3410   31.9270   53.4560 H   0  0  0  0  0  0  0  0  0  0  0  0
   59.5882   33.1992   53.1404 H   0  0  0  0  0  0  0  0  0  0  0  0
   60.9783   34.4700   51.5057 H   0  0  0  0  0  0  0  0  0  0  0  0
   60.5694   34.2312   49.0603 H   0  0  0  0  0  0  0  0  0  0  0  0
   59.4494   30.7983   47.3960 H   0  0  0  0  0  0  0  0  0  0  0  0
   59.1886   31.9520   46.0308 H   0  0  0  0  0  0  0  0  0  0  0  0
   60.7048   34.0899   46.0222 H   0  0  0  0  0  0  0  0  0  0  0  0
   63.1154   34.7311   46.0771 H   0  0  0  0  0  0  0  0  0  0  0  0
   64.7849   33.2338   47.1728 H   0  0  0  0  0  0  0  0  0  0  0  0
   64.0465   31.0837   48.2064 H   0  0  0  0  0  0  0  0  0  0  0  0
   61.6384   30.4297   48.1507 H   0  0  0  0  0  0  0  0  0  0  0  0
   57.3662   31.4311   49.8699 H   0  0  0  0  0  0  0  0  0  0  0  0
   54.4151   31.0633   53.0231 H   0  0  0  0  0  0  0  0  0  0  0  0
   52.7238   28.4701   55.5385 H   0  0  0  0  0  0  0  0  0  0  0  0
   52.7348   30.2549   55.2851 H   0  0  0  0  0  0  0  0  0  0  0  0
   52.4769   28.5587   51.1740 H   0  0  0  0  0  0  0  0  0  0  0  0
   52.2168   30.1365   49.2593 H   0  0  0  0  0  0  0  0  0  0  0  0
   51.3506   32.4441   49.6449 H   0  0  0  0  0  0  0  0  0  0  0  0
   50.9816   31.6040   53.8713 H   0  0  0  0  0  0  0  0  0  0  0  0
  1  2  2  0
  2  3  1  0
  3  4  1  0
  4  5  2  0
  5  6  1  0
  6  7  2  0
  7  8  1  0
  8  9  1  0
  9 10  1  0
 10 11  1  0
 11 12  2  0
 12 13  1  0
 13 14  2  0
 14 15  1  0
 15 16  2  0
  8 17  2  0
  2 18  1  0
 18 19  1  0
 19 20  2  0
 20 21  1  0
 21 22  1  0
 22 23  1  0
 23 24  2  0
 24 25  1  0
 25 26  2  0
 26 27  1  0
 27 28  1  0
 27 29  2  0
 20 30  1  0
 30 31  1  0
 17  4  1  0
 31 18  2  0
 16 11  1  0
 29 23  1  0
  3 32  1  0
  5 33  1  0
  6 34  1  0
  7 35  1  0
 10 36  1  0
 10 37  1  0
 12 38  1  0
 13 39  1  0
 14 40  1  0
 15 41  1  0
 16 42  1  0
 17 43  1  0
 19 44  1  0
 21 45  1  0
 21 46  1  0
 24 47  1  0
 25 48  1  0
 26 49  1  0
 29 50  1  0
M  CHG  1  28  -1
M  END
>  <UniqueID>  (9) 
7

>  <SMILES>  (9) 
O=C(Nc1cccc(OCc2ccccc2)c1)c1cc(COc2cccc([O-])c2)on1

>  <Energy>  (9) 
86.9216326379704

>  <Genealogy>  (9) 
O=C(Nc1cccc(OCc2ccccc2)c1)c1cc(COc2cccc([O-])c2)on1 (protonated)
O=C(Nc1cccc(OCc2ccccc2)c1)c1cc(COc2cccc([O-])c2)on1 (3D coordinates assigned)
O=C(Nc1cccc(OCc2ccccc2)c1)c1cc(COc2cccc([O-])c2)on1 (optimized conformer: 86.9216326379704 kcal/mol)

>  <smiles>  (9) 
O=C(Nc1cccc(OCc2ccccc2)c1)c1cc(COc2cccc(O)c2)on1

>  <score_type>  (9) 
oracle

>  <origin>  (9) 
adg

>  <m_score__min__energy>  (9) 
-14.07

>  <m_primary>  (9) 
energy

$$$$
9:0
     RDKit          3D

 45 47  0  0  0  0  0  0  0  0999 V2000
   61.3190   34.2440   48.7580 C   0  0  0  0  0  0  0  0  0  0  0  0
   60.3260   33.6560   47.7960 C   0  0  0  0  0  0  0  0  0  0  0  0
   59.1820   34.3870   47.4350 C   0  0  0  0  0  0  0  0  0  0  0  0
   58.2440   33.8460   46.5510 C   0  0  0  0  0  0  0  0  0  0  0  0
   58.4410   32.5780   45.9970 C   0  0  0  0  0  0  0  0  0  0  0  0
   57.4630   32.0580   45.0860 N   0  0  0  0  0  0  0  0  0  0  0  0
   57.5700   30.8470   44.3280 C   0  0  0  0  0  0  0  0  0  0  0  0
   57.9820   30.9130   43.1390 O   0  0  0  0  0  0  0  0  0  0  0  0
   57.2600   29.5230   44.9050 C   0  0  0  0  0  0  0  0  0  0  0  0
   58.1550   28.7030   45.5790 C   0  0  0  0  0  0  0  0  0  0  0  0
   57.5250   27.5890   46.0160 N   0  0  0  0  0  0  0  0  0  0  0  0
   58.1460   26.4840   46.7500 C   0  0  0  0  0  0  0  0  0  0  0  0
   58.3760   25.3050   45.8400 C   0  0  0  0  0  0  0  0  0  0  0  0
   59.5570   24.8860   45.6920 O   0  0  0  0  0  0  0  0  0  0  0  0
   57.2600   24.6190   45.1350 C   0  0  0  0  0  0  0  0  0  0  0  0
   57.3590   24.3290   43.7620 C   0  0  0  0  0  0  0  0  0  0  0  0
   56.3200   23.6790   43.0910 C   0  0  0  0  0  0  0  0  0  0  0  0
   55.1600   23.3200   43.7770 C   0  0  0  0  0  0  0  0  0  0  0  0
   55.0260   23.6130   45.1420 C   0  0  0  0  0  0  0  0  0  0  0  0
   53.7730   23.2210   45.8780 C   0  0  0  0  0  0  0  0  0  0  0  0
   56.0780   24.2570   45.8240 C   0  0  0  0  0  0  0  0  0  0  0  0
   55.9530   24.5170   47.1870 O   0  0  0  0  0  0  0  0  0  0  0  0
   56.2390   27.6860   45.6240 C   0  0  0  0  0  0  0  0  0  0  0  0
   55.2670   26.7170   45.8670 O   0  0  0  0  0  0  0  0  0  0  0  0
   56.0390   28.8730   44.9550 C   0  0  0  0  0  0  0  0  0  0  0  0
   54.8240   29.3350   44.4650 O   0  0  0  0  0  0  0  0  0  0  0  0
   59.5670   31.8280   46.3790 C   0  0  0  0  0  0  0  0  0  0  0  0
   60.5070   32.3600   47.2710 C   0  0  0  0  0  0  0  0  0  0  0  0
   61.8970   31.3760   47.7130 Cl  0  0  0  0  0  0  0  0  0  0  0  0
   60.9900   34.0492   49.7894 H   0  0  0  0  0  0  0  0  0  0  0  0
   62.3047   33.7839   48.5945 H   0  0  0  0  0  0  0  0  0  0  0  0
   61.3894   35.3295   48.5945 H   0  0  0  0  0  0  0  0  0  0  0  0
   59.0231   35.3928   47.8511 H   0  0  0  0  0  0  0  0  0  0  0  0
   57.3443   34.4224   46.2895 H   0  0  0  0  0  0  0  0  0  0  0  0
   59.2207   28.9267   45.7348 H   0  0  0  0  0  0  0  0  0  0  0  0
   59.1108   26.8187   47.1588 H   0  0  0  0  0  0  0  0  0  0  0  0
   57.4733   26.1771   47.5644 H   0  0  0  0  0  0  0  0  0  0  0  0
   58.2656   24.6175   43.2099 H   0  0  0  0  0  0  0  0  0  0  0  0
   56.4171   23.4500   42.0195 H   0  0  0  0  0  0  0  0  0  0  0  0
   54.3466   22.8048   43.2451 H   0  0  0  0  0  0  0  0  0  0  0  0
   53.9518   23.2769   46.9619 H   0  0  0  0  0  0  0  0  0  0  0  0
   52.9576   23.9070   45.6050 H   0  0  0  0  0  0  0  0  0  0  0  0
   53.4939   22.1926   45.6050 H   0  0  0  0  0  0  0  0  0  0  0  0
   55.1310   26.3330   46.7950 H   0  0  0  0  0  0  0  0  0  0  0  0
   59.7111   30.8154   45.9742 H   0  0  0  0  0  0  0  0  0  0  0  0
  1  2  1  0
  2  3  2  0
  3  4  1  0
  4  5  2  0
  5  6  1  0
  6  7  1  0
  7  8  2  0
  7  9  1  0
  9 10  2  0
 10 11  1  0
 11 12  1  0
 12 13  1  0
 13 14  2  0
 13 15  1  0
 15 16  2  0
 16 17  1  0
 17 18  2  0
 18 19  1  0
 19 20  1  0
 19 21  2  0
 21 22  1  0
 11 23  1  0
 23 24  1  0
 23 25  2  0
 25 26  1  0
  5 27  1  0
 27 28  2  0
 28 29  1  0
 28  2  1  0
 25  9  1  0
 21 15  1  0
  1 30  1  0
  1 31  1  0
  1 32  1  0
  3 33  1  0
  4 34  1  0
 10 35  1  0
 12 36  1  0
 12 37  1  0
 16 38  1  0
 17 39  1  0
 18 40  1  0
 20 41  1  0
 20 42  1  0
 20 43  1  0
 24 44  1  0
 27 45  1  0
M  CHG  3   6  -1  22  -1  26  -1
M  END
>  <UniqueID>  (10) 
8

>  <SMILES>  (10) 
Cc1ccc([N-]C(=O)c2cn(CC(=O)c3cccc(C)c3[O-])c(O)c2[O-])cc1Cl

>  <Energy>  (10) 
85.08764897172966

>  <Genealogy>  (10) 
Cc1ccc([N-]C(=O)c2cn(CC(=O)c3cccc(C)c3[O-])c(O)c2[O-])cc1Cl (protonated)
Cc1ccc([N-]C(=O)c2cn(CC(=O)c3cccc(C)c3[O-])c(O)c2[O-])cc1Cl (3D coordinates assigned)
Cc1ccc([N-]C(=O)c2cn(CC(=O)c3cccc(C)c3[O-])c(O)c2[O-])cc1Cl (optimized conformer: 85.08764897172966 kcal/mol)

>  <smiles>  (10) 
Cc1ccc(NC(=O)c2cn(CC(=O)c3cccc(C)c3O)c(O)c2O)cc1Cl

>  <score_type>  (10) 
oracle

>  <origin>  (10) 
adg

>  <m_score__min__energy>  (10) 
-15.69

>  <m_primary>  (10) 
energy

$$$$
10:0
     RDKit          3D

 58 61  0  0  0  0  0  0  0  0999 V2000
   61.0374   29.5434   44.5124 H   0  0  0  0  0  0  0  0  0  0  0  0
   60.1550   28.9680   44.8290 C   0  0  0  0  0  0  0  0  0  0  0  0
   59.6467   28.3033   44.1150 H   0  0  0  0  0  0  0  0  0  0  0  0
   59.6980   29.0770   46.0880 C   0  0  0  0  0  0  0  0  0  0  0  0
   58.5870   28.4010   46.6170 C   0  0  0  0  0  0  0  0  0  0  0  0
   57.6860   27.6580   45.9400 C   0  0  0  0  0  0  0  0  0  0  0  0
   57.2855   28.0710   45.0024 H   0  0  0  0  0  0  0  0  0  0  0  0
   57.1970   26.3250   46.3690 C   0  0  0  0  0  0  0  0  0  0  0  0
   57.9460   25.3650   46.9440 N   0  0  0  0  0  0  0  0  0  0  0  0
   57.0400   24.4540   47.3530 C   0  0  0  0  0  0  0  0  0  0  0  0
   57.3620   23.4250   48.0000 O   0  0  0  0  0  0  0  0  0  0  0  0
   55.7540   24.7720   47.0840 N   0  0  0  0  0  0  0  0  0  0  0  0
   55.8730   25.9550   46.4550 C   0  0  0  0  0  0  0  0  0  0  0  0
   54.7890   26.7020   46.0090 O   0  0  0  0  0  0  0  0  0  0  0  0
   58.5540   28.7200   47.9640 C   0  0  0  0  0  0  0  0  0  0  0  0
   57.8263   28.3563   48.7045 H   0  0  0  0  0  0  0  0  0  0  0  0
   59.6060   29.5800   48.2020 C   0  0  0  0  0  0  0  0  0  0  0  0
   59.9270   30.0720   49.5640 C   0  0  0  0  0  0  0  0  0  0  0  0
   61.0940   29.8510   50.0000 O   0  0  0  0  0  0  0  0  0  0  0  0
   58.9640   30.7570   50.4130 N   0  0  0  0  0  0  0  0  0  0  0  0
   58.2340   30.1150   50.8100 H   0  0  0  0  0  0  0  0  0  0  0  0
   59.6050   31.5650   51.4660 C   0  0  0  0  0  0  0  0  0  0  0  0
   59.2132   31.3598   52.4732 H   0  0  0  0  0  0  0  0  0  0  0  0
   60.6836   31.4420   51.6436 H   0  0  0  0  0  0  0  0  0  0  0  0
   59.1070   32.8740   50.8810 C   0  0  0  0  0  0  0  0  0  0  0  0
   58.4344   33.4509   51.5327 H   0  0  0  0  0  0  0  0  0  0  0  0
   59.7795   33.7016   50.6111 H   0  0  0  0  0  0  0  0  0  0  0  0
   58.4150   32.0060   49.8490 C   0  0  0  0  0  0  0  0  0  0  0  0
   57.3174   32.0614   49.8971 H   0  0  0  0  0  0  0  0  0  0  0  0
   58.5782   32.2209   48.7826 H   0  0  0  0  0  0  0  0  0  0  0  0
   60.2750   29.8510   47.0480 N   0  0  0  0  0  0  0  0  0  0  0  0
   61.1910   30.9860   46.8320 C   0  0  0  0  0  0  0  0  0  0  0  0
   62.0222   30.9203   47.5495 H   0  0  0  0  0  0  0  0  0  0  0  0
   61.5711   30.9411   45.8007 H   0  0  0  0  0  0  0  0  0  0  0  0
   60.4690   32.3050   47.0270 C   0  0  0  0  0  0  0  0  0  0  0  0
   61.0920   33.3210   47.7790 C   0  0  0  0  0  0  0  0  0  0  0  0
   62.0912   33.1466   48.2047 H   0  0  0  0  0  0  0  0  0  0  0  0
   60.4580   34.5440   47.9900 C   0  0  0  0  0  0  0  0  0  0  0  0
   60.9496   35.3231   48.5911 H   0  0  0  0  0  0  0  0  0  0  0  0
   59.2000   34.7780   47.4380 C   0  0  0  0  0  0  0  0  0  0  0  0
   58.7012   35.7444   47.6032 H   0  0  0  0  0  0  0  0  0  0  0  0
   58.5700   33.7930   46.6770 C   0  0  0  0  0  0  0  0  0  0  0  0
   57.5862   33.9964   46.2289 H   0  0  0  0  0  0  0  0  0  0  0  0
   59.1830   32.5390   46.4770 C   0  0  0  0  0  0  0  0  0  0  0  0
   58.5560   31.5220   45.7320 O   0  0  0  0  0  0  0  0  0  0  0  0
   57.4030   31.6890   44.9060 C   0  0  0  0  0  0  0  0  0  0  0  0
   56.5267   31.2844   45.4336 H   0  0  0  0  0  0  0  0  0  0  0  0
   57.2843   32.7634   44.7022 H   0  0  0  0  0  0  0  0  0  0  0  0
   57.5500   30.9590   43.5490 C   0  0  0  0  0  0  0  0  0  0  0  0
   58.4543   30.3341   43.5919 H   0  0  0  0  0  0  0  0  0  0  0  0
   57.7190   31.9570   42.3960 C   0  0  0  0  0  0  0  0  0  0  0  0
   57.8895   32.9639   42.8047 H   0  0  0  0  0  0  0  0  0  0  0  0
   58.5799   31.6613   41.7783 H   0  0  0  0  0  0  0  0  0  0  0  0
   56.8088   31.9613   41.7783 H   0  0  0  0  0  0  0  0  0  0  0  0
   56.3270   30.0660   43.3000 C   0  0  0  0  0  0  0  0  0  0  0  0
   55.8989   29.7534   44.2639 H   0  0  0  0  0  0  0  0  0  0  0  0
   55.5731   30.6276   42.7288 H   0  0  0  0  0  0  0  0  0  0  0  0
   56.6324   29.1769   42.7288 H   0  0  0  0  0  0  0  0  0  0  0  0
  1  2  1  0
  2  3  1  0
  2  4  2  0
  4  5  1  0
  5  6  2  0
  6  7  1  0
  6  8  1  0
  8  9  1  0
  9 10  1  0
 10 11  2  0
 10 12  1  0
 12 13  1  0
 13 14  1  0
  5 15  1  0
 15 16  1  0
 15 17  2  0
 17 18  1  0
 18 19  2  0
 18 20  1  0
 20 21  1  0
 20 22  1  0
 22 23  1  0
 22 24  1  0
 22 25  1  0
 25 26  1  0
 25 27  1  0
 25 28  1  0
 28 29  1  0
 28 30  1  0
 17 31  1  0
 31 32  1  0
 32 33  1  0
 32 34  1  0
 32 35  1  0
 35 36  2  0
 36 37  1  0
 36 38  1  0
 38 39  1  0
 38 40  2  0
 40 41  1  0
 40 42  1  0
 42 43  1  0
 42 44  2  0
 44 45  1  0
 45 46  1  0
 46 47  1  0
 46 48  1  0
 46 49  1  0
 49 50  1  0
 49 51  1  0
 51 52  1  0
 51 53  1  0
 51 54  1  0
 49 55  1  0
 55 56  1  0
 55 57  1  0
 55 58  1  0
 31  4  1  0
 44 35  1  0
 13  8  2  0
 28 20  1  0
M  CHG  4   9  -1  12  -1  14  -1  20   1
M  END
>  <UniqueID>  (11) 
9

>  <SMILES>  (11) 
C=c1/c(=C/c2[n-]c(=O)[n-]c2[O-])cc(C(=O)[NH+]2CCC2)n1Cc1ccccc1OCC(C)C

>  <Energy>  (11) 
203.21080518752265

>  <Genealogy>  (11) 
C=c1c(=Cc2[n-]c(=O)[n-]c2[O-])cc(C(=O)[NH+]2CCC2)n1Cc1ccccc1OCC(C)C (protonated)
C=c1/c(=C/c2[n-]c(=O)[n-]c2[O-])cc(C(=O)[NH+]2CCC2)n1Cc1ccccc1OCC(C)C (cis-trans isomerization)
C=c1/c(=C/c2[n-]c(=O)[n-]c2[O-])cc(C(=O)[NH+]2CCC2)n1Cc1ccccc1OCC(C)C (3D coordinates assigned)
C=c1/c(=C/c2[n-]c(=O)[n-]c2[O-])cc(C(=O)[NH+]2CCC2)n1Cc1ccccc1OCC(C)C (nonaromatic ring conformer: 203.21080518752265 kcal/mol)

>  <smiles>  (11) 
C=c1c(=Cc2[nH]c(=O)[nH]c2O)cc(C(=O)N2CCC2)n1Cc1ccccc1OCC(C)C

>  <score_type>  (11) 
oracle

>  <origin>  (11) 
adg

>  <m_score__min__energy>  (11) 
-14.779999999999999

>  <m_primary>  (11) 
energy

$$$$
11:0
     RDKit          3D

 61 64  0  0  0  0  0  0  0  0999 V2000
   53.5050   23.4440   45.5070 C   0  0  0  0  0  0  0  0  0  0  0  0
   54.4920   24.0740   44.5280 C   0  0  0  0  0  0  0  0  0  0  0  0
   55.8180   23.3450   44.5540 C   0  0  0  0  0  0  0  0  0  0  0  0
   56.1830   22.5910   43.4240 C   0  0  0  0  0  0  0  0  0  0  0  0
   57.3860   21.8880   43.3930 C   0  0  0  0  0  0  0  0  0  0  0  0
   58.2500   21.9320   44.4850 C   0  0  0  0  0  0  0  0  0  0  0  0
   57.9150   22.6840   45.6110 C   0  0  0  0  0  0  0  0  0  0  0  0
   56.7030   23.3990   45.6640 C   0  0  0  0  0  0  0  0  0  0  0  0
   56.4140   24.1970   46.8820 C   0  0  0  0  0  0  0  0  0  0  0  0
   56.4810   23.6490   48.0130 O   0  0  0  0  0  0  0  0  0  0  0  0
   55.9230   25.5430   46.8060 N   0  0  0  0  0  0  0  0  0  0  0  0
   56.5460   26.5700   46.3040 C   0  0  0  0  0  0  0  0  0  0  0  0
   55.8940   27.5340   45.6200 N   0  0  0  0  0  0  0  0  0  0  0  0
   56.7360   28.5160   45.2030 C   0  0  0  0  0  0  0  0  0  0  0  0
   58.0670   28.3470   45.5840 C   0  0  0  0  0  0  0  0  0  0  0  0
   59.2230   29.2230   45.1980 C   0  0  0  0  0  0  0  0  0  0  0  0
   58.7950   30.6600   45.0560 C   0  0  0  0  0  0  0  0  0  0  0  0
   58.0530   31.0680   43.9390 C   0  0  0  0  0  0  0  0  0  0  0  0
   57.7100   32.4110   43.7740 C   0  0  0  0  0  0  0  0  0  0  0  0
   58.1070   33.3590   44.7200 C   0  0  0  0  0  0  0  0  0  0  0  0
   58.8380   32.9680   45.8520 C   0  0  0  0  0  0  0  0  0  0  0  0
   59.2820   33.9660   46.8500 C   0  0  0  0  0  0  0  0  0  0  0  0
   58.5500   34.9670   47.0810 O   0  0  0  0  0  0  0  0  0  0  0  0
   60.5350   33.8290   47.5480 N   0  0  0  0  0  0  0  0  0  0  0  0
   60.6700   34.4110   48.8900 C   0  0  0  0  0  0  0  0  0  0  0  0
   61.7130   33.6420   49.7060 C   0  0  0  0  0  0  0  0  0  0  0  0
   62.9580   33.4310   48.9470 N   0  0  0  0  0  0  0  0  0  0  0  0
   64.1420   32.9560   49.6220 C   0  0  0  0  0  0  0  0  0  0  0  0
   64.0690   32.3370   50.9840 C   0  0  0  0  0  0  0  0  0  0  0  0
   65.2710   33.0680   49.0690 O   0  0  0  0  0  0  0  0  0  0  0  0
   63.0220   33.8120   47.5310 C   0  0  0  0  0  0  0  0  0  0  0  0
   61.7340   33.4030   46.8080 C   0  0  0  0  0  0  0  0  0  0  0  0
   59.1920   31.6160   46.0050 C   0  0  0  0  0  0  0  0  0  0  0  0
   58.1970   26.9040   46.4420 S   0  0  0  0  0  0  0  0  0  0  0  0
   53.8286   23.6506   46.5378 H   0  0  0  0  0  0  0  0  0  0  0  0
   52.5043   23.8708   45.3444 H   0  0  0  0  0  0  0  0  0  0  0  0
   53.4708   22.3566   45.3444 H   0  0  0  0  0  0  0  0  0  0  0  0
   54.0733   24.0238   43.5121 H   0  0  0  0  0  0  0  0  0  0  0  0
   54.6602   25.1203   44.8229 H   0  0  0  0  0  0  0  0  0  0  0  0
   55.5107   22.5558   42.5541 H   0  0  0  0  0  0  0  0  0  0  0  0
   57.6538   21.2972   42.5046 H   0  0  0  0  0  0  0  0  0  0  0  0
   59.1972   21.3732   44.4592 H   0  0  0  0  0  0  0  0  0  0  0  0
   58.6051   22.7189   46.4669 H   0  0  0  0  0  0  0  0  0  0  0  0
   56.3941   29.3776   44.6107 H   0  0  0  0  0  0  0  0  0  0  0  0
   59.9993   29.1551   45.9743 H   0  0  0  0  0  0  0  0  0  0  0  0
   59.6121   28.8784   44.2285 H   0  0  0  0  0  0  0  0  0  0  0  0
   57.7396   30.3267   43.1892 H   0  0  0  0  0  0  0  0  0  0  0  0
   57.1253   32.7237   42.8963 H   0  0  0  0  0  0  0  0  0  0  0  0
   57.8451   34.4177   44.5767 H   0  0  0  0  0  0  0  0  0  0  0  0
   60.9841   35.4613   48.7991 H   0  0  0  0  0  0  0  0  0  0  0  0
   59.6995   34.3484   49.4041 H   0  0  0  0  0  0  0  0  0  0  0  0
   61.9443   34.2139   50.6167 H   0  0  0  0  0  0  0  0  0  0  0  0
   61.2931   32.6558   49.9530 H   0  0  0  0  0  0  0  0  0  0  0  0
   64.1616   33.1220   51.7490 H   0  0  0  0  0  0  0  0  0  0  0  0
   63.1039   31.8224   51.1016 H   0  0  0  0  0  0  0  0  0  0  0  0
   64.8879   31.6120   51.1016 H   0  0  0  0  0  0  0  0  0  0  0  0
   63.1499   34.9019   47.4545 H   0  0  0  0  0  0  0  0  0  0  0  0
   63.8732   33.2972   47.0615 H   0  0  0  0  0  0  0  0  0  0  0  0
   61.7217   33.8682   45.8113 H   0  0  0  0  0  0  0  0  0  0  0  0
   61.7176   32.3058   46.7314 H   0  0  0  0  0  0  0  0  0  0  0  0
   59.7859   31.3039   46.8767 H   0  0  0  0  0  0  0  0  0  0  0  0
  1  2  1  0
  2  3  1  0
  3  4  2  0
  4  5  1  0
  5  6  2  0
  6  7  1  0
  7  8  2  0
  8  9  1  0
  9 10  2  0
  9 11  1  0
 11 12  2  3
 12 13  1  0
 13 14  1  0
 14 15  2  0
 15 16  1  0
 16 17  1  0
 17 18  2  0
 18 19  1  0
 19 20  2  0
 20 21  1  0
 21 22  1  0
 22 23  2  0
 22 24  1  0
 24 25  1  0
 25 26  1  0
 26 27  1  0
 27 28  1  0
 28 29  1  0
 28 30  2  0
 27 31  1  0
 31 32  1  0
 21 33  2  0
 15 34  1  0
  8  3  1  0
 34 12  1  0
 33 17  1  0
 32 24  1  0
  1 35  1  0
  1 36  1  0
  1 37  1  0
  2 38  1  0
  2 39  1  0
  4 40  1  0
  5 41  1  0
  6 42  1  0
  7 43  1  0
 14 44  1  0
 16 45  1  0
 16 46  1  0
 18 47  1  0
 19 48  1  0
 20 49  1  0
 25 50  1  0
 25 51  1  0
 26 52  1  0
 26 53  1  0
 29 54  1  0
 29 55  1  0
 29 56  1  0
 31 57  1  0
 31 58  1  0
 32 59  1  0
 32 60  1  0
 33 61  1  0
M  CHG  1  13  -1
M  END
>  <UniqueID>  (12) 
10

>  <SMILES>  (12) 
CCc1ccccc1C(=O)N=c1[n-]cc(Cc2cccc(C(=O)N3CCN(C(C)=O)CC3)c2)s1

>  <Energy>  (12) 
105.66126533445802

>  <Genealogy>  (12) 
CCc1ccccc1C(=O)N=c1[n-]cc(Cc2cccc(C(=O)N3CCN(C(C)=O)CC3)c2)s1 (protonated)
CCc1ccccc1C(=O)N=c1[n-]cc(Cc2cccc(C(=O)N3CCN(C(C)=O)CC3)c2)s1 (3D coordinates assigned)
CCc1ccccc1C(=O)N=c1[n-]cc(Cc2cccc(C(=O)N3CCN(C(C)=O)CC3)c2)s1 (nonaromatic ring conformer: 105.66126533445802 kcal/mol)

>  <smiles>  (12) 
CCc1ccccc1C(=O)N=c1[nH]cc(Cc2cccc(C(=O)N3CCN(C(C)=O)CC3)c2)s1

>  <score_type>  (12) 
oracle

>  <origin>  (12) 
adg

>  <m_score__min__energy>  (12) 
-12.26

>  <m_primary>  (12) 
energy

$$$$
12:0
     RDKit          3D

 39 41  0  0  0  0  0  0  0  0999 V2000
   60.7388   27.4712   49.6965 H   0  0  0  0  0  0  0  0  0  0  0  0
   60.9670   28.4630   50.1140 C   0  0  0  0  0  0  0  0  0  0  0  0
   61.2172   28.5666   51.1801 H   0  0  0  0  0  0  0  0  0  0  0  0
   60.9400   29.5530   49.3180 C   0  0  0  0  0  0  0  0  0  0  0  0
   60.6740   29.5010   47.9130 C   0  0  0  0  0  0  0  0  0  0  0  0
   60.3200   28.3340   47.2940 C   0  0  0  0  0  0  0  0  0  0  0  0
   61.1284   27.6196   47.0791 H   0  0  0  0  0  0  0  0  0  0  0  0
   58.9540   27.9410   46.8860 C   0  0  0  0  0  0  0  0  0  0  0  0
   58.4340   26.7060   47.3000 C   0  0  0  0  0  0  0  0  0  0  0  0
   59.0276   26.0535   47.9572 H   0  0  0  0  0  0  0  0  0  0  0  0
   57.1640   26.3020   46.8800 C   0  0  0  0  0  0  0  0  0  0  0  0
   56.7547   25.3394   47.2206 H   0  0  0  0  0  0  0  0  0  0  0  0
   56.4110   27.1170   46.0280 C   0  0  0  0  0  0  0  0  0  0  0  0
   55.1470   26.7060   45.6210 O   0  0  0  0  0  0  0  0  0  0  0  0
   56.9360   28.3410   45.5880 C   0  0  0  0  0  0  0  0  0  0  0  0
   56.0120   29.3710   44.5060 Cl  0  0  0  0  0  0  0  0  0  0  0  0
   58.2080   28.7450   46.0060 C   0  0  0  0  0  0  0  0  0  0  0  0
   58.6267   29.6959   45.6448 H   0  0  0  0  0  0  0  0  0  0  0  0
   60.7370   30.7350   47.2010 C   0  0  0  0  0  0  0  0  0  0  0  0
   60.4250   30.7810   45.9780 O   0  0  0  0  0  0  0  0  0  0  0  0
   61.0850   31.9010   47.8360 N   0  0  0  0  0  0  0  0  0  0  0  0
   61.1470   33.1670   47.0710 C   0  0  0  0  0  0  0  0  0  0  0  0
   61.5039   33.9712   47.7312 H   0  0  0  0  0  0  0  0  0  0  0  0
   61.8364   33.0361   46.2239 H   0  0  0  0  0  0  0  0  0  0  0  0
   59.7840   33.5320   46.5370 C   0  0  0  0  0  0  0  0  0  0  0  0
   58.6240   33.1260   47.2190 C   0  0  0  0  0  0  0  0  0  0  0  0
   58.7108   32.5572   48.1565 H   0  0  0  0  0  0  0  0  0  0  0  0
   57.3600   33.4420   46.7110 C   0  0  0  0  0  0  0  0  0  0  0  0
   56.4558   33.1213   47.2492 H   0  0  0  0  0  0  0  0  0  0  0  0
   57.2440   34.1650   45.5200 C   0  0  0  0  0  0  0  0  0  0  0  0
   56.2492   34.4139   45.1219 H   0  0  0  0  0  0  0  0  0  0  0  0
   58.3920   34.5710   44.8360 C   0  0  0  0  0  0  0  0  0  0  0  0
   58.3001   35.1391   43.8986 H   0  0  0  0  0  0  0  0  0  0  0  0
   59.6580   34.2570   45.3400 C   0  0  0  0  0  0  0  0  0  0  0  0
   60.5589   34.5789   44.7972 H   0  0  0  0  0  0  0  0  0  0  0  0
   61.3180   31.9010   49.1820 C   0  0  0  0  0  0  0  0  0  0  0  0
   61.6200   32.9700   49.7830 O   0  0  0  0  0  0  0  0  0  0  0  0
   61.2320   30.7530   49.8950 N   0  0  0  0  0  0  0  0  0  0  0  0
   61.4240   30.8090   50.9240 H   0  0  0  0  0  0  0  0  0  0  0  0
  1  2  1  0
  2  3  1  0
  2  4  2  0
  4  5  1  0
  5  6  2  0
  6  7  1  0
  6  8  1  0
  8  9  2  0
  9 10  1  0
  9 11  1  0
 11 12  1  0
 11 13  2  0
 13 14  1  0
 13 15  1  0
 15 16  1  0
 15 17  2  0
 17 18  1  0
  5 19  1  0
 19 20  2  0
 19 21  1  0
 21 22  1  0
 22 23  1  0
 22 24  1  0
 22 25  1  0
 25 26  2  0
 26 27  1  0
 26 28  1  0
 28 29  1  0
 28 30  2  0
 30 31  1  0
 30 32  1  0
 32 33  1  0
 32 34  2  0
 34 35  1  0
 21 36  1  0
 36 37  2  0
 36 38  1  0
 38 39  1  0
 38  4  1  0
 17  8  1  0
 34 25  1  0
M  CHG  1  14  -1
M  END
>  <UniqueID>  (13) 
11

>  <SMILES>  (13) 
C=c1[nH]c(=O)n(Cc2ccccc2)c(=O)/c1=C\c1ccc([O-])c(Cl)c1

>  <Energy>  (13) 
68.26190707921518

>  <Genealogy>  (13) 
C=c1[nH]c(=O)n(Cc2ccccc2)c(=O)c1=Cc1ccc([O-])c(Cl)c1 (protonated)
C=c1[nH]c(=O)n(Cc2ccccc2)c(=O)/c1=C\c1ccc([O-])c(Cl)c1 (cis-trans isomerization)
C=c1[nH]c(=O)n(Cc2ccccc2)c(=O)/c1=C\c1ccc([O-])c(Cl)c1 (3D coordinates assigned)
C=c1[nH]c(=O)n(Cc2ccccc2)c(=O)/c1=C\c1ccc([O-])c(Cl)c1 (optimized conformer: 68.26190707921518 kcal/mol)

>  <smiles>  (13) 
C=c1[nH]c(=O)n(Cc2ccccc2)c(=O)c1=Cc1ccc(O)c(Cl)c1

>  <score_type>  (13) 
oracle

>  <origin>  (13) 
adg

>  <m_score__min__energy>  (13) 
-10.93

>  <m_primary>  (13) 
energy

$$$$
13:0
     RDKit          3D

 37 38  0  0  0  0  0  0  0  0999 V2000
   56.4640   29.3720   42.9400 C   0  0  0  0  0  0  0  0  0  0  0  0
   56.1660   29.7530   44.3580 C   0  0  0  0  0  0  0  0  0  0  0  0
   55.1040   29.3450   44.8960 O   0  0  0  0  0  0  0  0  0  0  0  0
   57.0610   30.5730   45.1190 N   0  0  0  0  0  0  0  0  0  0  0  0
   58.0810   30.0630   45.9850 C   0  0  0  0  0  0  0  0  0  0  0  0
   58.0690   28.7010   46.3120 C   0  0  0  0  0  0  0  0  0  0  0  0
   59.0680   28.1500   47.1350 C   0  0  0  0  0  0  0  0  0  0  0  0
   59.0770   26.6700   47.4670 C   0  0  1  0  0  0  0  0  0  0  0  0
   57.7710   26.2060   47.7080 O   0  0  0  0  0  0  0  0  0  0  0  0
   59.7740   25.8550   46.3610 C   0  0  0  0  0  0  0  0  0  0  0  0
   58.8260   24.9600   45.7050 N   0  0  0  0  0  0  0  0  0  0  0  0
   57.7600   25.4090   44.8570 C   0  0  0  0  0  0  0  0  0  0  0  0
   57.9670   26.3530   44.0460 O   0  0  0  0  0  0  0  0  0  0  0  0
   56.4220   24.7680   44.9430 C   0  0  0  0  0  0  0  0  0  0  0  0
   56.1620   23.5770   44.2440 C   0  0  0  0  0  0  0  0  0  0  0  0
   54.9400   22.9880   44.3170 N   0  0  0  0  0  0  0  0  0  0  0  0
   53.9470   23.5320   45.0630 C   0  0  0  0  0  0  0  0  0  0  0  0
   52.8230   22.9690   45.1180 O   0  0  0  0  0  0  0  0  0  0  0  0
   54.1650   24.6810   45.7490 N   0  0  0  0  0  0  0  0  0  0  0  0
   55.3680   25.3090   45.7100 C   0  0  0  0  0  0  0  0  0  0  0  0
   55.5200   26.3750   46.3650 O   0  0  0  0  0  0  0  0  0  0  0  0
   60.0800   28.9880   47.6290 C   0  0  0  0  0  0  0  0  0  0  0  0
   60.0800   30.3520   47.3280 C   0  0  0  0  0  0  0  0  0  0  0  0
   59.0780   30.9020   46.5230 C   0  0  0  0  0  0  0  0  0  0  0  0
   59.0830   32.2780   46.2960 O   0  0  0  0  0  0  0  0  0  0  0  0
   57.1417   28.5056   42.9278 H   0  0  0  0  0  0  0  0  0  0  0  0
   55.5271   29.1120   42.4256 H   0  0  0  0  0  0  0  0  0  0  0  0
   56.9420   30.2187   42.4256 H   0  0  0  0  0  0  0  0  0  0  0  0
   57.2693   28.0549   45.9208 H   0  0  0  0  0  0  0  0  0  0  0  0
   59.6582   26.5291   48.3902 H   0  0  0  0  0  0  0  0  0  0  0  0
   57.4820   25.6700   46.9250 H   0  0  0  0  0  0  0  0  0  0  0  0
   60.1950   26.5449   45.6148 H   0  0  0  0  0  0  0  0  0  0  0  0
   60.5731   25.2517   46.8164 H   0  0  0  0  0  0  0  0  0  0  0  0
   56.9536   23.1183   43.6333 H   0  0  0  0  0  0  0  0  0  0  0  0
   60.8787   28.5675   48.2577 H   0  0  0  0  0  0  0  0  0  0  0  0
   60.8750   30.9988   47.7277 H   0  0  0  0  0  0  0  0  0  0  0  0
   58.3930   32.7360   45.7140 H   0  0  0  0  0  0  0  0  0  0  0  0
  1  2  1  0
  2  3  2  0
  2  4  1  0
  4  5  1  0
  5  6  2  0
  6  7  1  0
  7  8  1  0
  8  9  1  0
  8 10  1  0
 10 11  1  0
 11 12  1  0
 12 13  2  0
 12 14  1  0
 14 15  2  0
 15 16  1  0
 16 17  1  0
 17 18  2  0
 17 19  1  0
 19 20  1  0
 20 21  2  0
  7 22  2  0
 22 23  1  0
 23 24  2  0
 24 25  1  0
 24  5  1  0
 20 14  1  0
  1 26  1  0
  1 27  1  0
  1 28  1  0
  6 29  1  0
  8 30  1  1
  9 31  1  0
 10 32  1  0
 10 33  1  0
 15 34  1  0
 22 35  1  0
 23 36  1  0
 25 37  1  0
M  CHG  4   4  -1  11  -1  16  -1  19  -1
M  END
>  <UniqueID>  (14) 
12

>  <SMILES>  (14) 
CC(=O)[N-]c1cc([C@@H](O)C[N-]C(=O)c2c[n-]c(=O)[n-]c2=O)ccc1O

>  <Energy>  (14) 
45.660639040295706

>  <Genealogy>  (14) 
CC(=O)[N-]c1cc(C(O)C[N-]C(=O)c2c[n-]c(=O)[n-]c2=O)ccc1O (protonated)
CC(=O)[N-]c1cc([C@@H](O)C[N-]C(=O)c2c[n-]c(=O)[n-]c2=O)ccc1O (chirality)
CC(=O)[N-]c1cc([C@@H](O)C[N-]C(=O)c2c[n-]c(=O)[n-]c2=O)ccc1O (3D coordinates assigned)
CC(=O)[N-]c1cc([C@@H](O)C[N-]C(=O)c2c[n-]c(=O)[n-]c2=O)ccc1O (optimized conformer: 45.660639040295706 kcal/mol)

>  <smiles>  (14) 
CC(=O)Nc1cc(C(O)CNC(=O)c2c[nH]c(=O)[nH]c2=O)ccc1O

>  <score_type>  (14) 
oracle

>  <origin>  (14) 
adg

>  <m_score__min__energy>  (14) 
-13.460000000000001

>  <m_primary>  (14) 
energy

$$$$
14:0
     RDKit          3D

 58 62  0  0  0  0  0  0  0  0999 V2000
   59.6033   34.0673   48.7860 H   0  0  0  0  0  0  0  0  0  0  0  0
   59.3590   33.0060   48.9410 C   0  0  0  0  0  0  0  0  0  0  0  0
   59.4330   32.1350   47.9020 N   0  0  0  0  0  0  0  0  0  0  0  0
   59.1490   30.8110   48.0470 C   0  0  0  0  0  0  0  0  0  0  0  0
   59.2090   29.9420   46.9010 N   0  0  0  0  0  0  0  0  0  0  0  0
   58.8820   28.5160   46.9950 C   0  0  0  0  0  0  0  0  0  0  0  0
   58.4400   28.3088   47.9807 H   0  0  0  0  0  0  0  0  0  0  0  0
   59.8022   27.9275   46.8648 H   0  0  0  0  0  0  0  0  0  0  0  0
   57.8770   28.1270   45.8950 C   0  0  0  0  0  0  0  0  0  0  0  0
   56.8605   28.2951   46.2802 H   0  0  0  0  0  0  0  0  0  0  0  0
   58.0678   27.0721   45.6486 H   0  0  0  0  0  0  0  0  0  0  0  0
   58.0320   28.8970   44.6350 N   0  0  0  0  0  0  0  0  0  0  0  0
   56.7550   30.0800   44.4370 S   0  0  0  0  0  0  0  0  0  0  0  0
   57.0420   31.3010   45.2670 O   0  0  0  0  0  0  0  0  0  0  0  0
   55.4310   29.5020   44.8520 O   0  0  0  0  0  0  0  0  0  0  0  0
   56.6680   30.5710   42.7280 C   0  0  0  0  0  0  0  0  0  0  0  0
   56.4764   31.6524   42.6665 H   0  0  0  0  0  0  0  0  0  0  0  0
   57.6213   30.3387   42.2308 H   0  0  0  0  0  0  0  0  0  0  0  0
   55.8526   30.0253   42.2308 H   0  0  0  0  0  0  0  0  0  0  0  0
   59.3700   29.5030   44.4740 C   0  0  0  0  0  0  0  0  0  0  0  0
   59.3959   30.0610   43.5264 H   0  0  0  0  0  0  0  0  0  0  0  0
   60.1138   28.6926   44.4777 H   0  0  0  0  0  0  0  0  0  0  0  0
   59.7070   30.4640   45.6260 C   0  0  0  0  0  0  0  0  0  0  0  0
   59.2406   31.4406   45.4292 H   0  0  0  0  0  0  0  0  0  0  0  0
   60.8002   30.5680   45.6903 H   0  0  0  0  0  0  0  0  0  0  0  0
   58.7420   30.3280   49.3010 C   0  0  0  0  0  0  0  0  0  0  0  0
   58.4922   29.2641   49.4264 H   0  0  0  0  0  0  0  0  0  0  0  0
   58.6540   31.2040   50.3950 C   0  0  0  0  0  0  0  0  0  0  0  0
   58.2120   30.7120   51.7260 C   0  0  0  0  0  0  0  0  0  0  0  0
   59.0540   30.8270   52.8410 C   0  0  0  0  0  0  0  0  0  0  0  0
   60.0224   31.3399   52.7456 H   0  0  0  0  0  0  0  0  0  0  0  0
   58.6690   30.2940   54.0700 C   0  0  0  0  0  0  0  0  0  0  0  0
   59.3499   30.3586   54.9315 H   0  0  0  0  0  0  0  0  0  0  0  0
   57.4230   29.6780   54.2140 C   0  0  0  0  0  0  0  0  0  0  0  0
   57.1280   29.0600   55.3850 N   0  0  0  0  0  0  0  0  0  0  0  0
   55.9680   28.3850   55.5700 C   0  0  0  0  0  0  0  0  0  0  0  0
   55.7866   27.8581   56.5184 H   0  0  0  0  0  0  0  0  0  0  0  0
   55.0020   28.3550   54.5630 C   0  0  0  0  0  0  0  0  0  0  0  0
   53.7580   27.6660   54.8200 C   0  0  0  0  0  0  0  0  0  0  0  0
   52.7620   27.1140   55.0260 N   0  0  0  0  0  0  0  0  0  0  0  0
   55.2130   29.0640   53.3600 C   0  0  0  0  0  0  0  0  0  0  0  0
   54.1930   29.1760   52.5450 N   0  0  0  0  0  0  0  0  0  0  0  0
   53.2120   30.2150   52.4330 C   0  0  0  0  0  0  0  0  0  0  0  0
   53.0680   30.9000   51.2190 C   0  0  0  0  0  0  0  0  0  0  0  0
   53.7293   30.6615   50.3729 H   0  0  0  0  0  0  0  0  0  0  0  0
   52.0860   31.8860   51.0800 C   0  0  0  0  0  0  0  0  0  0  0  0
   51.9922   32.4382   50.1333 H   0  0  0  0  0  0  0  0  0  0  0  0
   51.2230   32.1710   52.1430 C   0  0  0  0  0  0  0  0  0  0  0  0
   50.2500   33.1520   52.0040 O   0  0  0  0  0  0  0  0  0  0  0  0
   51.3360   31.4640   53.3440 C   0  0  0  0  0  0  0  0  0  0  0  0
   50.6504   31.6808   54.1764 H   0  0  0  0  0  0  0  0  0  0  0  0
   52.3210   30.4810   53.4870 C   0  0  0  0  0  0  0  0  0  0  0  0
   52.3984   29.9147   54.4268 H   0  0  0  0  0  0  0  0  0  0  0  0
   56.5010   29.6510   53.1370 C   0  0  0  0  0  0  0  0  0  0  0  0
   56.9540   30.1010   51.8750 C   0  0  0  0  0  0  0  0  0  0  0  0
   56.3099   29.9706   50.9929 H   0  0  0  0  0  0  0  0  0  0  0  0
   58.9740   32.5580   50.2040 C   0  0  0  0  0  0  0  0  0  0  0  0
   58.9211   33.2622   51.0474 H   0  0  0  0  0  0  0  0  0  0  0  0
  1  2  1  0
  2  3  2  0
  3  4  1  0
  4  5  1  0
  5  6  1  0
  6  7  1  0
  6  8  1  0
  6  9  1  0
  9 10  1  0
  9 11  1  0
  9 12  1  0
 12 13  1  0
 13 14  2  0
 13 15  2  0
 13 16  1  0
 16 17  1  0
 16 18  1  0
 16 19  1  0
 12 20  1  0
 20 21  1  0
 20 22  1  0
 20 23  1  0
 23 24  1  0
 23 25  1  0
  4 26  2  0
 26 27  1  0
 26 28  1  0
 28 29  1  0
 29 30  2  0
 30 31  1  0
 30 32  1  0
 32 33  1  0
 32 34  2  0
 34 35  1  0
 35 36  1  0
 36 37  1  0
 36 38  2  0
 38 39  1  0
 39 40  3  0
 38 41  1  0
 41 42  2  0
 42 43  1  0
 43 44  2  0
 44 45  1  0
 44 46  1  0
 46 47  1  0
 46 48  2  0
 48 49  1  0
 48 50  1  0
 50 51  1  0
 50 52  2  0
 52 53  1  0
 41 54  1  0
 54 55  2  0
 55 56  1  0
 28 57  2  0
 57 58  1  0
 57  2  1  0
 23  5  1  0
 55 29  1  0
 54 34  1  0
 52 43  1  0
M  CHG  2  35  -1  49  -1
M  END
>  <UniqueID>  (15) 
13

>  <SMILES>  (15) 
CS(=O)(=O)N1CCN(c2cc(-c3ccc4[n-]cc(C#N)/c(=N/c5ccc([O-])cc5)c4c3)ccn2)CC1

>  <Energy>  (15) 
97.74572929631522

>  <Genealogy>  (15) 
CS(=O)(=O)N1CCN(c2cc(-c3ccc4[n-]cc(C#N)c(=Nc5ccc([O-])cc5)c4c3)ccn2)CC1 (protonated)
CS(=O)(=O)N1CCN(c2cc(-c3ccc4[n-]cc(C#N)/c(=N/c5ccc([O-])cc5)c4c3)ccn2)CC1 (cis-trans isomerization)
CS(=O)(=O)N1CCN(c2cc(-c3ccc4[n-]cc(C#N)/c(=N/c5ccc([O-])cc5)c4c3)ccn2)CC1 (3D coordinates assigned)
CS(=O)(=O)N1CCN(c2cc(-c3ccc4[n-]cc(C#N)/c(=N/c5ccc([O-])cc5)c4c3)ccn2)CC1 (nonaromatic ring conformer: 97.74572929631522 kcal/mol)

>  <smiles>  (15) 
CS(=O)(=O)N1CCN(c2cc(-c3ccc4[nH]cc(C#N)c(=Nc5ccc(O)cc5)c4c3)ccn2)CC1

>  <score_type>  (15) 
oracle

>  <origin>  (15) 
adg

>  <m_score__min__energy>  (15) 
-15.119999999999999

>  <m_primary>  (15) 
energy

$$$$
15:0
     RDKit          3D

 75 79  0  0  0  0  0  0  0  0999 V2000
   66.4630   33.2600   50.5230 C   0  0  0  0  0  0  0  0  0  0  0  0
   65.1790   32.5860   50.1400 C   0  0  0  0  0  0  0  0  0  0  0  0
   64.4490   33.0330   49.0300 C   0  0  0  0  0  0  0  0  0  0  0  0
   63.2320   32.4290   48.6960 C   0  0  0  0  0  0  0  0  0  0  0  0
   62.7090   31.3920   49.4900 C   0  0  0  0  0  0  0  0  0  0  0  0
   61.4720   30.7380   49.1580 N   0  0  0  0  0  0  0  0  0  0  0  0
   61.1770   30.1870   47.8620 C   0  0  0  0  0  0  0  0  0  0  0  0
   61.7760   30.6340   46.8460 O   0  0  0  0  0  0  0  0  0  0  0  0
   60.1470   29.1300   47.6980 C   0  0  0  0  0  0  0  0  0  0  0  0
   58.8940   29.4460   47.1460 C   0  0  0  0  0  0  0  0  0  0  0  0
   57.9250   28.4560   46.9650 C   0  0  0  0  0  0  0  0  0  0  0  0
   58.1870   27.1250   47.3290 C   0  0  0  0  0  0  0  0  0  0  0  0
   57.1560   26.0750   47.1380 C   0  0  0  0  0  0  0  0  0  0  0  0
   57.2850   24.8230   47.7570 C   0  0  0  0  0  0  0  0  0  0  0  0
   56.3270   23.8310   47.5490 C   0  0  0  0  0  0  0  0  0  0  0  0
   55.2250   24.0930   46.7090 C   0  0  0  0  0  0  0  0  0  0  0  0
   54.3260   23.1890   46.4330 N   0  0  0  0  0  0  0  0  0  0  0  0
   54.4630   21.7750   46.6200 C   0  0  0  0  0  0  0  0  0  0  0  0
   53.9270   20.9680   45.8120 O   0  0  0  0  0  0  0  0  0  0  0  0
   55.1980   21.2740   47.7410 N   0  0  0  0  0  0  0  0  0  0  0  0
   54.6380   21.2680   49.0820 C   0  0  0  0  0  0  0  0  0  0  0  0
   55.3290   20.1260   49.8150 C   0  0  0  0  0  0  0  0  0  0  0  0
   56.5580   19.7780   48.9820 C   0  0  0  0  0  0  0  0  0  0  0  0
   56.2530   20.2880   47.5720 C   0  0  2  0  0  0  0  0  0  0  0  0
   57.4850   20.8960   46.8860 C   0  0  0  0  0  0  0  0  0  0  0  0
   57.5340   20.4620   45.4960 N   0  0  0  0  0  0  0  0  0  0  0  0
   56.9170   21.1910   44.4290 C   0  0  0  0  0  0  0  0  0  0  0  0
   56.1170   20.6020   43.6520 O   0  0  0  0  0  0  0  0  0  0  0  0
   57.2340   22.6230   44.2260 C   0  0  0  0  0  0  0  0  0  0  0  0
   58.1960   23.2610   45.0300 C   0  0  0  0  0  0  0  0  0  0  0  0
   58.4690   24.6220   44.8640 C   0  0  0  0  0  0  0  0  0  0  0  0
   57.7980   25.3640   43.8840 C   0  0  0  0  0  0  0  0  0  0  0  0
   58.1180   27.0900   43.7100 S   0  0  0  0  0  0  0  0  0  0  0  0
   59.6640   27.5140   44.4860 C   0  0  0  0  0  0  0  0  0  0  0  0
   58.2030   27.4550   42.2540 O   0  0  0  0  0  0  0  0  0  0  0  0
   56.9990   27.8660   44.3470 O   0  0  0  0  0  0  0  0  0  0  0  0
   56.8460   24.7310   43.0720 C   0  0  0  0  0  0  0  0  0  0  0  0
   56.5660   23.3730   43.2400 C   0  0  0  0  0  0  0  0  0  0  0  0
   55.1230   25.3130   46.1180 N   0  0  0  0  0  0  0  0  0  0  0  0
   56.0390   26.2990   46.3170 C   0  0  0  0  0  0  0  0  0  0  0  0
   59.4400   26.8060   47.8810 C   0  0  0  0  0  0  0  0  0  0  0  0
   60.4110   27.7960   48.0560 C   0  0  0  0  0  0  0  0  0  0  0  0
   63.4410   30.9520   50.6040 C   0  0  0  0  0  0  0  0  0  0  0  0
   64.6620   31.5500   50.9330 C   0  0  0  0  0  0  0  0  0  0  0  0
   66.5424   33.3017   51.6193 H   0  0  0  0  0  0  0  0  0  0  0  0
   67.3116   32.6911   50.1153 H   0  0  0  0  0  0  0  0  0  0  0  0
   66.4767   34.2816   50.1153 H   0  0  0  0  0  0  0  0  0  0  0  0
   64.8347   33.8623   48.4188 H   0  0  0  0  0  0  0  0  0  0  0  0
   62.6803   32.7672   47.8065 H   0  0  0  0  0  0  0  0  0  0  0  0
   60.7050   30.7600   49.8670 H   0  0  0  0  0  0  0  0  0  0  0  0
   58.6739   30.4833   46.8535 H   0  0  0  0  0  0  0  0  0  0  0  0
   56.9485   28.7212   46.5337 H   0  0  0  0  0  0  0  0  0  0  0  0
   58.1469   24.6223   48.4104 H   0  0  0  0  0  0  0  0  0  0  0  0
   56.4303   22.8506   48.0370 H   0  0  0  0  0  0  0  0  0  0  0  0
   54.8403   22.2246   49.5859 H   0  0  0  0  0  0  0  0  0  0  0  0
   53.5461   21.1358   49.0642 H   0  0  0  0  0  0  0  0  0  0  0  0
   55.6285   20.4448   50.8243 H   0  0  0  0  0  0  0  0  0  0  0  0
   54.6620   19.2592   49.9326 H   0  0  0  0  0  0  0  0  0  0  0  0
   57.4508   20.2771   49.3867 H   0  0  0  0  0  0  0  0  0  0  0  0
   56.7641   18.6975   48.9898 H   0  0  0  0  0  0  0  0  0  0  0  0
   55.9454   19.4624   46.9133 H   0  0  0  0  0  0  0  0  0  0  0  0
   57.4214   21.9935   46.9249 H   0  0  0  0  0  0  0  0  0  0  0  0
   58.3950   20.5614   47.4056 H   0  0  0  0  0  0  0  0  0  0  0  0
   58.7373   22.6848   45.7948 H   0  0  0  0  0  0  0  0  0  0  0  0
   59.2149   25.1127   45.5066 H   0  0  0  0  0  0  0  0  0  0  0  0
   59.5465   27.4818   45.5792 H   0  0  0  0  0  0  0  0  0  0  0  0
   60.4377   26.7949   44.1790 H   0  0  0  0  0  0  0  0  0  0  0  0
   59.9626   28.5272   44.1790 H   0  0  0  0  0  0  0  0  0  0  0  0
   56.3169   25.3071   42.2986 H   0  0  0  0  0  0  0  0  0  0  0  0
   55.8180   22.8861   42.5970 H   0  0  0  0  0  0  0  0  0  0  0  0
   55.9039   27.2771   45.8321 H   0  0  0  0  0  0  0  0  0  0  0  0
   59.6579   25.7693   48.1774 H   0  0  0  0  0  0  0  0  0  0  0  0
   61.3912   27.5290   48.4779 H   0  0  0  0  0  0  0  0  0  0  0  0
   63.0514   30.1305   51.2231 H   0  0  0  0  0  0  0  0  0  0  0  0
   65.2193   31.2067   51.8171 H   0  0  0  0  0  0  0  0  0  0  0  0
  1  2  1  0
  2  3  2  0
  3  4  1  0
  4  5  2  0
  5  6  1  0
  6  7  1  0
  7  8  2  0
  7  9  1  0
  9 10  2  0
 10 11  1  0
 11 12  2  0
 12 13  1  0
 13 14  1  0
 14 15  2  0
 15 16  1  0
 16 17  2  3
 17 18  1  0
 18 19  2  0
 18 20  1  0
 20 21  1  0
 21 22  1  0
 22 23  1  0
 23 24  1  0
 24 25  1  0
 25 26  1  0
 26 27  1  0
 27 28  2  0
 27 29  1  0
 29 30  2  0
 30 31  1  0
 31 32  2  0
 32 33  1  0
 33 34  1  0
 33 35  2  0
 33 36  2  0
 32 37  1  0
 37 38  2  0
 16 39  1  0
 39 40  1  0
 12 41  1  0
 41 42  2  0
  5 43  1  0
 43 44  2  0
 44  2  1  0
 42  9  1  0
 40 13  2  0
 24 20  1  0
 38 29  1  0
  1 45  1  0
  1 46  1  0
  1 47  1  0
  3 48  1  0
  4 49  1  0
  6 50  1  0
 10 51  1  0
 11 52  1  0
 14 53  1  0
 15 54  1  0
 21 55  1  0
 21 56  1  0
 22 57  1  0
 22 58  1  0
 23 59  1  0
 23 60  1  0
 24 61  1  6
 25 62  1  0
 25 63  1  0
 30 64  1  0
 31 65  1  0
 34 66  1  0
 34 67  1  0
 34 68  1  0
 37 69  1  0
 38 70  1  0
 40 71  1  0
 41 72  1  0
 42 73  1  0
 43 74  1  0
 44 75  1  0
M  CHG  2  26  -1  39  -1
M  END
>  <UniqueID>  (16) 
14

>  <SMILES>  (16) 
Cc1ccc(NC(=O)c2ccc(-c3ccc(=NC(=O)N4CCC[C@@H]4C[N-]C(=O)c4ccc(S(C)(=O)=O)cc4)[n-]c3)cc2)cc1

>  <Energy>  (16) 
101.11945762306537

>  <Genealogy>  (16) 
Cc1ccc(NC(=O)c2ccc(-c3ccc(=NC(=O)N4CCCC4C[N-]C(=O)c4ccc(S(C)(=O)=O)cc4)[n-]c3)cc2)cc1 (protonated)
Cc1ccc(NC(=O)c2ccc(-c3ccc(=NC(=O)N4CCC[C@@H]4C[N-]C(=O)c4ccc(S(C)(=O)=O)cc4)[n-]c3)cc2)cc1 (chirality)
Cc1ccc(NC(=O)c2ccc(-c3ccc(=NC(=O)N4CCC[C@@H]4C[N-]C(=O)c4ccc(S(C)(=O)=O)cc4)[n-]c3)cc2)cc1 (3D coordinates assigned)
Cc1ccc(NC(=O)c2ccc(-c3ccc(=NC(=O)N4CCC[C@@H]4C[N-]C(=O)c4ccc(S(C)(=O)=O)cc4)[n-]c3)cc2)cc1 (nonaromatic ring conformer: 101.11945762306537 kcal/mol)

>  <smiles>  (16) 
Cc1ccc(NC(=O)c2ccc(-c3ccc(=NC(=O)N4CCCC4CNC(=O)c4ccc(S(C)(=O)=O)cc4)[nH]c3)cc2)cc1

>  <score_type>  (16) 
oracle

>  <origin>  (16) 
adg

>  <m_score__min__energy>  (16) 
-10.949999999999999

>  <m_primary>  (16) 
energy

$$$$
16:0
     RDKit          3D

 66 70  0  0  0  0  0  0  0  0999 V2000
   61.8740   33.5090   48.8970 O   0  0  0  0  0  0  0  0  0  0  0  0
   60.6420   33.7080   48.7280 C   0  0  0  0  0  0  0  0  0  0  0  0
   60.2230   34.4160   47.5490 N   0  0  0  0  0  0  0  0  0  0  0  0
   59.4010   33.9990   46.6280 C   0  0  0  0  0  0  0  0  0  0  0  0
   59.1610   32.6300   46.3870 C   0  0  0  0  0  0  0  0  0  0  0  0
   58.2560   32.2410   45.3830 C   0  0  0  0  0  0  0  0  0  0  0  0
   57.9450   30.8090   45.1500 C   0  0  0  0  0  0  0  0  0  0  0  0
   56.7420   30.4300   45.1160 O   0  0  0  0  0  0  0  0  0  0  0  0
   58.9940   29.8530   44.9360 N   0  0  0  0  0  0  0  0  0  0  0  0
   58.9200   28.4780   45.3530 C   0  0  0  0  0  0  0  0  0  0  0  0
   60.0620   27.8580   45.8810 C   0  0  0  0  0  0  0  0  0  0  0  0
   60.0130   26.5280   46.3020 C   0  0  0  0  0  0  0  0  0  0  0  0
   58.8200   25.8090   46.2240 C   0  0  0  0  0  0  0  0  0  0  0  0
   57.6540   26.4210   45.7340 C   0  0  0  0  0  0  0  0  0  0  0  0
   56.3880   25.6560   45.6560 C   0  0  0  0  0  0  0  0  0  0  0  0
   55.3360   26.1530   46.1420 O   0  0  0  0  0  0  0  0  0  0  0  0
   56.3280   24.3520   45.0470 N   0  0  0  0  0  0  0  0  0  0  0  0
   55.8240   23.2190   45.8260 C   0  0  0  0  0  0  0  0  0  0  0  0
   55.1660   22.1990   44.8920 C   0  0  0  0  0  0  0  0  0  0  0  0
   56.0330   21.8600   43.8290 O   0  0  0  0  0  0  0  0  0  0  0  0
   56.2460   22.9920   43.0070 C   0  0  0  0  0  0  0  0  0  0  0  0
   56.9940   24.0920   43.7670 C   0  0  0  0  0  0  0  0  0  0  0  0
   57.7140   27.7540   45.2900 C   0  0  0  0  0  0  0  0  0  0  0  0
   57.6220   33.2370   44.6240 C   0  0  0  0  0  0  0  0  0  0  0  0
   57.9030   34.5800   44.8730 C   0  0  0  0  0  0  0  0  0  0  0  0
   58.7730   34.9250   45.8560 N   0  0  0  0  0  0  0  0  0  0  0  0
   59.6770   33.2660   49.7690 C   0  0  0  0  0  0  0  0  0  0  0  0
   59.7020   33.8530   51.0460 C   0  0  0  0  0  0  0  0  0  0  0  0
   58.7980   33.4500   52.0330 C   0  0  0  0  0  0  0  0  0  0  0  0
   57.8530   32.4550   51.7690 C   0  0  0  0  0  0  0  0  0  0  0  0
   56.9640   32.0980   52.7950 O   0  0  0  0  0  0  0  0  0  0  0  0
   56.6590   30.7620   53.1960 C   0  0  0  0  0  0  0  0  0  0  0  0
   55.2980   30.3550   52.7190 C   0  0  0  0  0  0  0  0  0  0  0  0
   54.7210   29.2680   53.0970 N   0  0  0  0  0  0  0  0  0  0  0  0
   53.4290   29.1420   52.4290 C   0  0  0  0  0  0  0  0  0  0  0  0
   53.3530   30.3450   51.4740 C   0  0  0  0  0  0  0  0  0  0  0  0
   54.5620   31.0900   51.7610 N   0  0  0  0  0  0  0  0  0  0  0  0
   57.8250   31.8570   50.4940 C   0  0  0  0  0  0  0  0  0  0  0  0
   58.7200   32.2690   49.5020 C   0  0  0  0  0  0  0  0  0  0  0  0
   59.6815   31.8668   46.9842 H   0  0  0  0  0  0  0  0  0  0  0  0
   59.8360   30.1620   44.3980 H   0  0  0  0  0  0  0  0  0  0  0  0
   61.0020   28.4233   45.9638 H   0  0  0  0  0  0  0  0  0  0  0  0
   60.9189   26.0448   46.6969 H   0  0  0  0  0  0  0  0  0  0  0  0
   58.7921   24.7581   46.5476 H   0  0  0  0  0  0  0  0  0  0  0  0
   56.6598   22.7410   46.3580 H   0  0  0  0  0  0  0  0  0  0  0  0
   55.0803   23.5795   46.5519 H   0  0  0  0  0  0  0  0  0  0  0  0
   54.9235   21.2908   45.4633 H   0  0  0  0  0  0  0  0  0  0  0  0
   54.2511   22.6433   44.4729 H   0  0  0  0  0  0  0  0  0  0  0  0
   56.8399   22.6931   42.1307 H   0  0  0  0  0  0  0  0  0  0  0  0
   55.2677   23.3862   42.6946 H   0  0  0  0  0  0  0  0  0  0  0  0
   58.0288   23.7686   43.9528 H   0  0  0  0  0  0  0  0  0  0  0  0
   56.9959   25.0126   43.1649 H   0  0  0  0  0  0  0  0  0  0  0  0
   56.8099   28.2358   44.8895 H   0  0  0  0  0  0  0  0  0  0  0  0
   56.9065   32.9593   43.8360 H   0  0  0  0  0  0  0  0  0  0  0  0
   57.4180   35.3624   44.2708 H   0  0  0  0  0  0  0  0  0  0  0  0
   60.4401   34.6370   51.2707 H   0  0  0  0  0  0  0  0  0  0  0  0
   58.8308   33.9205   53.0268 H   0  0  0  0  0  0  0  0  0  0  0  0
   57.4085   30.0787   52.7701 H   0  0  0  0  0  0  0  0  0  0  0  0
   56.6738   30.7142   54.2949 H   0  0  0  0  0  0  0  0  0  0  0  0
   53.3755   28.1983   51.8664 H   0  0  0  0  0  0  0  0  0  0  0  0
   52.5941   29.1307   53.1451 H   0  0  0  0  0  0  0  0  0  0  0  0
   53.3369   30.0128   50.4255 H   0  0  0  0  0  0  0  0  0  0  0  0
   52.4407   30.9433   51.6147 H   0  0  0  0  0  0  0  0  0  0  0  0
   54.8900   31.9410   51.2520 H   0  0  0  0  0  0  0  0  0  0  0  0
   57.0958   31.0623   50.2778 H   0  0  0  0  0  0  0  0  0  0  0  0
   58.6758   31.8097   48.5035 H   0  0  0  0  0  0  0  0  0  0  0  0
  1  2  2  0
  2  3  1  0
  3  4  2  3
  4  5  1  0
  5  6  2  0
  6  7  1  0
  7  8  2  0
  7  9  1  0
  9 10  1  0
 10 11  2  0
 11 12  1  0
 12 13  2  0
 13 14  1  0
 14 15  1  0
 15 16  2  0
 15 17  1  0
 17 18  1  0
 18 19  1  0
 19 20  1  0
 20 21  1  0
 21 22  1  0
 14 23  2  0
  6 24  1  0
 24 25  2  0
 25 26  1  0
  2 27  1  0
 27 28  2  0
 28 29  1  0
 29 30  2  0
 30 31  1  0
 31 32  1  0
 32 33  1  0
 33 34  2  0
 34 35  1  0
 35 36  1  0
 36 37  1  0
 30 38  1  0
 38 39  2  0
 26  4  1  0
 39 27  1  0
 23 10  1  0
 37 33  1  0
 22 17  1  0
  5 40  1  0
  9 41  1  0
 11 42  1  0
 12 43  1  0
 13 44  1  0
 18 45  1  0
 18 46  1  0
 19 47  1  0
 19 48  1  0
 21 49  1  0
 21 50  1  0
 22 51  1  0
 22 52  1  0
 23 53  1  0
 24 54  1  0
 25 55  1  0
 28 56  1  0
 29 57  1  0
 32 58  1  0
 32 59  1  0
 35 60  1  0
 35 61  1  0
 36 62  1  0
 36 63  1  0
 37 64  1  0
 38 65  1  0
 39 66  1  0
M  CHG  1  26  -1
M  END
>  <UniqueID>  (17) 
15

>  <SMILES>  (17) 
O=C(N=c1cc(C(=O)Nc2cccc(C(=O)N3CCOCC3)c2)cc[n-]1)c1ccc(OCC2=NCCN2)cc1

>  <Energy>  (17) 
102.72285098172144

>  <Genealogy>  (17) 
O=C(N=c1cc(C(=O)Nc2cccc(C(=O)N3CCOCC3)c2)cc[n-]1)c1ccc(OCC2=NCCN2)cc1 (protonated)
O=C(N=c1cc(C(=O)Nc2cccc(C(=O)N3CCOCC3)c2)cc[n-]1)c1ccc(OCC2=NCCN2)cc1 (3D coordinates assigned)
O=C(N=c1cc(C(=O)Nc2cccc(C(=O)N3CCOCC3)c2)cc[n-]1)c1ccc(OCC2=NCCN2)cc1 (nonaromatic ring conformer: 102.72285098172144 kcal/mol)

>  <smiles>  (17) 
O=C(N=c1cc(C(=O)Nc2cccc(C(=O)N3CCOCC3)c2)cc[nH]1)c1ccc(OCC2=NCCN2)cc1

>  <score_type>  (17) 
oracle

>  <origin>  (17) 
adg

>  <m_score__min__energy>  (17) 
-12

>  <m_primary>  (17) 
energy

$$$$
17:0
     RDKit          3D

 53 56  0  0  0  0  0  0  0  0999 V2000
   57.2910   31.7970   51.4440 N   0  0  0  0  0  0  0  0  0  0  0  0
   57.7390   30.4630   51.2020 C   0  0  0  0  0  0  0  0  0  0  0  0
   57.3660   29.5340   51.9670 O   0  0  0  0  0  0  0  0  0  0  0  0
   58.5990   30.1540   50.0080 C   0  0  0  0  0  0  0  0  0  0  0  0
   60.0090   30.6680   50.1960 C   0  0  0  0  0  0  0  0  0  0  0  0
   61.0300   29.7250   50.4180 C   0  0  0  0  0  0  0  0  0  0  0  0
   62.3580   30.1270   50.5600 C   0  0  0  0  0  0  0  0  0  0  0  0
   62.6890   31.4780   50.4830 C   0  0  0  0  0  0  0  0  0  0  0  0
   61.6940   32.4320   50.2770 C   0  0  0  0  0  0  0  0  0  0  0  0
   60.3440   32.0520   50.1460 C   0  0  0  0  0  0  0  0  0  0  0  0
   59.3350   33.1240   49.9600 C   0  0  0  0  0  0  0  0  0  0  0  0
   59.2760   34.0910   50.7640 O   0  0  0  0  0  0  0  0  0  0  0  0
   58.4160   33.0440   48.8610 N   0  0  0  0  0  0  0  0  0  0  0  0
   58.6970   33.3420   47.4870 C   0  0  0  0  0  0  0  0  0  0  0  0
   59.6700   34.2860   47.1120 C   0  0  0  0  0  0  0  0  0  0  0  0
   59.9230   34.5330   45.7610 C   0  0  0  0  0  0  0  0  0  0  0  0
   59.2270   33.8330   44.7740 C   0  0  0  0  0  0  0  0  0  0  0  0
   58.2840   32.8550   45.1320 C   0  0  0  0  0  0  0  0  0  0  0  0
   57.5290   32.0950   44.0680 C   0  0  0  0  0  0  0  0  0  0  0  0
   57.1740   30.7040   44.5320 C   0  0  0  0  0  0  0  0  0  0  0  0
   55.8670   30.3290   44.4810 N   0  0  0  0  0  0  0  0  0  0  0  0
   55.4600   29.1250   44.8790 N   0  0  0  0  0  0  0  0  0  0  0  0
   56.3290   28.2040   45.3650 C   0  0  0  0  0  0  0  0  0  0  0  0
   55.9010   27.0730   45.7180 O   0  0  0  0  0  0  0  0  0  0  0  0
   57.6890   28.5270   45.4680 C   0  0  0  0  0  0  0  0  0  0  0  0
   58.1250   29.7940   45.0450 C   0  0  0  0  0  0  0  0  0  0  0  0
   59.6100   30.0760   45.1110 C   0  0  0  0  0  0  0  0  0  0  0  0
   60.1950   29.6150   46.4550 C   0  0  0  0  0  0  0  0  0  0  0  0
   59.7080   28.2180   46.9220 C   0  0  0  0  0  0  0  0  0  0  0  0
   58.7170   27.5390   45.9640 C   0  0  0  0  0  0  0  0  0  0  0  0
   58.0190   32.6250   46.4930 C   0  0  0  0  0  0  0  0  0  0  0  0
   56.6860   32.0060   52.2680 H   0  0  0  0  0  0  0  0  0  0  0  0
   57.5600   32.5780   50.8050 H   0  0  0  0  0  0  0  0  0  0  0  0
   58.6317   29.0641   49.8629 H   0  0  0  0  0  0  0  0  0  0  0  0
   58.1632   30.6518   49.1292 H   0  0  0  0  0  0  0  0  0  0  0  0
   60.7771   28.6563   50.4804 H   0  0  0  0  0  0  0  0  0  0  0  0
   63.1441   29.3772   50.7328 H   0  0  0  0  0  0  0  0  0  0  0  0
   63.7381   31.7926   50.5850 H   0  0  0  0  0  0  0  0  0  0  0  0
   61.9666   33.4959   50.2159 H   0  0  0  0  0  0  0  0  0  0  0  0
   60.2327   34.8307   47.8844 H   0  0  0  0  0  0  0  0  0  0  0  0
   60.6745   35.2829   45.4732 H   0  0  0  0  0  0  0  0  0  0  0  0
   59.4175   34.0479   43.7121 H   0  0  0  0  0  0  0  0  0  0  0  0
   56.6037   32.6392   43.8280 H   0  0  0  0  0  0  0  0  0  0  0  0
   58.1733   32.0099   43.1805 H   0  0  0  0  0  0  0  0  0  0  0  0
   60.1154   29.5391   44.2948 H   0  0  0  0  0  0  0  0  0  0  0  0
   59.7672   31.1602   45.0120 H   0  0  0  0  0  0  0  0  0  0  0  0
   61.2905   29.5833   46.3603 H   0  0  0  0  0  0  0  0  0  0  0  0
   59.8499   30.3359   47.2108 H   0  0  0  0  0  0  0  0  0  0  0  0
   60.5868   27.5649   47.0279 H   0  0  0  0  0  0  0  0  0  0  0  0
   59.1724   28.3728   47.8703 H   0  0  0  0  0  0  0  0  0  0  0  0
   59.2686   27.1303   45.1045 H   0  0  0  0  0  0  0  0  0  0  0  0
   58.1994   26.7330   46.5049 H   0  0  0  0  0  0  0  0  0  0  0  0
   57.2700   31.8727   46.7811 H   0  0  0  0  0  0  0  0  0  0  0  0
  1  2  1  0
  2  3  2  0
  2  4  1  0
  4  5  1  0
  5  6  2  0
  6  7  1  0
  7  8  2  0
  8  9  1  0
  9 10  2  0
 10 11  1  0
 11 12  2  0
 11 13  1  0
 13 14  1  0
 14 15  2  0
 15 16  1  0
 16 17  2  0
 17 18  1  0
 18 19  1  0
 19 20  1  0
 20 21  2  0
 21 22  1  0
 22 23  1  0
 23 24  2  0
 23 25  1  0
 25 26  2  0
 26 27  1  0
 27 28  1  0
 28 29  1  0
 29 30  1  0
 18 31  2  0
 10  5  1  0
 31 14  1  0
 26 20  1  0
 30 25  1  0
  1 32  1  0
  1 33  1  0
  4 34  1  0
  4 35  1  0
  6 36  1  0
  7 37  1  0
  8 38  1  0
  9 39  1  0
 15 40  1  0
 16 41  1  0
 17 42  1  0
 19 43  1  0
 19 44  1  0
 27 45  1  0
 27 46  1  0
 28 47  1  0
 28 48  1  0
 29 49  1  0
 29 50  1  0
 30 51  1  0
 30 52  1  0
 31 53  1  0
M  CHG  2  13  -1  22  -1
M  END
>  <UniqueID>  (18) 
16

>  <SMILES>  (18) 
NC(=O)Cc1ccccc1C(=O)[N-]c1cccc(Cc2n[n-]c(=O)c3c2CCCC3)c1

>  <Energy>  (18) 
70.87221346692888

>  <Genealogy>  (18) 
NC(=O)Cc1ccccc1C(=O)[N-]c1cccc(Cc2n[n-]c(=O)c3c2CCCC3)c1 (protonated)
NC(=O)Cc1ccccc1C(=O)[N-]c1cccc(Cc2n[n-]c(=O)c3c2CCCC3)c1 (3D coordinates assigned)
NC(=O)Cc1ccccc1C(=O)[N-]c1cccc(Cc2n[n-]c(=O)c3c2CCCC3)c1 (nonaromatic ring conformer: 70.87221346692888 kcal/mol)

>  <smiles>  (18) 
NC(=O)Cc1ccccc1C(=O)Nc1cccc(Cc2n[nH]c(=O)c3c2CCCC3)c1

>  <score_type>  (18) 
oracle

>  <origin>  (18) 
adg

>  <m_score__min__energy>  (18) 
-12.880000000000001

>  <m_primary>  (18) 
energy

$$$$
18:0
     RDKit          3D

 37 39  0  0  0  0  0  0  0  0999 V2000
   57.7110   32.3580   41.2340 C   0  0  0  0  0  0  0  0  0  0  0  0
   57.0210   31.5300   42.1650 O   0  0  0  0  0  0  0  0  0  0  0  0
   57.4060   31.3500   43.5020 C   0  0  0  0  0  0  0  0  0  0  0  0
   57.5210   30.0760   44.0870 C   0  0  0  0  0  0  0  0  0  0  0  0
   57.9120   29.9490   45.4190 C   0  0  0  0  0  0  0  0  0  0  0  0
   58.2250   31.0840   46.1830 C   0  0  0  0  0  0  0  0  0  0  0  0
   58.6310   30.9650   47.5540 N   0  0  0  0  0  0  0  0  0  0  0  0
   59.6220   30.0650   48.0710 C   0  0  0  0  0  0  0  0  0  0  0  0
   60.8000   30.4820   48.2270 O   0  0  0  0  0  0  0  0  0  0  0  0
   59.3190   28.6230   48.3570 C   0  0  0  0  0  0  0  0  0  0  0  0
   60.1080   27.5620   47.0980 S   0  0  0  0  0  0  0  0  0  0  0  0
   58.6580   26.5420   46.8620 C   0  0  0  0  0  0  0  0  0  0  0  0
   58.7440   25.1860   47.0590 N   0  0  0  0  0  0  0  0  0  0  0  0
   57.6560   24.3770   46.9010 C   0  0  0  0  0  0  0  0  0  0  0  0
   57.7460   23.1350   47.0890 O   0  0  0  0  0  0  0  0  0  0  0  0
   56.4590   24.9710   46.5310 C   0  0  0  0  0  0  0  0  0  0  0  0
   55.1900   24.5090   46.2820 C   0  0  0  0  0  0  0  0  0  0  0  0
   54.4180   25.5750   45.9550 N   0  0  0  0  0  0  0  0  0  0  0  0
   55.1540   26.6840   45.9900 N   0  0  0  0  0  0  0  0  0  0  0  0
   56.3950   26.3110   46.3400 C   0  0  0  0  0  0  0  0  0  0  0  0
   57.4720   27.1170   46.4980 N   0  0  0  0  0  0  0  0  0  0  0  0
   58.0810   32.3620   45.6200 C   0  0  0  0  0  0  0  0  0  0  0  0
   58.3570   33.4820   46.4200 O   0  0  0  0  0  0  0  0  0  0  0  0
   59.6670   33.9430   46.7370 C   0  0  0  0  0  0  0  0  0  0  0  0
   57.6780   32.4840   44.2750 C   0  0  0  0  0  0  0  0  0  0  0  0
   58.3226   33.0920   41.7792 H   0  0  0  0  0  0  0  0  0  0  0  0
   58.3616   31.7358   40.6019 H   0  0  0  0  0  0  0  0  0  0  0  0
   56.9817   32.8857   40.6019 H   0  0  0  0  0  0  0  0  0  0  0  0
   57.3018   29.1774   43.4917 H   0  0  0  0  0  0  0  0  0  0  0  0
   57.9758   28.9502   45.8754 H   0  0  0  0  0  0  0  0  0  0  0  0
   59.7070   28.3589   49.3519 H   0  0  0  0  0  0  0  0  0  0  0  0
   58.2302   28.4690   48.3302 H   0  0  0  0  0  0  0  0  0  0  0  0
   54.8588   23.4615   46.3378 H   0  0  0  0  0  0  0  0  0  0  0  0
   59.7865   33.9851   47.8297 H   0  0  0  0  0  0  0  0  0  0  0  0
   60.4112   33.2528   46.3131 H   0  0  0  0  0  0  0  0  0  0  0  0
   59.8149   34.9472   46.3131 H   0  0  0  0  0  0  0  0  0  0  0  0
   57.5760   33.4836   43.8273 H   0  0  0  0  0  0  0  0  0  0  0  0
  1  2  1  0
  2  3  1  0
  3  4  2  0
  4  5  1  0
  5  6  2  0
  6  7  1  0
  7  8  1  0
  8  9  2  0
  8 10  1  0
 10 11  1  0
 11 12  1  0
 12 13  2  0
 13 14  1  0
 14 15  2  0
 14 16  1  0
 16 17  2  0
 17 18  1  0
 18 19  1  0
 19 20  2  0
 20 21  1  0
  6 22  1  0
 22 23  1  0
 23 24  1  0
 22 25  2  0
 25  3  1  0
 21 12  1  0
 20 16  1  0
  1 26  1  0
  1 27  1  0
  1 28  1  0
  4 29  1  0
  5 30  1  0
 10 31  1  0
 10 32  1  0
 17 33  1  0
 24 34  1  0
 24 35  1  0
 24 36  1  0
 25 37  1  0
M  CHG  3   7  -1  18  -1  21  -1
M  END
>  <UniqueID>  (19) 
17

>  <SMILES>  (19) 
COc1ccc([N-]C(=O)CSc2nc(=O)c3c[n-]nc3[n-]2)c(OC)c1

>  <Energy>  (19) 
80.08132289572487

>  <Genealogy>  (19) 
COc1ccc([N-]C(=O)CSc2nc(=O)c3c[n-]nc3[n-]2)c(OC)c1 (protonated)
COc1ccc([N-]C(=O)CSc2nc(=O)c3c[n-]nc3[n-]2)c(OC)c1 (3D coordinates assigned)
COc1ccc([N-]C(=O)CSc2nc(=O)c3c[n-]nc3[n-]2)c(OC)c1 (optimized conformer: 80.08132289572487 kcal/mol)

>  <smiles>  (19) 
COc1ccc(NC(=O)CSc2nc(=O)c3c[nH]nc3[nH]2)c(OC)c1

>  <score_type>  (19) 
oracle

>  <origin>  (19) 
adg

>  <m_score__min__energy>  (19) 
-12.18

>  <m_primary>  (19) 
energy

$$$$
19:0
     RDKit          3D

 54 56  0  0  0  0  0  0  0  0999 V2000
   57.5770   26.2340   46.5150 C   0  0  0  0  0  0  0  0  0  0  0  0
   57.8130   26.9760   45.2020 C   0  0  0  0  0  0  0  0  0  0  0  0
   56.9780   28.2630   45.0910 C   0  0  0  0  0  0  0  0  0  0  0  0
   57.8230   29.4680   45.0060 N   0  0  0  0  0  0  0  0  0  0  0  0
   59.2820   29.3050   44.9050 C   0  0  0  0  0  0  0  0  0  0  0  0
   59.9380   29.5970   46.2180 C   0  0  0  0  0  0  0  0  0  0  0  0
   59.5000   29.1830   47.4550 C   0  0  0  0  0  0  0  0  0  0  0  0
   60.3040   29.7020   48.3480 O   0  0  0  0  0  0  0  0  0  0  0  0
   61.2030   30.4130   47.7000 C   0  0  0  0  0  0  0  0  0  0  0  0
   62.2840   31.1690   48.3630 C   0  0  0  0  0  0  0  0  0  0  0  0
   63.0080   32.1370   47.6500 C   0  0  0  0  0  0  0  0  0  0  0  0
   64.0360   32.8500   48.2720 C   0  0  0  0  0  0  0  0  0  0  0  0
   64.3680   32.6060   49.6170 C   0  0  0  0  0  0  0  0  0  0  0  0
   65.4610   33.3740   50.2620 C   0  0  0  0  0  0  0  0  0  0  0  0
   66.8240   33.2170   49.8580 N   0  0  0  0  0  0  0  0  0  0  0  0
   65.1890   34.1960   51.1770 O   0  0  0  0  0  0  0  0  0  0  0  0
   63.6310   31.6440   50.3300 C   0  0  0  0  0  0  0  0  0  0  0  0
   62.6010   30.9320   49.7090 C   0  0  0  0  0  0  0  0  0  0  0  0
   61.0190   30.3860   46.3620 N   0  0  0  0  0  0  0  0  0  0  0  0
   57.2030   30.7600   44.8090 C   0  0  0  0  0  0  0  0  0  0  0  0
   55.9440   30.8530   44.8120 O   0  0  0  0  0  0  0  0  0  0  0  0
   58.0220   31.9980   44.5360 C   0  0  0  0  0  0  0  0  0  0  0  0
   58.4500   32.6810   45.8170 C   0  0  0  0  0  0  0  0  0  0  0  0
   58.1530   32.0640   47.0450 C   0  0  0  0  0  0  0  0  0  0  0  0
   58.5440   32.6530   48.2490 C   0  0  0  0  0  0  0  0  0  0  0  0
   59.2410   33.8600   48.2440 C   0  0  0  0  0  0  0  0  0  0  0  0
   59.5560   34.4800   47.0350 C   0  0  0  0  0  0  0  0  0  0  0  0
   59.1780   33.8990   45.8120 C   0  0  0  0  0  0  0  0  0  0  0  0
   59.5380   34.5970   44.5270 C   0  0  0  0  0  0  0  0  0  0  0  0
   57.7907   26.9058   47.3594 H   0  0  0  0  0  0  0  0  0  0  0  0
   56.5292   25.9030   46.5659 H   0  0  0  0  0  0  0  0  0  0  0  0
   58.2410   25.3585   46.5659 H   0  0  0  0  0  0  0  0  0  0  0  0
   58.8785   27.2405   45.1335 H   0  0  0  0  0  0  0  0  0  0  0  0
   57.5068   26.3088   44.3828 H   0  0  0  0  0  0  0  0  0  0  0  0
   56.3535   28.2035   44.1874 H   0  0  0  0  0  0  0  0  0  0  0  0
   56.3615   28.3455   45.9983 H   0  0  0  0  0  0  0  0  0  0  0  0
   59.5103   28.2704   44.6092 H   0  0  0  0  0  0  0  0  0  0  0  0
   59.6658   30.0100   44.1529 H   0  0  0  0  0  0  0  0  0  0  0  0
   58.6339   28.5354   47.6563 H   0  0  0  0  0  0  0  0  0  0  0  0
   62.7648   32.3354   46.5957 H   0  0  0  0  0  0  0  0  0  0  0  0
   64.5918   33.6104   47.7038 H   0  0  0  0  0  0  0  0  0  0  0  0
   67.0870   32.6750   49.0070 H   0  0  0  0  0  0  0  0  0  0  0  0
   67.5790   33.7260   50.3690 H   0  0  0  0  0  0  0  0  0  0  0  0
   63.8673   31.4499   51.3866 H   0  0  0  0  0  0  0  0  0  0  0  0
   62.0351   30.1808   50.2794 H   0  0  0  0  0  0  0  0  0  0  0  0
   58.9193   31.7133   43.9670 H   0  0  0  0  0  0  0  0  0  0  0  0
   57.3990   32.7016   43.9644 H   0  0  0  0  0  0  0  0  0  0  0  0
   57.6077   31.1087   47.0573 H   0  0  0  0  0  0  0  0  0  0  0  0
   58.3014   32.1634   49.2037 H   0  0  0  0  0  0  0  0  0  0  0  0
   59.5430   34.3241   49.1945 H   0  0  0  0  0  0  0  0  0  0  0  0
   60.1056   35.4329   47.0385 H   0  0  0  0  0  0  0  0  0  0  0  0
   60.0313   35.5534   44.7550 H   0  0  0  0  0  0  0  0  0  0  0  0
   60.2211   33.9620   43.9437 H   0  0  0  0  0  0  0  0  0  0  0  0
   58.6246   34.7854   43.9437 H   0  0  0  0  0  0  0  0  0  0  0  0
  1  2  1  0
  2  3  1  0
  3  4  1  0
  4  5  1  0
  5  6  1  0
  6  7  2  0
  7  8  1  0
  8  9  1  0
  9 10  1  0
 10 11  2  0
 11 12  1  0
 12 13  2  0
 13 14  1  0
 14 15  1  0
 14 16  2  0
 13 17  1  0
 17 18  2  0
  9 19  2  0
  4 20  1  0
 20 21  2  0
 20 22  1  0
 22 23  1  0
 23 24  2  0
 24 25  1  0
 25 26  2  0
 26 27  1  0
 27 28  2  0
 28 29  1  0
 19  6  1  0
 28 23  1  0
 18 10  1  0
  1 30  1  0
  1 31  1  0
  1 32  1  0
  2 33  1  0
  2 34  1  0
  3 35  1  0
  3 36  1  0
  5 37  1  0
  5 38  1  0
  7 39  1  0
 11 40  1  0
 12 41  1  0
 15 42  1  0
 15 43  1  0
 17 44  1  0
 18 45  1  0
 22 46  1  0
 22 47  1  0
 24 48  1  0
 25 49  1  0
 26 50  1  0
 27 51  1  0
 29 52  1  0
 29 53  1  0
 29 54  1  0
M  END
>  <UniqueID>  (20) 
18

>  <SMILES>  (20) 
CCCN(Cc1coc(-c2ccc(C(N)=O)cc2)n1)C(=O)Cc1ccccc1C

>  <Energy>  (20) 
78.62297356377097

>  <Genealogy>  (20) 
CCCN(Cc1coc(-c2ccc(C(N)=O)cc2)n1)C(=O)Cc1ccccc1C (3D coordinates assigned)
CCCN(Cc1coc(-c2ccc(C(N)=O)cc2)n1)C(=O)Cc1ccccc1C (optimized conformer: 78.62297356377097 kcal/mol)

>  <smiles>  (20) 
CCCN(Cc1coc(-c2ccc(C(N)=O)cc2)n1)C(=O)Cc1ccccc1C

>  <score_type>  (20) 
oracle

>  <origin>  (20) 
adg

>  <m_score__min__energy>  (20) 
-8.9900000000000002

>  <m_primary>  (20) 
energy

$$$$
20:0
     RDKit          3D

 42 44  0  0  0  0  0  0  0  0999 V2000
   56.6760   24.9750   46.3360 C   0  0  0  0  0  0  0  0  0  0  0  0
   56.6770   26.3920   45.8710 C   0  0  0  0  0  0  0  0  0  0  0  0
   57.7900   27.1770   45.6600 C   0  0  0  0  0  0  0  0  0  0  0  0
   57.2410   28.3840   45.2660 C   0  0  0  0  0  0  0  0  0  0  0  0
   57.8860   29.4640   44.9460 N   0  0  0  0  0  0  0  0  0  0  0  0
   57.1440   30.8860   44.2850 S   0  0  0  0  0  0  0  0  0  0  0  0
   57.4490   30.9870   42.8160 O   0  0  0  0  0  0  0  0  0  0  0  0
   55.6550   30.8230   44.4790 O   0  0  0  0  0  0  0  0  0  0  0  0
   57.7870   32.3000   45.1140 C   0  0  0  0  0  0  0  0  0  0  0  0
   58.0140   33.4890   44.4100 C   0  0  0  0  0  0  0  0  0  0  0  0
   58.5160   34.6110   45.0740 C   0  0  0  0  0  0  0  0  0  0  0  0
   58.7900   34.5540   46.4420 C   0  0  0  0  0  0  0  0  0  0  0  0
   58.5640   33.3650   47.1600 C   0  0  0  0  0  0  0  0  0  0  0  0
   58.8450   33.2530   48.5610 N   0  0  0  0  0  0  0  0  0  0  0  0
   59.5130   31.8610   49.3500 S   0  0  0  0  0  0  0  0  0  0  0  0
   58.3980   30.8990   49.6500 O   0  0  0  0  0  0  0  0  0  0  0  0
   60.1620   32.2660   50.6420 O   0  0  0  0  0  0  0  0  0  0  0  0
   60.7010   31.0490   48.2890 C   0  0  0  0  0  0  0  0  0  0  0  0
   61.7820   32.0100   47.8800 C   0  0  0  0  0  0  0  0  0  0  0  0
   61.6030   32.8400   46.7620 C   0  0  0  0  0  0  0  0  0  0  0  0
   62.5920   33.7650   46.4050 C   0  0  0  0  0  0  0  0  0  0  0  0
   63.7600   33.8690   47.1650 C   0  0  0  0  0  0  0  0  0  0  0  0
   63.9420   33.0510   48.2840 C   0  0  0  0  0  0  0  0  0  0  0  0
   62.9580   32.1240   48.6420 C   0  0  0  0  0  0  0  0  0  0  0  0
   58.0540   32.2470   46.4890 C   0  0  0  0  0  0  0  0  0  0  0  0
   55.8980   28.3060   45.2520 N   0  0  0  0  0  0  0  0  0  0  0  0
   55.5950   27.0950   45.6230 O   0  0  0  0  0  0  0  0  0  0  0  0
   56.6760   24.9500   47.4357 H   0  0  0  0  0  0  0  0  0  0  0  0
   55.7775   24.4656   45.9576 H   0  0  0  0  0  0  0  0  0  0  0  0
   57.5738   24.4643   45.9576 H   0  0  0  0  0  0  0  0  0  0  0  0
   58.8508   26.9101   45.7760 H   0  0  0  0  0  0  0  0  0  0  0  0
   57.7968   33.5396   43.3328 H   0  0  0  0  0  0  0  0  0  0  0  0
   58.6960   35.5425   44.5173 H   0  0  0  0  0  0  0  0  0  0  0  0
   59.1836   35.4410   46.9599 H   0  0  0  0  0  0  0  0  0  0  0  0
   61.1526   30.2046   48.8304 H   0  0  0  0  0  0  0  0  0  0  0  0
   60.1852   30.6877   47.3871 H   0  0  0  0  0  0  0  0  0  0  0  0
   60.6827   32.7635   46.1643 H   0  0  0  0  0  0  0  0  0  0  0  0
   62.4493   34.4102   45.5256 H   0  0  0  0  0  0  0  0  0  0  0  0
   64.5367   34.5949   46.8826 H   0  0  0  0  0  0  0  0  0  0  0  0
   64.8603   33.1366   48.8836 H   0  0  0  0  0  0  0  0  0  0  0  0
   63.1046   31.4818   49.5229 H   0  0  0  0  0  0  0  0  0  0  0  0
   57.8610   31.3183   47.0461 H   0  0  0  0  0  0  0  0  0  0  0  0
  1  2  1  0
  2  3  2  0
  3  4  1  0
  4  5  2  3
  5  6  1  0
  6  7  2  0
  6  8  2  0
  6  9  1  0
  9 10  2  0
 10 11  1  0
 11 12  2  0
 12 13  1  0
 13 14  1  0
 14 15  1  0
 15 16  2  0
 15 17  2  0
 15 18  1  0
 18 19  1  0
 19 20  2  0
 20 21  1  0
 21 22  2  0
 22 23  1  0
 23 24  2  0
 13 25  2  0
  4 26  1  0
 26 27  1  0
 27  2  1  0
 25  9  1  0
 24 19  1  0
  1 28  1  0
  1 29  1  0
  1 30  1  0
  3 31  1  0
 10 32  1  0
 11 33  1  0
 12 34  1  0
 18 35  1  0
 18 36  1  0
 20 37  1  0
 21 38  1  0
 22 39  1  0
 23 40  1  0
 24 41  1  0
 25 42  1  0
M  CHG  2  14  -1  26  -1
M  END
>  <UniqueID>  (21) 
19

>  <SMILES>  (21) 
Cc1cc(=NS(=O)(=O)c2cccc([N-]S(=O)(=O)Cc3ccccc3)c2)[n-]o1

>  <Energy>  (21) 
75.52407643390681

>  <Genealogy>  (21) 
Cc1cc(=NS(=O)(=O)c2cccc([N-]S(=O)(=O)Cc3ccccc3)c2)[n-]o1 (protonated)
Cc1cc(=NS(=O)(=O)c2cccc([N-]S(=O)(=O)Cc3ccccc3)c2)[n-]o1 (3D coordinates assigned)
Cc1cc(=NS(=O)(=O)c2cccc([N-]S(=O)(=O)Cc3ccccc3)c2)[n-]o1 (optimized conformer: 75.52407643390681 kcal/mol)

>  <smiles>  (21) 
Cc1cc(=NS(=O)(=O)c2cccc(NS(=O)(=O)Cc3ccccc3)c2)[nH]o1

>  <score_type>  (21) 
oracle

>  <origin>  (21) 
adg

>  <m_score__min__energy>  (21) 
-13.06

>  <m_primary>  (21) 
energy

$$$$
21:0
     RDKit          3D

 40 42  0  0  0  0  0  0  0  0999 V2000
   52.7540   29.4490   55.6700 C   0  0  0  0  0  0  0  0  0  0  0  0
   53.6530   29.5590   54.6760 C   0  0  0  0  0  0  0  0  0  0  0  0
   54.8490   28.9090   54.8270 N   0  0  0  0  0  0  0  0  0  0  0  0
   55.9090   29.1350   54.0090 C   0  0  0  0  0  0  0  0  0  0  0  0
   55.8140   30.0550   52.9670 C   0  0  0  0  0  0  0  0  0  0  0  0
   56.9870   30.3370   52.1150 C   0  0  0  0  0  0  0  0  0  0  0  0
   57.4090   29.4350   51.3430 O   0  0  0  0  0  0  0  0  0  0  0  0
   57.6470   31.6160   52.1410 N   0  0  0  0  0  0  0  0  0  0  0  0
   58.1410   32.2190   53.3690 C   0  0  0  0  0  0  0  0  0  0  0  0
   59.1080   33.3130   52.9360 C   0  0  0  0  0  0  0  0  0  0  0  0
   58.7860   33.5850   51.4620 C   0  0  1  0  0  0  0  0  0  0  0  0
   60.0280   33.9820   50.6520 C   0  0  0  0  0  0  0  0  0  0  0  0
   59.6370   34.5900   49.4530 O   0  0  0  0  0  0  0  0  0  0  0  0
   58.1230   32.3040   50.9510 C   0  0  0  0  0  0  0  0  0  0  0  0
   54.6010   30.7160   52.7620 C   0  0  0  0  0  0  0  0  0  0  0  0
   53.4680   30.4210   53.5460 C   0  0  0  0  0  0  0  0  0  0  0  0
   52.2890   30.9660   53.1500 C   0  0  0  0  0  0  0  0  0  0  0  0
   51.8520   31.1890   51.7590 C   0  0  0  0  0  0  0  0  0  0  0  0
   52.0210   30.2860   50.7780 N   0  0  0  0  0  0  0  0  0  0  0  0
   51.3920   30.8480   49.7230 C   0  0  0  0  0  0  0  0  0  0  0  0
   51.3430   30.2980   48.5920 O   0  0  0  0  0  0  0  0  0  0  0  0
   50.8080   32.0390   49.9790 N   0  0  0  0  0  0  0  0  0  0  0  0
   51.0980   32.2340   51.2750 C   0  0  0  0  0  0  0  0  0  0  0  0
   50.6520   33.3300   52.0050 O   0  0  0  0  0  0  0  0  0  0  0  0
   51.7806   29.9550   55.5897 H   0  0  0  0  0  0  0  0  0  0  0  0
   52.9920   28.8530   56.5634 H   0  0  0  0  0  0  0  0  0  0  0  0
   54.9960   28.2460   55.6240 H   0  0  0  0  0  0  0  0  0  0  0  0
   56.8495   28.5878   54.1702 H   0  0  0  0  0  0  0  0  0  0  0  0
   57.3091   32.6497   53.9456 H   0  0  0  0  0  0  0  0  0  0  0  0
   58.6332   31.4766   54.0144 H   0  0  0  0  0  0  0  0  0  0  0  0
   58.9546   34.2215   53.5369 H   0  0  0  0  0  0  0  0  0  0  0  0
   60.1561   33.0096   53.0753 H   0  0  0  0  0  0  0  0  0  0  0  0
   58.1158   34.4497   51.3478 H   0  0  0  0  0  0  0  0  0  0  0  0
   60.6362   34.6870   51.2378 H   0  0  0  0  0  0  0  0  0  0  0  0
   60.6185   33.0816   50.4273 H   0  0  0  0  0  0  0  0  0  0  0  0
   59.4550   35.5400   49.6730 H   0  0  0  0  0  0  0  0  0  0  0  0
   57.2826   32.5452   50.2835 H   0  0  0  0  0  0  0  0  0  0  0  0
   58.8225   31.6837   50.3714 H   0  0  0  0  0  0  0  0  0  0  0  0
   54.5288   31.4806   51.9745 H   0  0  0  0  0  0  0  0  0  0  0  0
   51.5917   31.2710   53.9442 H   0  0  0  0  0  0  0  0  0  0  0  0
  1  2  2  0
  2  3  1  0
  3  4  2  0
  4  5  1  0
  5  6  1  0
  6  7  2  0
  6  8  1  0
  8  9  1  0
  9 10  1  0
 10 11  1  0
 11 12  1  0
 12 13  1  0
 11 14  1  0
  5 15  2  0
 15 16  1  0
 16 17  2  3
 17 18  1  0
 18 19  1  0
 19 20  1  0
 20 21  2  0
 20 22  1  0
 22 23  1  0
 23 24  1  0
 16  2  1  0
 23 18  2  0
 14  8  1  0
  1 25  1  0
  1 26  1  0
  3 27  1  0
  4 28  1  0
  9 29  1  0
  9 30  1  0
 10 31  1  0
 10 32  1  0
 11 33  1  1
 12 34  1  0
 12 35  1  0
 13 36  1  0
 14 37  1  0
 14 38  1  0
 15 39  1  0
 17 40  1  0
M  CHG  4   3   1  19  -1  22  -1  24  -1
M  END
>  <UniqueID>  (22) 
20

>  <SMILES>  (22) 
C=c1[nH+]cc(C(=O)N2CC[C@@H](CO)C2)cc1=Cc1[n-]c(=O)[n-]c1[O-]

>  <Energy>  (22) 
95.33540443355206

>  <Genealogy>  (22) 
C=c1[nH+]cc(C(=O)N2CCC(CO)C2)cc1=Cc1[n-]c(=O)[n-]c1[O-] (protonated)
C=c1[nH+]cc(C(=O)N2CC[C@@H](CO)C2)cc1=Cc1[n-]c(=O)[n-]c1[O-] (chirality)
C=c1[nH+]cc(C(=O)N2CC[C@@H](CO)C2)cc1=Cc1[n-]c(=O)[n-]c1[O-] (3D coordinates assigned)
C=c1[nH+]cc(C(=O)N2CC[C@@H](CO)C2)cc1=Cc1[n-]c(=O)[n-]c1[O-] (nonaromatic ring conformer: 95.33540443355206 kcal/mol)

>  <smiles>  (22) 
C=c1ncc(C(=O)N2CCC(CO)C2)cc1=Cc1[nH]c(=O)[nH]c1O

>  <score_type>  (22) 
oracle

>  <origin>  (22) 
adg

>  <m_score__min__energy>  (22) 
-14.800000000000001

>  <m_primary>  (22) 
energy

$$$$
22:0
     RDKit          3D

 49 51  0  0  0  0  0  0  0  0999 V2000
   56.7431   31.7852   40.8570 H   0  0  0  0  0  0  0  0  0  0  0  0
   57.1000   31.5950   41.8800 C   0  0  0  0  0  0  0  0  0  0  0  0
   57.8334   32.2726   42.3415 H   0  0  0  0  0  0  0  0  0  0  0  0
   56.6440   30.5440   42.5600 C   0  0  0  0  0  0  0  0  0  0  0  0
   55.9110   29.8797   42.0790 H   0  0  0  0  0  0  0  0  0  0  0  0
   57.0850   30.2380   43.9330 C   0  0  0  0  0  0  0  0  0  0  0  0
   56.2390   30.0760   44.8540 O   0  0  0  0  0  0  0  0  0  0  0  0
   58.4850   30.1170   44.2170 N   0  0  0  0  0  0  0  0  0  0  0  0
   59.1810   30.2740   43.4540 H   0  0  0  0  0  0  0  0  0  0  0  0
   58.9660   29.9220   45.5500 C   0  0  0  0  0  0  0  0  0  0  0  0
   59.2900   28.6180   45.9480 C   0  0  0  0  0  0  0  0  0  0  0  0
   59.1305   27.7838   45.2490 H   0  0  0  0  0  0  0  0  0  0  0  0
   59.8140   28.3590   47.2220 C   0  0  0  0  0  0  0  0  0  0  0  0
   60.1610   26.9770   47.6330 C   0  0  0  0  0  0  0  0  0  0  0  0
   60.5610   26.7680   48.8090 O   0  0  0  0  0  0  0  0  0  0  0  0
   60.0060   25.8540   46.7510 N   0  0  0  0  0  0  0  0  0  0  0  0
   58.8810   25.4380   46.2500 C   0  0  0  0  0  0  0  0  0  0  0  0
   58.7790   24.4990   45.2840 N   0  0  0  0  0  0  0  0  0  0  0  0
   57.4810   24.2370   44.9660 C   0  0  0  0  0  0  0  0  0  0  0  0
   57.1400   23.2290   43.9150 C   0  0  0  0  0  0  0  0  0  0  0  0
   56.8229   22.2915   44.3952 H   0  0  0  0  0  0  0  0  0  0  0  0
   56.3224   23.6149   43.2884 H   0  0  0  0  0  0  0  0  0  0  0  0
   58.0240   23.0392   43.2884 H   0  0  0  0  0  0  0  0  0  0  0  0
   56.5370   24.9740   45.7000 C   0  0  0  0  0  0  0  0  0  0  0  0
   55.0630   24.9160   45.5930 C   0  0  0  0  0  0  0  0  0  0  0  0
   54.3740   25.9650   45.6950 O   0  0  0  0  0  0  0  0  0  0  0  0
   54.3660   23.6120   45.3600 C   0  0  0  0  0  0  0  0  0  0  0  0
   54.1192   23.1502   46.3274 H   0  0  0  0  0  0  0  0  0  0  0  0
   53.4412   23.7871   44.7907 H   0  0  0  0  0  0  0  0  0  0  0  0
   55.0254   22.9404   44.7907 H   0  0  0  0  0  0  0  0  0  0  0  0
   57.3800   25.9730   46.7700 S   0  0  0  0  0  0  0  0  0  0  0  0
   59.9780   29.4230   48.1150 C   0  0  0  0  0  0  0  0  0  0  0  0
   60.3610   29.2305   49.1280 H   0  0  0  0  0  0  0  0  0  0  0  0
   59.6600   30.7260   47.7320 C   0  0  0  0  0  0  0  0  0  0  0  0
   59.8107   31.5497   48.4453 H   0  0  0  0  0  0  0  0  0  0  0  0
   59.1490   31.0080   46.4480 C   0  0  0  0  0  0  0  0  0  0  0  0
   58.8690   32.3830   46.0760 N   0  0  0  0  0  0  0  0  0  0  0  0
   57.5610   32.8350   45.6140 C   0  0  0  0  0  0  0  0  0  0  0  0
   57.3007   32.3453   44.6640 H   0  0  0  0  0  0  0  0  0  0  0  0
   56.7696   32.5857   46.3361 H   0  0  0  0  0  0  0  0  0  0  0  0
   57.6840   34.3370   45.4180 C   0  0  0  0  0  0  0  0  0  0  0  0
   57.1395   34.6549   44.5166 H   0  0  0  0  0  0  0  0  0  0  0  0
   57.2552   34.8996   46.2604 H   0  0  0  0  0  0  0  0  0  0  0  0
   59.1760   34.5940   45.2600 C   0  0  0  0  0  0  0  0  0  0  0  0
   59.4575   34.5910   44.1966 H   0  0  0  0  0  0  0  0  0  0  0  0
   59.4693   35.5747   45.6628 H   0  0  0  0  0  0  0  0  0  0  0  0
   59.8570   33.4510   45.9950 C   0  0  0  0  0  0  0  0  0  0  0  0
   60.7425   33.1115   45.4377 H   0  0  0  0  0  0  0  0  0  0  0  0
   60.1999   33.7604   46.9933 H   0  0  0  0  0  0  0  0  0  0  0  0
  1  2  1  0
  2  3  1  0
  2  4  2  0
  4  5  1  0
  4  6  1  0
  6  7  2  0
  6  8  1  0
  8  9  1  0
  8 10  1  0
 10 11  2  0
 11 12  1  0
 11 13  1  0
 13 14  1  0
 14 15  2  0
 14 16  1  0
 16 17  2  0
 17 18  1  0
 18 19  1  0
 19 20  1  0
 20 21  1  0
 20 22  1  0
 20 23  1  0
 19 24  2  0
 24 25  1  0
 25 26  2  0
 25 27  1  0
 27 28  1  0
 27 29  1  0
 27 30  1  0
 24 31  1  0
 13 32  2  0
 32 33  1  0
 32 34  1  0
 34 35  1  0
 34 36  2  0
 36 37  1  0
 37 38  1  0
 38 39  1  0
 38 40  1  0
 38 41  1  0
 41 42  1  0
 41 43  1  0
 41 44  1  0
 44 45  1  0
 44 46  1  0
 44 47  1  0
 47 48  1  0
 47 49  1  0
 36 10  1  0
 47 37  1  0
 31 17  1  0
M  CHG  1  18  -1
M  END
>  <UniqueID>  (23) 
21

>  <SMILES>  (23) 
C=CC(=O)Nc1cc(C(=O)/N=c2\[n-]c(C)c(C(C)=O)s2)ccc1N1CCCC1

>  <Energy>  (23) 
93.45449435288793

>  <Genealogy>  (23) 
C=CC(=O)Nc1cc(C(=O)N=c2[n-]c(C)c(C(C)=O)s2)ccc1N1CCCC1 (protonated)
C=CC(=O)Nc1cc(C(=O)/N=c2\[n-]c(C)c(C(C)=O)s2)ccc1N1CCCC1 (cis-trans isomerization)
C=CC(=O)Nc1cc(C(=O)/N=c2\[n-]c(C)c(C(C)=O)s2)ccc1N1CCCC1 (3D coordinates assigned)
C=CC(=O)Nc1cc(C(=O)/N=c2\[n-]c(C)c(C(C)=O)s2)ccc1N1CCCC1 (nonaromatic ring conformer: 93.45449435288793 kcal/mol)

>  <smiles>  (23) 
C=CC(=O)Nc1cc(C(=O)N=c2[nH]c(C)c(C(C)=O)s2)ccc1N1CCCC1

>  <score_type>  (23) 
oracle

>  <origin>  (23) 
adg

>  <m_score__min__energy>  (23) 
-11.16

>  <m_primary>  (23) 
energy

$$$$
23:0
     RDKit          3D

 57 61  0  0  0  0  0  0  0  0999 V2000
   56.0870   28.6470   44.2340 H   0  0  0  0  0  0  0  0  0  0  0  0
   55.9160   28.3860   45.1980 O   0  0  0  0  0  0  0  0  0  0  0  0
   56.0950   27.0720   45.6210 C   0  0  0  0  0  0  0  0  0  0  0  0
   55.0900   26.2640   45.9960 N   0  0  0  0  0  0  0  0  0  0  0  0
   55.7370   25.1450   46.3870 C   0  0  0  0  0  0  0  0  0  0  0  0
   55.1360   24.1330   46.8270 O   0  0  0  0  0  0  0  0  0  0  0  0
   57.0830   25.2060   46.2840 N   0  0  0  0  0  0  0  0  0  0  0  0
   57.3040   26.4290   45.7720 C   0  0  0  0  0  0  0  0  0  0  0  0
   58.6510   26.9840   45.5550 C   0  0  0  0  0  0  0  0  0  0  0  0
   59.1329   26.8082   44.5819 H   0  0  0  0  0  0  0  0  0  0  0  0
   59.3270   27.6940   46.4780 C   0  0  0  0  0  0  0  0  0  0  0  0
   59.3270   27.4840   47.8510 C   0  0  0  0  0  0  0  0  0  0  0  0
   58.7981   26.6879   48.3955 H   0  0  0  0  0  0  0  0  0  0  0  0
   60.1230   28.4730   48.3980 C   0  0  0  0  0  0  0  0  0  0  0  0
   60.4620   28.5980   49.8530 C   0  0  0  0  0  0  0  0  0  0  0  0
   59.7221   28.0409   50.4464 H   0  0  0  0  0  0  0  0  0  0  0  0
   61.4687   28.1875   50.0207 H   0  0  0  0  0  0  0  0  0  0  0  0
   60.4490   30.0010   50.2620 N   0  0  0  0  0  0  0  0  0  0  0  0
   61.1750   30.9480   49.6650 N   0  0  0  0  0  0  0  0  0  0  0  0
   60.8590   32.0960   50.2970 C   0  0  0  0  0  0  0  0  0  0  0  0
   60.7270   33.3780   49.8100 C   0  0  0  0  0  0  0  0  0  0  0  0
   61.4300   33.9690   48.6580 C   0  0  0  0  0  0  0  0  0  0  0  0
   62.5890   34.4340   48.8170 O   0  0  0  0  0  0  0  0  0  0  0  0
   60.8080   34.0790   47.3770 N   0  0  0  0  0  0  0  0  0  0  0  0
   59.4060   34.4400   47.2020 C   0  0  0  0  0  0  0  0  0  0  0  0
   58.8818   34.3518   48.1650 H   0  0  0  0  0  0  0  0  0  0  0  0
   59.3370   35.4765   46.8402 H   0  0  0  0  0  0  0  0  0  0  0  0
   58.7690   33.5130   46.1960 C   0  0  0  0  0  0  0  0  0  0  0  0
   58.6210   33.9550   44.8690 C   0  0  0  0  0  0  0  0  0  0  0  0
   58.9553   34.9655   44.5911 H   0  0  0  0  0  0  0  0  0  0  0  0
   58.0540   33.1240   43.9010 C   0  0  0  0  0  0  0  0  0  0  0  0
   57.9343   33.4851   42.8689 H   0  0  0  0  0  0  0  0  0  0  0  0
   57.6390   31.8360   44.2410 C   0  0  0  0  0  0  0  0  0  0  0  0
   57.0890   31.0310   43.2980 F   0  0  0  0  0  0  0  0  0  0  0  0
   57.7940   31.3730   45.5500 C   0  0  0  0  0  0  0  0  0  0  0  0
   57.4636   30.3569   45.8115 H   0  0  0  0  0  0  0  0  0  0  0  0
   58.3690   32.1950   46.5370 C   0  0  0  0  0  0  0  0  0  0  0  0
   58.5340   31.6590   47.9360 C   0  0  0  0  0  0  0  0  0  0  0  0
   58.2909   32.4486   48.6622 H   0  0  0  0  0  0  0  0  0  0  0  0
   57.8574   30.8044   48.0834 H   0  0  0  0  0  0  0  0  0  0  0  0
   59.5741   31.3328   48.0834 H   0  0  0  0  0  0  0  0  0  0  0  0
   59.6620   33.9220   50.5440 C   0  0  0  0  0  0  0  0  0  0  0  0
   59.2961   34.9547   50.4462 H   0  0  0  0  0  0  0  0  0  0  0  0
   59.1450   32.9930   51.3940 N   0  0  0  0  0  0  0  0  0  0  0  0
   57.8370   33.0560   52.0360 C   0  0  0  0  0  0  0  0  0  0  0  0
   57.9642   33.0499   53.1286 H   0  0  0  0  0  0  0  0  0  0  0  0
   57.3234   33.9799   51.7318 H   0  0  0  0  0  0  0  0  0  0  0  0
   57.2369   32.1857   51.7318 H   0  0  0  0  0  0  0  0  0  0  0  0
   59.9120   31.9040   51.2220 C   0  0  0  0  0  0  0  0  0  0  0  0
   59.6190   30.5660   51.1750 C   0  0  0  0  0  0  0  0  0  0  0  0
   58.5920   29.9100   51.8440 O   0  0  0  0  0  0  0  0  0  0  0  0
   60.6240   29.2660   47.4320 N   0  0  0  0  0  0  0  0  0  0  0  0
   61.2700   30.0760   47.5690 H   0  0  0  0  0  0  0  0  0  0  0  0
   60.1350   28.8140   46.2600 C   0  0  0  0  0  0  0  0  0  0  0  0
   60.4290   29.3850   45.0870 C   0  0  0  0  0  0  0  0  0  0  0  0
   60.0051   28.9796   44.1564 H   0  0  0  0  0  0  0  0  0  0  0  0
   61.0947   30.2600   45.0528 H   0  0  0  0  0  0  0  0  0  0  0  0
  1  2  1  0
  2  3  1  0
  3  4  1  0
  4  5  1  0
  5  6  2  0
  5  7  1  0
  7  8  1  0
  8  9  1  0
  9 10  1  0
  9 11  2  0
 11 12  1  0
 12 13  1  0
 12 14  2  0
 14 15  1  0
 15 16  1  0
 15 17  1  0
 15 18  1  0
 18 19  1  0
 19 20  2  0
 20 21  1  0
 21 22  1  0
 22 23  2  0
 22 24  1  0
 24 25  1  0
 25 26  1  0
 25 27  1  0
 25 28  1  0
 28 29  2  0
 29 30  1  0
 29 31  1  0
 31 32  1  0
 31 33  2  0
 33 34  1  0
 33 35  1  0
 35 36  1  0
 35 37  2  0
 37 38  1  0
 38 39  1  0
 38 40  1  0
 38 41  1  0
 21 42  2  0
 42 43  1  0
 42 44  1  0
 44 45  1  0
 45 46  1  0
 45 47  1  0
 45 48  1  0
 44 49  1  0
 49 50  2  0
 50 51  1  0
 14 52  1  0
 52 53  1  0
 52 54  1  0
 54 55  2  0
 55 56  1  0
 55 57  1  0
  8  3  2  0
 54 11  1  0
 50 18  1  0
 49 20  1  0
 37 28  1  0
M  CHG  4   4  -1   7  -1  24  -1  51  -1
M  END
>  <UniqueID>  (24) 
22

>  <SMILES>  (24) 
C=c1[nH]c(Cn2nc3c(C(=O)[N-]Cc4ccc(F)cc4C)cn(C)c3c2[O-])c/c1=C\c1[n-]c(=O)[n-]c1O

>  <Energy>  (24) 
220.67089742532067

>  <Genealogy>  (24) 
C=c1[nH]c(Cn2nc3c(C(=O)[N-]Cc4ccc(F)cc4C)cn(C)c3c2[O-])cc1=Cc1[n-]c(=O)[n-]c1O (protonated)
C=c1[nH]c(Cn2nc3c(C(=O)[N-]Cc4ccc(F)cc4C)cn(C)c3c2[O-])c/c1=C\c1[n-]c(=O)[n-]c1O (cis-trans isomerization)
C=c1[nH]c(Cn2nc3c(C(=O)[N-]Cc4ccc(F)cc4C)cn(C)c3c2[O-])c/c1=C\c1[n-]c(=O)[n-]c1O (3D coordinates assigned)
C=c1[nH]c(Cn2nc3c(C(=O)[N-]Cc4ccc(F)cc4C)cn(C)c3c2[O-])c/c1=C\c1[n-]c(=O)[n-]c1O (optimized conformer: 220.67089742532067 kcal/mol)

>  <smiles>  (24) 
C=c1[nH]c(Cn2nc3c(C(=O)NCc4ccc(F)cc4C)cn(C)c3c2O)cc1=Cc1[nH]c(=O)[nH]c1O

>  <score_type>  (24) 
oracle

>  <origin>  (24) 
adg

>  <m_score__min__energy>  (24) 
-15.43

>  <m_primary>  (24) 
energy

$$$$
24:0
     RDKit          3D

 47 50  0  0  0  0  0  0  0  0999 V2000
   60.3200   27.7890   46.2210 C   0  0  0  0  0  0  0  0  0  0  0  0
   59.1760   28.2630   45.7000 C   0  0  0  0  0  0  0  0  0  0  0  0
   58.1630   27.5100   45.0840 C   0  0  0  0  0  0  0  0  0  0  0  0
   57.9610   26.1800   45.0200 C   0  0  0  0  0  0  0  0  0  0  0  0
   57.3150   25.3570   46.0540 C   0  0  0  0  0  0  0  0  0  0  0  0
   57.8880   24.2720   46.6040 N   0  0  0  0  0  0  0  0  0  0  0  0
   56.9100   23.7690   47.3890 C   0  0  0  0  0  0  0  0  0  0  0  0
   57.0720   22.7400   48.0960 O   0  0  0  0  0  0  0  0  0  0  0  0
   55.7440   24.4470   47.3500 N   0  0  0  0  0  0  0  0  0  0  0  0
   56.0110   25.4410   46.4870 C   0  0  0  0  0  0  0  0  0  0  0  0
   55.0780   26.3920   46.0840 O   0  0  0  0  0  0  0  0  0  0  0  0
   57.3070   28.4230   44.4960 C   0  0  0  0  0  0  0  0  0  0  0  0
   57.7770   29.6810   44.8140 C   0  0  0  0  0  0  0  0  0  0  0  0
   57.1490   30.9370   44.3640 C   0  0  0  0  0  0  0  0  0  0  0  0
   55.9090   31.1150   44.5030 O   0  0  0  0  0  0  0  0  0  0  0  0
   58.9020   29.5900   45.5650 N   0  0  0  0  0  0  0  0  0  0  0  0
   59.7250   30.7250   46.0160 C   0  0  0  0  0  0  0  0  0  0  0  0
   59.1460   31.3160   47.2630 C   0  0  0  0  0  0  0  0  0  0  0  0
   59.4610   30.9760   48.5580 C   0  0  0  0  0  0  0  0  0  0  0  0
   58.7890   31.8340   49.3470 N   0  0  0  0  0  0  0  0  0  0  0  0
   58.8590   31.9630   50.8070 C   0  0  0  0  0  0  0  0  0  0  0  0
   57.4730   32.2680   51.4280 C   0  0  0  0  0  0  0  0  0  0  0  0
   57.0710   31.2470   52.5030 C   0  0  0  0  0  0  0  0  0  0  0  0
   57.2030   29.8730   52.0020 N   0  0  0  0  0  0  0  0  0  0  0  0
   58.5660   29.5230   51.5470 C   0  0  0  0  0  0  0  0  0  0  0  0
   59.5300   30.7210   51.4260 C   0  0  0  0  0  0  0  0  0  0  0  0
   58.1190   32.6710   48.5680 N   0  0  0  0  0  0  0  0  0  0  0  0
   58.3170   32.3780   47.2910 N   0  0  0  0  0  0  0  0  0  0  0  0
   61.0426   28.4794   46.6806 H   0  0  0  0  0  0  0  0  0  0  0  0
   60.5341   26.7105   46.1880 H   0  0  0  0  0  0  0  0  0  0  0  0
   58.3101   25.6632   44.1139 H   0  0  0  0  0  0  0  0  0  0  0  0
   54.1110   26.3210   46.3750 H   0  0  0  0  0  0  0  0  0  0  0  0
   56.4193   28.1905   43.8895 H   0  0  0  0  0  0  0  0  0  0  0  0
   57.7662   31.7230   43.9044 H   0  0  0  0  0  0  0  0  0  0  0  0
   60.7475   30.3746   46.2201 H   0  0  0  0  0  0  0  0  0  0  0  0
   59.7428   31.4925   45.2282 H   0  0  0  0  0  0  0  0  0  0  0  0
   60.1288   30.1648   48.8835 H   0  0  0  0  0  0  0  0  0  0  0  0
   59.4907   32.8310   51.0468 H   0  0  0  0  0  0  0  0  0  0  0  0
   57.5040   33.2679   51.8855 H   0  0  0  0  0  0  0  0  0  0  0  0
   56.7269   32.2145   50.6214 H   0  0  0  0  0  0  0  0  0  0  0  0
   57.7223   31.3737   53.3804 H   0  0  0  0  0  0  0  0  0  0  0  0
   56.0192   31.4207   52.7743 H   0  0  0  0  0  0  0  0  0  0  0  0
   56.5300   29.7430   51.2110 H   0  0  0  0  0  0  0  0  0  0  0  0
   58.9947   28.8088   52.2655 H   0  0  0  0  0  0  0  0  0  0  0  0
   58.4592   29.1054   50.5350 H   0  0  0  0  0  0  0  0  0  0  0  0
   59.8952   30.9819   52.4303 H   0  0  0  0  0  0  0  0  0  0  0  0
   60.3523   30.4204   50.7600 H   0  0  0  0  0  0  0  0  0  0  0  0
  1  2  2  0
  2  3  1  0
  3  4  2  3
  4  5  1  0
  5  6  1  0
  6  7  1  0
  7  8  2  0
  7  9  1  0
  9 10  1  0
 10 11  1  0
  3 12  1  0
 12 13  2  0
 13 14  1  0
 14 15  2  0
 13 16  1  0
 16 17  1  0
 17 18  1  0
 18 19  2  0
 19 20  1  0
 20 21  1  0
 21 22  1  0
 22 23  1  0
 23 24  1  0
 24 25  1  0
 25 26  1  0
 20 27  1  0
 27 28  2  0
 16  2  1  0
 28 18  1  0
 10  5  2  0
 26 21  1  0
  1 29  1  0
  1 30  1  0
  4 31  1  0
 11 32  1  0
 12 33  1  0
 14 34  1  0
 17 35  1  0
 17 36  1  0
 19 37  1  0
 21 38  1  0
 22 39  1  0
 22 40  1  0
 23 41  1  0
 23 42  1  0
 24 43  1  0
 25 44  1  0
 25 45  1  0
 26 46  1  0
 26 47  1  0
M  CHG  2   6  -1   9  -1
M  END
>  <UniqueID>  (25) 
23

>  <SMILES>  (25) 
C=c1c(=Cc2[n-]c(=O)[n-]c2O)cc(C=O)n1Cc1cn(C2CCNCC2)nn1

>  <Energy>  (25) 
159.25233298279656

>  <Genealogy>  (25) 
C=c1c(=Cc2[n-]c(=O)[n-]c2O)cc(C=O)n1Cc1cn(C2CCNCC2)nn1 (protonated)
C=c1c(=Cc2[n-]c(=O)[n-]c2O)cc(C=O)n1Cc1cn(C2CCNCC2)nn1 (3D coordinates assigned)
C=c1c(=Cc2[n-]c(=O)[n-]c2O)cc(C=O)n1Cc1cn(C2CCNCC2)nn1 (nonaromatic ring conformer: 159.25233298279656 kcal/mol)

>  <smiles>  (25) 
C=c1c(=Cc2[nH]c(=O)[nH]c2O)cc(C=O)n1Cc1cn(C2CCNCC2)nn1

>  <score_type>  (25) 
oracle

>  <origin>  (25) 
adg

>  <m_score__min__energy>  (25) 
-14.18

>  <m_primary>  (25) 
energy

$$$$
25:0
     RDKit          3D

 52 54  0  0  0  0  0  0  0  0999 V2000
   60.6300   28.8580   44.5670 C   0  0  0  0  0  0  0  0  0  0  0  0
   59.8650   27.8460   45.3670 C   0  0  0  0  0  0  0  0  0  0  0  0
   60.5060   27.1220   46.1760 O   0  0  0  0  0  0  0  0  0  0  0  0
   58.4330   27.6760   45.2290 N   0  0  0  0  0  0  0  0  0  0  0  0
   57.7770   28.1380   43.9930 C   0  0  0  0  0  0  0  0  0  0  0  0
   56.9210   29.3570   44.2390 C   0  0  0  0  0  0  0  0  0  0  0  0
   56.0430   29.6820   43.3980 O   0  0  0  0  0  0  0  0  0  0  0  0
   56.9650   30.0590   45.4880 N   0  0  0  0  0  0  0  0  0  0  0  0
   58.0600   30.8400   45.9810 C   0  0  0  0  0  0  0  0  0  0  0  0
   58.8080   30.3570   47.0590 C   0  0  0  0  0  0  0  0  0  0  0  0
   59.8550   31.1160   47.5900 C   0  0  0  0  0  0  0  0  0  0  0  0
   60.1580   32.3800   47.0590 C   0  0  0  0  0  0  0  0  0  0  0  0
   61.2320   33.1620   47.6150 N   0  0  0  0  0  0  0  0  0  0  0  0
   62.4800   33.3340   46.8640 C   0  0  0  0  0  0  0  0  0  0  0  0
   63.6430   33.5410   47.8390 C   0  0  0  0  0  0  0  0  0  0  0  0
   63.3570   34.5890   48.7470 O   0  0  0  0  0  0  0  0  0  0  0  0
   62.2610   34.2280   49.5670 C   0  0  0  0  0  0  0  0  0  0  0  0
   60.9850   34.0760   48.7350 C   0  0  0  0  0  0  0  0  0  0  0  0
   59.3790   32.8800   46.0010 C   0  0  0  0  0  0  0  0  0  0  0  0
   58.3320   32.1190   45.4720 C   0  0  0  0  0  0  0  0  0  0  0  0
   57.5950   27.1560   46.3250 C   0  0  0  0  0  0  0  0  0  0  0  0
   57.0310   25.7980   45.9700 C   0  0  0  0  0  0  0  0  0  0  0  0
   55.6370   25.6300   45.8340 C   0  0  0  0  0  0  0  0  0  0  0  0
   54.7740   26.7060   45.9990 O   0  0  0  0  0  0  0  0  0  0  0  0
   55.1060   24.3720   45.5350 C   0  0  0  0  0  0  0  0  0  0  0  0
   55.9490   23.2730   45.3720 C   0  0  0  0  0  0  0  0  0  0  0  0
   57.3290   23.4250   45.5060 C   0  0  0  0  0  0  0  0  0  0  0  0
   57.8790   24.6800   45.8040 C   0  0  0  0  0  0  0  0  0  0  0  0
   59.2600   24.8150   45.9340 O   0  0  0  0  0  0  0  0  0  0  0  0
   61.1506   29.5467   45.2487 H   0  0  0  0  0  0  0  0  0  0  0  0
   61.3667   28.3432   43.9328 H   0  0  0  0  0  0  0  0  0  0  0  0
   59.9338   29.4264   43.9328 H   0  0  0  0  0  0  0  0  0  0  0  0
   58.5497   28.3884   43.2512 H   0  0  0  0  0  0  0  0  0  0  0  0
   57.1269   27.3300   43.6264 H   0  0  0  0  0  0  0  0  0  0  0  0
   58.5712   29.3739   47.4919 H   0  0  0  0  0  0  0  0  0  0  0  0
   60.4455   30.7203   48.4295 H   0  0  0  0  0  0  0  0  0  0  0  0
   62.6677   32.4369   46.2557 H   0  0  0  0  0  0  0  0  0  0  0  0
   62.3930   34.2126   46.2079 H   0  0  0  0  0  0  0  0  0  0  0  0
   63.8111   32.6114   48.4025 H   0  0  0  0  0  0  0  0  0  0  0  0
   64.5420   33.8079   47.2641 H   0  0  0  0  0  0  0  0  0  0  0  0
   62.4827   33.2725   50.0648 H   0  0  0  0  0  0  0  0  0  0  0  0
   62.1028   35.0211   50.3126 H   0  0  0  0  0  0  0  0  0  0  0  0
   60.1819   33.6704   49.3678 H   0  0  0  0  0  0  0  0  0  0  0  0
   60.6855   35.0595   48.3438 H   0  0  0  0  0  0  0  0  0  0  0  0
   59.5944   33.8760   45.5868 H   0  0  0  0  0  0  0  0  0  0  0  0
   57.7191   32.5246   44.6535 H   0  0  0  0  0  0  0  0  0  0  0  0
   58.2061   27.0663   47.2352 H   0  0  0  0  0  0  0  0  0  0  0  0
   56.7602   27.8525   46.4924 H   0  0  0  0  0  0  0  0  0  0  0  0
   54.0182   24.2483   45.4278 H   0  0  0  0  0  0  0  0  0  0  0  0
   55.5252   22.2854   45.1375 H   0  0  0  0  0  0  0  0  0  0  0  0
   57.9899   22.5551   45.3771 H   0  0  0  0  0  0  0  0  0  0  0  0
   59.6870   25.6950   46.1970 H   0  0  0  0  0  0  0  0  0  0  0  0
  1  2  1  0
  2  3  2  0
  2  4  1  0
  4  5  1  0
  5  6  1  0
  6  7  2  0
  6  8  1  0
  8  9  1  0
  9 10  2  0
 10 11  1  0
 11 12  2  0
 12 13  1  0
 13 14  1  0
 14 15  1  0
 15 16  1  0
 16 17  1  0
 17 18  1  0
 12 19  1  0
 19 20  2  0
  4 21  1  0
 21 22  1  0
 22 23  2  0
 23 24  1  0
 23 25  1  0
 25 26  2  0
 26 27  1  0
 27 28  2  0
 28 29  1  0
 20  9  1  0
 28 22  1  0
 18 13  1  0
  1 30  1  0
  1 31  1  0
  1 32  1  0
  5 33  1  0
  5 34  1  0
 10 35  1  0
 11 36  1  0
 14 37  1  0
 14 38  1  0
 15 39  1  0
 15 40  1  0
 17 41  1  0
 17 42  1  0
 18 43  1  0
 18 44  1  0
 19 45  1  0
 20 46  1  0
 21 47  1  0
 21 48  1  0
 25 49  1  0
 26 50  1  0
 27 51  1  0
 29 52  1  0
M  CHG  2   8  -1  24  -1
M  END
>  <UniqueID>  (26) 
24

>  <SMILES>  (26) 
CC(=O)N(CC(=O)[N-]c1ccc(N2CCOCC2)cc1)Cc1c([O-])cccc1O

>  <Energy>  (26) 
63.7461298887019

>  <Genealogy>  (26) 
CC(=O)N(CC(=O)[N-]c1ccc(N2CCOCC2)cc1)Cc1c([O-])cccc1O (protonated)
CC(=O)N(CC(=O)[N-]c1ccc(N2CCOCC2)cc1)Cc1c([O-])cccc1O (3D coordinates assigned)
CC(=O)N(CC(=O)[N-]c1ccc(N2CCOCC2)cc1)Cc1c([O-])cccc1O (nonaromatic ring conformer: 63.7461298887019 kcal/mol)

>  <smiles>  (26) 
CC(=O)N(CC(=O)Nc1ccc(N2CCOCC2)cc1)Cc1c(O)cccc1O

>  <score_type>  (26) 
oracle

>  <origin>  (26) 
adg

>  <m_score__min__energy>  (26) 
-13.470000000000001

>  <m_primary>  (26) 
energy

$$$$
26:0
     RDKit          3D

 40 42  0  0  0  0  0  0  0  0999 V2000
   57.4530   28.5710   44.5540 C   0  0  0  0  0  0  0  0  0  0  0  0
   56.6660   28.2160   45.5670 C   0  0  0  0  0  0  0  0  0  0  0  0
   56.3150   26.8070   45.8300 C   0  0  0  0  0  0  0  0  0  0  0  0
   55.0540   26.3330   45.8190 N   0  0  0  0  0  0  0  0  0  0  0  0
   55.2160   25.0060   45.9990 C   0  0  0  0  0  0  0  0  0  0  0  0
   54.2470   24.2050   46.0450 O   0  0  0  0  0  0  0  0  0  0  0  0
   56.4970   24.6060   46.1160 N   0  0  0  0  0  0  0  0  0  0  0  0
   57.1930   25.7540   46.0220 C   0  0  0  0  0  0  0  0  0  0  0  0
   58.6640   25.8060   46.0840 C   0  0  0  0  0  0  0  0  0  0  0  0
   59.3300   24.8740   45.5590 O   0  0  0  0  0  0  0  0  0  0  0  0
   59.3470   26.8770   46.7570 N   0  0  0  0  0  0  0  0  0  0  0  0
   58.8920   27.2930   48.0940 C   0  0  0  0  0  0  0  0  0  0  0  0
   59.8710   28.2820   48.7320 C   0  0  0  0  0  0  0  0  0  0  0  0
   60.2510   29.3020   47.7480 N   0  0  0  0  0  0  0  0  0  0  0  0
   59.9170   30.6840   47.9770 C   0  0  0  0  0  0  0  0  0  0  0  0
   58.8340   30.9720   48.5550 O   0  0  0  0  0  0  0  0  0  0  0  0
   60.8090   31.7760   47.5320 C   0  0  0  0  0  0  0  0  0  0  0  0
   60.2950   32.8470   46.7810 C   0  0  0  0  0  0  0  0  0  0  0  0
   61.1340   33.8870   46.3680 C   0  0  0  0  0  0  0  0  0  0  0  0
   62.4880   33.8730   46.7100 C   0  0  0  0  0  0  0  0  0  0  0  0
   63.0060   32.8220   47.4730 C   0  0  0  0  0  0  0  0  0  0  0  0
   64.3160   32.8170   47.8180 F   0  0  0  0  0  0  0  0  0  0  0  0
   62.1690   31.7800   47.8860 C   0  0  0  0  0  0  0  0  0  0  0  0
   60.7350   28.8850   46.4210 C   0  0  0  0  0  0  0  0  0  0  0  0
   60.6270   27.3660   46.2270 C   0  0  0  0  0  0  0  0  0  0  0  0
   57.6927   29.6319   44.3893 H   0  0  0  0  0  0  0  0  0  0  0  0
   57.8637   27.8035   43.8815 H   0  0  0  0  0  0  0  0  0  0  0  0
   56.2646   28.9975   46.2290 H   0  0  0  0  0  0  0  0  0  0  0  0
   57.9061   27.7724   48.0039 H   0  0  0  0  0  0  0  0  0  0  0  0
   58.8336   26.4004   48.7342 H   0  0  0  0  0  0  0  0  0  0  0  0
   59.3914   28.7667   49.5952 H   0  0  0  0  0  0  0  0  0  0  0  0
   60.7700   27.7428   49.0652 H   0  0  0  0  0  0  0  0  0  0  0  0
   59.2274   32.8674   46.5167 H   0  0  0  0  0  0  0  0  0  0  0  0
   60.7267   34.7175   45.7727 H   0  0  0  0  0  0  0  0  0  0  0  0
   63.1472   34.6891   46.3790 H   0  0  0  0  0  0  0  0  0  0  0  0
   62.5781   30.9582   48.4920 H   0  0  0  0  0  0  0  0  0  0  0  0
   60.1333   29.3864   45.6487 H   0  0  0  0  0  0  0  0  0  0  0  0
   61.7954   29.1658   46.3397 H   0  0  0  0  0  0  0  0  0  0  0  0
   60.6896   27.1313   45.1542 H   0  0  0  0  0  0  0  0  0  0  0  0
   61.4502   26.8755   46.7672 H   0  0  0  0  0  0  0  0  0  0  0  0
  1  2  2  0
  2  3  1  0
  3  4  1  0
  4  5  1  0
  5  6  2  0
  5  7  1  0
  7  8  1  0
  8  9  1  0
  9 10  2  0
  9 11  1  0
 11 12  1  0
 12 13  1  0
 13 14  1  0
 14 15  1  0
 15 16  2  0
 15 17  1  0
 17 18  2  0
 18 19  1  0
 19 20  2  0
 20 21  1  0
 21 22  1  0
 21 23  2  0
 14 24  1  0
 24 25  1  0
  8  3  2  0
 25 11  1  0
 23 17  1  0
  1 26  1  0
  1 27  1  0
  2 28  1  0
 12 29  1  0
 12 30  1  0
 13 31  1  0
 13 32  1  0
 18 33  1  0
 19 34  1  0
 20 35  1  0
 23 36  1  0
 24 37  1  0
 24 38  1  0
 25 39  1  0
 25 40  1  0
M  CHG  2   4  -1   7  -1
M  END
>  <UniqueID>  (27) 
25

>  <SMILES>  (27) 
C=Cc1[n-]c(=O)[n-]c1C(=O)N1CCN(C(=O)c2cccc(F)c2)CC1

>  <Energy>  (27) 
78.49841883210186

>  <Genealogy>  (27) 
C=Cc1[n-]c(=O)[n-]c1C(=O)N1CCN(C(=O)c2cccc(F)c2)CC1 (protonated)
C=Cc1[n-]c(=O)[n-]c1C(=O)N1CCN(C(=O)c2cccc(F)c2)CC1 (3D coordinates assigned)
C=Cc1[n-]c(=O)[n-]c1C(=O)N1CCN(C(=O)c2cccc(F)c2)CC1 (nonaromatic ring conformer: 78.49841883210186 kcal/mol)

>  <smiles>  (27) 
C=Cc1[nH]c(=O)[nH]c1C(=O)N1CCN(C(=O)c2cccc(F)c2)CC1

>  <score_type>  (27) 
oracle

>  <origin>  (27) 
adg

>  <m_score__min__energy>  (27) 
-10.470000000000001

>  <m_primary>  (27) 
energy

$$$$
27:0
     RDKit          3D

 38 40  0  0  0  0  0  0  0  0999 V2000
   57.0680   34.2530   45.2260 C   0  0  0  0  0  0  0  0  0  0  0  0
   58.1870   33.3610   45.6770 C   0  0  0  0  0  0  0  0  0  0  0  0
   58.1770   32.0640   45.2740 N   0  0  0  0  0  0  0  0  0  0  0  0
   59.1710   31.2090   45.6120 C   0  0  0  0  0  0  0  0  0  0  0  0
   59.1200   29.5100   45.0500 S   0  0  0  0  0  0  0  0  0  0  0  0
   57.4920   29.6480   44.2310 C   0  0  0  0  0  0  0  0  0  0  0  0
   56.4160   29.0040   45.0670 C   0  0  0  0  0  0  0  0  0  0  0  0
   55.2230   29.3470   44.8540 O   0  0  0  0  0  0  0  0  0  0  0  0
   56.6530   27.9310   45.9980 N   0  0  0  0  0  0  0  0  0  0  0  0
   56.2820   26.6870   45.9290 C   0  0  0  0  0  0  0  0  0  0  0  0
   54.9700   26.3380   45.9630 N   0  0  0  0  0  0  0  0  0  0  0  0
   55.0240   25.0020   45.8570 C   0  0  0  0  0  0  0  0  0  0  0  0
   53.9580   24.1070   45.8100 C   0  0  0  0  0  0  0  0  0  0  0  0
   54.2610   22.7390   45.6730 C   0  0  0  0  0  0  0  0  0  0  0  0
   55.6050   22.3100   45.5840 C   0  0  0  0  0  0  0  0  0  0  0  0
   56.6550   23.2450   45.6350 C   0  0  0  0  0  0  0  0  0  0  0  0
   56.3160   24.5890   45.7730 C   0  0  0  0  0  0  0  0  0  0  0  0
   57.1440   25.6410   45.8220 N   0  0  0  0  0  0  0  0  0  0  0  0
   60.2060   31.6390   46.3720 N   0  0  0  0  0  0  0  0  0  0  0  0
   60.2800   32.9240   46.8110 C   0  0  0  0  0  0  0  0  0  0  0  0
   61.4750   33.3270   47.6250 C   0  0  0  0  0  0  0  0  0  0  0  0
   59.2400   33.8310   46.4980 C   0  0  0  0  0  0  0  0  0  0  0  0
   59.2970   35.2720   46.9500 C   0  0  0  0  0  0  0  0  0  0  0  0
   56.5508   34.6653   46.1049 H   0  0  0  0  0  0  0  0  0  0  0  0
   57.4763   35.0761   44.6212 H   0  0  0  0  0  0  0  0  0  0  0  0
   56.3566   33.6715   44.6212 H   0  0  0  0  0  0  0  0  0  0  0  0
   57.2494   30.7113   44.0877 H   0  0  0  0  0  0  0  0  0  0  0  0
   57.5406   29.1322   43.2606 H   0  0  0  0  0  0  0  0  0  0  0  0
   52.9171   24.4563   45.8775 H   0  0  0  0  0  0  0  0  0  0  0  0
   53.4473   21.9998   45.6350 H   0  0  0  0  0  0  0  0  0  0  0  0
   55.8311   21.2391   45.4743 H   0  0  0  0  0  0  0  0  0  0  0  0
   57.7057   22.9262   45.5683 H   0  0  0  0  0  0  0  0  0  0  0  0
   61.2340   33.2457   48.6952 H   0  0  0  0  0  0  0  0  0  0  0  0
   62.3204   32.6643   47.3882 H   0  0  0  0  0  0  0  0  0  0  0  0
   61.7464   34.3664   47.3882 H   0  0  0  0  0  0  0  0  0  0  0  0
   59.2986   35.3117   48.0493 H   0  0  0  0  0  0  0  0  0  0  0  0
   60.2144   35.7411   46.5649 H   0  0  0  0  0  0  0  0  0  0  0  0
   58.4195   35.8121   46.5649 H   0  0  0  0  0  0  0  0  0  0  0  0
  1  2  1  0
  2  3  2  0
  3  4  1  0
  4  5  1  0
  5  6  1  0
  6  7  1  0
  7  8  2  0
  7  9  1  0
  9 10  2  3
 10 11  1  0
 11 12  1  0
 12 13  2  0
 13 14  1  0
 14 15  2  0
 15 16  1  0
 16 17  2  0
 17 18  1  0
  4 19  2  0
 19 20  1  0
 20 21  1  0
 20 22  2  0
 22 23  1  0
 22  2  1  0
 18 10  1  0
 17 12  1  0
  1 24  1  0
  1 25  1  0
  1 26  1  0
  6 27  1  0
  6 28  1  0
 13 29  1  0
 14 30  1  0
 15 31  1  0
 16 32  1  0
 21 33  1  0
 21 34  1  0
 21 35  1  0
 23 36  1  0
 23 37  1  0
 23 38  1  0
M  CHG  2  11  -1  18  -1
M  END
>  <UniqueID>  (28) 
26

>  <SMILES>  (28) 
Cc1nc(SCC(=O)N=c2[n-]c3ccccc3[n-]2)nc(C)c1C

>  <Energy>  (28) 
72.08338553860534

>  <Genealogy>  (28) 
Cc1nc(SCC(=O)N=c2[n-]c3ccccc3[n-]2)nc(C)c1C (protonated)
Cc1nc(SCC(=O)N=c2[n-]c3ccccc3[n-]2)nc(C)c1C (3D coordinates assigned)
Cc1nc(SCC(=O)N=c2[n-]c3ccccc3[n-]2)nc(C)c1C (optimized conformer: 72.08338553860534 kcal/mol)

>  <smiles>  (28) 
Cc1nc(SCC(=O)N=c2[nH]c3ccccc3[nH]2)nc(C)c1C

>  <score_type>  (28) 
oracle

>  <origin>  (28) 
adg

>  <m_score__min__energy>  (28) 
-11.59

>  <m_primary>  (28) 
energy

$$$$
28:0
     RDKit          3D

 34 36  0  0  0  0  0  0  0  0999 V2000
   56.2490   28.4940   43.7560 H   0  0  0  0  0  0  0  0  0  0  0  0
   56.4220   29.3990   43.3350 O   0  0  0  0  0  0  0  0  0  0  0  0
   57.1750   30.3580   44.0050 C   0  0  0  0  0  0  0  0  0  0  0  0
   57.1210   31.7120   43.7690 C   0  0  0  0  0  0  0  0  0  0  0  0
   56.5361   32.2334   42.9969 H   0  0  0  0  0  0  0  0  0  0  0  0
   57.9600   32.2760   44.7110 C   0  0  0  0  0  0  0  0  0  0  0  0
   58.1900   33.5790   44.8460 C   0  0  0  0  0  0  0  0  0  0  0  0
   58.8760   33.9384   45.6272 H   0  0  0  0  0  0  0  0  0  0  0  0
   57.6942   34.2973   44.1765 H   0  0  0  0  0  0  0  0  0  0  0  0
   58.5230   31.3390   45.5010 N   0  0  0  0  0  0  0  0  0  0  0  0
   58.0560   30.1510   45.0590 C   0  0  0  0  0  0  0  0  0  0  0  0
   58.4070   28.9930   45.6390 C   0  0  0  0  0  0  0  0  0  0  0  0
   59.4322   28.9185   46.0308 H   0  0  0  0  0  0  0  0  0  0  0  0
   57.5400   27.8130   45.7970 C   0  0  0  0  0  0  0  0  0  0  0  0
   56.2040   27.8730   45.6190 N   0  0  0  0  0  0  0  0  0  0  0  0
   55.7390   26.6770   46.0220 C   0  0  0  0  0  0  0  0  0  0  0  0
   54.3920   26.3390   45.9950 O   0  0  0  0  0  0  0  0  0  0  0  0
   56.7560   25.8600   46.4740 C   0  0  0  0  0  0  0  0  0  0  0  0
   56.6140   24.5310   47.1000 C   0  0  0  0  0  0  0  0  0  0  0  0
   55.9680   24.4160   48.1740 O   0  0  0  0  0  0  0  0  0  0  0  0
   57.2570   23.3730   46.5540 N   0  0  0  0  0  0  0  0  0  0  0  0
   57.0320   22.8370   45.2430 C   0  0  0  0  0  0  0  0  0  0  0  0
   56.0920   23.4560   44.4080 C   0  0  0  0  0  0  0  0  0  0  0  0
   55.5175   24.3190   44.7758 H   0  0  0  0  0  0  0  0  0  0  0  0
   55.8810   22.9820   43.1100 C   0  0  0  0  0  0  0  0  0  0  0  0
   55.1299   23.4620   42.4654 H   0  0  0  0  0  0  0  0  0  0  0  0
   56.6230   21.8990   42.6300 C   0  0  0  0  0  0  0  0  0  0  0  0
   56.4541   21.5253   41.6093 H   0  0  0  0  0  0  0  0  0  0  0  0
   57.5800   21.2910   43.4480 C   0  0  0  0  0  0  0  0  0  0  0  0
   58.1724   20.4465   43.0661 H   0  0  0  0  0  0  0  0  0  0  0  0
   57.7850   21.7550   44.7510 C   0  0  0  0  0  0  0  0  0  0  0  0
   58.5369   21.2729   45.3931 H   0  0  0  0  0  0  0  0  0  0  0  0
   57.9170   26.5960   46.3460 C   0  0  0  0  0  0  0  0  0  0  0  0
   58.9340   26.2815   46.6230 H   0  0  0  0  0  0  0  0  0  0  0  0
  1  2  1  0
  2  3  1  0
  3  4  2  0
  4  5  1  0
  4  6  1  0
  6  7  2  0
  7  8  1  0
  7  9  1  0
  6 10  1  0
 10 11  1  0
 11 12  2  0
 12 13  1  0
 12 14  1  0
 14 15  1  0
 15 16  1  0
 16 17  1  0
 16 18  2  0
 18 19  1  0
 19 20  2  0
 19 21  1  0
 21 22  1  0
 22 23  2  0
 23 24  1  0
 23 25  1  0
 25 26  1  0
 25 27  2  0
 27 28  1  0
 27 29  1  0
 29 30  1  0
 29 31  2  0
 31 32  1  0
 18 33  1  0
 33 34  1  0
 11  3  1  0
 33 14  2  0
 31 22  1  0
M  CHG  4  10  -1  15  -1  17  -1  21  -1
M  END
>  <UniqueID>  (29) 
27

>  <SMILES>  (29) 
C=c1cc(O)/c(=C\c2cc(C(=O)[N-]c3ccccc3)c([O-])[n-]2)[n-]1

>  <Energy>  (29) 
99.04551885187772

>  <Genealogy>  (29) 
C=c1cc(O)c(=Cc2cc(C(=O)[N-]c3ccccc3)c([O-])[n-]2)[n-]1 (protonated)
C=c1cc(O)/c(=C\c2cc(C(=O)[N-]c3ccccc3)c([O-])[n-]2)[n-]1 (cis-trans isomerization)
C=c1cc(O)/c(=C\c2cc(C(=O)[N-]c3ccccc3)c([O-])[n-]2)[n-]1 (3D coordinates assigned)
C=c1cc(O)/c(=C\c2cc(C(=O)[N-]c3ccccc3)c([O-])[n-]2)[n-]1 (optimized conformer: 99.04551885187772 kcal/mol)

>  <smiles>  (29) 
C=c1cc(O)c(=Cc2cc(C(=O)Nc3ccccc3)c(O)[nH]2)[nH]1

>  <score_type>  (29) 
oracle

>  <origin>  (29) 
adg

>  <m_score__min__energy>  (29) 
-15.699999999999999

>  <m_primary>  (29) 
energy

$$$$
29:0
     RDKit          3D

 64 67  0  0  0  0  0  0  0  0999 V2000
   57.9270   25.1750   46.3550 C   0  0  0  0  0  0  0  0  0  0  0  0
   57.8780   26.5830   45.9190 N   0  0  0  0  0  0  0  0  0  0  0  0
   59.0340   27.2620   45.6100 C   0  0  0  0  0  0  0  0  0  0  0  0
   60.4030   26.6270   45.7090 C   0  0  0  0  0  0  0  0  0  0  0  0
   60.8690   26.6680   47.0880 N   0  0  0  0  0  0  0  0  0  0  0  0
   60.0280   26.9950   48.1990 C   0  0  0  0  0  0  0  0  0  0  0  0
   59.3390   26.0910   48.7460 O   0  0  0  0  0  0  0  0  0  0  0  0
   59.9660   28.3890   48.6970 C   0  0  0  0  0  0  0  0  0  0  0  0
   58.7620   29.1150   48.6490 C   0  0  0  0  0  0  0  0  0  0  0  0
   58.7090   30.4270   49.1270 C   0  0  0  0  0  0  0  0  0  0  0  0
   59.8500   31.0310   49.6580 C   0  0  0  0  0  0  0  0  0  0  0  0
   61.0610   30.3250   49.7100 C   0  0  0  0  0  0  0  0  0  0  0  0
   62.2870   30.9670   50.3080 C   0  0  0  0  0  0  0  0  0  0  0  0
   63.2790   31.3120   49.2670 N   0  0  0  0  0  0  0  0  0  0  0  0
   64.1940   32.3820   49.7390 C   0  0  0  0  0  0  0  0  0  0  0  0
   63.7690   33.7720   49.2380 C   0  0  0  0  0  0  0  0  0  0  0  0
   63.7620   33.8460   47.7660 N   0  0  0  0  0  0  0  0  0  0  0  0
   63.4880   32.5570   47.1060 C   0  0  0  0  0  0  0  0  0  0  0  0
   62.6180   31.6400   47.9770 C   0  0  0  0  0  0  0  0  0  0  0  0
   61.1110   29.0050   49.2350 C   0  0  0  0  0  0  0  0  0  0  0  0
   58.9720   28.5720   45.2580 N   0  0  0  0  0  0  0  0  0  0  0  0
   57.8030   29.2460   45.1300 C   0  0  0  0  0  0  0  0  0  0  0  0
   57.8250   30.6880   44.7590 C   0  0  0  0  0  0  0  0  0  0  0  0
   58.8060   31.1490   44.1190 O   0  0  0  0  0  0  0  0  0  0  0  0
   56.7620   31.5930   45.0960 N   0  0  0  0  0  0  0  0  0  0  0  0
   56.8590   33.0460   45.1730 C   0  0  0  0  0  0  0  0  0  0  0  0
   58.0220   33.4340   46.0410 C   0  0  0  0  0  0  0  0  0  0  0  0
   57.9420   33.2770   47.4360 C   0  0  0  0  0  0  0  0  0  0  0  0
   59.0110   33.6630   48.2500 C   0  0  0  0  0  0  0  0  0  0  0  0
   60.1630   34.2130   47.6810 C   0  0  0  0  0  0  0  0  0  0  0  0
   61.1950   34.5950   48.4720 F   0  0  0  0  0  0  0  0  0  0  0  0
   60.2460   34.3810   46.2960 C   0  0  0  0  0  0  0  0  0  0  0  0
   59.1830   33.9910   45.4760 C   0  0  0  0  0  0  0  0  0  0  0  0
   56.6050   28.5620   45.3770 C   0  0  0  0  0  0  0  0  0  0  0  0
   55.3750   29.2090   45.2260 O   0  0  0  0  0  0  0  0  0  0  0  0
   56.6650   27.2150   45.7700 C   0  0  0  0  0  0  0  0  0  0  0  0
   55.5880   26.5920   45.9820 O   0  0  0  0  0  0  0  0  0  0  0  0
   57.9285   25.1314   47.4541 H   0  0  0  0  0  0  0  0  0  0  0  0
   57.0469   24.6405   45.9680 H   0  0  0  0  0  0  0  0  0  0  0  0
   58.8421   24.7030   45.9680 H   0  0  0  0  0  0  0  0  0  0  0  0
   60.3450   25.5807   45.3744 H   0  0  0  0  0  0  0  0  0  0  0  0
   61.1071   27.1822   45.0718 H   0  0  0  0  0  0  0  0  0  0  0  0
   57.8574   28.6474   48.2330 H   0  0  0  0  0  0  0  0  0  0  0  0
   57.7631   30.9869   49.0846 H   0  0  0  0  0  0  0  0  0  0  0  0
   59.7994   32.0626   50.0364 H   0  0  0  0  0  0  0  0  0  0  0  0
   61.9887   31.8847   50.8360 H   0  0  0  0  0  0  0  0  0  0  0  0
   62.7494   30.2495   51.0019 H   0  0  0  0  0  0  0  0  0  0  0  0
   64.1956   32.3871   50.8390 H   0  0  0  0  0  0  0  0  0  0  0  0
   65.1963   32.1704   49.3383 H   0  0  0  0  0  0  0  0  0  0  0  0
   62.7571   33.9903   49.6101 H   0  0  0  0  0  0  0  0  0  0  0  0
   64.4961   34.5072   49.6133 H   0  0  0  0  0  0  0  0  0  0  0  0
   63.0230   34.5300   47.4820 H   0  0  0  0  0  0  0  0  0  0  0  0
   62.9646   32.7476   46.1575 H   0  0  0  0  0  0  0  0  0  0  0  0
   64.4497   32.0513   46.9343 H   0  0  0  0  0  0  0  0  0  0  0  0
   61.6641   32.1468   48.1848 H   0  0  0  0  0  0  0  0  0  0  0  0
   62.4561   30.7007   47.4279 H   0  0  0  0  0  0  0  0  0  0  0  0
   62.0568   28.4454   49.2840 H   0  0  0  0  0  0  0  0  0  0  0  0
   57.0047   33.4561   44.1628 H   0  0  0  0  0  0  0  0  0  0  0  0
   55.9320   33.4490   45.6070 H   0  0  0  0  0  0  0  0  0  0  0  0
   57.0352   32.8490   47.8883 H   0  0  0  0  0  0  0  0  0  0  0  0
   58.9453   33.5336   49.3404 H   0  0  0  0  0  0  0  0  0  0  0  0
   61.1500   34.8212   45.8500 H   0  0  0  0  0  0  0  0  0  0  0  0
   59.2550   34.1202   44.3860 H   0  0  0  0  0  0  0  0  0  0  0  0
   55.1930   30.1250   45.6160 H   0  0  0  0  0  0  0  0  0  0  0  0
  1  2  1  0
  2  3  1  0
  3  4  1  0
  4  5  1  0
  5  6  1  0
  6  7  2  0
  6  8  1  0
  8  9  2  0
  9 10  1  0
 10 11  2  0
 11 12  1  0
 12 13  1  0
 13 14  1  0
 14 15  1  0
 15 16  1  0
 16 17  1  0
 17 18  1  0
 18 19  1  0
 12 20  2  0
  3 21  2  0
 21 22  1  0
 22 23  1  0
 23 24  2  0
 23 25  1  0
 25 26  1  0
 26 27  1  0
 27 28  2  0
 28 29  1  0
 29 30  2  0
 30 31  1  0
 30 32  1  0
 32 33  2  0
 22 34  2  0
 34 35  1  0
 34 36  1  0
 36 37  2  0
 36  2  1  0
 20  8  1  0
 33 27  1  0
 19 14  1  0
  1 38  1  0
  1 39  1  0
  1 40  1  0
  4 41  1  0
  4 42  1  0
  9 43  1  0
 10 44  1  0
 11 45  1  0
 13 46  1  0
 13 47  1  0
 15 48  1  0
 15 49  1  0
 16 50  1  0
 16 51  1  0
 17 52  1  0
 18 53  1  0
 18 54  1  0
 19 55  1  0
 19 56  1  0
 20 57  1  0
 26 58  1  0
 26 59  1  0
 28 60  1  0
 29 61  1  0
 32 62  1  0
 33 63  1  0
 35 64  1  0
M  CHG  2   5  -1  25  -1
M  END
>  <UniqueID>  (30) 
28

>  <SMILES>  (30) 
Cn1c(C[N-]C(=O)c2cccc(CN3CCNCC3)c2)nc(C(=O)[N-]Cc2ccc(F)cc2)c(O)c1=O

>  <Energy>  (30) 
77.92512241978648

>  <Genealogy>  (30) 
Cn1c(C[N-]C(=O)c2cccc(CN3CCNCC3)c2)nc(C(=O)[N-]Cc2ccc(F)cc2)c(O)c1=O (protonated)
Cn1c(C[N-]C(=O)c2cccc(CN3CCNCC3)c2)nc(C(=O)[N-]Cc2ccc(F)cc2)c(O)c1=O (3D coordinates assigned)
Cn1c(C[N-]C(=O)c2cccc(CN3CCNCC3)c2)nc(C(=O)[N-]Cc2ccc(F)cc2)c(O)c1=O (nonaromatic ring conformer: 77.92512241978648 kcal/mol)

>  <smiles>  (30) 
Cn1c(CNC(=O)c2cccc(CN3CCNCC3)c2)nc(C(=O)NCc2ccc(F)cc2)c(O)c1=O

>  <score_type>  (30) 
oracle

>  <origin>  (30) 
adg

>  <m_score__min__energy>  (30) 
-12.09

>  <m_primary>  (30) 
energy

$$$$
30:0
     RDKit          3D

 38 40  0  0  1  0  0  0  0  0999 V2000
   55.5120   29.7590   43.3870 C   0  0  0  0  0  0  0  0  0  0  0  0
   56.6920   29.2880   44.1680 C   0  0  0  0  0  0  0  0  0  0  0  0
   57.0630   29.8540   45.3340 N   0  0  0  0  0  0  0  0  0  0  0  0
   58.1240   29.4280   46.0320 C   0  0  0  0  0  0  0  0  0  0  0  0
   58.4830   29.9700   47.1510 N   0  0  0  0  0  0  0  0  0  0  0  0
   59.8640   31.0070   47.2320 S   0  0  0  0  0  0  0  0  0  0  0  0
   60.4560   31.0350   48.5950 O   0  0  0  0  0  0  0  0  0  0  0  0
   60.9100   30.3270   46.3550 O   0  0  0  0  0  0  0  0  0  0  0  0
   59.5520   32.5490   46.5230 C   0  0  0  0  0  0  0  0  0  0  0  0
   58.4560   32.6680   45.6850 C   0  0  0  0  0  0  0  0  0  0  0  0
   58.1240   33.8360   45.0360 C   0  0  0  0  0  0  0  0  0  0  0  0
   58.9060   34.9570   45.2100 C   0  0  0  0  0  0  0  0  0  0  0  0
   59.9980   34.8510   46.0400 C   0  0  0  0  0  0  0  0  0  0  0  0
   60.3270   33.6610   46.6970 C   0  0  0  0  0  0  0  0  0  0  0  0
   61.4700   33.6960   47.5650 C   0  0  0  0  0  0  0  0  0  0  0  0
   61.4990   34.1840   48.8470 C   0  0  0  0  0  0  0  0  0  0  0  0
   62.6420   34.1570   49.6410 C   0  0  0  0  0  0  0  0  0  0  0  0
   63.8190   33.6190   49.1390 C   0  0  0  0  0  0  0  0  0  0  0  0
   63.7980   33.1210   47.8360 C   0  0  0  0  0  0  0  0  0  0  0  0
   62.6610   33.1560   47.0660 C   0  0  0  0  0  0  0  0  0  0  0  0
   58.8350   28.3670   45.5000 C   0  0  0  0  0  0  0  0  0  0  0  0
   58.4720   27.7700   44.3050 C   0  0  0  0  0  0  0  0  0  0  0  0
   57.3920   28.2600   43.6660 N   0  0  0  0  0  0  0  0  0  0  0  0
   54.7175   30.0761   44.0785 H   0  0  0  0  0  0  0  0  0  0  0  0
   55.8070   30.6083   42.7532 H   0  0  0  0  0  0  0  0  0  0  0  0
   55.1411   28.9400   42.7532 H   0  0  0  0  0  0  0  0  0  0  0  0
   57.8186   31.7850   45.5301 H   0  0  0  0  0  0  0  0  0  0  0  0
   57.2399   33.8740   44.3826 H   0  0  0  0  0  0  0  0  0  0  0  0
   58.6657   35.9032   44.7032 H   0  0  0  0  0  0  0  0  0  0  0  0
   60.6356   35.7343   46.1925 H   0  0  0  0  0  0  0  0  0  0  0  0
   60.5781   34.6157   49.2660 H   0  0  0  0  0  0  0  0  0  0  0  0
   62.6126   34.5610   50.6637 H   0  0  0  0  0  0  0  0  0  0  0  0
   64.7353   33.5865   49.7467 H   0  0  0  0  0  0  0  0  0  0  0  0
   64.7170   32.6885   47.4137 H   0  0  0  0  0  0  0  0  0  0  0  0
   62.6869   32.7538   46.0425 H   0  0  0  0  0  0  0  0  0  0  0  0
   59.7136   27.9871   46.0420 H   0  0  0  0  0  0  0  0  0  0  0  0
   59.0445   26.9263   43.8922 H   0  0  0  0  0  0  0  0  0  0  0  0
   57.1430   27.7840   42.7580 H   0  0  0  0  0  0  0  0  0  0  0  0
  1  2  1  0
  2  3  2  0
  3  4  1  0
  4  5  2  0
  5  6  1  0
  6  7  2  0
  6  8  2  0
  6  9  1  0
  9 10  2  0
 10 11  1  0
 11 12  2  0
 12 13  1  0
 13 14  2  0
 14 15  1  0
 15 16  2  0
 16 17  1  0
 17 18  2  0
 18 19  1  0
 19 20  2  0
  4 21  1  0
 21 22  2  0
 22 23  1  0
 23  2  1  0
 14  9  1  0
 20 15  1  0
  1 24  1  0
  1 25  1  0
  1 26  1  0
 10 27  1  0
 11 28  1  0
 12 29  1  0
 13 30  1  0
 16 31  1  0
 17 32  1  0
 18 33  1  0
 19 34  1  0
 20 35  1  0
 21 36  1  0
 22 37  1  0
 23 38  1  0
M  END
>  <smiles>  (31) 
Cc1nc(=NS(=O)(=O)c2ccccc2-c2ccccc2)cc[nH]1

>  <score_type>  (31) 
oracle

>  <origin>  (31) 
adg

>  <m_score__min__energy>  (31) 
-8.2699999999999996

>  <m_primary>  (31) 
energy

$$$$
31:0
     RDKit          3D

 74 78  0  0  0  0  0  0  0  0999 V2000
   63.1870   32.8610   52.7190 O   0  0  0  0  0  0  0  0  0  0  0  0
   63.0870   33.5270   51.6520 C   0  0  0  0  0  0  0  0  0  0  0  0
   61.7210   33.7650   51.0600 C   0  0  0  0  0  0  0  0  0  0  0  0
   60.9130   32.5030   51.0360 C   0  0  0  0  0  0  0  0  0  0  0  0
   59.5980   32.4320   51.4990 C   0  0  0  0  0  0  0  0  0  0  0  0
   59.0500   30.8570   51.2670 S   0  0  0  0  0  0  0  0  0  0  0  0
   60.5100   30.3400   50.5860 C   0  0  0  0  0  0  0  0  0  0  0  0
   60.7640   29.1540   50.1120 N   0  0  0  0  0  0  0  0  0  0  0  0
   60.0700   28.5050   49.0350 C   0  0  0  0  0  0  0  0  0  0  0  0
   58.8360   28.9870   48.5620 C   0  0  0  0  0  0  0  0  0  0  0  0
   58.1560   28.3090   47.5460 C   0  0  0  0  0  0  0  0  0  0  0  0
   58.6930   27.1360   47.0010 C   0  0  0  0  0  0  0  0  0  0  0  0
   57.8260   26.2870   45.7230 S   0  0  0  0  0  0  0  0  0  0  0  0
   56.4390   25.9320   46.1870 O   0  0  0  0  0  0  0  0  0  0  0  0
   58.5590   25.0100   45.4090 O   0  0  0  0  0  0  0  0  0  0  0  0
   57.7380   27.2510   44.2760 N   0  0  0  0  0  0  0  0  0  0  0  0
   57.5310   28.6810   44.5860 C   0  0  0  0  0  0  0  0  0  0  0  0
   56.5590   29.3330   43.5760 C   0  0  0  0  0  0  0  0  0  0  0  0
   56.6530   30.8740   43.5640 C   0  0  0  0  0  0  0  0  0  0  0  0
   57.3050   31.3720   44.7920 N   0  0  0  0  0  0  0  0  0  0  0  0
   57.2330   32.8460   44.8710 C   0  0  0  0  0  0  0  0  0  0  0  0
   58.0660   33.3580   46.0170 C   0  0  0  0  0  0  0  0  0  0  0  0
   58.8180   34.5370   45.8690 C   0  0  0  0  0  0  0  0  0  0  0  0
   59.5870   35.0220   46.9330 C   0  0  0  0  0  0  0  0  0  0  0  0
   59.6120   34.3340   48.1490 C   0  0  0  0  0  0  0  0  0  0  0  0
   58.8690   33.1600   48.3040 C   0  0  0  0  0  0  0  0  0  0  0  0
   58.0980   32.6740   47.2440 C   0  0  0  0  0  0  0  0  0  0  0  0
   58.7180   30.9290   44.8350 C   0  0  0  0  0  0  0  0  0  0  0  0
   58.8770   29.4210   44.5390 C   0  0  0  0  0  0  0  0  0  0  0  0
   59.9000   26.6290   47.5020 C   0  0  0  0  0  0  0  0  0  0  0  0
   60.5780   27.3050   48.5240 C   0  0  0  0  0  0  0  0  0  0  0  0
   61.4090   31.3450   50.5180 N   0  0  0  0  0  0  0  0  0  0  0  0
   64.2740   34.1130   51.1020 N   0  0  0  0  0  0  0  0  0  0  0  0
   65.3340   33.4050   50.3960 C   0  0  0  0  0  0  0  0  0  0  0  0
   64.7840   32.1270   49.7560 C   0  0  0  0  0  0  0  0  0  0  0  0
   63.8530   32.4580   48.6220 C   0  0  0  0  0  0  0  0  0  0  0  0
   62.9220   31.5070   48.1660 C   0  0  0  0  0  0  0  0  0  0  0  0
   62.0410   31.8250   47.1270 C   0  0  0  0  0  0  0  0  0  0  0  0
   62.0760   33.0950   46.5430 C   0  0  0  0  0  0  0  0  0  0  0  0
   62.9840   34.0520   47.0040 C   0  0  0  0  0  0  0  0  0  0  0  0
   63.8670   33.7380   48.0430 C   0  0  0  0  0  0  0  0  0  0  0  0
   61.1938   34.5171   51.6653 H   0  0  0  0  0  0  0  0  0  0  0  0
   61.8464   34.1178   50.0257 H   0  0  0  0  0  0  0  0  0  0  0  0
   59.0213   33.2594   51.9381 H   0  0  0  0  0  0  0  0  0  0  0  0
   58.4040   29.9019   48.9937 H   0  0  0  0  0  0  0  0  0  0  0  0
   57.1967   28.6978   47.1737 H   0  0  0  0  0  0  0  0  0  0  0  0
   56.9170   26.8750   43.7430 H   0  0  0  0  0  0  0  0  0  0  0  0
   57.0946   28.7535   45.5931 H   0  0  0  0  0  0  0  0  0  0  0  0
   56.7954   28.9587   42.5690 H   0  0  0  0  0  0  0  0  0  0  0  0
   55.5364   29.0661   43.8811 H   0  0  0  0  0  0  0  0  0  0  0  0
   57.2404   31.1922   42.6900 H   0  0  0  0  0  0  0  0  0  0  0  0
   55.6350   31.2877   43.5142 H   0  0  0  0  0  0  0  0  0  0  0  0
   57.6080   33.2769   43.9310 H   0  0  0  0  0  0  0  0  0  0  0  0
   56.1860   33.1412   45.0346 H   0  0  0  0  0  0  0  0  0  0  0  0
   58.8018   35.0804   44.9128 H   0  0  0  0  0  0  0  0  0  0  0  0
   60.1722   35.9455   46.8120 H   0  0  0  0  0  0  0  0  0  0  0  0
   60.2166   34.7163   48.9846 H   0  0  0  0  0  0  0  0  0  0  0  0
   58.8911   32.6181   49.2610 H   0  0  0  0  0  0  0  0  0  0  0  0
   57.5132   31.7511   47.3712 H   0  0  0  0  0  0  0  0  0  0  0  0
   59.2883   31.4972   44.0854 H   0  0  0  0  0  0  0  0  0  0  0  0
   59.0932   31.1101   45.8531 H   0  0  0  0  0  0  0  0  0  0  0  0
   59.3143   29.2998   43.5370 H   0  0  0  0  0  0  0  0  0  0  0  0
   59.5296   28.9895   45.3123 H   0  0  0  0  0  0  0  0  0  0  0  0
   60.3159   25.6972   47.0911 H   0  0  0  0  0  0  0  0  0  0  0  0
   61.5141   26.8910   48.9270 H   0  0  0  0  0  0  0  0  0  0  0  0
   65.7450   34.0564   49.6106 H   0  0  0  0  0  0  0  0  0  0  0  0
   66.1235   33.1353   51.1129 H   0  0  0  0  0  0  0  0  0  0  0  0
   65.6216   31.5263   49.3718 H   0  0  0  0  0  0  0  0  0  0  0  0
   64.2266   31.5619   50.5176 H   0  0  0  0  0  0  0  0  0  0  0  0
   62.8867   30.5095   48.6283 H   0  0  0  0  0  0  0  0  0  0  0  0
   61.3200   31.0753   46.7691 H   0  0  0  0  0  0  0  0  0  0  0  0
   61.3885   33.3409   45.7203 H   0  0  0  0  0  0  0  0  0  0  0  0
   63.0046   35.0535   46.5495 H   0  0  0  0  0  0  0  0  0  0  0  0
   64.5751   34.4965   48.4080 H   0  0  0  0  0  0  0  0  0  0  0  0
  1  2  2  0
  2  3  1  0
  3  4  1  0
  4  5  2  0
  5  6  1  0
  6  7  1  0
  7  8  2  3
  8  9  1  0
  9 10  2  0
 10 11  1  0
 11 12  2  0
 12 13  1  0
 13 14  2  0
 13 15  2  0
 13 16  1  0
 16 17  1  0
 17 18  1  0
 18 19  1  0
 19 20  1  0
 20 21  1  0
 21 22  1  0
 22 23  2  0
 23 24  1  0
 24 25  2  0
 25 26  1  0
 26 27  2  0
 20 28  1  0
 28 29  1  0
 12 30  1  0
 30 31  2  0
  7 32  1  0
  2 33  1  0
 33 34  1  0
 34 35  1  0
 35 36  1  0
 36 37  2  0
 37 38  1  0
 38 39  2  0
 39 40  1  0
 40 41  2  0
 32  4  1  0
 41 36  1  0
 31  9  1  0
 29 17  1  0
 27 22  1  0
  3 42  1  0
  3 43  1  0
  5 44  1  0
 10 45  1  0
 11 46  1  0
 16 47  1  0
 17 48  1  0
 18 49  1  0
 18 50  1  0
 19 51  1  0
 19 52  1  0
 21 53  1  0
 21 54  1  0
 23 55  1  0
 24 56  1  0
 25 57  1  0
 26 58  1  0
 27 59  1  0
 28 60  1  0
 28 61  1  0
 29 62  1  0
 29 63  1  0
 30 64  1  0
 31 65  1  0
 34 66  1  0
 34 67  1  0
 35 68  1  0
 35 69  1  0
 37 70  1  0
 38 71  1  0
 39 72  1  0
 40 73  1  0
 41 74  1  0
M  CHG  2  32  -1  33  -1
M  END
>  <UniqueID>  (32) 
29

>  <SMILES>  (32) 
O=C(Cc1csc(=Nc2ccc(S(=O)(=O)NC3CCN(Cc4ccccc4)CC3)cc2)[n-]1)[N-]CCc1ccccc1

>  <Energy>  (32) 
116.70184301351898

>  <Genealogy>  (32) 
O=C(Cc1csc(=Nc2ccc(S(=O)(=O)NC3CCN(Cc4ccccc4)CC3)cc2)[n-]1)[N-]CCc1ccccc1 (protonated)
O=C(Cc1csc(=Nc2ccc(S(=O)(=O)NC3CCN(Cc4ccccc4)CC3)cc2)[n-]1)[N-]CCc1ccccc1 (3D coordinates assigned)
O=C(Cc1csc(=Nc2ccc(S(=O)(=O)NC3CCN(Cc4ccccc4)CC3)cc2)[n-]1)[N-]CCc1ccccc1 (nonaromatic ring conformer: 116.70184301351898 kcal/mol)

>  <smiles>  (32) 
O=C(Cc1csc(=Nc2ccc(S(=O)(=O)NC3CCN(Cc4ccccc4)CC3)cc2)[nH]1)NCCc1ccccc1

>  <score_type>  (32) 
oracle

>  <origin>  (32) 
adg

>  <m_score__min__energy>  (32) 
-13.779999999999999

>  <m_primary>  (32) 
energy

$$$$
32:0
     RDKit          3D

 54 56  0  0  0  0  0  0  0  0999 V2000
   56.2680   23.2270   43.0030 C   0  0  0  0  0  0  0  0  0  0  0  0
   56.7260   23.5290   44.2180 C   0  0  0  0  0  0  0  0  0  0  0  0
   57.0070   24.9460   44.6340 C   0  0  0  0  0  0  0  0  0  0  0  0
   55.7980   25.5360   45.8180 S   0  0  0  0  0  0  0  0  0  0  0  0
   56.2840   25.2660   47.2140 O   0  0  0  0  0  0  0  0  0  0  0  0
   54.4920   24.8200   45.6220 O   0  0  0  0  0  0  0  0  0  0  0  0
   55.5280   27.2390   45.6250 N   0  0  0  0  0  0  0  0  0  0  0  0
   56.5510   28.1940   45.3120 C   0  0  0  0  0  0  0  0  0  0  0  0
   56.2520   29.2370   44.4380 C   0  0  0  0  0  0  0  0  0  0  0  0
   57.2250   30.1850   44.1120 C   0  0  0  0  0  0  0  0  0  0  0  0
   58.5140   30.0800   44.6370 C   0  0  0  0  0  0  0  0  0  0  0  0
   58.8370   29.0290   45.4950 C   0  0  0  0  0  0  0  0  0  0  0  0
   60.4970   28.8130   46.0530 S   0  0  0  0  0  0  0  0  0  0  0  0
   60.7370   27.3440   46.2550 O   0  0  0  0  0  0  0  0  0  0  0  0
   61.4510   29.3230   45.0070 O   0  0  0  0  0  0  0  0  0  0  0  0
   60.7750   29.6690   47.5540 N   0  0  0  0  0  0  0  0  0  0  0  0
   59.5400   29.7070   48.3840 C   0  0  0  0  0  0  0  0  0  0  0  0
   58.8780   31.0960   48.3940 C   0  0  0  0  0  0  0  0  0  0  0  0
   59.8040   32.1290   48.9140 N   0  0  0  0  0  0  0  0  0  0  0  0
   59.3140   33.4850   48.5840 C   0  0  0  0  0  0  0  0  0  0  0  0
   58.8430   33.5320   47.1520 C   0  0  0  0  0  0  0  0  0  0  0  0
   57.4870   33.3060   46.8690 C   0  0  0  0  0  0  0  0  0  0  0  0
   57.0250   33.3710   45.5530 C   0  0  0  0  0  0  0  0  0  0  0  0
   57.9090   33.6700   44.5110 C   0  0  0  0  0  0  0  0  0  0  0  0
   59.2610   33.8970   44.7840 C   0  0  0  0  0  0  0  0  0  0  0  0
   59.7310   33.8250   46.0970 C   0  0  0  0  0  0  0  0  0  0  0  0
   61.0500   34.0510   46.3380 F   0  0  0  0  0  0  0  0  0  0  0  0
   61.2150   31.9230   48.4880 C   0  0  0  0  0  0  0  0  0  0  0  0
   61.3280   31.0080   47.2590 C   0  0  0  0  0  0  0  0  0  0  0  0
   57.8500   28.0900   45.8380 C   0  0  0  0  0  0  0  0  0  0  0  0
   56.0736   22.1784   42.7335 H   0  0  0  0  0  0  0  0  0  0  0  0
   56.0845   24.0264   42.2700 H   0  0  0  0  0  0  0  0  0  0  0  0
   56.9037   22.7166   44.9380 H   0  0  0  0  0  0  0  0  0  0  0  0
   58.0066   24.9927   45.0907 H   0  0  0  0  0  0  0  0  0  0  0  0
   56.9542   25.5847   43.7400 H   0  0  0  0  0  0  0  0  0  0  0  0
   55.2449   29.3144   44.0025 H   0  0  0  0  0  0  0  0  0  0  0  0
   56.9742   31.0178   43.4386 H   0  0  0  0  0  0  0  0  0  0  0  0
   59.2766   30.8277   44.3735 H   0  0  0  0  0  0  0  0  0  0  0  0
   61.5070   29.1430   48.0850 H   0  0  0  0  0  0  0  0  0  0  0  0
   58.8221   28.9772   47.9815 H   0  0  0  0  0  0  0  0  0  0  0  0
   59.8256   29.4659   49.4186 H   0  0  0  0  0  0  0  0  0  0  0  0
   58.5853   31.3610   47.3673 H   0  0  0  0  0  0  0  0  0  0  0  0
   57.9970   31.0564   49.0514 H   0  0  0  0  0  0  0  0  0  0  0  0
   58.4776   33.7418   49.2507 H   0  0  0  0  0  0  0  0  0  0  0  0
   60.1339   34.2062   48.7170 H   0  0  0  0  0  0  0  0  0  0  0  0
   56.7867   33.0772   47.6858 H   0  0  0  0  0  0  0  0  0  0  0  0
   55.9627   33.1865   45.3350 H   0  0  0  0  0  0  0  0  0  0  0  0
   57.5401   33.7265   43.4763 H   0  0  0  0  0  0  0  0  0  0  0  0
   59.9552   34.1325   43.9639 H   0  0  0  0  0  0  0  0  0  0  0  0
   61.6562   32.9003   48.2426 H   0  0  0  0  0  0  0  0  0  0  0  0
   61.7485   31.4370   49.3182 H   0  0  0  0  0  0  0  0  0  0  0  0
   60.7684   31.4541   46.4236 H   0  0  0  0  0  0  0  0  0  0  0  0
   62.3899   30.9020   46.9925 H   0  0  0  0  0  0  0  0  0  0  0  0
   58.0961   27.2663   46.5242 H   0  0  0  0  0  0  0  0  0  0  0  0
  1  2  2  0
  2  3  1  0
  3  4  1  0
  4  5  2  0
  4  6  2  0
  4  7  1  0
  7  8  1  0
  8  9  2  0
  9 10  1  0
 10 11  2  0
 11 12  1  0
 12 13  1  0
 13 14  2  0
 13 15  2  0
 13 16  1  0
 16 17  1  0
 17 18  1  0
 18 19  1  0
 19 20  1  0
 20 21  1  0
 21 22  2  0
 22 23  1  0
 23 24  2  0
 24 25  1  0
 25 26  2  0
 26 27  1  0
 19 28  1  0
 28 29  1  0
 12 30  2  0
 30  8  1  0
 29 16  1  0
 26 21  1  0
  1 31  1  0
  1 32  1  0
  2 33  1  0
  3 34  1  0
  3 35  1  0
  9 36  1  0
 10 37  1  0
 11 38  1  0
 16 39  1  0
 17 40  1  0
 17 41  1  0
 18 42  1  0
 18 43  1  0
 20 44  1  0
 20 45  1  0
 22 46  1  0
 23 47  1  0
 24 48  1  0
 25 49  1  0
 28 50  1  0
 28 51  1  0
 29 52  1  0
 29 53  1  0
 30 54  1  0
M  CHG  2   7  -1  16   1
M  END
>  <UniqueID>  (33) 
30

>  <SMILES>  (33) 
C=CCS(=O)(=O)[N-]c1cccc(S(=O)(=O)[NH+]2CCN(Cc3ccccc3F)CC2)c1

>  <Energy>  (33) 
64.65398287209932

>  <Genealogy>  (33) 
C=CCS(=O)(=O)[N-]c1cccc(S(=O)(=O)[NH+]2CCN(Cc3ccccc3F)CC2)c1 (protonated)
C=CCS(=O)(=O)[N-]c1cccc(S(=O)(=O)[NH+]2CCN(Cc3ccccc3F)CC2)c1 (3D coordinates assigned)
C=CCS(=O)(=O)[N-]c1cccc(S(=O)(=O)[NH+]2CCN(Cc3ccccc3F)CC2)c1 (nonaromatic ring conformer: 64.65398287209932 kcal/mol)

>  <smiles>  (33) 
C=CCS(=O)(=O)Nc1cccc(S(=O)(=O)N2CCN(Cc3ccccc3F)CC2)c1

>  <score_type>  (33) 
oracle

>  <origin>  (33) 
adg

>  <m_score__min__energy>  (33) 
-10.1

>  <m_primary>  (33) 
energy

$$$$
33:0
     RDKit          3D

 57 60  0  0  0  0  0  0  0  0999 V2000
   60.2820   21.8230   45.4820 N   0  0  0  0  0  0  0  0  0  0  0  0
   58.6130   22.2080   45.2470 S   0  0  0  0  0  0  0  0  0  0  0  0
   58.1210   21.5560   43.9860 O   0  0  0  0  0  0  0  0  0  0  0  0
   57.8100   21.6830   46.4050 O   0  0  0  0  0  0  0  0  0  0  0  0
   58.4200   23.9540   45.1310 C   0  0  0  0  0  0  0  0  0  0  0  0
   57.6580   24.5120   44.0960 C   0  0  0  0  0  0  0  0  0  0  0  0
   57.4910   25.8970   44.0110 C   0  0  0  0  0  0  0  0  0  0  0  0
   58.0810   26.7470   44.9650 C   0  0  0  0  0  0  0  0  0  0  0  0
   57.9050   28.2190   44.8760 C   0  0  0  0  0  0  0  0  0  0  0  0
   56.6670   28.7710   44.5020 C   0  0  0  0  0  0  0  0  0  0  0  0
   56.5020   30.1550   44.4230 C   0  0  0  0  0  0  0  0  0  0  0  0
   57.5680   31.0170   44.7230 C   0  0  0  0  0  0  0  0  0  0  0  0
   57.3890   32.5200   44.6360 C   0  0  0  0  0  0  0  0  0  0  0  0
   58.3390   33.2890   45.4700 N   0  0  0  0  0  0  0  0  0  0  0  0
   58.1020   33.1390   46.9200 C   0  0  0  0  0  0  0  0  0  0  0  0
   58.9840   34.1040   47.7440 C   0  0  0  0  0  0  0  0  0  0  0  0
   60.1390   34.6190   46.9770 N   0  0  0  0  0  0  0  0  0  0  0  0
   61.1650   33.5860   46.7100 C   0  0  0  0  0  0  0  0  0  0  0  0
   62.1950   33.5570   47.8100 C   0  0  0  0  0  0  0  0  0  0  0  0
   63.5120   33.1440   47.5460 C   0  0  0  0  0  0  0  0  0  0  0  0
   64.4560   33.1020   48.5760 C   0  0  0  0  0  0  0  0  0  0  0  0
   64.0920   33.4670   49.8760 C   0  0  0  0  0  0  0  0  0  0  0  0
   62.7830   33.8740   50.1470 C   0  0  0  0  0  0  0  0  0  0  0  0
   62.4310   34.2250   51.4080 F   0  0  0  0  0  0  0  0  0  0  0  0
   61.8360   33.9180   49.1190 C   0  0  0  0  0  0  0  0  0  0  0  0
   59.7060   35.3260   45.7460 C   0  0  0  0  0  0  0  0  0  0  0  0
   58.4580   34.7030   45.0870 C   0  0  0  0  0  0  0  0  0  0  0  0
   58.8090   30.4690   45.0810 C   0  0  0  0  0  0  0  0  0  0  0  0
   58.9760   29.0840   45.1620 C   0  0  0  0  0  0  0  0  0  0  0  0
   58.8380   26.1790   46.0050 C   0  0  0  0  0  0  0  0  0  0  0  0
   59.0030   24.7930   46.0880 C   0  0  0  0  0  0  0  0  0  0  0  0
   60.8070   22.2450   44.6840 H   0  0  0  0  0  0  0  0  0  0  0  0
   60.3710   20.7860   45.3860 H   0  0  0  0  0  0  0  0  0  0  0  0
   57.1891   23.8570   43.3469 H   0  0  0  0  0  0  0  0  0  0  0  0
   56.8941   26.3258   43.1926 H   0  0  0  0  0  0  0  0  0  0  0  0
   55.8215   28.1068   44.2697 H   0  0  0  0  0  0  0  0  0  0  0  0
   55.5295   30.5728   44.1235 H   0  0  0  0  0  0  0  0  0  0  0  0
   57.5245   32.8243   43.5876 H   0  0  0  0  0  0  0  0  0  0  0  0
   56.3807   32.7426   45.0151 H   0  0  0  0  0  0  0  0  0  0  0  0
   57.0441   33.3528   47.1327 H   0  0  0  0  0  0  0  0  0  0  0  0
   58.3600   32.1086   47.2058 H   0  0  0  0  0  0  0  0  0  0  0  0
   58.3673   34.9562   48.0657 H   0  0  0  0  0  0  0  0  0  0  0  0
   59.3800   33.5408   48.6019 H   0  0  0  0  0  0  0  0  0  0  0  0
   60.6777   32.6019   46.6463 H   0  0  0  0  0  0  0  0  0  0  0  0
   61.6686   33.8263   45.7620 H   0  0  0  0  0  0  0  0  0  0  0  0
   63.8010   32.8528   46.5254 H   0  0  0  0  0  0  0  0  0  0  0  0
   65.4866   32.7814   48.3637 H   0  0  0  0  0  0  0  0  0  0  0  0
   64.8362   33.4337   50.6853 H   0  0  0  0  0  0  0  0  0  0  0  0
   60.8058   34.2366   49.3364 H   0  0  0  0  0  0  0  0  0  0  0  0
   59.4782   36.3703   46.0058 H   0  0  0  0  0  0  0  0  0  0  0  0
   60.5291   35.2474   45.0205 H   0  0  0  0  0  0  0  0  0  0  0  0
   57.5613   35.2468   45.4188 H   0  0  0  0  0  0  0  0  0  0  0  0
   58.5544   34.7736   43.9935 H   0  0  0  0  0  0  0  0  0  0  0  0
   59.6570   31.1347   45.2996 H   0  0  0  0  0  0  0  0  0  0  0  0
   59.9521   28.6676   45.4515 H   0  0  0  0  0  0  0  0  0  0  0  0
   59.3040   26.8301   46.7592 H   0  0  0  0  0  0  0  0  0  0  0  0
   59.5935   24.3600   46.9089 H   0  0  0  0  0  0  0  0  0  0  0  0
  1  2  1  0
  2  3  2  0
  2  4  2  0
  2  5  1  0
  5  6  2  0
  6  7  1  0
  7  8  2  0
  8  9  1  0
  9 10  2  0
 10 11  1  0
 11 12  2  0
 12 13  1  0
 13 14  1  0
 14 15  1  0
 15 16  1  0
 16 17  1  0
 17 18  1  0
 18 19  1  0
 19 20  2  0
 20 21  1  0
 21 22  2  0
 22 23  1  0
 23 24  1  0
 23 25  2  0
 17 26  1  0
 26 27  1  0
 12 28  1  0
 28 29  2  0
  8 30  1  0
 30 31  2  0
 31  5  1  0
 29  9  1  0
 27 14  1  0
 25 19  1  0
  1 32  1  0
  1 33  1  0
  6 34  1  0
  7 35  1  0
 10 36  1  0
 11 37  1  0
 13 38  1  0
 13 39  1  0
 15 40  1  0
 15 41  1  0
 16 42  1  0
 16 43  1  0
 18 44  1  0
 18 45  1  0
 20 46  1  0
 21 47  1  0
 22 48  1  0
 25 49  1  0
 26 50  1  0
 26 51  1  0
 27 52  1  0
 27 53  1  0
 28 54  1  0
 29 55  1  0
 30 56  1  0
 31 57  1  0
M  END
>  <UniqueID>  (34) 
31

>  <SMILES>  (34) 
NS(=O)(=O)c1ccc(-c2ccc(CN3CCN(Cc4cccc(F)c4)CC3)cc2)cc1

>  <Energy>  (34) 
78.43531623094982

>  <Genealogy>  (34) 
NS(=O)(=O)c1ccc(-c2ccc(CN3CCN(Cc4cccc(F)c4)CC3)cc2)cc1 (3D coordinates assigned)
NS(=O)(=O)c1ccc(-c2ccc(CN3CCN(Cc4cccc(F)c4)CC3)cc2)cc1 (nonaromatic ring conformer: 78.43531623094982 kcal/mol)

>  <smiles>  (34) 
NS(=O)(=O)c1ccc(-c2ccc(CN3CCN(Cc4cccc(F)c4)CC3)cc2)cc1

>  <score_type>  (34) 
oracle

>  <origin>  (34) 
adg

>  <m_score__min__energy>  (34) 
-10.619999999999999

>  <m_primary>  (34) 
energy

$$$$
34:0
     RDKit          3D

 43 45  0  0  0  0  0  0  0  0999 V2000
   56.9060   26.7010   42.9330 H   0  0  0  0  0  0  0  0  0  0  0  0
   57.7240   27.0860   43.3410 O   0  0  0  0  0  0  0  0  0  0  0  0
   57.3470   27.8260   44.4810 C   0  0  2  0  0  0  0  0  0  0  0  0
   56.4227   27.3380   44.8239 H   0  0  0  0  0  0  0  0  0  0  0  0
   57.1900   29.2950   44.1490 C   0  0  1  0  0  0  0  0  0  0  0  0
   56.9004   29.4848   43.1049 H   0  0  0  0  0  0  0  0  0  0  0  0
   56.1550   29.8870   44.9010 O   0  0  0  0  0  0  0  0  0  0  0  0
   55.8180   29.2180   45.5530 H   0  0  0  0  0  0  0  0  0  0  0  0
   58.5740   29.8680   44.4900 C   0  0  1  0  0  0  0  0  0  0  0  0
   59.1396   29.9727   43.5524 H   0  0  0  0  0  0  0  0  0  0  0  0
   58.4870   31.2200   45.0830 N   0  0  0  0  0  0  0  0  0  0  0  0
   57.9670   32.2610   44.3580 C   0  0  0  0  0  0  0  0  0  0  0  0
   57.5770   32.0940   43.1720 O   0  0  0  0  0  0  0  0  0  0  0  0
   57.8610   33.4900   44.9210 N   0  0  0  0  0  0  0  0  0  0  0  0
   58.2550   33.7090   46.1960 C   0  0  0  0  0  0  0  0  0  0  0  0
   58.1410   34.8590   46.6950 O   0  0  0  0  0  0  0  0  0  0  0  0
   58.7790   32.6480   46.9430 C   0  0  0  0  0  0  0  0  0  0  0  0
   59.1880   32.8380   48.3760 C   0  0  0  0  0  0  0  0  0  0  0  0
   58.3906   32.4676   49.0371 H   0  0  0  0  0  0  0  0  0  0  0  0
   60.1148   32.2782   48.5701 H   0  0  0  0  0  0  0  0  0  0  0  0
   59.3580   33.9073   48.5701 H   0  0  0  0  0  0  0  0  0  0  0  0
   58.8600   31.4200   46.3580 N   0  0  0  0  0  0  0  0  0  0  0  0
   59.2170   30.6220   46.9290 H   0  0  0  0  0  0  0  0  0  0  0  0
   59.2610   28.9780   45.3490 O   0  0  0  0  0  0  0  0  0  0  0  0
   58.4380   27.8510   45.5600 C   0  0  2  0  0  0  0  0  0  0  0  0
   57.9200   27.9048   46.5289 H   0  0  0  0  0  0  0  0  0  0  0  0
   59.3010   26.5770   45.6270 C   0  0  0  0  0  0  0  0  0  0  0  0
   59.3084   26.1011   44.6353 H   0  0  0  0  0  0  0  0  0  0  0  0
   60.3149   26.8707   45.9364 H   0  0  0  0  0  0  0  0  0  0  0  0
   58.7770   25.5910   46.6340 C   0  0  0  0  0  0  0  0  0  0  0  0
   59.4247   24.7663   46.9662 H   0  0  0  0  0  0  0  0  0  0  0  0
   57.5410   25.6940   47.1350 C   0  0  0  0  0  0  0  0  0  0  0  0
   57.3855   26.3241   48.0232 H   0  0  0  0  0  0  0  0  0  0  0  0
   56.3730   24.9990   46.5490 C   0  0  0  0  0  0  0  0  0  0  0  0
   55.2720   25.6850   45.9920 C   0  0  0  0  0  0  0  0  0  0  0  0
   55.2150   27.0740   45.9920 O   0  0  0  0  0  0  0  0  0  0  0  0
   54.2290   24.9850   45.4700 N   0  0  0  0  0  0  0  0  0  0  0  0
   54.1950   23.6270   45.4820 C   0  0  0  0  0  0  0  0  0  0  0  0
   53.2110   23.0200   44.9840 O   0  0  0  0  0  0  0  0  0  0  0  0
   55.2470   22.9080   46.0510 C   0  0  0  0  0  0  0  0  0  0  0  0
   55.2209   21.8085   46.0731 H   0  0  0  0  0  0  0  0  0  0  0  0
   56.3330   23.5990   46.5920 C   0  0  0  0  0  0  0  0  0  0  0  0
   57.1611   23.0417   47.0542 H   0  0  0  0  0  0  0  0  0  0  0  0
  1  2  1  0
  2  3  1  0
  3  4  1  1
  3  5  1  0
  5  6  1  6
  5  7  1  0
  7  8  1  0
  5  9  1  0
  9 10  1  6
  9 11  1  0
 11 12  1  0
 12 13  2  0
 12 14  1  0
 14 15  1  0
 15 16  2  0
 15 17  1  0
 17 18  1  0
 18 19  1  0
 18 20  1  0
 18 21  1  0
 17 22  2  0
 22 23  1  0
  9 24  1  0
 24 25  1  0
 25 26  1  1
 25 27  1  0
 27 28  1  0
 27 29  1  0
 27 30  1  0
 30 31  1  0
 30 32  2  0
 32 33  1  0
 32 34  1  0
 34 35  2  0
 35 36  1  0
 35 37  1  0
 37 38  1  0
 38 39  2  0
 38 40  1  0
 40 41  1  0
 40 42  2  0
 42 43  1  0
 25  3  1  0
 42 34  1  0
 22 11  1  0
M  CHG  4  14  -1  22   1  36  -1  37  -1
M  END
>  <UniqueID>  (35) 
32

>  <SMILES>  (35) 
Cc1[nH+]n([C@H]2O[C@H](C/C=C/c3ccc(=O)[n-]c3[O-])C(O)C2O)c(=O)[n-]c1=O

>  <Energy>  (35) 
56.61136522406863

>  <Genealogy>  (35) 
Cc1[nH+]n(C2OC(CC=Cc3ccc(=O)[n-]c3[O-])C(O)C2O)c(=O)[n-]c1=O (protonated)
Cc1[nH+]n([C@H]2O[C@H](CC=Cc3ccc(=O)[n-]c3[O-])C(O)C2O)c(=O)[n-]c1=O (chirality)
Cc1[nH+]n([C@H]2O[C@H](C/C=C/c3ccc(=O)[n-]c3[O-])C(O)C2O)c(=O)[n-]c1=O (cis-trans isomerization)
Cc1[nH+]n([C@H]2O[C@H](C/C=C/c3ccc(=O)[n-]c3[O-])C(O)C2O)c(=O)[n-]c1=O (3D coordinates assigned)
Cc1[nH+]n([C@H]2O[C@H](C/C=C/c3ccc(=O)[n-]c3[O-])C(O)C2O)c(=O)[n-]c1=O (nonaromatic ring conformer: 56.61136522406863 kcal/mol)

>  <smiles>  (35) 
Cc1nn(C2OC(CC=Cc3ccc(=O)[nH]c3O)C(O)C2O)c(=O)[nH]c1=O

>  <score_type>  (35) 
oracle

>  <origin>  (35) 
adg

>  <m_score__min__energy>  (35) 
-13.51

>  <m_primary>  (35) 
energy

$$$$
35:0
     RDKit          3D

 44 46  0  0  0  0  0  0  0  0999 V2000
   60.7080   28.1410   49.4790 C   0  0  0  0  0  0  0  0  0  0  0  0
   60.2880   29.4610   48.9270 C   0  0  0  0  0  0  0  0  0  0  0  0
   58.9720   29.7840   48.8690 N   0  0  0  0  0  0  0  0  0  0  0  0
   58.5700   31.0050   48.4330 C   0  0  0  0  0  0  0  0  0  0  0  0
   59.5130   31.9710   48.0550 C   0  0  0  0  0  0  0  0  0  0  0  0
   59.0350   33.3650   47.7240 C   0  0  0  0  0  0  0  0  0  0  0  0
   57.3860   33.3250   46.9260 S   0  0  0  0  0  0  0  0  0  0  0  0
   57.9460   33.4920   45.1940 C   0  0  0  0  0  0  0  0  0  0  0  0
   57.8810   32.1680   44.5040 C   0  0  0  0  0  0  0  0  0  0  0  0
   58.1400   32.0860   43.2740 O   0  0  0  0  0  0  0  0  0  0  0  0
   57.5170   31.0040   45.2520 N   0  0  0  0  0  0  0  0  0  0  0  0
   58.2790   29.7910   45.3340 C   0  0  0  0  0  0  0  0  0  0  0  0
   59.6750   29.9010   45.3110 C   0  0  0  0  0  0  0  0  0  0  0  0
   60.4800   28.7690   45.4350 C   0  0  0  0  0  0  0  0  0  0  0  0
   59.8960   27.5110   45.5710 C   0  0  0  0  0  0  0  0  0  0  0  0
   58.5070   27.3780   45.5590 C   0  0  0  0  0  0  0  0  0  0  0  0
   57.6780   28.5070   45.4140 C   0  0  0  0  0  0  0  0  0  0  0  0
   56.2180   28.2970   45.2710 C   0  0  0  0  0  0  0  0  0  0  0  0
   55.6250   27.0700   45.6940 N   0  0  0  0  0  0  0  0  0  0  0  0
   55.4920   29.1810   44.7440 O   0  0  0  0  0  0  0  0  0  0  0  0
   60.8780   31.6030   48.0890 C   0  0  0  0  0  0  0  0  0  0  0  0
   61.9210   32.5030   47.6940 N   0  0  0  0  0  0  0  0  0  0  0  0
   63.1580   32.5490   48.2220 C   0  0  0  0  0  0  0  0  0  0  0  0
   63.9290   33.4530   47.5200 C   0  0  0  0  0  0  0  0  0  0  0  0
   63.1310   33.9540   46.5100 C   0  0  0  0  0  0  0  0  0  0  0  0
   61.9030   33.3380   46.6360 C   0  0  0  0  0  0  0  0  0  0  0  0
   61.2250   30.3680   48.5460 N   0  0  0  0  0  0  0  0  0  0  0  0
   60.6949   28.1823   50.5781 H   0  0  0  0  0  0  0  0  0  0  0  0
   60.0136   27.3612   49.1330 H   0  0  0  0  0  0  0  0  0  0  0  0
   61.7253   27.9058   49.1330 H   0  0  0  0  0  0  0  0  0  0  0  0
   57.4965   31.2382   48.3759 H   0  0  0  0  0  0  0  0  0  0  0  0
   58.9710   33.9526   48.6517 H   0  0  0  0  0  0  0  0  0  0  0  0
   59.7504   33.8228   47.0249 H   0  0  0  0  0  0  0  0  0  0  0  0
   57.2968   34.2082   44.6691 H   0  0  0  0  0  0  0  0  0  0  0  0
   58.9852   33.8526   45.1845 H   0  0  0  0  0  0  0  0  0  0  0  0
   60.1413   30.8904   45.1939 H   0  0  0  0  0  0  0  0  0  0  0  0
   61.5754   28.8690   45.4255 H   0  0  0  0  0  0  0  0  0  0  0  0
   60.5315   26.6208   45.6881 H   0  0  0  0  0  0  0  0  0  0  0  0
   58.0549   26.3807   45.6639 H   0  0  0  0  0  0  0  0  0  0  0  0
   54.8220   27.0650   46.3620 H   0  0  0  0  0  0  0  0  0  0  0  0
   63.5022   31.9562   49.0823 H   0  0  0  0  0  0  0  0  0  0  0  0
   64.9757   33.7223   47.7249 H   0  0  0  0  0  0  0  0  0  0  0  0
   63.4185   34.6986   45.7531 H   0  0  0  0  0  0  0  0  0  0  0  0
   61.0404   33.5032   45.9738 H   0  0  0  0  0  0  0  0  0  0  0  0
  1  2  1  0
  2  3  2  0
  3  4  1  0
  4  5  2  0
  5  6  1  0
  6  7  1  0
  7  8  1  0
  8  9  1  0
  9 10  2  0
  9 11  1  0
 11 12  1  0
 12 13  2  0
 13 14  1  0
 14 15  2  0
 15 16  1  0
 16 17  2  0
 17 18  1  0
 18 19  1  0
 18 20  2  0
  5 21  1  0
 21 22  1  0
 22 23  1  0
 23 24  2  0
 24 25  1  0
 25 26  2  0
 21 27  2  0
 27  2  1  0
 17 12  1  0
 26 22  1  0
  1 28  1  0
  1 29  1  0
  1 30  1  0
  4 31  1  0
  6 32  1  0
  6 33  1  0
  8 34  1  0
  8 35  1  0
 13 36  1  0
 14 37  1  0
 15 38  1  0
 16 39  1  0
 19 40  1  0
 23 41  1  0
 24 42  1  0
 25 43  1  0
 26 44  1  0
M  CHG  2  11  -1  19  -1
M  END
>  <UniqueID>  (36) 
33

>  <SMILES>  (36) 
Cc1ncc(CSCC(=O)[N-]c2ccccc2C([NH-])=O)c(-n2cccc2)n1

>  <Energy>  (36) 
79.62682216530358

>  <Genealogy>  (36) 
Cc1ncc(CSCC(=O)[N-]c2ccccc2C([NH-])=O)c(-n2cccc2)n1 (protonated)
Cc1ncc(CSCC(=O)[N-]c2ccccc2C([NH-])=O)c(-n2cccc2)n1 (3D coordinates assigned)
Cc1ncc(CSCC(=O)[N-]c2ccccc2C([NH-])=O)c(-n2cccc2)n1 (optimized conformer: 79.62682216530358 kcal/mol)

>  <smiles>  (36) 
Cc1ncc(CSCC(=O)Nc2ccccc2C(N)=O)c(-n2cccc2)n1

>  <score_type>  (36) 
oracle

>  <origin>  (36) 
adg

>  <m_score__min__energy>  (36) 
-13.16

>  <m_primary>  (36) 
energy

$$$$
36:0
     RDKit          3D

 51 53  0  0  0  0  0  0  0  0999 V2000
   62.3140   29.6700   51.1900 C   0  0  0  0  0  0  0  0  0  0  0  0
   61.9360   30.4540   50.0190 N   0  0  0  0  0  0  0  0  0  0  0  0
   60.9740   30.0150   49.0420 C   0  0  0  0  0  0  0  0  0  0  0  0
   61.1570   30.3600   47.6940 C   0  0  0  0  0  0  0  0  0  0  0  0
   60.2380   29.9480   46.7240 C   0  0  0  0  0  0  0  0  0  0  0  0
   59.1250   29.1810   47.0870 C   0  0  0  0  0  0  0  0  0  0  0  0
   57.9600   28.6800   45.8660 S   0  0  0  0  0  0  0  0  0  0  0  0
   57.0360   27.6490   46.4520 O   0  0  0  0  0  0  0  0  0  0  0  0
   58.6960   28.0870   44.6970 O   0  0  0  0  0  0  0  0  0  0  0  0
   57.0580   30.0710   45.3600 N   0  0  0  0  0  0  0  0  0  0  0  0
   57.5450   31.4010   45.1030 C   0  0  0  0  0  0  0  0  0  0  0  0
   57.6130   31.8120   43.7710 C   0  0  0  0  0  0  0  0  0  0  0  0
   58.0800   33.0810   43.4480 C   0  0  0  0  0  0  0  0  0  0  0  0
   58.4780   33.9430   44.4640 C   0  0  0  0  0  0  0  0  0  0  0  0
   58.4090   33.5580   45.7750 N   0  0  0  0  0  0  0  0  0  0  0  0
   58.8760   34.4970   46.8100 C   0  0  0  0  0  0  0  0  0  0  0  0
   60.2650   34.1280   47.2600 C   0  0  0  0  0  0  0  0  0  0  0  0
   61.2630   33.8500   46.3140 C   0  0  0  0  0  0  0  0  0  0  0  0
   62.5450   33.4740   46.7260 C   0  0  0  0  0  0  0  0  0  0  0  0
   62.8430   33.3510   48.0950 C   0  0  0  0  0  0  0  0  0  0  0  0
   64.1590   32.9880   48.5470 N   0  0  0  0  0  0  0  0  0  0  0  0
   64.4790   32.6370   49.9020 C   0  0  0  0  0  0  0  0  0  0  0  0
   65.8320   32.0930   50.2290 C   0  0  0  0  0  0  0  0  0  0  0  0
   63.6610   32.8590   50.8350 O   0  0  0  0  0  0  0  0  0  0  0  0
   61.8490   33.6440   49.0390 C   0  0  0  0  0  0  0  0  0  0  0  0
   60.5670   34.0200   48.6270 C   0  0  0  0  0  0  0  0  0  0  0  0
   57.9590   32.3030   46.1120 C   0  0  0  0  0  0  0  0  0  0  0  0
   57.9170   31.9620   47.3240 O   0  0  0  0  0  0  0  0  0  0  0  0
   58.9310   28.8380   48.4320 C   0  0  0  0  0  0  0  0  0  0  0  0
   59.8490   29.2490   49.4030 C   0  0  0  0  0  0  0  0  0  0  0  0
   62.0475   30.2227   52.1029 H   0  0  0  0  0  0  0  0  0  0  0  0
   61.7807   28.7080   51.1749 H   0  0  0  0  0  0  0  0  0  0  0  0
   63.3988   29.4882   51.1749 H   0  0  0  0  0  0  0  0  0  0  0  0
   62.3930   31.3870   49.8940 H   0  0  0  0  0  0  0  0  0  0  0  0
   62.0306   30.9594   47.3981 H   0  0  0  0  0  0  0  0  0  0  0  0
   60.3904   30.2279   45.6712 H   0  0  0  0  0  0  0  0  0  0  0  0
   57.2949   31.1271   42.9712 H   0  0  0  0  0  0  0  0  0  0  0  0
   58.1343   33.4007   42.3969 H   0  0  0  0  0  0  0  0  0  0  0  0
   58.8526   34.9458   44.2107 H   0  0  0  0  0  0  0  0  0  0  0  0
   58.8869   35.5165   46.3971 H   0  0  0  0  0  0  0  0  0  0  0  0
   58.1949   34.4477   47.6724 H   0  0  0  0  0  0  0  0  0  0  0  0
   61.0353   33.9284   45.2407 H   0  0  0  0  0  0  0  0  0  0  0  0
   63.3242   33.2734   45.9760 H   0  0  0  0  0  0  0  0  0  0  0  0
   64.9500   33.0650   47.8670 H   0  0  0  0  0  0  0  0  0  0  0  0
   65.9534   32.0442   51.3212 H   0  0  0  0  0  0  0  0  0  0  0  0
   65.9342   31.0839   49.8032 H   0  0  0  0  0  0  0  0  0  0  0  0
   66.6043   32.7505   49.8032 H   0  0  0  0  0  0  0  0  0  0  0  0
   62.0795   33.5776   50.1125 H   0  0  0  0  0  0  0  0  0  0  0  0
   59.7912   34.2323   49.3774 H   0  0  0  0  0  0  0  0  0  0  0  0
   58.0532   28.2432   48.7247 H   0  0  0  0  0  0  0  0  0  0  0  0
   59.6914   28.9722   50.4559 H   0  0  0  0  0  0  0  0  0  0  0  0
  1  2  1  0
  2  3  1  0
  3  4  2  0
  4  5  1  0
  5  6  2  0
  6  7  1  0
  7  8  2  0
  7  9  2  0
  7 10  1  0
 10 11  1  0
 11 12  2  0
 12 13  1  0
 13 14  2  0
 14 15  1  0
 15 16  1  0
 16 17  1  0
 17 18  2  0
 18 19  1  0
 19 20  2  0
 20 21  1  0
 21 22  1  0
 22 23  1  0
 22 24  2  0
 20 25  1  0
 25 26  2  0
 15 27  1  0
 27 28  2  0
  6 29  1  0
 29 30  2  0
 30  3  1  0
 27 11  1  0
 26 17  1  0
  1 31  1  0
  1 32  1  0
  1 33  1  0
  2 34  1  0
  4 35  1  0
  5 36  1  0
 12 37  1  0
 13 38  1  0
 14 39  1  0
 16 40  1  0
 16 41  1  0
 18 42  1  0
 19 43  1  0
 21 44  1  0
 23 45  1  0
 23 46  1  0
 23 47  1  0
 25 48  1  0
 26 49  1  0
 29 50  1  0
 30 51  1  0
M  CHG  1  10  -1
M  END
>  <UniqueID>  (37) 
34

>  <SMILES>  (37) 
CNc1ccc(S(=O)(=O)[N-]c2cccn(Cc3ccc(NC(C)=O)cc3)c2=O)cc1

>  <Energy>  (37) 
62.349954225729014

>  <Genealogy>  (37) 
CNc1ccc(S(=O)(=O)[N-]c2cccn(Cc3ccc(NC(C)=O)cc3)c2=O)cc1 (protonated)
CNc1ccc(S(=O)(=O)[N-]c2cccn(Cc3ccc(NC(C)=O)cc3)c2=O)cc1 (3D coordinates assigned)
CNc1ccc(S(=O)(=O)[N-]c2cccn(Cc3ccc(NC(C)=O)cc3)c2=O)cc1 (optimized conformer: 62.349954225729014 kcal/mol)

>  <smiles>  (37) 
CNc1ccc(S(=O)(=O)Nc2cccn(Cc3ccc(NC(C)=O)cc3)c2=O)cc1

>  <score_type>  (37) 
oracle

>  <origin>  (37) 
adg

>  <m_score__min__energy>  (37) 
-9.9499999999999993

>  <m_primary>  (37) 
energy

$$$$
37:0
     RDKit          3D

 44 46  0  0  0  0  0  0  0  0999 V2000
   54.3200   25.9970   45.8710 N   0  0  0  0  0  0  0  0  0  0  0  0
   54.3890   24.6060   45.5610 C   0  0  0  0  0  0  0  0  0  0  0  0
   53.7540   24.1680   44.5640 O   0  0  0  0  0  0  0  0  0  0  0  0
   55.2140   23.6910   46.3910 C   0  0  0  0  0  0  0  0  0  0  0  0
   56.4230   24.1080   47.0060 C   0  0  0  0  0  0  0  0  0  0  0  0
   56.9690   25.5100   46.8240 C   0  0  0  0  0  0  0  0  0  0  0  0
   58.4900   25.5970   47.0140 C   0  0  0  0  0  0  0  0  0  0  0  0
   58.9830   26.9850   46.7000 C   0  0  0  0  0  0  0  0  0  0  0  0
   59.8580   27.6400   47.5780 C   0  0  0  0  0  0  0  0  0  0  0  0
   60.2840   28.9410   47.3040 C   0  0  0  0  0  0  0  0  0  0  0  0
   59.8310   29.6030   46.1600 C   0  0  0  0  0  0  0  0  0  0  0  0
   58.9340   28.9710   45.2790 C   0  0  0  0  0  0  0  0  0  0  0  0
   58.4330   29.6280   44.1020 N   0  0  0  0  0  0  0  0  0  0  0  0
   57.2400   30.8890   44.1350 S   0  0  0  0  0  0  0  0  0  0  0  0
   56.0160   30.3940   44.8520 O   0  0  0  0  0  0  0  0  0  0  0  0
   56.8690   31.2520   42.7250 O   0  0  0  0  0  0  0  0  0  0  0  0
   57.8690   32.2920   44.9940 C   0  0  0  0  0  0  0  0  0  0  0  0
   58.4330   33.3570   44.2770 C   0  0  0  0  0  0  0  0  0  0  0  0
   58.9240   34.4780   44.9530 C   0  0  0  0  0  0  0  0  0  0  0  0
   58.8590   34.5370   46.3480 C   0  0  0  0  0  0  0  0  0  0  0  0
   58.3030   33.4760   47.0680 C   0  0  0  0  0  0  0  0  0  0  0  0
   57.8100   32.3540   46.3940 C   0  0  0  0  0  0  0  0  0  0  0  0
   58.5190   27.6580   45.5580 C   0  0  0  0  0  0  0  0  0  0  0  0
   57.1070   23.2290   47.7900 N   0  0  0  0  0  0  0  0  0  0  0  0
   56.6800   21.9570   47.9770 C   0  0  0  0  0  0  0  0  0  0  0  0
   57.3430   21.1730   48.7030 O   0  0  0  0  0  0  0  0  0  0  0  0
   55.5410   21.5300   47.3830 N   0  0  0  0  0  0  0  0  0  0  0  0
   54.8030   22.3570   46.6020 C   0  0  0  0  0  0  0  0  0  0  0  0
   53.7380   21.9200   46.0880 O   0  0  0  0  0  0  0  0  0  0  0  0
   54.7690   26.7080   45.2540 H   0  0  0  0  0  0  0  0  0  0  0  0
   56.7237   25.8513   45.8075 H   0  0  0  0  0  0  0  0  0  0  0  0
   56.5068   26.1431   47.5957 H   0  0  0  0  0  0  0  0  0  0  0  0
   58.7390   25.3519   48.0570 H   0  0  0  0  0  0  0  0  0  0  0  0
   58.9749   24.8845   46.3305 H   0  0  0  0  0  0  0  0  0  0  0  0
   60.2099   27.1274   48.4854 H   0  0  0  0  0  0  0  0  0  0  0  0
   60.9786   29.4465   47.9910 H   0  0  0  0  0  0  0  0  0  0  0  0
   60.1778   30.6249   45.9466 H   0  0  0  0  0  0  0  0  0  0  0  0
   58.7210   29.2770   43.1620 H   0  0  0  0  0  0  0  0  0  0  0  0
   58.4893   33.3103   43.1794 H   0  0  0  0  0  0  0  0  0  0  0  0
   59.3615   35.3136   44.3870 H   0  0  0  0  0  0  0  0  0  0  0  0
   59.2457   35.4190   46.8795 H   0  0  0  0  0  0  0  0  0  0  0  0
   58.2531   33.5234   48.1658 H   0  0  0  0  0  0  0  0  0  0  0  0
   57.3753   31.5188   46.9628 H   0  0  0  0  0  0  0  0  0  0  0  0
   57.8225   27.1512   44.8739 H   0  0  0  0  0  0  0  0  0  0  0  0
  1  2  1  0
  2  3  2  0
  2  4  1  0
  4  5  2  0
  5  6  1  0
  6  7  1  0
  7  8  1  0
  8  9  2  0
  9 10  1  0
 10 11  2  0
 11 12  1  0
 12 13  1  0
 13 14  1  0
 14 15  2  0
 14 16  2  0
 14 17  1  0
 17 18  2  0
 18 19  1  0
 19 20  2  0
 20 21  1  0
 21 22  2  0
 12 23  2  0
  5 24  1  0
 24 25  1  0
 25 26  2  0
 25 27  1  0
 27 28  1  0
 28 29  2  0
 28  4  1  0
 23  8  1  0
 22 17  1  0
  1 30  1  0
  6 31  1  0
  6 32  1  0
  7 33  1  0
  7 34  1  0
  9 35  1  0
 10 36  1  0
 11 37  1  0
 13 38  1  0
 18 39  1  0
 19 40  1  0
 20 41  1  0
 21 42  1  0
 22 43  1  0
 23 44  1  0
M  CHG  3   1  -1  24  -1  27  -1
M  END
>  <UniqueID>  (38) 
35

>  <SMILES>  (38) 
[NH-]C(=O)c1c(CCc2cccc(NS(=O)(=O)c3ccccc3)c2)[n-]c(=O)[n-]c1=O

>  <Energy>  (38) 
54.86953144522436

>  <Genealogy>  (38) 
[NH-]C(=O)c1c(CCc2cccc(NS(=O)(=O)c3ccccc3)c2)[n-]c(=O)[n-]c1=O (protonated)
[NH-]C(=O)c1c(CCc2cccc(NS(=O)(=O)c3ccccc3)c2)[n-]c(=O)[n-]c1=O (3D coordinates assigned)
[NH-]C(=O)c1c(CCc2cccc(NS(=O)(=O)c3ccccc3)c2)[n-]c(=O)[n-]c1=O (optimized conformer: 54.86953144522436 kcal/mol)

>  <smiles>  (38) 
NC(=O)c1c(CCc2cccc(NS(=O)(=O)c3ccccc3)c2)[nH]c(=O)[nH]c1=O

>  <score_type>  (38) 
oracle

>  <origin>  (38) 
adg

>  <m_score__min__energy>  (38) 
-16.170000000000002

>  <m_primary>  (38) 
energy

$$$$
38:0
     RDKit          3D

 44 46  0  0  1  0  0  0  0  0999 V2000
   65.1030   32.4180   49.9890 C   0  0  0  0  0  0  0  0  0  0  0  0
   64.8750   32.9930   48.7240 O   0  0  0  0  0  0  0  0  0  0  0  0
   63.6040   33.2980   48.2550 C   0  0  0  0  0  0  0  0  0  0  0  0
   63.3010   33.4800   46.9300 C   0  0  0  0  0  0  0  0  0  0  0  0
   62.0150   33.7870   46.5170 C   0  0  0  0  0  0  0  0  0  0  0  0
   61.0110   33.9180   47.4470 C   0  0  0  0  0  0  0  0  0  0  0  0
   59.6480   34.2720   47.1730 C   0  0  0  0  0  0  0  0  0  0  0  0
   58.8820   34.3590   48.2060 O   0  0  0  0  0  0  0  0  0  0  0  0
   59.0370   34.5360   45.9440 N   0  0  0  0  0  0  0  0  0  0  0  0
   58.5120   33.5180   45.2760 C   0  0  0  0  0  0  0  0  0  0  0  0
   58.2510   33.3370   44.0060 N   0  0  0  0  0  0  0  0  0  0  0  0
   57.7550   32.1990   43.5890 C   0  0  0  0  0  0  0  0  0  0  0  0
   57.4450   31.9580   42.1070 C   0  0  0  0  0  0  0  0  0  0  0  0
   57.5100   31.2100   44.4730 C   0  0  0  0  0  0  0  0  0  0  0  0
   57.0100   29.8990   44.4930 C   0  0  0  0  0  0  0  0  0  0  0  0
   55.9500   29.5700   45.1450 O   0  0  0  0  0  0  0  0  0  0  0  0
   57.6480   28.7620   43.7690 C   0  0  0  0  0  0  0  0  0  0  0  0
   58.2600   27.5980   45.0100 S   0  0  0  0  0  0  0  0  0  0  0  0
   57.0020   26.5260   45.6570 C   0  0  0  0  0  0  0  0  0  0  0  0
   57.2750   25.3380   46.2280 N   0  0  0  0  0  0  0  0  0  0  0  0
   56.1450   24.7610   46.6420 C   0  0  0  0  0  0  0  0  0  0  0  0
   56.1160   23.4350   47.3200 C   0  0  0  0  0  0  0  0  0  0  0  0
   55.1490   25.5940   46.3290 N   0  0  0  0  0  0  0  0  0  0  0  0
   55.6700   26.6760   45.7240 N   0  0  0  0  0  0  0  0  0  0  0  0
   58.0620   32.0170   46.0920 S   0  0  0  0  0  0  0  0  0  0  0  0
   61.3440   33.7270   48.7990 C   0  0  0  0  0  0  0  0  0  0  0  0
   62.6020   33.4260   49.2090 C   0  0  0  0  0  0  0  0  0  0  0  0
   64.8190   33.1344   50.7740 H   0  0  0  0  0  0  0  0  0  0  0  0
   64.4992   31.5042   50.0906 H   0  0  0  0  0  0  0  0  0  0  0  0
   66.1690   32.1663   50.0906 H   0  0  0  0  0  0  0  0  0  0  0  0
   64.0975   33.3799   46.1779 H   0  0  0  0  0  0  0  0  0  0  0  0
   61.7976   33.9256   45.4476 H   0  0  0  0  0  0  0  0  0  0  0  0
   58.4510   34.1490   43.3080 H   0  0  0  0  0  0  0  0  0  0  0  0
   56.5794   31.2851   42.0182 H   0  0  0  0  0  0  0  0  0  0  0  0
   57.2153   32.9171   41.6198 H   0  0  0  0  0  0  0  0  0  0  0  0
   58.3178   31.4989   41.6198 H   0  0  0  0  0  0  0  0  0  0  0  0
   56.9085   28.2667   43.1226 H   0  0  0  0  0  0  0  0  0  0  0  0
   58.4730   29.1212   43.1362 H   0  0  0  0  0  0  0  0  0  0  0  0
   56.1192   23.5805   48.4103 H   0  0  0  0  0  0  0  0  0  0  0  0
   55.2058   22.8923   47.0252 H   0  0  0  0  0  0  0  0  0  0  0  0
   57.0016   22.8530   47.0252 H   0  0  0  0  0  0  0  0  0  0  0  0
   55.1490   27.5080   45.3570 H   0  0  0  0  0  0  0  0  0  0  0  0
   60.5521   33.8256   49.5561 H   0  0  0  0  0  0  0  0  0  0  0  0
   62.8245   33.2859   50.2771 H   0  0  0  0  0  0  0  0  0  0  0  0
  1  2  1  0
  2  3  1  0
  3  4  2  0
  4  5  1  0
  5  6  2  0
  6  7  1  0
  7  8  2  0
  7  9  1  0
  9 10  2  0
 10 11  1  0
 11 12  1  0
 12 13  1  0
 12 14  2  0
 14 15  1  0
 15 16  2  0
 15 17  1  0
 17 18  1  0
 18 19  1  0
 19 20  2  0
 20 21  1  0
 21 22  1  0
 21 23  2  0
 23 24  1  0
 14 25  1  0
  6 26  1  0
 26 27  2  0
 27  3  1  0
 25 10  1  0
 24 19  1  0
  1 28  1  0
  1 29  1  0
  1 30  1  0
  4 31  1  0
  5 32  1  0
 11 33  1  0
 13 34  1  0
 13 35  1  0
 13 36  1  0
 17 37  1  0
 17 38  1  0
 22 39  1  0
 22 40  1  0
 22 41  1  0
 24 42  1  0
 26 43  1  0
 27 44  1  0
M  END
>  <smiles>  (39) 
COc1ccc(C(=O)N=c2[nH]c(C)c(C(=O)CSc3nc(C)n[nH]3)s2)cc1

>  <score_type>  (39) 
oracle

>  <origin>  (39) 
adg

>  <m_score__min__energy>  (39) 
-9.6099999999999994

>  <m_primary>  (39) 
energy

$$$$
39:0
     RDKit          3D

 52 55  0  0  0  0  0  0  0  0999 V2000
   61.7027   29.3531   52.0917 H   0  0  0  0  0  0  0  0  0  0  0  0
   60.7950   29.4620   51.4800 C   0  0  0  0  0  0  0  0  0  0  0  0
   60.7120   28.8450   50.2730 N   0  0  0  0  0  0  0  0  0  0  0  0
   59.6200   28.9540   49.4690 C   0  0  0  0  0  0  0  0  0  0  0  0
   59.6380   28.3210   48.3270 N   0  0  0  0  0  0  0  0  0  0  0  0
   59.3130   28.7960   47.0080 C   0  0  0  0  0  0  0  0  0  0  0  0
   60.1930   29.3040   46.2660 O   0  0  0  0  0  0  0  0  0  0  0  0
   57.9800   28.6660   46.5020 N   0  0  0  0  0  0  0  0  0  0  0  0
   57.4250   29.3730   45.3820 C   0  0  0  0  0  0  0  0  0  0  0  0
   58.0520   30.5130   44.8460 C   0  0  0  0  0  0  0  0  0  0  0  0
   59.0037   30.8626   45.2727 H   0  0  0  0  0  0  0  0  0  0  0  0
   57.4740   31.2090   43.7710 C   0  0  0  0  0  0  0  0  0  0  0  0
   58.1530   32.4010   43.2080 C   0  0  0  0  0  0  0  0  0  0  0  0
   58.3690   32.4600   41.9690 O   0  0  0  0  0  0  0  0  0  0  0  0
   58.5260   33.5200   44.0240 N   0  0  0  0  0  0  0  0  0  0  0  0
   58.8350   33.4810   45.4240 C   0  0  0  0  0  0  0  0  0  0  0  0
   60.1110   33.8210   45.9090 C   0  0  0  0  0  0  0  0  0  0  0  0
   60.9049   34.1136   45.2061 H   0  0  0  0  0  0  0  0  0  0  0  0
   60.3730   33.7880   47.2830 C   0  0  0  0  0  0  0  0  0  0  0  0
   61.3754   34.0436   47.6569 H   0  0  0  0  0  0  0  0  0  0  0  0
   59.3640   33.4310   48.1810 C   0  0  0  0  0  0  0  0  0  0  0  0
   59.5735   33.3987   49.2604 H   0  0  0  0  0  0  0  0  0  0  0  0
   58.0880   33.1150   47.7060 C   0  0  0  0  0  0  0  0  0  0  0  0
   57.2915   32.8406   48.4133 H   0  0  0  0  0  0  0  0  0  0  0  0
   57.8220   33.1470   46.3340 C   0  0  0  0  0  0  0  0  0  0  0  0
   56.8129   32.9090   45.9665 H   0  0  0  0  0  0  0  0  0  0  0  0
   56.2640   30.7470   43.2290 C   0  0  0  0  0  0  0  0  0  0  0  0
   55.8177   31.2652   42.3674 H   0  0  0  0  0  0  0  0  0  0  0  0
   55.6240   29.6340   43.7770 C   0  0  0  0  0  0  0  0  0  0  0  0
   54.6661   29.2913   43.3586 H   0  0  0  0  0  0  0  0  0  0  0  0
   56.1960   28.9540   44.8550 C   0  0  0  0  0  0  0  0  0  0  0  0
   55.5420   27.8510   45.3940 O   0  0  0  0  0  0  0  0  0  0  0  0
   58.5160   29.7120   49.9170 C   0  0  0  0  0  0  0  0  0  0  0  0
   57.6184   29.8055   49.2881 H   0  0  0  0  0  0  0  0  0  0  0  0
   58.5690   30.3460   51.1690 C   0  0  0  0  0  0  0  0  0  0  0  0
   57.4280   31.1500   51.6580 C   0  0  0  0  0  0  0  0  0  0  0  0
   57.5110   32.4090   51.6240 O   0  0  0  0  0  0  0  0  0  0  0  0
   56.2320   30.5330   52.1750 N   0  0  0  0  0  0  0  0  0  0  0  0
   54.9230   31.1870   51.9660 C   0  0  0  0  0  0  0  0  0  0  0  0
   54.9565   31.7691   51.0332 H   0  0  0  0  0  0  0  0  0  0  0  0
   54.7189   31.8449   52.8236 H   0  0  0  0  0  0  0  0  0  0  0  0
   53.8250   30.1720   51.8710 C   0  0  0  0  0  0  0  0  0  0  0  0
   52.8050   30.3950   51.1660 O   0  0  0  0  0  0  0  0  0  0  0  0
   53.9270   28.9610   52.6140 N   0  0  0  0  0  0  0  0  0  0  0  0
   55.0610   28.7750   53.5060 C   0  0  0  0  0  0  0  0  0  0  0  0
   55.1330   27.7143   53.7884 H   0  0  0  0  0  0  0  0  0  0  0  0
   54.9186   29.3902   54.4067 H   0  0  0  0  0  0  0  0  0  0  0  0
   56.3520   29.2020   52.8020 C   0  0  0  0  0  0  0  0  0  0  0  0
   56.5912   28.4636   52.0225 H   0  0  0  0  0  0  0  0  0  0  0  0
   57.1474   29.2565   53.5599 H   0  0  0  0  0  0  0  0  0  0  0  0
   59.7310   30.2330   51.9440 C   0  0  0  0  0  0  0  0  0  0  0  0
   59.8028   30.7496   52.9125 H   0  0  0  0  0  0  0  0  0  0  0  0
  1  2  1  0
  2  3  1  0
  3  4  1  0
  4  5  2  0
  5  6  1  0
  6  7  2  0
  6  8  1  0
  8  9  1  0
  9 10  2  0
 10 11  1  0
 10 12  1  0
 12 13  1  0
 13 14  2  0
 13 15  1  0
 15 16  1  0
 16 17  2  0
 17 18  1  0
 17 19  1  0
 19 20  1  0
 19 21  2  0
 21 22  1  0
 21 23  1  0
 23 24  1  0
 23 25  2  0
 25 26  1  0
 12 27  2  0
 27 28  1  0
 27 29  1  0
 29 30  1  0
 29 31  2  0
 31 32  1  0
  4 33  1  0
 33 34  1  0
 33 35  2  0
 35 36  1  0
 36 37  2  0
 36 38  1  0
 38 39  1  0
 39 40  1  0
 39 41  1  0
 39 42  1  0
 42 43  2  0
 42 44  1  0
 44 45  1  0
 45 46  1  0
 45 47  1  0
 45 48  1  0
 48 49  1  0
 48 50  1  0
 35 51  1  0
 51 52  1  0
 51  2  2  0
 31  9  1  0
 48 38  1  0
 25 16  1  0
M  CHG  5   3  -1   8  -1  15  -1  32  -1  44  -1
M  END
>  <UniqueID>  (40) 
36

>  <SMILES>  (40) 
O=C1CN(C(=O)c2cc[n-]/c(=N/C(=O)[N-]c3cc(C(=O)[N-]c4ccccc4)ccc3[O-])c2)CC[N-]1

>  <Energy>  (40) 
79.85089568306175

>  <Genealogy>  (40) 
O=C1CN(C(=O)c2cc[n-]c(=NC(=O)[N-]c3cc(C(=O)[N-]c4ccccc4)ccc3[O-])c2)CC[N-]1 (protonated)
O=C1CN(C(=O)c2cc[n-]/c(=N/C(=O)[N-]c3cc(C(=O)[N-]c4ccccc4)ccc3[O-])c2)CC[N-]1 (cis-trans isomerization)
O=C1CN(C(=O)c2cc[n-]/c(=N/C(=O)[N-]c3cc(C(=O)[N-]c4ccccc4)ccc3[O-])c2)CC[N-]1 (3D coordinates assigned)
O=C1CN(C(=O)c2cc[n-]/c(=N/C(=O)[N-]c3cc(C(=O)[N-]c4ccccc4)ccc3[O-])c2)CC[N-]1 (nonaromatic ring conformer: 79.85089568306175 kcal/mol)

>  <smiles>  (40) 
O=C1CN(C(=O)c2cc[nH]c(=NC(=O)Nc3cc(C(=O)Nc4ccccc4)ccc3O)c2)CCN1

>  <score_type>  (40) 
oracle

>  <origin>  (40) 
adg

>  <m_score__min__energy>  (40) 
-17

>  <m_primary>  (40) 
energy

$$$$
40:0
     RDKit          3D

 60 64  0  0  1  0  0  0  0  0999 V2000
   60.0880   31.3280   50.1450 C   0  0  0  0  0  0  0  0  0  0  0  0
   61.1440   30.7670   49.4550 C   0  0  0  0  0  0  0  0  0  0  0  0
   61.0670   29.4880   48.9040 C   0  0  0  0  0  0  0  0  0  0  0  0
   59.9060   28.7580   49.0500 C   0  0  0  0  0  0  0  0  0  0  0  0
   59.7420   27.3830   48.4910 C   0  0  0  0  0  0  0  0  0  0  0  0
   60.6790   27.1060   47.3460 C   0  0  0  0  0  0  0  0  0  0  0  0
   59.9540   26.9740   46.1010 N   0  0  0  0  0  0  0  0  0  0  0  0
   58.7300   27.2550   45.9400 C   0  0  0  0  0  0  0  0  0  0  0  0
   57.8010   26.2740   46.0830 N   0  0  0  0  0  0  0  0  0  0  0  0
   56.5180   26.6350   45.9000 C   0  0  0  0  0  0  0  0  0  0  0  0
   55.5840   25.7500   46.0210 N   0  0  0  0  0  0  0  0  0  0  0  0
   55.8430   24.4810   45.3840 C   0  0  0  0  0  0  0  0  0  0  0  0
   55.5620   23.3490   46.1270 C   0  0  0  0  0  0  0  0  0  0  0  0
   55.7840   22.1180   45.5820 C   0  0  0  0  0  0  0  0  0  0  0  0
   56.2860   21.9960   44.2980 C   0  0  0  0  0  0  0  0  0  0  0  0
   56.5590   23.1580   43.5750 C   0  0  0  0  0  0  0  0  0  0  0  0
   56.3450   24.4150   44.0950 C   0  0  0  0  0  0  0  0  0  0  0  0
   56.1630   27.8990   45.5920 N   0  0  0  0  0  0  0  0  0  0  0  0
   57.0890   28.8670   45.4520 C   0  0  0  0  0  0  0  0  0  0  0  0
   56.8020   30.0870   45.1590 N   0  0  0  0  0  0  0  0  0  0  0  0
   57.7570   31.1260   45.4650 C   0  0  0  0  0  0  0  0  0  0  0  0
   58.3950   31.0700   46.6990 C   0  0  0  0  0  0  0  0  0  0  0  0
   59.3220   32.0130   47.0870 C   0  0  0  0  0  0  0  0  0  0  0  0
   59.6020   33.0270   46.1980 C   0  0  0  0  0  0  0  0  0  0  0  0
   60.5450   34.0330   46.5280 N   0  0  0  0  0  0  0  0  0  0  0  0
   61.6880   33.8320   47.0740 C   0  0  0  0  0  0  0  0  0  0  0  0
   62.0290   33.8400   48.4110 C   0  0  0  0  0  0  0  0  0  0  0  0
   63.3790   33.5700   48.5060 C   0  0  0  0  0  0  0  0  0  0  0  0
   63.7970   33.4110   47.2380 N   0  0  0  0  0  0  0  0  0  0  0  0
   62.8090   33.5620   46.3830 N   0  0  0  0  0  0  0  0  0  0  0  0
   58.9590   33.0820   44.9570 C   0  0  0  0  0  0  0  0  0  0  0  0
   58.0340   32.1410   44.5720 C   0  0  0  0  0  0  0  0  0  0  0  0
   58.3850   28.5190   45.6330 N   0  0  0  0  0  0  0  0  0  0  0  0
   58.8570   29.3370   49.7450 C   0  0  0  0  0  0  0  0  0  0  0  0
   58.9420   30.6020   50.2850 C   0  0  0  0  0  0  0  0  0  0  0  0
   60.1691   32.3383   50.5724 H   0  0  0  0  0  0  0  0  0  0  0  0
   62.0723   31.3450   49.3364 H   0  0  0  0  0  0  0  0  0  0  0  0
   61.9238   29.0657   48.3584 H   0  0  0  0  0  0  0  0  0  0  0  0
   59.9372   26.6526   49.2901 H   0  0  0  0  0  0  0  0  0  0  0  0
   58.7145   27.3008   48.1069 H   0  0  0  0  0  0  0  0  0  0  0  0
   61.3951   27.9364   47.2586 H   0  0  0  0  0  0  0  0  0  0  0  0
   61.2058   26.1612   47.5458 H   0  0  0  0  0  0  0  0  0  0  0  0
   58.0810   25.3030   46.3210 H   0  0  0  0  0  0  0  0  0  0  0  0
   55.1631   23.4402   47.1481 H   0  0  0  0  0  0  0  0  0  0  0  0
   55.5620   21.2143   46.1685 H   0  0  0  0  0  0  0  0  0  0  0  0
   56.4659   21.0045   43.8569 H   0  0  0  0  0  0  0  0  0  0  0  0
   56.9590   23.0667   42.5544 H   0  0  0  0  0  0  0  0  0  0  0  0
   56.5625   25.3235   43.5142 H   0  0  0  0  0  0  0  0  0  0  0  0
   55.1500   28.1320   45.4590 H   0  0  0  0  0  0  0  0  0  0  0  0
   58.1522   30.2470   47.3873 H   0  0  0  0  0  0  0  0  0  0  0  0
   59.8183   31.9581   48.0672 H   0  0  0  0  0  0  0  0  0  0  0  0
   61.3457   34.0283   49.2522 H   0  0  0  0  0  0  0  0  0  0  0  0
   63.9834   33.4999   49.4224 H   0  0  0  0  0  0  0  0  0  0  0  0
   64.8060   33.1910   46.9910 H   0  0  0  0  0  0  0  0  0  0  0  0
   62.9110   33.4820   45.3640 H   0  0  0  0  0  0  0  0  0  0  0  0
   59.2012   33.9042   44.2675 H   0  0  0  0  0  0  0  0  0  0  0  0
   57.5354   32.1948   43.5930 H   0  0  0  0  0  0  0  0  0  0  0  0
   59.1120   29.2540   45.5290 H   0  0  0  0  0  0  0  0  0  0  0  0
   57.9242   28.7676   49.8702 H   0  0  0  0  0  0  0  0  0  0  0  0
   58.0853   31.0263   50.8291 H   0  0  0  0  0  0  0  0  0  0  0  0
  1  2  2  0
  2  3  1  0
  3  4  2  0
  4  5  1  0
  5  6  1  0
  6  7  1  0
  7  8  2  0
  8  9  1  0
  9 10  1  0
 10 11  2  0
 11 12  1  0
 12 13  2  0
 13 14  1  0
 14 15  2  0
 15 16  1  0
 16 17  2  0
 10 18  1  0
 18 19  1  0
 19 20  2  0
 20 21  1  0
 21 22  2  0
 22 23  1  0
 23 24  2  0
 24 25  1  0
 25 26  2  0
 26 27  1  0
 27 28  2  0
 28 29  1  0
 29 30  1  0
 24 31  1  0
 31 32  2  0
 19 33  1  0
  4 34  1  0
 34 35  2  0
 35  1  1  0
 33  8  1  0
 17 12  1  0
 32 21  1  0
 30 26  1  0
  1 36  1  0
  2 37  1  0
  3 38  1  0
  5 39  1  0
  5 40  1  0
  6 41  1  0
  6 42  1  0
  9 43  1  0
 13 44  1  0
 14 45  1  0
 15 46  1  0
 16 47  1  0
 17 48  1  0
 18 49  1  0
 22 50  1  0
 23 51  1  0
 27 52  1  0
 28 53  1  0
 29 54  1  0
 30 55  1  0
 31 56  1  0
 32 57  1  0
 33 58  1  0
 34 59  1  0
 35 60  1  0
M  END
>  <smiles>  (41) 
c1ccc(CCN=c2[nH]c(=Nc3ccccc3)[nH]c(=Nc3ccc(N=c4cc[nH][nH]4)cc3)[nH]2)cc1

>  <score_type>  (41) 
oracle

>  <origin>  (41) 
adg

>  <m_score__min__energy>  (41) 
-10.09

>  <m_primary>  (41) 
energy

$$$$
41:0
     RDKit          3D

 70 75  0  0  0  0  0  0  0  0999 V2000
   54.5970   25.0890   45.7500 O   0  0  0  0  0  0  0  0  0  0  0  0
   55.8420   24.8810   45.7350 C   0  0  0  0  0  0  0  0  0  0  0  0
   56.7650   25.9560   46.1660 C   0  0  0  0  0  0  0  0  0  0  0  0
   56.6490   27.2520   45.6370 C   0  0  0  0  0  0  0  0  0  0  0  0
   57.5340   28.2590   46.0250 C   0  0  0  0  0  0  0  0  0  0  0  0
   58.5610   27.9900   46.9480 C   0  0  0  0  0  0  0  0  0  0  0  0
   59.5030   29.0630   47.3570 C   0  0  0  0  0  0  0  0  0  0  0  0
   60.4830   29.5300   46.4620 C   0  0  0  0  0  0  0  0  0  0  0  0
   61.3820   30.5270   46.8510 C   0  0  0  0  0  0  0  0  0  0  0  0
   61.3160   31.0720   48.1360 C   0  0  0  0  0  0  0  0  0  0  0  0
   62.2050   32.0300   48.5120 N   0  0  0  0  0  0  0  0  0  0  0  0
   62.1930   32.5880   49.7520 C   0  0  0  0  0  0  0  0  0  0  0  0
   63.1890   33.6260   50.1080 C   0  0  0  0  0  0  0  0  0  0  0  0
   63.4000   34.5690   49.2970 O   0  0  0  0  0  0  0  0  0  0  0  0
   63.9140   33.5910   51.3560 N   0  0  0  0  0  0  0  0  0  0  0  0
   63.3210   32.9970   52.5640 C   0  0  0  0  0  0  0  0  0  0  0  0
   63.8750   33.6640   53.8290 C   0  0  0  0  0  0  0  0  0  0  0  0
   64.0260   35.1110   53.5860 N   0  0  0  0  0  0  0  0  0  0  0  0
   64.2780   35.8290   54.8530 C   0  0  0  0  0  0  0  0  0  0  0  0
   63.0620   36.6140   55.2680 C   0  0  0  0  0  0  0  0  0  0  0  0
   63.0310   38.0110   55.1480 C   0  0  0  0  0  0  0  0  0  0  0  0
   61.8830   38.7170   55.5170 C   0  0  0  0  0  0  0  0  0  0  0  0
   60.7750   38.0180   56.0000 C   0  0  0  0  0  0  0  0  0  0  0  0
   60.8170   36.6620   56.1040 N   0  0  0  0  0  0  0  0  0  0  0  0
   61.9210   35.9530   55.7500 C   0  0  0  0  0  0  0  0  0  0  0  0
   65.0930   35.3860   52.5860 C   0  0  0  0  0  0  0  0  0  0  0  0
   65.1940   34.2980   51.4960 C   0  0  0  0  0  0  0  0  0  0  0  0
   61.2170   32.1850   50.6780 C   0  0  0  0  0  0  0  0  0  0  0  0
   60.2880   31.2010   50.3280 C   0  0  0  0  0  0  0  0  0  0  0  0
   59.4230   30.8400   51.1710 O   0  0  0  0  0  0  0  0  0  0  0  0
   60.3320   30.6250   49.0450 C   0  0  0  0  0  0  0  0  0  0  0  0
   59.4310   29.6210   48.6470 C   0  0  0  0  0  0  0  0  0  0  0  0
   58.6820   26.6920   47.4710 C   0  0  0  0  0  0  0  0  0  0  0  0
   57.7970   25.6840   47.0780 C   0  0  0  0  0  0  0  0  0  0  0  0
   56.3360   23.5940   45.3290 N   0  0  0  0  0  0  0  0  0  0  0  0
   55.6190   22.3870   45.7540 C   0  0  0  0  0  0  0  0  0  0  0  0
   56.3860   21.1350   45.3230 C   0  0  0  0  0  0  0  0  0  0  0  0
   57.7700   21.3530   45.4930 O   0  0  0  0  0  0  0  0  0  0  0  0
   58.2540   22.2440   44.5000 C   0  0  0  0  0  0  0  0  0  0  0  0
   57.3620   23.4890   44.2840 C   0  0  0  0  0  0  0  0  0  0  0  0
   55.8537   27.4752   44.9106 H   0  0  0  0  0  0  0  0  0  0  0  0
   57.4277   29.2705   45.6060 H   0  0  0  0  0  0  0  0  0  0  0  0
   60.5421   29.1072   45.4482 H   0  0  0  0  0  0  0  0  0  0  0  0
   62.1444   30.8840   46.1429 H   0  0  0  0  0  0  0  0  0  0  0  0
   62.2298   33.1323   52.5337 H   0  0  0  0  0  0  0  0  0  0  0  0
   63.5743   31.9269   52.5907 H   0  0  0  0  0  0  0  0  0  0  0  0
   63.1794   33.5017   54.6656 H   0  0  0  0  0  0  0  0  0  0  0  0
   64.8526   33.2268   54.0803 H   0  0  0  0  0  0  0  0  0  0  0  0
   64.5232   35.0998   55.6392 H   0  0  0  0  0  0  0  0  0  0  0  0
   65.1164   36.5256   54.7053 H   0  0  0  0  0  0  0  0  0  0  0  0
   63.9094   38.5503   54.7638 H   0  0  0  0  0  0  0  0  0  0  0  0
   61.8525   39.8130   55.4278 H   0  0  0  0  0  0  0  0  0  0  0  0
   59.8674   38.5640   56.2967 H   0  0  0  0  0  0  0  0  0  0  0  0
   61.9206   34.8568   55.8415 H   0  0  0  0  0  0  0  0  0  0  0  0
   64.8783   36.3495   52.1005 H   0  0  0  0  0  0  0  0  0  0  0  0
   66.0520   35.4017   53.1245 H   0  0  0  0  0  0  0  0  0  0  0  0
   65.4542   34.7694   50.5368 H   0  0  0  0  0  0  0  0  0  0  0  0
   65.9706   33.5748   51.7855 H   0  0  0  0  0  0  0  0  0  0  0  0
   61.1837   32.6432   51.6775 H   0  0  0  0  0  0  0  0  0  0  0  0
   58.6626   29.2685   49.3508 H   0  0  0  0  0  0  0  0  0  0  0  0
   59.4790   26.4671   48.1951 H   0  0  0  0  0  0  0  0  0  0  0  0
   57.9101   24.6691   47.4868 H   0  0  0  0  0  0  0  0  0  0  0  0
   55.5179   22.3916   46.8493 H   0  0  0  0  0  0  0  0  0  0  0  0
   54.6245   22.3772   45.2841 H   0  0  0  0  0  0  0  0  0  0  0  0
   56.0704   20.2805   45.9396 H   0  0  0  0  0  0  0  0  0  0  0  0
   56.1745   20.9198   44.2652 H   0  0  0  0  0  0  0  0  0  0  0  0
   59.2563   22.5842   44.7993 H   0  0  0  0  0  0  0  0  0  0  0  0
   58.2615   21.6889   43.5504 H   0  0  0  0  0  0  0  0  0  0  0  0
   57.9920   24.3904   44.3077 H   0  0  0  0  0  0  0  0  0  0  0  0
   56.8593   23.3930   43.3103 H   0  0  0  0  0  0  0  0  0  0  0  0
  1  2  2  0
  2  3  1  0
  3  4  2  0
  4  5  1  0
  5  6  2  0
  6  7  1  0
  7  8  2  0
  8  9  1  0
  9 10  2  0
 10 11  1  0
 11 12  1  0
 12 13  1  0
 13 14  2  0
 13 15  1  0
 15 16  1  0
 16 17  1  0
 17 18  1  0
 18 19  1  0
 19 20  1  0
 20 21  2  0
 21 22  1  0
 22 23  2  0
 23 24  1  0
 24 25  2  0
 18 26  1  0
 26 27  1  0
 12 28  2  0
 28 29  1  0
 29 30  2  0
 29 31  1  0
 31 32  2  0
  6 33  1  0
 33 34  2  0
  2 35  1  0
 35 36  1  0
 36 37  1  0
 37 38  1  0
 38 39  1  0
 39 40  1  0
 34  3  1  0
 40 35  1  0
 32  7  1  0
 31 10  1  0
 27 15  1  0
 25 20  1  0
  4 41  1  0
  5 42  1  0
  8 43  1  0
  9 44  1  0
 16 45  1  0
 16 46  1  0
 17 47  1  0
 17 48  1  0
 19 49  1  0
 19 50  1  0
 21 51  1  0
 22 52  1  0
 23 53  1  0
 25 54  1  0
 26 55  1  0
 26 56  1  0
 27 57  1  0
 27 58  1  0
 28 59  1  0
 32 60  1  0
 33 61  1  0
 34 62  1  0
 36 63  1  0
 36 64  1  0
 37 65  1  0
 37 66  1  0
 39 67  1  0
 39 68  1  0
 40 69  1  0
 40 70  1  0
M  CHG  1  11  -1
M  END
>  <UniqueID>  (42) 
37

>  <SMILES>  (42) 
O=C(c1ccc(-c2ccc3[n-]c(C(=O)N4CCN(Cc5cccnc5)CC4)cc(=O)c3c2)cc1)N1CCOCC1

>  <Energy>  (42) 
107.75194157066824

>  <Genealogy>  (42) 
O=C(c1ccc(-c2ccc3[n-]c(C(=O)N4CCN(Cc5cccnc5)CC4)cc(=O)c3c2)cc1)N1CCOCC1 (protonated)
O=C(c1ccc(-c2ccc3[n-]c(C(=O)N4CCN(Cc5cccnc5)CC4)cc(=O)c3c2)cc1)N1CCOCC1 (3D coordinates assigned)
O=C(c1ccc(-c2ccc3[n-]c(C(=O)N4CCN(Cc5cccnc5)CC4)cc(=O)c3c2)cc1)N1CCOCC1 (nonaromatic ring conformer: 107.75194157066824 kcal/mol)

>  <smiles>  (42) 
O=C(c1ccc(-c2ccc3[nH]c(C(=O)N4CCN(Cc5cccnc5)CC4)cc(=O)c3c2)cc1)N1CCOCC1

>  <score_type>  (42) 
oracle

>  <origin>  (42) 
adg

>  <m_score__min__energy>  (42) 
-9.3000000000000007

>  <m_primary>  (42) 
energy

$$$$
42:0
     RDKit          3D

 56 60  0  0  0  0  0  0  0  0999 V2000
   57.4020   25.3950   47.6420 C   0  0  0  0  0  0  0  0  0  0  0  0
   57.6230   25.8390   46.3930 C   0  0  0  0  0  0  0  0  0  0  0  0
   57.1800   25.2370   45.2090 C   0  0  0  0  0  0  0  0  0  0  0  0
   56.4570   24.1070   45.0870 C   0  0  0  0  0  0  0  0  0  0  0  0
   54.9870   24.0550   45.1810 C   0  0  0  0  0  0  0  0  0  0  0  0
   54.2730   22.9320   44.9900 N   0  0  0  0  0  0  0  0  0  0  0  0
   53.0050   23.3150   45.2580 C   0  0  0  0  0  0  0  0  0  0  0  0
   52.0270   22.5290   45.1750 O   0  0  0  0  0  0  0  0  0  0  0  0
   52.8710   24.6050   45.6350 N   0  0  0  0  0  0  0  0  0  0  0  0
   54.1350   25.0570   45.5940 C   0  0  0  0  0  0  0  0  0  0  0  0
   54.5030   26.3410   45.9780 O   0  0  0  0  0  0  0  0  0  0  0  0
   57.6790   26.0120   44.1710 C   0  0  0  0  0  0  0  0  0  0  0  0
   58.3730   27.0540   44.7490 C   0  0  0  0  0  0  0  0  0  0  0  0
   59.0780   28.1340   43.9850 C   0  0  0  0  0  0  0  0  0  0  0  0
   58.3460   26.9490   46.0970 N   0  0  0  0  0  0  0  0  0  0  0  0
   58.9370   27.8830   47.0200 C   0  0  0  0  0  0  0  0  0  0  0  0
   58.6230   29.2450   46.9360 C   0  0  0  0  0  0  0  0  0  0  0  0
   59.2420   30.1470   47.8000 C   0  0  0  0  0  0  0  0  0  0  0  0
   60.1670   29.6920   48.7500 C   0  0  0  0  0  0  0  0  0  0  0  0
   60.8580   30.6540   49.6410 C   0  0  0  0  0  0  0  0  0  0  0  0
   60.8470   30.4490   50.8870 O   0  0  0  0  0  0  0  0  0  0  0  0
   61.5310   31.8190   49.1260 N   0  0  0  0  0  0  0  0  0  0  0  0
   62.2830   31.7770   47.8690 C   0  0  0  0  0  0  0  0  0  0  0  0
   63.6980   32.3360   48.0870 C   0  0  0  0  0  0  0  0  0  0  0  0
   63.7420   33.6000   48.8720 N   0  0  0  0  0  0  0  0  0  0  0  0
   64.6130   33.4580   50.0520 C   0  0  0  0  0  0  0  0  0  0  0  0
   64.7990   32.0140   50.4840 C   0  0  0  0  0  0  0  0  0  0  0  0
   65.9260   32.7430   49.7720 C   0  0  0  0  0  0  0  0  0  0  0  0
   62.4170   34.1260   49.2650 C   0  0  0  0  0  0  0  0  0  0  0  0
   61.5410   33.0490   49.9230 C   0  0  0  0  0  0  0  0  0  0  0  0
   60.4620   28.3200   48.7930 C   0  0  0  0  0  0  0  0  0  0  0  0
   59.8500   27.4550   47.9390 N   0  0  0  0  0  0  0  0  0  0  0  0
   57.8005   25.9525   48.5025 H   0  0  0  0  0  0  0  0  0  0  0  0
   56.8226   24.4741   47.8039 H   0  0  0  0  0  0  0  0  0  0  0  0
   56.9966   23.1656   44.9062 H   0  0  0  0  0  0  0  0  0  0  0  0
   57.5463   25.8299   43.0943 H   0  0  0  0  0  0  0  0  0  0  0  0
   59.5394   28.8408   44.6904 H   0  0  0  0  0  0  0  0  0  0  0  0
   59.8581   27.6859   43.3520 H   0  0  0  0  0  0  0  0  0  0  0  0
   58.3539   28.6678   43.3520 H   0  0  0  0  0  0  0  0  0  0  0  0
   57.8932   29.6006   46.1937 H   0  0  0  0  0  0  0  0  0  0  0  0
   59.0039   31.2190   47.7361 H   0  0  0  0  0  0  0  0  0  0  0  0
   62.3518   30.7362   47.5198 H   0  0  0  0  0  0  0  0  0  0  0  0
   61.7641   32.3884   47.1160 H   0  0  0  0  0  0  0  0  0  0  0  0
   64.2896   31.5778   48.6210 H   0  0  0  0  0  0  0  0  0  0  0  0
   64.1020   32.5691   47.0908 H   0  0  0  0  0  0  0  0  0  0  0  0
   64.3329   34.3983   50.5493 H   0  0  0  0  0  0  0  0  0  0  0  0
   64.8921   31.7673   51.5519 H   0  0  0  0  0  0  0  0  0  0  0  0
   64.2512   31.0753   50.3145 H   0  0  0  0  0  0  0  0  0  0  0  0
   66.8346   33.0247   50.3244 H   0  0  0  0  0  0  0  0  0  0  0  0
   66.5317   32.5515   48.8740 H   0  0  0  0  0  0  0  0  0  0  0  0
   62.5600   34.9515   49.9778 H   0  0  0  0  0  0  0  0  0  0  0  0
   61.9049   34.4701   48.3543 H   0  0  0  0  0  0  0  0  0  0  0  0
   61.9377   32.8253   50.9243 H   0  0  0  0  0  0  0  0  0  0  0  0
   60.5112   33.4296   49.9919 H   0  0  0  0  0  0  0  0  0  0  0  0
   61.1932   27.9414   49.5224 H   0  0  0  0  0  0  0  0  0  0  0  0
   60.0860   26.4390   47.9980 H   0  0  0  0  0  0  0  0  0  0  0  0
  1  2  2  0
  2  3  1  0
  3  4  2  3
  4  5  1  0
  5  6  1  0
  6  7  1  0
  7  8  2  0
  7  9  1  0
  9 10  1  0
 10 11  1  0
  3 12  1  0
 12 13  2  0
 13 14  1  0
 13 15  1  0
 15 16  1  0
 16 17  2  0
 17 18  1  0
 18 19  2  0
 19 20  1  0
 20 21  2  0
 20 22  1  0
 22 23  1  0
 23 24  1  0
 24 25  1  0
 25 26  1  0
 26 27  1  0
 27 28  1  0
 25 29  1  0
 29 30  1  0
 19 31  1  0
 31 32  2  0
 15  2  1  0
 32 16  1  0
 10  5  2  0
 30 22  1  0
 28 26  1  0
  1 33  1  0
  1 34  1  0
  4 35  1  0
 12 36  1  0
 14 37  1  0
 14 38  1  0
 14 39  1  0
 17 40  1  0
 18 41  1  0
 23 42  1  0
 23 43  1  0
 24 44  1  0
 24 45  1  0
 26 46  1  0
 27 47  1  0
 27 48  1  0
 28 49  1  0
 28 50  1  0
 29 51  1  0
 29 52  1  0
 30 53  1  0
 30 54  1  0
 31 55  1  0
 32 56  1  0
M  CHG  4   6  -1   9  -1  11  -1  32   1
M  END
>  <UniqueID>  (43) 
38

>  <SMILES>  (43) 
C=c1c(=Cc2[n-]c(=O)[n-]c2[O-])cc(C)n1-c1ccc(C(=O)N2CCN(C3CC3)CC2)c[nH+]1

>  <Energy>  (43) 
406.3801462545905

>  <Genealogy>  (43) 
C=c1c(=Cc2[n-]c(=O)[n-]c2[O-])cc(C)n1-c1ccc(C(=O)N2CCN(C3CC3)CC2)c[nH+]1 (protonated)
C=c1c(=Cc2[n-]c(=O)[n-]c2[O-])cc(C)n1-c1ccc(C(=O)N2CCN(C3CC3)CC2)c[nH+]1 (3D coordinates assigned)
C=c1c(=Cc2[n-]c(=O)[n-]c2[O-])cc(C)n1-c1ccc(C(=O)N2CCN(C3CC3)CC2)c[nH+]1 (nonaromatic ring conformer: 406.3801462545905 kcal/mol)

>  <smiles>  (43) 
C=c1c(=Cc2[nH]c(=O)[nH]c2O)cc(C)n1-c1ccc(C(=O)N2CCN(C3CC3)CC2)cn1

>  <score_type>  (43) 
oracle

>  <origin>  (43) 
adg

>  <m_score__min__energy>  (43) 
-15.33

>  <m_primary>  (43) 
energy

$$$$
43:0
     RDKit          3D

 47 50  0  0  0  0  0  0  0  0999 V2000
   58.5507   29.0072   43.6314 H   0  0  0  0  0  0  0  0  0  0  0  0
   57.6210   29.4440   44.0250 C   0  0  0  0  0  0  0  0  0  0  0  0
   57.1330   30.7210   43.8470 C   0  0  0  0  0  0  0  0  0  0  0  0
   57.7460   31.7840   42.9980 C   0  0  0  0  0  0  0  0  0  0  0  0
   58.1914   32.5564   43.6422 H   0  0  0  0  0  0  0  0  0  0  0  0
   58.5273   31.3410   42.3629 H   0  0  0  0  0  0  0  0  0  0  0  0
   56.9712   32.2383   42.3629 H   0  0  0  0  0  0  0  0  0  0  0  0
   55.9510   30.8540   44.4810 N   0  0  0  0  0  0  0  0  0  0  0  0
   55.7050   29.7120   45.0550 O   0  0  0  0  0  0  0  0  0  0  0  0
   56.6630   28.8470   44.8150 C   0  0  0  0  0  0  0  0  0  0  0  0
   56.6760   27.4370   45.3160 C   0  0  0  0  0  0  0  0  0  0  0  0
   55.6807   26.9929   45.1669 H   0  0  0  0  0  0  0  0  0  0  0  0
   57.4369   26.8730   44.7567 H   0  0  0  0  0  0  0  0  0  0  0  0
   57.0130   27.3900   46.7400 N   0  0  0  0  0  0  0  0  0  0  0  0
   58.2020   27.5800   47.2330 C   0  0  0  0  0  0  0  0  0  0  0  0
   58.5200   28.7550   47.8480 N   0  0  0  0  0  0  0  0  0  0  0  0
   59.7500   28.9960   48.3740 C   0  0  0  0  0  0  0  0  0  0  0  0
   59.9790   30.2300   48.9980 O   0  0  0  0  0  0  0  0  0  0  0  0
   61.1870   30.9810   48.8820 C   0  0  0  0  0  0  0  0  0  0  0  0
   61.9462   30.1854   48.9056 H   0  0  0  0  0  0  0  0  0  0  0  0
   61.1090   32.0190   47.7740 C   0  0  0  0  0  0  0  0  0  0  0  0
   62.0051   32.0467   47.1366 H   0  0  0  0  0  0  0  0  0  0  0  0
   60.3257   31.9195   47.0082 H   0  0  0  0  0  0  0  0  0  0  0  0
   61.0330   33.1370   48.7240 N   0  0  0  0  0  0  0  0  0  0  0  0
   59.7380   33.8730   48.7010 C   0  0  0  0  0  0  0  0  0  0  0  0
   59.0487   33.3546   49.3837 H   0  0  0  0  0  0  0  0  0  0  0  0
   59.9882   34.9038   48.9924 H   0  0  0  0  0  0  0  0  0  0  0  0
   59.0410   33.9990   47.3500 C   0  0  0  0  0  0  0  0  0  0  0  0
   59.6020   34.7770   46.3200 C   0  0  0  0  0  0  0  0  0  0  0  0
   60.5587   35.2943   46.4845 H   0  0  0  0  0  0  0  0  0  0  0  0
   58.9500   34.8960   45.0890 C   0  0  0  0  0  0  0  0  0  0  0  0
   59.4077   35.4856   44.2810 H   0  0  0  0  0  0  0  0  0  0  0  0
   57.7200   34.2690   44.8820 C   0  0  0  0  0  0  0  0  0  0  0  0
   57.2151   34.3553   43.9085 H   0  0  0  0  0  0  0  0  0  0  0  0
   57.1310   33.5320   45.9120 C   0  0  0  0  0  0  0  0  0  0  0  0
   56.1564   33.0473   45.7532 H   0  0  0  0  0  0  0  0  0  0  0  0
   57.7790   33.4100   47.1440 C   0  0  0  0  0  0  0  0  0  0  0  0
   57.2991   32.8491   47.9596 H   0  0  0  0  0  0  0  0  0  0  0  0
   61.1860   32.1730   49.8230 C   0  0  0  0  0  0  0  0  0  0  0  0
   62.1270   32.2910   50.3804 H   0  0  0  0  0  0  0  0  0  0  0  0
   60.4623   32.1940   50.6512 H   0  0  0  0  0  0  0  0  0  0  0  0
   60.7450   28.0080   48.2760 C   0  0  0  0  0  0  0  0  0  0  0  0
   61.7500   28.1898   48.6845 H   0  0  0  0  0  0  0  0  0  0  0  0
   60.4460   26.7950   47.6560 C   0  0  0  0  0  0  0  0  0  0  0  0
   61.2169   26.0142   47.5778 H   0  0  0  0  0  0  0  0  0  0  0  0
   59.1700   26.5690   47.1340 C   0  0  0  0  0  0  0  0  0  0  0  0
   58.8150   25.0320   46.3560 Cl  0  0  0  0  0  0  0  0  0  0  0  0
  1  2  1  0
  2  3  1  0
  3  4  1  0
  4  5  1  0
  4  6  1  0
  4  7  1  0
  3  8  2  0
  8  9  1  0
  9 10  1  0
 10 11  1  0
 11 12  1  0
 11 13  1  0
 11 14  1  0
 14 15  2  0
 15 16  1  0
 16 17  1  0
 17 18  1  0
 18 19  1  0
 19 20  1  0
 19 21  1  0
 21 22  1  0
 21 23  1  0
 21 24  1  0
 24 25  1  0
 25 26  1  0
 25 27  1  0
 25 28  1  0
 28 29  2  0
 29 30  1  0
 29 31  1  0
 31 32  1  0
 31 33  2  0
 33 34  1  0
 33 35  1  0
 35 36  1  0
 35 37  2  0
 37 38  1  0
 24 39  1  0
 39 40  1  0
 39 41  1  0
 17 42  2  0
 42 43  1  0
 42 44  1  0
 44 45  1  0
 44 46  2  0
 46 47  1  0
 10  2  2  0
 46 15  1  0
 39 19  1  0
 37 28  1  0
M  CHG  1  16  -1
M  END
>  <UniqueID>  (44) 
39

>  <SMILES>  (44) 
Cc1cc(C/N=c2\[n-]c(OC3CN(Cc4ccccc4)C3)ccc2Cl)on1

>  <Energy>  (44) 
152.30858252607507

>  <Genealogy>  (44) 
Cc1cc(CN=c2[n-]c(OC3CN(Cc4ccccc4)C3)ccc2Cl)on1 (protonated)
Cc1cc(C/N=c2\[n-]c(OC3CN(Cc4ccccc4)C3)ccc2Cl)on1 (cis-trans isomerization)
Cc1cc(C/N=c2\[n-]c(OC3CN(Cc4ccccc4)C3)ccc2Cl)on1 (3D coordinates assigned)
Cc1cc(C/N=c2\[n-]c(OC3CN(Cc4ccccc4)C3)ccc2Cl)on1 (nonaromatic ring conformer: 152.30858252607507 kcal/mol)

>  <smiles>  (44) 
Cc1cc(CN=c2[nH]c(OC3CN(Cc4ccccc4)C3)ccc2Cl)on1

>  <score_type>  (44) 
oracle

>  <origin>  (44) 
adg

>  <m_score__min__energy>  (44) 
-10.949999999999999

>  <m_primary>  (44) 
energy

$$$$
44:0
     RDKit          3D

 75 80  0  0  0  0  0  0  0  0999 V2000
   58.1629   34.3931   51.6995 H   0  0  0  0  0  0  0  0  0  0  0  0
   58.4480   33.3380   51.8240 C   0  0  0  0  0  0  0  0  0  0  0  0
   57.4610   32.3480   51.8670 C   0  0  0  0  0  0  0  0  0  0  0  0
   56.4006   32.6250   51.7726 H   0  0  0  0  0  0  0  0  0  0  0  0
   57.8210   31.0050   52.0300 C   0  0  0  0  0  0  0  0  0  0  0  0
   57.0409   30.2308   52.0762 H   0  0  0  0  0  0  0  0  0  0  0  0
   59.1760   30.6410   52.1350 C   0  0  0  0  0  0  0  0  0  0  0  0
   59.5650   29.2090   52.3620 C   0  0  0  0  0  0  0  0  0  0  0  0
   58.6603   28.5848   52.4039 H   0  0  0  0  0  0  0  0  0  0  0  0
   60.1124   29.1222   53.3122 H   0  0  0  0  0  0  0  0  0  0  0  0
   60.4170   28.7600   51.2640 N   0  0  0  0  0  0  0  0  0  0  0  0
   60.0350   28.7050   50.0250 C   0  0  0  0  0  0  0  0  0  0  0  0
   60.0580   27.5340   49.3350 N   0  0  0  0  0  0  0  0  0  0  0  0
   59.6830   27.4960   48.0340 C   0  0  0  0  0  0  0  0  0  0  0  0
   59.7800   26.3780   47.3770 N   0  0  0  0  0  0  0  0  0  0  0  0
   59.3570   26.1740   45.9920 C   0  0  0  0  0  0  0  0  0  0  0  0
   60.1983   25.7814   45.4021 H   0  0  0  0  0  0  0  0  0  0  0  0
   59.0293   27.1292   45.5558 H   0  0  0  0  0  0  0  0  0  0  0  0
   58.2030   25.1700   45.9740 C   0  0  0  0  0  0  0  0  0  0  0  0
   58.5825   24.1865   46.2884 H   0  0  0  0  0  0  0  0  0  0  0  0
   57.8008   25.1316   44.9509 H   0  0  0  0  0  0  0  0  0  0  0  0
   57.0640   25.5880   46.9180 C   0  0  0  0  0  0  0  0  0  0  0  0
   57.2772   26.5932   47.3105 H   0  0  0  0  0  0  0  0  0  0  0  0
   57.0058   24.8507   47.7323 H   0  0  0  0  0  0  0  0  0  0  0  0
   55.7400   25.6120   46.2140 C   0  0  0  0  0  0  0  0  0  0  0  0
   55.1550   26.7120   45.9970 O   0  0  0  0  0  0  0  0  0  0  0  0
   55.1300   24.3770   45.8180 N   0  0  0  0  0  0  0  0  0  0  0  0
   55.7270   23.3560   44.9990 C   0  0  0  0  0  0  0  0  0  0  0  0
   55.6610   23.4300   43.5920 C   0  0  0  0  0  0  0  0  0  0  0  0
   55.1219   24.2610   43.1136 H   0  0  0  0  0  0  0  0  0  0  0  0
   56.2750   22.4560   42.8020 C   0  0  0  0  0  0  0  0  0  0  0  0
   56.2171   22.5246   41.7057 H   0  0  0  0  0  0  0  0  0  0  0  0
   56.9610   21.3970   43.3950 C   0  0  0  0  0  0  0  0  0  0  0  0
   57.4564   20.6420   42.7669 H   0  0  0  0  0  0  0  0  0  0  0  0
   57.0190   21.2950   44.7860 C   0  0  0  0  0  0  0  0  0  0  0  0
   57.5633   20.4587   45.2489 H   0  0  0  0  0  0  0  0  0  0  0  0
   56.3870   22.2530   45.6020 C   0  0  0  0  0  0  0  0  0  0  0  0
   56.4830   22.1030   47.0740 C   0  0  0  0  0  0  0  0  0  0  0  0
   57.3430   21.3180   47.5640 O   0  0  0  0  0  0  0  0  0  0  0  0
   55.5900   22.7860   47.9550 N   0  0  0  0  0  0  0  0  0  0  0  0
   54.7040   23.2300   47.6050 H   0  0  0  0  0  0  0  0  0  0  0  0
   55.7580   22.7550   48.9850 H   0  0  0  0  0  0  0  0  0  0  0  0
   59.2620   28.6350   47.4230 N   0  0  0  0  0  0  0  0  0  0  0  0
   59.2320   29.8100   48.1020 C   0  0  0  0  0  0  0  0  0  0  0  0
   58.8450   30.9170   47.5340 N   0  0  0  0  0  0  0  0  0  0  0  0
   59.5530   32.2060   47.4790 C   0  0  1  0  0  0  0  0  0  0  0  0
   58.8890   33.1560   48.5150 C   0  0  0  0  0  0  0  0  0  0  0  0
   58.9788   32.7171   49.5196 H   0  0  0  0  0  0  0  0  0  0  0  0
   57.8283   33.2852   48.2538 H   0  0  0  0  0  0  0  0  0  0  0  0
   59.5830   34.5370   48.4980 C   0  0  2  0  0  0  0  0  0  0  0  0
   59.1069   35.1988   49.2364 H   0  0  0  0  0  0  0  0  0  0  0  0
   59.4540   35.1520   47.0870 C   0  0  0  0  0  0  0  0  0  0  0  0
   59.9491   36.1341   47.0692 H   0  0  0  0  0  0  0  0  0  0  0  0
   58.3895   35.2713   46.8368 H   0  0  0  0  0  0  0  0  0  0  0  0
   60.1230   34.2200   46.0510 C   0  0  1  0  0  0  0  0  0  0  0  0
   60.0347   34.6610   45.0471 H   0  0  0  0  0  0  0  0  0  0  0  0
   61.6190   34.0470   46.4050 C   0  0  0  0  0  0  0  0  0  0  0  0
   62.1159   35.0282   46.3852 H   0  0  0  0  0  0  0  0  0  0  0  0
   62.0938   33.3795   45.6708 H   0  0  0  0  0  0  0  0  0  0  0  0
   61.7490   33.4320   47.8190 C   0  0  1  0  0  0  0  0  0  0  0  0
   62.8141   33.3119   48.0663 H   0  0  0  0  0  0  0  0  0  0  0  0
   61.0780   34.3680   48.8500 C   0  0  0  0  0  0  0  0  0  0  0  0
   61.5726   35.3503   48.8294 H   0  0  0  0  0  0  0  0  0  0  0  0
   61.1702   33.9312   49.8554 H   0  0  0  0  0  0  0  0  0  0  0  0
   61.0570   32.0490   47.8540 C   0  0  0  0  0  0  0  0  0  0  0  0
   61.1395   31.6241   48.8653 H   0  0  0  0  0  0  0  0  0  0  0  0
   61.5450   31.3785   47.1313 H   0  0  0  0  0  0  0  0  0  0  0  0
   59.4220   32.8450   46.0680 C   0  0  0  0  0  0  0  0  0  0  0  0
   58.3575   32.9745   45.8229 H   0  0  0  0  0  0  0  0  0  0  0  0
   59.8953   32.1862   45.3250 H   0  0  0  0  0  0  0  0  0  0  0  0
   59.6280   29.8380   49.3980 N   0  0  0  0  0  0  0  0  0  0  0  0
   60.1600   31.6430   52.0960 C   0  0  0  0  0  0  0  0  0  0  0  0
   61.2217   31.3709   52.1891 H   0  0  0  0  0  0  0  0  0  0  0  0
   59.7960   32.9880   51.9390 C   0  0  0  0  0  0  0  0  0  0  0  0
   60.5714   33.7675   51.9064 H   0  0  0  0  0  0  0  0  0  0  0  0
  1  2  1  0
  2  3  2  0
  3  4  1  0
  3  5  1  0
  5  6  1  0
  5  7  2  0
  7  8  1  0
  8  9  1  0
  8 10  1  0
  8 11  1  0
 11 12  2  3
 12 13  1  0
 13 14  1  0
 14 15  2  3
 15 16  1  0
 16 17  1  0
 16 18  1  0
 16 19  1  0
 19 20  1  0
 19 21  1  0
 19 22  1  0
 22 23  1  0
 22 24  1  0
 22 25  1  0
 25 26  2  0
 25 27  1  0
 27 28  1  0
 28 29  2  0
 29 30  1  0
 29 31  1  0
 31 32  1  0
 31 33  2  0
 33 34  1  0
 33 35  1  0
 35 36  1  0
 35 37  2  0
 37 38  1  0
 38 39  2  0
 38 40  1  0
 40 41  1  0
 40 42  1  0
 14 43  1  0
 43 44  1  0
 44 45  2  0
 46 45  1  6
 46 47  1  0
 47 48  1  0
 47 49  1  0
 47 50  1  0
 50 51  1  1
 50 52  1  0
 52 53  1  0
 52 54  1  0
 52 55  1  0
 55 56  1  6
 55 57  1  0
 57 58  1  0
 57 59  1  0
 57 60  1  0
 60 61  1  1
 60 62  1  0
 62 63  1  0
 62 64  1  0
 60 65  1  0
 65 66  1  0
 65 67  1  0
 55 68  1  0
 68 69  1  0
 68 70  1  0
 44 71  1  0
  7 72  1  0
 72 73  1  0
 72 74  2  0
 74 75  1  0
 74  2  1  0
 71 12  1  0
 37 28  1  0
 65 46  1  0
 68 46  1  0
 62 50  1  0
M  CHG  4  13  -1  27  -1  43  -1  71  -1
M  END
>  <UniqueID>  (45) 
40

>  <SMILES>  (45) 
NC(=O)c1ccccc1[N-]C(=O)CCCN=c1[n-]c(=NCc2ccccc2)[n-]/c(=N/C23CC4CC(CC(C4)C2)C3)[n-]1

>  <Energy>  (45) 
83.64718197712433

>  <Genealogy>  (45) 
NC(=O)c1ccccc1[N-]C(=O)CCCN=c1[n-]c(=NCc2ccccc2)[n-]c(=NC23CC4CC(CC(C4)C2)C3)[n-]1 (protonated)
NC(=O)c1ccccc1[N-]C(=O)CCCN=c1[n-]c(=NCc2ccccc2)[n-]/c(=N/C23CC4CC(CC(C4)C2)C3)[n-]1 (cis-trans isomerization)
NC(=O)c1ccccc1[N-]C(=O)CCCN=c1[n-]c(=NCc2ccccc2)[n-]/c(=N/C23CC4CC(CC(C4)C2)C3)[n-]1 (3D coordinates assigned)
NC(=O)c1ccccc1[N-]C(=O)CCCN=c1[n-]c(=NCc2ccccc2)[n-]/c(=N/C23CC4CC(CC(C4)C2)C3)[n-]1 (nonaromatic ring conformer: 83.64718197712433 kcal/mol)

>  <smiles>  (45) 
NC(=O)c1ccccc1NC(=O)CCCN=c1[nH]c(=NCc2ccccc2)[nH]c(=NC23CC4CC(CC(C4)C2)C3)[nH]1

>  <score_type>  (45) 
oracle

>  <origin>  (45) 
adg

>  <m_score__min__energy>  (45) 
-14.880000000000001

>  <m_primary>  (45) 
energy

$$$$
45:0
     RDKit          3D

 40 42  0  0  0  0  0  0  0  0999 V2000
   56.6400   30.1300   45.0070 O   0  0  0  0  0  0  0  0  0  0  0  0
   57.5010   29.3350   45.4710 C   0  0  0  0  0  0  0  0  0  0  0  0
   58.8670   29.7470   45.6220 N   0  0  0  0  0  0  0  0  0  0  0  0
   59.5050   30.1500   46.8420 C   0  0  0  0  0  0  0  0  0  0  0  0
   59.1210   29.6320   48.0920 C   0  0  0  0  0  0  0  0  0  0  0  0
   59.7720   30.0510   49.2560 C   0  0  0  0  0  0  0  0  0  0  0  0
   60.8100   30.9820   49.1840 C   0  0  0  0  0  0  0  0  0  0  0  0
   61.1940   31.5110   47.9430 C   0  0  0  0  0  0  0  0  0  0  0  0
   62.5520   32.6260   47.8130 S   0  0  0  0  0  0  0  0  0  0  0  0
   63.2310   32.7110   49.1530 O   0  0  0  0  0  0  0  0  0  0  0  0
   63.5470   32.1250   46.7980 O   0  0  0  0  0  0  0  0  0  0  0  0
   61.9770   34.2110   47.3590 N   0  0  0  0  0  0  0  0  0  0  0  0
   60.6370   34.4740   47.8980 C   0  0  0  0  0  0  0  0  0  0  0  0
   59.5700   34.1940   46.8780 C   0  0  0  0  0  0  0  0  0  0  0  0
   58.2830   33.7940   47.2720 C   0  0  0  0  0  0  0  0  0  0  0  0
   57.3260   33.5080   46.2930 C   0  0  0  0  0  0  0  0  0  0  0  0
   57.6510   33.6370   44.9440 C   0  0  0  0  0  0  0  0  0  0  0  0
   58.9400   34.0470   44.5890 C   0  0  0  0  0  0  0  0  0  0  0  0
   59.8610   34.3130   45.5540 N   0  0  0  0  0  0  0  0  0  0  0  0
   60.5200   31.1120   46.7810 C   0  0  0  0  0  0  0  0  0  0  0  0
   57.0800   27.9890   45.9060 C   0  0  0  0  0  0  0  0  0  0  0  0
   57.9540   27.1350   46.5970 C   0  0  0  0  0  0  0  0  0  0  0  0
   57.5020   25.8650   46.9630 C   0  0  0  0  0  0  0  0  0  0  0  0
   58.2620   25.0720   47.5810 O   0  0  0  0  0  0  0  0  0  0  0  0
   56.2380   25.4840   46.6550 N   0  0  0  0  0  0  0  0  0  0  0  0
   55.3930   26.3260   46.0020 C   0  0  0  0  0  0  0  0  0  0  0  0
   54.2120   25.9620   45.7520 O   0  0  0  0  0  0  0  0  0  0  0  0
   55.8170   27.5640   45.6320 N   0  0  0  0  0  0  0  0  0  0  0  0
   58.3064   28.8954   48.1538 H   0  0  0  0  0  0  0  0  0  0  0  0
   59.4655   29.6459   50.2317 H   0  0  0  0  0  0  0  0  0  0  0  0
   61.3270   31.3008   50.1011 H   0  0  0  0  0  0  0  0  0  0  0  0
   61.9020   34.2130   46.3150 H   0  0  0  0  0  0  0  0  0  0  0  0
   60.4715   33.8305   48.7747 H   0  0  0  0  0  0  0  0  0  0  0  0
   60.5788   35.5366   48.1764 H   0  0  0  0  0  0  0  0  0  0  0  0
   58.0302   33.7065   48.3390 H   0  0  0  0  0  0  0  0  0  0  0  0
   56.3177   33.1815   46.5876 H   0  0  0  0  0  0  0  0  0  0  0  0
   56.9027   33.4190   44.1678 H   0  0  0  0  0  0  0  0  0  0  0  0
   59.2095   34.1545   43.5280 H   0  0  0  0  0  0  0  0  0  0  0  0
   60.7908   31.5585   45.8129 H   0  0  0  0  0  0  0  0  0  0  0  0
   58.9752   27.4597   46.8455 H   0  0  0  0  0  0  0  0  0  0  0  0
  1  2  2  0
  2  3  1  0
  3  4  1  0
  4  5  2  0
  5  6  1  0
  6  7  2  0
  7  8  1  0
  8  9  1  0
  9 10  2  0
  9 11  2  0
  9 12  1  0
 12 13  1  0
 13 14  1  0
 14 15  2  0
 15 16  1  0
 16 17  2  0
 17 18  1  0
 18 19  2  0
  8 20  2  0
  2 21  1  0
 21 22  2  0
 22 23  1  0
 23 24  2  0
 23 25  1  0
 25 26  1  0
 26 27  2  0
 26 28  1  0
 20  4  1  0
 28 21  1  0
 19 14  1  0
  5 29  1  0
  6 30  1  0
  7 31  1  0
 12 32  1  0
 13 33  1  0
 13 34  1  0
 15 35  1  0
 16 36  1  0
 17 37  1  0
 18 38  1  0
 20 39  1  0
 22 40  1  0
M  CHG  3   3  -1  25  -1  28  -1
M  END
>  <UniqueID>  (46) 
41

>  <SMILES>  (46) 
O=C([N-]c1cccc(S(=O)(=O)NCc2ccccn2)c1)c1cc(=O)[n-]c(=O)[n-]1

>  <Energy>  (46) 
42.71963506762662

>  <Genealogy>  (46) 
O=C([N-]c1cccc(S(=O)(=O)NCc2ccccn2)c1)c1cc(=O)[n-]c(=O)[n-]1 (protonated)
O=C([N-]c1cccc(S(=O)(=O)NCc2ccccn2)c1)c1cc(=O)[n-]c(=O)[n-]1 (3D coordinates assigned)
O=C([N-]c1cccc(S(=O)(=O)NCc2ccccn2)c1)c1cc(=O)[n-]c(=O)[n-]1 (optimized conformer: 42.71963506762662 kcal/mol)

>  <smiles>  (46) 
O=C(Nc1cccc(S(=O)(=O)NCc2ccccn2)c1)c1cc(=O)[nH]c(=O)[nH]1

>  <score_type>  (46) 
oracle

>  <origin>  (46) 
adg

>  <m_score__min__energy>  (46) 
-14.619999999999999

>  <m_primary>  (46) 
energy

$$$$
46:0
     RDKit          3D

 51 54  0  0  0  0  0  0  0  0999 V2000
   56.7660   24.0440   44.0510 C   0  0  0  0  0  0  0  0  0  0  0  0
   57.7830   25.0800   44.2850 N   0  0  0  0  0  0  0  0  0  0  0  0
   57.7740   26.0650   43.1790 C   0  0  0  0  0  0  0  0  0  0  0  0
   58.4510   27.3770   43.5980 C   0  0  0  0  0  0  0  0  0  0  0  0
   57.7920   28.0060   44.7680 N   0  0  0  0  0  0  0  0  0  0  0  0
   56.8480   29.4030   44.3100 S   0  0  0  0  0  0  0  0  0  0  0  0
   56.7230   29.4590   42.8120 O   0  0  0  0  0  0  0  0  0  0  0  0
   55.4640   29.2710   44.8860 O   0  0  0  0  0  0  0  0  0  0  0  0
   57.5740   30.9060   44.8850 C   0  0  0  0  0  0  0  0  0  0  0  0
   57.5910   32.0390   44.0610 C   0  0  0  0  0  0  0  0  0  0  0  0
   58.2120   33.2130   44.4930 C   0  0  0  0  0  0  0  0  0  0  0  0
   58.8250   33.2650   45.7500 C   0  0  0  0  0  0  0  0  0  0  0  0
   59.7050   34.7160   46.2220 S   0  0  0  0  0  0  0  0  0  0  0  0
   59.5830   35.7330   45.1230 O   0  0  0  0  0  0  0  0  0  0  0  0
   59.1490   35.2960   47.4870 O   0  0  0  0  0  0  0  0  0  0  0  0
   61.3770   34.3160   46.4500 N   0  0  0  0  0  0  0  0  0  0  0  0
   61.9200   33.8610   47.6950 C   0  0  0  0  0  0  0  0  0  0  0  0
   61.0900   33.4740   48.7660 C   0  0  0  0  0  0  0  0  0  0  0  0
   61.6420   32.9520   49.9380 C   0  0  0  0  0  0  0  0  0  0  0  0
   63.0300   32.8010   50.0500 C   0  0  0  0  0  0  0  0  0  0  0  0
   63.5890   32.2480   51.1660 N   0  0  0  0  0  0  0  0  0  0  0  0
   64.9320   32.0780   51.2640 C   0  0  0  0  0  0  0  0  0  0  0  0
   65.7560   32.4760   50.2050 C   0  0  0  0  0  0  0  0  0  0  0  0
   66.9980   32.3100   50.2750 O   0  0  0  0  0  0  0  0  0  0  0  0
   65.2060   33.0350   49.0900 N   0  0  0  0  0  0  0  0  0  0  0  0
   63.8650   33.2100   48.9860 C   0  0  0  0  0  0  0  0  0  0  0  0
   63.3080   33.7550   47.8250 C   0  0  0  0  0  0  0  0  0  0  0  0
   58.7950   32.1390   46.5820 C   0  0  0  0  0  0  0  0  0  0  0  0
   58.1730   30.9640   46.1510 C   0  0  0  0  0  0  0  0  0  0  0  0
   56.9730   27.0730   45.5680 C   0  0  0  0  0  0  0  0  0  0  0  0
   57.6300   25.6910   45.6280 C   0  0  0  0  0  0  0  0  0  0  0  0
   56.3968   23.6679   45.0165 H   0  0  0  0  0  0  0  0  0  0  0  0
   55.9293   24.4737   43.4807 H   0  0  0  0  0  0  0  0  0  0  0  0
   57.2111   23.2154   43.4807 H   0  0  0  0  0  0  0  0  0  0  0  0
   58.3126   25.6425   42.3180 H   0  0  0  0  0  0  0  0  0  0  0  0
   56.7285   26.2818   42.9145 H   0  0  0  0  0  0  0  0  0  0  0  0
   59.4999   27.1669   43.8543 H   0  0  0  0  0  0  0  0  0  0  0  0
   58.3744   28.0779   42.7537 H   0  0  0  0  0  0  0  0  0  0  0  0
   57.1137   32.0038   43.0706 H   0  0  0  0  0  0  0  0  0  0  0  0
   58.2193   34.1002   43.8427 H   0  0  0  0  0  0  0  0  0  0  0  0
   59.9990   33.5839   48.6783 H   0  0  0  0  0  0  0  0  0  0  0  0
   60.9873   32.6598   50.7723 H   0  0  0  0  0  0  0  0  0  0  0  0
   62.9940   31.9290   51.9550 H   0  0  0  0  0  0  0  0  0  0  0  0
   65.3695   31.6308   52.1688 H   0  0  0  0  0  0  0  0  0  0  0  0
   63.9633   34.1011   47.0121 H   0  0  0  0  0  0  0  0  0  0  0  0
   59.2621   32.1794   47.5771 H   0  0  0  0  0  0  0  0  0  0  0  0
   58.1534   30.0816   46.8075 H   0  0  0  0  0  0  0  0  0  0  0  0
   56.8693   27.4682   46.5893 H   0  0  0  0  0  0  0  0  0  0  0  0
   55.9849   26.9746   45.0947 H   0  0  0  0  0  0  0  0  0  0  0  0
   58.6251   25.7923   46.0857 H   0  0  0  0  0  0  0  0  0  0  0  0
   56.9781   25.0348   46.2233 H   0  0  0  0  0  0  0  0  0  0  0  0
  1  2  1  0
  2  3  1  0
  3  4  1  0
  4  5  1  0
  5  6  1  0
  6  7  2  0
  6  8  2  0
  6  9  1  0
  9 10  2  0
 10 11  1  0
 11 12  2  0
 12 13  1  0
 13 14  2  0
 13 15  2  0
 13 16  1  0
 16 17  1  0
 17 18  2  0
 18 19  1  0
 19 20  2  0
 20 21  1  0
 21 22  2  0
 22 23  1  0
 23 24  2  0
 23 25  1  0
 25 26  1  0
 26 27  2  0
 12 28  1  0
 28 29  2  0
  5 30  1  0
 30 31  1  0
 31  2  1  0
 29  9  1  0
 27 17  1  0
 26 20  1  0
  1 32  1  0
  1 33  1  0
  1 34  1  0
  3 35  1  0
  3 36  1  0
  4 37  1  0
  4 38  1  0
 10 39  1  0
 11 40  1  0
 18 41  1  0
 19 42  1  0
 21 43  1  0
 22 44  1  0
 27 45  1  0
 28 46  1  0
 29 47  1  0
 30 48  1  0
 30 49  1  0
 31 50  1  0
 31 51  1  0
M  CHG  3  16  -1  21   1  25  -1
M  END
>  <UniqueID>  (47) 
42

>  <SMILES>  (47) 
CN1CCN(S(=O)(=O)c2ccc(S(=O)(=O)[N-]c3ccc4[nH+]cc(=O)[n-]c4c3)cc2)CC1

>  <Energy>  (47) 
72.05884158308577

>  <Genealogy>  (47) 
CN1CCN(S(=O)(=O)c2ccc(S(=O)(=O)[N-]c3ccc4[nH+]cc(=O)[n-]c4c3)cc2)CC1 (protonated)
CN1CCN(S(=O)(=O)c2ccc(S(=O)(=O)[N-]c3ccc4[nH+]cc(=O)[n-]c4c3)cc2)CC1 (3D coordinates assigned)
CN1CCN(S(=O)(=O)c2ccc(S(=O)(=O)[N-]c3ccc4[nH+]cc(=O)[n-]c4c3)cc2)CC1 (nonaromatic ring conformer: 72.05884158308577 kcal/mol)

>  <smiles>  (47) 
CN1CCN(S(=O)(=O)c2ccc(S(=O)(=O)Nc3ccc4ncc(=O)[nH]c4c3)cc2)CC1

>  <score_type>  (47) 
oracle

>  <origin>  (47) 
adg

>  <m_score__min__energy>  (47) 
-10.98

>  <m_primary>  (47) 
energy

$$$$
47:0
     RDKit          3D

 30 31  0  0  0  0  0  0  0  0999 V2000
   60.6298   25.3970   45.7678 H   0  0  0  0  0  0  0  0  0  0  0  0
   59.5660   25.2870   46.0250 C   0  0  0  0  0  0  0  0  0  0  0  0
   58.9020   23.9940   45.7540 C   0  0  0  0  0  0  0  0  0  0  0  0
   59.6240   22.9740   45.5990 O   0  0  0  0  0  0  0  0  0  0  0  0
   57.4310   23.8450   45.6650 C   0  0  0  0  0  0  0  0  0  0  0  0
   56.7390   24.4710   44.6170 C   0  0  0  0  0  0  0  0  0  0  0  0
   57.2941   25.0614   43.8732 H   0  0  0  0  0  0  0  0  0  0  0  0
   55.3510   24.3510   44.5100 C   0  0  0  0  0  0  0  0  0  0  0  0
   54.8232   24.8385   43.6771 H   0  0  0  0  0  0  0  0  0  0  0  0
   54.6250   23.6120   45.4590 C   0  0  0  0  0  0  0  0  0  0  0  0
   53.1560   23.4790   45.3490 C   0  0  0  0  0  0  0  0  0  0  0  0
   52.4250   24.5020   45.2630 O   0  0  0  0  0  0  0  0  0  0  0  0
   52.5600   22.2240   45.3390 O   0  0  0  0  0  0  0  0  0  0  0  0
   55.3140   23.0050   46.5230 C   0  0  0  0  0  0  0  0  0  0  0  0
   54.7558   22.4287   47.2755 H   0  0  0  0  0  0  0  0  0  0  0  0
   56.7040   23.1270   46.6340 C   0  0  0  0  0  0  0  0  0  0  0  0
   57.3490   22.5480   47.7220 O   0  0  0  0  0  0  0  0  0  0  0  0
   58.9260   26.3310   46.5710 C   0  0  0  0  0  0  0  0  0  0  0  0
   58.7549   26.3225   47.6576 H   0  0  0  0  0  0  0  0  0  0  0  0
   58.4350   27.4970   45.7960 C   0  0  0  0  0  0  0  0  0  0  0  0
   59.3040   28.4260   45.1850 C   0  0  0  0  0  0  0  0  0  0  0  0
   60.3928   28.2940   45.2688 H   0  0  0  0  0  0  0  0  0  0  0  0
   58.7880   29.5130   44.4740 C   0  0  0  0  0  0  0  0  0  0  0  0
   59.4724   30.2282   43.9943 H   0  0  0  0  0  0  0  0  0  0  0  0
   57.4080   29.6950   44.3700 C   0  0  0  0  0  0  0  0  0  0  0  0
   57.0066   30.5497   43.8057 H   0  0  0  0  0  0  0  0  0  0  0  0
   56.5370   28.7910   44.9830 C   0  0  0  0  0  0  0  0  0  0  0  0
   55.1640   28.9740   44.8850 O   0  0  0  0  0  0  0  0  0  0  0  0
   57.0480   27.7000   45.6970 C   0  0  0  0  0  0  0  0  0  0  0  0
   56.3577   26.9959   46.1845 H   0  0  0  0  0  0  0  0  0  0  0  0
  1  2  1  0
  2  3  1  0
  3  4  2  0
  3  5  1  0
  5  6  2  0
  6  7  1  0
  6  8  1  0
  8  9  1  0
  8 10  2  0
 10 11  1  0
 11 12  2  0
 11 13  1  0
 10 14  1  0
 14 15  1  0
 14 16  2  0
 16 17  1  0
  2 18  2  0
 18 19  1  0
 18 20  1  0
 20 21  2  0
 21 22  1  0
 21 23  1  0
 23 24  1  0
 23 25  2  0
 25 26  1  0
 25 27  1  0
 27 28  1  0
 27 29  2  0
 29 30  1  0
 16  5  1  0
 29 20  1  0
M  CHG  3  13  -1  17  -1  28  -1
M  END
>  <UniqueID>  (48) 
43

>  <SMILES>  (48) 
O=C([O-])c1ccc(C(=O)/C=C/c2cccc([O-])c2)c([O-])c1

>  <Energy>  (48) 
40.34650139633245

>  <Genealogy>  (48) 
O=C([O-])c1ccc(C(=O)C=Cc2cccc([O-])c2)c([O-])c1 (protonated)
O=C([O-])c1ccc(C(=O)/C=C/c2cccc([O-])c2)c([O-])c1 (cis-trans isomerization)
O=C([O-])c1ccc(C(=O)/C=C/c2cccc([O-])c2)c([O-])c1 (3D coordinates assigned)
O=C([O-])c1ccc(C(=O)/C=C/c2cccc([O-])c2)c([O-])c1 (optimized conformer: 40.34650139633245 kcal/mol)

>  <smiles>  (48) 
O=C(O)c1ccc(C(=O)C=Cc2cccc(O)c2)c(O)c1

>  <score_type>  (48) 
oracle

>  <origin>  (48) 
adg

>  <m_score__min__energy>  (48) 
-15.08

>  <m_primary>  (48) 
energy

$$$$
48:0
     RDKit          3D

 23 24  0  0  0  0  0  0  0  0999 V2000
   57.5831   31.3426   41.5142 H   0  0  0  0  0  0  0  0  0  0  0  0
   57.6510   32.2110   42.1860 C   0  0  0  0  0  0  0  0  0  0  0  0
   57.6202   33.2299   41.7726 H   0  0  0  0  0  0  0  0  0  0  0  0
   57.7710   32.0280   43.5050 C   0  0  0  0  0  0  0  0  0  0  0  0
   57.7360   30.8250   44.2290 C   0  0  0  0  0  0  0  0  0  0  0  0
   57.6960   29.5430   43.8180 C   0  0  0  0  0  0  0  0  0  0  0  0
   57.8361   29.3538   42.7435 H   0  0  0  0  0  0  0  0  0  0  0  0
   57.4800   28.3710   44.6880 C   0  0  0  0  0  0  0  0  0  0  0  0
   56.2190   28.1310   45.2500 C   0  0  0  0  0  0  0  0  0  0  0  0
   55.1460   28.9670   44.9540 O   0  0  0  0  0  0  0  0  0  0  0  0
   56.0350   27.0730   46.0850 N   0  0  0  0  0  0  0  0  0  0  0  0
   55.0880   26.8970   46.4910 H   0  0  0  0  0  0  0  0  0  0  0  0
   57.0680   26.2450   46.3990 C   0  0  0  0  0  0  0  0  0  0  0  0
   56.8840   25.2670   47.1700 O   0  0  0  0  0  0  0  0  0  0  0  0
   58.3040   26.4740   45.8860 N   0  0  0  0  0  0  0  0  0  0  0  0
   58.5350   27.5170   45.0490 C   0  0  0  0  0  0  0  0  0  0  0  0
   59.7000   27.7100   44.6080 O   0  0  0  0  0  0  0  0  0  0  0  0
   57.7600   31.1850   45.5680 C   0  0  0  0  0  0  0  0  0  0  0  0
   57.7185   30.5059   46.4323 H   0  0  0  0  0  0  0  0  0  0  0  0
   57.8460   32.5590   45.6040 C   0  0  0  0  0  0  0  0  0  0  0  0
   57.9160   33.5310   47.0600 Cl  0  0  0  0  0  0  0  0  0  0  0  0
   57.8570   33.0680   44.3600 N   0  0  0  0  0  0  0  0  0  0  0  0
   57.8890   34.0830   44.1160 H   0  0  0  0  0  0  0  0  0  0  0  0
  1  2  1  0
  2  3  1  0
  2  4  2  0
  4  5  1  0
  5  6  2  0
  6  7  1  0
  6  8  1  0
  8  9  2  0
  9 10  1  0
  9 11  1  0
 11 12  1  0
 11 13  1  0
 13 14  2  0
 13 15  1  0
 15 16  1  0
 16 17  2  0
  5 18  1  0
 18 19  1  0
 18 20  2  0
 20 21  1  0
 20 22  1  0
 22 23  1  0
 22  4  1  0
 16  8  1  0
M  CHG  2  10  -1  15  -1
M  END
>  <UniqueID>  (49) 
44

>  <SMILES>  (49) 
C=c1[nH]c(Cl)c/c1=C/c1c([O-])[nH]c(=O)[n-]c1=O

>  <Energy>  (49) 
64.60562672375826

>  <Genealogy>  (49) 
C=c1[nH]c(Cl)cc1=Cc1c([O-])[nH]c(=O)[n-]c1=O (protonated)
C=c1[nH]c(Cl)c/c1=C/c1c([O-])[nH]c(=O)[n-]c1=O (cis-trans isomerization)
C=c1[nH]c(Cl)c/c1=C/c1c([O-])[nH]c(=O)[n-]c1=O (3D coordinates assigned)
C=c1[nH]c(Cl)c/c1=C/c1c([O-])[nH]c(=O)[n-]c1=O (optimized conformer: 64.60562672375826 kcal/mol)

>  <smiles>  (49) 
C=c1[nH]c(Cl)cc1=Cc1c(O)[nH]c(=O)[nH]c1=O

>  <score_type>  (49) 
oracle

>  <origin>  (49) 
adg

>  <m_score__min__energy>  (49) 
-11.68

>  <m_primary>  (49) 
energy

$$$$
49:0
     RDKit          3D

 62 65  0  0  0  0  0  0  0  0999 V2000
   64.5210   32.9490   49.0080 C   0  0  0  0  0  0  0  0  0  0  0  0
   64.2280   31.9480   50.1360 C   0  0  2  0  0  0  0  0  0  0  0  0
   62.7550   31.4940   50.1000 C   0  0  0  0  0  0  0  0  0  0  0  0
   61.8660   32.5920   50.5010 N   0  0  0  0  0  0  0  0  0  0  0  0
   60.5500   32.7060   49.9250 C   0  0  0  0  0  0  0  0  0  0  0  0
   59.5350   32.4290   50.6150 O   0  0  0  0  0  0  0  0  0  0  0  0
   60.3780   33.1570   48.5760 N   0  0  0  0  0  0  0  0  0  0  0  0
   60.0060   34.5510   48.3090 C   0  0  0  0  0  0  0  0  0  0  0  0
   58.9300   34.6110   47.2180 C   0  0  0  0  0  0  0  0  0  0  0  0
   59.2530   33.7360   46.0760 N   0  0  0  0  0  0  0  0  0  0  0  0
   58.4140   33.8130   44.8960 C   0  0  0  0  0  0  0  0  0  0  0  0
   57.6390   34.7980   44.7500 O   0  0  0  0  0  0  0  0  0  0  0  0
   58.4480   32.7420   43.8310 C   0  0  0  0  0  0  0  0  0  0  0  0
   57.6670   31.5100   44.2190 C   0  0  0  0  0  0  0  0  0  0  0  0
   56.6120   31.0560   43.4090 C   0  0  0  0  0  0  0  0  0  0  0  0
   55.9100   29.8920   43.7490 C   0  0  0  0  0  0  0  0  0  0  0  0
   56.2450   29.1870   44.9060 C   0  0  0  0  0  0  0  0  0  0  0  0
   55.5400   28.0400   45.2480 O   0  0  0  0  0  0  0  0  0  0  0  0
   57.2930   29.6340   45.7190 C   0  0  0  0  0  0  0  0  0  0  0  0
   58.0040   30.7870   45.3760 C   0  0  0  0  0  0  0  0  0  0  0  0
   60.4710   32.9020   46.1110 C   0  0  0  0  0  0  0  0  0  0  0  0
   60.6180   32.2190   47.4770 C   0  0  0  0  0  0  0  0  0  0  0  0
   62.2890   33.5540   51.5320 C   0  0  0  0  0  0  0  0  0  0  0  0
   63.4860   33.0290   52.3350 C   0  0  0  0  0  0  0  0  0  0  0  0
   64.5520   32.5370   51.4500 N   0  0  0  0  0  0  0  0  0  0  0  0
   65.9140   32.5210   51.9230 C   0  0  0  0  0  0  0  0  0  0  0  0
   66.3000   31.5990   52.6910 O   0  0  0  0  0  0  0  0  0  0  0  0
   66.8890   33.5480   51.4940 C   0  0  0  0  0  0  0  0  0  0  0  0
   66.8780   34.8300   52.0710 C   0  0  0  0  0  0  0  0  0  0  0  0
   67.8200   35.7870   51.6800 C   0  0  0  0  0  0  0  0  0  0  0  0
   68.7740   35.4740   50.7070 C   0  0  0  0  0  0  0  0  0  0  0  0
   68.7970   34.1990   50.1330 C   0  0  0  0  0  0  0  0  0  0  0  0
   67.8660   33.2350   50.5330 C   0  0  0  0  0  0  0  0  0  0  0  0
   64.8048   33.9187   49.4429 H   0  0  0  0  0  0  0  0  0  0  0  0
   65.3460   32.5702   48.3867 H   0  0  0  0  0  0  0  0  0  0  0  0
   63.6220   33.0748   48.3867 H   0  0  0  0  0  0  0  0  0  0  0  0
   64.8649   31.0646   49.9810 H   0  0  0  0  0  0  0  0  0  0  0  0
   62.4994   31.1766   49.0783 H   0  0  0  0  0  0  0  0  0  0  0  0
   62.6244   30.6574   50.8021 H   0  0  0  0  0  0  0  0  0  0  0  0
   59.6147   35.0059   49.2310 H   0  0  0  0  0  0  0  0  0  0  0  0
   60.8952   35.1012   47.9675 H   0  0  0  0  0  0  0  0  0  0  0  0
   57.9692   34.2928   47.6487 H   0  0  0  0  0  0  0  0  0  0  0  0
   58.8770   35.6460   46.8491 H   0  0  0  0  0  0  0  0  0  0  0  0
   58.0198   33.1529   42.9048 H   0  0  0  0  0  0  0  0  0  0  0  0
   59.4974   32.4413   43.6955 H   0  0  0  0  0  0  0  0  0  0  0  0
   56.3361   31.6170   42.5040 H   0  0  0  0  0  0  0  0  0  0  0  0
   55.0944   29.5337   43.1037 H   0  0  0  0  0  0  0  0  0  0  0  0
   57.5574   29.0766   46.6297 H   0  0  0  0  0  0  0  0  0  0  0  0
   58.8313   31.1303   46.0145 H   0  0  0  0  0  0  0  0  0  0  0  0
   60.4053   32.1329   45.3273 H   0  0  0  0  0  0  0  0  0  0  0  0
   61.3467   33.5454   45.9398 H   0  0  0  0  0  0  0  0  0  0  0  0
   59.8915   31.3958   47.5448 H   0  0  0  0  0  0  0  0  0  0  0  0
   61.6475   31.8417   47.5646 H   0  0  0  0  0  0  0  0  0  0  0  0
   62.5724   34.4985   51.0446 H   0  0  0  0  0  0  0  0  0  0  0  0
   61.4492   33.7073   52.2257 H   0  0  0  0  0  0  0  0  0  0  0  0
   63.8849   33.8440   52.9568 H   0  0  0  0  0  0  0  0  0  0  0  0
   63.1424   32.1923   52.9611 H   0  0  0  0  0  0  0  0  0  0  0  0
   66.1255   35.0814   52.8330 H   0  0  0  0  0  0  0  0  0  0  0  0
   67.8103   36.7869   52.1384 H   0  0  0  0  0  0  0  0  0  0  0  0
   69.5072   36.2314   50.3927 H   0  0  0  0  0  0  0  0  0  0  0  0
   69.5474   33.9543   49.3668 H   0  0  0  0  0  0  0  0  0  0  0  0
   67.8984   32.2271   50.0935 H   0  0  0  0  0  0  0  0  0  0  0  0
  1  2  1  0
  2  3  1  0
  3  4  1  0
  4  5  1  0
  5  6  2  0
  5  7  1  0
  7  8  1  0
  8  9  1  0
  9 10  1  0
 10 11  1  0
 11 12  2  0
 11 13  1  0
 13 14  1  0
 14 15  2  0
 15 16  1  0
 16 17  2  0
 17 18  1  0
 17 19  1  0
 19 20  2  0
 10 21  1  0
 21 22  1  0
  4 23  1  0
 23 24  1  0
 24 25  1  0
 25 26  1  0
 26 27  2  0
 26 28  1  0
 28 29  2  0
 29 30  1  0
 30 31  2  0
 31 32  1  0
 32 33  2  0
 25  2  1  0
 33 28  1  0
 22  7  1  0
 20 14  1  0
  1 34  1  0
  1 35  1  0
  1 36  1  0
  2 37  1  6
  3 38  1  0
  3 39  1  0
  8 40  1  0
  8 41  1  0
  9 42  1  0
  9 43  1  0
 13 44  1  0
 13 45  1  0
 15 46  1  0
 16 47  1  0
 19 48  1  0
 20 49  1  0
 21 50  1  0
 21 51  1  0
 22 52  1  0
 22 53  1  0
 23 54  1  0
 23 55  1  0
 24 56  1  0
 24 57  1  0
 29 58  1  0
 30 59  1  0
 31 60  1  0
 32 61  1  0
 33 62  1  0
M  CHG  1  18  -1
M  END
>  <UniqueID>  (50) 
45

>  <SMILES>  (50) 
C[C@@H]1CN(C(=O)N2CCN(C(=O)Cc3ccc([O-])cc3)CC2)CCN1C(=O)c1ccccc1

>  <Energy>  (50) 
76.86918804051083

>  <Genealogy>  (50) 
CC1CN(C(=O)N2CCN(C(=O)Cc3ccc([O-])cc3)CC2)CCN1C(=O)c1ccccc1 (protonated)
C[C@@H]1CN(C(=O)N2CCN(C(=O)Cc3ccc([O-])cc3)CC2)CCN1C(=O)c1ccccc1 (chirality)
C[C@@H]1CN(C(=O)N2CCN(C(=O)Cc3ccc([O-])cc3)CC2)CCN1C(=O)c1ccccc1 (3D coordinates assigned)
C[C@@H]1CN(C(=O)N2CCN(C(=O)Cc3ccc([O-])cc3)CC2)CCN1C(=O)c1ccccc1 (nonaromatic ring conformer: 76.86918804051083 kcal/mol)

>  <smiles>  (50) 
CC1CN(C(=O)N2CCN(C(=O)Cc3ccc(O)cc3)CC2)CCN1C(=O)c1ccccc1

>  <score_type>  (50) 
oracle

>  <origin>  (50) 
adg

>  <m_score__min__energy>  (50) 
-11.94

>  <m_primary>  (50) 
energy

$$$$
50:0
     RDKit          3D

 52 53  0  0  0  0  0  0  0  0999 V2000
   58.4268   30.2150   44.1775 H   0  0  0  0  0  0  0  0  0  0  0  0
   57.7520   30.3340   45.0380 C   0  0  0  0  0  0  0  0  0  0  0  0
   56.3540   29.8920   44.8710 C   0  0  0  0  0  0  0  0  0  0  0  0
   55.5150   30.7090   44.4150 O   0  0  0  0  0  0  0  0  0  0  0  0
   55.9690   28.5470   45.2010 N   0  0  0  0  0  0  0  0  0  0  0  0
   56.7740   27.4340   45.7230 C   0  0  1  0  0  0  0  0  0  0  0  0
   57.3583   27.8316   46.5659 H   0  0  0  0  0  0  0  0  0  0  0  0
   55.9130   26.3430   46.3230 C   0  0  0  0  0  0  0  0  0  0  0  0
   54.7070   26.2100   45.9850 O   0  0  0  0  0  0  0  0  0  0  0  0
   56.4830   25.4540   47.2860 N   0  0  0  0  0  0  0  0  0  0  0  0
   56.1000   23.7650   47.3490 S   0  0  0  0  0  0  0  0  0  0  0  0
   57.0500   23.0740   48.2850 O   0  0  0  0  0  0  0  0  0  0  0  0
   54.7000   23.6040   47.8700 O   0  0  0  0  0  0  0  0  0  0  0  0
   56.2300   23.0280   45.7570 C   0  0  0  0  0  0  0  0  0  0  0  0
   57.5650   22.1540   45.2250 S   0  0  0  0  0  0  0  0  0  0  0  0
   56.8730   21.8210   43.7290 C   0  0  0  0  0  0  0  0  0  0  0  0
   57.5510   21.0820   42.6260 C   0  0  0  0  0  0  0  0  0  0  0  0
   58.2365   20.3348   43.0524 H   0  0  0  0  0  0  0  0  0  0  0  0
   56.7966   20.5758   42.0059 H   0  0  0  0  0  0  0  0  0  0  0  0
   58.1202   21.7901   42.0059 H   0  0  0  0  0  0  0  0  0  0  0  0
   55.6470   22.3760   43.6090 N   0  0  0  0  0  0  0  0  0  0  0  0
   55.2810   23.0530   44.7320 C   0  0  0  0  0  0  0  0  0  0  0  0
   53.9320   23.6890   44.8410 C   0  0  0  0  0  0  0  0  0  0  0  0
   53.6696   23.8127   45.9021 H   0  0  0  0  0  0  0  0  0  0  0  0
   53.9500   24.6735   44.3506 H   0  0  0  0  0  0  0  0  0  0  0  0
   53.1840   23.0487   44.3506 H   0  0  0  0  0  0  0  0  0  0  0  0
   57.8820   26.9370   44.7270 C   0  0  0  0  0  0  0  0  0  0  0  0
   57.7860   27.7330   43.4050 C   0  0  0  0  0  0  0  0  0  0  0  0
   57.6571   28.8021   43.6293 H   0  0  0  0  0  0  0  0  0  0  0  0
   58.7080   27.5891   42.8226 H   0  0  0  0  0  0  0  0  0  0  0  0
   56.9246   27.3740   42.8226 H   0  0  0  0  0  0  0  0  0  0  0  0
   59.2790   27.2060   45.3350 C   0  0  0  0  0  0  0  0  0  0  0  0
   59.2099   27.1927   46.4327 H   0  0  0  0  0  0  0  0  0  0  0  0
   59.9800   26.4263   45.0023 H   0  0  0  0  0  0  0  0  0  0  0  0
   59.6404   28.1902   45.0023 H   0  0  0  0  0  0  0  0  0  0  0  0
   57.7740   25.4310   44.4050 C   0  0  0  0  0  0  0  0  0  0  0  0
   57.7329   24.8576   45.3428 H   0  0  0  0  0  0  0  0  0  0  0  0
   56.8602   25.2454   43.8214 H   0  0  0  0  0  0  0  0  0  0  0  0
   58.6519   25.1169   43.8214 H   0  0  0  0  0  0  0  0  0  0  0  0
   58.2660   30.8700   46.1570 C   0  0  0  0  0  0  0  0  0  0  0  0
   58.2624   30.2538   47.0682 H   0  0  0  0  0  0  0  0  0  0  0  0
   58.8360   32.2300   46.2490 C   0  0  0  0  0  0  0  0  0  0  0  0
   58.0590   33.3240   45.8310 C   0  0  0  0  0  0  0  0  0  0  0  0
   56.8060   33.1330   45.3470 F   0  0  0  0  0  0  0  0  0  0  0  0
   58.5810   34.6190   45.8880 C   0  0  0  0  0  0  0  0  0  0  0  0
   57.9724   35.4708   45.5503 H   0  0  0  0  0  0  0  0  0  0  0  0
   59.8720   34.8350   46.3720 C   0  0  0  0  0  0  0  0  0  0  0  0
   60.2823   35.8550   46.4055 H   0  0  0  0  0  0  0  0  0  0  0  0
   60.6440   33.7580   46.8140 C   0  0  0  0  0  0  0  0  0  0  0  0
   61.6582   33.9336   47.2021 H   0  0  0  0  0  0  0  0  0  0  0  0
   60.1320   32.4560   46.7650 C   0  0  0  0  0  0  0  0  0  0  0  0
   61.1300   31.1410   47.3780 Cl  0  0  0  0  0  0  0  0  0  0  0  0
  1  2  1  0
  2  3  1  0
  3  4  2  0
  3  5  1  0
  5  6  1  0
  6  7  1  1
  6  8  1  0
  8  9  2  0
  8 10  1  0
 10 11  1  0
 11 12  2  0
 11 13  2  0
 11 14  1  0
 14 15  1  0
 15 16  1  0
 16 17  1  0
 17 18  1  0
 17 19  1  0
 17 20  1  0
 16 21  2  0
 21 22  1  0
 22 23  1  0
 23 24  1  0
 23 25  1  0
 23 26  1  0
  6 27  1  0
 27 28  1  0
 28 29  1  0
 28 30  1  0
 28 31  1  0
 27 32  1  0
 32 33  1  0
 32 34  1  0
 32 35  1  0
 27 36  1  0
 36 37  1  0
 36 38  1  0
 36 39  1  0
  2 40  2  0
 40 41  1  0
 40 42  1  0
 42 43  2  0
 43 44  1  0
 43 45  1  0
 45 46  1  0
 45 47  2  0
 47 48  1  0
 47 49  1  0
 49 50  1  0
 49 51  2  0
 51 52  1  0
 22 14  2  0
 51 42  1  0
M  CHG  2   5  -1  10  -1
M  END
>  <UniqueID>  (51) 
46

>  <SMILES>  (51) 
Cc1nc(C)c(S(=O)(=O)[N-]C(=O)[C@H]([N-]C(=O)/C=C\c2c(F)cccc2Cl)C(C)(C)C)s1

>  <Energy>  (51) 
89.8971149003091

>  <Genealogy>  (51) 
Cc1nc(C)c(S(=O)(=O)[N-]C(=O)C([N-]C(=O)C=Cc2c(F)cccc2Cl)C(C)(C)C)s1 (protonated)
Cc1nc(C)c(S(=O)(=O)[N-]C(=O)[C@H]([N-]C(=O)C=Cc2c(F)cccc2Cl)C(C)(C)C)s1 (chirality)
Cc1nc(C)c(S(=O)(=O)[N-]C(=O)[C@H]([N-]C(=O)/C=C\c2c(F)cccc2Cl)C(C)(C)C)s1 (cis-trans isomerization)
Cc1nc(C)c(S(=O)(=O)[N-]C(=O)[C@H]([N-]C(=O)/C=C\c2c(F)cccc2Cl)C(C)(C)C)s1 (3D coordinates assigned)
Cc1nc(C)c(S(=O)(=O)[N-]C(=O)[C@H]([N-]C(=O)/C=C\c2c(F)cccc2Cl)C(C)(C)C)s1 (optimized conformer: 89.8971149003091 kcal/mol)

>  <smiles>  (51) 
Cc1nc(C)c(S(=O)(=O)NC(=O)C(NC(=O)C=Cc2c(F)cccc2Cl)C(C)(C)C)s1

>  <score_type>  (51) 
oracle

>  <origin>  (51) 
adg

>  <m_score__min__energy>  (51) 
-14.050000000000001

>  <m_primary>  (51) 
energy

$$$$
51:0
     RDKit          3D

 60 62  0  0  0  0  0  0  0  0999 V2000
   57.7760   32.6800   43.4170 C   0  0  0  0  0  0  0  0  0  0  0  0
   57.4620   31.4030   44.1260 C   0  0  0  0  0  0  0  0  0  0  0  0
   56.6650   31.4170   45.1030 O   0  0  0  0  0  0  0  0  0  0  0  0
   58.1190   30.1900   43.7340 N   0  0  0  0  0  0  0  0  0  0  0  0
   57.7620   28.8860   44.2230 C   0  0  0  0  0  0  0  0  0  0  0  0
   58.3680   27.7510   43.6660 C   0  0  0  0  0  0  0  0  0  0  0  0
   58.0240   26.4720   44.1120 C   0  0  0  0  0  0  0  0  0  0  0  0
   57.0560   26.3110   45.1110 C   0  0  0  0  0  0  0  0  0  0  0  0
   56.6140   24.6910   45.6450 S   0  0  0  0  0  0  0  0  0  0  0  0
   55.2000   24.7190   46.1500 O   0  0  0  0  0  0  0  0  0  0  0  0
   56.6880   23.7240   44.4970 O   0  0  0  0  0  0  0  0  0  0  0  0
   57.6600   24.1590   46.9300 N   0  0  0  0  0  0  0  0  0  0  0  0
   57.8120   25.1800   47.9660 C   0  0  0  0  0  0  0  0  0  0  0  0
   58.7970   26.2390   47.5560 C   0  0  0  0  0  0  0  0  0  0  0  0
   59.8930   25.8840   47.0460 O   0  0  0  0  0  0  0  0  0  0  0  0
   58.5290   27.6410   47.6970 N   0  0  0  0  0  0  0  0  0  0  0  0
   59.4720   28.6860   48.0980 C   0  0  1  0  0  0  0  0  0  0  0  0
   59.7930   29.5870   46.8850 C   0  0  0  0  0  0  0  0  0  0  0  0
   58.8650   30.7150   46.7770 N   0  0  0  0  0  0  0  0  0  0  0  0
   59.2430   32.1040   46.8060 C   0  0  0  0  0  0  0  0  0  0  0  0
   60.5870   32.5120   46.7210 C   0  0  0  0  0  0  0  0  0  0  0  0
   60.9170   33.8710   46.7490 C   0  0  0  0  0  0  0  0  0  0  0  0
   59.9130   34.8340   46.8550 C   0  0  0  0  0  0  0  0  0  0  0  0
   58.5740   34.4410   46.9280 C   0  0  0  0  0  0  0  0  0  0  0  0
   58.2410   33.0840   46.9010 C   0  0  0  0  0  0  0  0  0  0  0  0
   58.8860   29.4710   49.2920 C   0  0  0  0  0  0  0  0  0  0  0  0
   59.6920   30.6940   49.6670 C   0  0  0  0  0  0  0  0  0  0  0  0
   61.0960   30.6610   49.6290 C   0  0  0  0  0  0  0  0  0  0  0  0
   61.8390   31.7980   49.9600 C   0  0  0  0  0  0  0  0  0  0  0  0
   61.1860   32.9750   50.3370 C   0  0  0  0  0  0  0  0  0  0  0  0
   59.7920   33.0150   50.3890 C   0  0  0  0  0  0  0  0  0  0  0  0
   59.0440   31.8790   50.0600 C   0  0  0  0  0  0  0  0  0  0  0  0
   56.4240   27.4400   45.6510 C   0  0  0  0  0  0  0  0  0  0  0  0
   56.7710   28.7200   45.2090 C   0  0  0  0  0  0  0  0  0  0  0  0
   57.9706   33.4713   44.1559 H   0  0  0  0  0  0  0  0  0  0  0  0
   58.6665   32.5400   42.7866 H   0  0  0  0  0  0  0  0  0  0  0  0
   56.9221   32.9689   42.7866 H   0  0  0  0  0  0  0  0  0  0  0  0
   58.9670   30.2720   43.1270 H   0  0  0  0  0  0  0  0  0  0  0  0
   59.1200   27.8681   42.8718 H   0  0  0  0  0  0  0  0  0  0  0  0
   58.5151   25.5891   43.6770 H   0  0  0  0  0  0  0  0  0  0  0  0
   56.8353   25.6519   48.1487 H   0  0  0  0  0  0  0  0  0  0  0  0
   58.1885   24.6930   48.8777 H   0  0  0  0  0  0  0  0  0  0  0  0
   60.4233   28.2458   48.4316 H   0  0  0  0  0  0  0  0  0  0  0  0
   60.8155   29.9778   46.9939 H   0  0  0  0  0  0  0  0  0  0  0  0
   59.6940   28.9779   45.9744 H   0  0  0  0  0  0  0  0  0  0  0  0
   57.8480   30.4870   46.6810 H   0  0  0  0  0  0  0  0  0  0  0  0
   61.3828   31.7578   46.6320 H   0  0  0  0  0  0  0  0  0  0  0  0
   61.9705   34.1812   46.6873 H   0  0  0  0  0  0  0  0  0  0  0  0
   60.1753   35.9019   46.8811 H   0  0  0  0  0  0  0  0  0  0  0  0
   57.7818   35.2000   47.0068 H   0  0  0  0  0  0  0  0  0  0  0  0
   57.1850   32.7806   46.9546 H   0  0  0  0  0  0  0  0  0  0  0  0
   57.8673   29.7929   49.0301 H   0  0  0  0  0  0  0  0  0  0  0  0
   58.9015   28.7960   50.1604 H   0  0  0  0  0  0  0  0  0  0  0  0
   61.6136   29.7353   49.3372 H   0  0  0  0  0  0  0  0  0  0  0  0
   62.9379   31.7664   49.9237 H   0  0  0  0  0  0  0  0  0  0  0  0
   61.7714   33.8704   50.5929 H   0  0  0  0  0  0  0  0  0  0  0  0
   59.2802   33.9413   50.6892 H   0  0  0  0  0  0  0  0  0  0  0  0
   57.9456   31.9128   50.1089 H   0  0  0  0  0  0  0  0  0  0  0  0
   55.6523   27.3181   46.4253 H   0  0  0  0  0  0  0  0  0  0  0  0
   56.2676   29.6012   45.6334 H   0  0  0  0  0  0  0  0  0  0  0  0
  1  2  1  0
  2  3  2  0
  2  4  1  0
  4  5  1  0
  5  6  2  0
  6  7  1  0
  7  8  2  0
  8  9  1  0
  9 10  2  0
  9 11  2  0
  9 12  1  0
 12 13  1  0
 13 14  1  0
 14 15  2  0
 14 16  1  0
 16 17  1  0
 17 18  1  0
 18 19  1  0
 19 20  1  0
 20 21  2  0
 21 22  1  0
 22 23  2  0
 23 24  1  0
 24 25  2  0
 17 26  1  0
 26 27  1  0
 27 28  2  0
 28 29  1  0
 29 30  2  0
 30 31  1  0
 31 32  2  0
  8 33  1  0
 33 34  2  0
 34  5  1  0
 25 20  1  0
 32 27  1  0
  1 35  1  0
  1 36  1  0
  1 37  1  0
  4 38  1  0
  6 39  1  0
  7 40  1  0
 13 41  1  0
 13 42  1  0
 17 43  1  1
 18 44  1  0
 18 45  1  0
 19 46  1  0
 21 47  1  0
 22 48  1  0
 23 49  1  0
 24 50  1  0
 25 51  1  0
 26 52  1  0
 26 53  1  0
 28 54  1  0
 29 55  1  0
 30 56  1  0
 31 57  1  0
 32 58  1  0
 33 59  1  0
 34 60  1  0
M  CHG  2  12  -1  16  -1
M  END
>  <UniqueID>  (52) 
47

>  <SMILES>  (52) 
CC(=O)Nc1ccc(S(=O)(=O)[N-]CC(=O)[N-][C@@H](CNc2ccccc2)Cc2ccccc2)cc1

>  <Energy>  (52) 
58.64189194592004

>  <Genealogy>  (52) 
CC(=O)Nc1ccc(S(=O)(=O)[N-]CC(=O)[N-]C(CNc2ccccc2)Cc2ccccc2)cc1 (protonated)
CC(=O)Nc1ccc(S(=O)(=O)[N-]CC(=O)[N-][C@@H](CNc2ccccc2)Cc2ccccc2)cc1 (chirality)
CC(=O)Nc1ccc(S(=O)(=O)[N-]CC(=O)[N-][C@@H](CNc2ccccc2)Cc2ccccc2)cc1 (3D coordinates assigned)
CC(=O)Nc1ccc(S(=O)(=O)[N-]CC(=O)[N-][C@@H](CNc2ccccc2)Cc2ccccc2)cc1 (optimized conformer: 58.64189194592004 kcal/mol)

>  <smiles>  (52) 
CC(=O)Nc1ccc(S(=O)(=O)NCC(=O)NC(CNc2ccccc2)Cc2ccccc2)cc1

>  <score_type>  (52) 
oracle

>  <origin>  (52) 
adg

>  <m_score__min__energy>  (52) 
-12.199999999999999

>  <m_primary>  (52) 
energy

$$$$
52:0
     RDKit          3D

 62 64  0  0  0  0  0  0  0  0999 V2000
   63.7930   32.5950   46.7680 C   0  0  0  0  0  0  0  0  0  0  0  0
   63.4890   33.6170   47.5720 C   0  0  0  0  0  0  0  0  0  0  0  0
   62.1610   33.8130   48.2060 C   0  0  0  0  0  0  0  0  0  0  0  0
   61.9450   33.6440   49.5890 C   0  0  0  0  0  0  0  0  0  0  0  0
   60.6740   33.8450   50.1330 C   0  0  0  0  0  0  0  0  0  0  0  0
   59.6130   34.2420   49.3150 C   0  0  0  0  0  0  0  0  0  0  0  0
   59.8200   34.4580   47.9510 C   0  0  0  0  0  0  0  0  0  0  0  0
   58.7230   34.8770   47.1340 N   0  0  0  0  0  0  0  0  0  0  0  0
   58.3410   34.1570   45.6020 S   0  0  0  0  0  0  0  0  0  0  0  0
   56.8990   34.4320   45.2820 O   0  0  0  0  0  0  0  0  0  0  0  0
   59.1920   34.7850   44.5350 O   0  0  0  0  0  0  0  0  0  0  0  0
   58.6010   32.4130   45.6160 C   0  0  0  0  0  0  0  0  0  0  0  0
   58.2380   31.6370   44.5080 C   0  0  0  0  0  0  0  0  0  0  0  0
   58.3710   30.2460   44.5490 C   0  0  0  0  0  0  0  0  0  0  0  0
   58.8670   29.6100   45.7020 C   0  0  0  0  0  0  0  0  0  0  0  0
   58.9830   28.1300   45.7560 C   0  0  0  0  0  0  0  0  0  0  0  0
   59.8990   27.5170   46.6300 C   0  0  0  0  0  0  0  0  0  0  0  0
   60.0070   26.1250   46.6820 C   0  0  0  0  0  0  0  0  0  0  0  0
   59.2060   25.3290   45.8630 C   0  0  0  0  0  0  0  0  0  0  0  0
   58.2910   25.9200   44.9780 C   0  0  0  0  0  0  0  0  0  0  0  0
   57.4160   25.0500   44.1160 C   0  0  0  0  0  0  0  0  0  0  0  0
   56.4510   24.3090   44.9570 N   0  0  0  0  0  0  0  0  0  0  0  0
   55.8880   25.1910   45.9940 C   0  0  0  0  0  0  0  0  0  0  0  0
   55.3660   23.7170   44.1440 C   0  0  0  0  0  0  0  0  0  0  0  0
   55.9380   22.9140   42.9650 C   0  0  0  0  0  0  0  0  0  0  0  0
   56.2180   21.5120   43.3490 N   0  0  0  0  0  0  0  0  0  0  0  0
   57.6020   21.1370   43.0120 C   0  0  0  0  0  0  0  0  0  0  0  0
   55.9970   21.3290   44.7920 C   0  0  0  0  0  0  0  0  0  0  0  0
   58.1800   27.3190   44.9320 C   0  0  0  0  0  0  0  0  0  0  0  0
   59.2390   30.3970   46.8060 C   0  0  0  0  0  0  0  0  0  0  0  0
   59.1080   31.7880   46.7610 C   0  0  0  0  0  0  0  0  0  0  0  0
   61.0860   34.2120   47.3960 C   0  0  0  0  0  0  0  0  0  0  0  0
   64.8010   32.5171   46.3346 H   0  0  0  0  0  0  0  0  0  0  0  0
   63.0354   31.8310   46.5392 H   0  0  0  0  0  0  0  0  0  0  0  0
   64.2726   34.3611   47.7776 H   0  0  0  0  0  0  0  0  0  0  0  0
   62.7806   33.3527   50.2423 H   0  0  0  0  0  0  0  0  0  0  0  0
   60.5079   33.6902   51.2093 H   0  0  0  0  0  0  0  0  0  0  0  0
   58.6115   34.3848   49.7469 H   0  0  0  0  0  0  0  0  0  0  0  0
   57.8469   32.1238   43.6024 H   0  0  0  0  0  0  0  0  0  0  0  0
   58.0858   29.6442   43.6735 H   0  0  0  0  0  0  0  0  0  0  0  0
   60.5351   28.1383   47.2775 H   0  0  0  0  0  0  0  0  0  0  0  0
   60.7253   25.6557   47.3703 H   0  0  0  0  0  0  0  0  0  0  0  0
   59.2919   24.2334   45.9110 H   0  0  0  0  0  0  0  0  0  0  0  0
   56.8668   25.6807   43.4015 H   0  0  0  0  0  0  0  0  0  0  0  0
   58.0466   24.3310   43.5724 H   0  0  0  0  0  0  0  0  0  0  0  0
   56.1407   24.7952   46.9887 H   0  0  0  0  0  0  0  0  0  0  0  0
   56.3085   26.2014   45.8838 H   0  0  0  0  0  0  0  0  0  0  0  0
   54.7944   25.2350   45.8838 H   0  0  0  0  0  0  0  0  0  0  0  0
   54.7656   23.0477   44.7777 H   0  0  0  0  0  0  0  0  0  0  0  0
   54.7427   24.5307   43.7448 H   0  0  0  0  0  0  0  0  0  0  0  0
   55.2092   22.9203   42.1411 H   0  0  0  0  0  0  0  0  0  0  0  0
   56.8836   23.3824   42.6546 H   0  0  0  0  0  0  0  0  0  0  0  0
   58.1755   20.9816   43.9377 H   0  0  0  0  0  0  0  0  0  0  0  0
   57.5971   20.2078   42.4233 H   0  0  0  0  0  0  0  0  0  0  0  0
   58.0669   21.9416   42.4233 H   0  0  0  0  0  0  0  0  0  0  0  0
   56.7254   21.9321   45.3539 H   0  0  0  0  0  0  0  0  0  0  0  0
   54.9774   21.6508   45.0505 H   0  0  0  0  0  0  0  0  0  0  0  0
   56.1230   20.2673   45.0505 H   0  0  0  0  0  0  0  0  0  0  0  0
   57.4585   27.7858   44.2453 H   0  0  0  0  0  0  0  0  0  0  0  0
   59.6359   29.9148   47.7115 H   0  0  0  0  0  0  0  0  0  0  0  0
   59.4048   32.3942   47.6296 H   0  0  0  0  0  0  0  0  0  0  0  0
   61.2374   34.3334   46.3133 H   0  0  0  0  0  0  0  0  0  0  0  0
  1  2  2  0
  2  3  1  0
  3  4  2  0
  4  5  1  0
  5  6  2  0
  6  7  1  0
  7  8  1  0
  8  9  1  0
  9 10  2  0
  9 11  2  0
  9 12  1  0
 12 13  2  0
 13 14  1  0
 14 15  2  0
 15 16  1  0
 16 17  2  0
 17 18  1  0
 18 19  2  0
 19 20  1  0
 20 21  1  0
 21 22  1  0
 22 23  1  0
 22 24  1  0
 24 25  1  0
 25 26  1  0
 26 27  1  0
 26 28  1  0
 20 29  2  0
 15 30  1  0
 30 31  2  0
  7 32  2  0
 32  3  1  0
 31 12  1  0
 29 16  1  0
  1 33  1  0
  1 34  1  0
  2 35  1  0
  4 36  1  0
  5 37  1  0
  6 38  1  0
 13 39  1  0
 14 40  1  0
 17 41  1  0
 18 42  1  0
 19 43  1  0
 21 44  1  0
 21 45  1  0
 23 46  1  0
 23 47  1  0
 23 48  1  0
 24 49  1  0
 24 50  1  0
 25 51  1  0
 25 52  1  0
 27 53  1  0
 27 54  1  0
 27 55  1  0
 28 56  1  0
 28 57  1  0
 28 58  1  0
 29 59  1  0
 30 60  1  0
 31 61  1  0
 32 62  1  0
M  CHG  1   8  -1
M  END
>  <UniqueID>  (53) 
48

>  <SMILES>  (53) 
C=Cc1cccc([N-]S(=O)(=O)c2ccc(-c3cccc(CN(C)CCN(C)C)c3)cc2)c1

>  <Energy>  (53) 
77.79163165061199

>  <Genealogy>  (53) 
C=Cc1cccc([N-]S(=O)(=O)c2ccc(-c3cccc(CN(C)CCN(C)C)c3)cc2)c1 (protonated)
C=Cc1cccc([N-]S(=O)(=O)c2ccc(-c3cccc(CN(C)CCN(C)C)c3)cc2)c1 (3D coordinates assigned)
C=Cc1cccc([N-]S(=O)(=O)c2ccc(-c3cccc(CN(C)CCN(C)C)c3)cc2)c1 (optimized conformer: 77.79163165061199 kcal/mol)

>  <smiles>  (53) 
C=Cc1cccc(NS(=O)(=O)c2ccc(-c3cccc(CN(C)CCN(C)C)c3)cc2)c1

>  <score_type>  (53) 
oracle

>  <origin>  (53) 
adg

>  <m_score__min__energy>  (53) 
-10.57

>  <m_primary>  (53) 
energy

$$$$
53:0
     RDKit          3D

 48 50  0  0  0  0  0  0  0  0999 V2000
   66.2820   33.3440   50.6040 C   0  0  0  0  0  0  0  0  0  0  0  0
   65.7070   31.9960   50.1880 C   0  0  0  0  0  0  0  0  0  0  0  0
   64.3960   32.1750   49.5740 N   0  0  0  0  0  0  0  0  0  0  0  0
   64.0290   33.2000   48.7810 C   0  0  0  0  0  0  0  0  0  0  0  0
   62.7420   32.9590   48.3590 C   0  0  0  0  0  0  0  0  0  0  0  0
   61.9960   33.7760   47.4450 N   0  0  0  0  0  0  0  0  0  0  0  0
   60.7790   34.4640   47.7770 C   0  0  0  0  0  0  0  0  0  0  0  0
   60.4000   34.5660   48.9740 O   0  0  0  0  0  0  0  0  0  0  0  0
   59.9390   35.0620   46.6890 C   0  0  0  0  0  0  0  0  0  0  0  0
   59.0220   34.0170   46.1180 C   0  0  0  0  0  0  0  0  0  0  0  0
   58.5960   32.9400   46.9120 C   0  0  0  0  0  0  0  0  0  0  0  0
   57.7740   31.9480   46.3710 C   0  0  0  0  0  0  0  0  0  0  0  0
   57.3610   32.0190   45.0360 C   0  0  0  0  0  0  0  0  0  0  0  0
   56.5260   30.9750   44.5110 N   0  0  0  0  0  0  0  0  0  0  0  0
   56.5900   29.5850   44.8600 C   0  0  0  0  0  0  0  0  0  0  0  0
   55.5210   28.9180   44.8710 O   0  0  0  0  0  0  0  0  0  0  0  0
   57.8820   28.9030   45.1140 C   0  0  0  0  0  0  0  0  0  0  0  0
   59.0720   29.5380   44.7150 C   0  0  0  0  0  0  0  0  0  0  0  0
   60.3090   28.9250   44.9190 C   0  0  0  0  0  0  0  0  0  0  0  0
   60.3760   27.6660   45.5160 C   0  0  0  0  0  0  0  0  0  0  0  0
   59.2050   27.0200   45.9190 C   0  0  0  0  0  0  0  0  0  0  0  0
   57.9520   27.6300   45.7370 C   0  0  0  0  0  0  0  0  0  0  0  0
   56.7160   26.9110   46.2120 C   0  0  0  0  0  0  0  0  0  0  0  0
   57.8190   33.0750   44.2290 C   0  0  0  0  0  0  0  0  0  0  0  0
   58.6400   34.0680   44.7690 C   0  0  0  0  0  0  0  0  0  0  0  0
   62.3840   31.7420   48.9140 C   0  0  0  0  0  0  0  0  0  0  0  0
   63.4180   31.2840   49.6490 N   0  0  0  0  0  0  0  0  0  0  0  0
   66.3093   33.4080   51.7018 H   0  0  0  0  0  0  0  0  0  0  0  0
   67.3021   33.4463   50.2053 H   0  0  0  0  0  0  0  0  0  0  0  0
   65.6498   34.1511   50.2053 H   0  0  0  0  0  0  0  0  0  0  0  0
   66.3850   31.5195   49.4646 H   0  0  0  0  0  0  0  0  0  0  0  0
   65.6018   31.3603   51.0795 H   0  0  0  0  0  0  0  0  0  0  0  0
   64.6464   34.0717   48.5184 H   0  0  0  0  0  0  0  0  0  0  0  0
   62.3720   33.8840   46.4770 H   0  0  0  0  0  0  0  0  0  0  0  0
   59.3397   35.8866   47.1024 H   0  0  0  0  0  0  0  0  0  0  0  0
   60.5953   35.4424   45.8924 H   0  0  0  0  0  0  0  0  0  0  0  0
   58.9107   32.8770   47.9641 H   0  0  0  0  0  0  0  0  0  0  0  0
   57.4493   31.1053   46.9990 H   0  0  0  0  0  0  0  0  0  0  0  0
   59.0271   30.5278   44.2373 H   0  0  0  0  0  0  0  0  0  0  0  0
   61.2326   29.4354   44.6085 H   0  0  0  0  0  0  0  0  0  0  0  0
   61.3516   27.1817   45.6695 H   0  0  0  0  0  0  0  0  0  0  0  0
   59.2641   26.0245   46.3832 H   0  0  0  0  0  0  0  0  0  0  0  0
   56.6978   26.9004   47.3118 H   0  0  0  0  0  0  0  0  0  0  0  0
   55.8223   27.4302   45.8355 H   0  0  0  0  0  0  0  0  0  0  0  0
   56.7255   25.8775   45.8355 H   0  0  0  0  0  0  0  0  0  0  0  0
   57.5299   33.1196   43.1686 H   0  0  0  0  0  0  0  0  0  0  0  0
   58.9890   34.8947   44.1328 H   0  0  0  0  0  0  0  0  0  0  0  0
   61.4179   31.2338   48.7782 H   0  0  0  0  0  0  0  0  0  0  0  0
  1  2  1  0
  2  3  1  0
  3  4  1  0
  4  5  2  0
  5  6  1  0
  6  7  1  0
  7  8  2  0
  7  9  1  0
  9 10  1  0
 10 11  2  0
 11 12  1  0
 12 13  2  0
 13 14  1  0
 14 15  1  0
 15 16  2  0
 15 17  1  0
 17 18  2  0
 18 19  1  0
 19 20  2  0
 20 21  1  0
 21 22  2  0
 22 23  1  0
 13 24  1  0
 24 25  2  0
  5 26  1  0
 26 27  2  0
 27  3  1  0
 25 10  1  0
 22 17  1  0
  1 28  1  0
  1 29  1  0
  1 30  1  0
  2 31  1  0
  2 32  1  0
  4 33  1  0
  6 34  1  0
  9 35  1  0
  9 36  1  0
 11 37  1  0
 12 38  1  0
 18 39  1  0
 19 40  1  0
 20 41  1  0
 21 42  1  0
 23 43  1  0
 23 44  1  0
 23 45  1  0
 24 46  1  0
 25 47  1  0
 26 48  1  0
M  CHG  1  14  -1
M  END
>  <UniqueID>  (54) 
49

>  <SMILES>  (54) 
CCn1cc(NC(=O)Cc2ccc([N-]C(=O)c3ccccc3C)cc2)cn1

>  <Energy>  (54) 
85.00971930335842

>  <Genealogy>  (54) 
CCn1cc(NC(=O)Cc2ccc([N-]C(=O)c3ccccc3C)cc2)cn1 (protonated)
CCn1cc(NC(=O)Cc2ccc([N-]C(=O)c3ccccc3C)cc2)cn1 (3D coordinates assigned)
CCn1cc(NC(=O)Cc2ccc([N-]C(=O)c3ccccc3C)cc2)cn1 (optimized conformer: 85.00971930335842 kcal/mol)

>  <smiles>  (54) 
CCn1cc(NC(=O)Cc2ccc(NC(=O)c3ccccc3C)cc2)cn1

>  <score_type>  (54) 
oracle

>  <origin>  (54) 
adg

>  <m_score__min__energy>  (54) 
-10.18

>  <m_primary>  (54) 
energy

$$$$
54:0
     RDKit          3D

 33 35  0  0  0  0  0  0  0  0999 V2000
   55.1430   27.4770   45.4440 H   0  0  0  0  0  0  0  0  0  0  0  0
   54.9250   26.6610   46.0010 O   0  0  0  0  0  0  0  0  0  0  0  0
   55.9140   25.7380   46.3260 C   0  0  0  0  0  0  0  0  0  0  0  0
   55.7160   24.6780   47.1280 N   0  0  0  0  0  0  0  0  0  0  0  0
   56.9180   24.0630   47.1050 C   0  0  0  0  0  0  0  0  0  0  0  0
   57.1470   23.0010   47.7400 O   0  0  0  0  0  0  0  0  0  0  0  0
   57.8510   24.6670   46.3370 N   0  0  0  0  0  0  0  0  0  0  0  0
   57.2110   25.7520   45.8680 C   0  0  0  0  0  0  0  0  0  0  0  0
   57.7870   26.6690   44.8730 C   0  0  0  0  0  0  0  0  0  0  0  0
   57.7783   26.3432   43.8224 H   0  0  0  0  0  0  0  0  0  0  0  0
   58.3240   27.8740   45.1410 C   0  0  0  0  0  0  0  0  0  0  0  0
   59.6140   28.2580   45.5440 C   0  0  0  0  0  0  0  0  0  0  0  0
   60.7140   27.5100   45.6390 C   0  0  0  0  0  0  0  0  0  0  0  0
   60.6560   26.4236   45.4768 H   0  0  0  0  0  0  0  0  0  0  0  0
   61.6793   27.9795   45.8795 H   0  0  0  0  0  0  0  0  0  0  0  0
   59.6490   29.5950   45.7370 N   0  0  0  0  0  0  0  0  0  0  0  0
   58.4560   30.0850   45.4380 N   0  0  0  0  0  0  0  0  0  0  0  0
   58.1130   31.4730   45.5690 C   0  0  0  0  0  0  0  0  0  0  0  0
   58.1540   32.0630   46.8410 C   0  0  0  0  0  0  0  0  0  0  0  0
   58.4619   31.4642   47.7109 H   0  0  0  0  0  0  0  0  0  0  0  0
   57.8070   33.4040   47.0110 C   0  0  0  0  0  0  0  0  0  0  0  0
   57.8380   33.8566   48.0131 H   0  0  0  0  0  0  0  0  0  0  0  0
   57.4210   34.1710   45.9120 C   0  0  0  0  0  0  0  0  0  0  0  0
   57.1351   35.2242   46.0503 H   0  0  0  0  0  0  0  0  0  0  0  0
   57.3970   33.6030   44.6350 C   0  0  0  0  0  0  0  0  0  0  0  0
   57.0894   34.2122   43.7723 H   0  0  0  0  0  0  0  0  0  0  0  0
   57.7630   32.2590   44.4450 C   0  0  0  0  0  0  0  0  0  0  0  0
   57.7610   31.6940   43.0510 C   0  0  0  0  0  0  0  0  0  0  0  0
   57.7571   30.5951   43.1007 H   0  0  0  0  0  0  0  0  0  0  0  0
   56.8641   32.0400   42.5164 H   0  0  0  0  0  0  0  0  0  0  0  0
   58.6604   32.0337   42.5164 H   0  0  0  0  0  0  0  0  0  0  0  0
   57.6420   29.0760   45.0770 C   0  0  0  0  0  0  0  0  0  0  0  0
   56.4230   29.2190   44.7840 O   0  0  0  0  0  0  0  0  0  0  0  0
  1  2  1  0
  2  3  1  0
  3  4  1  0
  4  5  1  0
  5  6  2  0
  5  7  1  0
  7  8  1  0
  8  9  1  0
  9 10  1  0
  9 11  2  0
 11 12  1  0
 12 13  2  0
 13 14  1  0
 13 15  1  0
 12 16  1  0
 16 17  1  0
 17 18  1  0
 18 19  2  0
 19 20  1  0
 19 21  1  0
 21 22  1  0
 21 23  2  0
 23 24  1  0
 23 25  1  0
 25 26  1  0
 25 27  2  0
 27 28  1  0
 28 29  1  0
 28 30  1  0
 28 31  1  0
 17 32  1  0
 32 33  2  0
  8  3  2  0
 32 11  1  0
 27 18  1  0
M  CHG  3   4  -1   7  -1  16  -1
M  END
>  <UniqueID>  (55) 
50

>  <SMILES>  (55) 
C=c1[n-]n(-c2ccccc2C)c(=O)/c1=C/c1[n-]c(=O)[n-]c1O

>  <Energy>  (55) 
115.78311695912195

>  <Genealogy>  (55) 
C=c1[n-]n(-c2ccccc2C)c(=O)c1=Cc1[n-]c(=O)[n-]c1O (protonated)
C=c1[n-]n(-c2ccccc2C)c(=O)/c1=C/c1[n-]c(=O)[n-]c1O (cis-trans isomerization)
C=c1[n-]n(-c2ccccc2C)c(=O)/c1=C/c1[n-]c(=O)[n-]c1O (3D coordinates assigned)
C=c1[n-]n(-c2ccccc2C)c(=O)/c1=C/c1[n-]c(=O)[n-]c1O (optimized conformer: 115.78311695912195 kcal/mol)

>  <smiles>  (55) 
C=c1[nH]n(-c2ccccc2C)c(=O)c1=Cc1[nH]c(=O)[nH]c1O

>  <score_type>  (55) 
oracle

>  <origin>  (55) 
adg

>  <m_score__min__energy>  (55) 
-13.33

>  <m_primary>  (55) 
energy

$$$$
55:0
     RDKit          3D

 63 67  0  0  0  0  0  0  0  0999 V2000
   55.9250   29.7250   46.0520 H   0  0  0  0  0  0  0  0  0  0  0  0
   55.6510   29.2780   45.2090 O   0  0  0  0  0  0  0  0  0  0  0  0
   56.8320   28.8280   44.6070 C   0  0  0  0  0  0  0  0  0  0  0  0
   56.5853   28.1410   43.7841 H   0  0  0  0  0  0  0  0  0  0  0  0
   57.4460   28.3016   45.3526 H   0  0  0  0  0  0  0  0  0  0  0  0
   57.6100   30.0210   44.0580 C   0  0  0  0  0  0  0  0  0  0  0  0
   57.0214   30.5023   43.2631 H   0  0  0  0  0  0  0  0  0  0  0  0
   58.5702   29.6653   43.6561 H   0  0  0  0  0  0  0  0  0  0  0  0
   57.8790   31.0190   45.1470 C   0  0  0  0  0  0  0  0  0  0  0  0
   57.9300   30.6680   46.4500 N   0  0  0  0  0  0  0  0  0  0  0  0
   58.1570   31.8250   47.1010 C   0  0  0  0  0  0  0  0  0  0  0  0
   58.2692   31.9292   48.1903 H   0  0  0  0  0  0  0  0  0  0  0  0
   58.2270   32.8590   46.1910 C   0  0  0  0  0  0  0  0  0  0  0  0
   58.4690   34.3130   46.5330 C   0  0  0  0  0  0  0  0  0  0  0  0
   58.3235   34.9141   45.6233 H   0  0  0  0  0  0  0  0  0  0  0  0
   57.7576   34.5826   47.3275 H   0  0  0  0  0  0  0  0  0  0  0  0
   59.8280   34.5750   47.0560 N   0  0  0  0  0  0  0  0  0  0  0  0
   59.9120   34.5220   48.5330 C   0  0  0  0  0  0  0  0  0  0  0  0
   59.4430   35.4257   48.9493 H   0  0  0  0  0  0  0  0  0  0  0  0
   59.3914   33.6148   48.8735 H   0  0  0  0  0  0  0  0  0  0  0  0
   61.3600   34.4490   49.0150 C   0  0  0  0  0  0  0  0  0  0  0  0
   61.9048   35.3427   48.6767 H   0  0  0  0  0  0  0  0  0  0  0  0
   61.3793   34.4026   50.1138 H   0  0  0  0  0  0  0  0  0  0  0  0
   61.9990   33.2470   48.4620 N   0  0  0  0  0  0  0  0  0  0  0  0
   63.0380   32.5790   49.2110 C   0  0  0  0  0  0  0  0  0  0  0  0
   62.7090   31.5840   50.0800 N   0  0  0  0  0  0  0  0  0  0  0  0
   63.6520   30.9100   50.7880 C   0  0  0  0  0  0  0  0  0  0  0  0
   63.2780   29.9730   51.6110 N   0  0  0  0  0  0  0  0  0  0  0  0
   62.2720   28.9700   51.3870 C   0  0  0  0  0  0  0  0  0  0  0  0
   62.4390   27.8270   51.8870 O   0  0  0  0  0  0  0  0  0  0  0  0
   61.0360   29.2340   50.6120 C   0  0  0  0  0  0  0  0  0  0  0  0
   60.7290   28.3740   49.5480 C   0  0  0  0  0  0  0  0  0  0  0  0
   61.3776   27.5119   49.3333 H   0  0  0  0  0  0  0  0  0  0  0  0
   59.6020   28.6110   48.7620 C   0  0  0  0  0  0  0  0  0  0  0  0
   59.3689   27.9375   47.9241 H   0  0  0  0  0  0  0  0  0  0  0  0
   58.7900   29.6680   49.0240 N   0  0  0  0  0  0  0  0  0  0  0  0
   57.9570   29.8160   48.4080 H   0  0  0  0  0  0  0  0  0  0  0  0
   59.0340   30.5150   50.0650 C   0  0  0  0  0  0  0  0  0  0  0  0
   58.1610   31.5860   50.3180 C   0  0  0  0  0  0  0  0  0  0  0  0
   57.2932   31.7512   49.6626 H   0  0  0  0  0  0  0  0  0  0  0  0
   58.3890   32.4410   51.3960 C   0  0  0  0  0  0  0  0  0  0  0  0
   57.7043   33.2812   51.5838 H   0  0  0  0  0  0  0  0  0  0  0  0
   59.4830   32.2340   52.2370 C   0  0  0  0  0  0  0  0  0  0  0  0
   59.6536   32.9071   53.0901 H   0  0  0  0  0  0  0  0  0  0  0  0
   60.3630   31.1740   51.9990 C   0  0  0  0  0  0  0  0  0  0  0  0
   61.2169   31.0109   52.6730 H   0  0  0  0  0  0  0  0  0  0  0  0
   60.1630   30.3120   50.9000 C   0  0  0  0  0  0  0  0  0  0  0  0
   64.9650   31.2410   50.6380 N   0  0  0  0  0  0  0  0  0  0  0  0
   65.3470   32.2250   49.7860 C   0  0  0  0  0  0  0  0  0  0  0  0
   66.4124   32.4772   49.6796 H   0  0  0  0  0  0  0  0  0  0  0  0
   64.3910   32.9160   49.0460 C   0  0  0  0  0  0  0  0  0  0  0  0
   64.6899   33.7102   48.3460 H   0  0  0  0  0  0  0  0  0  0  0  0
   61.5670   32.7480   47.1490 C   0  0  0  0  0  0  0  0  0  0  0  0
   62.4422   32.3658   46.6031 H   0  0  0  0  0  0  0  0  0  0  0  0
   60.8300   31.9460   47.3027 H   0  0  0  0  0  0  0  0  0  0  0  0
   60.9100   33.8680   46.3260 C   0  0  0  0  0  0  0  0  0  0  0  0
   61.6837   34.6007   46.0531 H   0  0  0  0  0  0  0  0  0  0  0  0
   60.4540   33.3984   45.4420 H   0  0  0  0  0  0  0  0  0  0  0  0
   58.0390   32.3490   44.9540 N   0  0  0  0  0  0  0  0  0  0  0  0
   58.1510   33.0380   43.6650 C   0  0  0  0  0  0  0  0  0  0  0  0
   58.3253   34.1105   43.8364 H   0  0  0  0  0  0  0  0  0  0  0  0
   58.9924   32.6162   43.0956 H   0  0  0  0  0  0  0  0  0  0  0  0
   57.2193   32.9044   43.0956 H   0  0  0  0  0  0  0  0  0  0  0  0
  1  2  1  0
  2  3  1  0
  3  4  1  0
  3  5  1  0
  3  6  1  0
  6  7  1  0
  6  8  1  0
  6  9  1  0
  9 10  2  0
 10 11  1  0
 11 12  1  0
 11 13  2  0
 13 14  1  0
 14 15  1  0
 14 16  1  0
 14 17  1  0
 17 18  1  0
 18 19  1  0
 18 20  1  0
 18 21  1  0
 21 22  1  0
 21 23  1  0
 21 24  1  0
 24 25  1  0
 25 26  2  0
 26 27  1  0
 27 28  2  0
 28 29  1  0
 29 30  2  0
 29 31  1  0
 31 32  2  0
 32 33  1  0
 32 34  1  0
 34 35  1  0
 34 36  2  0
 36 37  1  0
 36 38  1  0
 38 39  2  0
 39 40  1  0
 39 41  1  0
 41 42  1  0
 41 43  2  0
 43 44  1  0
 43 45  1  0
 45 46  1  0
 45 47  2  0
 27 48  1  0
 48 49  1  0
 49 50  1  0
 49 51  2  0
 51 52  1  0
 24 53  1  0
 53 54  1  0
 53 55  1  0
 53 56  1  0
 56 57  1  0
 56 58  1  0
 13 59  1  0
 59 60  1  0
 60 61  1  0
 60 62  1  0
 60 63  1  0
 59  9  1  0
 56 17  1  0
 51 25  1  0
 47 31  1  0
 47 38  1  0
M  CHG  2  36   1  48  -1
M  END
>  <UniqueID>  (56) 
51

>  <SMILES>  (56) 
Cn1c(CN2CCN(c3cc[n-]/c(=N\C(=O)c4cc[nH+]c5ccccc45)n3)CC2)cnc1CCO

>  <Energy>  (56) 
119.20776930304606

>  <Genealogy>  (56) 
Cn1c(CN2CCN(c3cc[n-]c(=NC(=O)c4cc[nH+]c5ccccc45)n3)CC2)cnc1CCO (protonated)
Cn1c(CN2CCN(c3cc[n-]/c(=N\C(=O)c4cc[nH+]c5ccccc45)n3)CC2)cnc1CCO (cis-trans isomerization)
Cn1c(CN2CCN(c3cc[n-]/c(=N\C(=O)c4cc[nH+]c5ccccc45)n3)CC2)cnc1CCO (3D coordinates assigned)
Cn1c(CN2CCN(c3cc[n-]/c(=N\C(=O)c4cc[nH+]c5ccccc45)n3)CC2)cnc1CCO (nonaromatic ring conformer: 119.20776930304606 kcal/mol)

>  <smiles>  (56) 
Cn1c(CN2CCN(c3cc[nH]c(=NC(=O)c4ccnc5ccccc45)n3)CC2)cnc1CCO

>  <score_type>  (56) 
oracle

>  <origin>  (56) 
adg

>  <m_score__min__energy>  (56) 
-9.7200000000000006

>  <m_primary>  (56) 
energy

$$$$
56:0
     RDKit          3D

 62 64  0  0  0  0  0  0  0  0999 V2000
   59.9300   28.2390   48.5840 C   0  0  0  0  0  0  0  0  0  0  0  0
   60.3500   29.2050   47.7650 C   0  0  0  0  0  0  0  0  0  0  0  0
   61.1730   30.3680   48.1970 C   0  0  0  0  0  0  0  0  0  0  0  0
   61.7840   30.3220   49.4600 C   0  0  0  0  0  0  0  0  0  0  0  0
   62.5820   31.3760   49.8990 C   0  0  0  0  0  0  0  0  0  0  0  0
   62.7830   32.4920   49.0910 C   0  0  0  0  0  0  0  0  0  0  0  0
   62.1600   32.5790   47.8300 C   0  0  0  0  0  0  0  0  0  0  0  0
   62.3690   33.7740   46.9760 C   0  0  0  0  0  0  0  0  0  0  0  0
   63.5440   34.1400   46.6840 O   0  0  0  0  0  0  0  0  0  0  0  0
   61.2410   34.4890   46.4460 N   0  0  0  0  0  0  0  0  0  0  0  0
   59.8950   34.0050   46.3430 C   0  0  0  0  0  0  0  0  0  0  0  0
   59.1190   33.9300   47.5090 C   0  0  0  0  0  0  0  0  0  0  0  0
   57.7980   33.4790   47.4510 C   0  0  0  0  0  0  0  0  0  0  0  0
   57.2390   33.0980   46.2300 C   0  0  0  0  0  0  0  0  0  0  0  0
   57.9970   33.1740   45.0510 C   0  0  0  0  0  0  0  0  0  0  0  0
   57.4130   32.7400   43.7310 C   0  0  0  0  0  0  0  0  0  0  0  0
   57.9420   31.4110   43.3480 N   0  0  0  0  0  0  0  0  0  0  0  0
   58.6240   30.7620   44.4960 C   0  0  0  0  0  0  0  0  0  0  0  0
   58.7090   29.2410   44.3330 C   0  0  0  0  0  0  0  0  0  0  0  0
   57.3010   28.6040   44.2530 C   0  0  0  0  0  0  0  0  0  0  0  0
   56.8710   28.0960   45.6140 C   0  0  0  0  0  0  0  0  0  0  0  0
   57.3930   28.6120   46.6310 O   0  0  0  0  0  0  0  0  0  0  0  0
   55.9380   27.0220   45.8240 N   0  0  0  0  0  0  0  0  0  0  0  0
   56.0660   25.5610   45.7650 C   0  0  0  0  0  0  0  0  0  0  0  0
   56.6310   25.1150   47.1270 C   0  0  0  0  0  0  0  0  0  0  0  0
   57.0610   25.1300   44.6710 C   0  0  0  0  0  0  0  0  0  0  0  0
   54.6890   24.8970   45.5690 C   0  0  0  0  0  0  0  0  0  0  0  0
   56.2520   29.5870   43.6820 C   0  0  0  0  0  0  0  0  0  0  0  0
   56.9080   30.5620   42.6960 C   0  0  0  0  0  0  0  0  0  0  0  0
   59.3190   33.6530   45.1100 C   0  0  0  0  0  0  0  0  0  0  0  0
   61.3510   31.5140   47.3940 C   0  0  0  0  0  0  0  0  0  0  0  0
   59.3239   27.4095   48.1908 H   0  0  0  0  0  0  0  0  0  0  0  0
   60.1898   28.2721   49.6524 H   0  0  0  0  0  0  0  0  0  0  0  0
   60.0704   29.1378   46.7032 H   0  0  0  0  0  0  0  0  0  0  0  0
   61.6314   29.4465   50.1083 H   0  0  0  0  0  0  0  0  0  0  0  0
   63.0563   31.3263   50.8902 H   0  0  0  0  0  0  0  0  0  0  0  0
   63.4313   33.3098   49.4387 H   0  0  0  0  0  0  0  0  0  0  0  0
   59.5531   34.2280   48.4748 H   0  0  0  0  0  0  0  0  0  0  0  0
   57.1965   33.4240   48.3704 H   0  0  0  0  0  0  0  0  0  0  0  0
   56.2007   32.7369   46.1916 H   0  0  0  0  0  0  0  0  0  0  0  0
   56.3181   32.6831   43.8196 H   0  0  0  0  0  0  0  0  0  0  0  0
   57.6906   33.4722   42.9585 H   0  0  0  0  0  0  0  0  0  0  0  0
   59.6434   31.1672   44.5778 H   0  0  0  0  0  0  0  0  0  0  0  0
   58.0361   30.9726   45.4015 H   0  0  0  0  0  0  0  0  0  0  0  0
   59.2597   29.0099   43.4093 H   0  0  0  0  0  0  0  0  0  0  0  0
   59.2280   28.8265   45.2098 H   0  0  0  0  0  0  0  0  0  0  0  0
   57.3633   27.7531   43.5586 H   0  0  0  0  0  0  0  0  0  0  0  0
   56.0458   25.5770   47.9358 H   0  0  0  0  0  0  0  0  0  0  0  0
   56.5688   24.0198   47.2089 H   0  0  0  0  0  0  0  0  0  0  0  0
   57.6818   25.4298   47.2089 H   0  0  0  0  0  0  0  0  0  0  0  0
   57.9737   24.7346   45.1407 H   0  0  0  0  0  0  0  0  0  0  0  0
   56.6029   24.3496   44.0455 H   0  0  0  0  0  0  0  0  0  0  0  0
   57.3169   25.9979   44.0455 H   0  0  0  0  0  0  0  0  0  0  0  0
   54.2426   24.6817   46.5510 H   0  0  0  0  0  0  0  0  0  0  0  0
   54.0307   25.5767   45.0080 H   0  0  0  0  0  0  0  0  0  0  0  0
   54.8109   23.9587   45.0080 H   0  0  0  0  0  0  0  0  0  0  0  0
   55.4687   29.0174   43.1604 H   0  0  0  0  0  0  0  0  0  0  0  0
   55.8150   30.1616   44.5120 H   0  0  0  0  0  0  0  0  0  0  0  0
   57.3818   29.9841   41.8888 H   0  0  0  0  0  0  0  0  0  0  0  0
   56.1230   31.2263   42.3056 H   0  0  0  0  0  0  0  0  0  0  0  0
   59.9056   33.7526   44.1848 H   0  0  0  0  0  0  0  0  0  0  0  0
   60.8516   31.5756   46.4159 H   0  0  0  0  0  0  0  0  0  0  0  0
  1  2  2  0
  2  3  1  0
  3  4  2  0
  4  5  1  0
  5  6  2  0
  6  7  1  0
  7  8  1  0
  8  9  2  0
  8 10  1  0
 10 11  1  0
 11 12  2  0
 12 13  1  0
 13 14  2  0
 14 15  1  0
 15 16  1  0
 16 17  1  0
 17 18  1  0
 18 19  1  0
 19 20  1  0
 20 21  1  0
 21 22  2  0
 21 23  1  0
 23 24  1  0
 24 25  1  0
 24 26  1  0
 24 27  1  0
 20 28  1  0
 28 29  1  0
 15 30  2  0
  7 31  2  0
 31  3  1  0
 30 11  1  0
 29 17  1  0
  1 32  1  0
  1 33  1  0
  2 34  1  0
  4 35  1  0
  5 36  1  0
  6 37  1  0
 12 38  1  0
 13 39  1  0
 14 40  1  0
 16 41  1  0
 16 42  1  0
 18 43  1  0
 18 44  1  0
 19 45  1  0
 19 46  1  0
 20 47  1  0
 25 48  1  0
 25 49  1  0
 25 50  1  0
 26 51  1  0
 26 52  1  0
 26 53  1  0
 27 54  1  0
 27 55  1  0
 27 56  1  0
 28 57  1  0
 28 58  1  0
 29 59  1  0
 29 60  1  0
 30 61  1  0
 31 62  1  0
M  CHG  2  10  -1  23  -1
M  END
>  <UniqueID>  (57) 
52

>  <SMILES>  (57) 
C=Cc1cccc(C(=O)[N-]c2cccc(CN3CCC(C(=O)[N-]C(C)(C)C)CC3)c2)c1

>  <Energy>  (57) 
77.93931112907077

>  <Genealogy>  (57) 
C=Cc1cccc(C(=O)[N-]c2cccc(CN3CCC(C(=O)[N-]C(C)(C)C)CC3)c2)c1 (protonated)
C=Cc1cccc(C(=O)[N-]c2cccc(CN3CCC(C(=O)[N-]C(C)(C)C)CC3)c2)c1 (3D coordinates assigned)
C=Cc1cccc(C(=O)[N-]c2cccc(CN3CCC(C(=O)[N-]C(C)(C)C)CC3)c2)c1 (nonaromatic ring conformer: 77.93931112907077 kcal/mol)

>  <smiles>  (57) 
C=Cc1cccc(C(=O)Nc2cccc(CN3CCC(C(=O)NC(C)(C)C)CC3)c2)c1

>  <score_type>  (57) 
oracle

>  <origin>  (57) 
adg

>  <m_score__min__energy>  (57) 
-12.73

>  <m_primary>  (57) 
energy

$$$$
57:0
     RDKit          3D

 52 54  0  0  0  0  0  0  0  0999 V2000
   60.4210   26.7270   46.0490 C   0  0  0  0  0  0  0  0  0  0  0  0
   58.9930   26.9760   45.6760 C   0  0  0  0  0  0  0  0  0  0  0  0
   58.8220   28.2180   44.9280 N   0  0  0  0  0  0  0  0  0  0  0  0
   59.7130   29.3460   45.1550 C   0  0  0  0  0  0  0  0  0  0  0  0
   59.8150   29.7160   46.5810 C   0  0  0  0  0  0  0  0  0  0  0  0
   60.9970   30.3660   46.9610 C   0  0  0  0  0  0  0  0  0  0  0  0
   61.1650   30.7370   48.2780 C   0  0  0  0  0  0  0  0  0  0  0  0
   60.2130   30.4940   49.2430 C   0  0  0  0  0  0  0  0  0  0  0  0
   59.0370   29.8460   48.8620 C   0  0  0  0  0  0  0  0  0  0  0  0
   58.8480   29.4610   47.5260 C   0  0  0  0  0  0  0  0  0  0  0  0
   57.7680   28.3550   43.9690 C   0  0  0  0  0  0  0  0  0  0  0  0
   57.7870   27.6260   42.9180 O   0  0  0  0  0  0  0  0  0  0  0  0
   56.6530   29.3200   44.1650 C   0  0  0  0  0  0  0  0  0  0  0  0
   56.9730   30.9180   43.4370 S   0  0  0  0  0  0  0  0  0  0  0  0
   57.6970   32.1090   44.5110 C   0  0  0  0  0  0  0  0  0  0  0  0
   58.3800   33.1840   44.0510 N   0  0  0  0  0  0  0  0  0  0  0  0
   58.9300   34.0430   44.9590 C   0  0  0  0  0  0  0  0  0  0  0  0
   59.5520   35.0210   44.5080 O   0  0  0  0  0  0  0  0  0  0  0  0
   58.8110   33.8490   46.3150 C   0  0  0  0  0  0  0  0  0  0  0  0
   59.4230   34.7680   47.3260 C   0  0  0  0  0  0  0  0  0  0  0  0
   60.7900   34.2800   47.6930 C   0  0  0  0  0  0  0  0  0  0  0  0
   61.2460   34.2190   48.9880 C   0  0  0  0  0  0  0  0  0  0  0  0
   62.5260   33.7720   49.2470 C   0  0  0  0  0  0  0  0  0  0  0  0
   63.3860   33.3740   48.2300 C   0  0  0  0  0  0  0  0  0  0  0  0
   62.8860   33.4530   46.9440 C   0  0  0  0  0  0  0  0  0  0  0  0
   61.6170   33.8930   46.6450 C   0  0  0  0  0  0  0  0  0  0  0  0
   58.1060   32.7400   46.7630 C   0  0  0  0  0  0  0  0  0  0  0  0
   57.9560   32.5000   48.1400 O   0  0  0  0  0  0  0  0  0  0  0  0
   57.5810   31.9230   45.8390 N   0  0  0  0  0  0  0  0  0  0  0  0
   60.5162   26.7104   47.1447 H   0  0  0  0  0  0  0  0  0  0  0  0
   60.7438   25.7590   45.6382 H   0  0  0  0  0  0  0  0  0  0  0  0
   61.0524   27.5286   45.6382 H   0  0  0  0  0  0  0  0  0  0  0  0
   58.6385   26.1389   45.0567 H   0  0  0  0  0  0  0  0  0  0  0  0
   58.4132   27.0623   46.6068 H   0  0  0  0  0  0  0  0  0  0  0  0
   60.7156   29.0815   44.7878 H   0  0  0  0  0  0  0  0  0  0  0  0
   59.2968   30.2106   44.6172 H   0  0  0  0  0  0  0  0  0  0  0  0
   61.7803   30.5773   46.2182 H   0  0  0  0  0  0  0  0  0  0  0  0
   62.0952   31.2467   48.5693 H   0  0  0  0  0  0  0  0  0  0  0  0
   60.3751   30.8024   50.2864 H   0  0  0  0  0  0  0  0  0  0  0  0
   58.2577   29.6370   49.6097 H   0  0  0  0  0  0  0  0  0  0  0  0
   57.9189   28.9510   47.2317 H   0  0  0  0  0  0  0  0  0  0  0  0
   55.7442   28.9024   43.7070 H   0  0  0  0  0  0  0  0  0  0  0  0
   56.5367   29.4708   45.2484 H   0  0  0  0  0  0  0  0  0  0  0  0
   59.4983   35.7799   46.9013 H   0  0  0  0  0  0  0  0  0  0  0  0
   58.7913   34.7899   48.2263 H   0  0  0  0  0  0  0  0  0  0  0  0
   60.5917   34.5261   49.8172 H   0  0  0  0  0  0  0  0  0  0  0  0
   62.8759   33.7295   50.2890 H   0  0  0  0  0  0  0  0  0  0  0  0
   64.4056   33.0168   48.4368 H   0  0  0  0  0  0  0  0  0  0  0  0
   63.5389   33.1471   46.1132 H   0  0  0  0  0  0  0  0  0  0  0  0
   61.2661   33.9373   45.6034 H   0  0  0  0  0  0  0  0  0  0  0  0
   58.8260   32.5770   48.6890 H   0  0  0  0  0  0  0  0  0  0  0  0
   57.0480   31.0850   46.2020 H   0  0  0  0  0  0  0  0  0  0  0  0
  1  2  1  0
  2  3  1  0
  3  4  1  0
  4  5  1  0
  5  6  2  0
  6  7  1  0
  7  8  2  0
  8  9  1  0
  9 10  2  0
  3 11  1  0
 11 12  2  0
 11 13  1  0
 13 14  1  0
 14 15  1  0
 15 16  2  0
 16 17  1  0
 17 18  2  0
 17 19  1  0
 19 20  1  0
 20 21  1  0
 21 22  2  0
 22 23  1  0
 23 24  2  0
 24 25  1  0
 25 26  2  0
 19 27  2  0
 27 28  1  0
 27 29  1  0
 10  5  1  0
 29 15  1  0
 26 21  1  0
  1 30  1  0
  1 31  1  0
  1 32  1  0
  2 33  1  0
  2 34  1  0
  4 35  1  0
  4 36  1  0
  6 37  1  0
  7 38  1  0
  8 39  1  0
  9 40  1  0
 10 41  1  0
 13 42  1  0
 13 43  1  0
 20 44  1  0
 20 45  1  0
 22 46  1  0
 23 47  1  0
 24 48  1  0
 25 49  1  0
 26 50  1  0
 28 51  1  0
 29 52  1  0
M  END
>  <smiles>  (58) 
CCN(Cc1ccccc1)C(=O)CSc1nc(=O)c(Cc2ccccc2)c(O)[nH]1

>  <score_type>  (58) 
oracle

>  <origin>  (58) 
adg

>  <m_score__min__energy>  (58) 
-9.5299999999999994

>  <m_primary>  (58) 
energy

$$$$
58:0
     RDKit          3D

 38 40  0  0  0  0  0  0  0  0999 V2000
   59.3690   34.3200   49.7820 O   0  0  0  0  0  0  0  0  0  0  0  0
   59.7550   33.5310   48.8770 C   0  0  0  0  0  0  0  0  0  0  0  0
   58.8110   32.6730   48.2210 N   0  0  0  0  0  0  0  0  0  0  0  0
   58.3850   32.7550   46.8520 C   0  0  0  0  0  0  0  0  0  0  0  0
   58.4390   33.9560   46.1250 C   0  0  0  0  0  0  0  0  0  0  0  0
   58.0240   33.9870   44.7910 C   0  0  0  0  0  0  0  0  0  0  0  0
   57.5780   32.8210   44.1650 C   0  0  0  0  0  0  0  0  0  0  0  0
   57.5680   31.6030   44.8670 C   0  0  0  0  0  0  0  0  0  0  0  0
   57.1070   30.3830   44.2680 N   0  0  0  0  0  0  0  0  0  0  0  0
   56.4130   29.3130   44.9270 C   0  0  0  0  0  0  0  0  0  0  0  0
   55.1530   29.3250   44.9840 O   0  0  0  0  0  0  0  0  0  0  0  0
   57.1790   28.1690   45.4910 C   0  0  0  0  0  0  0  0  0  0  0  0
   58.5870   28.2260   45.5330 C   0  0  0  0  0  0  0  0  0  0  0  0
   59.3290   27.1650   46.0580 C   0  0  0  0  0  0  0  0  0  0  0  0
   58.6800   26.0330   46.5500 C   0  0  0  0  0  0  0  0  0  0  0  0
   57.2880   25.9580   46.5180 C   0  0  0  0  0  0  0  0  0  0  0  0
   56.5340   27.0150   45.9950 C   0  0  0  0  0  0  0  0  0  0  0  0
   55.1470   26.9010   45.9860 O   0  0  0  0  0  0  0  0  0  0  0  0
   57.9610   31.5840   46.2110 C   0  0  0  0  0  0  0  0  0  0  0  0
   61.1930   33.4550   48.5290 C   0  0  0  0  0  0  0  0  0  0  0  0
   62.1480   33.1190   49.5080 C   0  0  0  0  0  0  0  0  0  0  0  0
   63.5050   33.0480   49.1780 C   0  0  0  0  0  0  0  0  0  0  0  0
   63.9240   33.3120   47.8730 C   0  0  0  0  0  0  0  0  0  0  0  0
   62.9880   33.6480   46.8930 C   0  0  0  0  0  0  0  0  0  0  0  0
   63.3960   33.9040   45.6260 F   0  0  0  0  0  0  0  0  0  0  0  0
   61.6290   33.7200   47.2170 C   0  0  0  0  0  0  0  0  0  0  0  0
   58.8085   34.8733   46.6066 H   0  0  0  0  0  0  0  0  0  0  0  0
   58.0487   34.9338   44.2316 H   0  0  0  0  0  0  0  0  0  0  0  0
   57.2339   32.8557   43.1208 H   0  0  0  0  0  0  0  0  0  0  0  0
   59.1071   29.1156   45.1482 H   0  0  0  0  0  0  0  0  0  0  0  0
   60.4272   27.2227   46.0833 H   0  0  0  0  0  0  0  0  0  0  0  0
   59.2663   25.1991   46.9634 H   0  0  0  0  0  0  0  0  0  0  0  0
   56.7795   25.0631   46.9060 H   0  0  0  0  0  0  0  0  0  0  0  0
   57.9364   30.6372   46.7705 H   0  0  0  0  0  0  0  0  0  0  0  0
   61.8245   32.9111   50.5386 H   0  0  0  0  0  0  0  0  0  0  0  0
   64.2440   32.7835   49.9487 H   0  0  0  0  0  0  0  0  0  0  0  0
   64.9922   33.2553   47.6165 H   0  0  0  0  0  0  0  0  0  0  0  0
   60.8959   33.9856   46.4411 H   0  0  0  0  0  0  0  0  0  0  0  0
  1  2  2  0
  2  3  1  0
  3  4  1  0
  4  5  2  0
  5  6  1  0
  6  7  2  0
  7  8  1  0
  8  9  1  0
  9 10  1  0
 10 11  2  0
 10 12  1  0
 12 13  2  0
 13 14  1  0
 14 15  2  0
 15 16  1  0
 16 17  2  0
 17 18  1  0
  8 19  2  0
  2 20  1  0
 20 21  2  0
 21 22  1  0
 22 23  2  0
 23 24  1  0
 24 25  1  0
 24 26  2  0
 19  4  1  0
 26 20  1  0
 17 12  1  0
  5 27  1  0
  6 28  1  0
  7 29  1  0
 13 30  1  0
 14 31  1  0
 15 32  1  0
 16 33  1  0
 19 34  1  0
 21 35  1  0
 22 36  1  0
 23 37  1  0
 26 38  1  0
M  CHG  3   3  -1   9  -1  18  -1
M  END
>  <UniqueID>  (59) 
53

>  <SMILES>  (59) 
O=C([N-]c1cccc([N-]C(=O)c2ccccc2[O-])c1)c1cccc(F)c1

>  <Energy>  (59) 
51.7723115496382

>  <Genealogy>  (59) 
O=C([N-]c1cccc([N-]C(=O)c2ccccc2[O-])c1)c1cccc(F)c1 (protonated)
O=C([N-]c1cccc([N-]C(=O)c2ccccc2[O-])c1)c1cccc(F)c1 (3D coordinates assigned)
O=C([N-]c1cccc([N-]C(=O)c2ccccc2[O-])c1)c1cccc(F)c1 (optimized conformer: 51.7723115496382 kcal/mol)

>  <smiles>  (59) 
O=C(Nc1cccc(NC(=O)c2ccccc2O)c1)c1cccc(F)c1

>  <score_type>  (59) 
oracle

>  <origin>  (59) 
adg

>  <m_score__min__energy>  (59) 
-15.050000000000001

>  <m_primary>  (59) 
energy

$$$$
59:0
     RDKit          3D

 69 73  0  0  0  0  0  0  0  0999 V2000
   60.1980   29.0960   46.9660 C   0  0  0  0  0  0  0  0  0  0  0  0
   58.8080   28.5090   47.2000 C   0  0  0  0  0  0  0  0  0  0  0  0
   58.5770   27.2960   46.3240 C   0  0  0  0  0  0  0  0  0  0  0  0
   59.1620   26.0750   46.7060 C   0  0  0  0  0  0  0  0  0  0  0  0
   58.9020   24.9050   45.9900 C   0  0  0  0  0  0  0  0  0  0  0  0
   58.0370   24.9300   44.8970 C   0  0  0  0  0  0  0  0  0  0  0  0
   57.4380   26.1280   44.5080 C   0  0  0  0  0  0  0  0  0  0  0  0
   57.7060   27.3200   45.2010 C   0  0  0  0  0  0  0  0  0  0  0  0
   57.0490   28.5570   44.7400 C   0  0  0  0  0  0  0  0  0  0  0  0
   55.9140   28.8590   45.2000 O   0  0  0  0  0  0  0  0  0  0  0  0
   57.6670   29.3830   43.7430 N   0  0  0  0  0  0  0  0  0  0  0  0
   57.1540   30.7030   43.3910 C   0  0  0  0  0  0  0  0  0  0  0  0
   57.8420   31.7670   44.2020 C   0  0  0  0  0  0  0  0  0  0  0  0
   57.8190   33.1010   43.7710 C   0  0  0  0  0  0  0  0  0  0  0  0
   58.4760   34.0920   44.5060 C   0  0  0  0  0  0  0  0  0  0  0  0
   59.1670   33.7640   45.6850 C   0  0  0  0  0  0  0  0  0  0  0  0
   59.8890   34.8070   46.4490 C   0  0  0  0  0  0  0  0  0  0  0  0
   60.0190   35.9600   45.9570 O   0  0  0  0  0  0  0  0  0  0  0  0
   60.4240   34.5350   47.7580 N   0  0  0  0  0  0  0  0  0  0  0  0
   61.8280   34.1530   47.9200 C   0  0  0  0  0  0  0  0  0  0  0  0
   61.9130   32.6410   48.1180 C   0  0  0  0  0  0  0  0  0  0  0  0
   60.8870   32.1340   49.1050 C   0  0  0  0  0  0  0  0  0  0  0  0
   61.0410   30.8480   49.6420 C   0  0  0  0  0  0  0  0  0  0  0  0
   60.0900   30.3260   50.5210 C   0  0  0  0  0  0  0  0  0  0  0  0
   58.9650   31.0820   50.8850 C   0  0  0  0  0  0  0  0  0  0  0  0
   57.9990   30.5440   51.8080 N   0  0  0  0  0  0  0  0  0  0  0  0
   56.6770   31.1790   51.9180 C   0  0  0  0  0  0  0  0  0  0  0  0
   55.7410   30.3400   52.7840 C   0  0  0  0  0  0  0  0  0  0  0  0
   55.9730   28.9720   52.5350 O   0  0  0  0  0  0  0  0  0  0  0  0
   57.1900   28.5810   53.1400 C   0  0  0  0  0  0  0  0  0  0  0  0
   58.3900   29.4660   52.7290 C   0  0  0  0  0  0  0  0  0  0  0  0
   58.7930   32.3620   50.3310 C   0  0  0  0  0  0  0  0  0  0  0  0
   59.7320   32.8850   49.4290 C   0  0  0  0  0  0  0  0  0  0  0  0
   59.5320   34.2830   48.8930 C   0  0  0  0  0  0  0  0  0  0  0  0
   59.1590   32.4310   46.1320 C   0  0  0  0  0  0  0  0  0  0  0  0
   58.5040   31.4390   45.3950 C   0  0  0  0  0  0  0  0  0  0  0  0
   60.6782   29.2988   47.9346 H   0  0  0  0  0  0  0  0  0  0  0  0
   60.8080   28.3787   46.3974 H   0  0  0  0  0  0  0  0  0  0  0  0
   60.1092   30.0334   46.3974 H   0  0  0  0  0  0  0  0  0  0  0  0
   58.7153   28.2134   48.2555 H   0  0  0  0  0  0  0  0  0  0  0  0
   58.0578   29.2725   46.9464 H   0  0  0  0  0  0  0  0  0  0  0  0
   59.8315   26.0417   47.5782 H   0  0  0  0  0  0  0  0  0  0  0  0
   59.3809   23.9610   46.2891 H   0  0  0  0  0  0  0  0  0  0  0  0
   57.8268   24.0044   44.3411 H   0  0  0  0  0  0  0  0  0  0  0  0
   56.7492   26.1394   43.6504 H   0  0  0  0  0  0  0  0  0  0  0  0
   58.5280   29.0370   43.2610 H   0  0  0  0  0  0  0  0  0  0  0  0
   57.3347   30.8887   42.3219 H   0  0  0  0  0  0  0  0  0  0  0  0
   56.0752   30.7346   43.6034 H   0  0  0  0  0  0  0  0  0  0  0  0
   57.2812   33.3691   42.8497 H   0  0  0  0  0  0  0  0  0  0  0  0
   58.4520   35.1356   44.1592 H   0  0  0  0  0  0  0  0  0  0  0  0
   62.3941   34.4395   47.0214 H   0  0  0  0  0  0  0  0  0  0  0  0
   62.2540   34.6666   48.7945 H   0  0  0  0  0  0  0  0  0  0  0  0
   61.7463   32.1473   47.1493 H   0  0  0  0  0  0  0  0  0  0  0  0
   62.9104   32.4095   48.5201 H   0  0  0  0  0  0  0  0  0  0  0  0
   61.9192   30.2447   49.3683 H   0  0  0  0  0  0  0  0  0  0  0  0
   60.2236   29.3142   50.9314 H   0  0  0  0  0  0  0  0  0  0  0  0
   56.7921   32.1744   52.3717 H   0  0  0  0  0  0  0  0  0  0  0  0
   56.2427   31.2641   50.9110 H   0  0  0  0  0  0  0  0  0  0  0  0
   55.9303   30.5570   53.8456 H   0  0  0  0  0  0  0  0  0  0  0  0
   54.6967   30.5857   52.5409 H   0  0  0  0  0  0  0  0  0  0  0  0
   57.0714   28.6390   54.2320 H   0  0  0  0  0  0  0  0  0  0  0  0
   57.4085   27.5578   52.8003 H   0  0  0  0  0  0  0  0  0  0  0  0
   58.8251   29.9146   53.6342 H   0  0  0  0  0  0  0  0  0  0  0  0
   59.1175   28.8259   52.2083 H   0  0  0  0  0  0  0  0  0  0  0  0
   57.9125   32.9605   50.6075 H   0  0  0  0  0  0  0  0  0  0  0  0
   58.4885   34.3980   48.5646 H   0  0  0  0  0  0  0  0  0  0  0  0
   59.7626   35.0041   49.6910 H   0  0  0  0  0  0  0  0  0  0  0  0
   59.6718   32.1663   47.0685 H   0  0  0  0  0  0  0  0  0  0  0  0
   58.5078   30.3984   45.7517 H   0  0  0  0  0  0  0  0  0  0  0  0
  1  2  1  0
  2  3  1  0
  3  4  2  0
  4  5  1  0
  5  6  2  0
  6  7  1  0
  7  8  2  0
  8  9  1  0
  9 10  2  0
  9 11  1  0
 11 12  1  0
 12 13  1  0
 13 14  2  0
 14 15  1  0
 15 16  2  0
 16 17  1  0
 17 18  2  0
 17 19  1  0
 19 20  1  0
 20 21  1  0
 21 22  1  0
 22 23  2  0
 23 24  1  0
 24 25  2  0
 25 26  1  0
 26 27  1  0
 27 28  1  0
 28 29  1  0
 29 30  1  0
 30 31  1  0
 25 32  1  0
 32 33  2  0
 33 34  1  0
 16 35  1  0
 35 36  2  0
  8  3  1  0
 36 13  1  0
 34 19  1  0
 33 22  1  0
 31 26  1  0
  1 37  1  0
  1 38  1  0
  1 39  1  0
  2 40  1  0
  2 41  1  0
  4 42  1  0
  5 43  1  0
  6 44  1  0
  7 45  1  0
 11 46  1  0
 12 47  1  0
 12 48  1  0
 14 49  1  0
 15 50  1  0
 20 51  1  0
 20 52  1  0
 21 53  1  0
 21 54  1  0
 23 55  1  0
 24 56  1  0
 27 57  1  0
 27 58  1  0
 28 59  1  0
 28 60  1  0
 30 61  1  0
 30 62  1  0
 31 63  1  0
 31 64  1  0
 32 65  1  0
 34 66  1  0
 34 67  1  0
 35 68  1  0
 36 69  1  0
M  END
>  <UniqueID>  (60) 
54

>  <SMILES>  (60) 
CCc1ccccc1C(=O)NCc1ccc(C(=O)N2CCc3ccc(N4CCOCC4)cc3C2)cc1

>  <Energy>  (60) 
93.58931752800089

>  <Genealogy>  (60) 
CCc1ccccc1C(=O)NCc1ccc(C(=O)N2CCc3ccc(N4CCOCC4)cc3C2)cc1 (3D coordinates assigned)
CCc1ccccc1C(=O)NCc1ccc(C(=O)N2CCc3ccc(N4CCOCC4)cc3C2)cc1 (nonaromatic ring conformer: 93.58931752800089 kcal/mol)

>  <smiles>  (60) 
CCc1ccccc1C(=O)NCc1ccc(C(=O)N2CCc3ccc(N4CCOCC4)cc3C2)cc1

>  <score_type>  (60) 
oracle

>  <origin>  (60) 
adg

>  <m_score__min__energy>  (60) 
-10.789999999999999

>  <m_primary>  (60) 
energy

$$$$
60:0
     RDKit          3D

 31 32  0  0  0  0  0  0  0  0999 V2000
   57.9676   34.4442   44.7492 H   0  0  0  0  0  0  0  0  0  0  0  0
   57.9440   33.3450   44.7150 C   0  0  0  0  0  0  0  0  0  0  0  0
   58.0850   32.6060   45.8920 C   0  0  0  0  0  0  0  0  0  0  0  0
   58.2151   33.1243   46.8535 H   0  0  0  0  0  0  0  0  0  0  0  0
   58.0610   31.2090   45.8500 C   0  0  0  0  0  0  0  0  0  0  0  0
   58.1695   30.6321   46.7803 H   0  0  0  0  0  0  0  0  0  0  0  0
   57.8990   30.5370   44.6260 C   0  0  0  0  0  0  0  0  0  0  0  0
   57.8820   29.0290   44.5840 C   0  0  0  0  0  0  0  0  0  0  0  0
   58.7683   28.6480   45.1124 H   0  0  0  0  0  0  0  0  0  0  0  0
   57.8858   28.7161   43.5295 H   0  0  0  0  0  0  0  0  0  0  0  0
   56.6450   28.4650   45.2360 C   0  0  0  0  0  0  0  0  0  0  0  0
   55.5210   28.9560   44.9510 O   0  0  0  0  0  0  0  0  0  0  0  0
   56.6910   27.2670   46.0230 N   0  0  0  0  0  0  0  0  0  0  0  0
   56.3820   26.0700   45.6220 C   0  0  0  0  0  0  0  0  0  0  0  0
   55.2420   25.4590   46.0060 N   0  0  0  0  0  0  0  0  0  0  0  0
   55.1390   24.1970   45.5040 C   0  0  0  0  0  0  0  0  0  0  0  0
   53.9200   23.3720   45.7690 C   0  0  0  0  0  0  0  0  0  0  0  0
   53.7733   23.2727   46.8547 H   0  0  0  0  0  0  0  0  0  0  0  0
   53.0417   23.8621   45.3236 H   0  0  0  0  0  0  0  0  0  0  0  0
   54.0484   22.3744   45.3236 H   0  0  0  0  0  0  0  0  0  0  0  0
   56.2390   23.7840   44.7330 C   0  0  0  0  0  0  0  0  0  0  0  0
   56.4480   22.4960   44.0460 C   0  0  0  0  0  0  0  0  0  0  0  0
   55.8730   22.2890   42.9440 O   0  0  0  0  0  0  0  0  0  0  0  0
   57.3240   21.4980   44.5720 N   0  0  0  0  0  0  0  0  0  0  0  0
   57.9840   21.7120   45.3500 H   0  0  0  0  0  0  0  0  0  0  0  0
   57.3980   20.5690   44.1010 H   0  0  0  0  0  0  0  0  0  0  0  0
   57.3310   25.0650   44.6630 S   0  0  0  0  0  0  0  0  0  0  0  0
   57.7490   31.2890   43.4470 C   0  0  0  0  0  0  0  0  0  0  0  0
   57.6122   30.7757   42.4838 H   0  0  0  0  0  0  0  0  0  0  0  0
   57.7730   32.6870   43.4940 C   0  0  0  0  0  0  0  0  0  0  0  0
   57.6570   33.2694   42.5681 H   0  0  0  0  0  0  0  0  0  0  0  0
  1  2  1  0
  2  3  2  0
  3  4  1  0
  3  5  1  0
  5  6  1  0
  5  7  2  0
  7  8  1  0
  8  9  1  0
  8 10  1  0
  8 11  1  0
 11 12  2  0
 11 13  1  0
 13 14  2  0
 14 15  1  0
 15 16  1  0
 16 17  1  0
 17 18  1  0
 17 19  1  0
 17 20  1  0
 16 21  2  0
 21 22  1  0
 22 23  2  0
 22 24  1  0
 24 25  1  0
 24 26  1  0
 21 27  1  0
  7 28  1  0
 28 29  1  0
 28 30  2  0
 30 31  1  0
 30  2  1  0
 27 14  1  0
M  CHG  1  15  -1
M  END
>  <UniqueID>  (61) 
55

>  <SMILES>  (61) 
Cc1[n-]/c(=N/C(=O)Cc2ccccc2)sc1C(N)=O

>  <Energy>  (61) 
68.99249845058462

>  <Genealogy>  (61) 
Cc1[n-]c(=NC(=O)Cc2ccccc2)sc1C(N)=O (protonated)
Cc1[n-]/c(=N/C(=O)Cc2ccccc2)sc1C(N)=O (cis-trans isomerization)
Cc1[n-]/c(=N/C(=O)Cc2ccccc2)sc1C(N)=O (3D coordinates assigned)
Cc1[n-]/c(=N/C(=O)Cc2ccccc2)sc1C(N)=O (optimized conformer: 68.99249845058462 kcal/mol)

>  <smiles>  (61) 
Cc1[nH]c(=NC(=O)Cc2ccccc2)sc1C(N)=O

>  <score_type>  (61) 
oracle

>  <origin>  (61) 
adg

>  <m_score__min__energy>  (61) 
-9.2599999999999998

>  <m_primary>  (61) 
energy

$$$$
61:0
     RDKit          3D

 48 51  0  0  0  0  0  0  0  0999 V2000
   57.9670   31.1030   53.8240 C   0  0  0  0  0  0  0  0  0  0  0  0
   57.1510   30.8380   52.2670 S   0  0  0  0  0  0  0  0  0  0  0  0
   55.8330   31.5620   52.2580 O   0  0  0  0  0  0  0  0  0  0  0  0
   56.8940   29.3690   52.0770 O   0  0  0  0  0  0  0  0  0  0  0  0
   58.1680   31.4410   50.9640 C   0  0  0  0  0  0  0  0  0  0  0  0
   58.5490   32.7890   50.9310 C   0  0  0  0  0  0  0  0  0  0  0  0
   59.3720   33.2620   49.9060 C   0  0  0  0  0  0  0  0  0  0  0  0
   59.8250   32.3880   48.9050 C   0  0  0  0  0  0  0  0  0  0  0  0
   60.7430   32.8710   47.8540 C   0  0  0  0  0  0  0  0  0  0  0  0
   62.0730   32.9640   47.9730 C   0  0  0  0  0  0  0  0  0  0  0  0
   62.9020   32.5980   49.1450 C   0  0  0  0  0  0  0  0  0  0  0  0
   63.8480   33.4950   49.6740 C   0  0  0  0  0  0  0  0  0  0  0  0
   64.6200   33.1330   50.7810 C   0  0  0  0  0  0  0  0  0  0  0  0
   64.4640   31.8730   51.3640 C   0  0  0  0  0  0  0  0  0  0  0  0
   65.2150   31.5240   52.4370 F   0  0  0  0  0  0  0  0  0  0  0  0
   63.5370   30.9700   50.8360 C   0  0  0  0  0  0  0  0  0  0  0  0
   62.7620   31.3280   49.7290 C   0  0  0  0  0  0  0  0  0  0  0  0
   62.5710   33.5700   46.7410 C   0  0  0  0  0  0  0  0  0  0  0  0
   63.7730   33.8460   46.4910 O   0  0  0  0  0  0  0  0  0  0  0  0
   61.5240   33.8440   45.8800 O   0  0  0  0  0  0  0  0  0  0  0  0
   60.3730   33.3970   46.5160 C   0  0  0  0  0  0  0  0  0  0  0  0
   59.1710   33.4470   45.9210 C   0  0  0  0  0  0  0  0  0  0  0  0
   58.3710   32.2660   45.5520 C   0  0  0  0  0  0  0  0  0  0  0  0
   58.7930   30.9740   45.9050 C   0  0  0  0  0  0  0  0  0  0  0  0
   58.0080   29.8640   45.5790 C   0  0  0  0  0  0  0  0  0  0  0  0
   56.8090   30.0350   44.8730 C   0  0  0  0  0  0  0  0  0  0  0  0
   56.0090   28.9400   44.5570 O   0  0  0  0  0  0  0  0  0  0  0  0
   56.4110   31.3170   44.4800 C   0  0  0  0  0  0  0  0  0  0  0  0
   57.1940   32.4290   44.8090 C   0  0  0  0  0  0  0  0  0  0  0  0
   59.4090   31.0490   48.9180 C   0  0  0  0  0  0  0  0  0  0  0  0
   58.5880   30.5770   49.9450 C   0  0  0  0  0  0  0  0  0  0  0  0
   57.2714   30.8771   54.6456 H   0  0  0  0  0  0  0  0  0  0  0  0
   58.8447   30.4437   53.8949 H   0  0  0  0  0  0  0  0  0  0  0  0
   58.2898   32.1522   53.8949 H   0  0  0  0  0  0  0  0  0  0  0  0
   58.1990   33.4770   51.7147 H   0  0  0  0  0  0  0  0  0  0  0  0
   59.6658   34.3218   49.8832 H   0  0  0  0  0  0  0  0  0  0  0  0
   63.9805   34.4855   49.2142 H   0  0  0  0  0  0  0  0  0  0  0  0
   65.3524   33.8419   51.1945 H   0  0  0  0  0  0  0  0  0  0  0  0
   63.4171   29.9762   51.2922 H   0  0  0  0  0  0  0  0  0  0  0  0
   62.0386   30.6114   49.3129 H   0  0  0  0  0  0  0  0  0  0  0  0
   58.7540   34.4390   45.6929 H   0  0  0  0  0  0  0  0  0  0  0  0
   59.7442   30.8349   46.4397 H   0  0  0  0  0  0  0  0  0  0  0  0
   58.3314   28.8557   45.8767 H   0  0  0  0  0  0  0  0  0  0  0  0
   56.2780   28.2780   43.8380 H   0  0  0  0  0  0  0  0  0  0  0  0
   55.4795   31.4514   43.9105 H   0  0  0  0  0  0  0  0  0  0  0  0
   56.8850   33.4334   44.4837 H   0  0  0  0  0  0  0  0  0  0  0  0
   59.7303   30.3676   48.1165 H   0  0  0  0  0  0  0  0  0  0  0  0
   58.2706   29.5238   49.9533 H   0  0  0  0  0  0  0  0  0  0  0  0
  1  2  1  0
  2  3  2  0
  2  4  2  0
  2  5  1  0
  5  6  2  0
  6  7  1  0
  7  8  2  0
  8  9  1  0
  9 10  2  0
 10 11  1  0
 11 12  2  0
 12 13  1  0
 13 14  2  0
 14 15  1  0
 14 16  1  0
 16 17  2  0
 10 18  1  0
 18 19  2  0
 18 20  1  0
 20 21  1  0
 21 22  2  3
 22 23  1  0
 23 24  2  0
 24 25  1  0
 25 26  2  0
 26 27  1  0
 26 28  1  0
 28 29  2  0
  8 30  1  0
 30 31  2  0
 31  5  1  0
 21  9  1  0
 29 23  1  0
 17 11  1  0
  1 32  1  0
  1 33  1  0
  1 34  1  0
  6 35  1  0
  7 36  1  0
 12 37  1  0
 13 38  1  0
 16 39  1  0
 17 40  1  0
 22 41  1  0
 24 42  1  0
 25 43  1  0
 27 44  1  0
 28 45  1  0
 29 46  1  0
 30 47  1  0
 31 48  1  0
M  END
>  <UniqueID>  (62) 
56

>  <SMILES>  (62) 
CS(=O)(=O)c1ccc(C2=C(c3ccc(F)cc3)C(=O)OC2=Cc2ccc(O)cc2)cc1

>  <Energy>  (62) 
90.33106385419264

>  <Genealogy>  (62) 
CS(=O)(=O)c1ccc(C2=C(c3ccc(F)cc3)C(=O)OC2=Cc2ccc(O)cc2)cc1 (3D coordinates assigned)
CS(=O)(=O)c1ccc(C2=C(c3ccc(F)cc3)C(=O)OC2=Cc2ccc(O)cc2)cc1 (nonaromatic ring conformer: 90.33106385419264 kcal/mol)

>  <smiles>  (62) 
CS(=O)(=O)c1ccc(C2=C(c3ccc(F)cc3)C(=O)OC2=Cc2ccc(O)cc2)cc1

>  <score_type>  (62) 
oracle

>  <origin>  (62) 
adg

>  <m_score__min__energy>  (62) 
-9.2400000000000002

>  <m_primary>  (62) 
energy

$$$$
62:0
     RDKit          3D

 52 54  0  0  1  0  0  0  0  0999 V2000
   58.9290   34.4580   46.9320 C   0  0  0  0  0  0  0  0  0  0  0  0
   59.3140   34.8590   45.5430 C   0  0  0  0  0  0  0  0  0  0  0  0
   58.8000   33.8410   44.5570 C   0  0  0  0  0  0  0  0  0  0  0  0
   57.4140   33.3480   44.9050 C   0  0  0  0  0  0  0  0  0  0  0  0
   57.2830   31.9220   44.4980 C   0  0  0  0  0  0  0  0  0  0  0  0
   57.4700   30.8300   45.2490 N   0  0  0  0  0  0  0  0  0  0  0  0
   57.2540   29.7710   44.5080 N   0  0  0  0  0  0  0  0  0  0  0  0
   57.3260   28.3820   44.8510 C   0  0  0  0  0  0  0  0  0  0  0  0
   57.9390   27.5110   43.9740 C   0  0  0  0  0  0  0  0  0  0  0  0
   58.0080   26.1610   44.3090 C   0  0  0  0  0  0  0  0  0  0  0  0
   57.4810   25.6760   45.4930 C   0  0  0  0  0  0  0  0  0  0  0  0
   57.6080   23.9890   45.8330 S   0  0  0  0  0  0  0  0  0  0  0  0
   58.7470   23.3430   45.1280 O   0  0  0  0  0  0  0  0  0  0  0  0
   57.7720   23.8270   47.3230 O   0  0  0  0  0  0  0  0  0  0  0  0
   56.0930   23.2450   45.4260 N   0  0  0  0  0  0  0  0  0  0  0  0
   55.1250   23.7350   46.3990 C   0  0  0  0  0  0  0  0  0  0  0  0
   53.8220   23.2950   45.7570 C   0  0  0  0  0  0  0  0  0  0  0  0
   54.0740   23.6850   44.3150 C   0  0  0  0  0  0  0  0  0  0  0  0
   55.5780   23.7930   44.1930 C   0  0  2  0  0  0  0  0  0  0  0  0
   56.1080   23.1720   42.9500 C   0  0  0  0  0  0  0  0  0  0  0  0
   56.0700   21.8160   42.8580 O   0  0  0  0  0  0  0  0  0  0  0  0
   57.2430   21.1390   43.0370 C   0  0  0  0  0  0  0  0  0  0  0  0
   56.8730   26.5940   46.3440 C   0  0  0  0  0  0  0  0  0  0  0  0
   56.8180   27.8950   45.9990 N   0  0  0  0  0  0  0  0  0  0  0  0
   56.9260   30.1900   43.2670 C   0  0  0  0  0  0  0  0  0  0  0  0
   56.6460   29.4400   42.2730 O   0  0  0  0  0  0  0  0  0  0  0  0
   56.9420   31.5340   43.2540 N   0  0  0  0  0  0  0  0  0  0  0  0
   59.5015   35.0543   47.6578 H   0  0  0  0  0  0  0  0  0  0  0  0
   57.8533   34.6345   47.0797 H   0  0  0  0  0  0  0  0  0  0  0  0
   59.1491   33.3904   47.0797 H   0  0  0  0  0  0  0  0  0  0  0  0
   58.8786   35.8426   45.3129 H   0  0  0  0  0  0  0  0  0  0  0  0
   60.4103   34.9132   45.4711 H   0  0  0  0  0  0  0  0  0  0  0  0
   58.7706   34.3007   43.5581 H   0  0  0  0  0  0  0  0  0  0  0  0
   59.4794   32.9763   44.5839 H   0  0  0  0  0  0  0  0  0  0  0  0
   57.2539   33.4369   45.9896 H   0  0  0  0  0  0  0  0  0  0  0  0
   56.6636   33.9531   44.3752 H   0  0  0  0  0  0  0  0  0  0  0  0
   58.3652   27.8760   43.0279 H   0  0  0  0  0  0  0  0  0  0  0  0
   58.4946   25.4613   43.6136 H   0  0  0  0  0  0  0  0  0  0  0  0
   55.2689   23.2661   47.3836 H   0  0  0  0  0  0  0  0  0  0  0  0
   55.1901   24.8146   46.5996 H   0  0  0  0  0  0  0  0  0  0  0  0
   53.6639   22.2115   45.8622 H   0  0  0  0  0  0  0  0  0  0  0  0
   52.9204   23.7428   46.2003 H   0  0  0  0  0  0  0  0  0  0  0  0
   53.6856   22.9143   43.6330 H   0  0  0  0  0  0  0  0  0  0  0  0
   53.5703   24.6259   44.0484 H   0  0  0  0  0  0  0  0  0  0  0  0
   55.9149   24.8335   44.0749 H   0  0  0  0  0  0  0  0  0  0  0  0
   55.5275   23.5754   42.1072 H   0  0  0  0  0  0  0  0  0  0  0  0
   57.1792   23.4222   42.9476 H   0  0  0  0  0  0  0  0  0  0  0  0
   57.4401   21.0252   44.1132 H   0  0  0  0  0  0  0  0  0  0  0  0
   57.1677   20.1454   42.5710 H   0  0  0  0  0  0  0  0  0  0  0  0
   58.0656   21.7012   42.5710 H   0  0  0  0  0  0  0  0  0  0  0  0
   56.4381   26.2578   47.2968 H   0  0  0  0  0  0  0  0  0  0  0  0
   56.7330   32.1670   42.4450 H   0  0  0  0  0  0  0  0  0  0  0  0
  1  2  1  0
  2  3  1  0
  3  4  1  0
  4  5  1  0
  5  6  2  0
  6  7  1  0
  7  8  1  0
  8  9  2  0
  9 10  1  0
 10 11  2  0
 11 12  1  0
 12 13  2  0
 12 14  2  0
 12 15  1  0
 15 16  1  0
 16 17  1  0
 17 18  1  0
 18 19  1  0
 19 20  1  0
 20 21  1  0
 21 22  1  0
 11 23  1  0
 23 24  2  0
  7 25  1  0
 25 26  2  0
 25 27  1  0
 27  5  1  0
 24  8  1  0
 19 15  1  0
  1 28  1  0
  1 29  1  0
  1 30  1  0
  2 31  1  0
  2 32  1  0
  3 33  1  0
  3 34  1  0
  4 35  1  0
  4 36  1  0
  9 37  1  0
 10 38  1  0
 16 39  1  0
 16 40  1  0
 17 41  1  0
 17 42  1  0
 18 43  1  0
 18 44  1  0
 19 45  1  6
 20 46  1  0
 20 47  1  0
 22 48  1  0
 22 49  1  0
 22 50  1  0
 23 51  1  0
 27 52  1  0
M  END
>  <smiles>  (63) 
CCCCc1nn(-c2ccc(S(=O)(=O)N3CCCC3COC)cn2)c(=O)[nH]1

>  <score_type>  (63) 
oracle

>  <origin>  (63) 
adg

>  <m_score__min__energy>  (63) 
-8.2300000000000004

>  <m_primary>  (63) 
energy

$$$$
63:0
     RDKit          3D

 53 56  0  0  0  0  0  0  0  0999 V2000
   53.8500   28.2070   53.1740 C   0  0  0  0  0  0  0  0  0  0  0  0
   54.6860   29.1480   52.7050 C   0  0  0  0  0  0  0  0  0  0  0  0
   54.3370   30.2800   51.9510 C   0  0  0  0  0  0  0  0  0  0  0  0
   53.1910   30.6100   51.3270 C   0  0  0  0  0  0  0  0  0  0  0  0
   52.1060   31.4230   51.9040 C   0  0  0  0  0  0  0  0  0  0  0  0
   51.6960   31.3460   53.1840 N   0  0  0  0  0  0  0  0  0  0  0  0
   50.6150   32.1540   53.2140 C   0  0  0  0  0  0  0  0  0  0  0  0
   49.9500   32.3580   54.2620 O   0  0  0  0  0  0  0  0  0  0  0  0
   50.2990   32.7220   52.0310 N   0  0  0  0  0  0  0  0  0  0  0  0
   51.2440   32.2400   51.2080 C   0  0  0  0  0  0  0  0  0  0  0  0
   51.3090   32.5470   49.8510 O   0  0  0  0  0  0  0  0  0  0  0  0
   55.4580   31.0910   51.9360 C   0  0  0  0  0  0  0  0  0  0  0  0
   56.4580   30.4130   52.6030 C   0  0  0  0  0  0  0  0  0  0  0  0
   57.8030   30.9730   52.8640 C   0  0  0  0  0  0  0  0  0  0  0  0
   58.1410   31.2390   54.0490 O   0  0  0  0  0  0  0  0  0  0  0  0
   58.7010   31.2850   51.7830 N   0  0  0  0  0  0  0  0  0  0  0  0
   59.5380   32.4870   51.8590 C   0  0  0  0  0  0  0  0  0  0  0  0
   60.6500   32.4580   50.7990 C   0  0  0  0  0  0  0  0  0  0  0  0
   60.1480   32.1690   49.4300 N   0  0  0  0  0  0  0  0  0  0  0  0
   59.8620   33.4020   48.6670 C   0  0  0  0  0  0  0  0  0  0  0  0
   59.1280   33.0780   47.3920 C   0  0  0  0  0  0  0  0  0  0  0  0
   57.9870   33.8070   47.0160 C   0  0  0  0  0  0  0  0  0  0  0  0
   57.3170   33.5030   45.8270 C   0  0  0  0  0  0  0  0  0  0  0  0
   57.7800   32.4700   45.0050 C   0  0  0  0  0  0  0  0  0  0  0  0
   57.1300   32.1790   43.8530 F   0  0  0  0  0  0  0  0  0  0  0  0
   58.9160   31.7420   45.3720 C   0  0  0  0  0  0  0  0  0  0  0  0
   59.5870   32.0430   46.5610 C   0  0  0  0  0  0  0  0  0  0  0  0
   59.0050   31.2210   49.3690 C   0  0  0  0  0  0  0  0  0  0  0  0
   58.8620   30.3810   50.6390 C   0  0  0  0  0  0  0  0  0  0  0  0
   56.0000   29.2190   53.0490 N   0  0  0  0  0  0  0  0  0  0  0  0
   56.7620   28.2340   53.8250 C   0  0  0  0  0  0  0  0  0  0  0  0
   54.2448   27.3613   53.7561 H   0  0  0  0  0  0  0  0  0  0  0  0
   52.7706   28.2821   52.9760 H   0  0  0  0  0  0  0  0  0  0  0  0
   53.0528   30.2417   50.2997 H   0  0  0  0  0  0  0  0  0  0  0  0
   51.7710   31.9310   49.1930 H   0  0  0  0  0  0  0  0  0  0  0  0
   55.5372   32.0883   51.4786 H   0  0  0  0  0  0  0  0  0  0  0  0
   58.9082   33.3737   51.6941 H   0  0  0  0  0  0  0  0  0  0  0  0
   60.0061   32.5231   52.8538 H   0  0  0  0  0  0  0  0  0  0  0  0
   61.1485   33.4385   50.7886 H   0  0  0  0  0  0  0  0  0  0  0  0
   61.3400   31.6459   51.0719 H   0  0  0  0  0  0  0  0  0  0  0  0
   59.2418   34.0715   49.2811 H   0  0  0  0  0  0  0  0  0  0  0  0
   60.8141   33.8913   48.4137 H   0  0  0  0  0  0  0  0  0  0  0  0
   57.6195   34.6199   47.6595 H   0  0  0  0  0  0  0  0  0  0  0  0
   56.4244   34.0770   45.5375 H   0  0  0  0  0  0  0  0  0  0  0  0
   59.2821   30.9316   44.7245 H   0  0  0  0  0  0  0  0  0  0  0  0
   60.4789   31.4663   46.8471 H   0  0  0  0  0  0  0  0  0  0  0  0
   58.0790   31.7963   49.2222 H   0  0  0  0  0  0  0  0  0  0  0  0
   59.1930   30.5295   48.5345 H   0  0  0  0  0  0  0  0  0  0  0  0
   57.9798   29.7293   50.5548 H   0  0  0  0  0  0  0  0  0  0  0  0
   59.7558   29.7550   50.7779 H   0  0  0  0  0  0  0  0  0  0  0  0
   56.6168   28.4217   54.8991 H   0  0  0  0  0  0  0  0  0  0  0  0
   56.4098   27.2214   53.5788 H   0  0  0  0  0  0  0  0  0  0  0  0
   57.8306   28.3205   53.5788 H   0  0  0  0  0  0  0  0  0  0  0  0
  1  2  2  0
  2  3  1  0
  3  4  2  3
  4  5  1  0
  5  6  1  0
  6  7  1  0
  7  8  2  0
  7  9  1  0
  9 10  1  0
 10 11  1  0
  3 12  1  0
 12 13  2  0
 13 14  1  0
 14 15  2  0
 14 16  1  0
 16 17  1  0
 17 18  1  0
 18 19  1  0
 19 20  1  0
 20 21  1  0
 21 22  2  0
 22 23  1  0
 23 24  2  0
 24 25  1  0
 24 26  1  0
 26 27  2  0
 19 28  1  0
 28 29  1  0
 13 30  1  0
 30 31  1  0
 30  2  1  0
 10  5  2  0
 29 16  1  0
 27 21  1  0
  1 32  1  0
  1 33  1  0
  4 34  1  0
 11 35  1  0
 12 36  1  0
 17 37  1  0
 17 38  1  0
 18 39  1  0
 18 40  1  0
 20 41  1  0
 20 42  1  0
 22 43  1  0
 23 44  1  0
 26 45  1  0
 27 46  1  0
 28 47  1  0
 28 48  1  0
 29 49  1  0
 29 50  1  0
 31 51  1  0
 31 52  1  0
 31 53  1  0
M  CHG  2   6  -1   9  -1
M  END
>  <UniqueID>  (64) 
57

>  <SMILES>  (64) 
C=c1c(=Cc2[n-]c(=O)[n-]c2O)cc(C(=O)N2CCN(Cc3ccc(F)cc3)CC2)n1C

>  <Energy>  (64) 
138.0541548442992

>  <Genealogy>  (64) 
C=c1c(=Cc2[n-]c(=O)[n-]c2O)cc(C(=O)N2CCN(Cc3ccc(F)cc3)CC2)n1C (protonated)
C=c1c(=Cc2[n-]c(=O)[n-]c2O)cc(C(=O)N2CCN(Cc3ccc(F)cc3)CC2)n1C (3D coordinates assigned)
C=c1c(=Cc2[n-]c(=O)[n-]c2O)cc(C(=O)N2CCN(Cc3ccc(F)cc3)CC2)n1C (nonaromatic ring conformer: 138.0541548442992 kcal/mol)

>  <smiles>  (64) 
C=c1c(=Cc2[nH]c(=O)[nH]c2O)cc(C(=O)N2CCN(Cc3ccc(F)cc3)CC2)n1C

>  <score_type>  (64) 
oracle

>  <origin>  (64) 
adg

>  <m_score__min__energy>  (64) 
-13.960000000000001

>  <m_primary>  (64) 
energy

$$$$
64:0
     RDKit          3D

 55 58  0  0  0  0  0  0  0  0999 V2000
   58.8560   23.8280   45.9960 C   0  0  0  0  0  0  0  0  0  0  0  0
   58.5230   25.0350   45.5080 C   0  0  0  0  0  0  0  0  0  0  0  0
   57.5030   25.3310   44.5850 C   0  0  0  0  0  0  0  0  0  0  0  0
   56.5230   24.5630   44.0680 C   0  0  0  0  0  0  0  0  0  0  0  0
   55.2680   24.2020   44.7420 C   0  0  0  0  0  0  0  0  0  0  0  0
   54.6140   23.0460   44.5290 N   0  0  0  0  0  0  0  0  0  0  0  0
   53.4960   23.1800   45.2720 C   0  0  0  0  0  0  0  0  0  0  0  0
   52.6210   22.2790   45.3450 O   0  0  0  0  0  0  0  0  0  0  0  0
   53.3860   24.3590   45.9240 N   0  0  0  0  0  0  0  0  0  0  0  0
   54.5090   25.0030   45.5700 C   0  0  0  0  0  0  0  0  0  0  0  0
   54.8150   26.3000   45.9800 O   0  0  0  0  0  0  0  0  0  0  0  0
   57.6650   26.6640   44.2460 C   0  0  0  0  0  0  0  0  0  0  0  0
   58.7290   27.1430   44.9820 C   0  0  0  0  0  0  0  0  0  0  0  0
   59.2140   28.5340   44.9240 C   0  0  0  0  0  0  0  0  0  0  0  0
   60.1720   28.8230   44.1590 O   0  0  0  0  0  0  0  0  0  0  0  0
   58.6430   29.5630   45.7420 N   0  0  0  0  0  0  0  0  0  0  0  0
   57.5720   30.4660   45.3260 C   0  0  0  0  0  0  0  0  0  0  0  0
   58.0280   31.8940   45.4390 C   0  0  0  0  0  0  0  0  0  0  0  0
   57.7460   32.8250   44.4270 C   0  0  0  0  0  0  0  0  0  0  0  0
   58.2400   34.1300   44.5130 C   0  0  0  0  0  0  0  0  0  0  0  0
   59.0110   34.5190   45.6100 C   0  0  0  0  0  0  0  0  0  0  0  0
   59.2990   33.5990   46.6300 C   0  0  0  0  0  0  0  0  0  0  0  0
   60.0760   34.0360   47.8450 C   0  0  0  0  0  0  0  0  0  0  0  0
   61.3680   33.3280   47.9130 N   0  0  0  0  0  0  0  0  0  0  0  0
   62.1360   33.4370   46.6700 C   0  0  0  0  0  0  0  0  0  0  0  0
   63.5910   33.2380   47.0520 C   0  0  0  0  0  0  0  0  0  0  0  0
   63.6780   33.6430   48.5140 C   0  0  0  0  0  0  0  0  0  0  0  0
   62.2380   33.8840   48.9570 C   0  0  0  0  0  0  0  0  0  0  0  0
   58.8060   32.2860   46.5380 C   0  0  0  0  0  0  0  0  0  0  0  0
   59.2410   26.1630   45.7640 N   0  0  0  0  0  0  0  0  0  0  0  0
   60.4590   26.2510   46.5820 C   0  0  0  0  0  0  0  0  0  0  0  0
   59.6808   23.7350   46.7178 H   0  0  0  0  0  0  0  0  0  0  0  0
   58.3037   22.9330   45.6737 H   0  0  0  0  0  0  0  0  0  0  0  0
   56.6764   24.1719   43.0514 H   0  0  0  0  0  0  0  0  0  0  0  0
   54.3670   26.7220   46.7880 H   0  0  0  0  0  0  0  0  0  0  0  0
   57.0594   27.2335   43.5256 H   0  0  0  0  0  0  0  0  0  0  0  0
   57.3008   30.2521   44.2816 H   0  0  0  0  0  0  0  0  0  0  0  0
   56.6990   30.3139   45.9778 H   0  0  0  0  0  0  0  0  0  0  0  0
   57.1340   32.5266   43.5630 H   0  0  0  0  0  0  0  0  0  0  0  0
   58.0204   34.8529   43.7135 H   0  0  0  0  0  0  0  0  0  0  0  0
   59.3934   35.5483   45.6750 H   0  0  0  0  0  0  0  0  0  0  0  0
   60.2592   35.1191   47.7875 H   0  0  0  0  0  0  0  0  0  0  0  0
   59.4916   33.7980   48.7460 H   0  0  0  0  0  0  0  0  0  0  0  0
   61.8195   32.6614   45.9570 H   0  0  0  0  0  0  0  0  0  0  0  0
   61.9786   34.4122   46.1860 H   0  0  0  0  0  0  0  0  0  0  0  0
   63.8825   32.1849   46.9255 H   0  0  0  0  0  0  0  0  0  0  0  0
   64.2671   33.8324   46.4198 H   0  0  0  0  0  0  0  0  0  0  0  0
   64.1337   32.8381   49.1094 H   0  0  0  0  0  0  0  0  0  0  0  0
   64.3027   34.5377   48.6530 H   0  0  0  0  0  0  0  0  0  0  0  0
   62.0482   33.3786   49.9154 H   0  0  0  0  0  0  0  0  0  0  0  0
   62.0453   34.9579   49.0972 H   0  0  0  0  0  0  0  0  0  0  0  0
   59.0320   31.5608   47.3336 H   0  0  0  0  0  0  0  0  0  0  0  0
   60.1872   26.2314   47.6477 H   0  0  0  0  0  0  0  0  0  0  0  0
   61.1154   25.3979   46.3552 H   0  0  0  0  0  0  0  0  0  0  0  0
   60.9860   27.1896   46.3552 H   0  0  0  0  0  0  0  0  0  0  0  0
  1  2  2  0
  2  3  1  0
  3  4  2  3
  4  5  1  0
  5  6  1  0
  6  7  1  0
  7  8  2  0
  7  9  1  0
  9 10  1  0
 10 11  1  0
  3 12  1  0
 12 13  2  0
 13 14  1  0
 14 15  2  0
 14 16  1  0
 16 17  1  0
 17 18  1  0
 18 19  2  0
 19 20  1  0
 20 21  2  0
 21 22  1  0
 22 23  1  0
 23 24  1  0
 24 25  1  0
 25 26  1  0
 26 27  1  0
 27 28  1  0
 22 29  2  0
 13 30  1  0
 30 31  1  0
 30  2  1  0
 10  5  2  0
 29 18  1  0
 28 24  1  0
  1 32  1  0
  1 33  1  0
  4 34  1  0
 11 35  1  0
 12 36  1  0
 17 37  1  0
 17 38  1  0
 19 39  1  0
 20 40  1  0
 21 41  1  0
 23 42  1  0
 23 43  1  0
 25 44  1  0
 25 45  1  0
 26 46  1  0
 26 47  1  0
 27 48  1  0
 27 49  1  0
 28 50  1  0
 28 51  1  0
 29 52  1  0
 31 53  1  0
 31 54  1  0
 31 55  1  0
M  CHG  3   6  -1   9  -1  16  -1
M  END
>  <UniqueID>  (65) 
58

>  <SMILES>  (65) 
C=c1c(=Cc2[n-]c(=O)[n-]c2O)cc(C(=O)[N-]Cc2cccc(CN3CCCC3)c2)n1C

>  <Energy>  (65) 
130.77021571842369

>  <Genealogy>  (65) 
C=c1c(=Cc2[n-]c(=O)[n-]c2O)cc(C(=O)[N-]Cc2cccc(CN3CCCC3)c2)n1C (protonated)
C=c1c(=Cc2[n-]c(=O)[n-]c2O)cc(C(=O)[N-]Cc2cccc(CN3CCCC3)c2)n1C (3D coordinates assigned)
C=c1c(=Cc2[n-]c(=O)[n-]c2O)cc(C(=O)[N-]Cc2cccc(CN3CCCC3)c2)n1C (nonaromatic ring conformer: 130.77021571842369 kcal/mol)

>  <smiles>  (65) 
C=c1c(=Cc2[nH]c(=O)[nH]c2O)cc(C(=O)NCc2cccc(CN3CCCC3)c2)n1C

>  <score_type>  (65) 
oracle

>  <origin>  (65) 
adg

>  <m_score__min__energy>  (65) 
-15.19

>  <m_primary>  (65) 
energy

$$$$
65:0
     RDKit          3D

 53 56  0  0  0  0  0  0  0  0999 V2000
   53.6083   28.9381   52.8859 H   0  0  0  0  0  0  0  0  0  0  0  0
   53.8740   29.8990   52.4210 C   0  0  0  0  0  0  0  0  0  0  0  0
   52.8650   30.7120   52.0750 C   0  0  0  0  0  0  0  0  0  0  0  0
   52.5251   31.4450   52.8214 H   0  0  0  0  0  0  0  0  0  0  0  0
   52.1750   30.6990   50.7690 C   0  0  0  0  0  0  0  0  0  0  0  0
   52.4670   29.6740   49.8570 C   0  0  0  0  0  0  0  0  0  0  0  0
   53.1922   28.8921   50.1265 H   0  0  0  0  0  0  0  0  0  0  0  0
   51.8410   29.6410   48.6070 C   0  0  0  0  0  0  0  0  0  0  0  0
   52.0645   28.8266   47.9022 H   0  0  0  0  0  0  0  0  0  0  0  0
   50.9320   30.6410   48.2520 C   0  0  0  0  0  0  0  0  0  0  0  0
   50.4316   30.6076   47.2730 H   0  0  0  0  0  0  0  0  0  0  0  0
   50.6590   31.6840   49.1420 C   0  0  0  0  0  0  0  0  0  0  0  0
   49.9505   32.4757   48.8572 H   0  0  0  0  0  0  0  0  0  0  0  0
   51.2830   31.7250   50.3930 C   0  0  0  0  0  0  0  0  0  0  0  0
   51.0250   32.7930   51.2470 O   0  0  0  0  0  0  0  0  0  0  0  0
   55.3090   30.1820   52.2320 C   0  0  0  0  0  0  0  0  0  0  0  0
   56.2070   29.2450   52.0320 O   0  0  0  0  0  0  0  0  0  0  0  0
   57.4010   29.7500   51.9240 N   0  0  0  0  0  0  0  0  0  0  0  0
   57.2800   31.0850   52.0680 C   0  0  0  0  0  0  0  0  0  0  0  0
   58.3980   32.0540   52.0310 C   0  0  0  0  0  0  0  0  0  0  0  0
   59.2880   31.9870   52.9180 O   0  0  0  0  0  0  0  0  0  0  0  0
   58.5150   33.0750   51.0290 N   0  0  0  0  0  0  0  0  0  0  0  0
   59.6030   33.2200   50.0710 C   0  0  0  0  0  0  0  0  0  0  0  0
   59.9100   34.2751   50.0203 H   0  0  0  0  0  0  0  0  0  0  0  0
   60.4589   32.6067   50.3892 H   0  0  0  0  0  0  0  0  0  0  0  0
   59.1350   32.7680   48.7180 C   0  0  0  0  0  0  0  0  0  0  0  0
   59.3590   31.4490   48.2960 C   0  0  0  0  0  0  0  0  0  0  0  0
   59.8558   30.7352   48.9695 H   0  0  0  0  0  0  0  0  0  0  0  0
   58.9530   31.0380   47.0220 C   0  0  0  0  0  0  0  0  0  0  0  0
   59.1232   29.9994   46.7022 H   0  0  0  0  0  0  0  0  0  0  0  0
   58.3300   31.9430   46.1500 C   0  0  0  0  0  0  0  0  0  0  0  0
   57.8860   31.5090   44.7770 C   0  0  0  0  0  0  0  0  0  0  0  0
   57.5627   32.3915   44.2054 H   0  0  0  0  0  0  0  0  0  0  0  0
   58.7287   31.0163   44.2699 H   0  0  0  0  0  0  0  0  0  0  0  0
   56.7600   30.5520   44.8740 N   0  0  0  0  0  0  0  0  0  0  0  0
   56.0270   30.4720   43.6040 C   0  0  0  0  0  0  0  0  0  0  0  0
   54.9673   30.2494   43.7974 H   0  0  0  0  0  0  0  0  0  0  0  0
   56.0887   31.4289   43.0649 H   0  0  0  0  0  0  0  0  0  0  0  0
   56.6470   29.3560   42.7760 C   0  0  0  0  0  0  0  0  0  0  0  0
   55.8649   28.7750   42.2653 H   0  0  0  0  0  0  0  0  0  0  0  0
   57.3142   29.7475   41.9940 H   0  0  0  0  0  0  0  0  0  0  0  0
   57.3910   28.4860   43.7710 C   0  0  0  0  0  0  0  0  0  0  0  0
   56.9498   27.4790   43.8058 H   0  0  0  0  0  0  0  0  0  0  0  0
   58.4486   28.3642   43.4943 H   0  0  0  0  0  0  0  0  0  0  0  0
   57.2370   29.1810   45.1180 C   0  0  0  0  0  0  0  0  0  0  0  0
   56.5080   28.6373   45.7368 H   0  0  0  0  0  0  0  0  0  0  0  0
   58.2006   29.2017   45.6482 H   0  0  0  0  0  0  0  0  0  0  0  0
   58.1200   33.2670   46.5690 C   0  0  0  0  0  0  0  0  0  0  0  0
   57.6338   33.9844   45.8915 H   0  0  0  0  0  0  0  0  0  0  0  0
   58.5250   33.6780   47.8410 C   0  0  0  0  0  0  0  0  0  0  0  0
   58.3651   34.7195   48.1567 H   0  0  0  0  0  0  0  0  0  0  0  0
   55.9530   31.4040   52.2760 C   0  0  0  0  0  0  0  0  0  0  0  0
   55.5115   32.3983   52.4387 H   0  0  0  0  0  0  0  0  0  0  0  0
  1  2  1  0
  2  3  2  0
  3  4  1  0
  3  5  1  0
  5  6  2  0
  6  7  1  0
  6  8  1  0
  8  9  1  0
  8 10  2  0
 10 11  1  0
 10 12  1  0
 12 13  1  0
 12 14  2  0
 14 15  1  0
  2 16  1  0
 16 17  1  0
 17 18  1  0
 18 19  2  0
 19 20  1  0
 20 21  2  0
 20 22  1  0
 22 23  1  0
 23 24  1  0
 23 25  1  0
 23 26  1  0
 26 27  2  0
 27 28  1  0
 27 29  1  0
 29 30  1  0
 29 31  2  0
 31 32  1  0
 32 33  1  0
 32 34  1  0
 32 35  1  0
 35 36  1  0
 36 37  1  0
 36 38  1  0
 36 39  1  0
 39 40  1  0
 39 41  1  0
 39 42  1  0
 42 43  1  0
 42 44  1  0
 42 45  1  0
 45 46  1  0
 45 47  1  0
 31 48  1  0
 48 49  1  0
 48 50  2  0
 50 51  1  0
 19 52  1  0
 52 53  1  0
 14  5  1  0
 52 16  2  0
 50 26  1  0
 45 35  1  0
M  CHG  2  15  -1  22  -1
M  END
>  <UniqueID>  (66) 
59

>  <SMILES>  (66) 
O=C([N-]Cc1ccc(CN2CCCC2)cc1)c1cc(/C=C\c2ccccc2[O-])on1

>  <Energy>  (66) 
97.07808880372849

>  <Genealogy>  (66) 
O=C([N-]Cc1ccc(CN2CCCC2)cc1)c1cc(C=Cc2ccccc2[O-])on1 (protonated)
O=C([N-]Cc1ccc(CN2CCCC2)cc1)c1cc(/C=C\c2ccccc2[O-])on1 (cis-trans isomerization)
O=C([N-]Cc1ccc(CN2CCCC2)cc1)c1cc(/C=C\c2ccccc2[O-])on1 (3D coordinates assigned)
O=C([N-]Cc1ccc(CN2CCCC2)cc1)c1cc(/C=C\c2ccccc2[O-])on1 (nonaromatic ring conformer: 97.07808880372849 kcal/mol)

>  <smiles>  (66) 
O=C(NCc1ccc(CN2CCCC2)cc1)c1cc(C=Cc2ccccc2O)on1

>  <score_type>  (66) 
oracle

>  <origin>  (66) 
adg

>  <m_score__min__energy>  (66) 
-15.699999999999999

>  <m_primary>  (66) 
energy

$$$$
66:0
     RDKit          3D

 67 70  0  0  0  0  0  0  0  0999 V2000
   60.6330   32.7380   51.2430 C   0  0  0  0  0  0  0  0  0  0  0  0
   60.0740   31.6610   50.6660 C   0  0  0  0  0  0  0  0  0  0  0  0
   58.7040   31.3680   50.6000 C   0  0  0  0  0  0  0  0  0  0  0  0
   57.6520   31.8880   51.2590 C   0  0  0  0  0  0  0  0  0  0  0  0
   56.7490   31.1700   52.1820 C   0  0  0  0  0  0  0  0  0  0  0  0
   55.9660   30.1600   51.7660 N   0  0  0  0  0  0  0  0  0  0  0  0
   55.5650   29.5670   52.9140 C   0  0  0  0  0  0  0  0  0  0  0  0
   54.8590   28.5260   52.9290 O   0  0  0  0  0  0  0  0  0  0  0  0
   56.0890   30.1040   54.0380 N   0  0  0  0  0  0  0  0  0  0  0  0
   56.8530   31.1020   53.5590 C   0  0  0  0  0  0  0  0  0  0  0  0
   57.6800   31.8830   54.3580 O   0  0  0  0  0  0  0  0  0  0  0  0
   58.5790   30.3160   49.7110 C   0  0  0  0  0  0  0  0  0  0  0  0
   59.8570   29.9400   49.3560 C   0  0  0  0  0  0  0  0  0  0  0  0
   60.1510   28.7290   48.5660 C   0  0  0  0  0  0  0  0  0  0  0  0
   59.9900   27.5940   49.0910 O   0  0  0  0  0  0  0  0  0  0  0  0
   60.5570   28.8400   47.1880 N   0  0  0  0  0  0  0  0  0  0  0  0
   61.1560   30.0870   46.6980 C   0  0  0  0  0  0  0  0  0  0  0  0
   60.0820   31.1360   46.3820 C   0  0  0  0  0  0  0  0  0  0  0  0
   60.3080   32.4250   47.1840 C   0  0  0  0  0  0  0  0  0  0  0  0
   59.1690   33.3580   47.0270 N   0  0  0  0  0  0  0  0  0  0  0  0
   57.9920   32.6950   46.4230 C   0  0  0  0  0  0  0  0  0  0  0  0
   56.9990   33.7470   45.9040 C   0  0  0  0  0  0  0  0  0  0  0  0
   57.5260   34.5970   44.8950 O   0  0  0  0  0  0  0  0  0  0  0  0
   58.9460   34.6750   44.8940 C   0  0  0  0  0  0  0  0  0  0  0  0
   59.5620   34.5960   46.3040 C   0  0  0  0  0  0  0  0  0  0  0  0
   60.2950   27.7330   46.2570 C   0  0  0  0  0  0  0  0  0  0  0  0
   58.8270   27.4030   46.2590 C   0  0  0  0  0  0  0  0  0  0  0  0
   58.3780   26.1590   46.7260 C   0  0  0  0  0  0  0  0  0  0  0  0
   57.0240   25.8250   46.6460 C   0  0  0  0  0  0  0  0  0  0  0  0
   56.1110   26.7220   46.0850 C   0  0  0  0  0  0  0  0  0  0  0  0
   54.7690   26.3750   45.9980 O   0  0  0  0  0  0  0  0  0  0  0  0
   56.5390   27.9670   45.6050 C   0  0  0  0  0  0  0  0  0  0  0  0
   55.5810   28.8190   45.0260 O   0  0  0  0  0  0  0  0  0  0  0  0
   55.8640   29.7870   44.0210 C   0  0  0  0  0  0  0  0  0  0  0  0
   57.9040   28.3110   45.7040 C   0  0  0  0  0  0  0  0  0  0  0  0
   60.7720   30.7520   49.9360 N   0  0  0  0  0  0  0  0  0  0  0  0
   62.2220   30.7520   49.7090 C   0  0  0  0  0  0  0  0  0  0  0  0
   61.7259   32.8624   51.2328 H   0  0  0  0  0  0  0  0  0  0  0  0
   59.9977   33.4954   51.7256 H   0  0  0  0  0  0  0  0  0  0  0  0
   57.4434   32.9553   51.0937 H   0  0  0  0  0  0  0  0  0  0  0  0
   58.1860   31.4730   55.1330 H   0  0  0  0  0  0  0  0  0  0  0  0
   57.6404   29.8658   49.3555 H   0  0  0  0  0  0  0  0  0  0  0  0
   61.8314   30.4869   47.4687 H   0  0  0  0  0  0  0  0  0  0  0  0
   61.7080   29.8663   45.7725 H   0  0  0  0  0  0  0  0  0  0  0  0
   60.1163   31.3716   45.3081 H   0  0  0  0  0  0  0  0  0  0  0  0
   59.1009   30.7225   46.6587 H   0  0  0  0  0  0  0  0  0  0  0  0
   60.4199   32.1708   48.2484 H   0  0  0  0  0  0  0  0  0  0  0  0
   61.2165   32.9166   46.8059 H   0  0  0  0  0  0  0  0  0  0  0  0
   58.3213   32.0619   45.5859 H   0  0  0  0  0  0  0  0  0  0  0  0
   57.4956   32.0787   47.1870 H   0  0  0  0  0  0  0  0  0  0  0  0
   56.1248   33.2222   45.4912 H   0  0  0  0  0  0  0  0  0  0  0  0
   56.7448   34.3909   46.7589 H   0  0  0  0  0  0  0  0  0  0  0  0
   59.3409   33.8424   44.2934 H   0  0  0  0  0  0  0  0  0  0  0  0
   59.2180   35.6547   44.4742 H   0  0  0  0  0  0  0  0  0  0  0  0
   60.6579   34.6184   46.2122 H   0  0  0  0  0  0  0  0  0  0  0  0
   59.1876   35.4541   46.8815 H   0  0  0  0  0  0  0  0  0  0  0  0
   60.6017   28.0283   45.2427 H   0  0  0  0  0  0  0  0  0  0  0  0
   60.8669   26.8484   46.5739 H   0  0  0  0  0  0  0  0  0  0  0  0
   59.0945   25.4440   47.1567 H   0  0  0  0  0  0  0  0  0  0  0  0
   56.6755   24.8532   47.0256 H   0  0  0  0  0  0  0  0  0  0  0  0
   56.1423   30.7389   44.4968 H   0  0  0  0  0  0  0  0  0  0  0  0
   56.6962   29.4329   43.3949 H   0  0  0  0  0  0  0  0  0  0  0  0
   54.9721   29.9370   43.3949 H   0  0  0  0  0  0  0  0  0  0  0  0
   58.2488   29.2924   45.3462 H   0  0  0  0  0  0  0  0  0  0  0  0
   62.5843   29.7149   49.6523 H   0  0  0  0  0  0  0  0  0  0  0  0
   62.4453   31.2705   48.7650 H   0  0  0  0  0  0  0  0  0  0  0  0
   62.7232   31.2705   50.5396 H   0  0  0  0  0  0  0  0  0  0  0  0
  1  2  2  0
  2  3  1  0
  3  4  2  3
  4  5  1  0
  5  6  1  0
  6  7  1  0
  7  8  2  0
  7  9  1  0
  9 10  1  0
 10 11  1  0
  3 12  1  0
 12 13  2  0
 13 14  1  0
 14 15  2  0
 14 16  1  0
 16 17  1  0
 17 18  1  0
 18 19  1  0
 19 20  1  0
 20 21  1  0
 21 22  1  0
 22 23  1  0
 23 24  1  0
 24 25  1  0
 16 26  1  0
 26 27  1  0
 27 28  2  0
 28 29  1  0
 29 30  2  0
 30 31  1  0
 30 32  1  0
 32 33  1  0
 33 34  1  0
 32 35  2  0
 13 36  1  0
 36 37  1  0
 36  2  1  0
 10  5  2  0
 25 20  1  0
 35 27  1  0
  1 38  1  0
  1 39  1  0
  4 40  1  0
 11 41  1  0
 12 42  1  0
 17 43  1  0
 17 44  1  0
 18 45  1  0
 18 46  1  0
 19 47  1  0
 19 48  1  0
 21 49  1  0
 21 50  1  0
 22 51  1  0
 22 52  1  0
 24 53  1  0
 24 54  1  0
 25 55  1  0
 25 56  1  0
 26 57  1  0
 26 58  1  0
 28 59  1  0
 29 60  1  0
 34 61  1  0
 34 62  1  0
 34 63  1  0
 35 64  1  0
 37 65  1  0
 37 66  1  0
 37 67  1  0
M  CHG  3   6  -1   9  -1  31  -1
M  END
>  <UniqueID>  (67) 
60

>  <SMILES>  (67) 
C=c1c(=Cc2[n-]c(=O)[n-]c2O)cc(C(=O)N(CCCN2CCOCC2)Cc2ccc([O-])c(OC)c2)n1C

>  <Energy>  (67) 
155.83416303395518

>  <Genealogy>  (67) 
C=c1c(=Cc2[n-]c(=O)[n-]c2O)cc(C(=O)N(CCCN2CCOCC2)Cc2ccc([O-])c(OC)c2)n1C (protonated)
C=c1c(=Cc2[n-]c(=O)[n-]c2O)cc(C(=O)N(CCCN2CCOCC2)Cc2ccc([O-])c(OC)c2)n1C (3D coordinates assigned)
C=c1c(=Cc2[n-]c(=O)[n-]c2O)cc(C(=O)N(CCCN2CCOCC2)Cc2ccc([O-])c(OC)c2)n1C (nonaromatic ring conformer: 155.83416303395518 kcal/mol)

>  <smiles>  (67) 
C=c1c(=Cc2[nH]c(=O)[nH]c2O)cc(C(=O)N(CCCN2CCOCC2)Cc2ccc(O)c(OC)c2)n1C

>  <score_type>  (67) 
oracle

>  <origin>  (67) 
adg

>  <m_score__min__energy>  (67) 
-14.470000000000001

>  <m_primary>  (67) 
energy

$$$$
67:0
     RDKit          3D

 52 54  0  0  0  0  0  0  0  0999 V2000
   55.3220   26.5880   46.0720 N   0  0  0  0  0  0  0  0  0  0  0  0
   56.7240   26.8420   46.1480 C   0  0  0  0  0  0  0  0  0  0  0  0
   57.4840   25.9230   46.5570 O   0  0  0  0  0  0  0  0  0  0  0  0
   57.2910   28.1610   45.7570 C   0  0  0  0  0  0  0  0  0  0  0  0
   58.6520   28.4300   46.0090 C   0  0  0  0  0  0  0  0  0  0  0  0
   59.2290   29.6540   45.6560 C   0  0  0  0  0  0  0  0  0  0  0  0
   60.5940   29.8470   45.9300 O   0  0  0  0  0  0  0  0  0  0  0  0
   61.1340   30.8880   46.7460 C   0  0  0  0  0  0  0  0  0  0  0  0
   60.3230   31.0520   48.0040 C   0  0  0  0  0  0  0  0  0  0  0  0
   59.2770   31.9870   48.0460 C   0  0  0  0  0  0  0  0  0  0  0  0
   58.5300   32.1550   49.2140 C   0  0  0  0  0  0  0  0  0  0  0  0
   58.8140   31.3870   50.3450 C   0  0  0  0  0  0  0  0  0  0  0  0
   59.8410   30.4360   50.3160 C   0  0  0  0  0  0  0  0  0  0  0  0
   60.1090   29.6770   51.5040 N   0  0  0  0  0  0  0  0  0  0  0  0
   61.2630   29.7920   52.3450 C   0  0  0  0  0  0  0  0  0  0  0  0
   61.7230   28.7890   52.9540 O   0  0  0  0  0  0  0  0  0  0  0  0
   61.9080   31.1310   52.5280 C   0  0  0  0  0  0  0  0  0  0  0  0
   63.1170   31.2800   51.6410 C   0  0  0  0  0  0  0  0  0  0  0  0
   64.1730   30.6550   51.9360 O   0  0  0  0  0  0  0  0  0  0  0  0
   63.1090   32.1650   50.5000 N   0  0  0  0  0  0  0  0  0  0  0  0
   62.1300   33.2620   50.4130 C   0  0  0  0  0  0  0  0  0  0  0  0
   62.6050   34.3570   49.4530 C   0  0  0  0  0  0  0  0  0  0  0  0
   62.9430   33.7970   48.0610 C   0  0  0  0  0  0  0  0  0  0  0  0
   63.5850   32.3940   48.0950 C   0  0  0  0  0  0  0  0  0  0  0  0
   64.1530   32.0360   49.4720 C   0  0  0  0  0  0  0  0  0  0  0  0
   60.6140   30.2920   49.1490 C   0  0  0  0  0  0  0  0  0  0  0  0
   58.4320   30.6380   45.0470 C   0  0  0  0  0  0  0  0  0  0  0  0
   57.0850   30.3900   44.7910 C   0  0  0  0  0  0  0  0  0  0  0  0
   56.5090   29.1640   45.1390 C   0  0  0  0  0  0  0  0  0  0  0  0
   55.1610   28.9640   44.8610 O   0  0  0  0  0  0  0  0  0  0  0  0
   54.8000   26.7230   45.1780 H   0  0  0  0  0  0  0  0  0  0  0  0
   59.2725   27.6615   46.4931 H   0  0  0  0  0  0  0  0  0  0  0  0
   62.1704   30.6355   47.0147 H   0  0  0  0  0  0  0  0  0  0  0  0
   61.1056   31.8314   46.1810 H   0  0  0  0  0  0  0  0  0  0  0  0
   59.0447   32.5897   47.1556 H   0  0  0  0  0  0  0  0  0  0  0  0
   57.7159   32.8942   49.2430 H   0  0  0  0  0  0  0  0  0  0  0  0
   58.2272   31.5301   51.2644 H   0  0  0  0  0  0  0  0  0  0  0  0
   61.1803   31.9169   52.2775 H   0  0  0  0  0  0  0  0  0  0  0  0
   62.2316   31.2212   53.5755 H   0  0  0  0  0  0  0  0  0  0  0  0
   61.1721   32.8596   50.0518 H   0  0  0  0  0  0  0  0  0  0  0  0
   62.0139   33.7039   51.4136 H   0  0  0  0  0  0  0  0  0  0  0  0
   61.8084   35.1084   49.3495 H   0  0  0  0  0  0  0  0  0  0  0  0
   63.5200   34.8017   49.8713 H   0  0  0  0  0  0  0  0  0  0  0  0
   62.0139   33.7395   47.4750 H   0  0  0  0  0  0  0  0  0  0  0  0
   63.6815   34.4773   47.6118 H   0  0  0  0  0  0  0  0  0  0  0  0
   62.8202   31.6506   47.8259 H   0  0  0  0  0  0  0  0  0  0  0  0
   64.4216   32.3945   47.3808 H   0  0  0  0  0  0  0  0  0  0  0  0
   64.5207   30.9994   49.4553 H   0  0  0  0  0  0  0  0  0  0  0  0
   64.9786   32.7229   49.7099 H   0  0  0  0  0  0  0  0  0  0  0  0
   61.4519   29.5794   49.1332 H   0  0  0  0  0  0  0  0  0  0  0  0
   58.8729   31.6073   44.7714 H   0  0  0  0  0  0  0  0  0  0  0  0
   56.4694   31.1651   44.3111 H   0  0  0  0  0  0  0  0  0  0  0  0
  1  2  1  0
  2  3  2  0
  2  4  1  0
  4  5  2  0
  5  6  1  0
  6  7  1  0
  7  8  1  0
  8  9  1  0
  9 10  2  0
 10 11  1  0
 11 12  2  0
 12 13  1  0
 13 14  1  0
 14 15  1  0
 15 16  2  0
 15 17  1  0
 17 18  1  0
 18 19  2  0
 18 20  1  0
 20 21  1  0
 21 22  1  0
 22 23  1  0
 23 24  1  0
 24 25  1  0
 13 26  2  0
  6 27  2  0
 27 28  1  0
 28 29  2  0
 29 30  1  0
 29  4  1  0
 26  9  1  0
 25 20  1  0
  1 31  1  0
  5 32  1  0
  8 33  1  0
  8 34  1  0
 10 35  1  0
 11 36  1  0
 12 37  1  0
 17 38  1  0
 17 39  1  0
 21 40  1  0
 21 41  1  0
 22 42  1  0
 22 43  1  0
 23 44  1  0
 23 45  1  0
 24 46  1  0
 24 47  1  0
 25 48  1  0
 25 49  1  0
 26 50  1  0
 27 51  1  0
 28 52  1  0
M  CHG  3   1  -1  14  -1  30  -1
M  END
>  <UniqueID>  (68) 
61

>  <SMILES>  (68) 
[NH-]C(=O)c1cc(OCc2cccc([N-]C(=O)CC(=O)N3CCCCC3)c2)ccc1[O-]

>  <Energy>  (68) 
58.6900210612426

>  <Genealogy>  (68) 
[NH-]C(=O)c1cc(OCc2cccc([N-]C(=O)CC(=O)N3CCCCC3)c2)ccc1[O-] (protonated)
[NH-]C(=O)c1cc(OCc2cccc([N-]C(=O)CC(=O)N3CCCCC3)c2)ccc1[O-] (3D coordinates assigned)
[NH-]C(=O)c1cc(OCc2cccc([N-]C(=O)CC(=O)N3CCCCC3)c2)ccc1[O-] (nonaromatic ring conformer: 58.6900210612426 kcal/mol)

>  <smiles>  (68) 
NC(=O)c1cc(OCc2cccc(NC(=O)CC(=O)N3CCCCC3)c2)ccc1O

>  <score_type>  (68) 
oracle

>  <origin>  (68) 
adg

>  <m_score__min__energy>  (68) 
-17.52

>  <m_primary>  (68) 
energy

$$$$
68:0
     RDKit          3D

 58 61  0  0  0  0  0  0  0  0999 V2000
   57.5770   34.5560   44.5840 C   0  0  0  0  0  0  0  0  0  0  0  0
   57.6730   33.2320   44.7660 C   0  0  0  0  0  0  0  0  0  0  0  0
   57.7090   32.3340   43.7190 C   0  0  0  0  0  0  0  0  0  0  0  0
   57.8740   31.0900   44.2770 C   0  0  0  0  0  0  0  0  0  0  0  0
   57.9140   31.2630   45.6500 C   0  0  0  0  0  0  0  0  0  0  0  0
   58.0960   30.2210   46.4870 C   0  0  0  0  0  0  0  0  0  0  0  0
   58.2250   28.8090   46.1050 C   0  0  0  0  0  0  0  0  0  0  0  0
   57.2020   28.0150   45.6210 C   0  0  0  0  0  0  0  0  0  0  0  0
   55.9430   28.4450   45.2090 O   0  0  0  0  0  0  0  0  0  0  0  0
   57.6000   26.7280   45.6230 N   0  0  0  0  0  0  0  0  0  0  0  0
   56.8200   25.5570   45.2220 C   0  0  0  0  0  0  0  0  0  0  0  0
   55.5790   25.4560   46.0450 C   0  0  0  0  0  0  0  0  0  0  0  0
   54.6870   26.3400   45.9560 O   0  0  0  0  0  0  0  0  0  0  0  0
   55.4130   24.3950   46.9270 O   0  0  0  0  0  0  0  0  0  0  0  0
   58.8530   26.7550   46.1260 C   0  0  0  0  0  0  0  0  0  0  0  0
   59.5540   25.7230   46.3090 O   0  0  0  0  0  0  0  0  0  0  0  0
   59.2620   28.0050   46.4410 N   0  0  0  0  0  0  0  0  0  0  0  0
   60.4810   28.3750   47.1680 C   0  0  0  0  0  0  0  0  0  0  0  0
   60.1350   29.1910   48.3840 C   0  0  0  0  0  0  0  0  0  0  0  0
   58.9500   28.9430   49.0950 C   0  0  0  0  0  0  0  0  0  0  0  0
   58.6510   29.6760   50.2470 C   0  0  0  0  0  0  0  0  0  0  0  0
   59.5330   30.6670   50.7110 C   0  0  0  0  0  0  0  0  0  0  0  0
   59.2230   31.4430   51.9300 C   0  0  0  0  0  0  0  0  0  0  0  0
   59.8270   31.2080   53.0110 O   0  0  0  0  0  0  0  0  0  0  0  0
   58.2580   32.4440   51.9030 O   0  0  0  0  0  0  0  0  0  0  0  0
   60.7210   30.9090   49.9980 C   0  0  0  0  0  0  0  0  0  0  0  0
   61.0200   30.1750   48.8470 C   0  0  0  0  0  0  0  0  0  0  0  0
   57.7880   32.5890   45.9630 N   0  0  0  0  0  0  0  0  0  0  0  0
   57.9170   33.2290   47.2880 C   0  0  0  0  0  0  0  0  0  0  0  0
   59.3540   33.3330   47.7390 C   0  0  0  0  0  0  0  0  0  0  0  0
   60.4220   32.9620   46.9020 C   0  0  0  0  0  0  0  0  0  0  0  0
   61.7440   33.1010   47.3350 C   0  0  0  0  0  0  0  0  0  0  0  0
   62.0260   33.6420   48.5990 C   0  0  0  0  0  0  0  0  0  0  0  0
   63.4260   33.7830   49.0570 C   0  0  0  0  0  0  0  0  0  0  0  0
   64.3820   33.4870   48.2930 O   0  0  0  0  0  0  0  0  0  0  0  0
   63.7040   34.2500   50.3370 O   0  0  0  0  0  0  0  0  0  0  0  0
   60.9600   34.0530   49.4180 C   0  0  0  0  0  0  0  0  0  0  0  0
   59.6380   33.8990   48.9900 C   0  0  0  0  0  0  0  0  0  0  0  0
   57.5520   35.2302   45.4528 H   0  0  0  0  0  0  0  0  0  0  0  0
   57.5232   34.9687   43.5658 H   0  0  0  0  0  0  0  0  0  0  0  0
   57.6225   32.5685   42.6478 H   0  0  0  0  0  0  0  0  0  0  0  0
   57.9584   30.1363   43.7353 H   0  0  0  0  0  0  0  0  0  0  0  0
   58.1534   30.4516   47.5610 H   0  0  0  0  0  0  0  0  0  0  0  0
   55.1450   27.8220   45.2330 H   0  0  0  0  0  0  0  0  0  0  0  0
   56.5454   25.6497   44.1609 H   0  0  0  0  0  0  0  0  0  0  0  0
   57.4267   24.6525   45.3761 H   0  0  0  0  0  0  0  0  0  0  0  0
   61.0081   27.4618   47.4815 H   0  0  0  0  0  0  0  0  0  0  0  0
   61.1251   28.9730   46.5066 H   0  0  0  0  0  0  0  0  0  0  0  0
   58.2532   28.1678   48.7436 H   0  0  0  0  0  0  0  0  0  0  0  0
   57.7183   29.4757   50.7946 H   0  0  0  0  0  0  0  0  0  0  0  0
   61.4203   31.6821   50.3491 H   0  0  0  0  0  0  0  0  0  0  0  0
   61.9549   30.3703   48.3012 H   0  0  0  0  0  0  0  0  0  0  0  0
   57.4893   34.2410   47.2347 H   0  0  0  0  0  0  0  0  0  0  0  0
   57.3811   32.6030   48.0166 H   0  0  0  0  0  0  0  0  0  0  0  0
   60.2154   32.5595   45.8993 H   0  0  0  0  0  0  0  0  0  0  0  0
   62.5692   32.7841   46.6803 H   0  0  0  0  0  0  0  0  0  0  0  0
   61.1673   34.4987   50.4021 H   0  0  0  0  0  0  0  0  0  0  0  0
   58.8131   34.2248   49.6406 H   0  0  0  0  0  0  0  0  0  0  0  0
  1  2  2  0
  2  3  1  0
  3  4  2  0
  4  5  1  0
  5  6  2  3
  6  7  1  0
  7  8  2  0
  8  9  1  0
  8 10  1  0
 10 11  1  0
 11 12  1  0
 12 13  2  0
 12 14  1  0
 10 15  1  0
 15 16  2  0
 15 17  1  0
 17 18  1  0
 18 19  1  0
 19 20  2  0
 20 21  1  0
 21 22  2  0
 22 23  1  0
 23 24  2  0
 23 25  1  0
 22 26  1  0
 26 27  2  0
  5 28  1  0
 28 29  1  0
 29 30  1  0
 30 31  2  0
 31 32  1  0
 32 33  2  0
 33 34  1  0
 34 35  2  0
 34 36  1  0
 33 37  1  0
 37 38  2  0
 28  2  1  0
 38 30  1  0
 17  7  1  0
 27 19  1  0
  1 39  1  0
  1 40  1  0
  3 41  1  0
  4 42  1  0
  6 43  1  0
  9 44  1  0
 11 45  1  0
 11 46  1  0
 18 47  1  0
 18 48  1  0
 20 49  1  0
 21 50  1  0
 26 51  1  0
 27 52  1  0
 29 53  1  0
 29 54  1  0
 31 55  1  0
 32 56  1  0
 37 57  1  0
 38 58  1  0
M  CHG  3  14  -1  25  -1  36  -1
M  END
>  <UniqueID>  (69) 
62

>  <SMILES>  (69) 
C=c1ccc(=Cc2c(O)n(CC(=O)[O-])c(=O)n2Cc2ccc(C(=O)[O-])cc2)n1Cc1ccc(C(=O)[O-])cc1

>  <Energy>  (69) 
131.3736993474719

>  <Genealogy>  (69) 
C=c1ccc(=Cc2c(O)n(CC(=O)[O-])c(=O)n2Cc2ccc(C(=O)[O-])cc2)n1Cc1ccc(C(=O)[O-])cc1 (protonated)
C=c1ccc(=Cc2c(O)n(CC(=O)[O-])c(=O)n2Cc2ccc(C(=O)[O-])cc2)n1Cc1ccc(C(=O)[O-])cc1 (3D coordinates assigned)
C=c1ccc(=Cc2c(O)n(CC(=O)[O-])c(=O)n2Cc2ccc(C(=O)[O-])cc2)n1Cc1ccc(C(=O)[O-])cc1 (optimized conformer: 131.3736993474719 kcal/mol)

>  <smiles>  (69) 
C=c1ccc(=Cc2c(O)n(CC(=O)O)c(=O)n2Cc2ccc(C(=O)O)cc2)n1Cc1ccc(C(=O)O)cc1

>  <score_type>  (69) 
oracle

>  <origin>  (69) 
adg

>  <m_score__min__energy>  (69) 
-13.98

>  <m_primary>  (69) 
energy

$$$$
69:0
     RDKit          3D

 28 29  0  0  0  0  0  0  0  0999 V2000
   57.6810   24.4760   48.2210 O   0  0  0  0  0  0  0  0  0  0  0  0
   57.4560   24.8020   47.0250 C   0  0  0  0  0  0  0  0  0  0  0  0
   56.2700   24.2330   46.3150 C   0  0  0  0  0  0  0  0  0  0  0  0
   56.6960   23.2070   45.3690 N   0  0  0  0  0  0  0  0  0  0  0  0
   57.1680   21.8940   45.6930 C   0  0  0  0  0  0  0  0  0  0  0  0
   57.5470   21.5580   46.8450 O   0  0  0  0  0  0  0  0  0  0  0  0
   57.1410   20.9920   44.5860 N   0  0  0  0  0  0  0  0  0  0  0  0
   56.5890   21.7620   43.5270 C   0  0  0  0  0  0  0  0  0  0  0  0
   56.3730   21.3210   42.3680 O   0  0  0  0  0  0  0  0  0  0  0  0
   56.3030   23.1010   44.0030 C   0  0  0  0  0  0  0  0  0  0  0  0
   55.7640   24.0260   43.3400 O   0  0  0  0  0  0  0  0  0  0  0  0
   58.3810   25.6230   46.3010 N   0  0  0  0  0  0  0  0  0  0  0  0
   58.1190   26.9170   45.7380 C   0  0  0  0  0  0  0  0  0  0  0  0
   59.1520   27.7850   45.3520 C   0  0  0  0  0  0  0  0  0  0  0  0
   58.8540   29.0450   44.8260 C   0  0  0  0  0  0  0  0  0  0  0  0
   57.5210   29.4710   44.6850 C   0  0  0  0  0  0  0  0  0  0  0  0
   57.2430   30.7780   44.1370 N   0  0  0  0  0  0  0  0  0  0  0  0
   56.8290   31.7070   44.8590 O   0  0  0  0  0  0  0  0  0  0  0  0
   57.4280   31.0210   42.7950 O   0  0  0  0  0  0  0  0  0  0  0  0
   56.4850   28.6010   45.0990 C   0  0  0  0  0  0  0  0  0  0  0  0
   55.1490   28.9710   44.9950 O   0  0  0  0  0  0  0  0  0  0  0  0
   56.7920   27.3420   45.6250 C   0  0  0  0  0  0  0  0  0  0  0  0
   55.5848   23.7871   47.0510 H   0  0  0  0  0  0  0  0  0  0  0  0
   55.7586   25.0379   45.7667 H   0  0  0  0  0  0  0  0  0  0  0  0
   57.4140   19.9840   44.5740 H   0  0  0  0  0  0  0  0  0  0  0  0
   60.2007   27.4723   45.4639 H   0  0  0  0  0  0  0  0  0  0  0  0
   59.6726   29.7122   44.5183 H   0  0  0  0  0  0  0  0  0  0  0  0
   55.9791   26.6779   45.9539 H   0  0  0  0  0  0  0  0  0  0  0  0
  1  2  2  0
  2  3  1  0
  3  4  1  0
  4  5  1  0
  5  6  2  0
  5  7  1  0
  7  8  1  0
  8  9  2  0
  8 10  1  0
 10 11  2  0
  2 12  1  0
 12 13  1  0
 13 14  2  0
 14 15  1  0
 15 16  2  0
 16 17  1  0
 17 18  2  0
 17 19  1  0
 16 20  1  0
 20 21  1  0
 20 22  2  0
 10  4  1  0
 22 13  1  0
  3 23  1  0
  3 24  1  0
  7 25  1  0
 14 26  1  0
 15 27  1  0
 22 28  1  0
M  CHG  4  12  -1  17   1  19  -1  21  -1
M  END
>  <UniqueID>  (70) 
63

>  <SMILES>  (70) 
O=C(CN1C(=O)NC(=O)C1=O)[N-]c1ccc([N+](=O)[O-])c([O-])c1

>  <Energy>  (70) 
61.843192524454686

>  <Genealogy>  (70) 
O=C(CN1C(=O)NC(=O)C1=O)[N-]c1ccc([N+](=O)[O-])c([O-])c1 (protonated)
O=C(CN1C(=O)NC(=O)C1=O)[N-]c1ccc([N+](=O)[O-])c([O-])c1 (3D coordinates assigned)
O=C(CN1C(=O)NC(=O)C1=O)[N-]c1ccc([N+](=O)[O-])c([O-])c1 (nonaromatic ring conformer: 61.843192524454686 kcal/mol)

>  <smiles>  (70) 
O=C(CN1C(=O)NC(=O)C1=O)Nc1ccc([N+](=O)[O-])c(O)c1

>  <score_type>  (70) 
oracle

>  <origin>  (70) 
adg

>  <m_score__min__energy>  (70) 
-12.380000000000001

>  <m_primary>  (70) 
energy

$$$$
70:0
     RDKit          3D

 57 61  0  0  0  0  0  0  0  0999 V2000
   55.2030   29.7290   43.7240 C   0  0  0  0  0  0  0  0  0  0  0  0
   55.5490   29.0900   44.9850 N   0  0  0  0  0  0  0  0  0  0  0  0
   56.8830   29.0220   45.4950 C   0  0  0  0  0  0  0  0  0  0  0  0
   57.4390   30.0720   45.9130 O   0  0  0  0  0  0  0  0  0  0  0  0
   57.6190   27.7500   45.5530 C   0  0  0  0  0  0  0  0  0  0  0  0
   57.4060   26.7410   44.5910 C   0  0  0  0  0  0  0  0  0  0  0  0
   58.1040   25.5140   44.6760 C   0  0  0  0  0  0  0  0  0  0  0  0
   59.0190   25.2850   45.7200 C   0  0  0  0  0  0  0  0  0  0  0  0
   59.2090   26.3040   46.6480 C   0  0  0  0  0  0  0  0  0  0  0  0
   60.0430   26.3120   47.6980 N   0  0  0  0  0  0  0  0  0  0  0  0
   59.8440   27.5490   48.2270 C   0  0  0  0  0  0  0  0  0  0  0  0
   60.5700   28.0440   49.4150 C   0  0  0  0  0  0  0  0  0  0  0  0
   60.7690   27.2150   50.5320 C   0  0  0  0  0  0  0  0  0  0  0  0
   61.4450   27.6960   51.6560 C   0  0  0  0  0  0  0  0  0  0  0  0
   61.9270   29.0090   51.6810 C   0  0  0  0  0  0  0  0  0  0  0  0
   62.5610   29.4550   52.7960 F   0  0  0  0  0  0  0  0  0  0  0  0
   61.7340   29.8550   50.5740 C   0  0  0  0  0  0  0  0  0  0  0  0
   62.2460   31.2460   50.5770 C   0  0  0  0  0  0  0  0  0  0  0  0
   63.3150   31.5160   51.1880 O   0  0  0  0  0  0  0  0  0  0  0  0
   61.5610   32.2930   49.8670 N   0  0  0  0  0  0  0  0  0  0  0  0
   62.2630   32.9710   48.7720 C   0  0  0  0  0  0  0  0  0  0  0  0
   61.7620   34.4180   48.5900 C   0  0  0  0  0  0  0  0  0  0  0  0
   60.2170   34.5380   48.5950 C   0  0  0  0  0  0  0  0  0  0  0  0
   59.4960   34.0520   47.3280 C   0  0  0  0  0  0  0  0  0  0  0  0
   58.2570   33.3900   47.4640 C   0  0  0  0  0  0  0  0  0  0  0  0
   57.5620   32.9260   46.3430 C   0  0  0  0  0  0  0  0  0  0  0  0
   58.0730   33.1410   45.0640 C   0  0  0  0  0  0  0  0  0  0  0  0
   57.3950   32.6990   43.9780 F   0  0  0  0  0  0  0  0  0  0  0  0
   59.2730   33.8350   44.9030 C   0  0  0  0  0  0  0  0  0  0  0  0
   59.9730   34.3010   46.0200 C   0  0  0  0  0  0  0  0  0  0  0  0
   59.6760   33.8650   49.8760 C   0  0  0  0  0  0  0  0  0  0  0  0
   60.1000   32.4000   49.9520 C   0  0  0  0  0  0  0  0  0  0  0  0
   61.0660   29.3570   49.4410 C   0  0  0  0  0  0  0  0  0  0  0  0
   58.9260   28.3030   47.5610 N   0  0  0  0  0  0  0  0  0  0  0  0
   58.5400   27.4880   46.5690 C   0  0  0  0  0  0  0  0  0  0  0  0
   54.6880   30.6802   43.9241 H   0  0  0  0  0  0  0  0  0  0  0  0
   56.1196   29.9226   43.1474 H   0  0  0  0  0  0  0  0  0  0  0  0
   54.5400   29.0673   43.1474 H   0  0  0  0  0  0  0  0  0  0  0  0
   56.6932   26.9093   43.7703 H   0  0  0  0  0  0  0  0  0  0  0  0
   57.9304   24.7333   43.9208 H   0  0  0  0  0  0  0  0  0  0  0  0
   59.5651   24.3335   45.7997 H   0  0  0  0  0  0  0  0  0  0  0  0
   60.3906   26.1822   50.5213 H   0  0  0  0  0  0  0  0  0  0  0  0
   61.5989   27.0395   52.5251 H   0  0  0  0  0  0  0  0  0  0  0  0
   63.3398   32.9910   48.9959 H   0  0  0  0  0  0  0  0  0  0  0  0
   62.0668   32.4181   47.8415 H   0  0  0  0  0  0  0  0  0  0  0  0
   62.1623   35.0317   49.4105 H   0  0  0  0  0  0  0  0  0  0  0  0
   62.1119   34.7621   47.6055 H   0  0  0  0  0  0  0  0  0  0  0  0
   59.9867   35.6136   48.5931 H   0  0  0  0  0  0  0  0  0  0  0  0
   57.8318   33.2368   48.4668 H   0  0  0  0  0  0  0  0  0  0  0  0
   56.6099   32.3901   46.4706 H   0  0  0  0  0  0  0  0  0  0  0  0
   59.6698   34.0161   43.8932 H   0  0  0  0  0  0  0  0  0  0  0  0
   60.9053   34.8677   45.8799 H   0  0  0  0  0  0  0  0  0  0  0  0
   60.0686   34.3981   50.7545 H   0  0  0  0  0  0  0  0  0  0  0  0
   58.5771   33.9087   49.8546 H   0  0  0  0  0  0  0  0  0  0  0  0
   59.7587   31.9714   50.9058 H   0  0  0  0  0  0  0  0  0  0  0  0
   59.6492   31.8506   49.1123 H   0  0  0  0  0  0  0  0  0  0  0  0
   60.9303   30.0054   48.5629 H   0  0  0  0  0  0  0  0  0  0  0  0
  1  2  1  0
  2  3  1  0
  3  4  2  0
  3  5  1  0
  5  6  2  0
  6  7  1  0
  7  8  2  0
  8  9  1  0
  9 10  1  0
 10 11  1  0
 11 12  1  0
 12 13  2  0
 13 14  1  0
 14 15  2  0
 15 16  1  0
 15 17  1  0
 17 18  1  0
 18 19  2  0
 18 20  1  0
 20 21  1  0
 21 22  1  0
 22 23  1  0
 23 24  1  0
 24 25  2  0
 25 26  1  0
 26 27  2  0
 27 28  1  0
 27 29  1  0
 29 30  2  0
 23 31  1  0
 31 32  1  0
 17 33  2  0
 11 34  2  0
 34 35  1  0
 35  5  1  0
 35  9  2  0
 33 12  1  0
 32 20  1  0
 30 24  1  0
  1 36  1  0
  1 37  1  0
  1 38  1  0
  6 39  1  0
  7 40  1  0
  8 41  1  0
 13 42  1  0
 14 43  1  0
 21 44  1  0
 21 45  1  0
 22 46  1  0
 22 47  1  0
 23 48  1  0
 25 49  1  0
 26 50  1  0
 29 51  1  0
 30 52  1  0
 31 53  1  0
 31 54  1  0
 32 55  1  0
 32 56  1  0
 33 57  1  0
M  CHG  2   2  -1  10  -1
M  END
>  <UniqueID>  (71) 
64

>  <SMILES>  (71) 
C[N-]C(=O)c1cccc2[n-]c(-c3ccc(F)c(C(=O)N4CCC(c5ccc(F)cc5)CC4)c3)nc12

>  <Energy>  (71) 
111.13820020423067

>  <Genealogy>  (71) 
C[N-]C(=O)c1cccc2[n-]c(-c3ccc(F)c(C(=O)N4CCC(c5ccc(F)cc5)CC4)c3)nc12 (protonated)
C[N-]C(=O)c1cccc2[n-]c(-c3ccc(F)c(C(=O)N4CCC(c5ccc(F)cc5)CC4)c3)nc12 (3D coordinates assigned)
C[N-]C(=O)c1cccc2[n-]c(-c3ccc(F)c(C(=O)N4CCC(c5ccc(F)cc5)CC4)c3)nc12 (nonaromatic ring conformer: 111.13820020423067 kcal/mol)

>  <smiles>  (71) 
CNC(=O)c1cccc2[nH]c(-c3ccc(F)c(C(=O)N4CCC(c5ccc(F)cc5)CC4)c3)nc12

>  <score_type>  (71) 
oracle

>  <origin>  (71) 
adg

>  <m_score__min__energy>  (71) 
-14.1

>  <m_primary>  (71) 
energy

$$$$
71:0
     RDKit          3D

 26 27  0  0  0  0  0  0  0  0999 V2000
   59.4930   28.6970   46.1350 C   0  0  0  0  0  0  0  0  0  0  0  0
   58.2510   28.6810   45.6390 C   0  0  0  0  0  0  0  0  0  0  0  0
   57.7480   29.6690   44.8090 C   0  0  0  0  0  0  0  0  0  0  0  0
   56.4160   29.3720   44.6180 C   0  0  0  0  0  0  0  0  0  0  0  0
   55.4750   30.1390   43.7460 C   0  0  0  0  0  0  0  0  0  0  0  0
   56.0850   28.2380   45.2620 N   0  0  0  0  0  0  0  0  0  0  0  0
   57.1960   27.7860   45.8830 C   0  0  0  0  0  0  0  0  0  0  0  0
   57.1840   26.6360   46.5870 C   0  0  0  0  0  0  0  0  0  0  0  0
   56.6140   25.3540   46.1320 C   0  0  0  0  0  0  0  0  0  0  0  0
   55.2410   25.2280   45.8590 C   0  0  0  0  0  0  0  0  0  0  0  0
   54.3930   26.3240   45.9760 O   0  0  0  0  0  0  0  0  0  0  0  0
   54.7320   24.0230   45.4800 N   0  0  0  0  0  0  0  0  0  0  0  0
   55.5320   22.9280   45.3820 C   0  0  0  0  0  0  0  0  0  0  0  0
   55.0490   21.8200   45.0290 O   0  0  0  0  0  0  0  0  0  0  0  0
   56.8570   23.0230   45.6680 N   0  0  0  0  0  0  0  0  0  0  0  0
   57.4110   24.2040   46.0460 C   0  0  0  0  0  0  0  0  0  0  0  0
   58.6410   24.2540   46.3120 O   0  0  0  0  0  0  0  0  0  0  0  0
   59.8343   27.8817   46.7898 H   0  0  0  0  0  0  0  0  0  0  0  0
   60.1732   29.5255   45.8881 H   0  0  0  0  0  0  0  0  0  0  0  0
   58.3013   30.5207   44.3866 H   0  0  0  0  0  0  0  0  0  0  0  0
   54.7752   30.7094   44.3744 H   0  0  0  0  0  0  0  0  0  0  0  0
   56.0461   30.8322   43.1109 H   0  0  0  0  0  0  0  0  0  0  0  0
   54.9112   29.4398   43.1109 H   0  0  0  0  0  0  0  0  0  0  0  0
   55.1450   27.7810   45.2540 H   0  0  0  0  0  0  0  0  0  0  0  0
   57.6391   26.6557   47.5882 H   0  0  0  0  0  0  0  0  0  0  0  0
   53.7120   23.9420   45.2690 H   0  0  0  0  0  0  0  0  0  0  0  0
  1  2  2  0
  2  3  1  0
  3  4  2  0
  4  5  1  0
  4  6  1  0
  6  7  1  0
  7  8  2  3
  8  9  1  0
  9 10  2  0
 10 11  1  0
 10 12  1  0
 12 13  1  0
 13 14  2  0
 13 15  1  0
 15 16  1  0
 16 17  2  0
  7  2  1  0
 16  9  1  0
  1 18  1  0
  1 19  1  0
  3 20  1  0
  5 21  1  0
  5 22  1  0
  5 23  1  0
  6 24  1  0
  8 25  1  0
 12 26  1  0
M  CHG  2  11  -1  15  -1
M  END
>  <UniqueID>  (72) 
65

>  <SMILES>  (72) 
C=c1cc(C)[nH]c1=Cc1c([O-])[nH]c(=O)[n-]c1=O

>  <Energy>  (72) 
66.11668606055633

>  <Genealogy>  (72) 
C=c1cc(C)[nH]c1=Cc1c([O-])[nH]c(=O)[n-]c1=O (protonated)
C=c1cc(C)[nH]c1=Cc1c([O-])[nH]c(=O)[n-]c1=O (3D coordinates assigned)
C=c1cc(C)[nH]c1=Cc1c([O-])[nH]c(=O)[n-]c1=O (optimized conformer: 66.11668606055633 kcal/mol)

>  <smiles>  (72) 
C=c1cc(C)[nH]c1=Cc1c(O)[nH]c(=O)[nH]c1=O

>  <score_type>  (72) 
oracle

>  <origin>  (72) 
adg

>  <m_score__min__energy>  (72) 
-11.74

>  <m_primary>  (72) 
energy

$$$$
72:0
     RDKit          3D

 41 43  0  0  0  0  0  0  0  0999 V2000
   57.0890   20.1940   44.8130 N   0  0  0  0  0  0  0  0  0  0  0  0
   56.4460   21.7080   44.2820 S   0  0  0  0  0  0  0  0  0  0  0  0
   55.0880   21.9240   44.8910 O   0  0  0  0  0  0  0  0  0  0  0  0
   56.3060   21.6940   42.7860 O   0  0  0  0  0  0  0  0  0  0  0  0
   57.5270   23.0070   44.7720 C   0  0  0  0  0  0  0  0  0  0  0  0
   58.7740   22.7150   45.3410 C   0  0  0  0  0  0  0  0  0  0  0  0
   59.6230   23.7490   45.7410 C   0  0  0  0  0  0  0  0  0  0  0  0
   59.2320   25.0810   45.5780 C   0  0  0  0  0  0  0  0  0  0  0  0
   57.9850   25.3910   45.0100 C   0  0  0  0  0  0  0  0  0  0  0  0
   57.5560   26.8040   44.8510 C   0  0  0  0  0  0  0  0  0  0  0  0
   56.6430   27.3710   45.7500 C   0  0  0  0  0  0  0  0  0  0  0  0
   56.2600   28.6660   45.6110 N   0  0  0  0  0  0  0  0  0  0  0  0
   56.7420   29.4380   44.6040 C   0  0  0  0  0  0  0  0  0  0  0  0
   56.3550   30.6750   44.5100 N   0  0  0  0  0  0  0  0  0  0  0  0
   57.2390   31.8180   44.2770 C   0  0  0  0  0  0  0  0  0  0  0  0
   58.5520   31.6840   45.0600 C   0  0  0  0  0  0  0  0  0  0  0  0
   58.9040   32.9630   45.7740 C   0  0  0  0  0  0  0  0  0  0  0  0
   58.9150   33.0120   47.1760 C   0  0  0  0  0  0  0  0  0  0  0  0
   59.2730   34.1990   47.8200 C   0  0  0  0  0  0  0  0  0  0  0  0
   59.6180   35.2930   47.0910 N   0  0  0  0  0  0  0  0  0  0  0  0
   59.6250   35.2710   45.7320 C   0  0  0  0  0  0  0  0  0  0  0  0
   59.2730   34.1060   45.0470 C   0  0  0  0  0  0  0  0  0  0  0  0
   57.6200   28.9070   43.7100 N   0  0  0  0  0  0  0  0  0  0  0  0
   58.0340   27.6180   43.8060 C   0  0  0  0  0  0  0  0  0  0  0  0
   58.8300   27.1620   42.9430 O   0  0  0  0  0  0  0  0  0  0  0  0
   57.1320   24.3440   44.6170 C   0  0  0  0  0  0  0  0  0  0  0  0
   56.8820   19.4960   44.0640 H   0  0  0  0  0  0  0  0  0  0  0  0
   58.1280   20.3000   44.8480 H   0  0  0  0  0  0  0  0  0  0  0  0
   59.0849   21.6681   45.4729 H   0  0  0  0  0  0  0  0  0  0  0  0
   60.6016   23.5147   46.1853 H   0  0  0  0  0  0  0  0  0  0  0  0
   59.9045   25.8912   45.8963 H   0  0  0  0  0  0  0  0  0  0  0  0
   56.2349   26.7643   46.5718 H   0  0  0  0  0  0  0  0  0  0  0  0
   57.4683   31.8791   43.2029 H   0  0  0  0  0  0  0  0  0  0  0  0
   56.7242   32.7274   44.6206 H   0  0  0  0  0  0  0  0  0  0  0  0
   58.4449   30.8788   45.8017 H   0  0  0  0  0  0  0  0  0  0  0  0
   59.3570   31.4554   44.3460 H   0  0  0  0  0  0  0  0  0  0  0  0
   58.6438   32.1226   47.7638 H   0  0  0  0  0  0  0  0  0  0  0  0
   59.2757   34.2483   48.9189 H   0  0  0  0  0  0  0  0  0  0  0  0
   59.9087   36.1732   45.1702 H   0  0  0  0  0  0  0  0  0  0  0  0
   59.2848   34.0841   43.9473 H   0  0  0  0  0  0  0  0  0  0  0  0
   56.1474   24.5755   44.1847 H   0  0  0  0  0  0  0  0  0  0  0  0
  1  2  1  0
  2  3  2  0
  2  4  2  0
  2  5  1  0
  5  6  2  0
  6  7  1  0
  7  8  2  0
  8  9  1  0
  9 10  1  0
 10 11  2  0
 11 12  1  0
 12 13  1  0
 13 14  2  3
 14 15  1  0
 15 16  1  0
 16 17  1  0
 17 18  2  0
 18 19  1  0
 19 20  2  0
 20 21  1  0
 21 22  2  0
 13 23  1  0
 23 24  1  0
 24 25  2  0
  9 26  2  0
 26  5  1  0
 24 10  1  0
 22 17  1  0
  1 27  1  0
  1 28  1  0
  6 29  1  0
  7 30  1  0
  8 31  1  0
 11 32  1  0
 15 33  1  0
 15 34  1  0
 16 35  1  0
 16 36  1  0
 18 37  1  0
 19 38  1  0
 21 39  1  0
 22 40  1  0
 26 41  1  0
M  CHG  2  12  -1  23  -1
M  END
>  <UniqueID>  (73) 
66

>  <SMILES>  (73) 
NS(=O)(=O)c1cccc(-c2c[n-]c(=NCCc3ccncc3)[n-]c2=O)c1

>  <Energy>  (73) 
48.09240144499402

>  <Genealogy>  (73) 
NS(=O)(=O)c1cccc(-c2c[n-]c(=NCCc3ccncc3)[n-]c2=O)c1 (protonated)
NS(=O)(=O)c1cccc(-c2c[n-]c(=NCCc3ccncc3)[n-]c2=O)c1 (3D coordinates assigned)
NS(=O)(=O)c1cccc(-c2c[n-]c(=NCCc3ccncc3)[n-]c2=O)c1 (optimized conformer: 48.09240144499402 kcal/mol)

>  <smiles>  (73) 
NS(=O)(=O)c1cccc(-c2c[nH]c(=NCCc3ccncc3)[nH]c2=O)c1

>  <score_type>  (73) 
oracle

>  <origin>  (73) 
adg

>  <m_score__min__energy>  (73) 
-12.1

>  <m_primary>  (73) 
energy

$$$$
73:0
     RDKit          3D

 24 25  0  0  0  0  0  0  0  0999 V2000
   58.7840   26.7990   45.5250 C   0  0  0  0  0  0  0  0  0  0  0  0
   58.0620   27.8820   45.2530 C   0  0  0  0  0  0  0  0  0  0  0  0
   56.6400   27.9350   45.3490 N   0  0  0  0  0  0  0  0  0  0  0  0
   56.3320   29.2740   44.9500 C   0  0  0  0  0  0  0  0  0  0  0  0
   55.1520   29.7040   44.8720 O   0  0  0  0  0  0  0  0  0  0  0  0
   57.4780   30.0680   44.6400 N   0  0  0  0  0  0  0  0  0  0  0  0
   57.4920   31.3210   43.8880 C   0  0  0  0  0  0  0  0  0  0  0  0
   57.9370   32.4530   44.7710 C   0  0  0  0  0  0  0  0  0  0  0  0
   58.5770   33.5760   44.2180 C   0  0  0  0  0  0  0  0  0  0  0  0
   59.0240   34.6100   45.0450 C   0  0  0  0  0  0  0  0  0  0  0  0
   58.8440   34.5290   46.4290 C   0  0  0  0  0  0  0  0  0  0  0  0
   58.2180   33.4130   46.9870 C   0  0  0  0  0  0  0  0  0  0  0  0
   57.7690   32.3750   46.1640 C   0  0  0  0  0  0  0  0  0  0  0  0
   58.5660   29.1720   44.8080 C   0  0  0  0  0  0  0  0  0  0  0  0
   59.7710   29.4620   44.5810 O   0  0  0  0  0  0  0  0  0  0  0  0
   59.8794   26.8299   45.4293 H   0  0  0  0  0  0  0  0  0  0  0  0
   58.2859   25.8722   45.8458 H   0  0  0  0  0  0  0  0  0  0  0  0
   58.1861   31.2277   43.0398 H   0  0  0  0  0  0  0  0  0  0  0  0
   56.4762   31.5304   43.5216 H   0  0  0  0  0  0  0  0  0  0  0  0
   58.7265   33.6410   43.1301 H   0  0  0  0  0  0  0  0  0  0  0  0
   59.5184   35.4892   44.6062 H   0  0  0  0  0  0  0  0  0  0  0  0
   59.1956   35.3445   47.0781 H   0  0  0  0  0  0  0  0  0  0  0  0
   58.0775   33.3498   48.0762 H   0  0  0  0  0  0  0  0  0  0  0  0
   57.2826   31.4944   46.6088 H   0  0  0  0  0  0  0  0  0  0  0  0
  1  2  2  0
  2  3  1  0
  3  4  1  0
  4  5  2  0
  4  6  1  0
  6  7  1  0
  7  8  1  0
  8  9  2  0
  9 10  1  0
 10 11  2  0
 11 12  1  0
 12 13  2  0
  6 14  1  0
 14 15  2  0
 14  2  1  0
 13  8  1  0
  1 16  1  0
  1 17  1  0
  7 18  1  0
  7 19  1  0
  9 20  1  0
 10 21  1  0
 11 22  1  0
 12 23  1  0
 13 24  1  0
M  CHG  1   3  -1
M  END
>  <UniqueID>  (74) 
67

>  <SMILES>  (74) 
C=C1[N-]C(=O)N(Cc2ccccc2)C1=O

>  <Energy>  (74) 
48.57775832075621

>  <Genealogy>  (74) 
C=C1[N-]C(=O)N(Cc2ccccc2)C1=O (protonated)
C=C1[N-]C(=O)N(Cc2ccccc2)C1=O (3D coordinates assigned)
C=C1[N-]C(=O)N(Cc2ccccc2)C1=O (nonaromatic ring conformer: 48.57775832075621 kcal/mol)

>  <smiles>  (74) 
C=C1NC(=O)N(Cc2ccccc2)C1=O

>  <score_type>  (74) 
oracle

>  <origin>  (74) 
adg

>  <m_score__min__energy>  (74) 
-7.8099999999999996

>  <m_primary>  (74) 
energy

$$$$
74:0
     RDKit          3D

 68 71  0  0  0  0  0  0  0  0999 V2000
   58.3260   34.9970   52.0130 H   0  0  0  0  0  0  0  0  0  0  0  0
   58.8900   34.6740   51.2670 O   0  0  0  0  0  0  0  0  0  0  0  0
   59.5050   33.4680   51.6610 C   0  0  2  0  0  0  0  0  0  0  0  0
   60.4204   33.7455   52.2042 H   0  0  0  0  0  0  0  0  0  0  0  0
   59.9330   32.6010   50.4460 C   0  0  2  0  0  0  0  0  0  0  0  0
   60.9028   32.1526   50.7074 H   0  0  0  0  0  0  0  0  0  0  0  0
   60.1140   33.3860   49.2910 O   0  0  0  0  0  0  0  0  0  0  0  0
   59.6540   34.2530   49.4400 H   0  0  0  0  0  0  0  0  0  0  0  0
   58.9500   31.4260   50.1780 C   0  0  1  0  0  0  0  0  0  0  0  0
   59.0158   31.1852   49.1067 H   0  0  0  0  0  0  0  0  0  0  0  0
   59.3160   30.2590   50.9230 O   0  0  0  0  0  0  0  0  0  0  0  0
   59.8320   29.0650   50.3950 C   0  0  0  0  0  0  0  0  0  0  0  0
   59.5600   28.6360   49.0790 C   0  0  0  0  0  0  0  0  0  0  0  0
   58.9520   29.2671   48.4141 H   0  0  0  0  0  0  0  0  0  0  0  0
   60.0590   27.4100   48.6110 C   0  0  0  0  0  0  0  0  0  0  0  0
   59.7440   26.9500   47.2380 C   0  0  0  0  0  0  0  0  0  0  0  0
   60.5060   26.1170   46.6750 O   0  0  0  0  0  0  0  0  0  0  0  0
   58.5810   27.4890   46.4900 C   0  0  0  0  0  0  0  0  0  0  0  0
   57.3570   26.8000   46.5710 C   0  0  0  0  0  0  0  0  0  0  0  0
   57.3001   25.8572   47.1349 H   0  0  0  0  0  0  0  0  0  0  0  0
   56.2140   27.2990   45.9440 C   0  0  0  0  0  0  0  0  0  0  0  0
   55.0110   26.6090   46.0490 O   0  0  0  0  0  0  0  0  0  0  0  0
   56.2800   28.4870   45.2180 C   0  0  0  0  0  0  0  0  0  0  0  0
   55.1450   28.9850   44.5880 O   0  0  0  0  0  0  0  0  0  0  0  0
   57.4880   29.1800   45.1190 C   0  0  0  0  0  0  0  0  0  0  0  0
   57.5340   30.1108   44.5346 H   0  0  0  0  0  0  0  0  0  0  0  0
   58.6480   28.7020   45.7580 C   0  0  0  0  0  0  0  0  0  0  0  0
   59.9260   29.4380   45.5680 C   0  0  0  0  0  0  0  0  0  0  0  0
   60.5760   29.2700   44.5020 O   0  0  0  0  0  0  0  0  0  0  0  0
   60.4470   30.4050   46.5600 C   0  0  0  0  0  0  0  0  0  0  0  0
   61.5013   30.3330   46.8655 H   0  0  0  0  0  0  0  0  0  0  0  0
   59.6830   31.3660   47.1010 C   0  0  0  0  0  0  0  0  0  0  0  0
   59.4838   31.3120   48.1815 H   0  0  0  0  0  0  0  0  0  0  0  0
   59.0860   32.4990   46.3450 C   0  0  0  0  0  0  0  0  0  0  0  0
   57.7440   32.3880   45.9310 C   0  0  0  0  0  0  0  0  0  0  0  0
   57.1700   31.4840   46.1827 H   0  0  0  0  0  0  0  0  0  0  0  0
   57.1340   33.4140   45.2040 C   0  0  0  0  0  0  0  0  0  0  0  0
   56.0854   33.3143   44.8868 H   0  0  0  0  0  0  0  0  0  0  0  0
   57.8540   34.5650   44.8800 C   0  0  0  0  0  0  0  0  0  0  0  0
   57.3734   35.3712   44.3063 H   0  0  0  0  0  0  0  0  0  0  0  0
   59.1840   34.6930   45.2840 C   0  0  0  0  0  0  0  0  0  0  0  0
   59.7506   35.5992   45.0239 H   0  0  0  0  0  0  0  0  0  0  0  0
   59.7990   33.6740   46.0180 C   0  0  0  0  0  0  0  0  0  0  0  0
   60.8438   33.7879   46.3426 H   0  0  0  0  0  0  0  0  0  0  0  0
   60.8620   26.6290   49.4560 C   0  0  0  0  0  0  0  0  0  0  0  0
   61.2647   25.6710   49.0954 H   0  0  0  0  0  0  0  0  0  0  0  0
   61.1530   27.0600   50.7510 C   0  0  0  0  0  0  0  0  0  0  0  0
   61.7985   26.4485   51.3986 H   0  0  0  0  0  0  0  0  0  0  0  0
   60.6270   28.2690   51.2320 C   0  0  0  0  0  0  0  0  0  0  0  0
   60.9120   28.7320   52.5270 O   0  0  0  0  0  0  0  0  0  0  0  0
   59.9530   29.1200   53.4690 C   0  0  0  0  0  0  0  0  0  0  0  0
   58.7260   28.8900   53.2810 O   0  0  0  0  0  0  0  0  0  0  0  0
   60.3900   29.8670   54.6850 C   0  0  0  0  0  0  0  0  0  0  0  0
   60.0707   29.3212   55.5851 H   0  0  0  0  0  0  0  0  0  0  0  0
   61.4859   29.9617   54.6831 H   0  0  0  0  0  0  0  0  0  0  0  0
   59.9355   30.8687   54.6831 H   0  0  0  0  0  0  0  0  0  0  0  0
   57.6120   31.7970   50.4710 O   0  0  0  0  0  0  0  0  0  0  0  0
   57.3760   32.0800   51.8500 C   0  0  1  0  0  0  0  0  0  0  0  0
   56.6398   32.8970   51.8739 H   0  0  0  0  0  0  0  0  0  0  0  0
   56.7770   30.8520   52.5520 C   0  0  0  0  0  0  0  0  0  0  0  0
   57.3024   30.6840   53.5037 H   0  0  0  0  0  0  0  0  0  0  0  0
   55.7084   31.0302   52.7424 H   0  0  0  0  0  0  0  0  0  0  0  0
   56.9170   29.7190   51.7380 O   0  0  0  0  0  0  0  0  0  0  0  0
   57.8510   29.7300   51.4090 H   0  0  0  0  0  0  0  0  0  0  0  0
   58.6030   32.6620   52.6150 C   0  0  2  0  0  0  0  0  0  0  0  0
   59.1936   31.8297   53.0254 H   0  0  0  0  0  0  0  0  0  0  0  0
   58.1580   33.4780   53.6680 O   0  0  0  0  0  0  0  0  0  0  0  0
   58.2510   34.4180   53.3610 H   0  0  0  0  0  0  0  0  0  0  0  0
  1  2  1  0
  2  3  1  0
  3  4  1  1
  3  5  1  0
  5  6  1  1
  5  7  1  0
  7  8  1  0
  5  9  1  0
  9 10  1  6
  9 11  1  0
 11 12  1  0
 12 13  2  0
 13 14  1  0
 13 15  1  0
 15 16  1  0
 16 17  2  0
 16 18  1  0
 18 19  2  0
 19 20  1  0
 19 21  1  0
 21 22  1  0
 21 23  2  0
 23 24  1  0
 23 25  1  0
 25 26  1  0
 25 27  2  0
 27 28  1  0
 28 29  2  0
 28 30  1  0
 30 31  1  0
 30 32  2  0
 32 33  1  0
 32 34  1  0
 34 35  2  0
 35 36  1  0
 35 37  1  0
 37 38  1  0
 37 39  2  0
 39 40  1  0
 39 41  1  0
 41 42  1  0
 41 43  2  0
 43 44  1  0
 15 45  2  0
 45 46  1  0
 45 47  1  0
 47 48  1  0
 47 49  2  0
 49 50  1  0
 50 51  1  0
 51 52  2  0
 51 53  1  0
 53 54  1  0
 53 55  1  0
 53 56  1  0
  9 57  1  0
 57 58  1  0
 58 59  1  6
 58 60  1  0
 60 61  1  0
 60 62  1  0
 60 63  1  0
 63 64  1  0
 58 65  1  0
 65 66  1  1
 65 67  1  0
 67 68  1  0
 65  3  1  0
 49 12  1  0
 27 18  1  0
 43 34  1  0
M  CHG  2  22  -1  24  -1
M  END
>  <UniqueID>  (75) 
68

>  <SMILES>  (75) 
CC(=O)Oc1ccc(C(=O)c2cc([O-])c([O-])cc2C(=O)/C=C/c2ccccc2)cc1O[C@H]1O[C@@H](CO)C(O)C(O)C1O

>  <Energy>  (75) 
105.34608380808122

>  <Genealogy>  (75) 
CC(=O)Oc1ccc(C(=O)c2cc([O-])c([O-])cc2C(=O)C=Cc2ccccc2)cc1OC1OC(CO)C(O)C(O)C1O (protonated)
CC(=O)Oc1ccc(C(=O)c2cc([O-])c([O-])cc2C(=O)C=Cc2ccccc2)cc1O[C@H]1O[C@@H](CO)C(O)C(O)C1O (chirality)
CC(=O)Oc1ccc(C(=O)c2cc([O-])c([O-])cc2C(=O)/C=C/c2ccccc2)cc1O[C@H]1O[C@@H](CO)C(O)C(O)C1O (cis-trans isomerization)
CC(=O)Oc1ccc(C(=O)c2cc([O-])c([O-])cc2C(=O)/C=C/c2ccccc2)cc1O[C@H]1O[C@@H](CO)C(O)C(O)C1O (3D coordinates assigned)
CC(=O)Oc1ccc(C(=O)c2cc([O-])c([O-])cc2C(=O)/C=C/c2ccccc2)cc1O[C@H]1O[C@@H](CO)C(O)C(O)C1O (nonaromatic ring conformer: 105.34608380808122 kcal/mol)

>  <smiles>  (75) 
CC(=O)Oc1ccc(C(=O)c2cc(O)c(O)cc2C(=O)C=Cc2ccccc2)cc1OC1OC(CO)C(O)C(O)C1O

>  <score_type>  (75) 
oracle

>  <origin>  (75) 
adg

>  <m_score__min__energy>  (75) 
-14.720000000000001

>  <m_primary>  (75) 
energy

$$$$
75:0
     RDKit          3D

 37 38  0  0  0  0  0  0  0  0999 V2000
   57.7990   32.4510   41.0220 C   0  0  0  0  0  0  0  0  0  0  0  0
   57.7250   32.1350   42.4870 C   0  0  0  0  0  0  0  0  0  0  0  0
   58.1780   33.0660   43.4330 C   0  0  0  0  0  0  0  0  0  0  0  0
   58.0670   32.7980   44.8050 C   0  0  0  0  0  0  0  0  0  0  0  0
   58.5920   33.7790   45.8100 C   0  0  0  0  0  0  0  0  0  0  0  0
   57.5120   31.5820   45.2280 C   0  0  0  0  0  0  0  0  0  0  0  0
   57.0130   30.6640   44.2930 C   0  0  0  0  0  0  0  0  0  0  0  0
   56.3940   29.4010   44.7360 C   0  0  0  0  0  0  0  0  0  0  0  0
   55.1440   29.3490   44.8810 O   0  0  0  0  0  0  0  0  0  0  0  0
   57.1700   28.2260   45.0080 N   0  0  0  0  0  0  0  0  0  0  0  0
   57.1910   27.4950   46.2740 C   0  0  0  0  0  0  0  0  0  0  0  0
   56.4500   26.1890   46.1670 C   0  0  0  0  0  0  0  0  0  0  0  0
   55.2010   26.1820   45.9930 O   0  0  0  0  0  0  0  0  0  0  0  0
   57.1740   24.9550   46.0650 N   0  0  0  0  0  0  0  0  0  0  0  0
   57.0690   24.0660   45.1160 C   0  0  0  0  0  0  0  0  0  0  0  0
   57.8040   22.8630   45.1330 C   0  0  0  0  0  0  0  0  0  0  0  0
   57.6540   21.9470   44.0920 C   0  0  0  0  0  0  0  0  0  0  0  0
   56.7700   22.2210   43.0490 C   0  0  0  0  0  0  0  0  0  0  0  0
   56.0410   23.4100   43.0680 C   0  0  0  0  0  0  0  0  0  0  0  0
   56.1980   24.2950   44.0900 N   0  0  0  0  0  0  0  0  0  0  0  0
   57.1340   30.9390   42.9220 C   0  0  0  0  0  0  0  0  0  0  0  0
   58.0480   33.5141   40.8883 H   0  0  0  0  0  0  0  0  0  0  0  0
   58.5761   31.8305   40.5519 H   0  0  0  0  0  0  0  0  0  0  0  0
   56.8272   32.2401   40.5519 H   0  0  0  0  0  0  0  0  0  0  0  0
   58.6237   34.0136   43.0962 H   0  0  0  0  0  0  0  0  0  0  0  0
   58.3924   33.4060   46.8254 H   0  0  0  0  0  0  0  0  0  0  0  0
   59.6763   33.9016   45.6710 H   0  0  0  0  0  0  0  0  0  0  0  0
   58.0925   34.7491   45.6710 H   0  0  0  0  0  0  0  0  0  0  0  0
   57.4677   31.3463   46.3015 H   0  0  0  0  0  0  0  0  0  0  0  0
   58.2356   27.2919   46.5526 H   0  0  0  0  0  0  0  0  0  0  0  0
   56.6958   28.1122   47.0382 H   0  0  0  0  0  0  0  0  0  0  0  0
   58.4926   22.6478   45.9634 H   0  0  0  0  0  0  0  0  0  0  0  0
   58.2316   21.0108   44.0938 H   0  0  0  0  0  0  0  0  0  0  0  0
   56.6489   21.5075   42.2206 H   0  0  0  0  0  0  0  0  0  0  0  0
   55.3362   23.6334   42.2535 H   0  0  0  0  0  0  0  0  0  0  0  0
   55.6370   25.1780   44.0760 H   0  0  0  0  0  0  0  0  0  0  0  0
   56.7632   30.2125   42.1840 H   0  0  0  0  0  0  0  0  0  0  0  0
  1  2  1  0
  2  3  2  0
  3  4  1  0
  4  5  1  0
  4  6  2  0
  6  7  1  0
  7  8  1  0
  8  9  2  0
  8 10  1  0
 10 11  1  0
 11 12  1  0
 12 13  2  0
 12 14  1  0
 14 15  2  3
 15 16  1  0
 16 17  2  0
 17 18  1  0
 18 19  2  0
 19 20  1  0
  7 21  2  0
 21  2  1  0
 20 15  1  0
  1 22  1  0
  1 23  1  0
  1 24  1  0
  3 25  1  0
  5 26  1  0
  5 27  1  0
  5 28  1  0
  6 29  1  0
 11 30  1  0
 11 31  1  0
 16 32  1  0
 17 33  1  0
 18 34  1  0
 19 35  1  0
 20 36  1  0
 21 37  1  0
M  CHG  1  10  -1
M  END
>  <UniqueID>  (76) 
69

>  <SMILES>  (76) 
Cc1cc(C)cc(C(=O)[N-]CC(=O)N=c2cccc[nH]2)c1

>  <Energy>  (76) 
47.93745352041345

>  <Genealogy>  (76) 
Cc1cc(C)cc(C(=O)[N-]CC(=O)N=c2cccc[nH]2)c1 (protonated)
Cc1cc(C)cc(C(=O)[N-]CC(=O)N=c2cccc[nH]2)c1 (3D coordinates assigned)
Cc1cc(C)cc(C(=O)[N-]CC(=O)N=c2cccc[nH]2)c1 (optimized conformer: 47.93745352041345 kcal/mol)

>  <smiles>  (76) 
Cc1cc(C)cc(C(=O)NCC(=O)N=c2cccc[nH]2)c1

>  <score_type>  (76) 
oracle

>  <origin>  (76) 
adg

>  <m_score__min__energy>  (76) 
-9.6600000000000001

>  <m_primary>  (76) 
energy

$$$$
76:0
     RDKit          3D

 67 71  0  0  0  0  0  0  0  0999 V2000
   61.0440   29.2600   49.7800 O   0  0  0  0  0  0  0  0  0  0  0  0
   60.3500   29.7770   48.8620 C   0  0  0  0  0  0  0  0  0  0  0  0
   60.7820   29.6460   47.4230 C   0  0  0  0  0  0  0  0  0  0  0  0
   60.9690   31.0030   46.7340 C   0  0  0  0  0  0  0  0  0  0  0  0
   61.9700   31.8290   47.4790 C   0  0  0  0  0  0  0  0  0  0  0  0
   62.0060   31.9300   48.8240 N   0  0  0  0  0  0  0  0  0  0  0  0
   62.9470   32.8140   49.2580 C   0  0  0  0  0  0  0  0  0  0  0  0
   63.1580   33.0980   50.6900 C   0  0  0  0  0  0  0  0  0  0  0  0
   63.2440   34.2940   51.0810 O   0  0  0  0  0  0  0  0  0  0  0  0
   63.2320   32.0320   51.6480 N   0  0  0  0  0  0  0  0  0  0  0  0
   64.1880   30.9320   51.4620 C   0  0  0  0  0  0  0  0  0  0  0  0
   63.5280   29.5830   51.7920 C   0  0  0  0  0  0  0  0  0  0  0  0
   62.5960   29.6930   52.9290 N   0  0  0  0  0  0  0  0  0  0  0  0
   61.4570   28.8110   53.0170 C   0  0  0  0  0  0  0  0  0  0  0  0
   60.3750   29.2340   53.5120 O   0  0  0  0  0  0  0  0  0  0  0  0
   61.4990   27.4280   52.5040 C   0  0  0  0  0  0  0  0  0  0  0  0
   62.2620   26.4080   53.0410 C   0  0  0  0  0  0  0  0  0  0  0  0
   62.0220   25.2930   52.2620 C   0  0  0  0  0  0  0  0  0  0  0  0
   61.1390   25.6840   51.2760 C   0  0  0  0  0  0  0  0  0  0  0  0
   60.8280   26.9850   51.4230 N   0  0  0  0  0  0  0  0  0  0  0  0
   62.6610   30.8950   53.7720 C   0  0  0  0  0  0  0  0  0  0  0  0
   62.4660   32.1390   52.8980 C   0  0  0  0  0  0  0  0  0  0  0  0
   63.6540   33.4530   48.2390 C   0  0  0  0  0  0  0  0  0  0  0  0
   63.0810   32.8700   46.7680 S   0  0  0  0  0  0  0  0  0  0  0  0
   59.2240   30.5830   49.2290 N   0  0  0  0  0  0  0  0  0  0  0  0
   59.2330   31.5910   50.2460 C   0  0  0  0  0  0  0  0  0  0  0  0
   59.2120   31.1890   51.5870 C   0  0  0  0  0  0  0  0  0  0  0  0
   59.2450   32.1370   52.6100 C   0  0  0  0  0  0  0  0  0  0  0  0
   59.2860   33.4960   52.3020 C   0  0  0  0  0  0  0  0  0  0  0  0
   59.2760   33.9120   50.9680 C   0  0  0  0  0  0  0  0  0  0  0  0
   59.2320   32.9700   49.9260 C   0  0  0  0  0  0  0  0  0  0  0  0
   59.1580   33.4160   48.5560 N   0  0  0  0  0  0  0  0  0  0  0  0
   58.0170   33.0170   47.7270 C   0  0  0  0  0  0  0  0  0  0  0  0
   58.4200   33.0570   46.2510 C   0  0  0  0  0  0  0  0  0  0  0  0
   58.9510   34.3250   45.9160 O   0  0  0  0  0  0  0  0  0  0  0  0
   60.1630   34.5380   46.6170 C   0  0  0  0  0  0  0  0  0  0  0  0
   59.9180   34.5950   48.1290 C   0  0  0  0  0  0  0  0  0  0  0  0
   61.7368   29.1007   47.3907 H   0  0  0  0  0  0  0  0  0  0  0  0
   59.9871   29.1080   46.8857 H   0  0  0  0  0  0  0  0  0  0  0  0
   61.3245   30.8421   45.7055 H   0  0  0  0  0  0  0  0  0  0  0  0
   60.0056   31.5337   46.7205 H   0  0  0  0  0  0  0  0  0  0  0  0
   61.3530   31.4130   49.4530 H   0  0  0  0  0  0  0  0  0  0  0  0
   64.5291   30.9219   50.4163 H   0  0  0  0  0  0  0  0  0  0  0  0
   65.0421   31.0849   52.1381 H   0  0  0  0  0  0  0  0  0  0  0  0
   62.9729   29.2328   50.9092 H   0  0  0  0  0  0  0  0  0  0  0  0
   64.3213   28.8726   52.0677 H   0  0  0  0  0  0  0  0  0  0  0  0
   62.9275   26.4717   53.9145 H   0  0  0  0  0  0  0  0  0  0  0  0
   62.4508   24.2895   52.4004 H   0  0  0  0  0  0  0  0  0  0  0  0
   60.7466   25.0278   50.4852 H   0  0  0  0  0  0  0  0  0  0  0  0
   60.2200   27.5420   50.7830 H   0  0  0  0  0  0  0  0  0  0  0  0
   61.8681   30.8530   54.5333 H   0  0  0  0  0  0  0  0  0  0  0  0
   63.6414   30.9439   54.2684 H   0  0  0  0  0  0  0  0  0  0  0  0
   61.3980   32.2451   52.6571 H   0  0  0  0  0  0  0  0  0  0  0  0
   62.8256   33.0171   53.4544 H   0  0  0  0  0  0  0  0  0  0  0  0
   64.4457   34.2047   48.3733 H   0  0  0  0  0  0  0  0  0  0  0  0
   59.1692   30.1183   51.8357 H   0  0  0  0  0  0  0  0  0  0  0  0
   59.2387   31.8118   53.6608 H   0  0  0  0  0  0  0  0  0  0  0  0
   59.3263   34.2415   53.1098 H   0  0  0  0  0  0  0  0  0  0  0  0
   59.3028   34.9859   50.7315 H   0  0  0  0  0  0  0  0  0  0  0  0
   57.7082   31.9959   47.9952 H   0  0  0  0  0  0  0  0  0  0  0  0
   57.1799   33.7099   47.8974 H   0  0  0  0  0  0  0  0  0  0  0  0
   59.1805   32.2849   46.0624 H   0  0  0  0  0  0  0  0  0  0  0  0
   57.5287   32.8705   45.6339 H   0  0  0  0  0  0  0  0  0  0  0  0
   60.8568   33.7136   46.3955 H   0  0  0  0  0  0  0  0  0  0  0  0
   60.5915   35.4983   46.2941 H   0  0  0  0  0  0  0  0  0  0  0  0
   60.8841   34.6162   48.6545 H   0  0  0  0  0  0  0  0  0  0  0  0
   59.3442   35.5023   48.3690 H   0  0  0  0  0  0  0  0  0  0  0  0
  1  2  2  0
  2  3  1  0
  3  4  1  0
  4  5  1  0
  5  6  2  0
  6  7  1  0
  7  8  1  0
  8  9  2  0
  8 10  1  0
 10 11  1  0
 11 12  1  0
 12 13  1  0
 13 14  1  0
 14 15  2  0
 14 16  1  0
 16 17  2  0
 17 18  1  0
 18 19  2  0
 19 20  1  0
 13 21  1  0
 21 22  1  0
  7 23  2  0
 23 24  1  0
  2 25  1  0
 25 26  1  0
 26 27  2  0
 27 28  1  0
 28 29  2  0
 29 30  1  0
 30 31  2  0
 31 32  1  0
 32 33  1  0
 33 34  1  0
 34 35  1  0
 35 36  1  0
 36 37  1  0
 24  5  1  0
 31 26  1  0
 37 32  1  0
 22 10  1  0
 20 16  1  0
  3 38  1  0
  3 39  1  0
  4 40  1  0
  4 41  1  0
  6 42  1  0
 11 43  1  0
 11 44  1  0
 12 45  1  0
 12 46  1  0
 17 47  1  0
 18 48  1  0
 19 49  1  0
 20 50  1  0
 21 51  1  0
 21 52  1  0
 22 53  1  0
 22 54  1  0
 23 55  1  0
 27 56  1  0
 28 57  1  0
 29 58  1  0
 30 59  1  0
 33 60  1  0
 33 61  1  0
 34 62  1  0
 34 63  1  0
 36 64  1  0
 36 65  1  0
 37 66  1  0
 37 67  1  0
M  CHG  2   6   1  25  -1
M  END
>  <UniqueID>  (77) 
70

>  <SMILES>  (77) 
O=C(CCc1[nH+]c(C(=O)N2CCN(C(=O)c3ccc[nH]3)CC2)cs1)[N-]c1ccccc1N1CCOCC1

>  <Energy>  (77) 
139.9224384076724

>  <Genealogy>  (77) 
O=C(CCc1[nH+]c(C(=O)N2CCN(C(=O)c3ccc[nH]3)CC2)cs1)[N-]c1ccccc1N1CCOCC1 (protonated)
O=C(CCc1[nH+]c(C(=O)N2CCN(C(=O)c3ccc[nH]3)CC2)cs1)[N-]c1ccccc1N1CCOCC1 (3D coordinates assigned)
O=C(CCc1[nH+]c(C(=O)N2CCN(C(=O)c3ccc[nH]3)CC2)cs1)[N-]c1ccccc1N1CCOCC1 (nonaromatic ring conformer: 139.9224384076724 kcal/mol)

>  <smiles>  (77) 
O=C(CCc1nc(C(=O)N2CCN(C(=O)c3ccc[nH]3)CC2)cs1)Nc1ccccc1N1CCOCC1

>  <score_type>  (77) 
oracle

>  <origin>  (77) 
adg

>  <m_score__min__energy>  (77) 
-9.1400000000000006

>  <m_primary>  (77) 
energy

$$$$
77:0
     RDKit          3D

 45 48  0  0  0  0  0  0  0  0999 V2000
   59.1740   28.7352   47.9509 H   0  0  0  0  0  0  0  0  0  0  0  0
   59.7310   29.6320   48.2600 C   0  0  0  0  0  0  0  0  0  0  0  0
   59.7460   29.9670   49.5560 C   0  0  0  0  0  0  0  0  0  0  0  0
   59.0939   29.4239   50.2559 H   0  0  0  0  0  0  0  0  0  0  0  0
   60.6300   31.0660   50.0830 C   0  0  0  0  0  0  0  0  0  0  0  0
   61.5693   30.6194   50.4411 H   0  0  0  0  0  0  0  0  0  0  0  0
   60.0817   31.5709   50.8920 H   0  0  0  0  0  0  0  0  0  0  0  0
   60.9520   32.0860   49.0620 N   0  0  2  0  0  0  0  0  0  0  0  0
   61.7700   32.6320   49.4230 H   0  0  0  0  0  0  0  0  0  0  0  0
   59.8460   33.0090   48.8620 C   0  0  0  0  0  0  0  0  0  0  0  0
   59.2400   33.4950   49.8560 O   0  0  0  0  0  0  0  0  0  0  0  0
   59.4260   33.4330   47.5000 C   0  0  0  0  0  0  0  0  0  0  0  0
   60.0390   34.5200   46.8510 C   0  0  0  0  0  0  0  0  0  0  0  0
   60.8647   35.0556   47.3424 H   0  0  0  0  0  0  0  0  0  0  0  0
   59.6050   34.9230   45.5860 C   0  0  0  0  0  0  0  0  0  0  0  0
   60.0862   35.7776   45.0879 H   0  0  0  0  0  0  0  0  0  0  0  0
   58.5630   34.2450   44.9520 C   0  0  0  0  0  0  0  0  0  0  0  0
   58.2200   34.5749   43.9603 H   0  0  0  0  0  0  0  0  0  0  0  0
   57.9520   33.1490   45.5690 C   0  0  0  0  0  0  0  0  0  0  0  0
   56.8600   32.5000   44.8930 N   0  0  0  0  0  0  0  0  0  0  0  0
   56.6240   31.2220   44.8520 C   0  0  0  0  0  0  0  0  0  0  0  0
   55.5610   30.6710   44.2280 N   0  0  0  0  0  0  0  0  0  0  0  0
   55.6950   29.3550   44.4700 C   0  0  0  0  0  0  0  0  0  0  0  0
   55.0145   28.5687   44.1113 H   0  0  0  0  0  0  0  0  0  0  0  0
   56.8220   29.1470   45.2400 C   0  0  0  0  0  0  0  0  0  0  0  0
   57.3630   27.8500   45.7120 C   0  0  0  0  0  0  0  0  0  0  0  0
   58.7580   27.7020   45.8450 C   0  0  0  0  0  0  0  0  0  0  0  0
   59.4208   28.5471   45.6072 H   0  0  0  0  0  0  0  0  0  0  0  0
   59.3070   26.4920   46.2760 C   0  0  0  0  0  0  0  0  0  0  0  0
   60.3979   26.3872   46.3704 H   0  0  0  0  0  0  0  0  0  0  0  0
   58.4750   25.4160   46.5870 C   0  0  0  0  0  0  0  0  0  0  0  0
   58.9104   24.4622   46.9196 H   0  0  0  0  0  0  0  0  0  0  0  0
   57.0900   25.5500   46.4760 C   0  0  0  0  0  0  0  0  0  0  0  0
   56.4365   24.7007   46.7244 H   0  0  0  0  0  0  0  0  0  0  0  0
   56.5280   26.7600   46.0500 C   0  0  0  0  0  0  0  0  0  0  0  0
   55.1430   26.8700   45.9950 O   0  0  0  0  0  0  0  0  0  0  0  0
   57.4160   30.3310   45.4830 N   0  0  0  0  0  0  0  0  0  0  0  0
   58.3660   32.7650   46.8580 C   0  0  0  0  0  0  0  0  0  0  0  0
   57.8564   31.9348   47.3689 H   0  0  0  0  0  0  0  0  0  0  0  0
   61.4270   31.4710   47.8020 C   0  0  0  0  0  0  0  0  0  0  0  0
   62.3853   30.9686   48.0002 H   0  0  0  0  0  0  0  0  0  0  0  0
   61.5234   32.2814   47.0645 H   0  0  0  0  0  0  0  0  0  0  0  0
   60.4480   30.4370   47.2110 C   0  0  0  0  0  0  0  0  0  0  0  0
   61.0143   29.7474   46.5677 H   0  0  0  0  0  0  0  0  0  0  0  0
   59.6845   30.9944   46.6485 H   0  0  0  0  0  0  0  0  0  0  0  0
  1  2  1  0
  2  3  2  0
  3  4  1  0
  3  5  1  0
  5  6  1  0
  5  7  1  0
  5  8  1  0
  8  9  1  1
  8 10  1  0
 10 11  2  0
 10 12  1  0
 12 13  2  0
 13 14  1  0
 13 15  1  0
 15 16  1  0
 15 17  2  0
 17 18  1  0
 17 19  1  0
 19 20  1  0
 20 21  2  0
 21 22  1  0
 22 23  1  0
 23 24  1  0
 23 25  2  0
 25 26  1  0
 26 27  2  0
 27 28  1  0
 27 29  1  0
 29 30  1  0
 29 31  2  0
 31 32  1  0
 31 33  1  0
 33 34  1  0
 33 35  2  0
 35 36  1  0
 25 37  1  0
 19 38  2  0
 38 39  1  0
  8 40  1  0
 40 41  1  0
 40 42  1  0
 40 43  1  0
 43 44  1  0
 43 45  1  0
 43  2  1  0
 38 12  1  0
 37 21  1  0
 35 26  1  0
M  CHG  4   8   1  22  -1  36  -1  37  -1
M  END
>  <UniqueID>  (78) 
71

>  <SMILES>  (78) 
O=C(c1cccc(/N=c2\[n-]cc(-c3ccccc3[O-])[n-]2)c1)[N@H+]1CC=CCC1

>  <Energy>  (78) 
96.98330869346509

>  <Genealogy>  (78) 
O=C(c1cccc(N=c2[n-]cc(-c3ccccc3[O-])[n-]2)c1)[NH+]1CC=CCC1 (protonated)
O=C(c1cccc(N=c2[n-]cc(-c3ccccc3[O-])[n-]2)c1)[N@H+]1CC=CCC1 (chirality)
O=C(c1cccc(/N=c2\[n-]cc(-c3ccccc3[O-])[n-]2)c1)[N@H+]1CC=CCC1 (cis-trans isomerization)
O=C(c1cccc(/N=c2\[n-]cc(-c3ccccc3[O-])[n-]2)c1)[N@H+]1CC=CCC1 (3D coordinates assigned)
O=C(c1cccc(/N=c2\[n-]cc(-c3ccccc3[O-])[n-]2)c1)[N@H+]1CC=CCC1 (nonaromatic ring conformer: 96.98330869346509 kcal/mol)

>  <smiles>  (78) 
O=C(c1cccc(N=c2[nH]cc(-c3ccccc3O)[nH]2)c1)N1CC=CCC1

>  <score_type>  (78) 
oracle

>  <origin>  (78) 
adg

>  <m_score__min__energy>  (78) 
-14.539999999999999

>  <m_primary>  (78) 
energy

$$$$
78:0
     RDKit          3D

 44 46  0  0  0  0  0  0  0  0999 V2000
   59.4820   30.5650   49.8970 N   0  0  0  0  0  0  0  0  0  0  0  0
   60.6280   29.6880   48.9450 S   0  0  0  0  0  0  0  0  0  0  0  0
   61.7880   30.5830   48.6080 O   0  0  0  0  0  0  0  0  0  0  0  0
   61.1390   28.5120   49.7290 O   0  0  0  0  0  0  0  0  0  0  0  0
   59.8550   29.1240   47.4680 C   0  0  0  0  0  0  0  0  0  0  0  0
   58.6000   28.5060   47.5290 C   0  0  0  0  0  0  0  0  0  0  0  0
   57.9510   28.1120   46.3560 C   0  0  0  0  0  0  0  0  0  0  0  0
   58.5500   28.3370   45.1050 C   0  0  0  0  0  0  0  0  0  0  0  0
   57.7840   28.0640   43.8400 C   0  0  0  0  0  0  0  0  0  0  0  0
   57.1590   29.2890   43.3490 N   0  0  0  0  0  0  0  0  0  0  0  0
   56.5920   30.2540   44.2410 C   0  0  0  0  0  0  0  0  0  0  0  0
   55.4390   30.0540   44.7080 O   0  0  0  0  0  0  0  0  0  0  0  0
   57.3650   31.4490   44.6440 C   0  0  0  0  0  0  0  0  0  0  0  0
   57.7130   32.4240   43.6950 C   0  0  0  0  0  0  0  0  0  0  0  0
   58.5150   33.5060   44.0560 C   0  0  0  0  0  0  0  0  0  0  0  0
   58.9660   33.6390   45.3710 C   0  0  0  0  0  0  0  0  0  0  0  0
   58.6050   32.6940   46.3440 C   0  0  0  0  0  0  0  0  0  0  0  0
   59.0880   32.8120   47.7360 C   0  0  0  0  0  0  0  0  0  0  0  0
   58.2910   32.6060   48.6900 O   0  0  0  0  0  0  0  0  0  0  0  0
   60.4340   33.1960   48.0330 N   0  0  0  0  0  0  0  0  0  0  0  0
   61.2150   33.4500   49.2570 C   0  0  0  0  0  0  0  0  0  0  0  0
   62.4250   33.9880   48.5690 C   0  0  0  0  0  0  0  0  0  0  0  0
   61.6260   33.7200   47.3380 C   0  0  0  0  0  0  0  0  0  0  0  0
   57.8090   31.5960   45.9690 C   0  0  0  0  0  0  0  0  0  0  0  0
   59.8130   28.9470   45.0470 C   0  0  0  0  0  0  0  0  0  0  0  0
   60.4610   29.3390   46.2220 C   0  0  0  0  0  0  0  0  0  0  0  0
   59.7890   31.5630   49.9010 H   0  0  0  0  0  0  0  0  0  0  0  0
   58.5720   30.5320   49.3840 H   0  0  0  0  0  0  0  0  0  0  0  0
   58.1230   28.3300   48.5044 H   0  0  0  0  0  0  0  0  0  0  0  0
   56.9670   27.6236   46.4121 H   0  0  0  0  0  0  0  0  0  0  0  0
   58.4734   27.6771   43.0751 H   0  0  0  0  0  0  0  0  0  0  0  0
   56.9991   27.3228   44.0510 H   0  0  0  0  0  0  0  0  0  0  0  0
   57.3506   32.3335   42.6604 H   0  0  0  0  0  0  0  0  0  0  0  0
   58.7934   34.2574   43.3024 H   0  0  0  0  0  0  0  0  0  0  0  0
   59.6077   34.4891   45.6458 H   0  0  0  0  0  0  0  0  0  0  0  0
   60.7391   34.1895   49.9177 H   0  0  0  0  0  0  0  0  0  0  0  0
   61.3648   32.6002   49.9392 H   0  0  0  0  0  0  0  0  0  0  0  0
   62.6527   35.0459   48.7665 H   0  0  0  0  0  0  0  0  0  0  0  0
   63.4450   33.6106   48.7342 H   0  0  0  0  0  0  0  0  0  0  0  0
   61.4143   34.6332   46.7625 H   0  0  0  0  0  0  0  0  0  0  0  0
   62.0845   33.0736   46.5751 H   0  0  0  0  0  0  0  0  0  0  0  0
   57.5310   30.8438   46.7220 H   0  0  0  0  0  0  0  0  0  0  0  0
   60.2948   29.1172   44.0729 H   0  0  0  0  0  0  0  0  0  0  0  0
   61.4499   29.8179   46.1689 H   0  0  0  0  0  0  0  0  0  0  0  0
  1  2  1  0
  2  3  2  0
  2  4  2  0
  2  5  1  0
  5  6  2  0
  6  7  1  0
  7  8  2  0
  8  9  1  0
  9 10  1  0
 10 11  1  0
 11 12  2  0
 11 13  1  0
 13 14  2  0
 14 15  1  0
 15 16  2  0
 16 17  1  0
 17 18  1  0
 18 19  2  0
 18 20  1  0
 20 21  1  0
 21 22  1  0
 22 23  1  0
 17 24  2  0
  8 25  1  0
 25 26  2  0
 26  5  1  0
 24 13  1  0
 23 20  1  0
  1 27  1  0
  1 28  1  0
  6 29  1  0
  7 30  1  0
  9 31  1  0
  9 32  1  0
 14 33  1  0
 15 34  1  0
 16 35  1  0
 21 36  1  0
 21 37  1  0
 22 38  1  0
 22 39  1  0
 23 40  1  0
 23 41  1  0
 24 42  1  0
 25 43  1  0
 26 44  1  0
M  CHG  1  10  -1
M  END
>  <UniqueID>  (79) 
72

>  <SMILES>  (79) 
NS(=O)(=O)c1ccc(C[N-]C(=O)c2cccc(C(=O)N3CCC3)c2)cc1

>  <Energy>  (79) 
93.92941391412573

>  <Genealogy>  (79) 
NS(=O)(=O)c1ccc(C[N-]C(=O)c2cccc(C(=O)N3CCC3)c2)cc1 (protonated)
NS(=O)(=O)c1ccc(C[N-]C(=O)c2cccc(C(=O)N3CCC3)c2)cc1 (3D coordinates assigned)
NS(=O)(=O)c1ccc(C[N-]C(=O)c2cccc(C(=O)N3CCC3)c2)cc1 (nonaromatic ring conformer: 93.92941391412573 kcal/mol)

>  <smiles>  (79) 
NS(=O)(=O)c1ccc(CNC(=O)c2cccc(C(=O)N3CCC3)c2)cc1

>  <score_type>  (79) 
oracle

>  <origin>  (79) 
adg

>  <m_score__min__energy>  (79) 
-11.27

>  <m_primary>  (79) 
energy

$$$$
79:0
     RDKit          3D

 53 57  0  0  1  0  0  0  0  0999 V2000
   58.3830   26.4060   45.7720 C   0  0  0  0  0  0  0  0  0  0  0  0
   58.4110   27.6520   45.3700 C   0  0  0  0  0  0  0  0  0  0  0  0
   57.4490   28.0200   44.3860 N   0  0  0  0  0  0  0  0  0  0  0  0
   57.3620   29.3490   43.8740 C   0  0  0  0  0  0  0  0  0  0  0  0
   56.2700   29.8000   42.7530 S   0  0  0  0  0  0  0  0  0  0  0  0
   58.3010   30.2560   44.4160 N   0  0  0  0  0  0  0  0  0  0  0  0
   59.2620   29.8410   45.4100 C   0  0  0  0  0  0  0  0  0  0  0  0
   60.1090   30.8650   45.7910 O   0  0  0  0  0  0  0  0  0  0  0  0
   59.3900   28.6580   45.9190 C   0  0  0  0  0  0  0  0  0  0  0  0
   60.1120   28.1820   47.0500 C   0  0  0  0  0  0  0  0  0  0  0  0
   59.5590   30.6970   50.9710 C   0  0  0  0  0  0  0  0  0  0  0  0
   59.2690   31.9380   50.4520 C   0  0  0  0  0  0  0  0  0  0  0  0
   60.1060   28.4170   50.4800 N   0  0  0  0  0  0  0  0  0  0  0  0
   59.8160   29.6480   50.1910 N   0  0  0  0  0  0  0  0  0  0  0  0
   60.1060   28.5030   48.3000 C   0  0  0  0  0  0  0  0  0  0  0  0
   59.5750   30.5640   52.2460 N   0  0  0  0  0  0  0  0  0  0  0  0
   58.3820   30.3440   53.0050 C   0  0  1  0  0  0  0  0  0  0  0  0
   57.4370   31.5000   53.0620 C   0  0  0  0  0  0  0  0  0  0  0  0
   56.3050   31.0940   52.1070 C   0  0  0  0  0  0  0  0  0  0  0  0
   56.2520   29.7140   52.4090 O   0  0  0  0  0  0  0  0  0  0  0  0
   57.5570   29.3550   52.1580 C   0  0  0  0  0  0  0  0  0  0  0  0
   60.2900   27.7010   49.3720 C   0  0  0  0  0  0  0  0  0  0  0  0
   59.2570   32.0490   49.0740 C   0  0  0  0  0  0  0  0  0  0  0  0
   58.9590   33.3260   48.5230 N   0  0  0  0  0  0  0  0  0  0  0  0
   58.7190   33.5480   47.1440 C   0  0  0  0  0  0  0  0  0  0  0  0
   57.3820   33.4840   46.7400 C   0  0  0  0  0  0  0  0  0  0  0  0
   57.0350   33.6850   45.4180 C   0  0  0  0  0  0  0  0  0  0  0  0
   58.0250   33.9500   44.5000 C   0  0  0  0  0  0  0  0  0  0  0  0
   59.3400   34.0070   44.9240 C   0  0  0  0  0  0  0  0  0  0  0  0
   59.7170   33.8130   46.2280 C   0  0  0  0  0  0  0  0  0  0  0  0
   61.3720   33.8860   46.7630 Cl  0  0  0  0  0  0  0  0  0  0  0  0
   59.5220   30.9660   48.3220 N   0  0  0  0  0  0  0  0  0  0  0  0
   59.8020   29.7640   48.8490 C   0  0  0  0  0  0  0  0  0  0  0  0
   59.0991   26.0565   46.5303 H   0  0  0  0  0  0  0  0  0  0  0  0
   57.6434   25.7088   45.3513 H   0  0  0  0  0  0  0  0  0  0  0  0
   56.7700   27.3360   44.0010 H   0  0  0  0  0  0  0  0  0  0  0  0
   58.2630   31.2400   44.0610 H   0  0  0  0  0  0  0  0  0  0  0  0
   60.1350   31.2190   46.7460 H   0  0  0  0  0  0  0  0  0  0  0  0
   60.8200   27.3754   46.8090 H   0  0  0  0  0  0  0  0  0  0  0  0
   59.0570   32.7998   51.1019 H   0  0  0  0  0  0  0  0  0  0  0  0
   58.7069   30.0659   54.0185 H   0  0  0  0  0  0  0  0  0  0  0  0
   57.0553   31.6443   54.0835 H   0  0  0  0  0  0  0  0  0  0  0  0
   57.9111   32.4517   52.7801 H   0  0  0  0  0  0  0  0  0  0  0  0
   55.3606   31.6056   52.3443 H   0  0  0  0  0  0  0  0  0  0  0  0
   56.4652   31.3426   51.0475 H   0  0  0  0  0  0  0  0  0  0  0  0
   57.7453   28.3180   52.4729 H   0  0  0  0  0  0  0  0  0  0  0  0
   57.8108   29.3974   51.0885 H   0  0  0  0  0  0  0  0  0  0  0  0
   60.5491   26.6326   49.3356 H   0  0  0  0  0  0  0  0  0  0  0  0
   58.9120   34.1560   49.1720 H   0  0  0  0  0  0  0  0  0  0  0  0
   56.5985   33.2715   47.4823 H   0  0  0  0  0  0  0  0  0  0  0  0
   55.9821   33.6339   45.1037 H   0  0  0  0  0  0  0  0  0  0  0  0
   57.7736   34.1145   43.4418 H   0  0  0  0  0  0  0  0  0  0  0  0
   60.1214   34.2182   44.1791 H   0  0  0  0  0  0  0  0  0  0  0  0
  1  2  2  0
  2  3  1  0
  3  4  1  0
  4  5  2  0
  4  6  1  0
  6  7  1  0
  7  8  1  0
  7  9  2  0
  9 10  1  0
 10 11  2  0
 11 12  1  0
 12 13  2  0
 13 14  1  0
 14 15  1  0
 15 16  2  0
 16 17  1  0
 17 18  1  0
 18 19  1  0
 19 20  1  0
 20 21  1  0
 15 22  1  0
 22 23  2  0
 23 24  1  0
 24 25  1  0
 25 26  2  0
 26 27  1  0
 27 28  2  0
 28 29  1  0
 29 30  2  0
 30 31  1  0
 23 32  1  0
 32 33  2  0
  9  2  1  0
 33 11  1  0
 33 14  1  0
 21 17  1  0
 30 25  1  0
  1 34  1  0
  1 35  1  0
  3 36  1  0
  6 37  1  0
  8 38  1  0
 10 39  1  0
 12 40  1  0
 17 41  1  1
 18 42  1  0
 18 43  1  0
 19 44  1  0
 19 45  1  0
 21 46  1  0
 21 47  1  0
 22 48  1  0
 24 49  1  0
 26 50  1  0
 27 51  1  0
 28 52  1  0
 29 53  1  0
M  END
>  <smiles>  (80) 
C=C1NC(=S)NC(O)=C1C=c1cnn2c(=NC3CCOC3)cc(Nc3ccccc3Cl)nc12

>  <score_type>  (80) 
oracle

>  <origin>  (80) 
adg

>  <m_score__min__energy>  (80) 
-10.75

>  <m_primary>  (80) 
energy

$$$$
80:0
     RDKit          3D

 47 49  0  0  0  0  0  0  0  0999 V2000
   55.5150   28.8200   45.0760 N   0  0  0  0  0  0  0  0  0  0  0  0
   56.6270   29.8970   44.3090 S   0  0  0  0  0  0  0  0  0  0  0  0
   56.1730   31.3160   44.5050 O   0  0  0  0  0  0  0  0  0  0  0  0
   56.6730   29.6040   42.8340 O   0  0  0  0  0  0  0  0  0  0  0  0
   58.2260   29.6820   45.0140 C   0  0  0  0  0  0  0  0  0  0  0  0
   59.1570   28.8400   44.4020 C   0  0  0  0  0  0  0  0  0  0  0  0
   60.4140   28.6600   44.9720 C   0  0  0  0  0  0  0  0  0  0  0  0
   60.7540   29.3170   46.1560 C   0  0  0  0  0  0  0  0  0  0  0  0
   59.8350   30.1770   46.8040 C   0  0  0  0  0  0  0  0  0  0  0  0
   60.1860   30.8650   48.0480 N   0  0  0  0  0  0  0  0  0  0  0  0
   61.6120   30.9670   48.4290 C   0  0  0  0  0  0  0  0  0  0  0  0
   61.8700   31.6390   49.7840 C   0  0  0  0  0  0  0  0  0  0  0  0
   60.9360   32.7420   50.0690 N   0  0  0  0  0  0  0  0  0  0  0  0
   61.0280   33.8860   49.1220 C   0  0  0  0  0  0  0  0  0  0  0  0
   59.6690   34.5470   48.8110 C   0  0  0  0  0  0  0  0  0  0  0  0
   59.2020   34.2680   47.4060 C   0  0  0  0  0  0  0  0  0  0  0  0
   60.0840   34.4220   46.3230 C   0  0  0  0  0  0  0  0  0  0  0  0
   59.6580   34.1410   45.0210 C   0  0  0  0  0  0  0  0  0  0  0  0
   58.3510   33.7010   44.7910 C   0  0  0  0  0  0  0  0  0  0  0  0
   57.9410   33.4270   43.5280 F   0  0  0  0  0  0  0  0  0  0  0  0
   57.4680   33.5410   45.8630 C   0  0  0  0  0  0  0  0  0  0  0  0
   57.8910   33.8220   47.1660 C   0  0  0  0  0  0  0  0  0  0  0  0
   59.5730   32.1910   50.1300 C   0  0  0  0  0  0  0  0  0  0  0  0
   59.1210   31.5600   48.8050 C   0  0  0  0  0  0  0  0  0  0  0  0
   58.5590   30.3380   46.2070 C   0  0  0  0  0  0  0  0  0  0  0  0
   54.6560   29.3740   45.2950 H   0  0  0  0  0  0  0  0  0  0  0  0
   58.8968   28.3187   43.4690 H   0  0  0  0  0  0  0  0  0  0  0  0
   61.1442   27.9958   44.4865 H   0  0  0  0  0  0  0  0  0  0  0  0
   61.7521   29.1639   46.5924 H   0  0  0  0  0  0  0  0  0  0  0  0
   62.0297   29.9501   48.4664 H   0  0  0  0  0  0  0  0  0  0  0  0
   62.0899   31.6052   47.6711 H   0  0  0  0  0  0  0  0  0  0  0  0
   61.7692   30.8816   50.5753 H   0  0  0  0  0  0  0  0  0  0  0  0
   62.8827   32.0671   49.7504 H   0  0  0  0  0  0  0  0  0  0  0  0
   61.1500   33.0930   51.0320 H   0  0  0  0  0  0  0  0  0  0  0  0
   61.6915   34.6463   49.5599 H   0  0  0  0  0  0  0  0  0  0  0  0
   61.4148   33.4863   48.1730 H   0  0  0  0  0  0  0  0  0  0  0  0
   58.9185   34.1600   49.5160 H   0  0  0  0  0  0  0  0  0  0  0  0
   59.7946   35.6351   48.9125 H   0  0  0  0  0  0  0  0  0  0  0  0
   61.1140   34.7651   46.5001 H   0  0  0  0  0  0  0  0  0  0  0  0
   60.3520   34.2663   44.1768 H   0  0  0  0  0  0  0  0  0  0  0  0
   56.4401   33.1939   45.6815 H   0  0  0  0  0  0  0  0  0  0  0  0
   57.1941   33.6933   48.0073 H   0  0  0  0  0  0  0  0  0  0  0  0
   59.5413   31.4202   50.9141 H   0  0  0  0  0  0  0  0  0  0  0  0
   58.8901   33.0257   50.3468 H   0  0  0  0  0  0  0  0  0  0  0  0
   58.3286   30.8302   49.0274 H   0  0  0  0  0  0  0  0  0  0  0  0
   58.7832   32.3909   48.1682 H   0  0  0  0  0  0  0  0  0  0  0  0
   57.8162   30.9903   46.6894 H   0  0  0  0  0  0  0  0  0  0  0  0
  1  2  1  0
  2  3  2  0
  2  4  2  0
  2  5  1  0
  5  6  2  0
  6  7  1  0
  7  8  2  0
  8  9  1  0
  9 10  1  0
 10 11  1  0
 11 12  1  0
 12 13  1  0
 13 14  1  0
 14 15  1  0
 15 16  1  0
 16 17  2  0
 17 18  1  0
 18 19  2  0
 19 20  1  0
 19 21  1  0
 21 22  2  0
 13 23  1  0
 23 24  1  0
  9 25  2  0
 25  5  1  0
 24 10  1  0
 22 16  1  0
  1 26  1  0
  6 27  1  0
  7 28  1  0
  8 29  1  0
 11 30  1  0
 11 31  1  0
 12 32  1  0
 12 33  1  0
 13 34  1  0
 14 35  1  0
 14 36  1  0
 15 37  1  0
 15 38  1  0
 17 39  1  0
 18 40  1  0
 21 41  1  0
 22 42  1  0
 23 43  1  0
 23 44  1  0
 24 45  1  0
 24 46  1  0
 25 47  1  0
M  CHG  2   1  -1  13   1
M  END
>  <UniqueID>  (81) 
73

>  <SMILES>  (81) 
[NH-]S(=O)(=O)c1cccc(N2CC[NH+](CCc3ccc(F)cc3)CC2)c1

>  <Energy>  (81) 
58.97791724055839

>  <Genealogy>  (81) 
[NH-]S(=O)(=O)c1cccc(N2CC[NH+](CCc3ccc(F)cc3)CC2)c1 (protonated)
[NH-]S(=O)(=O)c1cccc(N2CC[NH+](CCc3ccc(F)cc3)CC2)c1 (3D coordinates assigned)
[NH-]S(=O)(=O)c1cccc(N2CC[NH+](CCc3ccc(F)cc3)CC2)c1 (nonaromatic ring conformer: 58.97791724055839 kcal/mol)

>  <smiles>  (81) 
NS(=O)(=O)c1cccc(N2CCN(CCc3ccc(F)cc3)CC2)c1

>  <score_type>  (81) 
oracle

>  <origin>  (81) 
adg

>  <m_score__min__energy>  (81) 
-10.08

>  <m_primary>  (81) 
energy

$$$$
81:0
     RDKit          3D

 54 57  0  0  0  0  0  0  0  0999 V2000
   59.6529   30.5042   44.2471 H   0  0  0  0  0  0  0  0  0  0  0  0
   59.2480   29.5340   44.5710 C   0  0  0  0  0  0  0  0  0  0  0  0
   59.0288   28.7536   43.8274 H   0  0  0  0  0  0  0  0  0  0  0  0
   59.0210   29.3020   45.8760 C   0  0  0  0  0  0  0  0  0  0  0  0
   58.5110   28.1180   46.4210 C   0  0  0  0  0  0  0  0  0  0  0  0
   58.1770   26.9920   45.7530 C   0  0  0  0  0  0  0  0  0  0  0  0
   58.4870   26.9204   44.7000 H   0  0  0  0  0  0  0  0  0  0  0  0
   57.4300   25.8480   46.3180 C   0  0  0  0  0  0  0  0  0  0  0  0
   57.9700   24.7470   46.8730 N   0  0  0  0  0  0  0  0  0  0  0  0
   56.8970   24.0360   47.2780 C   0  0  0  0  0  0  0  0  0  0  0  0
   56.9990   22.9190   47.8490 O   0  0  0  0  0  0  0  0  0  0  0  0
   55.7050   24.6180   47.0270 N   0  0  0  0  0  0  0  0  0  0  0  0
   56.0610   25.7640   46.4250 C   0  0  0  0  0  0  0  0  0  0  0  0
   55.1510   26.7160   45.9820 O   0  0  0  0  0  0  0  0  0  0  0  0
   58.4730   28.3150   47.7940 C   0  0  0  0  0  0  0  0  0  0  0  0
   58.1202   27.5952   48.5473 H   0  0  0  0  0  0  0  0  0  0  0  0
   58.9610   29.5840   48.0380 C   0  0  0  0  0  0  0  0  0  0  0  0
   59.1430   30.1270   49.4040 C   0  0  0  0  0  0  0  0  0  0  0  0
   58.1660   30.1070   50.2020 O   0  0  0  0  0  0  0  0  0  0  0  0
   60.4240   30.6150   49.8330 N   0  0  0  0  0  0  0  0  0  0  0  0
   60.9970   31.7310   49.4860 C   0  0  0  0  0  0  0  0  0  0  0  0
   62.0580   31.7480   48.6300 N   0  0  0  0  0  0  0  0  0  0  0  0
   62.6650   32.9070   48.2500 C   0  0  0  0  0  0  0  0  0  0  0  0
   63.8130   32.8670   47.2930 C   0  0  0  0  0  0  0  0  0  0  0  0
   64.7580   32.8341   47.8551 H   0  0  0  0  0  0  0  0  0  0  0  0
   63.7316   31.9711   46.6599 H   0  0  0  0  0  0  0  0  0  0  0  0
   63.7941   33.7663   46.6599 H   0  0  0  0  0  0  0  0  0  0  0  0
   62.1850   34.1320   48.7330 C   0  0  0  0  0  0  0  0  0  0  0  0
   62.6577   35.0757   48.4232 H   0  0  0  0  0  0  0  0  0  0  0  0
   61.1010   34.1410   49.6110 C   0  0  0  0  0  0  0  0  0  0  0  0
   60.7176   35.0950   50.0021 H   0  0  0  0  0  0  0  0  0  0  0  0
   60.5030   32.9390   49.9930 C   0  0  0  0  0  0  0  0  0  0  0  0
   59.6498   32.9408   50.6873 H   0  0  0  0  0  0  0  0  0  0  0  0
   59.2850   30.1970   46.8700 N   0  0  0  0  0  0  0  0  0  0  0  0
   59.8260   31.5570   46.7060 C   0  0  0  0  0  0  0  0  0  0  0  0
   60.4739   31.7890   47.5641 H   0  0  0  0  0  0  0  0  0  0  0  0
   60.3934   31.5897   45.7642 H   0  0  0  0  0  0  0  0  0  0  0  0
   58.7290   32.5860   46.6300 C   0  0  0  0  0  0  0  0  0  0  0  0
   58.1500   32.9480   47.6880 O   0  0  0  0  0  0  0  0  0  0  0  0
   58.2380   33.0500   45.3630 N   0  0  0  0  0  0  0  0  0  0  0  0
   57.5680   32.1560   44.4540 C   0  0  0  0  0  0  0  0  0  0  0  0
   56.7240   31.2040   44.9410 N   0  0  0  0  0  0  0  0  0  0  0  0
   56.1070   30.3030   44.1300 C   0  0  0  0  0  0  0  0  0  0  0  0
   55.4325   29.5477   44.5596 H   0  0  0  0  0  0  0  0  0  0  0  0
   56.3300   30.3370   42.7520 C   0  0  0  0  0  0  0  0  0  0  0  0
   55.8442   29.6031   42.0922 H   0  0  0  0  0  0  0  0  0  0  0  0
   57.1750   31.3110   42.2210 C   0  0  0  0  0  0  0  0  0  0  0  0
   57.3531   31.3547   41.1364 H   0  0  0  0  0  0  0  0  0  0  0  0
   57.7940   32.2300   43.0690 C   0  0  0  0  0  0  0  0  0  0  0  0
   58.4543   33.0070   42.6563 H   0  0  0  0  0  0  0  0  0  0  0  0
   58.5100   34.4280   44.9570 C   0  0  0  0  0  0  0  0  0  0  0  0
   58.6340   35.0561   45.8515 H   0  0  0  0  0  0  0  0  0  0  0  0
   59.4315   34.4584   44.3570 H   0  0  0  0  0  0  0  0  0  0  0  0
   57.6692   34.8062   44.3570 H   0  0  0  0  0  0  0  0  0  0  0  0
  1  2  1  0
  2  3  1  0
  2  4  2  0
  4  5  1  0
  5  6  2  0
  6  7  1  0
  6  8  1  0
  8  9  1  0
  9 10  1  0
 10 11  2  0
 10 12  1  0
 12 13  1  0
 13 14  1  0
  5 15  1  0
 15 16  1  0
 15 17  2  0
 17 18  1  0
 18 19  2  0
 18 20  1  0
 20 21  2  3
 21 22  1  0
 22 23  1  0
 23 24  1  0
 24 25  1  0
 24 26  1  0
 24 27  1  0
 23 28  2  0
 28 29  1  0
 28 30  1  0
 30 31  1  0
 30 32  2  0
 32 33  1  0
 17 34  1  0
 34 35  1  0
 35 36  1  0
 35 37  1  0
 35 38  1  0
 38 39  2  0
 38 40  1  0
 40 41  1  0
 41 42  2  0
 42 43  1  0
 43 44  1  0
 43 45  2  0
 45 46  1  0
 45 47  1  0
 47 48  1  0
 47 49  2  0
 49 50  1  0
 40 51  1  0
 51 52  1  0
 51 53  1  0
 51 54  1  0
 34  4  1  0
 49 41  1  0
 13  8  2  0
 32 21  1  0
M  CHG  4   9  -1  12  -1  14  -1  22  -1
M  END
>  <UniqueID>  (82) 
74

>  <SMILES>  (82) 
C=c1/c(=C/c2[n-]c(=O)[n-]c2[O-])cc(C(=O)N=c2cccc(C)[n-]2)n1CC(=O)N(C)c1ccccn1

>  <Energy>  (82) 
129.7823229112754

>  <Genealogy>  (82) 
C=c1c(=Cc2[n-]c(=O)[n-]c2[O-])cc(C(=O)N=c2cccc(C)[n-]2)n1CC(=O)N(C)c1ccccn1 (protonated)
C=c1/c(=C/c2[n-]c(=O)[n-]c2[O-])cc(C(=O)N=c2cccc(C)[n-]2)n1CC(=O)N(C)c1ccccn1 (cis-trans isomerization)
C=c1/c(=C/c2[n-]c(=O)[n-]c2[O-])cc(C(=O)N=c2cccc(C)[n-]2)n1CC(=O)N(C)c1ccccn1 (3D coordinates assigned)
C=c1/c(=C/c2[n-]c(=O)[n-]c2[O-])cc(C(=O)N=c2cccc(C)[n-]2)n1CC(=O)N(C)c1ccccn1 (optimized conformer: 129.7823229112754 kcal/mol)

>  <smiles>  (82) 
C=c1c(=Cc2[nH]c(=O)[nH]c2O)cc(C(=O)N=c2cccc(C)[nH]2)n1CC(=O)N(C)c1ccccn1

>  <score_type>  (82) 
oracle

>  <origin>  (82) 
adg

>  <m_score__min__energy>  (82) 
-18.190000000000001

>  <m_primary>  (82) 
energy

$$$$
