0:0
     RDKit          3D

 39 40  0  0  0  0  0  0  0  0999 V2000
   59.4460   34.4310   46.4200 C   0  0  0  0  0  0  0  0  0  0  0  0
   57.7370   33.8780   46.1310 S   0  0  0  0  0  0  0  0  0  0  0  0
   58.1200   32.1500   46.4220 C   0  0  0  0  0  0  0  0  0  0  0  0
   57.9780   31.2200   45.3900 C   0  0  0  0  0  0  0  0  0  0  0  0
   58.2760   29.8750   45.6140 C   0  0  0  0  0  0  0  0  0  0  0  0
   58.7200   29.4470   46.8710 C   0  0  0  0  0  0  0  0  0  0  0  0
   59.1330   27.7450   47.0610 Cl  0  0  0  0  0  0  0  0  0  0  0  0
   58.8690   30.3800   47.9230 C   0  0  0  0  0  0  0  0  0  0  0  0
   59.3210   29.9690   49.2720 C   0  0  0  0  0  0  0  0  0  0  0  0
   60.5450   29.7480   49.4810 O   0  0  0  0  0  0  0  0  0  0  0  0
   58.3730   29.8080   50.3390 N   0  0  0  0  0  0  0  0  0  0  0  0
   58.7650   29.3670   51.6760 C   0  0  0  0  0  0  0  0  0  0  0  0
   57.5880   29.3870   52.6140 C   0  0  0  0  0  0  0  0  0  0  0  0
   57.7720   29.0970   53.8260 O   0  0  0  0  0  0  0  0  0  0  0  0
   56.2630   29.7290   52.1820 N   0  0  0  0  0  0  0  0  0  0  0  0
   55.0150   29.2100   52.7320 C   0  0  0  0  0  0  0  0  0  0  0  0
   53.8660   30.1400   52.4460 C   0  0  0  0  0  0  0  0  0  0  0  0
   53.7250   30.7190   51.1740 C   0  0  0  0  0  0  0  0  0  0  0  0
   52.6520   31.5730   50.9030 C   0  0  0  0  0  0  0  0  0  0  0  0
   51.7060   31.8480   51.8950 C   0  0  0  0  0  0  0  0  0  0  0  0
   50.6410   32.6980   51.6230 O   0  0  0  0  0  0  0  0  0  0  0  0
   51.8320   31.2640   53.1590 C   0  0  0  0  0  0  0  0  0  0  0  0
   52.9040   30.4090   53.4340 C   0  0  0  0  0  0  0  0  0  0  0  0
   58.5670   31.7330   47.6810 C   0  0  0  0  0  0  0  0  0  0  0  0
   59.6337   34.4917   47.5022 H   0  0  0  0  0  0  0  0  0  0  0  0
   60.1453   33.7133   45.9663 H   0  0  0  0  0  0  0  0  0  0  0  0
   59.5923   35.4223   45.9663 H   0  0  0  0  0  0  0  0  0  0  0  0
   57.6308   31.5479   44.3991 H   0  0  0  0  0  0  0  0  0  0  0  0
   58.1613   29.1466   44.7978 H   0  0  0  0  0  0  0  0  0  0  0  0
   57.3620   30.0040   50.1640 H   0  0  0  0  0  0  0  0  0  0  0  0
   59.1604   28.3423   51.6159 H   0  0  0  0  0  0  0  0  0  0  0  0
   59.5336   30.0530   52.0614 H   0  0  0  0  0  0  0  0  0  0  0  0
   54.8041   28.2295   52.2802 H   0  0  0  0  0  0  0  0  0  0  0  0
   55.1262   29.1186   53.8225 H   0  0  0  0  0  0  0  0  0  0  0  0
   54.4622   30.4994   50.3877 H   0  0  0  0  0  0  0  0  0  0  0  0
   52.5518   32.0296   49.9073 H   0  0  0  0  0  0  0  0  0  0  0  0
   51.0863   31.4775   53.9390 H   0  0  0  0  0  0  0  0  0  0  0  0
   52.9943   29.9454   54.4274 H   0  0  0  0  0  0  0  0  0  0  0  0
   58.6834   32.4700   48.4892 H   0  0  0  0  0  0  0  0  0  0  0  0
  1  2  1  0
  2  3  1  0
  3  4  2  0
  4  5  1  0
  5  6  2  0
  6  7  1  0
  6  8  1  0
  8  9  1  0
  9 10  2  0
  9 11  1  0
 11 12  1  0
 12 13  1  0
 13 14  2  0
 13 15  1  0
 15 16  1  0
 16 17  1  0
 17 18  2  0
 18 19  1  0
 19 20  2  0
 20 21  1  0
 20 22  1  0
 22 23  2  0
  8 24  2  0
 24  3  1  0
 23 17  1  0
  1 25  1  0
  1 26  1  0
  1 27  1  0
  4 28  1  0
  5 29  1  0
 11 30  1  0
 12 31  1  0
 12 32  1  0
 16 33  1  0
 16 34  1  0
 18 35  1  0
 19 36  1  0
 22 37  1  0
 23 38  1  0
 24 39  1  0
M  CHG  2  15  -1  21  -1
M  END
>  <UniqueID>  (1) 
1

>  <SMILES>  (1) 
CSc1ccc(Cl)c(C(=O)NCC(=O)[N-]Cc2ccc([O-])cc2)c1

>  <Energy>  (1) 
35.35084892138723

>  <Genealogy>  (1) 
CSc1ccc(Cl)c(C(=O)NCC(=O)[N-]Cc2ccc([O-])cc2)c1 (protonated)
CSc1ccc(Cl)c(C(=O)NCC(=O)[N-]Cc2ccc([O-])cc2)c1 (3D coordinates assigned)
CSc1ccc(Cl)c(C(=O)NCC(=O)[N-]Cc2ccc([O-])cc2)c1 (optimized conformer: 35.35084892138723 kcal/mol)

>  <smiles>  (1) 
CSc1ccc(Cl)c(C(=O)NCC(=O)NCc2ccc(O)cc2)c1

>  <score_type>  (1) 
oracle

>  <origin>  (1) 
adg

>  <m_score__min__energy>  (1) 
-13.01

>  <m_primary>  (1) 
energy

$$$$
1:0
     RDKit          3D

 47 49  0  0  0  0  0  0  0  0999 V2000
   55.4210   24.6690   45.6130 C   0  0  0  0  0  0  0  0  0  0  0  0
   55.8830   25.5920   46.5920 O   0  0  0  0  0  0  0  0  0  0  0  0
   57.2390   25.9020   46.7570 C   0  0  0  0  0  0  0  0  0  0  0  0
   57.9570   25.2090   47.5310 O   0  0  0  0  0  0  0  0  0  0  0  0
   57.8300   27.0430   46.0210 C   0  0  0  0  0  0  0  0  0  0  0  0
   59.2250   27.1890   45.9280 C   0  0  0  0  0  0  0  0  0  0  0  0
   59.7780   28.2640   45.2260 C   0  0  0  0  0  0  0  0  0  0  0  0
   58.9480   29.2090   44.6190 C   0  0  0  0  0  0  0  0  0  0  0  0
   57.5550   29.0810   44.7070 C   0  0  0  0  0  0  0  0  0  0  0  0
   56.4920   30.2560   43.9390 S   0  0  0  0  0  0  0  0  0  0  0  0
   57.0110   30.5490   42.5590 O   0  0  0  0  0  0  0  0  0  0  0  0
   55.0910   29.7230   43.8260 O   0  0  0  0  0  0  0  0  0  0  0  0
   56.4780   31.7200   44.8650 N   0  0  0  0  0  0  0  0  0  0  0  0
   57.6300   32.3160   45.4750 C   0  0  0  0  0  0  0  0  0  0  0  0
   58.1740   31.8300   46.6770 C   0  0  0  0  0  0  0  0  0  0  0  0
   59.3130   32.4220   47.2270 C   0  0  0  0  0  0  0  0  0  0  0  0
   59.9310   33.5080   46.5860 C   0  0  0  0  0  0  0  0  0  0  0  0
   61.1160   34.1220   47.1200 N   0  0  0  0  0  0  0  0  0  0  0  0
   62.6580   33.3280   47.1520 S   0  0  0  0  0  0  0  0  0  0  0  0
   62.4670   31.8590   46.8970 O   0  0  0  0  0  0  0  0  0  0  0  0
   63.5400   33.8940   46.0730 O   0  0  0  0  0  0  0  0  0  0  0  0
   63.3890   33.5360   48.7420 C   0  0  0  0  0  0  0  0  0  0  0  0
   62.7490   34.2880   49.7390 C   0  0  0  0  0  0  0  0  0  0  0  0
   63.3450   34.4360   50.9960 C   0  0  0  0  0  0  0  0  0  0  0  0
   64.5810   33.8350   51.2630 C   0  0  0  0  0  0  0  0  0  0  0  0
   65.1630   33.9880   52.4800 F   0  0  0  0  0  0  0  0  0  0  0  0
   65.2180   33.0840   50.2720 C   0  0  0  0  0  0  0  0  0  0  0  0
   64.6230   32.9310   49.0160 C   0  0  0  0  0  0  0  0  0  0  0  0
   59.3690   34.0080   45.4010 C   0  0  0  0  0  0  0  0  0  0  0  0
   58.2280   33.4170   44.8510 C   0  0  0  0  0  0  0  0  0  0  0  0
   57.0000   27.9960   45.4010 C   0  0  0  0  0  0  0  0  0  0  0  0
   54.9825   23.7929   46.1131 H   0  0  0  0  0  0  0  0  0  0  0  0
   54.6585   25.1522   44.9844 H   0  0  0  0  0  0  0  0  0  0  0  0
   56.2648   24.3482   44.9844 H   0  0  0  0  0  0  0  0  0  0  0  0
   59.8852   26.4532   46.4104 H   0  0  0  0  0  0  0  0  0  0  0  0
   60.8707   28.3659   45.1515 H   0  0  0  0  0  0  0  0  0  0  0  0
   59.3882   30.0551   44.0710 H   0  0  0  0  0  0  0  0  0  0  0  0
   57.6997   30.9786   47.1871 H   0  0  0  0  0  0  0  0  0  0  0  0
   59.7290   32.0350   48.1689 H   0  0  0  0  0  0  0  0  0  0  0  0
   61.1000   35.1410   47.3540 H   0  0  0  0  0  0  0  0  0  0  0  0
   61.7779   34.7615   49.5320 H   0  0  0  0  0  0  0  0  0  0  0  0
   62.8415   35.0258   51.7762 H   0  0  0  0  0  0  0  0  0  0  0  0
   66.1896   32.6121   50.4803 H   0  0  0  0  0  0  0  0  0  0  0  0
   65.1251   32.3339   48.2405 H   0  0  0  0  0  0  0  0  0  0  0  0
   59.8304   34.8723   44.9009 H   0  0  0  0  0  0  0  0  0  0  0  0
   57.7974   33.8195   43.9222 H   0  0  0  0  0  0  0  0  0  0  0  0
   55.9069   27.8888   45.4613 H   0  0  0  0  0  0  0  0  0  0  0  0
  1  2  1  0
  2  3  1  0
  3  4  2  0
  3  5  1  0
  5  6  2  0
  6  7  1  0
  7  8  2  0
  8  9  1  0
  9 10  1  0
 10 11  2  0
 10 12  2  0
 10 13  1  0
 13 14  1  0
 14 15  2  0
 15 16  1  0
 16 17  2  0
 17 18  1  0
 18 19  1  0
 19 20  2  0
 19 21  2  0
 19 22  1  0
 22 23  2  0
 23 24  1  0
 24 25  2  0
 25 26  1  0
 25 27  1  0
 27 28  2  0
 17 29  1  0
 29 30  2  0
  9 31  2  0
 31  5  1  0
 30 14  1  0
 28 22  1  0
  1 32  1  0
  1 33  1  0
  1 34  1  0
  6 35  1  0
  7 36  1  0
  8 37  1  0
 15 38  1  0
 16 39  1  0
 18 40  1  0
 23 41  1  0
 24 42  1  0
 27 43  1  0
 28 44  1  0
 29 45  1  0
 30 46  1  0
 31 47  1  0
M  CHG  1  13  -1
M  END
>  <UniqueID>  (2) 
2

>  <SMILES>  (2) 
COC(=O)c1cccc(S(=O)(=O)[N-]c2ccc(NS(=O)(=O)c3ccc(F)cc3)cc2)c1

>  <Energy>  (2) 
53.09804575519094

>  <Genealogy>  (2) 
COC(=O)c1cccc(S(=O)(=O)[N-]c2ccc(NS(=O)(=O)c3ccc(F)cc3)cc2)c1 (protonated)
COC(=O)c1cccc(S(=O)(=O)[N-]c2ccc(NS(=O)(=O)c3ccc(F)cc3)cc2)c1 (3D coordinates assigned)
COC(=O)c1cccc(S(=O)(=O)[N-]c2ccc(NS(=O)(=O)c3ccc(F)cc3)cc2)c1 (optimized conformer: 53.09804575519094 kcal/mol)

>  <smiles>  (2) 
COC(=O)c1cccc(S(=O)(=O)Nc2ccc(NS(=O)(=O)c3ccc(F)cc3)cc2)c1

>  <score_type>  (2) 
oracle

>  <origin>  (2) 
adg

>  <m_score__min__energy>  (2) 
-10.85

>  <m_primary>  (2) 
energy

$$$$
2:0
     RDKit          3D

 46 49  0  0  0  0  0  0  0  0999 V2000
   60.5344   30.1136   48.6351 H   0  0  0  0  0  0  0  0  0  0  0  0
   59.7200   30.4790   49.2780 C   0  0  0  0  0  0  0  0  0  0  0  0
   58.9990   29.6600   50.0890 N   0  0  0  0  0  0  0  0  0  0  0  0
   58.0590   30.3480   50.7790 C   0  0  0  0  0  0  0  0  0  0  0  0
   57.2240   29.8110   51.6190 N   0  0  0  0  0  0  0  0  0  0  0  0
   56.1930   30.4900   52.3500 C   0  0  0  0  0  0  0  0  0  0  0  0
   56.4830   31.5680   52.9310 O   0  0  0  0  0  0  0  0  0  0  0  0
   54.8880   29.9050   52.5010 N   0  0  0  0  0  0  0  0  0  0  0  0
   53.7160   30.4390   52.2940 C   0  0  0  0  0  0  0  0  0  0  0  0
   52.8930   30.6120   53.3640 N   0  0  0  0  0  0  0  0  0  0  0  0
   51.6510   31.1530   53.2510 C   0  0  0  0  0  0  0  0  0  0  0  0
   51.0221   31.2777   54.1448 H   0  0  0  0  0  0  0  0  0  0  0  0
   51.1740   31.5500   52.0020 C   0  0  0  0  0  0  0  0  0  0  0  0
   50.1744   31.9987   51.9046 H   0  0  0  0  0  0  0  0  0  0  0  0
   51.9800   31.3710   50.8780 C   0  0  0  0  0  0  0  0  0  0  0  0
   51.6135   31.6707   49.8851 H   0  0  0  0  0  0  0  0  0  0  0  0
   53.2530   30.8110   51.0130 C   0  0  0  0  0  0  0  0  0  0  0  0
   53.8894   30.6611   50.1284 H   0  0  0  0  0  0  0  0  0  0  0  0
   58.0750   31.9900   50.4170 S   0  0  0  0  0  0  0  0  0  0  0  0
   59.3440   31.8140   49.3280 C   0  0  0  0  0  0  0  0  0  0  0  0
   60.0710   33.1400   48.3720 S   0  0  0  0  0  0  0  0  0  0  0  0
   58.8990   32.9270   47.0330 C   0  0  0  0  0  0  0  0  0  0  0  0
   58.2840   34.0440   46.4570 C   0  0  0  0  0  0  0  0  0  0  0  0
   58.4993   35.0509   46.8441 H   0  0  0  0  0  0  0  0  0  0  0  0
   57.3970   33.8810   45.3910 C   0  0  0  0  0  0  0  0  0  0  0  0
   56.9191   34.7606   44.9349 H   0  0  0  0  0  0  0  0  0  0  0  0
   57.1150   32.6010   44.9020 C   0  0  0  0  0  0  0  0  0  0  0  0
   56.4286   32.4798   44.0510 H   0  0  0  0  0  0  0  0  0  0  0  0
   57.7020   31.4720   45.4900 C   0  0  0  0  0  0  0  0  0  0  0  0
   57.4050   30.1810   44.9410 N   0  0  0  0  0  0  0  0  0  0  0  0
   56.1100   29.5760   44.8270 C   0  0  0  0  0  0  0  0  0  0  0  0
   55.1390   30.2240   44.3560 O   0  0  0  0  0  0  0  0  0  0  0  0
   55.8990   28.2250   45.2530 N   0  0  0  0  0  0  0  0  0  0  0  0
   56.9030   27.3240   45.7430 C   0  0  0  0  0  0  0  0  0  0  0  0
   56.8260   25.9710   45.3850 C   0  0  0  0  0  0  0  0  0  0  0  0
   55.9987   25.6189   44.7513 H   0  0  0  0  0  0  0  0  0  0  0  0
   57.7950   25.0670   45.8290 C   0  0  0  0  0  0  0  0  0  0  0  0
   57.7197   24.0040   45.5564 H   0  0  0  0  0  0  0  0  0  0  0  0
   58.8600   25.5110   46.6190 C   0  0  0  0  0  0  0  0  0  0  0  0
   59.6167   24.7965   46.9751 H   0  0  0  0  0  0  0  0  0  0  0  0
   58.9620   26.8650   46.9560 C   0  0  0  0  0  0  0  0  0  0  0  0
   60.3140   27.4270   47.9210 Cl  0  0  0  0  0  0  0  0  0  0  0  0
   57.9930   27.7720   46.5130 C   0  0  0  0  0  0  0  0  0  0  0  0
   58.0832   28.8384   46.7672 H   0  0  0  0  0  0  0  0  0  0  0  0
   58.6110   31.6430   46.5500 C   0  0  0  0  0  0  0  0  0  0  0  0
   59.0976   30.7658   47.0015 H   0  0  0  0  0  0  0  0  0  0  0  0
  1  2  1  0
  2  3  1  0
  3  4  1  0
  4  5  2  3
  5  6  1  0
  6  7  2  0
  6  8  1  0
  8  9  2  0
  9 10  1  0
 10 11  1  0
 11 12  1  0
 11 13  2  0
 13 14  1  0
 13 15  1  0
 15 16  1  0
 15 17  2  0
 17 18  1  0
  4 19  1  0
 19 20  1  0
 20 21  1  0
 21 22  1  0
 22 23  2  0
 23 24  1  0
 23 25  1  0
 25 26  1  0
 25 27  2  0
 27 28  1  0
 27 29  1  0
 29 30  1  0
 30 31  1  0
 31 32  2  0
 31 33  1  0
 33 34  1  0
 34 35  2  0
 35 36  1  0
 35 37  1  0
 37 38  1  0
 37 39  2  0
 39 40  1  0
 39 41  1  0
 41 42  1  0
 41 43  2  0
 43 44  1  0
 29 45  2  0
 45 46  1  0
 20  2  2  0
 45 22  1  0
 17  9  1  0
 43 34  1  0
M  CHG  4   3  -1  10  -1  30  -1  33  -1
M  END
>  <UniqueID>  (3) 
3

>  <SMILES>  (3) 
O=C(N=c1[n-]cc(Sc2cccc([N-]C(=O)[N-]c3cccc(Cl)c3)c2)s1)/N=c1\cccc[n-]1

>  <Energy>  (3) 
93.8702169718726

>  <Genealogy>  (3) 
O=C(N=c1cccc[n-]1)N=c1[n-]cc(Sc2cccc([N-]C(=O)[N-]c3cccc(Cl)c3)c2)s1 (protonated)
O=C(N=c1[n-]cc(Sc2cccc([N-]C(=O)[N-]c3cccc(Cl)c3)c2)s1)/N=c1\cccc[n-]1 (cis-trans isomerization)
O=C(N=c1[n-]cc(Sc2cccc([N-]C(=O)[N-]c3cccc(Cl)c3)c2)s1)/N=c1\cccc[n-]1 (3D coordinates assigned)
O=C(N=c1[n-]cc(Sc2cccc([N-]C(=O)[N-]c3cccc(Cl)c3)c2)s1)/N=c1\cccc[n-]1 (optimized conformer: 93.8702169718726 kcal/mol)

>  <smiles>  (3) 
O=C(N=c1cccc[nH]1)N=c1[nH]cc(Sc2cccc(NC(=O)Nc3cccc(Cl)c3)c2)s1

>  <score_type>  (3) 
oracle

>  <origin>  (3) 
adg

>  <m_score__min__energy>  (3) 
-15.58

>  <m_primary>  (3) 
energy

$$$$
3:0
     RDKit          3D

 58 61  0  0  0  0  0  0  0  0999 V2000
   57.4100   30.3570   46.4110 O   0  0  0  0  0  0  0  0  0  0  0  0
   57.5670   30.7410   45.2220 C   0  0  0  0  0  0  0  0  0  0  0  0
   58.4470   29.9610   44.2930 C   0  0  0  0  0  0  0  0  0  0  0  0
   59.7910   29.5820   44.9360 C   0  0  0  0  0  0  0  0  0  0  0  0
   59.7420   28.4580   45.9620 C   0  0  0  0  0  0  0  0  0  0  0  0
   59.7860   27.1220   45.5040 C   0  0  0  0  0  0  0  0  0  0  0  0
   59.6330   26.0540   46.3830 C   0  0  0  0  0  0  0  0  0  0  0  0
   59.3650   26.2910   47.7240 C   0  0  0  0  0  0  0  0  0  0  0  0
   59.2590   27.5970   48.1970 C   0  0  0  0  0  0  0  0  0  0  0  0
   59.4860   28.7030   47.3490 C   0  0  0  0  0  0  0  0  0  0  0  0
   59.3590   30.0450   47.9020 N   0  0  0  0  0  0  0  0  0  0  0  0
   60.2940   30.3000   48.9890 C   0  0  0  0  0  0  0  0  0  0  0  0
   59.8710   30.2640   50.3470 C   0  0  0  0  0  0  0  0  0  0  0  0
   58.1790   30.2130   50.8120 Cl  0  0  0  0  0  0  0  0  0  0  0  0
   60.8010   30.4080   51.3820 C   0  0  0  0  0  0  0  0  0  0  0  0
   62.1380   30.6620   51.0980 C   0  0  0  0  0  0  0  0  0  0  0  0
   62.5460   30.8390   49.7790 C   0  0  0  0  0  0  0  0  0  0  0  0
   61.6350   30.6970   48.7260 C   0  0  0  0  0  0  0  0  0  0  0  0
   62.2110   31.1120   47.1100 Cl  0  0  0  0  0  0  0  0  0  0  0  0
   56.9080   31.9150   44.7450 N   0  0  0  0  0  0  0  0  0  0  0  0
   57.6920   33.4550   44.6670 S   0  0  0  0  0  0  0  0  0  0  0  0
   56.6500   34.5290   44.5270 O   0  0  0  0  0  0  0  0  0  0  0  0
   58.5970   33.4910   43.4700 O   0  0  0  0  0  0  0  0  0  0  0  0
   58.6540   33.6960   46.1180 C   0  0  0  0  0  0  0  0  0  0  0  0
   58.2020   33.1870   47.3400 C   0  0  0  0  0  0  0  0  0  0  0  0
   58.9520   33.3770   48.5020 C   0  0  0  0  0  0  0  0  0  0  0  0
   60.1760   34.0720   48.4510 C   0  0  0  0  0  0  0  0  0  0  0  0
   60.9520   34.3210   49.5950 O   0  0  0  0  0  0  0  0  0  0  0  0
   62.3010   33.9780   49.7660 C   0  0  0  0  0  0  0  0  0  0  0  0
   63.1540   33.7300   48.6740 C   0  0  0  0  0  0  0  0  0  0  0  0
   64.4940   33.3910   48.8900 C   0  0  0  0  0  0  0  0  0  0  0  0
   64.9970   33.3260   50.1920 C   0  0  0  0  0  0  0  0  0  0  0  0
   64.1620   33.6000   51.2780 C   0  0  0  0  0  0  0  0  0  0  0  0
   62.8190   33.9290   51.0640 C   0  0  0  0  0  0  0  0  0  0  0  0
   60.6180   34.5860   47.2260 C   0  0  0  0  0  0  0  0  0  0  0  0
   59.8670   34.3970   46.0640 C   0  0  0  0  0  0  0  0  0  0  0  0
   57.9228   29.0389   44.0013 H   0  0  0  0  0  0  0  0  0  0  0  0
   58.6606   30.5972   43.4214 H   0  0  0  0  0  0  0  0  0  0  0  0
   60.4752   29.2747   44.1314 H   0  0  0  0  0  0  0  0  0  0  0  0
   60.1205   30.4751   45.4873 H   0  0  0  0  0  0  0  0  0  0  0  0
   59.9440   26.9226   44.4338 H   0  0  0  0  0  0  0  0  0  0  0  0
   59.7245   25.0215   46.0148 H   0  0  0  0  0  0  0  0  0  0  0  0
   59.2359   25.4452   48.4153 H   0  0  0  0  0  0  0  0  0  0  0  0
   58.9936   27.7698   49.2504 H   0  0  0  0  0  0  0  0  0  0  0  0
   58.3920   30.2040   48.2710 H   0  0  0  0  0  0  0  0  0  0  0  0
   59.4680   30.7250   47.1180 H   0  0  0  0  0  0  0  0  0  0  0  0
   60.4721   30.3196   52.4280 H   0  0  0  0  0  0  0  0  0  0  0  0
   62.8725   30.7230   51.9146 H   0  0  0  0  0  0  0  0  0  0  0  0
   63.5941   31.0928   49.5622 H   0  0  0  0  0  0  0  0  0  0  0  0
   57.2517   32.6348   47.3855 H   0  0  0  0  0  0  0  0  0  0  0  0
   58.5856   32.9824   49.4612 H   0  0  0  0  0  0  0  0  0  0  0  0
   62.7656   33.8030   47.6474 H   0  0  0  0  0  0  0  0  0  0  0  0
   65.1516   33.1756   48.0349 H   0  0  0  0  0  0  0  0  0  0  0  0
   66.0505   33.0591   50.3619 H   0  0  0  0  0  0  0  0  0  0  0  0
   64.5607   33.5570   52.3023 H   0  0  0  0  0  0  0  0  0  0  0  0
   62.1669   34.1504   51.9217 H   0  0  0  0  0  0  0  0  0  0  0  0
   61.5650   35.1435   47.1785 H   0  0  0  0  0  0  0  0  0  0  0  0
   60.2274   34.7985   45.1054 H   0  0  0  0  0  0  0  0  0  0  0  0
  1  2  2  0
  2  3  1  0
  3  4  1  0
  4  5  1  0
  5  6  2  0
  6  7  1  0
  7  8  2  0
  8  9  1  0
  9 10  2  0
 10 11  1  0
 11 12  1  0
 12 13  2  0
 13 14  1  0
 13 15  1  0
 15 16  2  0
 16 17  1  0
 17 18  2  0
 18 19  1  0
  2 20  1  0
 20 21  1  0
 21 22  2  0
 21 23  2  0
 21 24  1  0
 24 25  2  0
 25 26  1  0
 26 27  2  0
 27 28  1  0
 28 29  1  0
 29 30  2  0
 30 31  1  0
 31 32  2  0
 32 33  1  0
 33 34  2  0
 27 35  1  0
 35 36  2  0
 10  5  1  0
 18 12  1  0
 36 24  1  0
 34 29  1  0
  3 37  1  0
  3 38  1  0
  4 39  1  0
  4 40  1  0
  6 41  1  0
  7 42  1  0
  8 43  1  0
  9 44  1  0
 11 45  1  0
 11 46  1  0
 15 47  1  0
 16 48  1  0
 17 49  1  0
 25 50  1  0
 26 51  1  0
 30 52  1  0
 31 53  1  0
 32 54  1  0
 33 55  1  0
 34 56  1  0
 35 57  1  0
 36 58  1  0
M  CHG  2  11   1  20  -1
M  END
>  <UniqueID>  (4) 
4

>  <SMILES>  (4) 
O=C(CCc1ccccc1[NH2+]c1c(Cl)cccc1Cl)[N-]S(=O)(=O)c1ccc(Oc2ccccc2)cc1

>  <Energy>  (4) 
77.34738709160055

>  <Genealogy>  (4) 
O=C(CCc1ccccc1[NH2+]c1c(Cl)cccc1Cl)[N-]S(=O)(=O)c1ccc(Oc2ccccc2)cc1 (protonated)
O=C(CCc1ccccc1[NH2+]c1c(Cl)cccc1Cl)[N-]S(=O)(=O)c1ccc(Oc2ccccc2)cc1 (3D coordinates assigned)
O=C(CCc1ccccc1[NH2+]c1c(Cl)cccc1Cl)[N-]S(=O)(=O)c1ccc(Oc2ccccc2)cc1 (optimized conformer: 77.34738709160055 kcal/mol)

>  <smiles>  (4) 
O=C(CCc1ccccc1Nc1c(Cl)cccc1Cl)NS(=O)(=O)c1ccc(Oc2ccccc2)cc1

>  <score_type>  (4) 
oracle

>  <origin>  (4) 
adg

>  <m_score__min__energy>  (4) 
-10.279999999999999

>  <m_primary>  (4) 
energy

$$$$
4:0
     RDKit          3D

 46 47  0  0  0  0  0  0  0  0999 V2000
   54.9780   28.6050   52.0090 O   0  0  0  0  0  0  0  0  0  0  0  0
   55.4900   29.7010   52.3690 C   0  0  0  0  0  0  0  0  0  0  0  0
   54.6160   30.8900   52.6390 C   0  0  0  0  0  0  0  0  0  0  0  0
   53.3870   30.5120   53.4810 C   0  0  0  0  0  0  0  0  0  0  0  0
   52.1880   31.4300   53.2060 C   0  0  0  0  0  0  0  0  0  0  0  0
   51.7800   31.3990   51.7640 C   0  0  0  0  0  0  0  0  0  0  0  0
   51.3050   32.4630   51.0910 N   0  0  0  0  0  0  0  0  0  0  0  0
   51.0310   31.9580   49.8680 C   0  0  0  0  0  0  0  0  0  0  0  0
   50.5660   32.6620   48.9340 O   0  0  0  0  0  0  0  0  0  0  0  0
   51.2930   30.6410   49.7250 N   0  0  0  0  0  0  0  0  0  0  0  0
   51.7620   30.3020   50.9360 C   0  0  0  0  0  0  0  0  0  0  0  0
   52.1610   29.0140   51.2840 O   0  0  0  0  0  0  0  0  0  0  0  0
   56.9110   29.8370   52.4590 N   0  0  0  0  0  0  0  0  0  0  0  0
   57.7870   29.6620   51.3070 C   0  0  0  0  0  0  0  0  0  0  0  0
   57.9460   30.9820   50.5440 C   0  0  0  0  0  0  0  0  0  0  0  0
   58.7940   30.8710   49.2640 C   0  0  0  0  0  0  0  0  0  0  0  0
   59.4220   29.4850   49.0690 C   0  0  0  0  0  0  0  0  0  0  0  0
   59.4830   29.1740   47.6770 O   0  0  0  0  0  0  0  0  0  0  0  0
   58.5960   29.6600   46.7020 C   0  0  0  0  0  0  0  0  0  0  0  0
   58.7530   30.9500   46.1550 C   0  0  0  0  0  0  0  0  0  0  0  0
   57.8400   31.4410   45.2230 C   0  0  0  0  0  0  0  0  0  0  0  0
   56.7650   30.6540   44.8170 C   0  0  0  0  0  0  0  0  0  0  0  0
   56.6000   29.3650   45.3290 C   0  0  0  0  0  0  0  0  0  0  0  0
   55.5260   28.6060   44.8730 O   0  0  0  0  0  0  0  0  0  0  0  0
   57.5150   28.8460   46.2760 C   0  0  0  0  0  0  0  0  0  0  0  0
   57.3600   27.4580   46.7960 C   0  0  0  0  0  0  0  0  0  0  0  0
   58.2680   26.9230   47.4890 O   0  0  0  0  0  0  0  0  0  0  0  0
   56.2010   26.7300   46.5500 O   0  0  0  0  0  0  0  0  0  0  0  0
   55.2012   31.6467   53.1820 H   0  0  0  0  0  0  0  0  0  0  0  0
   54.2632   31.2827   51.6740 H   0  0  0  0  0  0  0  0  0  0  0  0
   53.1012   29.4764   53.2447 H   0  0  0  0  0  0  0  0  0  0  0  0
   53.6587   30.6217   54.5413 H   0  0  0  0  0  0  0  0  0  0  0  0
   51.3390   31.1007   53.8230 H   0  0  0  0  0  0  0  0  0  0  0  0
   52.4829   32.4601   53.4550 H   0  0  0  0  0  0  0  0  0  0  0  0
   53.1420   28.7650   51.2960 H   0  0  0  0  0  0  0  0  0  0  0  0
   58.7748   29.3229   51.6523 H   0  0  0  0  0  0  0  0  0  0  0  0
   57.3419   28.9148   50.6336 H   0  0  0  0  0  0  0  0  0  0  0  0
   56.9448   31.3421   50.2647 H   0  0  0  0  0  0  0  0  0  0  0  0
   58.4751   31.6743   51.2155 H   0  0  0  0  0  0  0  0  0  0  0  0
   58.1499   31.0870   48.3989 H   0  0  0  0  0  0  0  0  0  0  0  0
   59.6195   31.5920   49.3572 H   0  0  0  0  0  0  0  0  0  0  0  0
   60.4387   29.4823   49.4888 H   0  0  0  0  0  0  0  0  0  0  0  0
   58.8071   28.7317   49.5832 H   0  0  0  0  0  0  0  0  0  0  0  0
   59.6034   31.5744   46.4664 H   0  0  0  0  0  0  0  0  0  0  0  0
   57.9688   32.4514   44.8076 H   0  0  0  0  0  0  0  0  0  0  0  0
   56.0417   31.0499   44.0889 H   0  0  0  0  0  0  0  0  0  0  0  0
  1  2  2  0
  2  3  1  0
  3  4  1  0
  4  5  1  0
  5  6  1  0
  6  7  1  0
  7  8  1  0
  8  9  2  0
  8 10  1  0
 10 11  1  0
 11 12  1  0
  2 13  1  0
 13 14  1  0
 14 15  1  0
 15 16  1  0
 16 17  1  0
 17 18  1  0
 18 19  1  0
 19 20  2  0
 20 21  1  0
 21 22  2  0
 22 23  1  0
 23 24  1  0
 23 25  2  0
 25 26  1  0
 26 27  2  0
 26 28  1  0
 11  6  2  0
 25 19  1  0
  3 29  1  0
  3 30  1  0
  4 31  1  0
  4 32  1  0
  5 33  1  0
  5 34  1  0
 12 35  1  0
 14 36  1  0
 14 37  1  0
 15 38  1  0
 15 39  1  0
 16 40  1  0
 16 41  1  0
 17 42  1  0
 17 43  1  0
 20 44  1  0
 21 45  1  0
 22 46  1  0
M  CHG  5   7  -1  10  -1  13  -1  24  -1  28  -1
M  END
>  <UniqueID>  (5) 
5

>  <SMILES>  (5) 
O=C(CCCc1[n-]c(=O)[n-]c1O)[N-]CCCCOc1cccc([O-])c1C(=O)[O-]

>  <Energy>  (5) 
65.08766055086897

>  <Genealogy>  (5) 
O=C(CCCc1[n-]c(=O)[n-]c1O)[N-]CCCCOc1cccc([O-])c1C(=O)[O-] (protonated)
O=C(CCCc1[n-]c(=O)[n-]c1O)[N-]CCCCOc1cccc([O-])c1C(=O)[O-] (3D coordinates assigned)
O=C(CCCc1[n-]c(=O)[n-]c1O)[N-]CCCCOc1cccc([O-])c1C(=O)[O-] (optimized conformer: 65.08766055086897 kcal/mol)

>  <smiles>  (5) 
O=C(CCCc1[nH]c(=O)[nH]c1O)NCCCCOc1cccc(O)c1C(=O)O

>  <score_type>  (5) 
oracle

>  <origin>  (5) 
adg

>  <m_score__min__energy>  (5) 
-19.870000000000001

>  <m_primary>  (5) 
energy

$$$$
5:0
     RDKit          3D

 45 47  0  0  0  0  0  0  0  0999 V2000
   57.7140   21.1450   43.3390 C   0  0  0  0  0  0  0  0  0  0  0  0
   56.3670   22.2280   43.7850 S   0  0  0  0  0  0  0  0  0  0  0  0
   55.4990   21.5370   44.7990 O   0  0  0  0  0  0  0  0  0  0  0  0
   55.5450   22.5030   42.5570 O   0  0  0  0  0  0  0  0  0  0  0  0
   56.9370   23.7460   44.4390 N   0  0  0  0  0  0  0  0  0  0  0  0
   57.4850   24.6000   43.3660 C   0  0  0  0  0  0  0  0  0  0  0  0
   57.6570   26.0750   43.7970 C   0  0  0  0  0  0  0  0  0  0  0  0
   57.5270   26.2440   45.2500 N   0  0  0  0  0  0  0  0  0  0  0  0
   58.2800   27.2690   45.9130 C   0  0  0  0  0  0  0  0  0  0  0  0
   59.5550   26.9720   46.4120 C   0  0  0  0  0  0  0  0  0  0  0  0
   60.3010   27.9520   47.0680 C   0  0  0  0  0  0  0  0  0  0  0  0
   59.7700   29.2330   47.2450 C   0  0  0  0  0  0  0  0  0  0  0  0
   60.6960   30.4520   48.1020 Cl  0  0  0  0  0  0  0  0  0  0  0  0
   58.4940   29.5360   46.7580 C   0  0  0  0  0  0  0  0  0  0  0  0
   57.7440   28.5620   46.0730 C   0  0  0  0  0  0  0  0  0  0  0  0
   56.4080   28.8230   45.6120 N   0  0  0  0  0  0  0  0  0  0  0  0
   56.0160   29.6630   44.5180 C   0  0  0  0  0  0  0  0  0  0  0  0
   55.0210   29.3600   43.8080 O   0  0  0  0  0  0  0  0  0  0  0  0
   56.8180   30.8710   44.2290 C   0  0  0  0  0  0  0  0  0  0  0  0
   57.2910   31.5790   45.2920 N   0  0  0  0  0  0  0  0  0  0  0  0
   58.0830   32.6730   45.1470 C   0  0  0  0  0  0  0  0  0  0  0  0
   58.4580   33.0990   43.8750 C   0  0  0  0  0  0  0  0  0  0  0  0
   57.9860   32.4080   42.7610 C   0  0  0  0  0  0  0  0  0  0  0  0
   57.1400   31.3050   42.9180 C   0  0  0  0  0  0  0  0  0  0  0  0
   56.6200   30.7110   41.7650 O   0  0  0  0  0  0  0  0  0  0  0  0
   56.4770   25.5480   46.0020 C   0  0  0  0  0  0  0  0  0  0  0  0
   55.8600   24.4300   45.1660 C   0  0  0  0  0  0  0  0  0  0  0  0
   58.1926   20.7602   44.2516 H   0  0  0  0  0  0  0  0  0  0  0  0
   57.3269   20.3038   42.7453 H   0  0  0  0  0  0  0  0  0  0  0  0
   58.4525   21.7037   42.7453 H   0  0  0  0  0  0  0  0  0  0  0  0
   58.4678   24.2042   43.0704 H   0  0  0  0  0  0  0  0  0  0  0  0
   56.7677   24.5821   42.5322 H   0  0  0  0  0  0  0  0  0  0  0  0
   58.6541   26.4212   43.4873 H   0  0  0  0  0  0  0  0  0  0  0  0
   56.8629   26.6639   43.3148 H   0  0  0  0  0  0  0  0  0  0  0  0
   59.9701   25.9612   46.2860 H   0  0  0  0  0  0  0  0  0  0  0  0
   61.3069   27.7165   47.4458 H   0  0  0  0  0  0  0  0  0  0  0  0
   58.0746   30.5413   46.9114 H   0  0  0  0  0  0  0  0  0  0  0  0
   58.4285   33.2229   46.0348 H   0  0  0  0  0  0  0  0  0  0  0  0
   59.1184   33.9700   43.7515 H   0  0  0  0  0  0  0  0  0  0  0  0
   58.2804   32.7318   41.7518 H   0  0  0  0  0  0  0  0  0  0  0  0
   55.8890   30.0140   41.7800 H   0  0  0  0  0  0  0  0  0  0  0  0
   56.9133   25.1165   46.9149 H   0  0  0  0  0  0  0  0  0  0  0  0
   55.6892   26.2716   46.2583 H   0  0  0  0  0  0  0  0  0  0  0  0
   55.3441   23.7155   45.8242 H   0  0  0  0  0  0  0  0  0  0  0  0
   55.1308   24.8475   44.4561 H   0  0  0  0  0  0  0  0  0  0  0  0
  1  2  1  0
  2  3  2  0
  2  4  2  0
  2  5  1  0
  5  6  1  0
  6  7  1  0
  7  8  1  0
  8  9  1  0
  9 10  2  0
 10 11  1  0
 11 12  2  0
 12 13  1  0
 12 14  1  0
 14 15  2  0
 15 16  1  0
 16 17  1  0
 17 18  2  0
 17 19  1  0
 19 20  2  0
 20 21  1  0
 21 22  2  0
 22 23  1  0
 23 24  2  0
 24 25  1  0
  8 26  1  0
 26 27  1  0
 27  5  1  0
 15  9  1  0
 24 19  1  0
  1 28  1  0
  1 29  1  0
  1 30  1  0
  6 31  1  0
  6 32  1  0
  7 33  1  0
  7 34  1  0
 10 35  1  0
 11 36  1  0
 14 37  1  0
 21 38  1  0
 22 39  1  0
 23 40  1  0
 25 41  1  0
 26 42  1  0
 26 43  1  0
 27 44  1  0
 27 45  1  0
M  CHG  1  16  -1
M  END
>  <UniqueID>  (6) 
6

>  <SMILES>  (6) 
CS(=O)(=O)N1CCN(c2ccc(Cl)cc2[N-]C(=O)c2ncccc2O)CC1

>  <Energy>  (6) 
59.87428951428443

>  <Genealogy>  (6) 
CS(=O)(=O)N1CCN(c2ccc(Cl)cc2[N-]C(=O)c2ncccc2O)CC1 (protonated)
CS(=O)(=O)N1CCN(c2ccc(Cl)cc2[N-]C(=O)c2ncccc2O)CC1 (3D coordinates assigned)
CS(=O)(=O)N1CCN(c2ccc(Cl)cc2[N-]C(=O)c2ncccc2O)CC1 (nonaromatic ring conformer: 59.87428951428443 kcal/mol)

>  <smiles>  (6) 
CS(=O)(=O)N1CCN(c2ccc(Cl)cc2NC(=O)c2ncccc2O)CC1

>  <score_type>  (6) 
oracle

>  <origin>  (6) 
adg

>  <m_score__min__energy>  (6) 
-10.970000000000001

>  <m_primary>  (6) 
energy

$$$$
6:0
     RDKit          3D

 49 51  0  0  0  0  0  0  0  0999 V2000
   53.4460   23.7610   45.3510 C   0  0  0  0  0  0  0  0  0  0  0  0
   54.5600   24.7370   45.5420 C   0  0  0  0  0  0  0  0  0  0  0  0
   54.3890   25.9990   45.9930 N   0  0  0  0  0  0  0  0  0  0  0  0
   55.5670   26.5540   46.0310 O   0  0  0  0  0  0  0  0  0  0  0  0
   56.4890   25.7100   45.6320 C   0  0  0  0  0  0  0  0  0  0  0  0
   57.7530   25.9810   45.5450 N   0  0  0  0  0  0  0  0  0  0  0  0
   58.4490   27.4010   46.2510 S   0  0  0  0  0  0  0  0  0  0  0  0
   59.9480   27.3330   46.1580 O   0  0  0  0  0  0  0  0  0  0  0  0
   58.0480   27.5020   47.6960 O   0  0  0  0  0  0  0  0  0  0  0  0
   57.8650   28.8140   45.3790 C   0  0  0  0  0  0  0  0  0  0  0  0
   57.1620   28.6610   44.1780 C   0  0  0  0  0  0  0  0  0  0  0  0
   56.6980   29.7830   43.4890 C   0  0  0  0  0  0  0  0  0  0  0  0
   56.9190   31.0640   44.0020 C   0  0  0  0  0  0  0  0  0  0  0  0
   57.5980   31.2310   45.2230 C   0  0  0  0  0  0  0  0  0  0  0  0
   57.8590   32.5380   45.7630 N   0  0  0  0  0  0  0  0  0  0  0  0
   58.4640   33.6080   45.0220 C   0  0  0  0  0  0  0  0  0  0  0  0
   58.5640   33.5450   43.7660 O   0  0  0  0  0  0  0  0  0  0  0  0
   58.9840   34.8150   45.7410 C   0  0  0  0  0  0  0  0  0  0  0  0
   59.8140   34.3880   46.9190 C   0  0  0  0  0  0  0  0  0  0  0  0
   59.2990   34.4830   48.2230 C   0  0  0  0  0  0  0  0  0  0  0  0
   60.0610   34.0540   49.3130 C   0  0  0  0  0  0  0  0  0  0  0  0
   61.3340   33.5160   49.1110 C   0  0  0  0  0  0  0  0  0  0  0  0
   61.8500   33.3960   47.8140 C   0  0  0  0  0  0  0  0  0  0  0  0
   63.4530   32.7160   47.5520 S   0  0  0  0  0  0  0  0  0  0  0  0
   64.4700   33.0910   48.8980 N   0  0  0  0  0  0  0  0  0  0  0  0
   63.3450   31.2260   47.3990 O   0  0  0  0  0  0  0  0  0  0  0  0
   64.0620   33.3030   46.3080 O   0  0  0  0  0  0  0  0  0  0  0  0
   61.0900   33.8350   46.7210 C   0  0  0  0  0  0  0  0  0  0  0  0
   58.0810   30.0990   45.8970 C   0  0  0  0  0  0  0  0  0  0  0  0
   55.9050   24.5040   45.3180 C   0  0  0  0  0  0  0  0  0  0  0  0
   56.5520   23.2830   44.7440 C   0  0  0  0  0  0  0  0  0  0  0  0
   53.0727   23.4340   46.3327 H   0  0  0  0  0  0  0  0  0  0  0  0
   52.6305   24.2406   44.7898 H   0  0  0  0  0  0  0  0  0  0  0  0
   53.8142   22.8895   44.7898 H   0  0  0  0  0  0  0  0  0  0  0  0
   56.9748   27.6542   43.7763 H   0  0  0  0  0  0  0  0  0  0  0  0
   56.1568   29.6584   42.5395 H   0  0  0  0  0  0  0  0  0  0  0  0
   56.5608   31.9450   43.4492 H   0  0  0  0  0  0  0  0  0  0  0  0
   57.5330   32.7420   46.7350 H   0  0  0  0  0  0  0  0  0  0  0  0
   59.6037   35.4102   45.0543 H   0  0  0  0  0  0  0  0  0  0  0  0
   58.1362   35.4202   46.0945 H   0  0  0  0  0  0  0  0  0  0  0  0
   58.2928   34.8964   48.3863 H   0  0  0  0  0  0  0  0  0  0  0  0
   59.6573   34.1402   50.3326 H   0  0  0  0  0  0  0  0  0  0  0  0
   61.9330   33.1857   49.9724 H   0  0  0  0  0  0  0  0  0  0  0  0
   65.4570   33.0480   48.5570 H   0  0  0  0  0  0  0  0  0  0  0  0
   61.4952   33.7459   45.7022 H   0  0  0  0  0  0  0  0  0  0  0  0
   58.6340   30.2207   46.8401 H   0  0  0  0  0  0  0  0  0  0  0  0
   56.8968   22.6323   45.5611 H   0  0  0  0  0  0  0  0  0  0  0  0
   55.8238   22.7390   44.1245 H   0  0  0  0  0  0  0  0  0  0  0  0
   57.4110   23.5801   44.1245 H   0  0  0  0  0  0  0  0  0  0  0  0
  1  2  1  0
  2  3  1  0
  3  4  1  0
  4  5  1  0
  5  6  2  3
  6  7  1  0
  7  8  2  0
  7  9  2  0
  7 10  1  0
 10 11  2  0
 11 12  1  0
 12 13  2  0
 13 14  1  0
 14 15  1  0
 15 16  1  0
 16 17  2  0
 16 18  1  0
 18 19  1  0
 19 20  2  0
 20 21  1  0
 21 22  2  0
 22 23  1  0
 23 24  1  0
 24 25  1  0
 24 26  2  0
 24 27  2  0
 23 28  2  0
 14 29  2  0
  5 30  1  0
 30 31  1  0
 30  2  2  0
 29 10  1  0
 28 19  1  0
  1 32  1  0
  1 33  1  0
  1 34  1  0
 11 35  1  0
 12 36  1  0
 13 37  1  0
 15 38  1  0
 18 39  1  0
 18 40  1  0
 20 41  1  0
 21 42  1  0
 22 43  1  0
 25 44  1  0
 28 45  1  0
 29 46  1  0
 31 47  1  0
 31 48  1  0
 31 49  1  0
M  CHG  2   3  -1  25  -1
M  END
>  <UniqueID>  (7) 
7

>  <SMILES>  (7) 
Cc1[n-]oc(=NS(=O)(=O)c2cccc(NC(=O)Cc3cccc(S([NH-])(=O)=O)c3)c2)c1C

>  <Energy>  (7) 
84.95457111608101

>  <Genealogy>  (7) 
Cc1[n-]oc(=NS(=O)(=O)c2cccc(NC(=O)Cc3cccc(S([NH-])(=O)=O)c3)c2)c1C (protonated)
Cc1[n-]oc(=NS(=O)(=O)c2cccc(NC(=O)Cc3cccc(S([NH-])(=O)=O)c3)c2)c1C (3D coordinates assigned)
Cc1[n-]oc(=NS(=O)(=O)c2cccc(NC(=O)Cc3cccc(S([NH-])(=O)=O)c3)c2)c1C (optimized conformer: 84.95457111608101 kcal/mol)

>  <smiles>  (7) 
Cc1[nH]oc(=NS(=O)(=O)c2cccc(NC(=O)Cc3cccc(S(N)(=O)=O)c3)c2)c1C

>  <score_type>  (7) 
oracle

>  <origin>  (7) 
adg

>  <m_score__min__energy>  (7) 
-15.529999999999999

>  <m_primary>  (7) 
energy

$$$$
7:0
     RDKit          3D

 46 49  0  0  0  0  0  0  0  0999 V2000
   58.1208   29.6146   43.9898 H   0  0  0  0  0  0  0  0  0  0  0  0
   58.1690   29.3780   45.0630 C   0  0  0  0  0  0  0  0  0  0  0  0
   58.8370   30.2250   45.8660 C   0  0  0  0  0  0  0  0  0  0  0  0
   60.5970   30.0000   46.1870 S   0  0  0  0  0  0  0  0  0  0  0  0
   60.3650   29.8420   47.9590 C   0  0  0  0  0  0  0  0  0  0  0  0
   59.1270   29.4280   48.4690 C   0  0  0  0  0  0  0  0  0  0  0  0
   58.2970   29.2030   47.7831 H   0  0  0  0  0  0  0  0  0  0  0  0
   58.9470   29.3010   49.8490 C   0  0  0  0  0  0  0  0  0  0  0  0
   57.9769   28.9700   50.2481 H   0  0  0  0  0  0  0  0  0  0  0  0
   59.9980   29.5940   50.7230 C   0  0  0  0  0  0  0  0  0  0  0  0
   59.8552   29.4916   51.8089 H   0  0  0  0  0  0  0  0  0  0  0  0
   61.2300   30.0170   50.2170 C   0  0  0  0  0  0  0  0  0  0  0  0
   62.0558   30.2503   50.9052 H   0  0  0  0  0  0  0  0  0  0  0  0
   61.4140   30.1440   48.8360 C   0  0  0  0  0  0  0  0  0  0  0  0
   62.3829   30.4811   48.4390 H   0  0  0  0  0  0  0  0  0  0  0  0
   58.1180   31.4200   46.3690 C   0  0  0  0  0  0  0  0  0  0  0  0
   57.0252   31.3450   46.4699 H   0  0  0  0  0  0  0  0  0  0  0  0
   58.6890   32.5870   46.7120 C   0  0  0  0  0  0  0  0  0  0  0  0
   58.7780   32.9950   48.4640 S   0  0  0  0  0  0  0  0  0  0  0  0
   60.5190   33.2590   48.1550 C   0  0  0  0  0  0  0  0  0  0  0  0
   61.5100   33.3560   49.1340 C   0  0  0  0  0  0  0  0  0  0  0  0
   61.2586   33.2352   50.1980 H   0  0  0  0  0  0  0  0  0  0  0  0
   62.8310   33.6100   48.7380 C   0  0  0  0  0  0  0  0  0  0  0  0
   63.6240   33.6914   49.4959 H   0  0  0  0  0  0  0  0  0  0  0  0
   63.1460   33.7610   47.3760 C   0  0  0  0  0  0  0  0  0  0  0  0
   64.1833   33.9660   47.0727 H   0  0  0  0  0  0  0  0  0  0  0  0
   62.1410   33.6510   46.4020 C   0  0  0  0  0  0  0  0  0  0  0  0
   62.3807   33.7648   45.3345 H   0  0  0  0  0  0  0  0  0  0  0  0
   60.8290   33.3940   46.8140 C   0  0  0  0  0  0  0  0  0  0  0  0
   59.7230   33.2050   45.9350 N   0  0  0  0  0  0  0  0  0  0  0  0
   59.4080   34.2190   44.9210 C   0  0  0  0  0  0  0  0  0  0  0  0
   59.7354   33.8535   43.9365 H   0  0  0  0  0  0  0  0  0  0  0  0
   59.9322   35.1484   45.1884 H   0  0  0  0  0  0  0  0  0  0  0  0
   57.9080   34.5130   44.8680 C   0  0  0  0  0  0  0  0  0  0  0  0
   57.5131   34.5904   45.8918 H   0  0  0  0  0  0  0  0  0  0  0  0
   57.7388   35.4614   44.3371 H   0  0  0  0  0  0  0  0  0  0  0  0
   57.3933   33.6987   44.3371 H   0  0  0  0  0  0  0  0  0  0  0  0
   57.4950   28.1480   45.5330 C   0  0  0  0  0  0  0  0  0  0  0  0
   56.1020   27.9830   45.4270 C   0  0  0  0  0  0  0  0  0  0  0  0
   55.3080   28.9770   44.8690 O   0  0  0  0  0  0  0  0  0  0  0  0
   55.5230   26.8310   45.8550 N   0  0  0  0  0  0  0  0  0  0  0  0
   56.2680   25.8200   46.3680 C   0  0  0  0  0  0  0  0  0  0  0  0
   55.7080   24.7640   46.7610 O   0  0  0  0  0  0  0  0  0  0  0  0
   57.6170   25.9430   46.4490 N   0  0  0  0  0  0  0  0  0  0  0  0
   58.2460   27.0740   46.0370 C   0  0  0  0  0  0  0  0  0  0  0  0
   59.5000   27.1510   46.1250 O   0  0  0  0  0  0  0  0  0  0  0  0
  1  2  1  0
  2  3  2  0
  3  4  1  0
  4  5  1  0
  5  6  2  0
  6  7  1  0
  6  8  1  0
  8  9  1  0
  8 10  2  0
 10 11  1  0
 10 12  1  0
 12 13  1  0
 12 14  2  0
 14 15  1  0
  3 16  1  0
 16 17  1  0
 16 18  2  0
 18 19  1  0
 19 20  1  0
 20 21  2  0
 21 22  1  0
 21 23  1  0
 23 24  1  0
 23 25  2  0
 25 26  1  0
 25 27  1  0
 27 28  1  0
 27 29  2  0
 29 30  1  0
 30 31  1  0
 31 32  1  0
 31 33  1  0
 31 34  1  0
 34 35  1  0
 34 36  1  0
 34 37  1  0
  2 38  1  0
 38 39  2  0
 39 40  1  0
 39 41  1  0
 41 42  1  0
 42 43  2  0
 42 44  1  0
 44 45  1  0
 45 46  2  0
 14  5  1  0
 30 18  1  0
 45 38  1  0
 29 20  1  0
M  CHG  3  40  -1  41  -1  44  -1
M  END
>  <UniqueID>  (8) 
8

>  <SMILES>  (8) 
CCN1/C(=C\C(=Cc2c([O-])[n-]c(=O)[n-]c2=O)Sc2ccccc2)Sc2ccccc21

>  <Energy>  (8) 
89.25804933762811

>  <Genealogy>  (8) 
CCN1C(=CC(=Cc2c([O-])[n-]c(=O)[n-]c2=O)Sc2ccccc2)Sc2ccccc21 (protonated)
CCN1/C(=C\C(=Cc2c([O-])[n-]c(=O)[n-]c2=O)Sc2ccccc2)Sc2ccccc21 (cis-trans isomerization)
CCN1/C(=C\C(=Cc2c([O-])[n-]c(=O)[n-]c2=O)Sc2ccccc2)Sc2ccccc21 (3D coordinates assigned)
CCN1/C(=C\C(=Cc2c([O-])[n-]c(=O)[n-]c2=O)Sc2ccccc2)Sc2ccccc21 (nonaromatic ring conformer: 89.25804933762811 kcal/mol)

>  <smiles>  (8) 
CCN1C(=CC(=Cc2c(O)[nH]c(=O)[nH]c2=O)Sc2ccccc2)Sc2ccccc21

>  <score_type>  (8) 
oracle

>  <origin>  (8) 
adg

>  <m_score__min__energy>  (8) 
-15.99

>  <m_primary>  (8) 
energy

$$$$
8:0
     RDKit          3D

 38 39  0  0  0  0  0  0  0  0999 V2000
   57.9800   34.6512   43.8551 H   0  0  0  0  0  0  0  0  0  0  0  0
   58.2480   33.6910   44.3200 C   0  0  0  0  0  0  0  0  0  0  0  0
   58.0770   32.5690   43.6010 C   0  0  0  0  0  0  0  0  0  0  0  0
   58.2405   32.6185   42.5143 H   0  0  0  0  0  0  0  0  0  0  0  0
   57.6800   31.2670   44.1910 C   0  0  0  0  0  0  0  0  0  0  0  0
   58.6230   30.5590   44.9510 C   0  0  0  0  0  0  0  0  0  0  0  0
   59.6324   30.9738   45.0890 H   0  0  0  0  0  0  0  0  0  0  0  0
   58.2940   29.3320   45.5350 C   0  0  0  0  0  0  0  0  0  0  0  0
   59.0477   28.7846   46.1199 H   0  0  0  0  0  0  0  0  0  0  0  0
   57.0030   28.7940   45.3780 C   0  0  0  0  0  0  0  0  0  0  0  0
   56.6290   27.5650   45.9430 O   0  0  0  0  0  0  0  0  0  0  0  0
   57.0170   26.2940   45.4330 C   0  0  0  0  0  0  0  0  0  0  0  0
   57.2254   25.6112   46.2699 H   0  0  0  0  0  0  0  0  0  0  0  0
   56.2037   25.8821   44.8175 H   0  0  0  0  0  0  0  0  0  0  0  0
   57.9217   26.4065   44.8175 H   0  0  0  0  0  0  0  0  0  0  0  0
   56.0530   29.5060   44.6350 C   0  0  0  0  0  0  0  0  0  0  0  0
   54.7690   28.9980   44.4800 O   0  0  0  0  0  0  0  0  0  0  0  0
   56.3840   30.7340   44.0500 C   0  0  0  0  0  0  0  0  0  0  0  0
   55.6260   31.2869   43.4758 H   0  0  0  0  0  0  0  0  0  0  0  0
   58.7780   33.7080   45.7060 C   0  0  0  0  0  0  0  0  0  0  0  0
   60.0850   34.1640   45.9200 C   0  0  0  0  0  0  0  0  0  0  0  0
   60.6871   34.5062   45.0654 H   0  0  0  0  0  0  0  0  0  0  0  0
   60.6340   34.1900   47.2040 C   0  0  0  0  0  0  0  0  0  0  0  0
   61.6602   34.5587   47.3490 H   0  0  0  0  0  0  0  0  0  0  0  0
   59.8880   33.7490   48.3170 C   0  0  0  0  0  0  0  0  0  0  0  0
   60.4550   33.7770   49.6530 N   0  0  0  0  0  0  0  0  0  0  0  0
   61.8750   34.0910   49.8550 C   0  0  0  0  0  0  0  0  0  0  0  0
   62.0903   34.1386   50.9327 H   0  0  0  0  0  0  0  0  0  0  0  0
   62.4932   33.3079   49.3918 H   0  0  0  0  0  0  0  0  0  0  0  0
   62.1054   35.0618   49.3918 H   0  0  0  0  0  0  0  0  0  0  0  0
   59.6170   33.4940   50.8240 C   0  0  0  0  0  0  0  0  0  0  0  0
   60.1917   33.6881   51.7417 H   0  0  0  0  0  0  0  0  0  0  0  0
   58.7282   34.1418   50.8040 H   0  0  0  0  0  0  0  0  0  0  0  0
   59.3030   32.4400   50.8040 H   0  0  0  0  0  0  0  0  0  0  0  0
   58.5790   33.2750   48.0940 C   0  0  0  0  0  0  0  0  0  0  0  0
   57.9787   32.9205   48.9449 H   0  0  0  0  0  0  0  0  0  0  0  0
   58.0330   33.2490   46.8080 C   0  0  0  0  0  0  0  0  0  0  0  0
   57.0128   32.8667   46.6559 H   0  0  0  0  0  0  0  0  0  0  0  0
  1  2  1  0
  2  3  2  0
  3  4  1  0
  3  5  1  0
  5  6  2  0
  6  7  1  0
  6  8  1  0
  8  9  1  0
  8 10  2  0
 10 11  1  0
 11 12  1  0
 12 13  1  0
 12 14  1  0
 12 15  1  0
 10 16  1  0
 16 17  1  0
 16 18  2  0
 18 19  1  0
  2 20  1  0
 20 21  2  0
 21 22  1  0
 21 23  1  0
 23 24  1  0
 23 25  2  0
 25 26  1  0
 26 27  1  0
 27 28  1  0
 27 29  1  0
 27 30  1  0
 26 31  1  0
 31 32  1  0
 31 33  1  0
 31 34  1  0
 25 35  1  0
 35 36  1  0
 35 37  2  0
 37 38  1  0
 18  5  1  0
 37 20  1  0
M  CHG  1  17  -1
M  END
>  <UniqueID>  (9) 
9

>  <SMILES>  (9) 
COc1ccc(/C=C/c2ccc(N(C)C)cc2)cc1[O-]

>  <Energy>  (9) 
44.40847219023052

>  <Genealogy>  (9) 
COc1ccc(C=Cc2ccc(N(C)C)cc2)cc1[O-] (protonated)
COc1ccc(/C=C/c2ccc(N(C)C)cc2)cc1[O-] (cis-trans isomerization)
COc1ccc(/C=C/c2ccc(N(C)C)cc2)cc1[O-] (3D coordinates assigned)
COc1ccc(/C=C/c2ccc(N(C)C)cc2)cc1[O-] (optimized conformer: 44.40847219023052 kcal/mol)

>  <smiles>  (9) 
COc1ccc(C=Cc2ccc(N(C)C)cc2)cc1O

>  <score_type>  (9) 
oracle

>  <origin>  (9) 
adg

>  <m_score__min__energy>  (9) 
-11.07

>  <m_primary>  (9) 
energy

$$$$
9:0
     RDKit          3D

 29 30  0  0  0  0  0  0  0  0999 V2000
   55.1720   26.7140   46.0470 N   0  0  0  0  0  0  0  0  0  0  0  0
   56.2680   27.5230   45.6290 C   0  0  0  0  0  0  0  0  0  0  0  0
   56.0440   28.6370   45.0870 O   0  0  0  0  0  0  0  0  0  0  0  0
   57.6560   27.0560   45.8310 C   0  0  0  0  0  0  0  0  0  0  0  0
   57.9640   25.6780   45.7380 C   0  0  0  0  0  0  0  0  0  0  0  0
   56.7550   24.4800   45.2810 Cl  0  0  0  0  0  0  0  0  0  0  0  0
   59.2700   25.2320   45.9670 C   0  0  0  0  0  0  0  0  0  0  0  0
   60.2780   26.1390   46.2890 C   0  0  0  0  0  0  0  0  0  0  0  0
   59.9910   27.4980   46.3850 C   0  0  0  0  0  0  0  0  0  0  0  0
   58.6860   27.9710   46.1660 C   0  0  0  0  0  0  0  0  0  0  0  0
   58.4150   29.3770   46.2840 N   0  0  0  0  0  0  0  0  0  0  0  0
   59.4380   30.3790   46.1550 C   0  0  0  0  0  0  0  0  0  0  0  0
   60.6390   30.0350   45.9770 O   0  0  0  0  0  0  0  0  0  0  0  0
   59.1000   31.8160   46.2690 C   0  0  0  0  0  0  0  0  0  0  0  0
   59.6850   32.5830   47.2950 C   0  0  0  0  0  0  0  0  0  0  0  0
   59.3990   33.9450   47.4170 C   0  0  0  0  0  0  0  0  0  0  0  0
   58.5270   34.5590   46.5170 C   0  0  0  0  0  0  0  0  0  0  0  0
   57.9380   33.8130   45.4950 C   0  0  0  0  0  0  0  0  0  0  0  0
   58.2170   32.4480   45.3610 C   0  0  0  0  0  0  0  0  0  0  0  0
   57.3940   31.5590   44.0830 Cl  0  0  0  0  0  0  0  0  0  0  0  0
   54.4770   27.0680   46.7420 H   0  0  0  0  0  0  0  0  0  0  0  0
   59.5026   24.1595   45.8925 H   0  0  0  0  0  0  0  0  0  0  0  0
   61.3024   25.7804   46.4677 H   0  0  0  0  0  0  0  0  0  0  0  0
   60.7932   28.2080   46.6346 H   0  0  0  0  0  0  0  0  0  0  0  0
   57.4300   29.6810   46.4440 H   0  0  0  0  0  0  0  0  0  0  0  0
   60.3738   32.1051   48.0072 H   0  0  0  0  0  0  0  0  0  0  0  0
   59.8614   34.5337   48.2229 H   0  0  0  0  0  0  0  0  0  0  0  0
   58.3037   35.6318   46.6131 H   0  0  0  0  0  0  0  0  0  0  0  0
   57.2495   34.3014   44.7897 H   0  0  0  0  0  0  0  0  0  0  0  0
  1  2  1  0
  2  3  2  0
  2  4  1  0
  4  5  2  0
  5  6  1  0
  5  7  1  0
  7  8  2  0
  8  9  1  0
  9 10  2  0
 10 11  1  0
 11 12  1  0
 12 13  2  0
 12 14  1  0
 14 15  2  0
 15 16  1  0
 16 17  2  0
 17 18  1  0
 18 19  2  0
 19 20  1  0
 10  4  1  0
 19 14  1  0
  1 21  1  0
  7 22  1  0
  8 23  1  0
  9 24  1  0
 11 25  1  0
 15 26  1  0
 16 27  1  0
 17 28  1  0
 18 29  1  0
M  CHG  1   1  -1
M  END
>  <UniqueID>  (10) 
10

>  <SMILES>  (10) 
[NH-]C(=O)c1c(Cl)cccc1NC(=O)c1ccccc1Cl

>  <Energy>  (10) 
47.256500588738206

>  <Genealogy>  (10) 
[NH-]C(=O)c1c(Cl)cccc1NC(=O)c1ccccc1Cl (protonated)
[NH-]C(=O)c1c(Cl)cccc1NC(=O)c1ccccc1Cl (3D coordinates assigned)
[NH-]C(=O)c1c(Cl)cccc1NC(=O)c1ccccc1Cl (optimized conformer: 47.256500588738206 kcal/mol)

>  <smiles>  (10) 
NC(=O)c1c(Cl)cccc1NC(=O)c1ccccc1Cl

>  <score_type>  (10) 
oracle

>  <origin>  (10) 
adg

>  <m_score__min__energy>  (10) 
-10.6

>  <m_primary>  (10) 
energy

$$$$
10:0
     RDKit          3D

 68 71  0  0  0  0  0  0  0  0999 V2000
   62.3440   33.7720   46.4660 C   0  0  0  0  0  0  0  0  0  0  0  0
   61.9620   33.4010   47.8710 C   0  0  0  0  0  0  0  0  0  0  0  0
   60.7090   33.5750   48.4470 C   0  0  0  0  0  0  0  0  0  0  0  0
   59.4950   34.1030   47.7950 C   0  0  0  0  0  0  0  0  0  0  0  0
   59.2490   35.3380   47.8820 O   0  0  0  0  0  0  0  0  0  0  0  0
   58.6100   33.2510   47.0420 N   0  0  0  0  0  0  0  0  0  0  0  0
   57.7300   33.8640   46.0340 C   0  0  0  0  0  0  0  0  0  0  0  0
   56.9820   32.8090   45.2070 C   0  0  0  0  0  0  0  0  0  0  0  0
   57.9100   31.6200   44.9100 C   0  0  0  0  0  0  0  0  0  0  0  0
   57.2410   30.6450   43.9180 C   0  0  0  0  0  0  0  0  0  0  0  0
   57.3900   29.2090   44.3570 C   0  0  0  0  0  0  0  0  0  0  0  0
   58.4360   28.4160   43.8550 C   0  0  0  0  0  0  0  0  0  0  0  0
   58.5560   27.0780   44.2480 C   0  0  0  0  0  0  0  0  0  0  0  0
   57.6320   26.5250   45.1390 C   0  0  0  0  0  0  0  0  0  0  0  0
   56.5850   27.3050   45.6370 C   0  0  0  0  0  0  0  0  0  0  0  0
   56.4620   28.6420   45.2460 C   0  0  0  0  0  0  0  0  0  0  0  0
   58.3240   30.9120   46.2240 C   0  0  0  0  0  0  0  0  0  0  0  0
   58.3810   31.8540   47.4440 C   0  0  0  0  0  0  0  0  0  0  0  0
   60.8260   33.1840   49.7710 C   0  0  0  0  0  0  0  0  0  0  0  0
   59.5270   33.2050   50.9680 S   0  0  0  0  0  0  0  0  0  0  0  0
   60.0940   32.8150   52.3030 O   0  0  0  0  0  0  0  0  0  0  0  0
   58.9070   34.5680   51.0910 O   0  0  0  0  0  0  0  0  0  0  0  0
   58.3120   32.0610   50.5090 N   0  0  0  0  0  0  0  0  0  0  0  0
   58.4360   30.6610   50.7670 C   0  0  0  0  0  0  0  0  0  0  0  0
   57.4180   29.9770   51.0560 O   0  0  0  0  0  0  0  0  0  0  0  0
   59.7630   29.9800   50.6140 C   0  0  0  0  0  0  0  0  0  0  0  0
   59.9810   29.5170   49.1980 C   0  0  0  0  0  0  0  0  0  0  0  0
   59.3300   28.3650   48.7230 C   0  0  0  0  0  0  0  0  0  0  0  0
   59.5590   27.9160   47.4180 C   0  0  0  0  0  0  0  0  0  0  0  0
   60.4440   28.6060   46.5840 C   0  0  0  0  0  0  0  0  0  0  0  0
   61.1040   29.7440   47.0540 C   0  0  0  0  0  0  0  0  0  0  0  0
   60.8770   30.1980   48.3570 C   0  0  0  0  0  0  0  0  0  0  0  0
   62.1400   32.7710   49.9510 C   0  0  0  0  0  0  0  0  0  0  0  0
   62.7240   32.2630   51.2390 C   0  0  0  0  0  0  0  0  0  0  0  0
   62.8210   32.8910   48.7860 N   0  0  0  0  0  0  0  0  0  0  0  0
   64.2350   32.5710   48.5770 C   0  0  0  0  0  0  0  0  0  0  0  0
   63.1329   34.5382   46.4907 H   0  0  0  0  0  0  0  0  0  0  0  0
   62.7151   32.8804   45.9394 H   0  0  0  0  0  0  0  0  0  0  0  0
   61.4636   34.1690   45.9394 H   0  0  0  0  0  0  0  0  0  0  0  0
   56.9941   34.5017   46.5455 H   0  0  0  0  0  0  0  0  0  0  0  0
   58.3569   34.4523   45.3478 H   0  0  0  0  0  0  0  0  0  0  0  0
   56.1070   32.4560   45.7724 H   0  0  0  0  0  0  0  0  0  0  0  0
   56.6557   33.2587   44.2576 H   0  0  0  0  0  0  0  0  0  0  0  0
   58.8279   31.9960   44.4345 H   0  0  0  0  0  0  0  0  0  0  0  0
   56.1702   30.8868   43.8485 H   0  0  0  0  0  0  0  0  0  0  0  0
   57.7358   30.7573   42.9420 H   0  0  0  0  0  0  0  0  0  0  0  0
   59.1626   28.8481   43.1511 H   0  0  0  0  0  0  0  0  0  0  0  0
   59.3780   26.4614   43.8554 H   0  0  0  0  0  0  0  0  0  0  0  0
   57.7291   25.4740   45.4487 H   0  0  0  0  0  0  0  0  0  0  0  0
   55.8576   26.8674   46.3365 H   0  0  0  0  0  0  0  0  0  0  0  0
   55.6345   29.2526   45.6365 H   0  0  0  0  0  0  0  0  0  0  0  0
   57.5950   30.1154   46.4340 H   0  0  0  0  0  0  0  0  0  0  0  0
   59.3408   30.5207   46.0720 H   0  0  0  0  0  0  0  0  0  0  0  0
   57.4269   31.7913   47.9879 H   0  0  0  0  0  0  0  0  0  0  0  0
   59.2196   31.5387   48.0822 H   0  0  0  0  0  0  0  0  0  0  0  0
   60.5614   30.6857   50.8870 H   0  0  0  0  0  0  0  0  0  0  0  0
   59.7791   29.0996   51.2732 H   0  0  0  0  0  0  0  0  0  0  0  0
   58.6389   27.8154   49.3790 H   0  0  0  0  0  0  0  0  0  0  0  0
   59.0419   27.0186   47.0474 H   0  0  0  0  0  0  0  0  0  0  0  0
   60.6206   28.2526   45.5574 H   0  0  0  0  0  0  0  0  0  0  0  0
   61.8032   30.2836   46.3983 H   0  0  0  0  0  0  0  0  0  0  0  0
   61.4020   31.0918   48.7250 H   0  0  0  0  0  0  0  0  0  0  0  0
   62.1958   32.7225   52.0875 H   0  0  0  0  0  0  0  0  0  0  0  0
   62.6124   31.1697   51.2862 H   0  0  0  0  0  0  0  0  0  0  0  0
   63.7913   32.5250   51.2862 H   0  0  0  0  0  0  0  0  0  0  0  0
   64.7333   32.4582   49.5512 H   0  0  0  0  0  0  0  0  0  0  0  0
   64.3186   31.6312   48.0114 H   0  0  0  0  0  0  0  0  0  0  0  0
   64.7150   33.3832   48.0114 H   0  0  0  0  0  0  0  0  0  0  0  0
  1  2  1  0
  2  3  2  0
  3  4  1  0
  4  5  2  0
  4  6  1  0
  6  7  1  0
  7  8  1  0
  8  9  1  0
  9 10  1  0
 10 11  1  0
 11 12  2  0
 12 13  1  0
 13 14  2  0
 14 15  1  0
 15 16  2  0
  9 17  1  0
 17 18  1  0
  3 19  1  0
 19 20  1  0
 20 21  2  0
 20 22  2  0
 20 23  1  0
 23 24  1  0
 24 25  2  0
 24 26  1  0
 26 27  1  0
 27 28  2  0
 28 29  1  0
 29 30  2  0
 30 31  1  0
 31 32  2  0
 19 33  2  0
 33 34  1  0
 33 35  1  0
 35 36  1  0
 35  2  1  0
 18  6  1  0
 32 27  1  0
 16 11  1  0
  1 37  1  0
  1 38  1  0
  1 39  1  0
  7 40  1  0
  7 41  1  0
  8 42  1  0
  8 43  1  0
  9 44  1  0
 10 45  1  0
 10 46  1  0
 12 47  1  0
 13 48  1  0
 14 49  1  0
 15 50  1  0
 16 51  1  0
 17 52  1  0
 17 53  1  0
 18 54  1  0
 18 55  1  0
 26 56  1  0
 26 57  1  0
 28 58  1  0
 29 59  1  0
 30 60  1  0
 31 61  1  0
 32 62  1  0
 34 63  1  0
 34 64  1  0
 34 65  1  0
 36 66  1  0
 36 67  1  0
 36 68  1  0
M  CHG  1  23  -1
M  END
>  <UniqueID>  (11) 
11

>  <SMILES>  (11) 
Cc1c(C(=O)N2CCC(Cc3ccccc3)CC2)c(S(=O)(=O)[N-]C(=O)Cc2ccccc2)c(C)n1C

>  <Energy>  (11) 
102.18444371377473

>  <Genealogy>  (11) 
Cc1c(C(=O)N2CCC(Cc3ccccc3)CC2)c(S(=O)(=O)[N-]C(=O)Cc2ccccc2)c(C)n1C (protonated)
Cc1c(C(=O)N2CCC(Cc3ccccc3)CC2)c(S(=O)(=O)[N-]C(=O)Cc2ccccc2)c(C)n1C (3D coordinates assigned)
Cc1c(C(=O)N2CCC(Cc3ccccc3)CC2)c(S(=O)(=O)[N-]C(=O)Cc2ccccc2)c(C)n1C (nonaromatic ring conformer: 102.18444371377473 kcal/mol)

>  <smiles>  (11) 
Cc1c(C(=O)N2CCC(Cc3ccccc3)CC2)c(S(=O)(=O)NC(=O)Cc2ccccc2)c(C)n1C

>  <score_type>  (11) 
oracle

>  <origin>  (11) 
adg

>  <m_score__min__energy>  (11) 
-11.289999999999999

>  <m_primary>  (11) 
energy

$$$$
11:0
     RDKit          3D

 37 39  0  0  0  0  0  0  0  0999 V2000
   51.1614   30.3432   48.1643 H   0  0  0  0  0  0  0  0  0  0  0  0
   51.3640   30.7670   49.1590 C   0  0  0  0  0  0  0  0  0  0  0  0
   50.8910   31.9550   49.6700 C   0  0  0  0  0  0  0  0  0  0  0  0
   50.0540   32.8280   48.9890 O   0  0  0  0  0  0  0  0  0  0  0  0
   51.3310   32.1790   50.9220 N   0  0  0  0  0  0  0  0  0  0  0  0
   52.1070   31.1140   51.2100 C   0  0  0  0  0  0  0  0  0  0  0  0
   52.7820   30.9160   52.5070 C   0  0  0  0  0  0  0  0  0  0  0  0
   52.4040   31.5860   53.5040 O   0  0  0  0  0  0  0  0  0  0  0  0
   53.9120   30.0450   52.6500 N   0  0  0  0  0  0  0  0  0  0  0  0
   55.1590   30.3740   52.4830 C   0  0  0  0  0  0  0  0  0  0  0  0
   55.5560   31.6600   52.3900 N   0  0  0  0  0  0  0  0  0  0  0  0
   56.8750   31.7950   52.2760 N   0  0  0  0  0  0  0  0  0  0  0  0
   57.5400   30.6170   52.2970 C   0  0  0  0  0  0  0  0  0  0  0  0
   59.0140   30.4960   52.0870 C   0  0  0  0  0  0  0  0  0  0  0  0
   59.2893   29.4336   52.0128 H   0  0  0  0  0  0  0  0  0  0  0  0
   59.5471   30.9506   52.9350 H   0  0  0  0  0  0  0  0  0  0  0  0
   59.3890   31.2000   50.8210 C   0  0  0  0  0  0  0  0  0  0  0  0
   60.2050   30.6610   50.0250 O   0  0  0  0  0  0  0  0  0  0  0  0
   58.8820   32.5140   50.5560 N   0  0  0  0  0  0  0  0  0  0  0  0
   58.0770   32.8590   51.1260 H   0  0  0  0  0  0  0  0  0  0  0  0
   59.6800   33.5100   49.8470 C   0  0  0  0  0  0  0  0  0  0  0  0
   59.5507   34.4922   50.3251 H   0  0  0  0  0  0  0  0  0  0  0  0
   60.7415   33.2237   49.8819 H   0  0  0  0  0  0  0  0  0  0  0  0
   59.2260   33.5850   48.4150 C   0  0  0  0  0  0  0  0  0  0  0  0
   58.2550   32.6920   47.9340 C   0  0  0  0  0  0  0  0  0  0  0  0
   57.8688   31.8974   48.5893 H   0  0  0  0  0  0  0  0  0  0  0  0
   57.7770   32.8090   46.6250 C   0  0  0  0  0  0  0  0  0  0  0  0
   57.0266   32.0981   46.2487 H   0  0  0  0  0  0  0  0  0  0  0  0
   58.2510   33.8270   45.7950 C   0  0  0  0  0  0  0  0  0  0  0  0
   57.8710   33.9198   44.7669 H   0  0  0  0  0  0  0  0  0  0  0  0
   59.2080   34.7280   46.2700 C   0  0  0  0  0  0  0  0  0  0  0  0
   59.6590   35.7230   45.4670 F   0  0  0  0  0  0  0  0  0  0  0  0
   59.6940   34.6090   47.5760 C   0  0  0  0  0  0  0  0  0  0  0  0
   60.4461   35.3206   47.9475 H   0  0  0  0  0  0  0  0  0  0  0  0
   56.4780   29.3160   52.4450 S   0  0  0  0  0  0  0  0  0  0  0  0
   52.1430   30.2210   50.1530 C   0  0  0  0  0  0  0  0  0  0  0  0
   52.6862   29.2652   50.1152 H   0  0  0  0  0  0  0  0  0  0  0  0
  1  2  1  0
  2  3  2  0
  3  4  1  0
  3  5  1  0
  5  6  1  0
  6  7  1  0
  7  8  2  0
  7  9  1  0
  9 10  2  0
 10 11  1  0
 11 12  1  0
 12 13  2  0
 13 14  1  0
 14 15  1  0
 14 16  1  0
 14 17  1  0
 17 18  2  0
 17 19  1  0
 19 20  1  0
 19 21  1  0
 21 22  1  0
 21 23  1  0
 21 24  1  0
 24 25  2  0
 25 26  1  0
 25 27  1  0
 27 28  1  0
 27 29  2  0
 29 30  1  0
 29 31  1  0
 31 32  1  0
 31 33  2  0
 33 34  1  0
 13 35  1  0
  6 36  2  0
 36 37  1  0
 36  2  1  0
 35 10  1  0
 33 24  1  0
M  CHG  3   4  -1   5  -1  11  -1
M  END
>  <UniqueID>  (12) 
12

>  <SMILES>  (12) 
O=C(Cc1n[n-]/c(=N/C(=O)c2ccc([O-])[n-]2)s1)NCc1cccc(F)c1

>  <Energy>  (12) 
97.20163296903301

>  <Genealogy>  (12) 
O=C(Cc1n[n-]c(=NC(=O)c2ccc([O-])[n-]2)s1)NCc1cccc(F)c1 (protonated)
O=C(Cc1n[n-]/c(=N/C(=O)c2ccc([O-])[n-]2)s1)NCc1cccc(F)c1 (cis-trans isomerization)
O=C(Cc1n[n-]/c(=N/C(=O)c2ccc([O-])[n-]2)s1)NCc1cccc(F)c1 (3D coordinates assigned)
O=C(Cc1n[n-]/c(=N/C(=O)c2ccc([O-])[n-]2)s1)NCc1cccc(F)c1 (optimized conformer: 97.20163296903301 kcal/mol)

>  <smiles>  (12) 
O=C(Cc1n[nH]c(=NC(=O)c2ccc(O)[nH]2)s1)NCc1cccc(F)c1

>  <score_type>  (12) 
oracle

>  <origin>  (12) 
adg

>  <m_score__min__energy>  (12) 
-15.57

>  <m_primary>  (12) 
energy

$$$$
12:0
     RDKit          3D

 43 44  0  0  0  0  0  0  0  0999 V2000
   57.1930   25.8020   44.3410 N   0  0  0  0  0  0  0  0  0  0  0  0
   56.0030   25.0010   45.3030 S   0  0  0  0  0  0  0  0  0  0  0  0
   55.1500   24.1400   44.4150 O   0  0  0  0  0  0  0  0  0  0  0  0
   55.1390   26.0270   45.9850 O   0  0  0  0  0  0  0  0  0  0  0  0
   56.8020   24.0170   46.4900 N   0  0  0  0  0  0  0  0  0  0  0  0
   56.9080   24.7520   47.7480 C   0  0  0  0  0  0  0  0  0  0  0  0
   58.1660   25.6210   47.7280 C   0  0  0  0  0  0  0  0  0  0  0  0
   57.9810   26.7940   46.8690 N   0  0  0  0  0  0  0  0  0  0  0  0
   58.9140   27.8950   46.8180 C   0  0  0  0  0  0  0  0  0  0  0  0
   59.5030   28.4020   47.9940 C   0  0  0  0  0  0  0  0  0  0  0  0
   60.4130   29.4590   47.9340 C   0  0  0  0  0  0  0  0  0  0  0  0
   60.7450   30.0270   46.7060 C   0  0  0  0  0  0  0  0  0  0  0  0
   60.1690   29.5420   45.5310 C   0  0  0  0  0  0  0  0  0  0  0  0
   59.2520   28.4720   45.5720 C   0  0  0  0  0  0  0  0  0  0  0  0
   58.6470   27.9640   44.4070 O   0  0  0  0  0  0  0  0  0  0  0  0
   57.6540   28.6200   43.6180 C   0  0  0  0  0  0  0  0  0  0  0  0
   56.5750   29.1770   44.4940 C   0  0  0  0  0  0  0  0  0  0  0  0
   55.9240   28.4030   45.2480 O   0  0  0  0  0  0  0  0  0  0  0  0
   56.3240   30.5880   44.5040 N   0  0  0  0  0  0  0  0  0  0  0  0
   57.2630   31.6190   44.8440 C   0  0  0  0  0  0  0  0  0  0  0  0
   57.6170   32.5550   43.8610 C   0  0  0  0  0  0  0  0  0  0  0  0
   58.5130   33.5870   44.1580 C   0  0  0  0  0  0  0  0  0  0  0  0
   59.0510   33.7000   45.4440 C   0  0  0  0  0  0  0  0  0  0  0  0
   59.9170   34.7040   45.7320 F   0  0  0  0  0  0  0  0  0  0  0  0
   58.6860   32.7860   46.4370 C   0  0  0  0  0  0  0  0  0  0  0  0
   57.7890   31.7530   46.1440 C   0  0  0  0  0  0  0  0  0  0  0  0
   58.0360   25.9330   44.9430 H   0  0  0  0  0  0  0  0  0  0  0  0
   56.8210   26.7550   44.1290 H   0  0  0  0  0  0  0  0  0  0  0  0
   56.0224   25.3922   47.8740 H   0  0  0  0  0  0  0  0  0  0  0  0
   56.9684   24.0397   48.5841 H   0  0  0  0  0  0  0  0  0  0  0  0
   58.3877   25.9564   48.7519 H   0  0  0  0  0  0  0  0  0  0  0  0
   58.9986   25.0228   47.3294 H   0  0  0  0  0  0  0  0  0  0  0  0
   57.1300   26.8300   46.2630 H   0  0  0  0  0  0  0  0  0  0  0  0
   59.2433   27.9609   48.9676 H   0  0  0  0  0  0  0  0  0  0  0  0
   60.8688   29.8441   48.8581 H   0  0  0  0  0  0  0  0  0  0  0  0
   61.4627   30.8595   46.6624 H   0  0  0  0  0  0  0  0  0  0  0  0
   60.4325   29.9982   44.5654 H   0  0  0  0  0  0  0  0  0  0  0  0
   58.1226   29.4401   43.0543 H   0  0  0  0  0  0  0  0  0  0  0  0
   57.2097   27.8904   42.9250 H   0  0  0  0  0  0  0  0  0  0  0  0
   57.1876   32.4769   42.8513 H   0  0  0  0  0  0  0  0  0  0  0  0
   58.7949   34.3108   43.3791 H   0  0  0  0  0  0  0  0  0  0  0  0
   59.1046   32.8792   47.4500 H   0  0  0  0  0  0  0  0  0  0  0  0
   57.4936   31.0435   46.9310 H   0  0  0  0  0  0  0  0  0  0  0  0
  1  2  1  0
  2  3  2  0
  2  4  2  0
  2  5  1  0
  5  6  1  0
  6  7  1  0
  7  8  1  0
  8  9  1  0
  9 10  2  0
 10 11  1  0
 11 12  2  0
 12 13  1  0
 13 14  2  0
 14 15  1  0
 15 16  1  0
 16 17  1  0
 17 18  2  0
 17 19  1  0
 19 20  1  0
 20 21  2  0
 21 22  1  0
 22 23  2  0
 23 24  1  0
 23 25  1  0
 25 26  2  0
 14  9  1  0
 26 20  1  0
  1 27  1  0
  1 28  1  0
  6 29  1  0
  6 30  1  0
  7 31  1  0
  7 32  1  0
  8 33  1  0
 10 34  1  0
 11 35  1  0
 12 36  1  0
 13 37  1  0
 16 38  1  0
 16 39  1  0
 21 40  1  0
 22 41  1  0
 25 42  1  0
 26 43  1  0
M  CHG  2   5  -1  19  -1
M  END
>  <UniqueID>  (13) 
13

>  <SMILES>  (13) 
NS(=O)(=O)[N-]CCNc1ccccc1OCC(=O)[N-]c1ccc(F)cc1

>  <Energy>  (13) 
39.490105247387994

>  <Genealogy>  (13) 
NS(=O)(=O)[N-]CCNc1ccccc1OCC(=O)[N-]c1ccc(F)cc1 (protonated)
NS(=O)(=O)[N-]CCNc1ccccc1OCC(=O)[N-]c1ccc(F)cc1 (3D coordinates assigned)
NS(=O)(=O)[N-]CCNc1ccccc1OCC(=O)[N-]c1ccc(F)cc1 (optimized conformer: 39.490105247387994 kcal/mol)

>  <smiles>  (13) 
NS(=O)(=O)NCCNc1ccccc1OCC(=O)Nc1ccc(F)cc1

>  <score_type>  (13) 
oracle

>  <origin>  (13) 
adg

>  <m_score__min__energy>  (13) 
-9.4900000000000002

>  <m_primary>  (13) 
energy

$$$$
13:0
     RDKit          3D

 32 33  0  0  0  0  0  0  0  0999 V2000
   55.2680   26.1350   45.9920 O   0  0  0  0  0  0  0  0  0  0  0  0
   56.4220   27.0890   45.8550 S   0  0  0  0  0  0  0  0  0  0  0  0
   57.0290   27.2950   47.2140 O   0  0  0  0  0  0  0  0  0  0  0  0
   57.6220   26.3750   44.7730 C   0  0  0  0  0  0  0  0  0  0  0  0
   58.9160   26.7160   44.7540 C   0  0  0  0  0  0  0  0  0  0  0  0
   59.5210   27.7180   45.6490 C   0  0  0  0  0  0  0  0  0  0  0  0
   59.8080   27.3750   46.9790 C   0  0  0  0  0  0  0  0  0  0  0  0
   60.4040   28.3080   47.8340 C   0  0  0  0  0  0  0  0  0  0  0  0
   60.7340   29.5810   47.3600 C   0  0  0  0  0  0  0  0  0  0  0  0
   60.4780   29.9190   46.0280 C   0  0  0  0  0  0  0  0  0  0  0  0
   59.8820   28.9880   45.1710 C   0  0  0  0  0  0  0  0  0  0  0  0
   55.8460   28.6080   45.2460 N   0  0  0  0  0  0  0  0  0  0  0  0
   56.6130   28.9950   44.0670 C   0  0  0  0  0  0  0  0  0  0  0  0
   57.0870   30.4050   44.2320 C   0  0  0  0  0  0  0  0  0  0  0  0
   57.3930   31.1920   43.1120 C   0  0  0  0  0  0  0  0  0  0  0  0
   57.8700   32.4920   43.2990 C   0  0  0  0  0  0  0  0  0  0  0  0
   58.0450   32.9880   44.5910 C   0  0  0  0  0  0  0  0  0  0  0  0
   57.7420   32.1720   45.6840 C   0  0  0  0  0  0  0  0  0  0  0  0
   57.2790   30.9090   45.4820 N   0  0  0  0  0  0  0  0  0  0  0  0
   57.2838   25.6000   44.0694 H   0  0  0  0  0  0  0  0  0  0  0  0
   59.5695   26.2164   44.0237 H   0  0  0  0  0  0  0  0  0  0  0  0
   59.5635   26.3689   47.3506 H   0  0  0  0  0  0  0  0  0  0  0  0
   60.6131   28.0398   48.8801 H   0  0  0  0  0  0  0  0  0  0  0  0
   61.1952   30.3168   48.0352 H   0  0  0  0  0  0  0  0  0  0  0  0
   60.7455   30.9181   45.6534 H   0  0  0  0  0  0  0  0  0  0  0  0
   59.6955   29.2515   44.1194 H   0  0  0  0  0  0  0  0  0  0  0  0
   57.4790   28.3260   43.9551 H   0  0  0  0  0  0  0  0  0  0  0  0
   55.9789   28.9197   43.1713 H   0  0  0  0  0  0  0  0  0  0  0  0
   57.2589   30.7900   42.0969 H   0  0  0  0  0  0  0  0  0  0  0  0
   58.1069   33.1227   42.4295 H   0  0  0  0  0  0  0  0  0  0  0  0
   58.4177   34.0110   44.7477 H   0  0  0  0  0  0  0  0  0  0  0  0
   57.8779   32.5509   46.7077 H   0  0  0  0  0  0  0  0  0  0  0  0
  1  2  2  0
  2  3  2  0
  2  4  1  0
  4  5  2  3
  5  6  1  0
  6  7  2  0
  7  8  1  0
  8  9  2  0
  9 10  1  0
 10 11  2  0
  2 12  1  0
 12 13  1  0
 13 14  1  0
 14 15  2  0
 15 16  1  0
 16 17  2  0
 17 18  1  0
 18 19  2  0
 11  6  1  0
 19 14  1  0
  4 20  1  0
  5 21  1  0
  7 22  1  0
  8 23  1  0
  9 24  1  0
 10 25  1  0
 11 26  1  0
 13 27  1  0
 13 28  1  0
 15 29  1  0
 16 30  1  0
 17 31  1  0
 18 32  1  0
M  CHG  1  12  -1
M  END
>  <UniqueID>  (14) 
14

>  <SMILES>  (14) 
O=S(=O)(C=Cc1ccccc1)[N-]Cc1ccccn1

>  <Energy>  (14) 
36.54547778080861

>  <Genealogy>  (14) 
O=S(=O)(C=Cc1ccccc1)[N-]Cc1ccccn1 (protonated)
O=S(=O)(C=Cc1ccccc1)[N-]Cc1ccccn1 (3D coordinates assigned)
O=S(=O)(C=Cc1ccccc1)[N-]Cc1ccccn1 (optimized conformer: 36.54547778080861 kcal/mol)

>  <smiles>  (14) 
O=S(=O)(C=Cc1ccccc1)NCc1ccccn1

>  <score_type>  (14) 
oracle

>  <origin>  (14) 
adg

>  <m_score__min__energy>  (14) 
-9.4700000000000006

>  <m_primary>  (14) 
energy

$$$$
14:0
     RDKit          3D

 45 47  0  0  0  0  0  0  0  0999 V2000
   58.7581   23.2664   46.0662 H   0  0  0  0  0  0  0  0  0  0  0  0
   57.9310   23.9910   46.0360 C   0  0  0  0  0  0  0  0  0  0  0  0
   58.1320   25.2690   46.4530 N   0  0  0  0  0  0  0  0  0  0  0  0
   57.1470   26.2120   46.4380 C   0  0  0  0  0  0  0  0  0  0  0  0
   57.4560   27.4170   46.8390 N   0  0  0  0  0  0  0  0  0  0  0  0
   58.3850   28.3430   46.2550 C   0  0  0  0  0  0  0  0  0  0  0  0
   59.6120   28.1960   46.5120 O   0  0  0  0  0  0  0  0  0  0  0  0
   57.9360   29.3850   45.2800 C   0  0  0  0  0  0  0  0  0  0  0  0
   57.0610   29.0180   44.2430 C   0  0  0  0  0  0  0  0  0  0  0  0
   56.7256   27.9736   44.1611 H   0  0  0  0  0  0  0  0  0  0  0  0
   56.6130   29.9560   43.3190 C   0  0  0  0  0  0  0  0  0  0  0  0
   55.9336   29.6481   42.5105 H   0  0  0  0  0  0  0  0  0  0  0  0
   57.0210   31.2810   43.4140 C   0  0  0  0  0  0  0  0  0  0  0  0
   56.6524   32.0183   42.6856 H   0  0  0  0  0  0  0  0  0  0  0  0
   57.9010   31.6880   44.4330 C   0  0  0  0  0  0  0  0  0  0  0  0
   58.2820   33.0340   44.5540 O   0  0  0  0  0  0  0  0  0  0  0  0
   57.4020   34.1090   44.8710 C   0  0  0  0  0  0  0  0  0  0  0  0
   57.3217   34.2071   45.9637 H   0  0  0  0  0  0  0  0  0  0  0  0
   57.7975   35.0438   44.4470 H   0  0  0  0  0  0  0  0  0  0  0  0
   56.4075   33.9060   44.4470 H   0  0  0  0  0  0  0  0  0  0  0  0
   58.3920   30.7270   45.3590 C   0  0  0  0  0  0  0  0  0  0  0  0
   59.3190   31.0510   46.3710 O   0  0  0  0  0  0  0  0  0  0  0  0
   59.0260   31.4070   47.7200 C   0  0  0  0  0  0  0  0  0  0  0  0
   58.2336   30.7464   48.1016 H   0  0  0  0  0  0  0  0  0  0  0  0
   59.9433   31.2965   48.3169 H   0  0  0  0  0  0  0  0  0  0  0  0
   58.5660   32.8270   47.8160 C   0  0  0  0  0  0  0  0  0  0  0  0
   57.3490   33.1050   47.6390 O   0  0  0  0  0  0  0  0  0  0  0  0
   59.4940   33.8370   48.2270 N   0  0  0  0  0  0  0  0  0  0  0  0
   60.9090   33.8130   48.0030 C   0  0  0  0  0  0  0  0  0  0  0  0
   61.3770   33.8570   46.6820 C   0  0  0  0  0  0  0  0  0  0  0  0
   60.6593   33.9140   45.8503 H   0  0  0  0  0  0  0  0  0  0  0  0
   62.7480   33.8290   46.4140 C   0  0  0  0  0  0  0  0  0  0  0  0
   63.1060   33.8557   45.3742 H   0  0  0  0  0  0  0  0  0  0  0  0
   63.6650   33.7670   47.4680 C   0  0  0  0  0  0  0  0  0  0  0  0
   64.7433   33.7190   47.2560 H   0  0  0  0  0  0  0  0  0  0  0  0
   63.2130   33.7660   48.7900 C   0  0  0  0  0  0  0  0  0  0  0  0
   63.9369   33.7306   49.6175 H   0  0  0  0  0  0  0  0  0  0  0  0
   61.8400   33.8100   49.0640 C   0  0  0  0  0  0  0  0  0  0  0  0
   61.4170   33.8940   50.3870 O   0  0  0  0  0  0  0  0  0  0  0  0
   55.8500   25.8340   46.0030 C   0  0  0  0  0  0  0  0  0  0  0  0
   54.7690   26.7080   46.0340 O   0  0  0  0  0  0  0  0  0  0  0  0
   55.6350   24.5250   45.5580 C   0  0  0  0  0  0  0  0  0  0  0  0
   54.6399   24.2257   45.1971 H   0  0  0  0  0  0  0  0  0  0  0  0
   56.6770   23.5980   45.5700 C   0  0  0  0  0  0  0  0  0  0  0  0
   56.5116   22.5697   45.2162 H   0  0  0  0  0  0  0  0  0  0  0  0
  1  2  1  0
  2  3  1  0
  3  4  1  0
  4  5  2  0
  5  6  1  0
  6  7  2  0
  6  8  1  0
  8  9  2  0
  9 10  1  0
  9 11  1  0
 11 12  1  0
 11 13  2  0
 13 14  1  0
 13 15  1  0
 15 16  1  0
 16 17  1  0
 17 18  1  0
 17 19  1  0
 17 20  1  0
 15 21  2  0
 21 22  1  0
 22 23  1  0
 23 24  1  0
 23 25  1  0
 23 26  1  0
 26 27  2  0
 26 28  1  0
 28 29  1  0
 29 30  2  0
 30 31  1  0
 30 32  1  0
 32 33  1  0
 32 34  2  0
 34 35  1  0
 34 36  1  0
 36 37  1  0
 36 38  2  0
 38 39  1  0
  4 40  1  0
 40 41  1  0
 40 42  2  0
 42 43  1  0
 42 44  1  0
 44 45  1  0
 44  2  2  0
 21  8  1  0
 38 29  1  0
M  CHG  4   3  -1  28  -1  39  -1  41  -1
M  END
>  <UniqueID>  (15) 
15

>  <SMILES>  (15) 
COc1cccc(C(=O)/N=c2/[n-]cccc2[O-])c1OCC(=O)[N-]c1ccccc1[O-]

>  <Energy>  (15) 
72.36083223974983

>  <Genealogy>  (15) 
COc1cccc(C(=O)N=c2[n-]cccc2[O-])c1OCC(=O)[N-]c1ccccc1[O-] (protonated)
COc1cccc(C(=O)/N=c2/[n-]cccc2[O-])c1OCC(=O)[N-]c1ccccc1[O-] (cis-trans isomerization)
COc1cccc(C(=O)/N=c2/[n-]cccc2[O-])c1OCC(=O)[N-]c1ccccc1[O-] (3D coordinates assigned)
COc1cccc(C(=O)/N=c2/[n-]cccc2[O-])c1OCC(=O)[N-]c1ccccc1[O-] (optimized conformer: 72.36083223974983 kcal/mol)

>  <smiles>  (15) 
COc1cccc(C(=O)N=c2[nH]cccc2O)c1OCC(=O)Nc1ccccc1O

>  <score_type>  (15) 
oracle

>  <origin>  (15) 
adg

>  <m_score__min__energy>  (15) 
-16.32

>  <m_primary>  (15) 
energy

$$$$
15:0
     RDKit          3D

 48 50  0  0  0  0  0  0  0  0999 V2000
   60.6290   30.8760   48.1430 O   0  0  0  0  0  0  0  0  0  0  0  0
   59.3780   30.7430   48.2430 C   0  0  0  0  0  0  0  0  0  0  0  0
   58.4950   31.9490   48.2280 C   0  0  0  0  0  0  0  0  0  0  0  0
   58.8130   32.7910   47.0730 N   0  0  0  0  0  0  0  0  0  0  0  0
   58.3480   32.4370   45.7620 C   0  0  0  0  0  0  0  0  0  0  0  0
   58.7800   33.1620   44.6430 C   0  0  0  0  0  0  0  0  0  0  0  0
   58.3300   32.8180   43.3680 C   0  0  0  0  0  0  0  0  0  0  0  0
   57.4480   31.7470   43.1990 C   0  0  0  0  0  0  0  0  0  0  0  0
   57.0020   31.0110   44.3110 C   0  0  0  0  0  0  0  0  0  0  0  0
   56.0560   29.8870   44.1390 C   0  0  0  0  0  0  0  0  0  0  0  0
   55.4740   29.3780   45.1350 O   0  0  0  0  0  0  0  0  0  0  0  0
   55.7950   29.3710   42.8740 O   0  0  0  0  0  0  0  0  0  0  0  0
   57.4610   31.3620   45.5930 C   0  0  0  0  0  0  0  0  0  0  0  0
   59.7420   34.2410   47.3040 S   0  0  0  0  0  0  0  0  0  0  0  0
   59.2660   34.9840   48.5210 O   0  0  0  0  0  0  0  0  0  0  0  0
   59.5770   35.1290   46.1030 O   0  0  0  0  0  0  0  0  0  0  0  0
   61.4300   33.8050   47.5330 C   0  0  0  0  0  0  0  0  0  0  0  0
   62.2810   33.7310   46.4220 C   0  0  0  0  0  0  0  0  0  0  0  0
   63.6270   33.3920   46.5880 C   0  0  0  0  0  0  0  0  0  0  0  0
   64.1290   33.1300   47.8660 C   0  0  0  0  0  0  0  0  0  0  0  0
   63.2850   33.2040   48.9780 C   0  0  0  0  0  0  0  0  0  0  0  0
   61.9380   33.5440   48.8140 C   0  0  0  0  0  0  0  0  0  0  0  0
   58.7940   29.4430   48.3790 N   0  0  0  0  0  0  0  0  0  0  0  0
   59.4450   28.2150   47.9440 C   0  0  0  0  0  0  0  0  0  0  0  0
   59.0890   27.9140   46.5140 C   0  0  0  0  0  0  0  0  0  0  0  0
   59.7000   28.6120   45.4610 C   0  0  0  0  0  0  0  0  0  0  0  0
   59.3480   28.3350   44.1360 C   0  0  0  0  0  0  0  0  0  0  0  0
   58.3880   27.3570   43.8550 C   0  0  0  0  0  0  0  0  0  0  0  0
   58.0490   27.0900   42.5690 F   0  0  0  0  0  0  0  0  0  0  0  0
   57.7720   26.6620   44.8980 C   0  0  0  0  0  0  0  0  0  0  0  0
   58.1190   26.9390   46.2240 C   0  0  0  0  0  0  0  0  0  0  0  0
   57.4441   31.6298   48.1672 H   0  0  0  0  0  0  0  0  0  0  0  0
   58.6580   32.5261   49.1501 H   0  0  0  0  0  0  0  0  0  0  0  0
   59.4757   34.0045   44.7704 H   0  0  0  0  0  0  0  0  0  0  0  0
   58.6704   33.3914   42.4931 H   0  0  0  0  0  0  0  0  0  0  0  0
   57.1008   31.4784   42.1904 H   0  0  0  0  0  0  0  0  0  0  0  0
   57.1226   30.7902   46.4697 H   0  0  0  0  0  0  0  0  0  0  0  0
   61.8885   33.9404   45.4160 H   0  0  0  0  0  0  0  0  0  0  0  0
   64.2910   33.3314   45.7131 H   0  0  0  0  0  0  0  0  0  0  0  0
   65.1887   32.8655   47.9968 H   0  0  0  0  0  0  0  0  0  0  0  0
   63.6805   32.9947   49.9829 H   0  0  0  0  0  0  0  0  0  0  0  0
   61.2765   33.6067   49.6906 H   0  0  0  0  0  0  0  0  0  0  0  0
   60.5354   28.3323   48.0296 H   0  0  0  0  0  0  0  0  0  0  0  0
   59.1044   27.3847   48.5800 H   0  0  0  0  0  0  0  0  0  0  0  0
   60.4579   29.3791   45.6783 H   0  0  0  0  0  0  0  0  0  0  0  0
   59.8267   28.8870   43.3137 H   0  0  0  0  0  0  0  0  0  0  0  0
   57.0137   25.8966   44.6764 H   0  0  0  0  0  0  0  0  0  0  0  0
   57.6307   26.3915   47.0437 H   0  0  0  0  0  0  0  0  0  0  0  0
  1  2  2  0
  2  3  1  0
  3  4  1  0
  4  5  1  0
  5  6  2  0
  6  7  1  0
  7  8  2  0
  8  9  1  0
  9 10  1  0
 10 11  2  0
 10 12  1  0
  9 13  2  0
  4 14  1  0
 14 15  2  0
 14 16  2  0
 14 17  1  0
 17 18  2  0
 18 19  1  0
 19 20  2  0
 20 21  1  0
 21 22  2  0
  2 23  1  0
 23 24  1  0
 24 25  1  0
 25 26  2  0
 26 27  1  0
 27 28  2  0
 28 29  1  0
 28 30  1  0
 30 31  2  0
 13  5  1  0
 22 17  1  0
 31 25  1  0
  3 32  1  0
  3 33  1  0
  6 34  1  0
  7 35  1  0
  8 36  1  0
 13 37  1  0
 18 38  1  0
 19 39  1  0
 20 40  1  0
 21 41  1  0
 22 42  1  0
 24 43  1  0
 24 44  1  0
 26 45  1  0
 27 46  1  0
 30 47  1  0
 31 48  1  0
M  CHG  2  12  -1  23  -1
M  END
>  <UniqueID>  (16) 
16

>  <SMILES>  (16) 
O=C(CN(c1cccc(C(=O)[O-])c1)S(=O)(=O)c1ccccc1)[N-]Cc1ccc(F)cc1

>  <Energy>  (16) 
52.633998385415765

>  <Genealogy>  (16) 
O=C(CN(c1cccc(C(=O)[O-])c1)S(=O)(=O)c1ccccc1)[N-]Cc1ccc(F)cc1 (protonated)
O=C(CN(c1cccc(C(=O)[O-])c1)S(=O)(=O)c1ccccc1)[N-]Cc1ccc(F)cc1 (3D coordinates assigned)
O=C(CN(c1cccc(C(=O)[O-])c1)S(=O)(=O)c1ccccc1)[N-]Cc1ccc(F)cc1 (optimized conformer: 52.633998385415765 kcal/mol)

>  <smiles>  (16) 
O=C(CN(c1cccc(C(=O)O)c1)S(=O)(=O)c1ccccc1)NCc1ccc(F)cc1

>  <score_type>  (16) 
oracle

>  <origin>  (16) 
adg

>  <m_score__min__energy>  (16) 
-12.75

>  <m_primary>  (16) 
energy

$$$$
16:0
     RDKit          3D

 20 21  0  0  0  0  0  0  0  0999 V2000
   55.8960   31.1640   44.5710 O   0  0  0  0  0  0  0  0  0  0  0  0
   56.3640   29.9970   44.5880 C   0  0  0  0  0  0  0  0  0  0  0  0
   55.6380   28.9430   45.2150 N   0  0  0  0  0  0  0  0  0  0  0  0
   56.2670   27.7220   45.6190 C   0  0  0  0  0  0  0  0  0  0  0  0
   55.4810   26.6750   45.9780 N   0  0  0  0  0  0  0  0  0  0  0  0
   55.9970   25.4920   46.3910 C   0  0  0  0  0  0  0  0  0  0  0  0
   55.2250   24.5500   46.7080 O   0  0  0  0  0  0  0  0  0  0  0  0
   57.3780   25.3210   46.4690 C   0  0  0  0  0  0  0  0  0  0  0  0
   58.2370   26.3750   46.1190 C   0  0  0  0  0  0  0  0  0  0  0  0
   59.7260   26.1650   46.2540 C   0  0  0  0  0  0  0  0  0  0  0  0
   60.1110   26.3650   47.5860 O   0  0  0  0  0  0  0  0  0  0  0  0
   57.6800   27.6040   45.6750 C   0  0  0  0  0  0  0  0  0  0  0  0
   58.5390   28.8180   45.3680 C   0  0  0  0  0  0  0  0  0  0  0  0
   57.9580   29.6550   43.8590 S   0  0  0  0  0  0  0  0  0  0  0  0
   57.7950   24.3601   46.8048 H   0  0  0  0  0  0  0  0  0  0  0  0
   59.9798   25.1388   45.9499 H   0  0  0  0  0  0  0  0  0  0  0  0
   60.2555   26.8822   45.6096 H   0  0  0  0  0  0  0  0  0  0  0  0
   59.4160   26.9470   47.9900 H   0  0  0  0  0  0  0  0  0  0  0  0
   58.4864   29.5202   46.2131 H   0  0  0  0  0  0  0  0  0  0  0  0
   59.5758   28.4860   45.2105 H   0  0  0  0  0  0  0  0  0  0  0  0
  1  2  2  0
  2  3  1  0
  3  4  1  0
  4  5  1  0
  5  6  1  0
  6  7  2  0
  6  8  1  0
  8  9  2  0
  9 10  1  0
 10 11  1  0
  9 12  1  0
 12 13  1  0
 13 14  1  0
 14  2  1  0
 12  4  2  0
  8 15  1  0
 10 16  1  0
 10 17  1  0
 11 18  1  0
 13 19  1  0
 13 20  1  0
M  CHG  2   3  -1   5  -1
M  END
>  <UniqueID>  (17) 
17

>  <SMILES>  (17) 
O=C1[N-]c2[n-]c(=O)cc(CO)c2CS1

>  <Energy>  (17) 
26.670511166179118

>  <Genealogy>  (17) 
O=C1[N-]c2[n-]c(=O)cc(CO)c2CS1 (protonated)
O=C1[N-]c2[n-]c(=O)cc(CO)c2CS1 (3D coordinates assigned)
O=C1[N-]c2[n-]c(=O)cc(CO)c2CS1 (nonaromatic ring conformer: 26.670511166179118 kcal/mol)

>  <smiles>  (17) 
O=C1Nc2[nH]c(=O)cc(CO)c2CS1

>  <score_type>  (17) 
oracle

>  <origin>  (17) 
adg

>  <m_score__min__energy>  (17) 
-10.24

>  <m_primary>  (17) 
energy

$$$$
17:0
     RDKit          3D

 58 61  0  0  0  0  0  0  0  0999 V2000
   57.1460   29.9790   44.1500 O   0  0  0  0  0  0  0  0  0  0  0  0
   57.2550   29.3210   45.2210 C   0  0  0  0  0  0  0  0  0  0  0  0
   58.2870   29.7160   46.2330 C   0  0  0  0  0  0  0  0  0  0  0  0
   59.1230   30.7500   45.7150 O   0  0  0  0  0  0  0  0  0  0  0  0
   58.7810   32.1080   45.5850 C   0  0  0  0  0  0  0  0  0  0  0  0
   57.6150   32.5150   44.9040 C   0  0  0  0  0  0  0  0  0  0  0  0
   57.3150   33.8700   44.7530 C   0  0  0  0  0  0  0  0  0  0  0  0
   58.1750   34.8370   45.2660 C   0  0  0  0  0  0  0  0  0  0  0  0
   59.3330   34.4540   45.9440 C   0  0  0  0  0  0  0  0  0  0  0  0
   59.6460   33.0920   46.1260 C   0  0  0  0  0  0  0  0  0  0  0  0
   60.8540   32.7280   46.9070 C   0  0  0  0  0  0  0  0  0  0  0  0
   61.3720   31.5870   46.7590 O   0  0  0  0  0  0  0  0  0  0  0  0
   61.4270   33.6600   47.8370 N   0  0  0  0  0  0  0  0  0  0  0  0
   61.3150   33.6290   49.2660 C   0  0  0  0  0  0  0  0  0  0  0  0
   62.4780   33.7600   50.0340 C   0  0  0  0  0  0  0  0  0  0  0  0
   62.4190   33.6960   51.4290 C   0  0  0  0  0  0  0  0  0  0  0  0
   61.1950   33.4850   52.0670 C   0  0  0  0  0  0  0  0  0  0  0  0
   60.0250   33.3250   51.3110 C   0  0  0  0  0  0  0  0  0  0  0  0
   58.4750   33.0130   52.0900 S   0  0  0  0  0  0  0  0  0  0  0  0
   58.0590   34.2560   52.8330 O   0  0  0  0  0  0  0  0  0  0  0  0
   57.4300   32.7000   51.0530 O   0  0  0  0  0  0  0  0  0  0  0  0
   58.6590   31.6700   53.2030 N   0  0  0  0  0  0  0  0  0  0  0  0
   59.3930   30.5410   52.5870 C   0  0  0  0  0  0  0  0  0  0  0  0
   58.4550   29.4230   52.0910 C   0  0  0  0  0  0  0  0  0  0  0  0
   57.2320   29.9720   51.6490 O   0  0  0  0  0  0  0  0  0  0  0  0
   56.4960   30.4840   52.7500 C   0  0  0  0  0  0  0  0  0  0  0  0
   57.3640   31.2540   53.7740 C   0  0  0  0  0  0  0  0  0  0  0  0
   60.0880   33.3950   49.9130 C   0  0  0  0  0  0  0  0  0  0  0  0
   56.3600   28.2390   45.5160 N   0  0  0  0  0  0  0  0  0  0  0  0
   56.7130   26.8820   45.8320 C   0  0  0  0  0  0  0  0  0  0  0  0
   58.0520   26.4790   46.0020 C   0  0  0  0  0  0  0  0  0  0  0  0
   58.3520   25.1630   46.3640 C   0  0  0  0  0  0  0  0  0  0  0  0
   57.3250   24.2410   46.5730 C   0  0  0  0  0  0  0  0  0  0  0  0
   55.9910   24.6360   46.4240 C   0  0  0  0  0  0  0  0  0  0  0  0
   54.9720   23.7170   46.6450 O   0  0  0  0  0  0  0  0  0  0  0  0
   55.6840   25.9520   46.0590 C   0  0  0  0  0  0  0  0  0  0  0  0
   54.3550   26.3390   45.9220 O   0  0  0  0  0  0  0  0  0  0  0  0
   57.7835   30.0783   47.1414 H   0  0  0  0  0  0  0  0  0  0  0  0
   58.9087   28.8397   46.4687 H   0  0  0  0  0  0  0  0  0  0  0  0
   56.9351   31.7571   44.4876 H   0  0  0  0  0  0  0  0  0  0  0  0
   56.3976   34.1741   44.2278 H   0  0  0  0  0  0  0  0  0  0  0  0
   57.9415   35.9041   45.1368 H   0  0  0  0  0  0  0  0  0  0  0  0
   60.0099   35.2247   46.3413 H   0  0  0  0  0  0  0  0  0  0  0  0
   63.4463   33.9146   49.5355 H   0  0  0  0  0  0  0  0  0  0  0  0
   63.3368   33.8118   52.0242 H   0  0  0  0  0  0  0  0  0  0  0  0
   61.1485   33.4442   53.1653 H   0  0  0  0  0  0  0  0  0  0  0  0
   59.9706   30.9214   51.7316 H   0  0  0  0  0  0  0  0  0  0  0  0
   60.0469   30.1087   53.3587 H   0  0  0  0  0  0  0  0  0  0  0  0
   58.9354   28.8888   51.2580 H   0  0  0  0  0  0  0  0  0  0  0  0
   58.2570   28.7272   52.9196 H   0  0  0  0  0  0  0  0  0  0  0  0
   55.7250   31.1674   52.3647 H   0  0  0  0  0  0  0  0  0  0  0  0
   56.0653   29.6207   53.2783 H   0  0  0  0  0  0  0  0  0  0  0  0
   56.8161   32.1503   54.1004 H   0  0  0  0  0  0  0  0  0  0  0  0
   57.5676   30.5804   54.6194 H   0  0  0  0  0  0  0  0  0  0  0  0
   59.1721   33.2661   49.3176 H   0  0  0  0  0  0  0  0  0  0  0  0
   58.8654   27.2036   45.8491 H   0  0  0  0  0  0  0  0  0  0  0  0
   59.4004   24.8528   46.4846 H   0  0  0  0  0  0  0  0  0  0  0  0
   57.5642   23.2049   46.8546 H   0  0  0  0  0  0  0  0  0  0  0  0
  1  2  2  0
  2  3  1  0
  3  4  1  0
  4  5  1  0
  5  6  2  0
  6  7  1  0
  7  8  2  0
  8  9  1  0
  9 10  2  0
 10 11  1  0
 11 12  2  0
 11 13  1  0
 13 14  1  0
 14 15  2  0
 15 16  1  0
 16 17  2  0
 17 18  1  0
 18 19  1  0
 19 20  2  0
 19 21  2  0
 19 22  1  0
 22 23  1  0
 23 24  1  0
 24 25  1  0
 25 26  1  0
 26 27  1  0
 18 28  2  0
  2 29  1  0
 29 30  1  0
 30 31  2  0
 31 32  1  0
 32 33  2  0
 33 34  1  0
 34 35  1  0
 34 36  2  0
 36 37  1  0
 10  5  1  0
 28 14  1  0
 36 30  1  0
 27 22  1  0
  3 38  1  0
  3 39  1  0
  6 40  1  0
  7 41  1  0
  8 42  1  0
  9 43  1  0
 15 44  1  0
 16 45  1  0
 17 46  1  0
 23 47  1  0
 23 48  1  0
 24 49  1  0
 24 50  1  0
 26 51  1  0
 26 52  1  0
 27 53  1  0
 27 54  1  0
 28 55  1  0
 31 56  1  0
 32 57  1  0
 33 58  1  0
M  CHG  4  13  -1  29  -1  35  -1  37  -1
M  END
>  <UniqueID>  (18) 
18

>  <SMILES>  (18) 
O=C(COc1ccccc1C(=O)[N-]c1cccc(S(=O)(=O)N2CCOCC2)c1)[N-]c1cccc([O-])c1[O-]

>  <Energy>  (18) 
83.4042519350026

>  <Genealogy>  (18) 
O=C(COc1ccccc1C(=O)[N-]c1cccc(S(=O)(=O)N2CCOCC2)c1)[N-]c1cccc([O-])c1[O-] (protonated)
O=C(COc1ccccc1C(=O)[N-]c1cccc(S(=O)(=O)N2CCOCC2)c1)[N-]c1cccc([O-])c1[O-] (3D coordinates assigned)
O=C(COc1ccccc1C(=O)[N-]c1cccc(S(=O)(=O)N2CCOCC2)c1)[N-]c1cccc([O-])c1[O-] (nonaromatic ring conformer: 83.4042519350026 kcal/mol)

>  <smiles>  (18) 
O=C(COc1ccccc1C(=O)Nc1cccc(S(=O)(=O)N2CCOCC2)c1)Nc1cccc(O)c1O

>  <score_type>  (18) 
oracle

>  <origin>  (18) 
adg

>  <m_score__min__energy>  (18) 
-18.43

>  <m_primary>  (18) 
energy

$$$$
18:0
     RDKit          3D

 47 49  0  0  0  0  0  0  0  0999 V2000
   57.3120   30.1030   54.1140 O   0  0  0  0  0  0  0  0  0  0  0  0
   56.5750   30.2940   53.1090 C   0  0  0  0  0  0  0  0  0  0  0  0
   56.3640   31.6910   52.6020 C   0  0  0  0  0  0  0  0  0  0  0  0
   57.5540   32.1750   51.8800 N   0  0  0  0  0  0  0  0  0  0  0  0
   58.0530   33.4100   52.1930 C   0  0  0  0  0  0  0  0  0  0  0  0
   59.1400   33.9370   51.4970 C   0  0  0  0  0  0  0  0  0  0  0  0
   59.7160   33.2110   50.4550 C   0  0  0  0  0  0  0  0  0  0  0  0
   60.7930   33.8060   49.7220 N   0  0  0  0  0  0  0  0  0  0  0  0
   61.1420   33.4660   48.3740 C   0  0  0  0  0  0  0  0  0  0  0  0
   62.2850   33.0000   48.1150 O   0  0  0  0  0  0  0  0  0  0  0  0
   60.1470   33.6350   47.3020 C   0  0  0  0  0  0  0  0  0  0  0  0
   60.0800   34.8190   46.5480 C   0  0  0  0  0  0  0  0  0  0  0  0
   59.1210   34.9380   45.5400 C   0  0  0  0  0  0  0  0  0  0  0  0
   58.2400   33.8840   45.2900 C   0  0  0  0  0  0  0  0  0  0  0  0
   58.3330   32.7210   46.0570 C   0  0  0  0  0  0  0  0  0  0  0  0
   59.2740   32.6230   47.0350 N   0  0  0  0  0  0  0  0  0  0  0  0
   59.2280   31.9220   50.1630 C   0  0  0  0  0  0  0  0  0  0  0  0
   59.8340   31.1010   49.2090 O   0  0  0  0  0  0  0  0  0  0  0  0
   58.1210   31.4340   50.8730 C   0  0  0  0  0  0  0  0  0  0  0  0
   57.6570   30.2980   50.5770 O   0  0  0  0  0  0  0  0  0  0  0  0
   55.9620   29.1860   52.4430 N   0  0  0  0  0  0  0  0  0  0  0  0
   54.8090   28.4710   52.9720 C   0  0  0  0  0  0  0  0  0  0  0  0
   53.8740   29.4460   53.6880 C   0  0  0  0  0  0  0  0  0  0  0  0
   53.0500   30.2350   52.7010 C   0  0  0  0  0  0  0  0  0  0  0  0
   52.1950   31.2580   53.1460 C   0  0  0  0  0  0  0  0  0  0  0  0
   51.4040   31.9610   52.2320 C   0  0  0  0  0  0  0  0  0  0  0  0
   51.4500   31.6410   50.8720 C   0  0  0  0  0  0  0  0  0  0  0  0
   50.6600   32.3380   49.9680 O   0  0  0  0  0  0  0  0  0  0  0  0
   52.2900   30.6170   50.4250 C   0  0  0  0  0  0  0  0  0  0  0  0
   53.0840   29.9130   51.3340 C   0  0  0  0  0  0  0  0  0  0  0  0
   55.5009   31.6999   51.9201 H   0  0  0  0  0  0  0  0  0  0  0  0
   56.1820   32.3526   53.4617 H   0  0  0  0  0  0  0  0  0  0  0  0
   57.5913   33.9937   53.0030 H   0  0  0  0  0  0  0  0  0  0  0  0
   59.5426   34.9238   51.7693 H   0  0  0  0  0  0  0  0  0  0  0  0
   60.7773   35.6453   46.7502 H   0  0  0  0  0  0  0  0  0  0  0  0
   59.0597   35.8605   44.9440 H   0  0  0  0  0  0  0  0  0  0  0  0
   57.4814   33.9689   44.4979 H   0  0  0  0  0  0  0  0  0  0  0  0
   57.6450   31.8832   45.8705 H   0  0  0  0  0  0  0  0  0  0  0  0
   60.4290   31.4620   48.4740 H   0  0  0  0  0  0  0  0  0  0  0  0
   54.2682   27.9885   52.1445 H   0  0  0  0  0  0  0  0  0  0  0  0
   55.1529   27.7089   53.6868 H   0  0  0  0  0  0  0  0  0  0  0  0
   53.1995   28.8787   54.3462 H   0  0  0  0  0  0  0  0  0  0  0  0
   54.4851   30.1492   54.2728 H   0  0  0  0  0  0  0  0  0  0  0  0
   52.1480   31.5064   54.2166 H   0  0  0  0  0  0  0  0  0  0  0  0
   50.7441   32.7676   52.5840 H   0  0  0  0  0  0  0  0  0  0  0  0
   52.3260   30.3648   49.3549 H   0  0  0  0  0  0  0  0  0  0  0  0
   53.7382   29.1036   50.9779 H   0  0  0  0  0  0  0  0  0  0  0  0
  1  2  2  0
  2  3  1  0
  3  4  1  0
  4  5  1  0
  5  6  2  0
  6  7  1  0
  7  8  1  0
  8  9  1  0
  9 10  2  0
  9 11  1  0
 11 12  2  0
 12 13  1  0
 13 14  2  0
 14 15  1  0
 15 16  2  0
  7 17  2  0
 17 18  1  0
 17 19  1  0
 19 20  2  0
  2 21  1  0
 21 22  1  0
 22 23  1  0
 23 24  1  0
 24 25  2  0
 25 26  1  0
 26 27  2  0
 27 28  1  0
 27 29  1  0
 29 30  2  0
 19  4  1  0
 30 24  1  0
 16 11  1  0
  3 31  1  0
  3 32  1  0
  5 33  1  0
  6 34  1  0
 12 35  1  0
 13 36  1  0
 14 37  1  0
 15 38  1  0
 18 39  1  0
 22 40  1  0
 22 41  1  0
 23 42  1  0
 23 43  1  0
 25 44  1  0
 26 45  1  0
 29 46  1  0
 30 47  1  0
M  CHG  3   8  -1  21  -1  28  -1
M  END
>  <UniqueID>  (19) 
19

>  <SMILES>  (19) 
O=C(Cn1ccc([N-]C(=O)c2ccccn2)c(O)c1=O)[N-]CCc1ccc([O-])cc1

>  <Energy>  (19) 
50.56573863443283

>  <Genealogy>  (19) 
O=C(Cn1ccc([N-]C(=O)c2ccccn2)c(O)c1=O)[N-]CCc1ccc([O-])cc1 (protonated)
O=C(Cn1ccc([N-]C(=O)c2ccccn2)c(O)c1=O)[N-]CCc1ccc([O-])cc1 (3D coordinates assigned)
O=C(Cn1ccc([N-]C(=O)c2ccccn2)c(O)c1=O)[N-]CCc1ccc([O-])cc1 (optimized conformer: 50.56573863443283 kcal/mol)

>  <smiles>  (19) 
O=C(Cn1ccc(NC(=O)c2ccccn2)c(O)c1=O)NCCc1ccc(O)cc1

>  <score_type>  (19) 
oracle

>  <origin>  (19) 
adg

>  <m_score__min__energy>  (19) 
-14.4

>  <m_primary>  (19) 
energy

$$$$
19:0
     RDKit          3D

 46 48  0  0  0  0  0  0  0  0999 V2000
   57.7190   31.9410   41.9720 C   0  0  0  0  0  0  0  0  0  0  0  0
   58.1500   32.1060   43.3940 C   0  0  0  0  0  0  0  0  0  0  0  0
   58.5370   33.2900   43.9200 N   0  0  0  0  0  0  0  0  0  0  0  0
   58.7690   33.0550   45.2260 C   0  0  0  0  0  0  0  0  0  0  0  0
   58.5320   31.7500   45.5420 C   0  0  0  0  0  0  0  0  0  0  0  0
   58.1410   31.1100   44.3750 C   0  0  0  0  0  0  0  0  0  0  0  0
   57.6920   29.6810   44.2150 C   0  0  0  0  0  0  0  0  0  0  0  0
   56.2830   29.4720   44.7110 C   0  0  0  0  0  0  0  0  0  0  0  0
   55.5020   30.4560   44.8120 O   0  0  0  0  0  0  0  0  0  0  0  0
   55.8590   28.2090   45.2430 N   0  0  0  0  0  0  0  0  0  0  0  0
   56.7050   27.2090   45.8220 C   0  0  0  0  0  0  0  0  0  0  0  0
   56.2300   25.9130   46.0820 C   0  0  0  0  0  0  0  0  0  0  0  0
   57.0640   24.9650   46.6790 C   0  0  0  0  0  0  0  0  0  0  0  0
   58.3680   25.3100   47.0430 C   0  0  0  0  0  0  0  0  0  0  0  0
   58.8390   26.6130   46.8270 C   0  0  0  0  0  0  0  0  0  0  0  0
   60.4790   27.0530   47.2880 S   0  0  0  0  0  0  0  0  0  0  0  0
   60.6930   28.7560   47.0920 N   0  0  0  0  0  0  0  0  0  0  0  0
   61.4660   26.3210   46.4220 O   0  0  0  0  0  0  0  0  0  0  0  0
   60.7230   26.6730   48.7220 O   0  0  0  0  0  0  0  0  0  0  0  0
   58.0020   27.5590   46.2190 C   0  0  0  0  0  0  0  0  0  0  0  0
   58.6780   31.3170   46.8540 C   0  0  0  0  0  0  0  0  0  0  0  0
   58.4630   30.1100   47.1540 O   0  0  0  0  0  0  0  0  0  0  0  0
   59.0580   32.2290   47.8110 N   0  0  0  0  0  0  0  0  0  0  0  0
   59.2510   31.7920   49.2040 C   0  0  0  0  0  0  0  0  0  0  0  0
   59.3270   33.5400   47.4580 C   0  0  0  0  0  0  0  0  0  0  0  0
   59.7180   34.3560   48.3400 O   0  0  0  0  0  0  0  0  0  0  0  0
   59.1720   33.9660   46.1560 N   0  0  0  0  0  0  0  0  0  0  0  0
   59.4190   35.3600   45.7540 C   0  0  0  0  0  0  0  0  0  0  0  0
   56.6921   31.5479   41.9434 H   0  0  0  0  0  0  0  0  0  0  0  0
   57.7528   32.9157   41.4632 H   0  0  0  0  0  0  0  0  0  0  0  0
   58.3950   31.2381   41.4632 H   0  0  0  0  0  0  0  0  0  0  0  0
   58.6140   34.1990   43.4120 H   0  0  0  0  0  0  0  0  0  0  0  0
   57.7368   29.4120   43.1494 H   0  0  0  0  0  0  0  0  0  0  0  0
   58.3607   29.0458   44.8145 H   0  0  0  0  0  0  0  0  0  0  0  0
   55.1976   25.6437   45.8145 H   0  0  0  0  0  0  0  0  0  0  0  0
   56.6938   23.9456   46.8628 H   0  0  0  0  0  0  0  0  0  0  0  0
   59.0271   24.5574   47.5003 H   0  0  0  0  0  0  0  0  0  0  0  0
   60.1170   29.0440   46.2690 H   0  0  0  0  0  0  0  0  0  0  0  0
   60.2720   29.2160   47.9310 H   0  0  0  0  0  0  0  0  0  0  0  0
   58.3663   28.5835   46.0525 H   0  0  0  0  0  0  0  0  0  0  0  0
   58.9027   32.5806   49.8873 H   0  0  0  0  0  0  0  0  0  0  0  0
   58.6756   30.8716   49.3826 H   0  0  0  0  0  0  0  0  0  0  0  0
   60.3188   31.5974   49.3826 H   0  0  0  0  0  0  0  0  0  0  0  0
   59.5300   35.9863   46.6515 H   0  0  0  0  0  0  0  0  0  0  0  0
   60.3402   35.4111   45.1550 H   0  0  0  0  0  0  0  0  0  0  0  0
   58.5715   35.7245   45.1550 H   0  0  0  0  0  0  0  0  0  0  0  0
  1  2  1  0
  2  3  1  0
  3  4  1  0
  4  5  2  0
  5  6  1  0
  6  7  1  0
  7  8  1  0
  8  9  2  0
  8 10  1  0
 10 11  1  0
 11 12  2  0
 12 13  1  0
 13 14  2  0
 14 15  1  0
 15 16  1  0
 16 17  1  0
 16 18  2  0
 16 19  2  0
 15 20  2  0
  5 21  1  0
 21 22  2  0
 21 23  1  0
 23 24  1  0
 23 25  1  0
 25 26  2  0
 25 27  1  0
 27 28  1  0
  6  2  2  0
 20 11  1  0
 27  4  1  0
  1 29  1  0
  1 30  1  0
  1 31  1  0
  3 32  1  0
  7 33  1  0
  7 34  1  0
 12 35  1  0
 13 36  1  0
 14 37  1  0
 17 38  1  0
 17 39  1  0
 20 40  1  0
 24 41  1  0
 24 42  1  0
 24 43  1  0
 28 44  1  0
 28 45  1  0
 28 46  1  0
M  CHG  1  10  -1
M  END
>  <UniqueID>  (20) 
20

>  <SMILES>  (20) 
Cc1[nH]c2c(c1CC(=O)[N-]c1cccc(S(N)(=O)=O)c1)c(=O)n(C)c(=O)n2C

>  <Energy>  (20) 
92.03508622878448

>  <Genealogy>  (20) 
Cc1[nH]c2c(c1CC(=O)[N-]c1cccc(S(N)(=O)=O)c1)c(=O)n(C)c(=O)n2C (protonated)
Cc1[nH]c2c(c1CC(=O)[N-]c1cccc(S(N)(=O)=O)c1)c(=O)n(C)c(=O)n2C (3D coordinates assigned)
Cc1[nH]c2c(c1CC(=O)[N-]c1cccc(S(N)(=O)=O)c1)c(=O)n(C)c(=O)n2C (optimized conformer: 92.03508622878448 kcal/mol)

>  <smiles>  (20) 
Cc1[nH]c2c(c1CC(=O)Nc1cccc(S(N)(=O)=O)c1)c(=O)n(C)c(=O)n2C

>  <score_type>  (20) 
oracle

>  <origin>  (20) 
adg

>  <m_score__min__energy>  (20) 
-11.210000000000001

>  <m_primary>  (20) 
energy

$$$$
20:0
     RDKit          3D

 57 61  0  0  0  0  0  0  0  0999 V2000
   61.0390   28.4290   45.2920 C   0  0  0  0  0  0  0  0  0  0  0  0
   59.8660   29.2700   45.5570 N   0  0  0  0  0  0  0  0  0  0  0  0
   59.7030   30.1390   46.5870 C   0  0  0  0  0  0  0  0  0  0  0  0
   60.7350   30.5320   47.5640 C   0  0  0  0  0  0  0  0  0  0  0  0
   60.9300   29.8000   48.5710 O   0  0  0  0  0  0  0  0  0  0  0  0
   61.4810   31.7540   47.4130 N   0  0  0  0  0  0  0  0  0  0  0  0
   60.8110   32.9450   46.8620 C   0  0  0  0  0  0  0  0  0  0  0  0
   61.7100   34.1840   46.9400 C   0  0  0  0  0  0  0  0  0  0  0  0
   63.1040   33.8650   46.3900 C   0  0  0  0  0  0  0  0  0  0  0  0
   63.7630   32.6500   47.0790 C   0  0  0  0  0  0  0  0  0  0  0  0
   62.8180   31.8730   48.0090 C   0  0  0  0  0  0  0  0  0  0  0  0
   58.3960   30.5970   46.6030 C   0  0  0  0  0  0  0  0  0  0  0  0
   57.8140   29.9680   45.5260 C   0  0  0  0  0  0  0  0  0  0  0  0
   56.6130   30.1020   45.1690 O   0  0  0  0  0  0  0  0  0  0  0  0
   58.7090   29.1720   44.9070 N   0  0  0  0  0  0  0  0  0  0  0  0
   58.4390   28.2980   43.7590 C   0  0  0  0  0  0  0  0  0  0  0  0
   58.1420   26.8950   44.2160 C   0  0  0  0  0  0  0  0  0  0  0  0
   57.7420   25.9200   43.2880 C   0  0  0  0  0  0  0  0  0  0  0  0
   57.4590   24.6190   43.7100 C   0  0  0  0  0  0  0  0  0  0  0  0
   57.5850   24.2690   45.0630 C   0  0  0  0  0  0  0  0  0  0  0  0
   57.2640   22.8960   45.5130 C   0  0  0  0  0  0  0  0  0  0  0  0
   58.3190   21.9710   45.6130 C   0  0  0  0  0  0  0  0  0  0  0  0
   58.0950   20.6880   46.1130 C   0  0  0  0  0  0  0  0  0  0  0  0
   56.8170   20.3110   46.5220 C   0  0  0  0  0  0  0  0  0  0  0  0
   55.7540   21.2110   46.4170 C   0  0  0  0  0  0  0  0  0  0  0  0
   55.9540   22.5040   45.8990 C   0  0  0  0  0  0  0  0  0  0  0  0
   54.7730   23.3880   45.7360 C   0  0  0  0  0  0  0  0  0  0  0  0
   53.5850   22.9810   45.2500 N   0  0  0  0  0  0  0  0  0  0  0  0
   52.8370   24.0720   45.2270 N   0  0  0  0  0  0  0  0  0  0  0  0
   53.5350   25.1030   45.6720 N   0  0  0  0  0  0  0  0  0  0  0  0
   54.7560   24.7090   45.9930 N   0  0  0  0  0  0  0  0  0  0  0  0
   57.9780   25.2440   45.9920 C   0  0  0  0  0  0  0  0  0  0  0  0
   58.2620   26.5460   45.5710 C   0  0  0  0  0  0  0  0  0  0  0  0
   61.4843   28.1097   46.2458 H   0  0  0  0  0  0  0  0  0  0  0  0
   60.7327   27.5435   44.7158 H   0  0  0  0  0  0  0  0  0  0  0  0
   61.7793   29.0034   44.7158 H   0  0  0  0  0  0  0  0  0  0  0  0
   60.5546   32.7555   45.8092 H   0  0  0  0  0  0  0  0  0  0  0  0
   59.9065   33.1378   47.4576 H   0  0  0  0  0  0  0  0  0  0  0  0
   61.2626   34.9949   46.3465 H   0  0  0  0  0  0  0  0  0  0  0  0
   61.8024   34.4934   47.9915 H   0  0  0  0  0  0  0  0  0  0  0  0
   63.0159   33.6524   45.3144 H   0  0  0  0  0  0  0  0  0  0  0  0
   63.7421   34.7394   46.5857 H   0  0  0  0  0  0  0  0  0  0  0  0
   64.1235   31.9631   46.2991 H   0  0  0  0  0  0  0  0  0  0  0  0
   64.5773   33.0417   47.7063 H   0  0  0  0  0  0  0  0  0  0  0  0
   63.2275   30.8665   48.1800 H   0  0  0  0  0  0  0  0  0  0  0  0
   62.7326   32.4184   48.9604 H   0  0  0  0  0  0  0  0  0  0  0  0
   57.9317   31.2993   47.3110 H   0  0  0  0  0  0  0  0  0  0  0  0
   57.5728   28.6879   43.2043 H   0  0  0  0  0  0  0  0  0  0  0  0
   59.3290   28.2783   43.1128 H   0  0  0  0  0  0  0  0  0  0  0  0
   57.6511   26.1821   42.2236 H   0  0  0  0  0  0  0  0  0  0  0  0
   57.1356   23.8646   42.9777 H   0  0  0  0  0  0  0  0  0  0  0  0
   59.3306   22.2621   45.2938 H   0  0  0  0  0  0  0  0  0  0  0  0
   58.9279   19.9731   46.1845 H   0  0  0  0  0  0  0  0  0  0  0  0
   56.6453   19.3032   46.9281 H   0  0  0  0  0  0  0  0  0  0  0  0
   54.7488   20.9055   46.7430 H   0  0  0  0  0  0  0  0  0  0  0  0
   58.0630   24.9824   47.0571 H   0  0  0  0  0  0  0  0  0  0  0  0
   58.5811   27.3011   46.3045 H   0  0  0  0  0  0  0  0  0  0  0  0
  1  2  1  0
  2  3  1  0
  3  4  1  0
  4  5  2  0
  4  6  1  0
  6  7  1  0
  7  8  1  0
  8  9  1  0
  9 10  1  0
 10 11  1  0
  3 12  2  0
 12 13  1  0
 13 14  2  0
 13 15  1  0
 15 16  1  0
 16 17  1  0
 17 18  2  0
 18 19  1  0
 19 20  2  0
 20 21  1  0
 21 22  2  0
 22 23  1  0
 23 24  2  0
 24 25  1  0
 25 26  2  0
 26 27  1  0
 27 28  1  0
 28 29  2  0
 29 30  1  0
 30 31  1  0
 20 32  1  0
 32 33  2  0
 15  2  1  0
 33 17  1  0
 11  6  1  0
 26 21  1  0
 31 27  2  0
  1 34  1  0
  1 35  1  0
  1 36  1  0
  7 37  1  0
  7 38  1  0
  8 39  1  0
  8 40  1  0
  9 41  1  0
  9 42  1  0
 10 43  1  0
 10 44  1  0
 11 45  1  0
 11 46  1  0
 12 47  1  0
 16 48  1  0
 16 49  1  0
 18 50  1  0
 19 51  1  0
 22 52  1  0
 23 53  1  0
 24 54  1  0
 25 55  1  0
 32 56  1  0
 33 57  1  0
M  CHG  1  30  -1
M  END
>  <UniqueID>  (21) 
21

>  <SMILES>  (21) 
Cn1c(C(=O)N2CCCCC2)cc(=O)n1Cc1ccc(-c2ccccc2-c2nn[n-]n2)cc1

>  <Energy>  (21) 
148.82116941488394

>  <Genealogy>  (21) 
Cn1c(C(=O)N2CCCCC2)cc(=O)n1Cc1ccc(-c2ccccc2-c2nn[n-]n2)cc1 (protonated)
Cn1c(C(=O)N2CCCCC2)cc(=O)n1Cc1ccc(-c2ccccc2-c2nn[n-]n2)cc1 (3D coordinates assigned)
Cn1c(C(=O)N2CCCCC2)cc(=O)n1Cc1ccc(-c2ccccc2-c2nn[n-]n2)cc1 (nonaromatic ring conformer: 148.82116941488394 kcal/mol)

>  <smiles>  (21) 
Cn1c(C(=O)N2CCCCC2)cc(=O)n1Cc1ccc(-c2ccccc2-c2nn[nH]n2)cc1

>  <score_type>  (21) 
oracle

>  <origin>  (21) 
adg

>  <m_score__min__energy>  (21) 
-11.18

>  <m_primary>  (21) 
energy

$$$$
21:0
     RDKit          3D

 40 42  0  0  0  0  0  0  0  0999 V2000
   61.1350   26.7540   49.0100 O   0  0  0  0  0  0  0  0  0  0  0  0
   60.4370   27.1230   48.0300 C   0  0  0  0  0  0  0  0  0  0  0  0
   59.7710   26.1250   47.2430 N   0  0  0  0  0  0  0  0  0  0  0  0
   58.3960   26.1450   46.8310 C   0  0  0  0  0  0  0  0  0  0  0  0
   57.9190   27.2560   46.1240 C   0  0  0  0  0  0  0  0  0  0  0  0
   56.5830   27.3140   45.7150 C   0  0  0  0  0  0  0  0  0  0  0  0
   55.7100   26.2670   46.0240 C   0  0  0  0  0  0  0  0  0  0  0  0
   54.3830   26.3240   45.6160 O   0  0  0  0  0  0  0  0  0  0  0  0
   56.1720   25.1660   46.7520 C   0  0  0  0  0  0  0  0  0  0  0  0
   57.5070   25.1060   47.1630 C   0  0  0  0  0  0  0  0  0  0  0  0
   60.3190   28.5690   47.7340 C   0  0  0  0  0  0  0  0  0  0  0  0
   60.2930   28.9880   46.3970 C   0  0  0  0  0  0  0  0  0  0  0  0
   60.1140   30.2990   46.0910 N   0  0  0  0  0  0  0  0  0  0  0  0
   59.9570   31.2530   47.0480 C   0  0  0  0  0  0  0  0  0  0  0  0
   59.7800   32.6270   46.6590 N   0  0  0  0  0  0  0  0  0  0  0  0
   60.8000   33.6110   46.6030 C   0  0  0  0  0  0  0  0  0  0  0  0
   62.0190   33.3640   46.8050 O   0  0  0  0  0  0  0  0  0  0  0  0
   60.2830   34.9670   46.3340 C   0  0  0  0  0  0  0  0  0  0  0  0
   58.7640   34.7900   46.4560 C   0  0  0  0  0  0  0  0  0  0  0  0
   58.4820   33.2670   46.4660 C   0  0  1  0  0  0  0  0  0  0  0  0
   57.8490   32.8090   45.1430 C   0  0  0  0  0  0  0  0  0  0  0  0
   57.3710   31.4990   45.2650 O   0  0  0  0  0  0  0  0  0  0  0  0
   60.0210   30.8840   48.4000 C   0  0  0  0  0  0  0  0  0  0  0  0
   60.2190   29.5460   48.7500 C   0  0  0  0  0  0  0  0  0  0  0  0
   60.3430   29.2300   50.1040 O   0  0  0  0  0  0  0  0  0  0  0  0
   58.5993   28.0879   45.8891 H   0  0  0  0  0  0  0  0  0  0  0  0
   56.2188   28.1844   45.1496 H   0  0  0  0  0  0  0  0  0  0  0  0
   55.4835   24.3453   47.0018 H   0  0  0  0  0  0  0  0  0  0  0  0
   57.8632   24.2447   47.7472 H   0  0  0  0  0  0  0  0  0  0  0  0
   60.4183   28.2506   45.5905 H   0  0  0  0  0  0  0  0  0  0  0  0
   60.6577   35.6871   47.0764 H   0  0  0  0  0  0  0  0  0  0  0  0
   60.5953   35.3631   45.3565 H   0  0  0  0  0  0  0  0  0  0  0  0
   58.4048   35.2463   47.3902 H   0  0  0  0  0  0  0  0  0  0  0  0
   58.2445   35.2788   45.6186 H   0  0  0  0  0  0  0  0  0  0  0  0
   57.7697   33.0002   47.2607 H   0  0  0  0  0  0  0  0  0  0  0  0
   57.0141   33.4784   44.8885 H   0  0  0  0  0  0  0  0  0  0  0  0
   58.6106   32.8413   44.3500 H   0  0  0  0  0  0  0  0  0  0  0  0
   58.1680   30.9290   45.4240 H   0  0  0  0  0  0  0  0  0  0  0  0
   59.9153   31.6480   49.1843 H   0  0  0  0  0  0  0  0  0  0  0  0
   60.6430   28.3210   50.4320 H   0  0  0  0  0  0  0  0  0  0  0  0
  1  2  2  0
  2  3  1  0
  3  4  1  0
  4  5  2  0
  5  6  1  0
  6  7  2  0
  7  8  1  0
  7  9  1  0
  9 10  2  0
  2 11  1  0
 11 12  2  0
 12 13  1  0
 13 14  2  0
 14 15  1  0
 15 16  1  0
 16 17  2  0
 16 18  1  0
 18 19  1  0
 19 20  1  0
 20 21  1  0
 21 22  1  0
 14 23  1  0
 23 24  2  0
 24 25  1  0
 10  4  1  0
 24 11  1  0
 20 15  1  0
  5 26  1  0
  6 27  1  0
  9 28  1  0
 10 29  1  0
 12 30  1  0
 18 31  1  0
 18 32  1  0
 19 33  1  0
 19 34  1  0
 20 35  1  1
 21 36  1  0
 21 37  1  0
 22 38  1  0
 23 39  1  0
 25 40  1  0
M  CHG  2   3  -1   8  -1
M  END
>  <UniqueID>  (22) 
22

>  <SMILES>  (22) 
O=C([N-]c1ccc([O-])cc1)c1cnc(N2C(=O)CC[C@H]2CO)cc1O

>  <Energy>  (22) 
60.38504637099047

>  <Genealogy>  (22) 
O=C([N-]c1ccc([O-])cc1)c1cnc(N2C(=O)CCC2CO)cc1O (protonated)
O=C([N-]c1ccc([O-])cc1)c1cnc(N2C(=O)CC[C@H]2CO)cc1O (chirality)
O=C([N-]c1ccc([O-])cc1)c1cnc(N2C(=O)CC[C@H]2CO)cc1O (3D coordinates assigned)
O=C([N-]c1ccc([O-])cc1)c1cnc(N2C(=O)CC[C@H]2CO)cc1O (nonaromatic ring conformer: 60.38504637099047 kcal/mol)

>  <smiles>  (22) 
O=C(Nc1ccc(O)cc1)c1cnc(N2C(=O)CCC2CO)cc1O

>  <score_type>  (22) 
oracle

>  <origin>  (22) 
adg

>  <m_score__min__energy>  (22) 
-10.77

>  <m_primary>  (22) 
energy

$$$$
22:0
     RDKit          3D

 31 33  0  0  0  0  0  0  0  0999 V2000
   56.9700   24.4280   43.3700 C   0  0  0  0  0  0  0  0  0  0  0  0
   57.6730   25.6760   43.6430 N   0  0  0  0  0  0  0  0  0  0  0  0
   57.7760   26.7490   42.8390 C   0  0  0  0  0  0  0  0  0  0  0  0
   58.5800   27.6720   43.3960 N   0  0  0  0  0  0  0  0  0  0  0  0
   59.0210   27.2010   44.5530 N   0  0  0  0  0  0  0  0  0  0  0  0
   58.4690   25.9790   44.6880 C   0  0  0  0  0  0  0  0  0  0  0  0
   58.7780   24.9000   46.0900 S   0  0  0  0  0  0  0  0  0  0  0  0
   57.5130   25.6710   47.1590 C   0  0  0  0  0  0  0  0  0  0  0  0
   56.1800   25.7390   46.4610 C   0  0  0  0  0  0  0  0  0  0  0  0
   55.4540   24.7100   46.4680 O   0  0  0  0  0  0  0  0  0  0  0  0
   55.6720   26.9230   45.8170 N   0  0  0  0  0  0  0  0  0  0  0  0
   56.2610   28.0650   45.6130 C   0  0  0  0  0  0  0  0  0  0  0  0
   57.3960   28.4610   46.2460 N   0  0  0  0  0  0  0  0  0  0  0  0
   57.6160   29.6730   45.7190 C   0  0  0  0  0  0  0  0  0  0  0  0
   58.6560   30.5530   46.0060 C   0  0  0  0  0  0  0  0  0  0  0  0
   58.6800   31.7820   45.3190 C   0  0  0  0  0  0  0  0  0  0  0  0
   57.6750   32.0930   44.3750 C   0  0  0  0  0  0  0  0  0  0  0  0
   56.6380   31.1770   44.1110 C   0  0  0  0  0  0  0  0  0  0  0  0
   56.6470   29.9720   44.8100 C   0  0  0  0  0  0  0  0  0  0  0  0
   55.7680   28.9640   44.7210 N   0  0  0  0  0  0  0  0  0  0  0  0
   56.6979   23.9450   44.3201 H   0  0  0  0  0  0  0  0  0  0  0  0
   56.0583   24.6396   42.7920 H   0  0  0  0  0  0  0  0  0  0  0  0
   57.6234   23.7580   42.7920 H   0  0  0  0  0  0  0  0  0  0  0  0
   57.2747   26.8563   41.8657 H   0  0  0  0  0  0  0  0  0  0  0  0
   58.8360   28.6010   42.9940 H   0  0  0  0  0  0  0  0  0  0  0  0
   57.4074   25.0750   48.0775 H   0  0  0  0  0  0  0  0  0  0  0  0
   57.8348   26.6955   47.3972 H   0  0  0  0  0  0  0  0  0  0  0  0
   59.4314   30.2973   46.7432 H   0  0  0  0  0  0  0  0  0  0  0  0
   59.4855   32.5042   45.5181 H   0  0  0  0  0  0  0  0  0  0  0  0
   57.7029   33.0557   43.8436 H   0  0  0  0  0  0  0  0  0  0  0  0
   55.8492   31.4050   43.3790 H   0  0  0  0  0  0  0  0  0  0  0  0
  1  2  1  0
  2  3  1  0
  3  4  2  0
  4  5  1  0
  5  6  2  0
  6  7  1  0
  7  8  1  0
  8  9  1  0
  9 10  2  0
  9 11  1  0
 11 12  2  3
 12 13  1  0
 13 14  1  0
 14 15  2  0
 15 16  1  0
 16 17  2  0
 17 18  1  0
 18 19  2  0
 19 20  1  0
  6  2  1  0
 20 12  1  0
 19 14  1  0
  1 21  1  0
  1 22  1  0
  1 23  1  0
  3 24  1  0
  4 25  1  0
  8 26  1  0
  8 27  1  0
 15 28  1  0
 16 29  1  0
 17 30  1  0
 18 31  1  0
M  CHG  3   4   1  13  -1  20  -1
M  END
>  <UniqueID>  (23) 
23

>  <SMILES>  (23) 
Cn1c[nH+]nc1SCC(=O)N=c1[n-]c2ccccc2[n-]1

>  <Energy>  (23) 
102.33618860262824

>  <Genealogy>  (23) 
Cn1c[nH+]nc1SCC(=O)N=c1[n-]c2ccccc2[n-]1 (protonated)
Cn1c[nH+]nc1SCC(=O)N=c1[n-]c2ccccc2[n-]1 (3D coordinates assigned)
Cn1c[nH+]nc1SCC(=O)N=c1[n-]c2ccccc2[n-]1 (optimized conformer: 102.33618860262824 kcal/mol)

>  <smiles>  (23) 
Cn1cnnc1SCC(=O)N=c1[nH]c2ccccc2[nH]1

>  <score_type>  (23) 
oracle

>  <origin>  (23) 
adg

>  <m_score__min__energy>  (23) 
-9.2200000000000006

>  <m_primary>  (23) 
energy

$$$$
23:0
     RDKit          3D

 55 58  0  0  0  0  0  0  0  0999 V2000
   57.8280   34.5730   44.8830 C   0  0  0  0  0  0  0  0  0  0  0  0
   57.1110   33.6370   45.8510 C   0  0  0  0  0  0  0  0  0  0  0  0
   58.0800   32.7530   46.5220 N   0  0  0  0  0  0  0  0  0  0  0  0
   58.9180   33.2190   47.5150 C   0  0  0  0  0  0  0  0  0  0  0  0
   58.8600   34.4350   47.8540 O   0  0  0  0  0  0  0  0  0  0  0  0
   59.8180   32.3670   48.1410 N   0  0  0  0  0  0  0  0  0  0  0  0
   60.7500   32.8730   49.1690 C   0  0  0  0  0  0  0  0  0  0  0  0
   62.1820   32.6730   48.7470 C   0  0  0  0  0  0  0  0  0  0  0  0
   62.8010   33.1000   47.5830 C   0  0  0  0  0  0  0  0  0  0  0  0
   62.1740   33.8270   46.4390 C   0  0  0  0  0  0  0  0  0  0  0  0
   64.0880   32.7060   47.6140 N   0  0  0  0  0  0  0  0  0  0  0  0
   64.2960   32.0810   48.7350 O   0  0  0  0  0  0  0  0  0  0  0  0
   63.1950   32.0370   49.4500 C   0  0  0  0  0  0  0  0  0  0  0  0
   63.0940   31.3940   50.7940 C   0  0  0  0  0  0  0  0  0  0  0  0
   59.8460   31.0310   47.8050 C   0  0  0  0  0  0  0  0  0  0  0  0
   60.6350   30.2250   48.3720 O   0  0  0  0  0  0  0  0  0  0  0  0
   58.9840   30.5800   46.8240 C   0  0  0  0  0  0  0  0  0  0  0  0
   58.8450   29.3390   46.3330 N   0  0  0  0  0  0  0  0  0  0  0  0
   57.8640   29.5080   45.4070 C   0  0  0  0  0  0  0  0  0  0  0  0
   57.3890   28.3980   44.5250 C   0  0  0  0  0  0  0  0  0  0  0  0
   57.3890   27.1040   45.2870 C   0  0  0  0  0  0  0  0  0  0  0  0
   58.5430   26.3050   45.3270 C   0  0  0  0  0  0  0  0  0  0  0  0
   58.5530   25.1160   46.0630 C   0  0  0  0  0  0  0  0  0  0  0  0
   57.4230   24.7240   46.7920 C   0  0  0  0  0  0  0  0  0  0  0  0
   57.4590   23.4810   47.5080 N   0  0  0  0  0  0  0  0  0  0  0  0
   56.9550   22.2160   47.0580 C   0  0  0  0  0  0  0  0  0  0  0  0
   56.3130   22.0450   45.7150 C   0  0  0  0  0  0  0  0  0  0  0  0
   57.0240   21.2250   47.8310 O   0  0  0  0  0  0  0  0  0  0  0  0
   56.2620   25.5140   46.7410 C   0  0  0  0  0  0  0  0  0  0  0  0
   56.2510   26.7030   46.0050 C   0  0  0  0  0  0  0  0  0  0  0  0
   57.4040   30.7820   45.2920 N   0  0  0  0  0  0  0  0  0  0  0  0
   58.1360   31.4300   46.2110 C   0  0  0  0  0  0  0  0  0  0  0  0
   58.4005   35.3204   45.4519 H   0  0  0  0  0  0  0  0  0  0  0  0
   58.5132   33.9906   44.2496 H   0  0  0  0  0  0  0  0  0  0  0  0
   57.0872   35.0829   44.2496 H   0  0  0  0  0  0  0  0  0  0  0  0
   56.5809   34.2344   46.6074 H   0  0  0  0  0  0  0  0  0  0  0  0
   56.3954   33.0202   45.2875 H   0  0  0  0  0  0  0  0  0  0  0  0
   60.5672   33.9468   49.3226 H   0  0  0  0  0  0  0  0  0  0  0  0
   60.5789   32.3149   50.1013 H   0  0  0  0  0  0  0  0  0  0  0  0
   61.5012   34.6071   46.8248 H   0  0  0  0  0  0  0  0  0  0  0  0
   62.9596   34.2913   45.8248 H   0  0  0  0  0  0  0  0  0  0  0  0
   61.5993   33.1181   45.8248 H   0  0  0  0  0  0  0  0  0  0  0  0
   64.8110   32.8640   46.8770 H   0  0  0  0  0  0  0  0  0  0  0  0
   63.2140   32.1582   51.5760 H   0  0  0  0  0  0  0  0  0  0  0  0
   62.1095   30.9144   50.8980 H   0  0  0  0  0  0  0  0  0  0  0  0
   63.8841   30.6357   50.8980 H   0  0  0  0  0  0  0  0  0  0  0  0
   56.3680   28.6180   44.1797 H   0  0  0  0  0  0  0  0  0  0  0  0
   58.0629   28.3090   43.6602 H   0  0  0  0  0  0  0  0  0  0  0  0
   59.4434   26.6158   44.7768 H   0  0  0  0  0  0  0  0  0  0  0  0
   59.4538   24.4847   46.0695 H   0  0  0  0  0  0  0  0  0  0  0  0
   55.2576   21.7639   45.8462 H   0  0  0  0  0  0  0  0  0  0  0  0
   56.3739   22.9907   45.1564 H   0  0  0  0  0  0  0  0  0  0  0  0
   56.8362   21.2549   45.1564 H   0  0  0  0  0  0  0  0  0  0  0  0
   55.3586   25.1960   47.2820 H   0  0  0  0  0  0  0  0  0  0  0  0
   55.3457   27.3276   45.9885 H   0  0  0  0  0  0  0  0  0  0  0  0
  1  2  1  0
  2  3  1  0
  3  4  1  0
  4  5  2  0
  4  6  1  0
  6  7  1  0
  7  8  1  0
  8  9  1  0
  9 10  1  0
  9 11  2  0
 11 12  1  0
 12 13  1  0
 13 14  1  0
  6 15  1  0
 15 16  2  0
 15 17  1  0
 17 18  1  0
 18 19  1  0
 19 20  1  0
 20 21  1  0
 21 22  2  0
 22 23  1  0
 23 24  2  0
 24 25  1  0
 25 26  1  0
 26 27  1  0
 26 28  2  0
 24 29  1  0
 29 30  2  0
 19 31  2  0
 31 32  1  0
 32  3  1  0
 13  8  2  0
 32 17  2  0
 30 21  1  0
  1 33  1  0
  1 34  1  0
  1 35  1  0
  2 36  1  0
  2 37  1  0
  7 38  1  0
  7 39  1  0
 10 40  1  0
 10 41  1  0
 10 42  1  0
 11 43  1  0
 14 44  1  0
 14 45  1  0
 14 46  1  0
 20 47  1  0
 20 48  1  0
 22 49  1  0
 23 50  1  0
 27 51  1  0
 27 52  1  0
 27 53  1  0
 29 54  1  0
 30 55  1  0
M  CHG  3  11   1  18  -1  25  -1
M  END
>  <UniqueID>  (24) 
24

>  <SMILES>  (24) 
CCn1c(=O)n(Cc2c(C)[nH+]oc2C)c(=O)c2[n-]c(Cc3ccc([N-]C(C)=O)cc3)nc21

>  <Energy>  (24) 
127.48536636884793

>  <Genealogy>  (24) 
CCn1c(=O)n(Cc2c(C)[nH+]oc2C)c(=O)c2[n-]c(Cc3ccc([N-]C(C)=O)cc3)nc21 (protonated)
CCn1c(=O)n(Cc2c(C)[nH+]oc2C)c(=O)c2[n-]c(Cc3ccc([N-]C(C)=O)cc3)nc21 (3D coordinates assigned)
CCn1c(=O)n(Cc2c(C)[nH+]oc2C)c(=O)c2[n-]c(Cc3ccc([N-]C(C)=O)cc3)nc21 (optimized conformer: 127.48536636884793 kcal/mol)

>  <smiles>  (24) 
CCn1c(=O)n(Cc2c(C)noc2C)c(=O)c2[nH]c(Cc3ccc(NC(C)=O)cc3)nc21

>  <score_type>  (24) 
oracle

>  <origin>  (24) 
adg

>  <m_score__min__energy>  (24) 
-10.779999999999999

>  <m_primary>  (24) 
energy

$$$$
24:0
     RDKit          3D

 60 64  0  0  0  0  0  0  0  0999 V2000
   57.9500   24.0850   47.4210 H   0  0  0  0  0  0  0  0  0  0  0  0
   57.3180   23.2990   47.5200 O   0  0  0  0  0  0  0  0  0  0  0  0
   56.0480   23.2990   46.9460 C   0  0  0  0  0  0  0  0  0  0  0  0
   55.3090   22.1080   46.9300 C   0  0  0  0  0  0  0  0  0  0  0  0
   55.7636   21.1777   47.3013 H   0  0  0  0  0  0  0  0  0  0  0  0
   54.0030   22.0950   46.4470 C   0  0  0  0  0  0  0  0  0  0  0  0
   53.4249   21.1593   46.4299 H   0  0  0  0  0  0  0  0  0  0  0  0
   53.4380   23.2810   45.9860 C   0  0  0  0  0  0  0  0  0  0  0  0
   52.4005   23.2899   45.6207 H   0  0  0  0  0  0  0  0  0  0  0  0
   54.1670   24.4270   45.9870 N   0  0  0  0  0  0  0  0  0  0  0  0
   55.4570   24.4800   46.4220 C   0  0  0  0  0  0  0  0  0  0  0  0
   56.0650   25.6340   46.3650 N   0  0  0  0  0  0  0  0  0  0  0  0
   57.4490   25.9150   46.1120 C   0  0  0  0  0  0  0  0  0  0  0  0
   58.1650   25.0620   45.5200 O   0  0  0  0  0  0  0  0  0  0  0  0
   58.0080   27.2490   46.4420 C   0  0  0  0  0  0  0  0  0  0  0  0
   58.3380   28.1570   45.4270 C   0  0  0  0  0  0  0  0  0  0  0  0
   58.1763   27.8791   44.3750 H   0  0  0  0  0  0  0  0  0  0  0  0
   58.8700   29.4110   45.7360 C   0  0  0  0  0  0  0  0  0  0  0  0
   59.1430   30.1012   44.9241 H   0  0  0  0  0  0  0  0  0  0  0  0
   59.0610   29.8020   47.0780 C   0  0  0  0  0  0  0  0  0  0  0  0
   58.7290   28.8900   48.0990 C   0  0  0  0  0  0  0  0  0  0  0  0
   58.2170   27.6220   47.7800 C   0  0  0  0  0  0  0  0  0  0  0  0
   57.9771   26.9133   48.5864 H   0  0  0  0  0  0  0  0  0  0  0  0
   59.0000   29.2450   49.5390 C   0  0  0  0  0  0  0  0  0  0  0  0
   60.0439   28.9931   49.7775 H   0  0  0  0  0  0  0  0  0  0  0  0
   58.3018   28.6744   50.1691 H   0  0  0  0  0  0  0  0  0  0  0  0
   58.7840   30.6800   49.7990 N   0  0  0  0  0  0  0  0  0  0  0  0
   58.4880   31.1250   51.1430 C   0  0  0  0  0  0  0  0  0  0  0  0
   58.6090   32.4760   51.5090 C   0  0  0  0  0  0  0  0  0  0  0  0
   58.9354   33.2177   50.7651 H   0  0  0  0  0  0  0  0  0  0  0  0
   58.3250   32.8700   52.7760 N   0  0  0  0  0  0  0  0  0  0  0  0
   57.9230   31.9750   53.7140 C   0  0  0  0  0  0  0  0  0  0  0  0
   57.6968   32.3138   54.7358 H   0  0  0  0  0  0  0  0  0  0  0  0
   57.8000   30.6630   53.3920 N   0  0  0  0  0  0  0  0  0  0  0  0
   58.0720   30.2220   52.1370 C   0  0  0  0  0  0  0  0  0  0  0  0
   57.9664   29.1537   51.8970 H   0  0  0  0  0  0  0  0  0  0  0  0
   58.8970   31.6760   48.7170 C   0  0  0  0  0  0  0  0  0  0  0  0
   59.4172   32.5637   49.1061 H   0  0  0  0  0  0  0  0  0  0  0  0
   57.8798   31.9229   48.3790 H   0  0  0  0  0  0  0  0  0  0  0  0
   59.6790   31.1350   47.5040 C   0  0  2  0  0  0  0  0  0  0  0  0
   60.7207   30.9286   47.7906 H   0  0  0  0  0  0  0  0  0  0  0  0
   59.8690   32.1980   46.3640 C   0  0  0  0  0  0  0  0  0  0  0  0
   60.4981   31.6741   45.6293 H   0  0  0  0  0  0  0  0  0  0  0  0
   60.6860   33.4470   46.7970 C   0  0  0  0  0  0  0  0  0  0  0  0
   61.3418   33.7316   45.9610 H   0  0  0  0  0  0  0  0  0  0  0  0
   61.2343   33.1543   47.7046 H   0  0  0  0  0  0  0  0  0  0  0  0
   59.8450   34.6770   47.1830 C   0  0  0  0  0  0  0  0  0  0  0  0
   60.5111   35.5500   47.2471 H   0  0  0  0  0  0  0  0  0  0  0  0
   59.3625   34.4544   48.1461 H   0  0  0  0  0  0  0  0  0  0  0  0
   58.7760   34.9740   46.2160 N   0  0  0  0  0  0  0  0  0  0  0  0
   59.2870   35.4880   44.9350 C   0  0  0  0  0  0  0  0  0  0  0  0
   60.0507   36.2562   45.1266 H   0  0  0  0  0  0  0  0  0  0  0  0
   59.7331   34.6628   44.3605 H   0  0  0  0  0  0  0  0  0  0  0  0
   58.4592   35.9292   44.3605 H   0  0  0  0  0  0  0  0  0  0  0  0
   57.8660   33.8290   46.0560 C   0  0  0  0  0  0  0  0  0  0  0  0
   57.0942   34.0959   45.3190 H   0  0  0  0  0  0  0  0  0  0  0  0
   57.4352   33.6126   47.0447 H   0  0  0  0  0  0  0  0  0  0  0  0
   58.5780   32.5530   45.5780 C   0  0  0  0  0  0  0  0  0  0  0  0
   58.8468   32.6865   44.5197 H   0  0  0  0  0  0  0  0  0  0  0  0
   57.8748   31.7237   45.7443 H   0  0  0  0  0  0  0  0  0  0  0  0
  1  2  1  0
  2  3  1  0
  3  4  2  0
  4  5  1  0
  4  6  1  0
  6  7  1  0
  6  8  2  0
  8  9  1  0
  8 10  1  0
 10 11  1  0
 11 12  2  0
 12 13  1  0
 13 14  2  0
 13 15  1  0
 15 16  2  0
 16 17  1  0
 16 18  1  0
 18 19  1  0
 18 20  2  0
 20 21  1  0
 21 22  2  0
 22 23  1  0
 21 24  1  0
 24 25  1  0
 24 26  1  0
 24 27  1  0
 27 28  1  0
 28 29  2  0
 29 30  1  0
 29 31  1  0
 31 32  2  0
 32 33  1  0
 32 34  1  0
 34 35  2  0
 35 36  1  0
 27 37  1  0
 37 38  1  0
 37 39  1  0
 37 40  1  0
 40 41  1  1
 40 42  1  0
 42 43  1  0
 42 44  1  0
 44 45  1  0
 44 46  1  0
 44 47  1  0
 47 48  1  0
 47 49  1  0
 47 50  1  0
 50 51  1  0
 51 52  1  0
 51 53  1  0
 51 54  1  0
 50 55  1  0
 55 56  1  0
 55 57  1  0
 55 58  1  0
 58 59  1  0
 58 60  1  0
 11  3  1  0
 22 15  1  0
 35 28  1  0
 58 42  1  0
 40 20  1  0
M  CHG  1  10  -1
M  END
>  <UniqueID>  (25) 
25

>  <SMILES>  (25) 
CN1CCC([C@H]2CN(c3cncnc3)Cc3cc(C(=O)/N=c4/[n-]cccc4O)ccc32)CC1

>  <Energy>  (25) 
98.94898504803731

>  <Genealogy>  (25) 
CN1CCC(C2CN(c3cncnc3)Cc3cc(C(=O)N=c4[n-]cccc4O)ccc32)CC1 (protonated)
CN1CCC([C@H]2CN(c3cncnc3)Cc3cc(C(=O)N=c4[n-]cccc4O)ccc32)CC1 (chirality)
CN1CCC([C@H]2CN(c3cncnc3)Cc3cc(C(=O)/N=c4/[n-]cccc4O)ccc32)CC1 (cis-trans isomerization)
CN1CCC([C@H]2CN(c3cncnc3)Cc3cc(C(=O)/N=c4/[n-]cccc4O)ccc32)CC1 (3D coordinates assigned)
CN1CCC([C@H]2CN(c3cncnc3)Cc3cc(C(=O)/N=c4/[n-]cccc4O)ccc32)CC1 (nonaromatic ring conformer: 98.94898504803731 kcal/mol)

>  <smiles>  (25) 
CN1CCC(C2CN(c3cncnc3)Cc3cc(C(=O)N=c4[nH]cccc4O)ccc32)CC1

>  <score_type>  (25) 
oracle

>  <origin>  (25) 
adg

>  <m_score__min__energy>  (25) 
-10.48

>  <m_primary>  (25) 
energy

$$$$
25:0
     RDKit          3D

 68 71  0  0  0  0  0  0  0  0999 V2000
   57.4210   31.9430   43.0490 O   0  0  0  0  0  0  0  0  0  0  0  0
   57.3920   31.8730   44.3080 C   0  0  0  0  0  0  0  0  0  0  0  0
   56.7640   30.7920   44.9380 O   0  0  0  0  0  0  0  0  0  0  0  0
   56.9030   29.4400   44.5070 C   0  0  0  0  0  0  0  0  0  0  0  0
   57.9910   28.6790   45.3080 C   0  0  1  0  0  0  0  0  0  0  0  0
   58.5310   29.5940   46.4610 C   0  0  0  0  0  0  0  0  0  0  0  0
   59.9580   29.4220   46.8460 N   0  0  0  0  0  0  0  0  0  0  0  0
   60.5240   30.5860   47.5640 C   0  0  0  0  0  0  0  0  0  0  0  0
   59.6380   30.9720   48.7560 C   0  0  0  0  0  0  0  0  0  0  0  0
   60.0270   32.3350   49.3410 C   0  0  0  0  0  0  0  0  0  0  0  0
   61.4720   32.6390   49.0510 C   0  0  0  0  0  0  0  0  0  0  0  0
   62.4420   32.5060   50.0590 C   0  0  0  0  0  0  0  0  0  0  0  0
   63.7790   32.8250   49.7970 C   0  0  0  0  0  0  0  0  0  0  0  0
   64.1540   33.2880   48.5320 C   0  0  0  0  0  0  0  0  0  0  0  0
   63.1920   33.4350   47.5280 C   0  0  0  0  0  0  0  0  0  0  0  0
   61.8550   33.1160   47.7850 C   0  0  0  0  0  0  0  0  0  0  0  0
   60.3180   28.1430   47.4840 C   0  0  0  0  0  0  0  0  0  0  0  0
   59.7600   26.9340   46.7250 C   0  0  0  0  0  0  0  0  0  0  0  0
   58.2430   26.7310   46.8650 C   0  0  0  0  0  0  0  0  0  0  0  0
   57.4850   27.3370   45.7430 N   0  0  0  0  0  0  0  0  0  0  0  0
   57.4300   26.3750   44.6140 C   0  0  0  0  0  0  0  0  0  0  0  0
   56.5510   25.2040   44.9780 C   0  0  0  0  0  0  0  0  0  0  0  0
   56.9430   23.9110   44.5940 C   0  0  0  0  0  0  0  0  0  0  0  0
   56.1510   22.8050   44.9140 C   0  0  0  0  0  0  0  0  0  0  0  0
   54.9590   22.9800   45.6190 C   0  0  0  0  0  0  0  0  0  0  0  0
   54.5550   24.2600   46.0040 C   0  0  0  0  0  0  0  0  0  0  0  0
   55.3440   25.3770   45.6880 C   0  0  0  0  0  0  0  0  0  0  0  0
   54.9290   26.6510   46.0780 O   0  0  0  0  0  0  0  0  0  0  0  0
   58.0090   32.9390   45.1270 C   0  0  0  0  0  0  0  0  0  0  0  0
   57.7390   33.0350   46.5050 C   0  0  0  0  0  0  0  0  0  0  0  0
   58.3370   34.0390   47.2750 C   0  0  0  0  0  0  0  0  0  0  0  0
   59.2080   34.9530   46.6790 C   0  0  0  0  0  0  0  0  0  0  0  0
   59.4850   34.8660   45.3120 C   0  0  0  0  0  0  0  0  0  0  0  0
   58.8890   33.8650   44.5390 C   0  0  0  0  0  0  0  0  0  0  0  0
   55.9401   28.9250   44.6398 H   0  0  0  0  0  0  0  0  0  0  0  0
   57.2080   29.4520   43.4502 H   0  0  0  0  0  0  0  0  0  0  0  0
   58.8598   28.4553   44.6715 H   0  0  0  0  0  0  0  0  0  0  0  0
   58.3956   30.6393   46.1465 H   0  0  0  0  0  0  0  0  0  0  0  0
   57.9567   29.3006   47.3521 H   0  0  0  0  0  0  0  0  0  0  0  0
   61.5296   30.3306   47.9294 H   0  0  0  0  0  0  0  0  0  0  0  0
   60.5746   31.4385   46.8706 H   0  0  0  0  0  0  0  0  0  0  0  0
   58.5909   31.0145   48.4216 H   0  0  0  0  0  0  0  0  0  0  0  0
   59.7736   30.2133   49.5409 H   0  0  0  0  0  0  0  0  0  0  0  0
   59.3955   33.1155   48.8916 H   0  0  0  0  0  0  0  0  0  0  0  0
   59.8801   32.3098   50.4309 H   0  0  0  0  0  0  0  0  0  0  0  0
   62.1492   32.1498   51.0577 H   0  0  0  0  0  0  0  0  0  0  0  0
   64.5359   32.7114   50.5871 H   0  0  0  0  0  0  0  0  0  0  0  0
   65.2057   33.5366   48.3267 H   0  0  0  0  0  0  0  0  0  0  0  0
   63.4875   33.8023   46.5341 H   0  0  0  0  0  0  0  0  0  0  0  0
   61.1004   33.2386   46.9941 H   0  0  0  0  0  0  0  0  0  0  0  0
   61.4145   28.0623   47.5197 H   0  0  0  0  0  0  0  0  0  0  0  0
   59.8803   28.1367   48.4931 H   0  0  0  0  0  0  0  0  0  0  0  0
   59.9911   27.0634   45.6574 H   0  0  0  0  0  0  0  0  0  0  0  0
   60.2341   26.0448   47.1662 H   0  0  0  0  0  0  0  0  0  0  0  0
   58.0321   25.6517   46.8916 H   0  0  0  0  0  0  0  0  0  0  0  0
   57.9226   27.2275   47.7928 H   0  0  0  0  0  0  0  0  0  0  0  0
   57.0184   26.8778   43.7264 H   0  0  0  0  0  0  0  0  0  0  0  0
   58.4457   26.0116   44.3987 H   0  0  0  0  0  0  0  0  0  0  0  0
   57.8807   23.7679   44.0371 H   0  0  0  0  0  0  0  0  0  0  0  0
   56.4670   21.7961   44.6102 H   0  0  0  0  0  0  0  0  0  0  0  0
   54.3372   22.1085   45.8716 H   0  0  0  0  0  0  0  0  0  0  0  0
   53.6139   24.3936   46.5576 H   0  0  0  0  0  0  0  0  0  0  0  0
   55.1670   27.4750   45.5380 H   0  0  0  0  0  0  0  0  0  0  0  0
   57.0541   32.3168   46.9794 H   0  0  0  0  0  0  0  0  0  0  0  0
   58.1205   34.1081   48.3513 H   0  0  0  0  0  0  0  0  0  0  0  0
   59.6764   35.7420   47.2857 H   0  0  0  0  0  0  0  0  0  0  0  0
   60.1726   35.5857   44.8438 H   0  0  0  0  0  0  0  0  0  0  0  0
   59.1100   33.8013   43.4633 H   0  0  0  0  0  0  0  0  0  0  0  0
  1  2  2  0
  2  3  1  0
  3  4  1  0
  4  5  1  0
  5  6  1  0
  6  7  1  0
  7  8  1  0
  8  9  1  0
  9 10  1  0
 10 11  1  0
 11 12  2  0
 12 13  1  0
 13 14  2  0
 14 15  1  0
 15 16  2  0
  7 17  1  0
 17 18  1  0
 18 19  1  0
 19 20  1  0
 20 21  1  0
 21 22  1  0
 22 23  2  0
 23 24  1  0
 24 25  2  0
 25 26  1  0
 26 27  2  0
 27 28  1  0
  2 29  1  0
 29 30  2  0
 30 31  1  0
 31 32  2  0
 32 33  1  0
 33 34  2  0
 20  5  1  0
 27 22  1  0
 34 29  1  0
 16 11  1  0
  4 35  1  0
  4 36  1  0
  5 37  1  6
  6 38  1  0
  6 39  1  0
  8 40  1  0
  8 41  1  0
  9 42  1  0
  9 43  1  0
 10 44  1  0
 10 45  1  0
 12 46  1  0
 13 47  1  0
 14 48  1  0
 15 49  1  0
 16 50  1  0
 17 51  1  0
 17 52  1  0
 18 53  1  0
 18 54  1  0
 19 55  1  0
 19 56  1  0
 21 57  1  0
 21 58  1  0
 23 59  1  0
 24 60  1  0
 25 61  1  0
 26 62  1  0
 28 63  1  0
 30 64  1  0
 31 65  1  0
 32 66  1  0
 33 67  1  0
 34 68  1  0
M  END
>  <UniqueID>  (26) 
26

>  <SMILES>  (26) 
O=C(OC[C@H]1CN(CCCc2ccccc2)CCCN1Cc1ccccc1O)c1ccccc1

>  <Energy>  (26) 
87.67997927910238

>  <Genealogy>  (26) 
O=C(OC[C@H]1CN(CCCc2ccccc2)CCCN1Cc1ccccc1O)c1ccccc1 (chirality)
O=C(OC[C@H]1CN(CCCc2ccccc2)CCCN1Cc1ccccc1O)c1ccccc1 (3D coordinates assigned)
O=C(OC[C@H]1CN(CCCc2ccccc2)CCCN1Cc1ccccc1O)c1ccccc1 (nonaromatic ring conformer: 87.67997927910238 kcal/mol)

>  <smiles>  (26) 
O=C(OCC1CN(CCCc2ccccc2)CCCN1Cc1ccccc1O)c1ccccc1

>  <score_type>  (26) 
oracle

>  <origin>  (26) 
adg

>  <m_score__min__energy>  (26) 
-8.7100000000000009

>  <m_primary>  (26) 
energy

$$$$
26:0
     RDKit          3D

 42 46  0  0  0  0  0  0  0  0999 V2000
   54.1690   26.7120   46.7950 H   0  0  0  0  0  0  0  0  0  0  0  0
   54.9100   26.5830   46.1180 O   0  0  0  0  0  0  0  0  0  0  0  0
   55.9660   25.7050   46.3490 C   0  0  0  0  0  0  0  0  0  0  0  0
   55.8730   24.6410   47.1620 N   0  0  0  0  0  0  0  0  0  0  0  0
   57.1250   24.1370   47.1430 C   0  0  0  0  0  0  0  0  0  0  0  0
   57.4540   23.1160   47.8010 O   0  0  0  0  0  0  0  0  0  0  0  0
   57.9980   24.8180   46.3720 N   0  0  0  0  0  0  0  0  0  0  0  0
   57.2500   25.8050   45.8490 C   0  0  0  0  0  0  0  0  0  0  0  0
   57.7930   26.8370   44.9500 C   0  0  0  0  0  0  0  0  0  0  0  0
   58.3690   26.5121   44.0710 H   0  0  0  0  0  0  0  0  0  0  0  0
   57.6220   28.1510   45.1470 C   0  0  0  0  0  0  0  0  0  0  0  0
   56.9120   29.0750   44.3740 C   0  0  0  0  0  0  0  0  0  0  0  0
   56.3437   28.8338   43.4636 H   0  0  0  0  0  0  0  0  0  0  0  0
   57.0290   30.3130   44.9150 N   0  0  0  0  0  0  0  0  0  0  0  0
   57.7870   30.1880   45.9930 N   0  0  0  0  0  0  0  0  0  0  0  0
   58.1810   31.1590   46.8520 C   0  0  0  0  0  0  0  0  0  0  0  0
   57.7980   32.3940   46.6610 N   0  0  0  0  0  0  0  0  0  0  0  0
   57.4420   33.1490   45.4450 C   0  0  0  0  0  0  0  0  0  0  0  0
   56.3704   32.9187   45.5378 H   0  0  0  0  0  0  0  0  0  0  0  0
   58.4470   33.1410   44.3040 C   0  0  0  0  0  0  0  0  0  0  0  0
   59.3776   32.5614   44.3941 H   0  0  0  0  0  0  0  0  0  0  0  0
   58.4048   32.9050   43.2304 H   0  0  0  0  0  0  0  0  0  0  0  0
   58.2470   34.4030   45.1440 C   0  0  0  0  0  0  0  0  0  0  0  0
   59.0336   34.7322   45.8389 H   0  0  0  0  0  0  0  0  0  0  0  0
   58.0011   35.4528   44.9261 H   0  0  0  0  0  0  0  0  0  0  0  0
   58.9760   30.7930   47.8960 N   0  0  0  0  0  0  0  0  0  0  0  0
   59.3620   29.4920   48.0690 C   0  0  0  0  0  0  0  0  0  0  0  0
   60.1990   29.1350   49.1780 N   0  0  0  0  0  0  0  0  0  0  0  0
   60.9610   30.1020   49.9480 C   0  0  0  0  0  0  0  0  0  0  0  0
   61.5957   30.7075   49.2842 H   0  0  0  0  0  0  0  0  0  0  0  0
   60.3053   30.7999   50.4894 H   0  0  0  0  0  0  0  0  0  0  0  0
   61.8190   29.2800   50.9000 C   0  0  0  0  0  0  0  0  0  0  0  0
   62.8540   29.2240   50.5316 H   0  0  0  0  0  0  0  0  0  0  0  0
   61.8563   29.7302   51.9030 H   0  0  0  0  0  0  0  0  0  0  0  0
   61.1880   27.8860   50.9310 C   0  0  0  0  0  0  0  0  0  0  0  0
   60.3530   27.7740   52.0310 F   0  0  0  0  0  0  0  0  0  0  0  0
   62.1600   26.9020   50.9910 F   0  0  0  0  0  0  0  0  0  0  0  0
   60.3720   27.7710   49.6470 C   0  0  0  0  0  0  0  0  0  0  0  0
   60.9129   27.1724   48.8993 H   0  0  0  0  0  0  0  0  0  0  0  0
   59.4072   27.2712   49.8182 H   0  0  0  0  0  0  0  0  0  0  0  0
   58.9490   28.5350   47.1850 N   0  0  0  0  0  0  0  0  0  0  0  0
   58.1600   28.9180   46.1550 C   0  0  0  0  0  0  0  0  0  0  0  0
  1  2  1  0
  2  3  1  0
  3  4  1  0
  4  5  1  0
  5  6  2  0
  5  7  1  0
  7  8  1  0
  8  9  1  0
  9 10  1  0
  9 11  2  0
 11 12  1  0
 12 13  1  0
 12 14  2  0
 14 15  1  0
 15 16  1  0
 16 17  2  3
 17 18  1  0
 18 19  1  0
 18 20  1  0
 20 21  1  0
 20 22  1  0
 20 23  1  0
 23 24  1  0
 23 25  1  0
 16 26  1  0
 26 27  2  0
 27 28  1  0
 28 29  1  0
 29 30  1  0
 29 31  1  0
 29 32  1  0
 32 33  1  0
 32 34  1  0
 32 35  1  0
 35 36  1  0
 35 37  1  0
 35 38  1  0
 38 39  1  0
 38 40  1  0
 27 41  1  0
 41 42  2  0
  8  3  2  0
 42 11  1  0
 42 15  1  0
 23 18  1  0
 38 28  1  0
M  CHG  2   4  -1   7  -1
M  END
>  <UniqueID>  (27) 
27

>  <SMILES>  (27) 
O=c1[n-]c(O)c(/C=c2\cnn3c(=NC4CC4)nc(N4CCC(F)(F)C4)nc23)[n-]1

>  <Energy>  (27) 
393.0100461320206

>  <Genealogy>  (27) 
O=c1[n-]c(O)c(C=c2cnn3c(=NC4CC4)nc(N4CCC(F)(F)C4)nc23)[n-]1 (protonated)
O=c1[n-]c(O)c(/C=c2\cnn3c(=NC4CC4)nc(N4CCC(F)(F)C4)nc23)[n-]1 (cis-trans isomerization)
O=c1[n-]c(O)c(/C=c2\cnn3c(=NC4CC4)nc(N4CCC(F)(F)C4)nc23)[n-]1 (3D coordinates assigned)
O=c1[n-]c(O)c(/C=c2\cnn3c(=NC4CC4)nc(N4CCC(F)(F)C4)nc23)[n-]1 (nonaromatic ring conformer: 393.0100461320206 kcal/mol)

>  <smiles>  (27) 
O=c1[nH]c(O)c(C=c2cnn3c(=NC4CC4)nc(N4CCC(F)(F)C4)nc23)[nH]1

>  <score_type>  (27) 
oracle

>  <origin>  (27) 
adg

>  <m_score__min__energy>  (27) 
-12.52

>  <m_primary>  (27) 
energy

$$$$
27:0
     RDKit          3D

 72 75  0  0  0  0  0  0  0  0999 V2000
   61.3650   26.5850   47.5600 O   0  0  0  0  0  0  0  0  0  0  0  0
   60.1980   26.9910   47.8090 C   0  0  0  0  0  0  0  0  0  0  0  0
   59.0230   26.2720   47.2160 C   0  0  0  0  0  0  0  0  0  0  0  0
   58.3590   27.1410   46.1840 C   0  0  0  0  0  0  0  0  0  0  0  0
   57.6190   28.2670   46.5790 C   0  0  0  0  0  0  0  0  0  0  0  0
   57.0550   29.1120   45.6210 C   0  0  0  0  0  0  0  0  0  0  0  0
   57.2310   28.8490   44.2550 C   0  0  0  0  0  0  0  0  0  0  0  0
   56.6810   29.7200   43.2600 N   0  0  0  0  0  0  0  0  0  0  0  0
   57.1280   31.0600   43.0090 C   0  0  0  0  0  0  0  0  0  0  0  0
   56.9550   31.5540   41.8630 O   0  0  0  0  0  0  0  0  0  0  0  0
   57.8940   31.8420   44.0520 C   0  0  0  0  0  0  0  0  0  0  0  0
   57.0020   32.2330   45.2400 C   0  0  0  0  0  0  0  0  0  0  0  0
   57.8200   32.9660   46.3280 C   0  0  0  0  0  0  0  0  0  0  0  0
   59.1050   33.4930   45.8130 N   0  0  0  0  0  0  0  0  0  0  0  0
   59.7920   34.6190   46.9590 S   0  0  0  0  0  0  0  0  0  0  0  0
   59.9200   35.9780   46.3320 O   0  0  0  0  0  0  0  0  0  0  0  0
   58.9120   34.7380   48.1720 O   0  0  0  0  0  0  0  0  0  0  0  0
   61.3950   34.0650   47.4370 C   0  0  0  0  0  0  0  0  0  0  0  0
   62.2680   33.5120   46.4880 C   0  0  0  0  0  0  0  0  0  0  0  0
   63.5380   33.0720   46.8740 C   0  0  0  0  0  0  0  0  0  0  0  0
   63.9430   33.1800   48.2080 C   0  0  0  0  0  0  0  0  0  0  0  0
   63.0790   33.7370   49.1550 C   0  0  0  0  0  0  0  0  0  0  0  0
   63.4690   33.8420   50.4500 F   0  0  0  0  0  0  0  0  0  0  0  0
   61.8110   34.1850   48.7710 C   0  0  0  0  0  0  0  0  0  0  0  0
   58.9230   34.1450   44.5050 C   0  0  0  0  0  0  0  0  0  0  0  0
   58.5360   33.1050   43.4350 C   0  0  0  0  0  0  0  0  0  0  0  0
   57.9370   27.7080   43.8560 C   0  0  0  0  0  0  0  0  0  0  0  0
   58.5140   26.8670   44.8150 C   0  0  0  0  0  0  0  0  0  0  0  0
   59.9940   28.1600   48.6130 N   0  0  0  0  0  0  0  0  0  0  0  0
   61.1210   28.9330   49.1370 C   0  0  0  0  0  0  0  0  0  0  0  0
   60.6810   30.3260   49.6050 C   0  0  0  0  0  0  0  0  0  0  0  0
   58.9020   30.5630   49.5560 S   0  0  0  0  0  0  0  0  0  0  0  0
   58.2180   29.4430   50.2890 O   0  0  0  0  0  0  0  0  0  0  0  0
   58.4770   30.5000   48.1160 O   0  0  0  0  0  0  0  0  0  0  0  0
   58.3670   32.0940   50.2250 N   0  0  0  0  0  0  0  0  0  0  0  0
   57.3740   31.9570   51.3100 C   0  0  0  0  0  0  0  0  0  0  0  0
   57.9630   32.2380   52.7010 C   0  0  0  0  0  0  0  0  0  0  0  0
   59.3390   31.9350   52.7230 O   0  0  0  0  0  0  0  0  0  0  0  0
   60.0390   32.8840   51.9460 C   0  0  0  0  0  0  0  0  0  0  0  0
   59.4760   33.0250   50.5130 C   0  0  0  0  0  0  0  0  0  0  0  0
   59.3665   25.3406   46.7422 H   0  0  0  0  0  0  0  0  0  0  0  0
   58.3009   26.0395   48.0126 H   0  0  0  0  0  0  0  0  0  0  0  0
   57.4829   28.4846   47.6486 H   0  0  0  0  0  0  0  0  0  0  0  0
   56.4702   29.9876   45.9393 H   0  0  0  0  0  0  0  0  0  0  0  0
   58.6915   31.1836   44.4268 H   0  0  0  0  0  0  0  0  0  0  0  0
   56.1998   32.8965   44.8847 H   0  0  0  0  0  0  0  0  0  0  0  0
   56.5783   31.3168   45.6772 H   0  0  0  0  0  0  0  0  0  0  0  0
   57.2228   33.8061   46.7122 H   0  0  0  0  0  0  0  0  0  0  0  0
   58.0506   32.2381   47.1199 H   0  0  0  0  0  0  0  0  0  0  0  0
   61.9527   33.4244   45.4378 H   0  0  0  0  0  0  0  0  0  0  0  0
   64.2198   32.6400   46.1267 H   0  0  0  0  0  0  0  0  0  0  0  0
   64.9397   32.8273   48.5115 H   0  0  0  0  0  0  0  0  0  0  0  0
   61.1382   34.6327   49.5172 H   0  0  0  0  0  0  0  0  0  0  0  0
   58.1252   34.8983   44.5835 H   0  0  0  0  0  0  0  0  0  0  0  0
   59.8683   34.6245   44.2109 H   0  0  0  0  0  0  0  0  0  0  0  0
   57.8178   33.5634   42.7393 H   0  0  0  0  0  0  0  0  0  0  0  0
   59.4557   32.7966   42.9164 H   0  0  0  0  0  0  0  0  0  0  0  0
   58.0386   27.4717   42.7865 H   0  0  0  0  0  0  0  0  0  0  0  0
   59.0916   25.9873   44.4949 H   0  0  0  0  0  0  0  0  0  0  0  0
   59.0150   28.4740   48.8000 H   0  0  0  0  0  0  0  0  0  0  0  0
   61.5596   28.3923   49.9886 H   0  0  0  0  0  0  0  0  0  0  0  0
   61.8576   29.0579   48.3297 H   0  0  0  0  0  0  0  0  0  0  0  0
   61.0241   30.4711   50.6400 H   0  0  0  0  0  0  0  0  0  0  0  0
   61.1261   31.0573   48.9142 H   0  0  0  0  0  0  0  0  0  0  0  0
   56.5540   32.6668   51.1265 H   0  0  0  0  0  0  0  0  0  0  0  0
   57.0230   30.9145   51.3055 H   0  0  0  0  0  0  0  0  0  0  0  0
   57.8222   33.3011   52.9461 H   0  0  0  0  0  0  0  0  0  0  0  0
   57.4473   31.6077   53.4404 H   0  0  0  0  0  0  0  0  0  0  0  0
   59.9749   33.8619   52.4456 H   0  0  0  0  0  0  0  0  0  0  0  0
   61.0785   32.5350   51.8582 H   0  0  0  0  0  0  0  0  0  0  0  0
   59.1105   34.0541   50.3816 H   0  0  0  0  0  0  0  0  0  0  0  0
   60.2930   32.7822   49.8176 H   0  0  0  0  0  0  0  0  0  0  0  0
  1  2  2  0
  2  3  1  0
  3  4  1  0
  4  5  2  0
  5  6  1  0
  6  7  2  0
  7  8  1  0
  8  9  1  0
  9 10  2  0
  9 11  1  0
 11 12  1  0
 12 13  1  0
 13 14  1  0
 14 15  1  0
 15 16  2  0
 15 17  2  0
 15 18  1  0
 18 19  2  0
 19 20  1  0
 20 21  2  0
 21 22  1  0
 22 23  1  0
 22 24  2  0
 14 25  1  0
 25 26  1  0
  7 27  1  0
 27 28  2  0
  2 29  1  0
 29 30  1  0
 30 31  1  0
 31 32  1  0
 32 33  2  0
 32 34  2  0
 32 35  1  0
 35 36  1  0
 36 37  1  0
 37 38  1  0
 38 39  1  0
 39 40  1  0
 28  4  1  0
 40 35  1  0
 26 11  1  0
 24 18  1  0
  3 41  1  0
  3 42  1  0
  5 43  1  0
  6 44  1  0
 11 45  1  0
 12 46  1  0
 12 47  1  0
 13 48  1  0
 13 49  1  0
 19 50  1  0
 20 51  1  0
 21 52  1  0
 24 53  1  0
 25 54  1  0
 25 55  1  0
 26 56  1  0
 26 57  1  0
 27 58  1  0
 28 59  1  0
 29 60  1  0
 30 61  1  0
 30 62  1  0
 31 63  1  0
 31 64  1  0
 36 65  1  0
 36 66  1  0
 37 67  1  0
 37 68  1  0
 39 69  1  0
 39 70  1  0
 40 71  1  0
 40 72  1  0
M  CHG  1   8  -1
M  END
>  <UniqueID>  (28) 
28

>  <SMILES>  (28) 
O=C(Cc1ccc([N-]C(=O)C2CCN(S(=O)(=O)c3cccc(F)c3)CC2)cc1)NCCS(=O)(=O)N1CCOCC1

>  <Energy>  (28) 
83.25521487421591

>  <Genealogy>  (28) 
O=C(Cc1ccc([N-]C(=O)C2CCN(S(=O)(=O)c3cccc(F)c3)CC2)cc1)NCCS(=O)(=O)N1CCOCC1 (protonated)
O=C(Cc1ccc([N-]C(=O)C2CCN(S(=O)(=O)c3cccc(F)c3)CC2)cc1)NCCS(=O)(=O)N1CCOCC1 (3D coordinates assigned)
O=C(Cc1ccc([N-]C(=O)C2CCN(S(=O)(=O)c3cccc(F)c3)CC2)cc1)NCCS(=O)(=O)N1CCOCC1 (nonaromatic ring conformer: 83.25521487421591 kcal/mol)

>  <smiles>  (28) 
O=C(Cc1ccc(NC(=O)C2CCN(S(=O)(=O)c3cccc(F)c3)CC2)cc1)NCCS(=O)(=O)N1CCOCC1

>  <score_type>  (28) 
oracle

>  <origin>  (28) 
adg

>  <m_score__min__energy>  (28) 
-12.43

>  <m_primary>  (28) 
energy

$$$$
28:0
     RDKit          3D

 49 52  0  0  0  0  0  0  0  0999 V2000
   56.1080   23.0660   47.7220 C   0  0  0  0  0  0  0  0  0  0  0  0
   55.8620   24.4140   47.3310 O   0  0  0  0  0  0  0  0  0  0  0  0
   56.8040   25.2450   46.7030 C   0  0  0  0  0  0  0  0  0  0  0  0
   58.1830   24.9580   46.7240 C   0  0  0  0  0  0  0  0  0  0  0  0
   59.0920   25.8060   46.0900 C   0  0  0  0  0  0  0  0  0  0  0  0
   58.6450   26.9620   45.4330 C   0  0  0  0  0  0  0  0  0  0  0  0
   59.6220   27.8570   44.7210 C   0  0  0  0  0  0  0  0  0  0  0  0
   58.9710   29.2000   44.3750 C   0  0  0  0  0  0  0  0  0  0  0  0
   58.9560   30.0780   45.5560 N   0  0  0  0  0  0  0  0  0  0  0  0
   59.9720   29.9800   46.4660 C   0  0  0  0  0  0  0  0  0  0  0  0
   60.0120   30.8080   47.5880 C   0  0  0  0  0  0  0  0  0  0  0  0
   58.9970   31.7590   47.7970 C   0  0  0  0  0  0  0  0  0  0  0  0
   58.9820   32.7170   48.9760 C   0  0  2  0  0  0  0  0  0  0  0  0
   60.3380   33.3840   49.2980 C   0  0  0  0  0  0  0  0  0  0  0  0
   60.2400   34.1430   50.5050 O   0  0  0  0  0  0  0  0  0  0  0  0
   59.5120   33.6650   51.5990 C   0  0  0  0  0  0  0  0  0  0  0  0
   59.6370   34.2600   52.8580 C   0  0  0  0  0  0  0  0  0  0  0  0
   58.9220   33.7420   53.9450 C   0  0  0  0  0  0  0  0  0  0  0  0
   58.0820   32.6350   53.7700 C   0  0  0  0  0  0  0  0  0  0  0  0
   57.9460   32.0500   52.5070 C   0  0  0  0  0  0  0  0  0  0  0  0
   58.6490   32.5770   51.4180 C   0  0  0  0  0  0  0  0  0  0  0  0
   58.5040   32.0290   50.1400 O   0  0  0  0  0  0  0  0  0  0  0  0
   57.9820   31.8650   46.8350 C   0  0  0  0  0  0  0  0  0  0  0  0
   57.9730   31.0210   45.7210 C   0  0  0  0  0  0  0  0  0  0  0  0
   57.0500   31.1440   44.8690 O   0  0  0  0  0  0  0  0  0  0  0  0
   57.2710   27.2440   45.3990 C   0  0  0  0  0  0  0  0  0  0  0  0
   56.3540   26.3970   46.0310 C   0  0  0  0  0  0  0  0  0  0  0  0
   54.9980   26.7160   45.9790 O   0  0  0  0  0  0  0  0  0  0  0  0
   56.1202   22.9991   48.8199 H   0  0  0  0  0  0  0  0  0  0  0  0
   55.3133   22.4179   47.3240 H   0  0  0  0  0  0  0  0  0  0  0  0
   57.0804   22.7404   47.3240 H   0  0  0  0  0  0  0  0  0  0  0  0
   58.5458   24.0591   47.2438 H   0  0  0  0  0  0  0  0  0  0  0  0
   60.1655   25.5665   46.1055 H   0  0  0  0  0  0  0  0  0  0  0  0
   60.4909   28.0337   45.3720 H   0  0  0  0  0  0  0  0  0  0  0  0
   59.9380   27.3659   43.7888 H   0  0  0  0  0  0  0  0  0  0  0  0
   59.5431   29.6841   43.5698 H   0  0  0  0  0  0  0  0  0  0  0  0
   57.9361   29.0228   44.0469 H   0  0  0  0  0  0  0  0  0  0  0  0
   60.7690   29.2378   46.3111 H   0  0  0  0  0  0  0  0  0  0  0  0
   60.8375   30.7171   48.3094 H   0  0  0  0  0  0  0  0  0  0  0  0
   58.3117   33.5378   48.6809 H   0  0  0  0  0  0  0  0  0  0  0  0
   61.1060   32.6059   49.4193 H   0  0  0  0  0  0  0  0  0  0  0  0
   60.6124   34.0567   48.4721 H   0  0  0  0  0  0  0  0  0  0  0  0
   60.2943   35.1315   52.9942 H   0  0  0  0  0  0  0  0  0  0  0  0
   59.0202   34.2053   54.9378 H   0  0  0  0  0  0  0  0  0  0  0  0
   57.5283   32.2250   54.6275 H   0  0  0  0  0  0  0  0  0  0  0  0
   57.2887   31.1787   52.3702 H   0  0  0  0  0  0  0  0  0  0  0  0
   57.1884   32.6167   46.9579 H   0  0  0  0  0  0  0  0  0  0  0  0
   56.9114   28.1392   44.8706 H   0  0  0  0  0  0  0  0  0  0  0  0
   54.2860   26.1140   46.3750 H   0  0  0  0  0  0  0  0  0  0  0  0
  1  2  1  0
  2  3  1  0
  3  4  2  0
  4  5  1  0
  5  6  2  0
  6  7  1  0
  7  8  1  0
  8  9  1  0
  9 10  1  0
 10 11  2  0
 11 12  1  0
 12 13  1  0
 13 14  1  0
 14 15  1  0
 15 16  1  0
 16 17  2  0
 17 18  1  0
 18 19  2  0
 19 20  1  0
 20 21  2  0
 21 22  1  0
 12 23  2  0
 23 24  1  0
 24 25  2  0
  6 26  1  0
 26 27  2  0
 27 28  1  0
 27  3  1  0
 24  9  1  0
 22 13  1  0
 21 16  1  0
  1 29  1  0
  1 30  1  0
  1 31  1  0
  4 32  1  0
  5 33  1  0
  7 34  1  0
  7 35  1  0
  8 36  1  0
  8 37  1  0
 10 38  1  0
 11 39  1  0
 13 40  1  6
 14 41  1  0
 14 42  1  0
 17 43  1  0
 18 44  1  0
 19 45  1  0
 20 46  1  0
 23 47  1  0
 26 48  1  0
 28 49  1  0
M  END
>  <UniqueID>  (29) 
29

>  <SMILES>  (29) 
COc1ccc(CCn2ccc([C@@H]3COc4ccccc4O3)cc2=O)cc1O

>  <Energy>  (29) 
56.79240287828897

>  <Genealogy>  (29) 
COc1ccc(CCn2ccc([C@@H]3COc4ccccc4O3)cc2=O)cc1O (chirality)
COc1ccc(CCn2ccc([C@@H]3COc4ccccc4O3)cc2=O)cc1O (3D coordinates assigned)
COc1ccc(CCn2ccc([C@@H]3COc4ccccc4O3)cc2=O)cc1O (nonaromatic ring conformer: 56.79240287828897 kcal/mol)

>  <smiles>  (29) 
COc1ccc(CCn2ccc(C3COc4ccccc4O3)cc2=O)cc1O

>  <score_type>  (29) 
oracle

>  <origin>  (29) 
adg

>  <m_score__min__energy>  (29) 
-8.8100000000000005

>  <m_primary>  (29) 
energy

$$$$
29:0
     RDKit          3D

 35 37  0  0  0  0  0  0  0  0999 V2000
   56.3832   20.9756   43.7028 H   0  0  0  0  0  0  0  0  0  0  0  0
   56.2020   21.9500   44.1800 C   0  0  0  0  0  0  0  0  0  0  0  0
   55.3090   22.0480   45.2520 C   0  0  0  0  0  0  0  0  0  0  0  0
   54.7951   21.1494   45.6241 H   0  0  0  0  0  0  0  0  0  0  0  0
   55.0700   23.2880   45.8500 C   0  0  0  0  0  0  0  0  0  0  0  0
   54.3813   23.3601   46.7047 H   0  0  0  0  0  0  0  0  0  0  0  0
   55.7060   24.4440   45.3640 C   0  0  0  0  0  0  0  0  0  0  0  0
   55.5240   25.7180   46.0000 N   0  0  0  0  0  0  0  0  0  0  0  0
   56.3490   26.7270   45.9960 C   0  0  0  0  0  0  0  0  0  0  0  0
   57.5630   26.5710   46.5820 N   0  0  0  0  0  0  0  0  0  0  0  0
   58.4550   27.5940   46.6060 C   0  0  0  0  0  0  0  0  0  0  0  0
   59.7950   27.4040   47.2320 C   0  0  0  0  0  0  0  0  0  0  0  0
   59.6934   27.4184   48.3272 H   0  0  0  0  0  0  0  0  0  0  0  0
   60.2139   26.4375   46.9153 H   0  0  0  0  0  0  0  0  0  0  0  0
   60.4661   28.2160   46.9153 H   0  0  0  0  0  0  0  0  0  0  0  0
   58.1440   28.7700   46.0090 N   0  0  0  0  0  0  0  0  0  0  0  0
   56.9450   28.9350   45.3910 C   0  0  0  0  0  0  0  0  0  0  0  0
   56.6310   30.0670   44.8260 N   0  0  0  0  0  0  0  0  0  0  0  0
   57.3860   31.2900   44.8600 C   0  0  0  0  0  0  0  0  0  0  0  0
   57.6760   32.0220   43.6920 C   0  0  0  0  0  0  0  0  0  0  0  0
   57.3460   31.6457   42.7124 H   0  0  0  0  0  0  0  0  0  0  0  0
   58.3830   33.2270   43.7750 C   0  0  0  0  0  0  0  0  0  0  0  0
   58.6207   33.7881   42.8592 H   0  0  0  0  0  0  0  0  0  0  0  0
   58.7870   33.7180   45.0170 C   0  0  0  0  0  0  0  0  0  0  0  0
   59.3507   34.6606   45.0785 H   0  0  0  0  0  0  0  0  0  0  0  0
   58.4760   33.0130   46.1830 C   0  0  0  0  0  0  0  0  0  0  0  0
   58.7874   33.4053   47.1623 H   0  0  0  0  0  0  0  0  0  0  0  0
   57.7690   31.8090   46.1050 C   0  0  0  0  0  0  0  0  0  0  0  0
   57.5117   31.2656   47.0262 H   0  0  0  0  0  0  0  0  0  0  0  0
   56.0440   27.9140   45.3890 N   0  0  0  0  0  0  0  0  0  0  0  0
   55.1430   28.0490   44.8790 H   0  0  0  0  0  0  0  0  0  0  0  0
   56.6260   24.3300   44.3130 C   0  0  0  0  0  0  0  0  0  0  0  0
   57.1634   25.2213   43.9569 H   0  0  0  0  0  0  0  0  0  0  0  0
   56.8640   23.0890   43.7150 C   0  0  0  0  0  0  0  0  0  0  0  0
   57.5730   23.0093   42.8778 H   0  0  0  0  0  0  0  0  0  0  0  0
  1  2  1  0
  2  3  2  0
  3  4  1  0
  3  5  1  0
  5  6  1  0
  5  7  2  0
  7  8  1  0
  8  9  2  0
  9 10  1  0
 10 11  2  0
 11 12  1  0
 12 13  1  0
 12 14  1  0
 12 15  1  0
 11 16  1  0
 16 17  1  0
 17 18  2  0
 18 19  1  0
 19 20  2  0
 20 21  1  0
 20 22  1  0
 22 23  1  0
 22 24  2  0
 24 25  1  0
 24 26  1  0
 26 27  1  0
 26 28  2  0
 28 29  1  0
 17 30  1  0
 30 31  1  0
  7 32  1  0
 32 33  1  0
 32 34  2  0
 34 35  1  0
 34  2  1  0
 30  9  1  0
 28 19  1  0
M  CHG  1  16  -1
M  END
>  <UniqueID>  (30) 
30

>  <SMILES>  (30) 
Cc1n/c(=N/c2ccccc2)[nH]/c(=N/c2ccccc2)[n-]1

>  <Energy>  (30) 
51.871753775821915

>  <Genealogy>  (30) 
Cc1nc(=Nc2ccccc2)[nH]c(=Nc2ccccc2)[n-]1 (protonated)
Cc1n/c(=N/c2ccccc2)[nH]/c(=N/c2ccccc2)[n-]1 (cis-trans isomerization)
Cc1n/c(=N/c2ccccc2)[nH]/c(=N/c2ccccc2)[n-]1 (3D coordinates assigned)
Cc1n/c(=N/c2ccccc2)[nH]/c(=N/c2ccccc2)[n-]1 (optimized conformer: 51.871753775821915 kcal/mol)

>  <smiles>  (30) 
Cc1nc(=Nc2ccccc2)[nH]c(=Nc2ccccc2)[nH]1

>  <score_type>  (30) 
oracle

>  <origin>  (30) 
adg

>  <m_score__min__energy>  (30) 
-9.2599999999999998

>  <m_primary>  (30) 
energy

$$$$
30:0
     RDKit          3D

 58 61  0  0  0  0  0  0  0  0999 V2000
   55.4036   28.4351   43.9655 H   0  0  0  0  0  0  0  0  0  0  0  0
   56.1140   29.2650   44.0940 C   0  0  0  0  0  0  0  0  0  0  0  0
   55.7310   30.5000   44.5140 N   0  0  0  0  0  0  0  0  0  0  0  0
   56.7790   31.3500   44.5770 C   0  0  0  0  0  0  0  0  0  0  0  0
   56.6530   32.5730   44.9980 N   0  0  0  0  0  0  0  0  0  0  0  0
   57.1970   33.0580   46.2320 C   0  0  0  0  0  0  0  0  0  0  0  0
   56.4140   33.4770   47.1250 O   0  0  0  0  0  0  0  0  0  0  0  0
   58.6590   33.1150   46.4430 C   0  0  0  0  0  0  0  0  0  0  0  0
   59.3610   34.3070   46.2000 C   0  0  0  0  0  0  0  0  0  0  0  0
   58.8217   35.1959   45.8408 H   0  0  0  0  0  0  0  0  0  0  0  0
   60.7410   34.3700   46.4120 C   0  0  0  0  0  0  0  0  0  0  0  0
   61.2789   35.3137   46.2385 H   0  0  0  0  0  0  0  0  0  0  0  0
   61.4420   33.2380   46.8440 C   0  0  0  0  0  0  0  0  0  0  0  0
   63.1910   33.3000   47.0500 S   0  0  0  0  0  0  0  0  0  0  0  0
   63.7650   34.2560   46.0420 O   0  0  0  0  0  0  0  0  0  0  0  0
   63.7770   31.9380   46.7990 O   0  0  0  0  0  0  0  0  0  0  0  0
   63.5530   33.8360   48.6780 N   0  0  0  0  0  0  0  0  0  0  0  0
   64.4900   32.9220   49.3620 C   0  0  0  0  0  0  0  0  0  0  0  0
   65.3046   32.6681   48.6678 H   0  0  0  0  0  0  0  0  0  0  0  0
   64.8664   33.4390   50.2570 H   0  0  0  0  0  0  0  0  0  0  0  0
   63.8140   31.6210   49.8250 C   0  0  0  0  0  0  0  0  0  0  0  0
   63.6870   30.9632   48.9525 H   0  0  0  0  0  0  0  0  0  0  0  0
   64.4621   31.1703   50.5911 H   0  0  0  0  0  0  0  0  0  0  0  0
   62.4340   31.8510   50.4700 C   0  0  0  0  0  0  0  0  0  0  0  0
   61.6570   31.4744   49.7885 H   0  0  0  0  0  0  0  0  0  0  0  0
   62.4165   31.3160   51.4310 H   0  0  0  0  0  0  0  0  0  0  0  0
   62.1670   33.3370   50.7520 C   0  0  2  0  0  0  0  0  0  0  0  0
   62.9037   33.7003   51.4836 H   0  0  0  0  0  0  0  0  0  0  0  0
   60.7740   33.5340   51.3600 C   0  0  0  0  0  0  0  0  0  0  0  0
   60.8481   33.5235   52.4575 H   0  0  0  0  0  0  0  0  0  0  0  0
   60.3628   34.4992   51.0295 H   0  0  0  0  0  0  0  0  0  0  0  0
   60.1113   32.7206   51.0295 H   0  0  0  0  0  0  0  0  0  0  0  0
   62.3190   34.1480   49.4460 C   0  0  0  0  0  0  0  0  0  0  0  0
   61.4504   33.9366   48.8050 H   0  0  0  0  0  0  0  0  0  0  0  0
   62.3851   35.2070   49.7361 H   0  0  0  0  0  0  0  0  0  0  0  0
   60.7460   32.0440   47.0810 C   0  0  0  0  0  0  0  0  0  0  0  0
   61.2921   31.1488   47.4132 H   0  0  0  0  0  0  0  0  0  0  0  0
   59.3610   31.9860   46.8970 C   0  0  0  0  0  0  0  0  0  0  0  0
   58.8190   31.0525   47.1086 H   0  0  0  0  0  0  0  0  0  0  0  0
   58.2320   30.6050   44.1330 S   0  0  0  0  0  0  0  0  0  0  0  0
   57.4730   29.1340   43.8400 C   0  0  0  0  0  0  0  0  0  0  0  0
   58.3030   27.6070   43.4160 S   0  0  0  0  0  0  0  0  0  0  0  0
   58.5900   27.1520   45.1230 C   0  0  0  0  0  0  0  0  0  0  0  0
   57.9500   26.0780   45.6510 N   0  0  0  0  0  0  0  0  0  0  0  0
   58.1100   25.7370   46.9560 C   0  0  0  0  0  0  0  0  0  0  0  0
   57.3710   24.5620   47.5130 C   0  0  0  0  0  0  0  0  0  0  0  0
   57.3955   24.6009   48.6120 H   0  0  0  0  0  0  0  0  0  0  0  0
   56.3267   24.5886   47.1683 H   0  0  0  0  0  0  0  0  0  0  0  0
   57.8473   23.6323   47.1683 H   0  0  0  0  0  0  0  0  0  0  0  0
   58.9110   26.5290   47.7840 C   0  0  0  0  0  0  0  0  0  0  0  0
   59.0203   26.2913   48.8524 H   0  0  0  0  0  0  0  0  0  0  0  0
   59.5710   27.6300   47.2270 C   0  0  0  0  0  0  0  0  0  0  0  0
   60.3860   28.5450   48.0920 C   0  0  0  0  0  0  0  0  0  0  0  0
   60.1874   28.3221   49.1507 H   0  0  0  0  0  0  0  0  0  0  0  0
   61.4548   28.3946   47.8798 H   0  0  0  0  0  0  0  0  0  0  0  0
   60.1135   29.5894   47.8798 H   0  0  0  0  0  0  0  0  0  0  0  0
   59.3990   27.9180   45.9060 N   0  0  0  0  0  0  0  0  0  0  0  0
   59.8700   28.7530   45.4900 H   0  0  0  0  0  0  0  0  0  0  0  0
  1  2  1  0
  2  3  1  0
  3  4  1  0
  4  5  2  0
  5  6  1  0
  6  7  2  0
  6  8  1  0
  8  9  2  0
  9 10  1  0
  9 11  1  0
 11 12  1  0
 11 13  2  0
 13 14  1  0
 14 15  2  0
 14 16  2  0
 14 17  1  0
 17 18  1  0
 18 19  1  0
 18 20  1  0
 18 21  1  0
 21 22  1  0
 21 23  1  0
 21 24  1  0
 24 25  1  0
 24 26  1  0
 24 27  1  0
 27 28  1  1
 27 29  1  0
 29 30  1  0
 29 31  1  0
 29 32  1  0
 27 33  1  0
 33 34  1  0
 33 35  1  0
 13 36  1  0
 36 37  1  0
 36 38  2  0
 38 39  1  0
  4 40  1  0
 40 41  1  0
 41 42  1  0
 42 43  1  0
 43 44  2  0
 44 45  1  0
 45 46  1  0
 46 47  1  0
 46 48  1  0
 46 49  1  0
 45 50  2  0
 50 51  1  0
 50 52  1  0
 52 53  1  0
 53 54  1  0
 53 55  1  0
 53 56  1  0
 52 57  2  0
 57 58  1  0
 41  2  2  0
 57 43  1  0
 38  8  1  0
 33 17  1  0
M  CHG  2   3  -1  57   1
M  END
>  <UniqueID>  (31) 
31

>  <SMILES>  (31) 
Cc1cc(C)[nH+]c(Sc2c[n-]/c(=N/C(=O)c3ccc(S(=O)(=O)N4CCC[C@H](C)C4)cc3)s2)n1

>  <Energy>  (31) 
98.41123094997185

>  <Genealogy>  (31) 
Cc1cc(C)[nH+]c(Sc2c[n-]c(=NC(=O)c3ccc(S(=O)(=O)N4CCCC(C)C4)cc3)s2)n1 (protonated)
Cc1cc(C)[nH+]c(Sc2c[n-]c(=NC(=O)c3ccc(S(=O)(=O)N4CCC[C@H](C)C4)cc3)s2)n1 (chirality)
Cc1cc(C)[nH+]c(Sc2c[n-]/c(=N/C(=O)c3ccc(S(=O)(=O)N4CCC[C@H](C)C4)cc3)s2)n1 (cis-trans isomerization)
Cc1cc(C)[nH+]c(Sc2c[n-]/c(=N/C(=O)c3ccc(S(=O)(=O)N4CCC[C@H](C)C4)cc3)s2)n1 (3D coordinates assigned)
Cc1cc(C)[nH+]c(Sc2c[n-]/c(=N/C(=O)c3ccc(S(=O)(=O)N4CCC[C@H](C)C4)cc3)s2)n1 (nonaromatic ring conformer: 98.41123094997185 kcal/mol)

>  <smiles>  (31) 
Cc1cc(C)nc(Sc2c[nH]c(=NC(=O)c3ccc(S(=O)(=O)N4CCCC(C)C4)cc3)s2)n1

>  <score_type>  (31) 
oracle

>  <origin>  (31) 
adg

>  <m_score__min__energy>  (31) 
-9.8699999999999992

>  <m_primary>  (31) 
energy

$$$$
31:0
     RDKit          3D

 42 44  0  0  0  0  0  0  0  0999 V2000
   55.1450   29.2820   44.7480 N   0  0  0  0  0  0  0  0  0  0  0  0
   56.7860   29.5590   44.2870 S   0  0  0  0  0  0  0  0  0  0  0  0
   56.8290   30.1320   42.8980 O   0  0  0  0  0  0  0  0  0  0  0  0
   57.5340   28.2550   44.2940 O   0  0  0  0  0  0  0  0  0  0  0  0
   57.5330   30.6850   45.4180 C   0  0  0  0  0  0  0  0  0  0  0  0
   57.6080   32.0440   45.1060 C   0  0  0  0  0  0  0  0  0  0  0  0
   58.1880   32.9470   46.0000 C   0  0  0  0  0  0  0  0  0  0  0  0
   58.7110   32.5070   47.2410 C   0  0  0  0  0  0  0  0  0  0  0  0
   58.6040   31.1260   47.5560 C   0  0  0  0  0  0  0  0  0  0  0  0
   59.0750   30.6620   48.7830 C   0  0  0  0  0  0  0  0  0  0  0  0
   59.6290   31.5520   49.6910 C   0  0  0  0  0  0  0  0  0  0  0  0
   59.7320   32.9050   49.3670 C   0  0  0  0  0  0  0  0  0  0  0  0
   60.2280   33.6860   50.2260 O   0  0  0  0  0  0  0  0  0  0  0  0
   59.3020   33.3750   48.1460 N   0  0  0  0  0  0  0  0  0  0  0  0
   59.4610   34.8160   47.8370 C   0  0  0  0  0  0  0  0  0  0  0  0
   60.2130   35.0130   46.5450 C   0  0  0  0  0  0  0  0  0  0  0  0
   60.0270   36.0620   45.8740 O   0  0  0  0  0  0  0  0  0  0  0  0
   61.1880   34.0690   46.0900 N   0  0  0  0  0  0  0  0  0  0  0  0
   62.6130   34.1450   46.3870 C   0  0  0  0  0  0  0  0  0  0  0  0
   62.9230   33.2940   47.5890 C   0  0  0  0  0  0  0  0  0  0  0  0
   63.7070   33.8300   48.6270 C   0  0  0  0  0  0  0  0  0  0  0  0
   64.0080   33.0660   49.7580 C   0  0  0  0  0  0  0  0  0  0  0  0
   63.5260   31.7620   49.8680 C   0  0  0  0  0  0  0  0  0  0  0  0
   62.7360   31.2200   48.8530 C   0  0  0  0  0  0  0  0  0  0  0  0
   62.4230   31.9750   47.7150 C   0  0  0  0  0  0  0  0  0  0  0  0
   61.6140   31.3880   46.7380 O   0  0  0  0  0  0  0  0  0  0  0  0
   58.0220   30.2300   46.6460 C   0  0  0  0  0  0  0  0  0  0  0  0
   55.1650   28.6790   45.6010 H   0  0  0  0  0  0  0  0  0  0  0  0
   57.2069   32.4065   44.1480 H   0  0  0  0  0  0  0  0  0  0  0  0
   58.2394   34.0139   45.7370 H   0  0  0  0  0  0  0  0  0  0  0  0
   59.0075   29.5924   49.0306 H   0  0  0  0  0  0  0  0  0  0  0  0
   59.9871   31.1911   50.6665 H   0  0  0  0  0  0  0  0  0  0  0  0
   58.4660   35.2764   47.7476 H   0  0  0  0  0  0  0  0  0  0  0  0
   60.0327   35.2873   48.6500 H   0  0  0  0  0  0  0  0  0  0  0  0
   63.1873   33.7808   45.5224 H   0  0  0  0  0  0  0  0  0  0  0  0
   62.8877   35.1892   46.5974 H   0  0  0  0  0  0  0  0  0  0  0  0
   64.0864   34.8594   48.5477 H   0  0  0  0  0  0  0  0  0  0  0  0
   64.6254   33.4935   50.5618 H   0  0  0  0  0  0  0  0  0  0  0  0
   63.7688   31.1598   50.7559 H   0  0  0  0  0  0  0  0  0  0  0  0
   62.3561   30.1920   48.9473 H   0  0  0  0  0  0  0  0  0  0  0  0
   61.0570   31.9240   46.0850 H   0  0  0  0  0  0  0  0  0  0  0  0
   57.9501   29.1623   46.9008 H   0  0  0  0  0  0  0  0  0  0  0  0
  1  2  1  0
  2  3  2  0
  2  4  2  0
  2  5  1  0
  5  6  2  0
  6  7  1  0
  7  8  2  0
  8  9  1  0
  9 10  1  0
 10 11  2  0
 11 12  1  0
 12 13  2  0
 12 14  1  0
 14 15  1  0
 15 16  1  0
 16 17  2  0
 16 18  1  0
 18 19  1  0
 19 20  1  0
 20 21  2  0
 21 22  1  0
 22 23  2  0
 23 24  1  0
 24 25  2  0
 25 26  1  0
  9 27  2  0
 27  5  1  0
 14  8  1  0
 25 20  1  0
  1 28  1  0
  6 29  1  0
  7 30  1  0
 10 31  1  0
 11 32  1  0
 15 33  1  0
 15 34  1  0
 19 35  1  0
 19 36  1  0
 21 37  1  0
 22 38  1  0
 23 39  1  0
 24 40  1  0
 26 41  1  0
 27 42  1  0
M  CHG  2   1  -1  18  -1
M  END
>  <UniqueID>  (32) 
32

>  <SMILES>  (32) 
[NH-]S(=O)(=O)c1ccc2c(ccc(=O)n2CC(=O)[N-]Cc2ccccc2O)c1

>  <Energy>  (32) 
53.24028191145441

>  <Genealogy>  (32) 
[NH-]S(=O)(=O)c1ccc2c(ccc(=O)n2CC(=O)[N-]Cc2ccccc2O)c1 (protonated)
[NH-]S(=O)(=O)c1ccc2c(ccc(=O)n2CC(=O)[N-]Cc2ccccc2O)c1 (3D coordinates assigned)
[NH-]S(=O)(=O)c1ccc2c(ccc(=O)n2CC(=O)[N-]Cc2ccccc2O)c1 (optimized conformer: 53.24028191145441 kcal/mol)

>  <smiles>  (32) 
NS(=O)(=O)c1ccc2c(ccc(=O)n2CC(=O)NCc2ccccc2O)c1

>  <score_type>  (32) 
oracle

>  <origin>  (32) 
adg

>  <m_score__min__energy>  (32) 
-11.960000000000001

>  <m_primary>  (32) 
energy

$$$$
32:0
     RDKit          3D

 58 61  0  0  0  0  0  0  0  0999 V2000
   55.1530   30.4930   44.4770 O   0  0  0  0  0  0  0  0  0  0  0  0
   56.3580   30.1320   44.4620 C   0  0  0  0  0  0  0  0  0  0  0  0
   56.6470   28.7350   44.6220 N   0  0  0  0  0  0  0  0  0  0  0  0
   57.7250   27.9970   43.9730 C   0  0  0  0  0  0  0  0  0  0  0  0
   58.5930   27.2790   45.0400 C   0  0  2  0  0  0  0  0  0  0  0  0
   57.8220   26.2790   45.8930 C   0  0  0  0  0  0  0  0  0  0  0  0
   58.4580   25.4020   46.7920 C   0  0  0  0  0  0  0  0  0  0  0  0
   57.7100   24.4780   47.5210 C   0  0  0  0  0  0  0  0  0  0  0  0
   56.3270   24.4230   47.3420 C   0  0  0  0  0  0  0  0  0  0  0  0
   55.7230   25.2590   46.4570 N   0  0  0  0  0  0  0  0  0  0  0  0
   56.4290   26.1680   45.7350 C   0  0  0  0  0  0  0  0  0  0  0  0
   59.3710   28.2070   45.9010 N   0  0  0  0  0  0  0  0  0  0  0  0
   59.9960   29.3150   45.1570 C   0  0  0  0  0  0  0  0  0  0  0  0
   61.1110   29.9120   46.0160 C   0  0  0  0  0  0  0  0  0  0  0  0
   60.6390   30.1730   47.3830 N   0  0  0  0  0  0  0  0  0  0  0  0
   61.5100   30.8510   48.3120 C   0  0  0  0  0  0  0  0  0  0  0  0
   61.3490   30.6740   49.6980 C   0  0  0  0  0  0  0  0  0  0  0  0
   62.1940   31.3310   50.5980 C   0  0  0  0  0  0  0  0  0  0  0  0
   63.2080   32.1670   50.1260 C   0  0  0  0  0  0  0  0  0  0  0  0
   63.3800   32.3470   48.7510 C   0  0  0  0  0  0  0  0  0  0  0  0
   62.5370   31.6930   47.8470 C   0  0  0  0  0  0  0  0  0  0  0  0
   59.2200   29.9770   47.7120 C   0  0  0  0  0  0  0  0  0  0  0  0
   58.6860   28.6440   47.1460 C   0  0  0  0  0  0  0  0  0  0  0  0
   57.4100   31.1600   44.2770 C   0  0  0  0  0  0  0  0  0  0  0  0
   57.8820   31.3920   43.1320 O   0  0  0  0  0  0  0  0  0  0  0  0
   57.8890   31.9100   45.4050 N   0  0  0  0  0  0  0  0  0  0  0  0
   58.8690   32.9840   45.2710 C   0  0  0  0  0  0  0  0  0  0  0  0
   59.3010   33.4570   46.6220 C   0  0  0  0  0  0  0  0  0  0  0  0
   60.2410   34.4360   46.8760 C   0  0  0  0  0  0  0  0  0  0  0  0
   60.2920   34.5530   48.2490 C   0  0  0  0  0  0  0  0  0  0  0  0
   59.3810   33.6420   48.7460 C   0  0  0  0  0  0  0  0  0  0  0  0
   58.8060   33.0040   47.7510 O   0  0  0  0  0  0  0  0  0  0  0  0
   57.2952   27.2496   43.2899 H   0  0  0  0  0  0  0  0  0  0  0  0
   58.3549   28.6998   43.4080 H   0  0  0  0  0  0  0  0  0  0  0  0
   59.3140   26.7054   44.4391 H   0  0  0  0  0  0  0  0  0  0  0  0
   59.5497   25.4458   46.9200 H   0  0  0  0  0  0  0  0  0  0  0  0
   58.2054   23.7989   48.2305 H   0  0  0  0  0  0  0  0  0  0  0  0
   55.7260   23.7032   47.9171 H   0  0  0  0  0  0  0  0  0  0  0  0
   55.9069   26.8222   45.0213 H   0  0  0  0  0  0  0  0  0  0  0  0
   60.4171   28.9369   44.2137 H   0  0  0  0  0  0  0  0  0  0  0  0
   59.2445   30.0851   44.9285 H   0  0  0  0  0  0  0  0  0  0  0  0
   61.9530   29.2052   46.0548 H   0  0  0  0  0  0  0  0  0  0  0  0
   61.4284   30.8645   45.5665 H   0  0  0  0  0  0  0  0  0  0  0  0
   60.5537   30.0149   50.0763 H   0  0  0  0  0  0  0  0  0  0  0  0
   62.0595   31.1889   51.6805 H   0  0  0  0  0  0  0  0  0  0  0  0
   63.8708   32.6834   50.8360 H   0  0  0  0  0  0  0  0  0  0  0  0
   64.1798   33.0042   48.3791 H   0  0  0  0  0  0  0  0  0  0  0  0
   62.6776   31.8377   46.7657 H   0  0  0  0  0  0  0  0  0  0  0  0
   59.1042   29.9726   48.8059 H   0  0  0  0  0  0  0  0  0  0  0  0
   58.6447   30.7985   47.2601 H   0  0  0  0  0  0  0  0  0  0  0  0
   58.8212   27.8635   47.9092 H   0  0  0  0  0  0  0  0  0  0  0  0
   57.6276   28.8032   46.8920 H   0  0  0  0  0  0  0  0  0  0  0  0
   57.5520   31.6700   46.3660 H   0  0  0  0  0  0  0  0  0  0  0  0
   59.7443   32.6110   44.7191 H   0  0  0  0  0  0  0  0  0  0  0  0
   58.4118   33.8225   44.7252 H   0  0  0  0  0  0  0  0  0  0  0  0
   60.8265   35.0036   46.1378 H   0  0  0  0  0  0  0  0  0  0  0  0
   60.9298   35.2346   48.8310 H   0  0  0  0  0  0  0  0  0  0  0  0
   59.1688   33.4755   49.8124 H   0  0  0  0  0  0  0  0  0  0  0  0
  1  2  2  0
  2  3  1  0
  3  4  1  0
  4  5  1  0
  5  6  1  0
  6  7  2  0
  7  8  1  0
  8  9  2  0
  9 10  1  0
 10 11  2  0
  5 12  1  0
 12 13  1  0
 13 14  1  0
 14 15  1  0
 15 16  1  0
 16 17  2  0
 17 18  1  0
 18 19  2  0
 19 20  1  0
 20 21  2  0
 15 22  1  0
 22 23  1  0
  2 24  1  0
 24 25  2  0
 24 26  1  0
 26 27  1  0
 27 28  1  0
 28 29  2  0
 29 30  1  0
 30 31  2  0
 31 32  1  0
 11  6  1  0
 23 12  1  0
 32 28  1  0
 21 16  1  0
  4 33  1  0
  4 34  1  0
  5 35  1  6
  7 36  1  0
  8 37  1  0
  9 38  1  0
 11 39  1  0
 13 40  1  0
 13 41  1  0
 14 42  1  0
 14 43  1  0
 17 44  1  0
 18 45  1  0
 19 46  1  0
 20 47  1  0
 21 48  1  0
 22 49  1  0
 22 50  1  0
 23 51  1  0
 23 52  1  0
 26 53  1  0
 27 54  1  0
 27 55  1  0
 29 56  1  0
 30 57  1  0
 31 58  1  0
M  CHG  1   3  -1
M  END
>  <UniqueID>  (33) 
33

>  <SMILES>  (33) 
O=C([N-]C[C@H](c1cccnc1)N1CCN(c2ccccc2)CC1)C(=O)NCc1ccco1

>  <Energy>  (33) 
99.68769043308443

>  <Genealogy>  (33) 
O=C([N-]CC(c1cccnc1)N1CCN(c2ccccc2)CC1)C(=O)NCc1ccco1 (protonated)
O=C([N-]C[C@H](c1cccnc1)N1CCN(c2ccccc2)CC1)C(=O)NCc1ccco1 (chirality)
O=C([N-]C[C@H](c1cccnc1)N1CCN(c2ccccc2)CC1)C(=O)NCc1ccco1 (3D coordinates assigned)
O=C([N-]C[C@H](c1cccnc1)N1CCN(c2ccccc2)CC1)C(=O)NCc1ccco1 (nonaromatic ring conformer: 99.68769043308443 kcal/mol)

>  <smiles>  (33) 
O=C(NCc1ccco1)C(=O)NCC(c1cccnc1)N1CCN(c2ccccc2)CC1

>  <score_type>  (33) 
oracle

>  <origin>  (33) 
adg

>  <m_score__min__energy>  (33) 
-9.9100000000000001

>  <m_primary>  (33) 
energy

$$$$
33:0
     RDKit          3D

 45 46  0  0  0  0  0  0  0  0999 V2000
   57.7440   31.6470   42.7580 C   0  0  0  0  0  0  0  0  0  0  0  0
   57.6980   31.7820   44.5350 S   0  0  0  0  0  0  0  0  0  0  0  0
   56.3130   32.1790   44.9580 O   0  0  0  0  0  0  0  0  0  0  0  0
   58.6480   32.8710   44.9450 O   0  0  0  0  0  0  0  0  0  0  0  0
   58.1500   30.2970   45.3450 N   0  0  0  0  0  0  0  0  0  0  0  0
   59.5620   30.2580   45.7770 C   0  0  0  0  0  0  0  0  0  0  0  0
   59.7200   30.9920   47.1110 C   0  0  0  0  0  0  0  0  0  0  0  0
   60.9860   31.8070   47.1480 C   0  0  0  0  0  0  0  0  0  0  0  0
   62.2030   31.2080   47.5160 C   0  0  0  0  0  0  0  0  0  0  0  0
   63.3860   31.9540   47.5080 C   0  0  0  0  0  0  0  0  0  0  0  0
   63.3640   33.2970   47.1260 C   0  0  0  0  0  0  0  0  0  0  0  0
   62.1600   33.8980   46.7500 C   0  0  0  0  0  0  0  0  0  0  0  0
   60.9740   33.1560   46.7570 C   0  0  0  0  0  0  0  0  0  0  0  0
   57.6530   29.0710   44.6860 C   0  0  0  0  0  0  0  0  0  0  0  0
   56.2280   28.7010   45.0420 C   0  0  0  0  0  0  0  0  0  0  0  0
   55.2850   29.4750   44.7330 O   0  0  0  0  0  0  0  0  0  0  0  0
   55.8930   27.4410   45.6400 N   0  0  0  0  0  0  0  0  0  0  0  0
   56.8290   26.4790   46.2160 C   0  0  0  0  0  0  0  0  0  0  0  0
   56.8520   25.2030   45.4170 C   0  0  0  0  0  0  0  0  0  0  0  0
   58.0610   24.5160   45.2090 C   0  0  0  0  0  0  0  0  0  0  0  0
   58.0770   23.3170   44.4900 C   0  0  0  0  0  0  0  0  0  0  0  0
   56.8860   22.7840   43.9900 C   0  0  0  0  0  0  0  0  0  0  0  0
   56.9090   21.2820   43.0850 Cl  0  0  0  0  0  0  0  0  0  0  0  0
   55.6760   23.4490   44.2110 C   0  0  0  0  0  0  0  0  0  0  0  0
   55.6570   24.6510   44.9250 C   0  0  0  0  0  0  0  0  0  0  0  0
   58.0869   30.6407   42.4755 H   0  0  0  0  0  0  0  0  0  0  0  0
   56.7366   31.8188   42.3510 H   0  0  0  0  0  0  0  0  0  0  0  0
   58.4369   32.3982   42.3510 H   0  0  0  0  0  0  0  0  0  0  0  0
   59.8777   29.2112   45.8972 H   0  0  0  0  0  0  0  0  0  0  0  0
   60.1866   30.7502   45.0170 H   0  0  0  0  0  0  0  0  0  0  0  0
   58.8595   31.6622   47.2539 H   0  0  0  0  0  0  0  0  0  0  0  0
   59.7702   30.2412   47.9133 H   0  0  0  0  0  0  0  0  0  0  0  0
   62.2251   30.1486   47.8114 H   0  0  0  0  0  0  0  0  0  0  0  0
   64.3349   31.4823   47.8030 H   0  0  0  0  0  0  0  0  0  0  0  0
   64.2954   33.8823   47.1211 H   0  0  0  0  0  0  0  0  0  0  0  0
   62.1446   34.9557   46.4482 H   0  0  0  0  0  0  0  0  0  0  0  0
   60.0287   33.6307   46.4552 H   0  0  0  0  0  0  0  0  0  0  0  0
   57.7078   29.2195   43.5975 H   0  0  0  0  0  0  0  0  0  0  0  0
   58.2885   28.2457   45.0397 H   0  0  0  0  0  0  0  0  0  0  0  0
   57.8376   26.9179   46.2219 H   0  0  0  0  0  0  0  0  0  0  0  0
   56.5044   26.2449   47.2406 H   0  0  0  0  0  0  0  0  0  0  0  0
   58.9989   24.9239   45.6139 H   0  0  0  0  0  0  0  0  0  0  0  0
   59.0285   22.7925   44.3177 H   0  0  0  0  0  0  0  0  0  0  0  0
   54.7378   23.0259   43.8226 H   0  0  0  0  0  0  0  0  0  0  0  0
   54.7019   25.1671   45.1025 H   0  0  0  0  0  0  0  0  0  0  0  0
  1  2  1  0
  2  3  2  0
  2  4  2  0
  2  5  1  0
  5  6  1  0
  6  7  1  0
  7  8  1  0
  8  9  2  0
  9 10  1  0
 10 11  2  0
 11 12  1  0
 12 13  2  0
  5 14  1  0
 14 15  1  0
 15 16  2  0
 15 17  1  0
 17 18  1  0
 18 19  1  0
 19 20  2  0
 20 21  1  0
 21 22  2  0
 22 23  1  0
 22 24  1  0
 24 25  2  0
 13  8  1  0
 25 19  1  0
  1 26  1  0
  1 27  1  0
  1 28  1  0
  6 29  1  0
  6 30  1  0
  7 31  1  0
  7 32  1  0
  9 33  1  0
 10 34  1  0
 11 35  1  0
 12 36  1  0
 13 37  1  0
 14 38  1  0
 14 39  1  0
 18 40  1  0
 18 41  1  0
 20 42  1  0
 21 43  1  0
 24 44  1  0
 25 45  1  0
M  CHG  1  17  -1
M  END
>  <UniqueID>  (34) 
34

>  <SMILES>  (34) 
CS(=O)(=O)N(CCc1ccccc1)CC(=O)[N-]Cc1ccc(Cl)cc1

>  <Energy>  (34) 
40.722471018483354

>  <Genealogy>  (34) 
CS(=O)(=O)N(CCc1ccccc1)CC(=O)[N-]Cc1ccc(Cl)cc1 (protonated)
CS(=O)(=O)N(CCc1ccccc1)CC(=O)[N-]Cc1ccc(Cl)cc1 (3D coordinates assigned)
CS(=O)(=O)N(CCc1ccccc1)CC(=O)[N-]Cc1ccc(Cl)cc1 (optimized conformer: 40.722471018483354 kcal/mol)

>  <smiles>  (34) 
CS(=O)(=O)N(CCc1ccccc1)CC(=O)NCc1ccc(Cl)cc1

>  <score_type>  (34) 
oracle

>  <origin>  (34) 
adg

>  <m_score__min__energy>  (34) 
-10.119999999999999

>  <m_primary>  (34) 
energy

$$$$
34:0
     RDKit          3D

 96 99  0  0  0  0  0  0  0  0999 V2000
   55.8540   28.6550   53.1740 C   0  0  0  0  0  0  0  0  0  0  0  0
   56.6290   29.9030   52.8340 C   0  0  0  0  0  0  0  0  0  0  0  0
   57.9340   30.0850   53.3110 C   0  0  0  0  0  0  0  0  0  0  0  0
   58.6630   31.1900   52.9710 N   0  0  0  0  0  0  0  0  0  0  0  0
   60.0180   31.3540   53.5370 C   0  0  1  0  0  0  0  0  0  0  0  0
   60.5360   30.0930   54.1330 C   0  0  0  0  0  0  0  0  0  0  0  0
   61.7210   29.8480   53.6470 C   0  0  0  0  0  0  0  0  0  0  0  0
   62.0880   30.9310   52.6940 C   0  0  1  0  0  0  0  0  0  0  0  0
   62.5250   30.3720   51.3370 C   0  0  0  0  0  0  0  0  0  0  0  0
   61.7490   30.9180   50.2720 O   0  0  0  0  0  0  0  0  0  0  0  0
   60.4790   30.4510   49.9230 C   0  0  0  0  0  0  0  0  0  0  0  0
   59.5370   31.2500   49.6850 O   0  0  0  0  0  0  0  0  0  0  0  0
   60.2300   28.9790   49.9040 C   0  0  0  0  0  0  0  0  0  0  0  0
   60.3820   28.4190   48.4850 C   0  0  0  0  0  0  0  0  0  0  0  0
   59.0670   27.8380   47.9470 C   0  0  0  0  0  0  0  0  0  0  0  0
   59.2710   26.5520   47.1370 C   0  0  0  0  0  0  0  0  0  0  0  0
   57.9420   25.8660   46.7760 C   0  0  0  0  0  0  0  0  0  0  0  0
   57.1600   26.5920   45.6690 C   0  0  0  0  0  0  0  0  0  0  0  0
   57.8110   26.4980   44.2790 C   0  0  0  0  0  0  0  0  0  0  0  0
   58.1810   27.8660   43.6940 C   0  0  0  0  0  0  0  0  0  0  0  0
   59.0910   28.6430   44.6490 C   0  0  0  0  0  0  0  0  0  0  0  0
   58.5980   30.0860   44.8120 C   0  0  0  0  0  0  0  0  0  0  0  0
   58.3630   30.4190   46.2810 C   0  0  0  0  0  0  0  0  0  0  0  0
   58.7980   31.7480   46.5070 O   0  0  0  0  0  0  0  0  0  0  0  0
   57.7310   32.6760   46.4390 C   0  0  0  0  0  0  0  0  0  0  0  0
   57.5610   33.2780   45.0330 C   0  0  0  0  0  0  0  0  0  0  0  0
   58.8750   33.7980   44.4330 C   0  0  0  0  0  0  0  0  0  0  0  0
   59.3990   35.0400   45.1600 C   0  0  0  0  0  0  0  0  0  0  0  0
   60.4500   34.6680   46.0550 O   0  0  0  0  0  0  0  0  0  0  0  0
   60.2390   34.4510   47.4220 C   0  0  0  0  0  0  0  0  0  0  0  0
   59.1220   34.7700   48.1030 N   0  0  0  0  0  0  0  0  0  0  0  0
   59.3550   34.4010   49.3340 O   0  0  0  0  0  0  0  0  0  0  0  0
   60.5410   33.8800   49.4910 N   0  0  0  0  0  0  0  0  0  0  0  0
   61.0120   33.3540   50.6740 O   0  0  0  0  0  0  0  0  0  0  0  0
   61.1420   33.8830   48.2880 C   0  0  0  0  0  0  0  0  0  0  0  0
   62.6860   33.1550   47.8590 S   0  0  0  0  0  0  0  0  0  0  0  0
   63.3440   33.9870   46.7910 O   0  0  0  0  0  0  0  0  0  0  0  0
   62.4570   31.7730   47.3060 O   0  0  0  0  0  0  0  0  0  0  0  0
   63.7540   33.0670   49.2550 C   0  0  0  0  0  0  0  0  0  0  0  0
   63.7270   34.0740   50.2360 C   0  0  0  0  0  0  0  0  0  0  0  0
   64.6090   34.0200   51.3240 C   0  0  0  0  0  0  0  0  0  0  0  0
   65.5210   32.9670   51.4270 C   0  0  0  0  0  0  0  0  0  0  0  0
   65.5560   31.9670   50.4510 C   0  0  0  0  0  0  0  0  0  0  0  0
   64.6680   32.0130   49.3680 C   0  0  0  0  0  0  0  0  0  0  0  0
   60.9410   31.7450   52.5280 O   0  0  0  0  0  0  0  0  0  0  0  0
   58.1010   32.1440   52.1600 C   0  0  0  0  0  0  0  0  0  0  0  0
   58.7280   33.1900   51.8620 O   0  0  0  0  0  0  0  0  0  0  0  0
   56.8420   31.9750   51.6720 N   0  0  0  0  0  0  0  0  0  0  0  0
   56.1060   30.8790   51.9760 C   0  0  0  0  0  0  0  0  0  0  0  0
   54.9540   30.7500   51.4870 O   0  0  0  0  0  0  0  0  0  0  0  0
   55.7889   28.5502   54.2671 H   0  0  0  0  0  0  0  0  0  0  0  0
   54.8409   28.7260   52.7515 H   0  0  0  0  0  0  0  0  0  0  0  0
   56.3669   27.7784   52.7515 H   0  0  0  0  0  0  0  0  0  0  0  0
   58.3793   29.3255   53.9704 H   0  0  0  0  0  0  0  0  0  0  0  0
   59.9277   32.1245   54.3168 H   0  0  0  0  0  0  0  0  0  0  0  0
   60.0048   29.4679   54.8658 H   0  0  0  0  0  0  0  0  0  0  0  0
   62.3484   28.9807   53.9005 H   0  0  0  0  0  0  0  0  0  0  0  0
   62.9385   31.5022   53.0946 H   0  0  0  0  0  0  0  0  0  0  0  0
   63.5836   30.6211   51.1720 H   0  0  0  0  0  0  0  0  0  0  0  0
   62.3763   29.2822   51.3487 H   0  0  0  0  0  0  0  0  0  0  0  0
   60.9536   28.4823   50.5671 H   0  0  0  0  0  0  0  0  0  0  0  0
   59.2025   28.7909   50.2489 H   0  0  0  0  0  0  0  0  0  0  0  0
   60.7105   29.2294   47.8177 H   0  0  0  0  0  0  0  0  0  0  0  0
   61.1212   27.6052   48.5205 H   0  0  0  0  0  0  0  0  0  0  0  0
   58.4070   27.6157   48.7984 H   0  0  0  0  0  0  0  0  0  0  0  0
   58.6263   28.5869   47.2726 H   0  0  0  0  0  0  0  0  0  0  0  0
   59.8032   26.8014   46.2072 H   0  0  0  0  0  0  0  0  0  0  0  0
   59.8496   25.8533   47.7592 H   0  0  0  0  0  0  0  0  0  0  0  0
   58.1592   24.8428   46.4356 H   0  0  0  0  0  0  0  0  0  0  0  0
   57.3141   25.8798   47.6791 H   0  0  0  0  0  0  0  0  0  0  0  0
   56.1538   26.1513   45.6103 H   0  0  0  0  0  0  0  0  0  0  0  0
   57.1403   27.6579   45.9399 H   0  0  0  0  0  0  0  0  0  0  0  0
   58.7262   25.8934   44.3613 H   0  0  0  0  0  0  0  0  0  0  0  0
   57.0744   26.0404   43.6023 H   0  0  0  0  0  0  0  0  0  0  0  0
   58.7048   27.7187   42.7380 H   0  0  0  0  0  0  0  0  0  0  0  0
   57.2573   28.4437   43.5422 H   0  0  0  0  0  0  0  0  0  0  0  0
   59.0906   28.1480   45.6313 H   0  0  0  0  0  0  0  0  0  0  0  0
   60.1087   28.6615   44.2319 H   0  0  0  0  0  0  0  0  0  0  0  0
   59.3539   30.7729   44.4036 H   0  0  0  0  0  0  0  0  0  0  0  0
   57.6466   30.1951   44.2708 H   0  0  0  0  0  0  0  0  0  0  0  0
   57.2919   30.3324   46.5160 H   0  0  0  0  0  0  0  0  0  0  0  0
   58.9206   29.7215   46.9234 H   0  0  0  0  0  0  0  0  0  0  0  0
   56.7989   32.1626   46.7178 H   0  0  0  0  0  0  0  0  0  0  0  0
   57.9613   33.5006   47.1296 H   0  0  0  0  0  0  0  0  0  0  0  0
   57.1561   32.5016   44.3672 H   0  0  0  0  0  0  0  0  0  0  0  0
   56.8821   34.1385   45.1265 H   0  0  0  0  0  0  0  0  0  0  0  0
   59.6327   33.0035   44.5005 H   0  0  0  0  0  0  0  0  0  0  0  0
   58.6776   34.0799   43.3882 H   0  0  0  0  0  0  0  0  0  0  0  0
   59.7844   35.7596   44.4227 H   0  0  0  0  0  0  0  0  0  0  0  0
   58.5795   35.4996   45.7321 H   0  0  0  0  0  0  0  0  0  0  0  0
   60.6130   32.5260   51.0920 H   0  0  0  0  0  0  0  0  0  0  0  0
   63.0123   34.9057   50.1494 H   0  0  0  0  0  0  0  0  0  0  0  0
   64.5831   34.8046   52.0945 H   0  0  0  0  0  0  0  0  0  0  0  0
   66.2146   32.9246   52.2797 H   0  0  0  0  0  0  0  0  0  0  0  0
   66.2808   31.1437   50.5331 H   0  0  0  0  0  0  0  0  0  0  0  0
   64.6892   31.2200   48.6059 H   0  0  0  0  0  0  0  0  0  0  0  0
  1  2  1  0
  2  3  2  0
  3  4  1  0
  4  5  1  0
  5  6  1  0
  6  7  2  0
  7  8  1  0
  8  9  1  0
  9 10  1  0
 10 11  1  0
 11 12  2  0
 11 13  1  0
 13 14  1  0
 14 15  1  0
 15 16  1  0
 16 17  1  0
 17 18  1  0
 18 19  1  0
 19 20  1  0
 20 21  1  0
 21 22  1  0
 22 23  1  0
 23 24  1  0
 24 25  1  0
 25 26  1  0
 26 27  1  0
 27 28  1  0
 28 29  1  0
 29 30  1  0
 30 31  2  0
 31 32  1  0
 32 33  1  0
 33 34  1  0
 33 35  2  0
 35 36  1  0
 36 37  2  0
 36 38  2  0
 36 39  1  0
 39 40  2  0
 40 41  1  0
 41 42  2  0
 42 43  1  0
 43 44  2  0
  8 45  1  0
  4 46  1  0
 46 47  2  0
 46 48  1  0
 48 49  1  0
 49 50  2  0
 49  2  1  0
 45  5  1  0
 35 30  1  0
 44 39  1  0
  1 51  1  0
  1 52  1  0
  1 53  1  0
  3 54  1  0
  5 55  1  1
  6 56  1  0
  7 57  1  0
  8 58  1  1
  9 59  1  0
  9 60  1  0
 13 61  1  0
 13 62  1  0
 14 63  1  0
 14 64  1  0
 15 65  1  0
 15 66  1  0
 16 67  1  0
 16 68  1  0
 17 69  1  0
 17 70  1  0
 18 71  1  0
 18 72  1  0
 19 73  1  0
 19 74  1  0
 20 75  1  0
 20 76  1  0
 21 77  1  0
 21 78  1  0
 22 79  1  0
 22 80  1  0
 23 81  1  0
 23 82  1  0
 25 83  1  0
 25 84  1  0
 26 85  1  0
 26 86  1  0
 27 87  1  0
 27 88  1  0
 28 89  1  0
 28 90  1  0
 34 91  1  0
 40 92  1  0
 41 93  1  0
 42 94  1  0
 43 95  1  0
 44 96  1  0
M  CHG  2  33   1  48  -1
M  END
>  <UniqueID>  (35) 
35

>  <SMILES>  (35) 
Cc1cn([C@H]2C=C[C@@H](COC(=O)CCCCCCCCCCCOCCCCOc3no[n+](O)c3S(=O)(=O)c3ccccc3)O2)c(=O)[n-]c1=O

>  <Energy>  (35) 
127.84607256784916

>  <Genealogy>  (35) 
Cc1cn(C2C=CC(COC(=O)CCCCCCCCCCCOCCCCOc3no[n+](O)c3S(=O)(=O)c3ccccc3)O2)c(=O)[n-]c1=O (protonated)
Cc1cn([C@H]2C=C[C@@H](COC(=O)CCCCCCCCCCCOCCCCOc3no[n+](O)c3S(=O)(=O)c3ccccc3)O2)c(=O)[n-]c1=O (chirality)
Cc1cn([C@H]2C=C[C@@H](COC(=O)CCCCCCCCCCCOCCCCOc3no[n+](O)c3S(=O)(=O)c3ccccc3)O2)c(=O)[n-]c1=O (3D coordinates assigned)
Cc1cn([C@H]2C=C[C@@H](COC(=O)CCCCCCCCCCCOCCCCOc3no[n+](O)c3S(=O)(=O)c3ccccc3)O2)c(=O)[n-]c1=O (nonaromatic ring conformer: 127.84607256784916 kcal/mol)

>  <smiles>  (35) 
Cc1cn(C2C=CC(COC(=O)CCCCCCCCCCCOCCCCOc3no[n+]([O-])c3S(=O)(=O)c3ccccc3)O2)c(=O)[nH]c1=O

>  <score_type>  (35) 
oracle

>  <origin>  (35) 
adg

>  <m_score__min__energy>  (35) 
-9.9399999999999995

>  <m_primary>  (35) 
energy

$$$$
35:0
     RDKit          3D

 59 61  0  0  0  0  0  0  0  0999 V2000
   57.4450   33.9160   45.9510 C   0  0  0  0  0  0  0  0  0  0  0  0
   57.6860   32.9720   44.9130 O   0  0  0  0  0  0  0  0  0  0  0  0
   57.4200   31.6070   45.0640 C   0  0  0  0  0  0  0  0  0  0  0  0
   56.2850   31.1360   44.7690 O   0  0  0  0  0  0  0  0  0  0  0  0
   58.5040   30.6970   45.5640 C   0  0  1  0  0  0  0  0  0  0  0  0
   58.9590   29.6920   44.4800 C   0  0  0  0  0  0  0  0  0  0  0  0
   59.1600   28.2540   44.9970 C   0  0  0  0  0  0  0  0  0  0  0  0
   57.9020   27.3800   44.8550 C   0  0  0  0  0  0  0  0  0  0  0  0
   56.6590   28.0720   45.4210 C   0  0  0  0  0  0  0  0  0  0  0  0
   55.6210   27.0920   45.7150 N   0  0  0  0  0  0  0  0  0  0  0  0
   55.8890   25.8540   46.3740 C   0  0  0  0  0  0  0  0  0  0  0  0
   56.9570   25.7000   47.0300 O   0  0  0  0  0  0  0  0  0  0  0  0
   54.9550   24.8160   46.2780 O   0  0  0  0  0  0  0  0  0  0  0  0
   54.5330   24.2540   45.0360 C   0  0  0  0  0  0  0  0  0  0  0  0
   55.5780   23.3080   44.5080 C   0  0  0  0  0  0  0  0  0  0  0  0
   56.4820   22.6990   45.3930 C   0  0  0  0  0  0  0  0  0  0  0  0
   57.4640   21.8300   44.9080 C   0  0  0  0  0  0  0  0  0  0  0  0
   57.5500   21.5630   43.5400 C   0  0  0  0  0  0  0  0  0  0  0  0
   56.6540   22.1680   42.6510 C   0  0  0  0  0  0  0  0  0  0  0  0
   55.6720   23.0370   43.1330 C   0  0  0  0  0  0  0  0  0  0  0  0
   59.6420   31.5120   45.9980 N   0  0  0  0  0  0  0  0  0  0  0  0
   60.6680   31.0000   46.8650 C   0  0  0  0  0  0  0  0  0  0  0  0
   60.6460   29.7900   47.2220 O   0  0  0  0  0  0  0  0  0  0  0  0
   61.7490   31.8810   47.3430 C   0  0  0  0  0  0  0  0  0  0  0  0
   61.9830   33.1560   46.8250 C   0  0  0  0  0  0  0  0  0  0  0  0
   63.2960   33.8120   47.6430 S   0  0  0  0  0  0  0  0  0  0  0  0
   63.5140   32.4550   48.6150 C   0  0  0  0  0  0  0  0  0  0  0  0
   64.5550   32.3030   49.6370 C   0  0  0  0  0  0  0  0  0  0  0  0
   65.7010   33.0880   49.7480 C   0  0  0  0  0  0  0  0  0  0  0  0
   66.5200   32.7250   50.8240 C   0  0  0  0  0  0  0  0  0  0  0  0
   66.0090   31.6580   51.5470 C   0  0  0  0  0  0  0  0  0  0  0  0
   66.6180   31.0780   52.6970 N   0  0  0  0  0  0  0  0  0  0  0  0
   64.5530   31.1550   50.8740 S   0  0  0  0  0  0  0  0  0  0  0  0
   62.6020   31.5000   48.3330 N   0  0  0  0  0  0  0  0  0  0  0  0
   57.5700   33.4265   46.9281 H   0  0  0  0  0  0  0  0  0  0  0  0
   58.1596   34.7476   45.8635 H   0  0  0  0  0  0  0  0  0  0  0  0
   56.4192   34.3033   45.8635 H   0  0  0  0  0  0  0  0  0  0  0  0
   58.1061   30.1119   46.4062 H   0  0  0  0  0  0  0  0  0  0  0  0
   58.1964   29.6704   43.6876 H   0  0  0  0  0  0  0  0  0  0  0  0
   59.9387   30.0382   44.1189 H   0  0  0  0  0  0  0  0  0  0  0  0
   59.9765   27.7877   44.4261 H   0  0  0  0  0  0  0  0  0  0  0  0
   59.3933   28.3209   46.0699 H   0  0  0  0  0  0  0  0  0  0  0  0
   57.7357   27.1666   43.7888 H   0  0  0  0  0  0  0  0  0  0  0  0
   58.0650   26.4530   45.4243 H   0  0  0  0  0  0  0  0  0  0  0  0
   56.9291   28.6024   46.3461 H   0  0  0  0  0  0  0  0  0  0  0  0
   56.2763   28.7839   44.6749 H   0  0  0  0  0  0  0  0  0  0  0  0
   53.5911   23.7064   45.1871 H   0  0  0  0  0  0  0  0  0  0  0  0
   54.3850   25.0655   44.3083 H   0  0  0  0  0  0  0  0  0  0  0  0
   56.4174   22.9062   46.4714 H   0  0  0  0  0  0  0  0  0  0  0  0
   58.1702   21.3557   45.6053 H   0  0  0  0  0  0  0  0  0  0  0  0
   58.3220   20.8771   43.1610 H   0  0  0  0  0  0  0  0  0  0  0  0
   56.7230   21.9593   41.5732 H   0  0  0  0  0  0  0  0  0  0  0  0
   54.9691   23.5113   42.4323 H   0  0  0  0  0  0  0  0  0  0  0  0
   59.6400   32.5310   45.7650 H   0  0  0  0  0  0  0  0  0  0  0  0
   61.4096   33.6446   46.0235 H   0  0  0  0  0  0  0  0  0  0  0  0
   65.9387   33.9114   49.0584 H   0  0  0  0  0  0  0  0  0  0  0  0
   67.4655   33.2310   51.0690 H   0  0  0  0  0  0  0  0  0  0  0  0
   66.0320   30.6430   53.4450 H   0  0  0  0  0  0  0  0  0  0  0  0
   67.6570   31.0710   52.7950 H   0  0  0  0  0  0  0  0  0  0  0  0
  1  2  1  0
  2  3  1  0
  3  4  2  0
  3  5  1  0
  5  6  1  0
  6  7  1  0
  7  8  1  0
  8  9  1  0
  9 10  1  0
 10 11  1  0
 11 12  2  0
 11 13  1  0
 13 14  1  0
 14 15  1  0
 15 16  2  0
 16 17  1  0
 17 18  2  0
 18 19  1  0
 19 20  2  0
  5 21  1  0
 21 22  1  0
 22 23  2  0
 22 24  1  0
 24 25  2  0
 25 26  1  0
 26 27  1  0
 27 28  1  0
 28 29  2  0
 29 30  1  0
 30 31  2  0
 31 32  1  0
 31 33  1  0
 27 34  2  0
 20 15  1  0
 34 24  1  0
 33 28  1  0
  1 35  1  0
  1 36  1  0
  1 37  1  0
  5 38  1  1
  6 39  1  0
  6 40  1  0
  7 41  1  0
  7 42  1  0
  8 43  1  0
  8 44  1  0
  9 45  1  0
  9 46  1  0
 14 47  1  0
 14 48  1  0
 16 49  1  0
 17 50  1  0
 18 51  1  0
 19 52  1  0
 20 53  1  0
 21 54  1  0
 25 55  1  0
 29 56  1  0
 30 57  1  0
 32 58  1  0
 32 59  1  0
M  CHG  1  10  -1
M  END
>  <UniqueID>  (36) 
36

>  <SMILES>  (36) 
COC(=O)[C@@H](CCCC[N-]C(=O)OCc1ccccc1)NC(=O)c1csc(-c2ccc(N)s2)n1

>  <Energy>  (36) 
101.0849318245784

>  <Genealogy>  (36) 
COC(=O)C(CCCC[N-]C(=O)OCc1ccccc1)NC(=O)c1csc(-c2ccc(N)s2)n1 (protonated)
COC(=O)[C@@H](CCCC[N-]C(=O)OCc1ccccc1)NC(=O)c1csc(-c2ccc(N)s2)n1 (chirality)
COC(=O)[C@@H](CCCC[N-]C(=O)OCc1ccccc1)NC(=O)c1csc(-c2ccc(N)s2)n1 (3D coordinates assigned)
COC(=O)[C@@H](CCCC[N-]C(=O)OCc1ccccc1)NC(=O)c1csc(-c2ccc(N)s2)n1 (optimized conformer: 101.0849318245784 kcal/mol)

>  <smiles>  (36) 
COC(=O)C(CCCCNC(=O)OCc1ccccc1)NC(=O)c1csc(-c2ccc(N)s2)n1

>  <score_type>  (36) 
oracle

>  <origin>  (36) 
adg

>  <m_score__min__energy>  (36) 
-10.710000000000001

>  <m_primary>  (36) 
energy

$$$$
36:0
     RDKit          3D

 26 27  0  0  0  0  0  0  0  0999 V2000
   59.1890   28.9190   47.9950 O   0  0  0  0  0  0  0  0  0  0  0  0
   58.5050   29.3140   47.0100 C   0  0  0  0  0  0  0  0  0  0  0  0
   57.3980   28.6140   46.6500 N   0  0  0  0  0  0  0  0  0  0  0  0
   56.6470   28.9810   45.5820 C   0  0  0  0  0  0  0  0  0  0  0  0
   55.5250   28.2280   45.2450 O   0  0  0  0  0  0  0  0  0  0  0  0
   57.0070   30.1000   44.8200 C   0  0  0  0  0  0  0  0  0  0  0  0
   56.1680   30.4890   43.6590 C   0  0  0  0  0  0  0  0  0  0  0  0
   56.6130   30.4720   42.4020 C   0  0  0  0  0  0  0  0  0  0  0  0
   57.3880   32.0390   41.6340 Br  0  0  0  0  0  0  0  0  0  0  0  0
   58.1360   30.8390   45.2280 C   0  0  0  0  0  0  0  0  0  0  0  0
   58.4420   31.9040   44.6230 O   0  0  0  0  0  0  0  0  0  0  0  0
   58.8780   30.4290   46.3060 N   0  0  0  0  0  0  0  0  0  0  0  0
   60.0460   31.1770   46.7060 C   0  0  0  0  0  0  0  0  0  0  0  0
   61.2960   30.5420   46.7960 C   0  0  0  0  0  0  0  0  0  0  0  0
   62.4270   31.2680   47.1810 C   0  0  0  0  0  0  0  0  0  0  0  0
   62.3190   32.6300   47.4780 C   0  0  0  0  0  0  0  0  0  0  0  0
   61.0780   33.2670   47.3900 C   0  0  0  0  0  0  0  0  0  0  0  0
   59.9450   32.5460   47.0060 C   0  0  0  0  0  0  0  0  0  0  0  0
   57.1210   27.7690   47.2000 H   0  0  0  0  0  0  0  0  0  0  0  0
   55.1311   30.8060   43.8440 H   0  0  0  0  0  0  0  0  0  0  0  0
   56.5333   29.5515   41.8051 H   0  0  0  0  0  0  0  0  0  0  0  0
   61.3850   29.4707   46.5629 H   0  0  0  0  0  0  0  0  0  0  0  0
   63.4037   30.7668   47.2504 H   0  0  0  0  0  0  0  0  0  0  0  0
   63.2100   33.1997   47.7807 H   0  0  0  0  0  0  0  0  0  0  0  0
   60.9934   34.3386   47.6237 H   0  0  0  0  0  0  0  0  0  0  0  0
   58.9704   33.0516   46.9382 H   0  0  0  0  0  0  0  0  0  0  0  0
  1  2  2  0
  2  3  1  0
  3  4  1  0
  4  5  1  0
  4  6  2  0
  6  7  1  0
  7  8  2  3
  8  9  1  0
  6 10  1  0
 10 11  2  0
 10 12  1  0
 12 13  1  0
 13 14  2  0
 14 15  1  0
 15 16  2  0
 16 17  1  0
 17 18  2  0
 12  2  1  0
 18 13  1  0
  3 19  1  0
  7 20  1  0
  8 21  1  0
 14 22  1  0
 15 23  1  0
 16 24  1  0
 17 25  1  0
 18 26  1  0
M  CHG  1   5  -1
M  END
>  <UniqueID>  (37) 
37

>  <SMILES>  (37) 
O=c1[nH]c([O-])c(C=CBr)c(=O)n1-c1ccccc1

>  <Energy>  (37) 
41.96327684471654

>  <Genealogy>  (37) 
O=c1[nH]c([O-])c(C=CBr)c(=O)n1-c1ccccc1 (protonated)
O=c1[nH]c([O-])c(C=CBr)c(=O)n1-c1ccccc1 (3D coordinates assigned)
O=c1[nH]c([O-])c(C=CBr)c(=O)n1-c1ccccc1 (optimized conformer: 41.96327684471654 kcal/mol)

>  <smiles>  (37) 
O=c1[nH]c(O)c(C=CBr)c(=O)n1-c1ccccc1

>  <score_type>  (37) 
oracle

>  <origin>  (37) 
adg

>  <m_score__min__energy>  (37) 
-8.6500000000000004

>  <m_primary>  (37) 
energy

$$$$
37:0
     RDKit          3D

 59 62  0  0  0  0  0  0  0  0999 V2000
   63.3020   33.8750   46.8940 C   0  0  0  0  0  0  0  0  0  0  0  0
   62.2950   33.2690   47.8970 C   0  0  0  0  0  0  0  0  0  0  0  0
   62.0750   34.2590   49.0610 C   0  0  0  0  0  0  0  0  0  0  0  0
   62.9340   31.9870   48.4860 C   0  0  0  0  0  0  0  0  0  0  0  0
   60.9520   33.0080   47.1880 C   0  0  0  0  0  0  0  0  0  0  0  0
   60.1040   31.9820   47.6610 C   0  0  0  0  0  0  0  0  0  0  0  0
   58.8820   31.7110   47.0410 C   0  0  0  0  0  0  0  0  0  0  0  0
   58.4730   32.4470   45.9240 C   0  0  0  0  0  0  0  0  0  0  0  0
   57.2200   32.1820   45.2790 N   0  0  0  0  0  0  0  0  0  0  0  0
   57.0030   30.8330   44.2100 S   0  0  0  0  0  0  0  0  0  0  0  0
   55.5600   30.6980   43.8090 O   0  0  0  0  0  0  0  0  0  0  0  0
   57.8050   31.0700   42.9610 O   0  0  0  0  0  0  0  0  0  0  0  0
   57.5760   29.3620   44.9990 C   0  0  0  0  0  0  0  0  0  0  0  0
   56.6450   28.3830   45.3790 C   0  0  0  0  0  0  0  0  0  0  0  0
   57.0690   27.1920   45.9960 C   0  0  0  0  0  0  0  0  0  0  0  0
   56.1520   26.2030   46.4100 C   0  0  0  0  0  0  0  0  0  0  0  0
   54.9120   26.3980   46.2670 O   0  0  0  0  0  0  0  0  0  0  0  0
   56.6020   25.0470   46.9950 N   0  0  0  0  0  0  0  0  0  0  0  0
   55.7070   24.0410   47.4070 N   0  0  0  0  0  0  0  0  0  0  0  0
   55.8970   22.3800   46.9450 S   0  0  0  0  0  0  0  0  0  0  0  0
   54.6660   21.5960   47.3180 O   0  0  0  0  0  0  0  0  0  0  0  0
   57.0770   21.8010   47.6750 O   0  0  0  0  0  0  0  0  0  0  0  0
   56.1980   22.2840   45.2110 C   0  0  0  0  0  0  0  0  0  0  0  0
   56.7970   21.1510   44.6460 C   0  0  0  0  0  0  0  0  0  0  0  0
   57.0150   21.0890   43.2650 C   0  0  0  0  0  0  0  0  0  0  0  0
   56.6290   22.1530   42.4450 C   0  0  0  0  0  0  0  0  0  0  0  0
   56.0150   23.2800   43.0010 C   0  0  0  0  0  0  0  0  0  0  0  0
   55.8010   23.3440   44.3810 C   0  0  0  0  0  0  0  0  0  0  0  0
   57.9290   24.8530   47.2310 C   0  0  0  0  0  0  0  0  0  0  0  0
   58.8720   25.8030   46.8390 C   0  0  0  0  0  0  0  0  0  0  0  0
   58.4480   26.9800   46.2180 C   0  0  0  0  0  0  0  0  0  0  0  0
   59.3770   27.9540   45.8250 C   0  0  0  0  0  0  0  0  0  0  0  0
   58.9470   29.1380   45.2190 C   0  0  0  0  0  0  0  0  0  0  0  0
   59.8930   30.0840   44.8410 O   0  0  0  0  0  0  0  0  0  0  0  0
   59.2900   33.4810   45.4530 C   0  0  0  0  0  0  0  0  0  0  0  0
   60.5160   33.7550   46.0680 C   0  0  0  0  0  0  0  0  0  0  0  0
   64.1178   34.3659   47.4449 H   0  0  0  0  0  0  0  0  0  0  0  0
   63.7157   33.0757   46.2615 H   0  0  0  0  0  0  0  0  0  0  0  0
   62.7895   34.6148   46.2615 H   0  0  0  0  0  0  0  0  0  0  0  0
   62.1924   33.7308   50.0187 H   0  0  0  0  0  0  0  0  0  0  0  0
   62.8147   35.0706   48.9968 H   0  0  0  0  0  0  0  0  0  0  0  0
   61.0612   34.6810   48.9968 H   0  0  0  0  0  0  0  0  0  0  0  0
   62.9093   32.0365   49.5846 H   0  0  0  0  0  0  0  0  0  0  0  0
   62.3694   31.1063   48.1459 H   0  0  0  0  0  0  0  0  0  0  0  0
   63.9771   31.9077   48.1459 H   0  0  0  0  0  0  0  0  0  0  0  0
   60.4114   31.3860   48.5329 H   0  0  0  0  0  0  0  0  0  0  0  0
   58.2360   30.9123   47.4344 H   0  0  0  0  0  0  0  0  0  0  0  0
   56.5220   32.9560   45.2070 H   0  0  0  0  0  0  0  0  0  0  0  0
   55.5736   28.5485   45.1926 H   0  0  0  0  0  0  0  0  0  0  0  0
   57.0962   20.3095   45.2881 H   0  0  0  0  0  0  0  0  0  0  0  0
   57.4912   20.2009   42.8239 H   0  0  0  0  0  0  0  0  0  0  0  0
   56.8084   22.1040   41.3608 H   0  0  0  0  0  0  0  0  0  0  0  0
   55.7016   24.1131   42.3547 H   0  0  0  0  0  0  0  0  0  0  0  0
   55.3186   24.2303   44.8190 H   0  0  0  0  0  0  0  0  0  0  0  0
   58.2616   23.9349   47.7375 H   0  0  0  0  0  0  0  0  0  0  0  0
   59.9429   25.6264   47.0178 H   0  0  0  0  0  0  0  0  0  0  0  0
   60.4507   27.7853   45.9946 H   0  0  0  0  0  0  0  0  0  0  0  0
   58.9652   34.0834   44.5918 H   0  0  0  0  0  0  0  0  0  0  0  0
   61.1506   34.5631   45.6753 H   0  0  0  0  0  0  0  0  0  0  0  0
  1  2  1  0
  2  3  1  0
  2  4  1  0
  2  5  1  0
  5  6  2  0
  6  7  1  0
  7  8  2  0
  8  9  1  0
  9 10  1  0
 10 11  2  0
 10 12  2  0
 10 13  1  0
 13 14  2  0
 14 15  1  0
 15 16  1  0
 16 17  2  0
 16 18  1  0
 18 19  1  0
 19 20  1  0
 20 21  2  0
 20 22  2  0
 20 23  1  0
 23 24  2  0
 24 25  1  0
 25 26  2  0
 26 27  1  0
 27 28  2  0
 18 29  1  0
 29 30  2  0
 30 31  1  0
 31 32  1  0
 32 33  2  0
 33 34  1  0
  8 35  1  0
 35 36  2  0
 36  5  1  0
 33 13  1  0
 31 15  2  0
 28 23  1  0
  1 37  1  0
  1 38  1  0
  1 39  1  0
  3 40  1  0
  3 41  1  0
  3 42  1  0
  4 43  1  0
  4 44  1  0
  4 45  1  0
  6 46  1  0
  7 47  1  0
  9 48  1  0
 14 49  1  0
 24 50  1  0
 25 51  1  0
 26 52  1  0
 27 53  1  0
 28 54  1  0
 29 55  1  0
 30 56  1  0
 32 57  1  0
 35 58  1  0
 36 59  1  0
M  CHG  2  19  -1  34  -1
M  END
>  <UniqueID>  (38) 
38

>  <SMILES>  (38) 
CC(C)(C)c1ccc(NS(=O)(=O)c2cc3c(=O)n([N-]S(=O)(=O)c4ccccc4)ccc3cc2[O-])cc1

>  <Energy>  (38) 
83.68054376278991

>  <Genealogy>  (38) 
CC(C)(C)c1ccc(NS(=O)(=O)c2cc3c(=O)n([N-]S(=O)(=O)c4ccccc4)ccc3cc2[O-])cc1 (protonated)
CC(C)(C)c1ccc(NS(=O)(=O)c2cc3c(=O)n([N-]S(=O)(=O)c4ccccc4)ccc3cc2[O-])cc1 (3D coordinates assigned)
CC(C)(C)c1ccc(NS(=O)(=O)c2cc3c(=O)n([N-]S(=O)(=O)c4ccccc4)ccc3cc2[O-])cc1 (optimized conformer: 83.68054376278991 kcal/mol)

>  <smiles>  (38) 
CC(C)(C)c1ccc(NS(=O)(=O)c2cc3c(=O)n(NS(=O)(=O)c4ccccc4)ccc3cc2O)cc1

>  <score_type>  (38) 
oracle

>  <origin>  (38) 
adg

>  <m_score__min__energy>  (38) 
-13.050000000000001

>  <m_primary>  (38) 
energy

$$$$
38:0
     RDKit          3D

 41 43  0  0  1  0  0  0  0  0999 V2000
   58.5210   25.1450   45.6500 C   0  0  0  0  0  0  0  0  0  0  0  0
   59.0730   26.2860   46.2670 O   0  0  0  0  0  0  0  0  0  0  0  0
   58.6120   27.5420   45.9180 C   0  0  0  0  0  0  0  0  0  0  0  0
   59.4260   28.6580   45.9020 C   0  0  0  0  0  0  0  0  0  0  0  0
   58.9060   29.8980   45.5430 C   0  0  0  0  0  0  0  0  0  0  0  0
   57.5650   30.0070   45.2010 C   0  0  0  0  0  0  0  0  0  0  0  0
   57.0040   31.2900   44.8230 N   0  0  0  0  0  0  0  0  0  0  0  0
   57.6110   32.3670   45.0810 C   0  0  0  0  0  0  0  0  0  0  0  0
   57.9480   33.4400   44.3610 N   0  0  0  0  0  0  0  0  0  0  0  0
   58.5840   34.3540   45.0150 N   0  0  0  0  0  0  0  0  0  0  0  0
   58.9230   34.4220   46.1210 C   0  0  0  0  0  0  0  0  0  0  0  0
   59.6470   35.3390   47.0930 C   0  0  0  0  0  0  0  0  0  0  0  0
   60.6660   34.5760   47.7960 N   0  0  0  0  0  0  0  0  0  0  0  0
   61.7970   34.1730   47.2060 N   0  0  0  0  0  0  0  0  0  0  0  0
   62.5420   33.4950   48.0890 C   0  0  0  0  0  0  0  0  0  0  0  0
   63.8670   32.8950   47.7930 C   0  0  0  0  0  0  0  0  0  0  0  0
   61.8390   33.4770   49.2830 C   0  0  0  0  0  0  0  0  0  0  0  0
   60.6530   34.1660   49.0780 C   0  0  0  0  0  0  0  0  0  0  0  0
   59.7320   34.3750   49.9270 O   0  0  0  0  0  0  0  0  0  0  0  0
   58.2820   32.7690   46.7800 S   0  0  0  0  0  0  0  0  0  0  0  0
   56.7380   28.8940   45.2150 C   0  0  0  0  0  0  0  0  0  0  0  0
   55.4080   29.0760   44.8620 O   0  0  0  0  0  0  0  0  0  0  0  0
   55.1500   29.6950   43.6140 C   0  0  0  0  0  0  0  0  0  0  0  0
   57.2660   27.6710   45.5720 C   0  0  0  0  0  0  0  0  0  0  0  0
   58.1797   24.4396   46.4220 H   0  0  0  0  0  0  0  0  0  0  0  0
   57.6678   25.4437   45.0233 H   0  0  0  0  0  0  0  0  0  0  0  0
   59.2848   24.6614   45.0233 H   0  0  0  0  0  0  0  0  0  0  0  0
   60.4880   28.5663   46.1737 H   0  0  0  0  0  0  0  0  0  0  0  0
   59.5540   30.7868   45.5303 H   0  0  0  0  0  0  0  0  0  0  0  0
   57.6840   33.4840   43.3240 H   0  0  0  0  0  0  0  0  0  0  0  0
   60.1202   36.1632   46.5392 H   0  0  0  0  0  0  0  0  0  0  0  0
   58.9295   35.7542   47.8160 H   0  0  0  0  0  0  0  0  0  0  0  0
   62.0700   34.3560   46.2030 H   0  0  0  0  0  0  0  0  0  0  0  0
   64.3827   32.6615   48.7361 H   0  0  0  0  0  0  0  0  0  0  0  0
   63.7296   31.9713   47.2117 H   0  0  0  0  0  0  0  0  0  0  0  0
   64.4706   33.6076   47.2117 H   0  0  0  0  0  0  0  0  0  0  0  0
   62.1624   33.0030   50.2215 H   0  0  0  0  0  0  0  0  0  0  0  0
   54.7318   30.6984   43.7819 H   0  0  0  0  0  0  0  0  0  0  0  0
   56.0880   29.7791   43.0456 H   0  0  0  0  0  0  0  0  0  0  0  0
   54.4299   29.0880   43.0456 H   0  0  0  0  0  0  0  0  0  0  0  0
   56.6163   26.7835   45.5842 H   0  0  0  0  0  0  0  0  0  0  0  0
  1  2  1  0
  2  3  1  0
  3  4  2  0
  4  5  1  0
  5  6  2  0
  6  7  1  0
  7  8  2  0
  8  9  1  0
  9 10  1  0
 10 11  2  0
 11 12  1  0
 12 13  1  0
 13 14  1  0
 14 15  1  0
 15 16  1  0
 15 17  2  0
 17 18  1  0
 18 19  2  0
 11 20  1  0
  6 21  1  0
 21 22  1  0
 22 23  1  0
 21 24  2  0
 24  3  1  0
 20  8  1  0
 18 13  1  0
  1 25  1  0
  1 26  1  0
  1 27  1  0
  4 28  1  0
  5 29  1  0
  9 30  1  0
 12 31  1  0
 12 32  1  0
 14 33  1  0
 16 34  1  0
 16 35  1  0
 16 36  1  0
 17 37  1  0
 23 38  1  0
 23 39  1  0
 23 40  1  0
 24 41  1  0
M  END
>  <smiles>  (39) 
COc1ccc(N=c2[nH]nc(Cn3[nH]c(C)cc3=O)s2)c(OC)c1

>  <score_type>  (39) 
oracle

>  <origin>  (39) 
adg

>  <m_score__min__energy>  (39) 
-8.0800000000000001

>  <m_primary>  (39) 
energy

$$$$
39:0
     RDKit          3D

 51 54  0  0  0  0  0  0  0  0999 V2000
   60.4970   32.4650   46.3530 O   0  0  0  0  0  0  0  0  0  0  0  0
   60.8260   31.5160   47.1160 C   0  0  0  0  0  0  0  0  0  0  0  0
   60.0450   30.2320   47.0430 C   0  0  0  0  0  0  0  0  0  0  0  0
   60.1050   29.5640   45.3430 S   0  0  0  0  0  0  0  0  0  0  0  0
   58.3510   29.1740   45.2690 C   0  0  0  0  0  0  0  0  0  0  0  0
   57.8100   28.0830   45.8490 N   0  0  0  0  0  0  0  0  0  0  0  0
   56.5090   28.1090   45.5980 N   0  0  0  0  0  0  0  0  0  0  0  0
   56.2870   29.2160   44.8680 C   0  0  0  0  0  0  0  0  0  0  0  0
   55.1480   29.5510   44.4430 O   0  0  0  0  0  0  0  0  0  0  0  0
   57.4140   29.9160   44.6430 N   0  0  0  0  0  0  0  0  0  0  0  0
   57.5880   31.1060   43.8080 C   0  0  0  0  0  0  0  0  0  0  0  0
   57.8560   32.3120   44.6670 C   0  0  0  0  0  0  0  0  0  0  0  0
   58.5390   33.4210   44.1370 C   0  0  0  0  0  0  0  0  0  0  0  0
   58.8120   34.5310   44.9440 C   0  0  0  0  0  0  0  0  0  0  0  0
   58.4100   34.5390   46.2840 C   0  0  0  0  0  0  0  0  0  0  0  0
   57.7370   33.4370   46.8200 C   0  0  0  0  0  0  0  0  0  0  0  0
   57.4640   32.3240   46.0180 C   0  0  0  0  0  0  0  0  0  0  0  0
   61.9920   31.6520   47.9570 N   0  0  0  0  0  0  0  0  0  0  0  0
   63.2260   32.1740   47.3540 C   0  0  0  0  0  0  0  0  0  0  0  0
   64.0580   32.9290   48.3900 C   0  0  0  0  0  0  0  0  0  0  0  0
   64.1920   32.1240   49.6070 N   0  0  0  0  0  0  0  0  0  0  0  0
   65.4370   32.1100   50.3300 C   0  0  0  0  0  0  0  0  0  0  0  0
   65.7580   31.0450   51.1890 C   0  0  0  0  0  0  0  0  0  0  0  0
   66.9650   31.0440   51.8930 C   0  0  0  0  0  0  0  0  0  0  0  0
   67.8650   32.1030   51.7420 C   0  0  0  0  0  0  0  0  0  0  0  0
   67.5580   33.1630   50.8850 C   0  0  0  0  0  0  0  0  0  0  0  0
   66.3490   33.1700   50.1820 C   0  0  0  0  0  0  0  0  0  0  0  0
   62.9570   31.6470   50.2360 C   0  0  0  0  0  0  0  0  0  0  0  0
   62.0960   30.8970   49.2150 C   0  0  0  0  0  0  0  0  0  0  0  0
   60.4811   29.4997   47.7383 H   0  0  0  0  0  0  0  0  0  0  0  0
   58.9983   30.4284   47.3184 H   0  0  0  0  0  0  0  0  0  0  0  0
   58.4372   30.9500   43.1264 H   0  0  0  0  0  0  0  0  0  0  0  0
   56.6674   31.2756   43.2304 H   0  0  0  0  0  0  0  0  0  0  0  0
   58.8597   33.4159   43.0848 H   0  0  0  0  0  0  0  0  0  0  0  0
   59.3432   35.3981   44.5245 H   0  0  0  0  0  0  0  0  0  0  0  0
   58.6237   35.4132   46.9165 H   0  0  0  0  0  0  0  0  0  0  0  0
   57.4218   33.4452   47.8738 H   0  0  0  0  0  0  0  0  0  0  0  0
   56.9412   31.4555   46.4450 H   0  0  0  0  0  0  0  0  0  0  0  0
   63.8172   31.3350   46.9584 H   0  0  0  0  0  0  0  0  0  0  0  0
   62.9569   32.8677   46.5439 H   0  0  0  0  0  0  0  0  0  0  0  0
   65.0566   33.1336   47.9766 H   0  0  0  0  0  0  0  0  0  0  0  0
   63.5556   33.8760   48.6365 H   0  0  0  0  0  0  0  0  0  0  0  0
   65.0550   30.2074   51.3078 H   0  0  0  0  0  0  0  0  0  0  0  0
   67.2073   30.2090   52.5668 H   0  0  0  0  0  0  0  0  0  0  0  0
   68.8144   32.1018   52.2976 H   0  0  0  0  0  0  0  0  0  0  0  0
   68.2687   33.9937   50.7630 H   0  0  0  0  0  0  0  0  0  0  0  0
   66.1106   34.0081   49.5106 H   0  0  0  0  0  0  0  0  0  0  0  0
   63.2101   30.9694   51.0648 H   0  0  0  0  0  0  0  0  0  0  0  0
   62.3916   32.5111   50.6151 H   0  0  0  0  0  0  0  0  0  0  0  0
   62.5526   29.9175   49.0099 H   0  0  0  0  0  0  0  0  0  0  0  0
   61.0862   30.7717   49.6329 H   0  0  0  0  0  0  0  0  0  0  0  0
  1  2  2  0
  2  3  1  0
  3  4  1  0
  4  5  1  0
  5  6  2  0
  6  7  1  0
  7  8  1  0
  8  9  2  0
  8 10  1  0
 10 11  1  0
 11 12  1  0
 12 13  2  0
 13 14  1  0
 14 15  2  0
 15 16  1  0
 16 17  2  0
  2 18  1  0
 18 19  1  0
 19 20  1  0
 20 21  1  0
 21 22  1  0
 22 23  2  0
 23 24  1  0
 24 25  2  0
 25 26  1  0
 26 27  2  0
 21 28  1  0
 28 29  1  0
 10  5  1  0
 17 12  1  0
 29 18  1  0
 27 22  1  0
  3 30  1  0
  3 31  1  0
 11 32  1  0
 11 33  1  0
 13 34  1  0
 14 35  1  0
 15 36  1  0
 16 37  1  0
 17 38  1  0
 19 39  1  0
 19 40  1  0
 20 41  1  0
 20 42  1  0
 23 43  1  0
 24 44  1  0
 25 45  1  0
 26 46  1  0
 27 47  1  0
 28 48  1  0
 28 49  1  0
 29 50  1  0
 29 51  1  0
M  CHG  1   7  -1
M  END
>  <UniqueID>  (40) 
39

>  <SMILES>  (40) 
O=C(CSc1n[n-]c(=O)n1Cc1ccccc1)N1CCN(c2ccccc2)CC1

>  <Energy>  (40) 
89.81136712161472

>  <Genealogy>  (40) 
O=C(CSc1n[n-]c(=O)n1Cc1ccccc1)N1CCN(c2ccccc2)CC1 (protonated)
O=C(CSc1n[n-]c(=O)n1Cc1ccccc1)N1CCN(c2ccccc2)CC1 (3D coordinates assigned)
O=C(CSc1n[n-]c(=O)n1Cc1ccccc1)N1CCN(c2ccccc2)CC1 (nonaromatic ring conformer: 89.81136712161472 kcal/mol)

>  <smiles>  (40) 
O=C(CSc1n[nH]c(=O)n1Cc1ccccc1)N1CCN(c2ccccc2)CC1

>  <score_type>  (40) 
oracle

>  <origin>  (40) 
adg

>  <m_score__min__energy>  (40) 
-10.33

>  <m_primary>  (40) 
energy

$$$$
40:0
     RDKit          3D

 54 57  0  0  0  0  0  0  0  0999 V2000
   58.1850   22.5920   47.1560 H   0  0  0  0  0  0  0  0  0  0  0  0
   57.3200   22.4560   47.6630 O   0  0  0  0  0  0  0  0  0  0  0  0
   56.0650   22.7110   47.1050 C   0  0  0  0  0  0  0  0  0  0  0  0
   54.9460   22.4840   47.9130 C   0  0  0  0  0  0  0  0  0  0  0  0
   55.0790   22.2812   48.9859 H   0  0  0  0  0  0  0  0  0  0  0  0
   53.6640   22.5130   47.3680 C   0  0  0  0  0  0  0  0  0  0  0  0
   52.7844   22.3312   48.0030 H   0  0  0  0  0  0  0  0  0  0  0  0
   53.5110   22.7750   46.0100 C   0  0  0  0  0  0  0  0  0  0  0  0
   52.5099   22.7505   45.5549 H   0  0  0  0  0  0  0  0  0  0  0  0
   54.5970   23.0610   45.2460 N   0  0  0  0  0  0  0  0  0  0  0  0
   55.8630   23.0910   45.7470 C   0  0  0  0  0  0  0  0  0  0  0  0
   56.8130   23.4880   44.9430 N   0  0  0  0  0  0  0  0  0  0  0  0
   57.9010   24.3880   45.1950 C   0  0  0  0  0  0  0  0  0  0  0  0
   58.9920   23.9400   45.6450 O   0  0  0  0  0  0  0  0  0  0  0  0
   57.7120   25.8480   45.0270 C   0  0  0  0  0  0  0  0  0  0  0  0
   57.9820   26.4670   43.7920 C   0  0  0  0  0  0  0  0  0  0  0  0
   58.3396   25.8630   42.9451 H   0  0  0  0  0  0  0  0  0  0  0  0
   57.7990   27.8440   43.6340 C   0  0  0  0  0  0  0  0  0  0  0  0
   58.0160   28.3178   42.6653 H   0  0  0  0  0  0  0  0  0  0  0  0
   57.3410   28.6220   44.7030 C   0  0  0  0  0  0  0  0  0  0  0  0
   57.1080   30.3570   44.5110 S   0  0  0  0  0  0  0  0  0  0  0  0
   57.7680   30.8240   43.2420 O   0  0  0  0  0  0  0  0  0  0  0  0
   55.6360   30.6390   44.4270 O   0  0  0  0  0  0  0  0  0  0  0  0
   57.7690   31.1910   45.8920 N   0  0  0  0  0  0  0  0  0  0  0  0
   57.7290   32.6480   45.7300 C   0  0  1  0  0  0  0  0  0  0  0  0
   56.9400   32.8588   44.9931 H   0  0  0  0  0  0  0  0  0  0  0  0
   57.4780   33.3070   47.0860 C   0  0  0  0  0  0  0  0  0  0  0  0
   57.1173   32.5555   47.8037 H   0  0  0  0  0  0  0  0  0  0  0  0
   56.7174   34.0957   46.9890 H   0  0  0  0  0  0  0  0  0  0  0  0
   58.7450   33.8810   47.5620 N   0  0  0  0  0  0  0  0  0  0  0  0
   59.4840   32.9080   48.3970 C   0  0  0  0  0  0  0  0  0  0  0  0
   59.2271   33.0708   49.4541 H   0  0  0  0  0  0  0  0  0  0  0  0
   59.2019   31.8906   48.0881 H   0  0  0  0  0  0  0  0  0  0  0  0
   60.9710   33.0740   48.2180 C   0  0  0  0  0  0  0  0  0  0  0  0
   61.6780   32.2060   47.3710 C   0  0  0  0  0  0  0  0  0  0  0  0
   61.1434   31.4085   46.8341 H   0  0  0  0  0  0  0  0  0  0  0  0
   63.0590   32.3510   47.2070 C   0  0  0  0  0  0  0  0  0  0  0  0
   63.6075   31.6700   46.5396 H   0  0  0  0  0  0  0  0  0  0  0  0
   63.7430   33.3600   47.8900 C   0  0  0  0  0  0  0  0  0  0  0  0
   64.8295   33.4728   47.7603 H   0  0  0  0  0  0  0  0  0  0  0  0
   63.0470   34.2260   48.7380 C   0  0  0  0  0  0  0  0  0  0  0  0
   63.5869   35.0193   49.2758 H   0  0  0  0  0  0  0  0  0  0  0  0
   61.6660   34.0860   48.9040 C   0  0  0  0  0  0  0  0  0  0  0  0
   61.1217   34.7690   49.5728 H   0  0  0  0  0  0  0  0  0  0  0  0
   59.4830   34.2090   46.3330 C   0  0  0  0  0  0  0  0  0  0  0  0
   60.5655   34.1417   46.5164 H   0  0  0  0  0  0  0  0  0  0  0  0
   59.2518   35.2334   46.0056 H   0  0  0  0  0  0  0  0  0  0  0  0
   59.0740   33.2030   45.2680 C   0  0  0  0  0  0  0  0  0  0  0  0
   59.8183   32.3965   45.1943 H   0  0  0  0  0  0  0  0  0  0  0  0
   59.0054   33.6661   44.2726 H   0  0  0  0  0  0  0  0  0  0  0  0
   57.0580   28.0110   45.9310 C   0  0  0  0  0  0  0  0  0  0  0  0
   56.6866   28.6167   46.7708 H   0  0  0  0  0  0  0  0  0  0  0  0
   57.2450   26.6360   46.0950 C   0  0  0  0  0  0  0  0  0  0  0  0
   57.0257   26.1666   47.0653 H   0  0  0  0  0  0  0  0  0  0  0  0
  1  2  1  0
  2  3  1  0
  3  4  2  0
  4  5  1  0
  4  6  1  0
  6  7  1  0
  6  8  2  0
  8  9  1  0
  8 10  1  0
 10 11  1  0
 11 12  2  0
 12 13  1  0
 13 14  2  0
 13 15  1  0
 15 16  2  0
 16 17  1  0
 16 18  1  0
 18 19  1  0
 18 20  2  0
 20 21  1  0
 21 22  2  0
 21 23  2  0
 21 24  1  0
 24 25  1  0
 25 26  1  6
 25 27  1  0
 27 28  1  0
 27 29  1  0
 27 30  1  0
 30 31  1  0
 31 32  1  0
 31 33  1  0
 31 34  1  0
 34 35  2  0
 35 36  1  0
 35 37  1  0
 37 38  1  0
 37 39  2  0
 39 40  1  0
 39 41  1  0
 41 42  1  0
 41 43  2  0
 43 44  1  0
 30 45  1  0
 45 46  1  0
 45 47  1  0
 45 48  1  0
 48 49  1  0
 48 50  1  0
 20 51  1  0
 51 52  1  0
 51 53  2  0
 53 54  1  0
 11  3  1  0
 53 15  1  0
 48 25  1  0
 43 34  1  0
M  CHG  2  10  -1  24  -1
M  END
>  <UniqueID>  (41) 
40

>  <SMILES>  (41) 
O=C(/N=c1/[n-]cccc1O)c1ccc(S(=O)(=O)[N-][C@@H]2CCN(Cc3ccccc3)C2)cc1

>  <Energy>  (41) 
78.7978539837638

>  <Genealogy>  (41) 
O=C(N=c1[n-]cccc1O)c1ccc(S(=O)(=O)[N-]C2CCN(Cc3ccccc3)C2)cc1 (protonated)
O=C(N=c1[n-]cccc1O)c1ccc(S(=O)(=O)[N-][C@@H]2CCN(Cc3ccccc3)C2)cc1 (chirality)
O=C(/N=c1/[n-]cccc1O)c1ccc(S(=O)(=O)[N-][C@@H]2CCN(Cc3ccccc3)C2)cc1 (cis-trans isomerization)
O=C(/N=c1/[n-]cccc1O)c1ccc(S(=O)(=O)[N-][C@@H]2CCN(Cc3ccccc3)C2)cc1 (3D coordinates assigned)
O=C(/N=c1/[n-]cccc1O)c1ccc(S(=O)(=O)[N-][C@@H]2CCN(Cc3ccccc3)C2)cc1 (nonaromatic ring conformer: 78.7978539837638 kcal/mol)

>  <smiles>  (41) 
O=C(N=c1[nH]cccc1O)c1ccc(S(=O)(=O)NC2CCN(Cc3ccccc3)C2)cc1

>  <score_type>  (41) 
oracle

>  <origin>  (41) 
adg

>  <m_score__min__energy>  (41) 
-13.1

>  <m_primary>  (41) 
energy

$$$$
41:0
     RDKit          3D

 42 45  0  0  0  0  0  0  0  0999 V2000
   56.0320   28.5870   44.4180 H   0  0  0  0  0  0  0  0  0  0  0  0
   56.0040   28.0990   45.3050 O   0  0  0  0  0  0  0  0  0  0  0  0
   57.0900   27.3550   45.7610 C   0  0  0  0  0  0  0  0  0  0  0  0
   57.1010   25.9670   45.5830 C   0  0  0  0  0  0  0  0  0  0  0  0
   56.2580   25.4722   45.0784 H   0  0  0  0  0  0  0  0  0  0  0  0
   58.1790   25.2080   46.0440 C   0  0  0  0  0  0  0  0  0  0  0  0
   58.1816   24.1168   45.9050 H   0  0  0  0  0  0  0  0  0  0  0  0
   59.2550   25.8330   46.6820 C   0  0  0  0  0  0  0  0  0  0  0  0
   60.0981   25.2307   47.0513 H   0  0  0  0  0  0  0  0  0  0  0  0
   59.2630   27.2280   46.8530 C   0  0  0  0  0  0  0  0  0  0  0  0
   60.3910   27.8960   47.5920 C   0  0  0  0  0  0  0  0  0  0  0  0
   60.6545   28.8352   47.0836 H   0  0  0  0  0  0  0  0  0  0  0  0
   61.2621   27.2245   47.6072 H   0  0  0  0  0  0  0  0  0  0  0  0
   59.9730   28.1930   48.9980 C   0  0  0  0  0  0  0  0  0  0  0  0
   60.4000   27.4760   49.9420 O   0  0  0  0  0  0  0  0  0  0  0  0
   59.0690   29.2800   49.2380 N   0  0  0  0  0  0  0  0  0  0  0  0
   59.3530   30.5460   49.1690 C   0  0  0  0  0  0  0  0  0  0  0  0
   58.5160   31.5410   49.5440 N   0  0  0  0  0  0  0  0  0  0  0  0
   59.0170   32.7530   49.3090 N   0  0  0  0  0  0  0  0  0  0  0  0
   60.2450   32.7170   48.7470 C   0  0  0  0  0  0  0  0  0  0  0  0
   61.1340   34.1700   48.1950 S   0  0  0  0  0  0  0  0  0  0  0  0
   59.7430   34.8760   47.2350 C   0  0  0  0  0  0  0  0  0  0  0  0
   59.0747   35.4138   47.9235 H   0  0  0  0  0  0  0  0  0  0  0  0
   60.1654   35.5516   46.4766 H   0  0  0  0  0  0  0  0  0  0  0  0
   58.9490   33.8160   46.5180 C   0  0  0  0  0  0  0  0  0  0  0  0
   59.5940   32.6890   45.9820 C   0  0  0  0  0  0  0  0  0  0  0  0
   60.6753   32.5551   46.1334 H   0  0  0  0  0  0  0  0  0  0  0  0
   58.8720   31.7370   45.2580 C   0  0  0  0  0  0  0  0  0  0  0  0
   59.3880   30.8593   44.8416 H   0  0  0  0  0  0  0  0  0  0  0  0
   57.4900   31.8950   45.0590 C   0  0  0  0  0  0  0  0  0  0  0  0
   56.7290   30.8900   44.2880 C   0  0  0  0  0  0  0  0  0  0  0  0
   57.2620   30.0840   43.3510 N   0  0  0  0  0  0  0  0  0  0  0  0
   56.2490   29.3490   42.9230 N   0  0  0  0  0  0  0  0  0  0  0  0
   55.1450   29.6890   43.5670 N   0  0  0  0  0  0  0  0  0  0  0  0
   55.4110   30.6540   44.4330 N   0  0  0  0  0  0  0  0  0  0  0  0
   56.8450   33.0190   45.6000 C   0  0  0  0  0  0  0  0  0  0  0  0
   55.7632   33.1517   45.4517 H   0  0  0  0  0  0  0  0  0  0  0  0
   57.5680   33.9710   46.3260 C   0  0  0  0  0  0  0  0  0  0  0  0
   57.0513   34.8454   46.7484 H   0  0  0  0  0  0  0  0  0  0  0  0
   60.7840   31.1360   48.5190 S   0  0  0  0  0  0  0  0  0  0  0  0
   58.1700   27.9840   46.3970 C   0  0  0  0  0  0  0  0  0  0  0  0
   58.1614   29.0747   46.5396 H   0  0  0  0  0  0  0  0  0  0  0  0
  1  2  1  0
  2  3  1  0
  3  4  2  0
  4  5  1  0
  4  6  1  0
  6  7  1  0
  6  8  2  0
  8  9  1  0
  8 10  1  0
 10 11  1  0
 11 12  1  0
 11 13  1  0
 11 14  1  0
 14 15  2  0
 14 16  1  0
 16 17  2  0
 17 18  1  0
 18 19  1  0
 19 20  2  0
 20 21  1  0
 21 22  1  0
 22 23  1  0
 22 24  1  0
 22 25  1  0
 25 26  2  0
 26 27  1  0
 26 28  1  0
 28 29  1  0
 28 30  2  0
 30 31  1  0
 31 32  1  0
 32 33  2  0
 33 34  1  0
 34 35  1  0
 30 36  1  0
 36 37  1  0
 36 38  2  0
 38 39  1  0
 20 40  1  0
 10 41  2  0
 41 42  1  0
 41  3  1  0
 40 17  1  0
 38 25  1  0
 35 31  2  0
M  CHG  2  18  -1  34  -1
M  END
>  <UniqueID>  (42) 
41

>  <SMILES>  (42) 
O=C(Cc1cccc(O)c1)/N=c1\[n-]nc(SCc2ccc(-c3nn[n-]n3)cc2)s1

>  <Energy>  (42) 
113.02493109581273

>  <Genealogy>  (42) 
O=C(Cc1cccc(O)c1)N=c1[n-]nc(SCc2ccc(-c3nn[n-]n3)cc2)s1 (protonated)
O=C(Cc1cccc(O)c1)/N=c1\[n-]nc(SCc2ccc(-c3nn[n-]n3)cc2)s1 (cis-trans isomerization)
O=C(Cc1cccc(O)c1)/N=c1\[n-]nc(SCc2ccc(-c3nn[n-]n3)cc2)s1 (3D coordinates assigned)
O=C(Cc1cccc(O)c1)/N=c1\[n-]nc(SCc2ccc(-c3nn[n-]n3)cc2)s1 (optimized conformer: 113.02493109581273 kcal/mol)

>  <smiles>  (42) 
O=C(Cc1cccc(O)c1)N=c1[nH]nc(SCc2ccc(-c3nn[nH]n3)cc2)s1

>  <score_type>  (42) 
oracle

>  <origin>  (42) 
adg

>  <m_score__min__energy>  (42) 
-12.359999999999999

>  <m_primary>  (42) 
energy

$$$$
42:0
     RDKit          3D

 49 52  0  0  0  0  0  0  0  0999 V2000
   61.3500   33.7600   49.5810 O   0  0  0  0  0  0  0  0  0  0  0  0
   60.1000   33.9070   49.5440 C   0  0  0  0  0  0  0  0  0  0  0  0
   59.5270   34.6360   48.4470 N   0  0  0  0  0  0  0  0  0  0  0  0
   59.1880   34.1600   47.2800 C   0  0  0  0  0  0  0  0  0  0  0  0
   58.6660   32.8610   47.1150 C   0  0  0  0  0  0  0  0  0  0  0  0
   58.3160   32.4060   45.8330 C   0  0  0  0  0  0  0  0  0  0  0  0
   57.7510   31.0490   45.6370 C   0  0  0  0  0  0  0  0  0  0  0  0
   56.8020   30.8940   44.8200 O   0  0  0  0  0  0  0  0  0  0  0  0
   58.2630   29.8690   46.3720 C   0  0  0  0  0  0  0  0  0  0  0  0
   59.0760   30.0260   47.5080 C   0  0  0  0  0  0  0  0  0  0  0  0
   59.5850   28.9090   48.1700 C   0  0  0  0  0  0  0  0  0  0  0  0
   59.2830   27.6240   47.7160 C   0  0  0  0  0  0  0  0  0  0  0  0
   58.4640   27.4430   46.5930 C   0  0  0  0  0  0  0  0  0  0  0  0
   58.1860   26.1100   46.1300 N   0  0  0  0  0  0  0  0  0  0  0  0
   56.8630   25.6290   45.8330 C   0  0  0  0  0  0  0  0  0  0  0  0
   55.8620   26.2030   46.3420 O   0  0  0  0  0  0  0  0  0  0  0  0
   56.6630   24.4360   44.9750 C   0  0  0  0  0  0  0  0  0  0  0  0
   57.7550   23.6310   44.6080 C   0  0  0  0  0  0  0  0  0  0  0  0
   57.5600   22.5040   43.8060 C   0  0  0  0  0  0  0  0  0  0  0  0
   56.2700   22.1830   43.3800 C   0  0  0  0  0  0  0  0  0  0  0  0
   56.0760   21.1720   42.6560 O   0  0  0  0  0  0  0  0  0  0  0  0
   55.2190   22.9610   43.7500 N   0  0  0  0  0  0  0  0  0  0  0  0
   55.3820   24.0640   44.5280 C   0  0  0  0  0  0  0  0  0  0  0  0
   57.9780   28.5720   45.9080 C   0  0  0  0  0  0  0  0  0  0  0  0
   58.4600   33.2740   44.7420 C   0  0  0  0  0  0  0  0  0  0  0  0
   58.9660   34.5580   44.9440 C   0  0  0  0  0  0  0  0  0  0  0  0
   59.3120   34.9660   46.1920 N   0  0  0  0  0  0  0  0  0  0  0  0
   59.2550   33.2650   50.5810 C   0  0  0  0  0  0  0  0  0  0  0  0
   58.9740   33.9270   51.7910 C   0  0  0  0  0  0  0  0  0  0  0  0
   58.1690   33.3200   52.7580 C   0  0  0  0  0  0  0  0  0  0  0  0
   57.6380   32.0480   52.5320 C   0  0  0  0  0  0  0  0  0  0  0  0
   57.9120   31.3800   51.3360 C   0  0  0  0  0  0  0  0  0  0  0  0
   57.3880   30.1130   51.1140 O   0  0  0  0  0  0  0  0  0  0  0  0
   58.7120   31.9870   50.3610 C   0  0  0  0  0  0  0  0  0  0  0  0
   58.5331   32.2052   47.9881 H   0  0  0  0  0  0  0  0  0  0  0  0
   59.3119   31.0351   47.8767 H   0  0  0  0  0  0  0  0  0  0  0  0
   60.2270   29.0411   49.0534 H   0  0  0  0  0  0  0  0  0  0  0  0
   59.6902   26.7483   48.2426 H   0  0  0  0  0  0  0  0  0  0  0  0
   58.9720   25.4210   46.1230 H   0  0  0  0  0  0  0  0  0  0  0  0
   58.7669   23.8893   44.9535 H   0  0  0  0  0  0  0  0  0  0  0  0
   58.4142   21.8759   43.5131 H   0  0  0  0  0  0  0  0  0  0  0  0
   54.5074   24.6689   44.8095 H   0  0  0  0  0  0  0  0  0  0  0  0
   57.3696   28.4391   45.0013 H   0  0  0  0  0  0  0  0  0  0  0  0
   58.1755   32.9444   43.7319 H   0  0  0  0  0  0  0  0  0  0  0  0
   59.0850   35.2416   44.0904 H   0  0  0  0  0  0  0  0  0  0  0  0
   59.3907   34.9280   51.9762 H   0  0  0  0  0  0  0  0  0  0  0  0
   57.9527   33.8452   53.7000 H   0  0  0  0  0  0  0  0  0  0  0  0
   57.0045   31.5725   53.2953 H   0  0  0  0  0  0  0  0  0  0  0  0
   58.9171   31.4610   49.4170 H   0  0  0  0  0  0  0  0  0  0  0  0
  1  2  2  0
  2  3  1  0
  3  4  2  3
  4  5  1  0
  5  6  2  0
  6  7  1  0
  7  8  2  0
  7  9  1  0
  9 10  2  0
 10 11  1  0
 11 12  2  0
 12 13  1  0
 13 14  1  0
 14 15  1  0
 15 16  2  0
 15 17  1  0
 17 18  1  0
 18 19  2  0
 19 20  1  0
 20 21  2  0
 20 22  1  0
 22 23  1  0
 13 24  2  0
  6 25  1  0
 25 26  2  0
 26 27  1  0
  2 28  1  0
 28 29  2  0
 29 30  1  0
 30 31  2  0
 31 32  1  0
 32 33  1  0
 32 34  2  0
 27  4  1  0
 34 28  1  0
 24  9  1  0
 23 17  2  0
  5 35  1  0
 10 36  1  0
 11 37  1  0
 12 38  1  0
 14 39  1  0
 18 40  1  0
 19 41  1  0
 23 42  1  0
 24 43  1  0
 25 44  1  0
 26 45  1  0
 29 46  1  0
 30 47  1  0
 31 48  1  0
 34 49  1  0
M  CHG  3  22  -1  27  -1  33  -1
M  END
>  <UniqueID>  (43) 
42

>  <SMILES>  (43) 
O=C(N=c1cc(C(=O)c2cccc(NC(=O)c3ccc(=O)[n-]c3)c2)cc[n-]1)c1cccc([O-])c1

>  <Energy>  (43) 
75.42372430592191

>  <Genealogy>  (43) 
O=C(N=c1cc(C(=O)c2cccc(NC(=O)c3ccc(=O)[n-]c3)c2)cc[n-]1)c1cccc([O-])c1 (protonated)
O=C(N=c1cc(C(=O)c2cccc(NC(=O)c3ccc(=O)[n-]c3)c2)cc[n-]1)c1cccc([O-])c1 (3D coordinates assigned)
O=C(N=c1cc(C(=O)c2cccc(NC(=O)c3ccc(=O)[n-]c3)c2)cc[n-]1)c1cccc([O-])c1 (optimized conformer: 75.42372430592191 kcal/mol)

>  <smiles>  (43) 
O=C(N=c1cc(C(=O)c2cccc(NC(=O)c3ccc(=O)[nH]c3)c2)cc[nH]1)c1cccc(O)c1

>  <score_type>  (43) 
oracle

>  <origin>  (43) 
adg

>  <m_score__min__energy>  (43) 
-16.760000000000002

>  <m_primary>  (43) 
energy

$$$$
43:0
     RDKit          3D

 50 52  0  0  0  0  0  0  0  0999 V2000
   57.2300   25.7290   46.0880 H   0  0  0  0  0  0  0  0  0  0  0  0
   56.7180   26.5700   46.3240 O   0  0  0  0  0  0  0  0  0  0  0  0
   56.9930   27.8120   45.7490 C   0  0  0  0  0  0  0  0  0  0  0  0
   55.9660   28.5270   45.2330 N   0  0  0  0  0  0  0  0  0  0  0  0
   56.1520   29.7450   44.6660 C   0  0  0  0  0  0  0  0  0  0  0  0
   55.1510   30.3660   44.2180 O   0  0  0  0  0  0  0  0  0  0  0  0
   57.4110   30.2870   44.5870 N   0  0  0  0  0  0  0  0  0  0  0  0
   57.6180   31.6210   43.9850 C   0  0  0  0  0  0  0  0  0  0  0  0
   58.6976   31.8001   43.8733 H   0  0  0  0  0  0  0  0  0  0  0  0
   57.1167   31.6417   43.0061 H   0  0  0  0  0  0  0  0  0  0  0  0
   57.0150   32.7290   44.8620 C   0  0  0  0  0  0  0  0  0  0  0  0
   56.5770   33.5004   44.2115 H   0  0  0  0  0  0  0  0  0  0  0  0
   56.2475   32.2771   45.5076 H   0  0  0  0  0  0  0  0  0  0  0  0
   58.0560   33.3670   45.7440 C   0  0  0  0  0  0  0  0  0  0  0  0
   59.0640   34.1690   45.1840 C   0  0  0  0  0  0  0  0  0  0  0  0
   59.1099   34.3111   44.0942 H   0  0  0  0  0  0  0  0  0  0  0  0
   60.0090   34.7870   46.0080 C   0  0  0  0  0  0  0  0  0  0  0  0
   60.8010   35.4088   45.5651 H   0  0  0  0  0  0  0  0  0  0  0  0
   59.9490   34.6160   47.3940 C   0  0  0  0  0  0  0  0  0  0  0  0
   60.6959   35.1004   48.0402 H   0  0  0  0  0  0  0  0  0  0  0  0
   58.9420   33.8310   47.9590 C   0  0  0  0  0  0  0  0  0  0  0  0
   58.8933   33.7001   49.0501 H   0  0  0  0  0  0  0  0  0  0  0  0
   57.9950   33.2110   47.1370 C   0  0  0  0  0  0  0  0  0  0  0  0
   57.1988   32.5983   47.5849 H   0  0  0  0  0  0  0  0  0  0  0  0
   58.4810   29.5930   45.0950 C   0  0  0  0  0  0  0  0  0  0  0  0
   59.6470   30.0670   44.9960 O   0  0  0  0  0  0  0  0  0  0  0  0
   58.2930   28.3400   45.7100 C   0  0  0  0  0  0  0  0  0  0  0  0
   59.4400   27.5720   46.2510 C   0  0  0  0  0  0  0  0  0  0  0  0
   59.5911   26.5449   45.8874 H   0  0  0  0  0  0  0  0  0  0  0  0
   60.3050   28.0530   47.1570 C   0  0  0  0  0  0  0  0  0  0  0  0
   61.3156   27.6198   47.1873 H   0  0  0  0  0  0  0  0  0  0  0  0
   59.9820   29.1300   48.1170 C   0  0  0  0  0  0  0  0  0  0  0  0
   58.8840   28.9650   48.9710 C   0  0  0  0  0  0  0  0  0  0  0  0
   58.2714   28.0538   48.9035 H   0  0  0  0  0  0  0  0  0  0  0  0
   58.5620   29.9490   49.9070 C   0  0  0  0  0  0  0  0  0  0  0  0
   57.7105   29.7994   50.5872 H   0  0  0  0  0  0  0  0  0  0  0  0
   59.3200   31.1300   49.9850 C   0  0  0  0  0  0  0  0  0  0  0  0
   59.0440   32.1410   50.9170 O   0  0  0  0  0  0  0  0  0  0  0  0
   57.8210   32.2590   51.6380 C   0  0  0  0  0  0  0  0  0  0  0  0
   58.0287   32.2390   52.7180 H   0  0  0  0  0  0  0  0  0  0  0  0
   57.3312   33.2086   51.3763 H   0  0  0  0  0  0  0  0  0  0  0  0
   57.1587   31.4206   51.3763 H   0  0  0  0  0  0  0  0  0  0  0  0
   60.3910   31.3140   49.1030 C   0  0  0  0  0  0  0  0  0  0  0  0
   60.9759   32.2446   49.1467 H   0  0  0  0  0  0  0  0  0  0  0  0
   60.7300   30.3250   48.1610 C   0  0  0  0  0  0  0  0  0  0  0  0
   61.7840   30.5010   47.2500 O   0  0  0  0  0  0  0  0  0  0  0  0
   62.7100   31.5820   47.2810 C   0  0  0  0  0  0  0  0  0  0  0  0
   62.9338   31.8433   48.3258 H   0  0  0  0  0  0  0  0  0  0  0  0
   63.6379   31.2847   46.7706 H   0  0  0  0  0  0  0  0  0  0  0  0
   62.2737   32.4533   46.7706 H   0  0  0  0  0  0  0  0  0  0  0  0
  1  2  1  0
  2  3  1  0
  3  4  1  0
  4  5  1  0
  5  6  2  0
  5  7  1  0
  7  8  1  0
  8  9  1  0
  8 10  1  0
  8 11  1  0
 11 12  1  0
 11 13  1  0
 11 14  1  0
 14 15  2  0
 15 16  1  0
 15 17  1  0
 17 18  1  0
 17 19  2  0
 19 20  1  0
 19 21  1  0
 21 22  1  0
 21 23  2  0
 23 24  1  0
  7 25  1  0
 25 26  2  0
 25 27  1  0
 27 28  1  0
 28 29  1  0
 28 30  2  0
 30 31  1  0
 30 32  1  0
 32 33  2  0
 33 34  1  0
 33 35  1  0
 35 36  1  0
 35 37  2  0
 37 38  1  0
 38 39  1  0
 39 40  1  0
 39 41  1  0
 39 42  1  0
 37 43  1  0
 43 44  1  0
 43 45  2  0
 45 46  1  0
 46 47  1  0
 47 48  1  0
 47 49  1  0
 47 50  1  0
 27  3  2  0
 45 32  1  0
 23 14  1  0
M  CHG  1   4  -1
M  END
>  <UniqueID>  (44) 
43

>  <SMILES>  (44) 
COc1ccc(/C=C\c2c(O)[n-]c(=O)n(CCc3ccccc3)c2=O)c(OC)c1

>  <Energy>  (44) 
61.98716321452619

>  <Genealogy>  (44) 
COc1ccc(C=Cc2c(O)[n-]c(=O)n(CCc3ccccc3)c2=O)c(OC)c1 (protonated)
COc1ccc(/C=C\c2c(O)[n-]c(=O)n(CCc3ccccc3)c2=O)c(OC)c1 (cis-trans isomerization)
COc1ccc(/C=C\c2c(O)[n-]c(=O)n(CCc3ccccc3)c2=O)c(OC)c1 (3D coordinates assigned)
COc1ccc(/C=C\c2c(O)[n-]c(=O)n(CCc3ccccc3)c2=O)c(OC)c1 (optimized conformer: 61.98716321452619 kcal/mol)

>  <smiles>  (44) 
COc1ccc(C=Cc2c(O)[nH]c(=O)n(CCc3ccccc3)c2=O)c(OC)c1

>  <score_type>  (44) 
oracle

>  <origin>  (44) 
adg

>  <m_score__min__energy>  (44) 
-10.710000000000001

>  <m_primary>  (44) 
energy

$$$$
44:0
     RDKit          3D

 40 42  0  0  0  0  0  0  0  0999 V2000
   59.5599   35.2246   44.1154 H   0  0  0  0  0  0  0  0  0  0  0  0
   58.9930   34.3830   44.5400 C   0  0  0  0  0  0  0  0  0  0  0  0
   58.4950   33.4190   43.7250 N   0  0  0  0  0  0  0  0  0  0  0  0
   57.7910   32.3670   44.2260 C   0  0  0  0  0  0  0  0  0  0  0  0
   57.3260   31.4410   43.4460 N   0  0  0  0  0  0  0  0  0  0  0  0
   56.9800   29.8210   43.9680 S   0  0  0  0  0  0  0  0  0  0  0  0
   56.7320   28.9630   42.7580 O   0  0  0  0  0  0  0  0  0  0  0  0
   55.7460   29.8340   44.8240 O   0  0  0  0  0  0  0  0  0  0  0  0
   58.3250   29.1820   44.9090 C   0  0  0  0  0  0  0  0  0  0  0  0
   59.2970   30.0480   45.4230 C   0  0  0  0  0  0  0  0  0  0  0  0
   59.2226   31.1297   45.2375 H   0  0  0  0  0  0  0  0  0  0  0  0
   60.3610   29.5400   46.1710 C   0  0  0  0  0  0  0  0  0  0  0  0
   61.1236   30.2233   46.5730 H   0  0  0  0  0  0  0  0  0  0  0  0
   60.4610   28.1670   46.4110 C   0  0  0  0  0  0  0  0  0  0  0  0
   61.3019   27.7749   47.0019 H   0  0  0  0  0  0  0  0  0  0  0  0
   59.4920   27.2830   45.9010 C   0  0  0  0  0  0  0  0  0  0  0  0
   59.5960   25.8280   46.1530 C   0  0  0  0  0  0  0  0  0  0  0  0
   60.7040   25.2410   46.0150 O   0  0  0  0  0  0  0  0  0  0  0  0
   58.4700   25.1040   46.6610 N   0  0  0  0  0  0  0  0  0  0  0  0
   57.2490   25.0700   46.2010 C   0  0  0  0  0  0  0  0  0  0  0  0
   56.3450   26.0020   46.5710 N   0  0  0  0  0  0  0  0  0  0  0  0
   55.2370   25.6510   45.8950 C   0  0  0  0  0  0  0  0  0  0  0  0
   54.0340   26.3390   45.9740 O   0  0  0  0  0  0  0  0  0  0  0  0
   55.4670   24.5400   45.1240 C   0  0  0  0  0  0  0  0  0  0  0  0
   54.7337   24.0378   44.4759 H   0  0  0  0  0  0  0  0  0  0  0  0
   56.7500   24.1740   45.3020 N   0  0  0  0  0  0  0  0  0  0  0  0
   57.4090   23.1030   44.5540 C   0  0  0  0  0  0  0  0  0  0  0  0
   57.8520   22.3831   45.2579 H   0  0  0  0  0  0  0  0  0  0  0  0
   56.6703   22.5897   43.9209 H   0  0  0  0  0  0  0  0  0  0  0  0
   58.2002   23.5311   43.9209 H   0  0  0  0  0  0  0  0  0  0  0  0
   58.4290   27.8030   45.1410 C   0  0  0  0  0  0  0  0  0  0  0  0
   57.6723   27.1217   44.7248 H   0  0  0  0  0  0  0  0  0  0  0  0
   57.5790   32.2780   45.5670 N   0  0  0  0  0  0  0  0  0  0  0  0
   58.0560   33.2240   46.4210 C   0  0  0  0  0  0  0  0  0  0  0  0
   57.8160   33.0900   47.8910 C   0  0  0  0  0  0  0  0  0  0  0  0
   58.6472   33.5541   48.4420 H   0  0  0  0  0  0  0  0  0  0  0  0
   56.8743   33.5929   48.1561 H   0  0  0  0  0  0  0  0  0  0  0  0
   57.7500   32.0245   48.1561 H   0  0  0  0  0  0  0  0  0  0  0  0
   58.7850   34.3050   45.9160 C   0  0  0  0  0  0  0  0  0  0  0  0
   59.1855   35.0768   46.5897 H   0  0  0  0  0  0  0  0  0  0  0  0
  1  2  1  0
  2  3  1  0
  3  4  1  0
  4  5  2  0
  5  6  1  0
  6  7  2  0
  6  8  2  0
  6  9  1  0
  9 10  2  0
 10 11  1  0
 10 12  1  0
 12 13  1  0
 12 14  2  0
 14 15  1  0
 14 16  1  0
 16 17  1  0
 17 18  2  0
 17 19  1  0
 19 20  2  3
 20 21  1  0
 21 22  1  0
 22 23  1  0
 22 24  2  0
 24 25  1  0
 24 26  1  0
 26 27  1  0
 27 28  1  0
 27 29  1  0
 27 30  1  0
 16 31  2  0
 31 32  1  0
  4 33  1  0
 33 34  2  0
 34 35  1  0
 35 36  1  0
 35 37  1  0
 35 38  1  0
 34 39  1  0
 39 40  1  0
 39  2  2  0
 31  9  1  0
 26 20  1  0
M  CHG  3   3  -1  21  -1  23  -1
M  END
>  <UniqueID>  (45) 
44

>  <SMILES>  (45) 
Cc1cc[n-]/c(=N\S(=O)(=O)c2cccc(C(=O)N=c3[n-]c([O-])cn3C)c2)n1

>  <Energy>  (45) 
87.71342500590953

>  <Genealogy>  (45) 
Cc1cc[n-]c(=NS(=O)(=O)c2cccc(C(=O)N=c3[n-]c([O-])cn3C)c2)n1 (protonated)
Cc1cc[n-]/c(=N\S(=O)(=O)c2cccc(C(=O)N=c3[n-]c([O-])cn3C)c2)n1 (cis-trans isomerization)
Cc1cc[n-]/c(=N\S(=O)(=O)c2cccc(C(=O)N=c3[n-]c([O-])cn3C)c2)n1 (3D coordinates assigned)
Cc1cc[n-]/c(=N\S(=O)(=O)c2cccc(C(=O)N=c3[n-]c([O-])cn3C)c2)n1 (optimized conformer: 87.71342500590953 kcal/mol)

>  <smiles>  (45) 
Cc1cc[nH]c(=NS(=O)(=O)c2cccc(C(=O)N=c3[nH]c(O)cn3C)c2)n1

>  <score_type>  (45) 
oracle

>  <origin>  (45) 
adg

>  <m_score__min__energy>  (45) 
-15.52

>  <m_primary>  (45) 
energy

$$$$
45:0
     RDKit          3D

 32 34  0  0  1  0  0  0  0  0999 V2000
   55.1450   29.7010   43.4020 N   0  0  0  0  0  0  0  0  0  0  0  0
   56.2330   29.8540   44.1040 C   0  0  0  0  0  0  0  0  0  0  0  0
   56.5530   31.0940   44.5300 N   0  0  0  0  0  0  0  0  0  0  0  0
   57.6710   31.2400   45.2500 C   0  0  0  0  0  0  0  0  0  0  0  0
   58.0570   32.4730   45.7140 C   0  0  0  0  0  0  0  0  0  0  0  0
   59.2110   32.6220   46.4570 C   0  0  0  0  0  0  0  0  0  0  0  0
   59.7410   34.1810   47.0720 S   0  0  0  0  0  0  0  0  0  0  0  0
   60.6600   34.7460   46.0270 O   0  0  0  0  0  0  0  0  0  0  0  0
   58.5470   35.0420   47.3030 O   0  0  0  0  0  0  0  0  0  0  0  0
   60.5310   33.8940   48.5680 N   0  0  0  0  0  0  0  0  0  0  0  0
   61.7870   33.6310   48.5880 C   0  0  0  0  0  0  0  0  0  0  0  0
   62.4940   33.3680   47.4740 N   0  0  0  0  0  0  0  0  0  0  0  0
   63.8110   33.1030   47.5910 C   0  0  0  0  0  0  0  0  0  0  0  0
   64.4600   33.0930   48.8200 C   0  0  0  0  0  0  0  0  0  0  0  0
   63.7530   33.3590   49.9760 C   0  0  0  0  0  0  0  0  0  0  0  0
   62.3890   33.6340   49.8510 C   0  0  0  0  0  0  0  0  0  0  0  0
   61.6410   33.9060   50.9720 F   0  0  0  0  0  0  0  0  0  0  0  0
   60.0170   31.5190   46.7540 C   0  0  0  0  0  0  0  0  0  0  0  0
   59.6350   30.2740   46.2890 C   0  0  0  0  0  0  0  0  0  0  0  0
   58.4650   30.1500   45.5420 C   0  0  0  0  0  0  0  0  0  0  0  0
   58.1210   28.8890   45.0970 C   0  0  0  0  0  0  0  0  0  0  0  0
   59.1360   27.5320   45.4780 Cl  0  0  0  0  0  0  0  0  0  0  0  0
   56.9770   28.7780   44.3680 N   0  0  0  0  0  0  0  0  0  0  0  0
   55.1230   29.2080   42.4910 H   0  0  0  0  0  0  0  0  0  0  0  0
   57.4382   33.3546   45.4907 H   0  0  0  0  0  0  0  0  0  0  0  0
   61.9900   33.3810   46.5550 H   0  0  0  0  0  0  0  0  0  0  0  0
   64.3919   32.8872   46.6821 H   0  0  0  0  0  0  0  0  0  0  0  0
   65.5366   32.8732   48.8718 H   0  0  0  0  0  0  0  0  0  0  0  0
   64.2458   33.3545   50.9594 H   0  0  0  0  0  0  0  0  0  0  0  0
   60.9365   31.6391   47.3457 H   0  0  0  0  0  0  0  0  0  0  0  0
   60.2499   29.3883   46.5070 H   0  0  0  0  0  0  0  0  0  0  0  0
   56.7510   27.8090   44.0510 H   0  0  0  0  0  0  0  0  0  0  0  0
  1  2  2  3
  2  3  1  0
  3  4  2  0
  4  5  1  0
  5  6  2  0
  6  7  1  0
  7  8  2  0
  7  9  2  0
  7 10  1  0
 10 11  2  0
 11 12  1  0
 12 13  1  0
 13 14  2  0
 14 15  1  0
 15 16  2  0
 16 17  1  0
  6 18  1  0
 18 19  2  0
 19 20  1  0
 20 21  2  0
 21 22  1  0
 21 23  1  0
 23  2  1  0
 20  4  1  0
 16 11  1  0
  1 24  1  0
  5 25  1  0
 12 26  1  0
 13 27  1  0
 14 28  1  0
 15 29  1  0
 18 30  1  0
 19 31  1  0
 23 32  1  0
M  END
>  <smiles>  (46) 
N=c1nc2cc(S(=O)(=O)N=c3[nH]cccc3F)ccc2c(Cl)[nH]1

>  <score_type>  (46) 
oracle

>  <origin>  (46) 
adg

>  <m_score__min__energy>  (46) 
-8.5099999999999998

>  <m_primary>  (46) 
energy

$$$$
46:0
     RDKit          3D

 45 47  0  0  0  0  0  0  0  0999 V2000
   59.7500   29.8770   49.1300 C   0  0  0  0  0  0  0  0  0  0  0  0
   60.2020   31.1440   48.6570 O   0  0  0  0  0  0  0  0  0  0  0  0
   59.5710   31.8830   47.6440 C   0  0  0  0  0  0  0  0  0  0  0  0
   60.0990   33.1370   47.3010 C   0  0  0  0  0  0  0  0  0  0  0  0
   59.4960   33.9150   46.3110 C   0  0  0  0  0  0  0  0  0  0  0  0
   58.3580   33.4510   45.6350 C   0  0  0  0  0  0  0  0  0  0  0  0
   57.7370   34.2830   44.5490 C   0  0  0  0  0  0  0  0  0  0  0  0
   57.8370   32.1820   45.9490 C   0  0  0  0  0  0  0  0  0  0  0  0
   56.6970   31.6850   45.2290 N   0  0  0  0  0  0  0  0  0  0  0  0
   56.6190   30.1120   44.5020 S   0  0  0  0  0  0  0  0  0  0  0  0
   56.6630   30.2610   43.0040 O   0  0  0  0  0  0  0  0  0  0  0  0
   55.3370   29.4210   44.8710 O   0  0  0  0  0  0  0  0  0  0  0  0
   58.0150   29.1770   45.0330 C   0  0  0  0  0  0  0  0  0  0  0  0
   59.2700   29.4280   44.4700 C   0  0  0  0  0  0  0  0  0  0  0  0
   60.3980   28.7500   44.9450 C   0  0  0  0  0  0  0  0  0  0  0  0
   60.2770   27.8290   45.9890 C   0  0  0  0  0  0  0  0  0  0  0  0
   59.0190   27.5690   46.5680 C   0  0  0  0  0  0  0  0  0  0  0  0
   58.8980   26.6130   47.6940 C   0  0  0  0  0  0  0  0  0  0  0  0
   59.7450   26.6410   48.6290 O   0  0  0  0  0  0  0  0  0  0  0  0
   57.8260   25.6550   47.7070 N   0  0  0  0  0  0  0  0  0  0  0  0
   57.2420   25.1180   46.6740 C   0  0  0  0  0  0  0  0  0  0  0  0
   58.0100   24.4070   45.7450 C   0  0  0  0  0  0  0  0  0  0  0  0
   57.3920   23.8590   44.6170 C   0  0  0  0  0  0  0  0  0  0  0  0
   56.0190   24.0090   44.4330 C   0  0  0  0  0  0  0  0  0  0  0  0
   55.2310   23.3300   43.0160 Cl  0  0  0  0  0  0  0  0  0  0  0  0
   55.2790   24.7060   45.3890 C   0  0  0  0  0  0  0  0  0  0  0  0
   55.8990   25.2470   46.4710 N   0  0  0  0  0  0  0  0  0  0  0  0
   57.8910   28.2450   46.0750 C   0  0  0  0  0  0  0  0  0  0  0  0
   58.4360   31.4170   46.9670 C   0  0  0  0  0  0  0  0  0  0  0  0
   59.7494   29.8752   50.2300 H   0  0  0  0  0  0  0  0  0  0  0  0
   58.7301   29.6910   48.7624 H   0  0  0  0  0  0  0  0  0  0  0  0
   60.4219   29.0874   48.7624 H   0  0  0  0  0  0  0  0  0  0  0  0
   60.9960   33.5104   47.8167 H   0  0  0  0  0  0  0  0  0  0  0  0
   59.9167   34.8997   46.0591 H   0  0  0  0  0  0  0  0  0  0  0  0
   57.1370   35.0868   45.0006 H   0  0  0  0  0  0  0  0  0  0  0  0
   58.5294   34.7229   43.9256 H   0  0  0  0  0  0  0  0  0  0  0  0
   57.0899   33.6485   43.9256 H   0  0  0  0  0  0  0  0  0  0  0  0
   59.3705   30.1584   43.6537 H   0  0  0  0  0  0  0  0  0  0  0  0
   61.3832   28.9426   44.4952 H   0  0  0  0  0  0  0  0  0  0  0  0
   61.1691   27.3039   46.3610 H   0  0  0  0  0  0  0  0  0  0  0  0
   59.0915   24.2803   45.9011 H   0  0  0  0  0  0  0  0  0  0  0  0
   57.9896   23.3095   43.8748 H   0  0  0  0  0  0  0  0  0  0  0  0
   54.1916   24.8179   45.2667 H   0  0  0  0  0  0  0  0  0  0  0  0
   56.9011   28.0421   46.5096 H   0  0  0  0  0  0  0  0  0  0  0  0
   58.0075   30.4400   47.2349 H   0  0  0  0  0  0  0  0  0  0  0  0
  1  2  1  0
  2  3  1  0
  3  4  2  0
  4  5  1  0
  5  6  2  0
  6  7  1  0
  6  8  1  0
  8  9  1  0
  9 10  1  0
 10 11  2  0
 10 12  2  0
 10 13  1  0
 13 14  2  0
 14 15  1  0
 15 16  2  0
 16 17  1  0
 17 18  1  0
 18 19  2  0
 18 20  1  0
 20 21  2  3
 21 22  1  0
 22 23  2  0
 23 24  1  0
 24 25  1  0
 24 26  2  0
 26 27  1  0
 17 28  2  0
  8 29  2  0
 29  3  1  0
 28 13  1  0
 27 21  1  0
  1 30  1  0
  1 31  1  0
  1 32  1  0
  4 33  1  0
  5 34  1  0
  7 35  1  0
  7 36  1  0
  7 37  1  0
 14 38  1  0
 15 39  1  0
 16 40  1  0
 22 41  1  0
 23 42  1  0
 26 43  1  0
 28 44  1  0
 29 45  1  0
M  CHG  2   9  -1  27  -1
M  END
>  <UniqueID>  (47) 
45

>  <SMILES>  (47) 
COc1ccc(C)c([N-]S(=O)(=O)c2cccc(C(=O)N=c3ccc(Cl)c[n-]3)c2)c1

>  <Energy>  (47) 
55.08894678864417

>  <Genealogy>  (47) 
COc1ccc(C)c([N-]S(=O)(=O)c2cccc(C(=O)N=c3ccc(Cl)c[n-]3)c2)c1 (protonated)
COc1ccc(C)c([N-]S(=O)(=O)c2cccc(C(=O)N=c3ccc(Cl)c[n-]3)c2)c1 (3D coordinates assigned)
COc1ccc(C)c([N-]S(=O)(=O)c2cccc(C(=O)N=c3ccc(Cl)c[n-]3)c2)c1 (optimized conformer: 55.08894678864417 kcal/mol)

>  <smiles>  (47) 
COc1ccc(C)c(NS(=O)(=O)c2cccc(C(=O)N=c3ccc(Cl)c[nH]3)c2)c1

>  <score_type>  (47) 
oracle

>  <origin>  (47) 
adg

>  <m_score__min__energy>  (47) 
-12.34

>  <m_primary>  (47) 
energy

$$$$
47:0
     RDKit          3D

 40 41  0  0  0  0  0  0  0  0999 V2000
   57.8010   32.2640   51.2220 C   0  0  0  0  0  0  0  0  0  0  0  0
   58.4150   31.0830   51.2350 C   0  0  0  0  0  0  0  0  0  0  0  0
   58.9380   30.4480   50.0170 C   0  0  0  0  0  0  0  0  0  0  0  0
   58.4730   29.3290   49.6700 O   0  0  0  0  0  0  0  0  0  0  0  0
   59.9250   31.1130   49.2130 N   0  0  0  0  0  0  0  0  0  0  0  0
   59.7520   32.2850   48.3990 C   0  0  0  0  0  0  0  0  0  0  0  0
   60.3090   33.5320   48.7400 C   0  0  0  0  0  0  0  0  0  0  0  0
   60.0900   34.6470   47.9270 C   0  0  0  0  0  0  0  0  0  0  0  0
   59.2920   34.5390   46.7850 C   0  0  0  0  0  0  0  0  0  0  0  0
   58.7090   33.3100   46.4500 C   0  0  0  0  0  0  0  0  0  0  0  0
   57.6610   33.1620   45.0400 S   0  0  0  0  0  0  0  0  0  0  0  0
   58.4830   33.0720   43.7830 O   0  0  0  0  0  0  0  0  0  0  0  0
   56.8000   34.3880   44.9560 O   0  0  0  0  0  0  0  0  0  0  0  0
   56.6370   31.7610   45.1730 N   0  0  0  0  0  0  0  0  0  0  0  0
   56.8020   30.8680   44.0250 C   0  0  0  0  0  0  0  0  0  0  0  0
   55.8250   29.7400   44.1060 C   0  0  0  0  0  0  0  0  0  0  0  0
   54.9920   29.5710   43.1780 O   0  0  0  0  0  0  0  0  0  0  0  0
   55.8780   28.8440   45.2230 N   0  0  0  0  0  0  0  0  0  0  0  0
   57.0340   28.1950   45.7720 C   0  0  0  0  0  0  0  0  0  0  0  0
   57.1530   26.8090   45.6070 C   0  0  0  0  0  0  0  0  0  0  0  0
   58.2790   26.1330   46.0820 C   0  0  0  0  0  0  0  0  0  0  0  0
   59.3050   26.8380   46.7120 C   0  0  0  0  0  0  0  0  0  0  0  0
   59.2070   28.2280   46.8720 C   0  0  0  0  0  0  0  0  0  0  0  0
   60.2320   28.9460   47.4850 O   0  0  0  0  0  0  0  0  0  0  0  0
   58.0740   28.9030   46.4010 C   0  0  0  0  0  0  0  0  0  0  0  0
   58.9460   32.1880   47.2570 C   0  0  0  0  0  0  0  0  0  0  0  0
   57.4262   32.6994   52.1601 H   0  0  0  0  0  0  0  0  0  0  0  0
   57.6684   32.8045   50.2732 H   0  0  0  0  0  0  0  0  0  0  0  0
   58.5358   30.5614   52.1959 H   0  0  0  0  0  0  0  0  0  0  0  0
   60.9191   33.6290   49.6502 H   0  0  0  0  0  0  0  0  0  0  0  0
   60.5473   35.6131   48.1868 H   0  0  0  0  0  0  0  0  0  0  0  0
   59.1214   35.4198   46.1485 H   0  0  0  0  0  0  0  0  0  0  0  0
   56.6291   31.4329   43.0971 H   0  0  0  0  0  0  0  0  0  0  0  0
   57.8235   30.4601   44.0306 H   0  0  0  0  0  0  0  0  0  0  0  0
   56.3537   26.2490   45.0996 H   0  0  0  0  0  0  0  0  0  0  0  0
   58.3571   25.0427   45.9592 H   0  0  0  0  0  0  0  0  0  0  0  0
   60.1916   26.3032   47.0836 H   0  0  0  0  0  0  0  0  0  0  0  0
   60.0420   29.6290   48.2070 H   0  0  0  0  0  0  0  0  0  0  0  0
   57.9969   29.9934   46.5237 H   0  0  0  0  0  0  0  0  0  0  0  0
   58.4942   31.2211   46.9906 H   0  0  0  0  0  0  0  0  0  0  0  0
  1  2  2  0
  2  3  1  0
  3  4  2  0
  3  5  1  0
  5  6  1  0
  6  7  2  0
  7  8  1  0
  8  9  2  0
  9 10  1  0
 10 11  1  0
 11 12  2  0
 11 13  2  0
 11 14  1  0
 14 15  1  0
 15 16  1  0
 16 17  2  0
 16 18  1  0
 18 19  1  0
 19 20  2  0
 20 21  1  0
 21 22  2  0
 22 23  1  0
 23 24  1  0
 23 25  2  0
 10 26  2  0
 26  6  1  0
 25 19  1  0
  1 27  1  0
  1 28  1  0
  2 29  1  0
  7 30  1  0
  8 31  1  0
  9 32  1  0
 15 33  1  0
 15 34  1  0
 20 35  1  0
 21 36  1  0
 22 37  1  0
 24 38  1  0
 25 39  1  0
 26 40  1  0
M  CHG  3   5  -1  14  -1  18  -1
M  END
>  <UniqueID>  (48) 
46

>  <SMILES>  (48) 
C=CC(=O)[N-]c1cccc(S(=O)(=O)[N-]CC(=O)[N-]c2cccc(O)c2)c1

>  <Energy>  (48) 
38.06658586810581

>  <Genealogy>  (48) 
C=CC(=O)[N-]c1cccc(S(=O)(=O)[N-]CC(=O)[N-]c2cccc(O)c2)c1 (protonated)
C=CC(=O)[N-]c1cccc(S(=O)(=O)[N-]CC(=O)[N-]c2cccc(O)c2)c1 (3D coordinates assigned)
C=CC(=O)[N-]c1cccc(S(=O)(=O)[N-]CC(=O)[N-]c2cccc(O)c2)c1 (optimized conformer: 38.06658586810581 kcal/mol)

>  <smiles>  (48) 
C=CC(=O)Nc1cccc(S(=O)(=O)NCC(=O)Nc2cccc(O)c2)c1

>  <score_type>  (48) 
oracle

>  <origin>  (48) 
adg

>  <m_score__min__energy>  (48) 
-12.720000000000001

>  <m_primary>  (48) 
energy

$$$$
48:0
     RDKit          3D

 45 48  0  0  0  0  0  0  0  0999 V2000
   60.0540   27.4110   47.9170 C   0  0  0  0  0  0  0  0  0  0  0  0
   60.3390   28.7960   47.5300 N   0  0  0  0  0  0  0  0  0  0  0  0
   60.9100   29.7140   48.5260 C   0  0  0  0  0  0  0  0  0  0  0  0
   59.8210   30.3790   49.3230 C   0  0  0  0  0  0  0  0  0  0  0  0
   59.5020   31.7300   49.1210 C   0  0  0  0  0  0  0  0  0  0  0  0
   58.4980   32.3200   49.8920 C   0  0  0  0  0  0  0  0  0  0  0  0
   57.8260   31.5640   50.8540 C   0  0  0  0  0  0  0  0  0  0  0  0
   58.1710   30.2240   51.0310 C   0  0  0  0  0  0  0  0  0  0  0  0
   59.1510   29.6660   50.2710 N   0  0  0  0  0  0  0  0  0  0  0  0
   60.1750   29.1780   46.1460 C   0  0  0  0  0  0  0  0  0  0  0  0
   60.8110   28.5580   45.2500 O   0  0  0  0  0  0  0  0  0  0  0  0
   59.2380   30.2480   45.7370 C   0  0  0  0  0  0  0  0  0  0  0  0
   59.5930   31.5410   46.0090 N   0  0  0  0  0  0  0  0  0  0  0  0
   58.7360   32.5470   45.7200 C   0  0  0  0  0  0  0  0  0  0  0  0
   58.9460   33.8530   45.9230 N   0  0  0  0  0  0  0  0  0  0  0  0
   57.7870   34.3990   45.4660 C   0  0  0  0  0  0  0  0  0  0  0  0
   56.8840   33.4970   44.9970 N   0  0  0  0  0  0  0  0  0  0  0  0
   57.5210   32.3300   45.1760 C   0  0  0  0  0  0  0  0  0  0  0  0
   57.0860   31.0470   44.8680 C   0  0  0  0  0  0  0  0  0  0  0  0
   55.9560   30.8710   44.3360 O   0  0  0  0  0  0  0  0  0  0  0  0
   57.9610   29.9630   45.1470 C   0  0  0  0  0  0  0  0  0  0  0  0
   57.5670   28.5810   44.7790 C   0  0  0  0  0  0  0  0  0  0  0  0
   57.9050   28.1110   43.6580 O   0  0  0  0  0  0  0  0  0  0  0  0
   56.7470   27.8100   45.6670 N   0  0  0  0  0  0  0  0  0  0  0  0
   56.8060   26.3900   45.8650 C   0  0  0  0  0  0  0  0  0  0  0  0
   58.0320   25.7050   45.9640 C   0  0  0  0  0  0  0  0  0  0  0  0
   58.0530   24.3240   46.1820 C   0  0  0  0  0  0  0  0  0  0  0  0
   56.8550   23.6180   46.3170 C   0  0  0  0  0  0  0  0  0  0  0  0
   55.6350   24.2940   46.2450 C   0  0  0  0  0  0  0  0  0  0  0  0
   55.6080   25.6750   46.0270 C   0  0  0  0  0  0  0  0  0  0  0  0
   54.3870   26.3360   45.9650 O   0  0  0  0  0  0  0  0  0  0  0  0
   60.0379   27.3328   49.0141 H   0  0  0  0  0  0  0  0  0  0  0  0
   59.0754   27.1115   47.5136 H   0  0  0  0  0  0  0  0  0  0  0  0
   60.8348   26.7495   47.5136 H   0  0  0  0  0  0  0  0  0  0  0  0
   61.5615   29.1474   49.2075 H   0  0  0  0  0  0  0  0  0  0  0  0
   61.4880   30.4893   48.0017 H   0  0  0  0  0  0  0  0  0  0  0  0
   60.0377   32.3193   48.3623 H   0  0  0  0  0  0  0  0  0  0  0  0
   58.2374   33.3780   49.7415 H   0  0  0  0  0  0  0  0  0  0  0  0
   57.0334   32.0198   51.4656 H   0  0  0  0  0  0  0  0  0  0  0  0
   57.6496   29.6178   51.7864 H   0  0  0  0  0  0  0  0  0  0  0  0
   57.5958   35.4822   45.4751 H   0  0  0  0  0  0  0  0  0  0  0  0
   58.9777   26.2588   45.8694 H   0  0  0  0  0  0  0  0  0  0  0  0
   59.0140   23.7928   46.2473 H   0  0  0  0  0  0  0  0  0  0  0  0
   56.8726   22.5303   46.4799 H   0  0  0  0  0  0  0  0  0  0  0  0
   54.6926   23.7385   46.3601 H   0  0  0  0  0  0  0  0  0  0  0  0
  1  2  1  0
  2  3  1  0
  3  4  1  0
  4  5  2  0
  5  6  1  0
  6  7  2  0
  7  8  1  0
  8  9  2  0
  2 10  1  0
 10 11  2  0
 10 12  1  0
 12 13  1  0
 13 14  1  0
 14 15  1  0
 15 16  1  0
 16 17  2  0
 17 18  1  0
 18 19  1  0
 19 20  2  0
 19 21  1  0
 21 22  1  0
 22 23  2  0
 22 24  1  0
 24 25  1  0
 25 26  2  0
 26 27  1  0
 27 28  2  0
 28 29  1  0
 29 30  2  0
 30 31  1  0
  9  4  1  0
 21 12  2  0
 30 25  1  0
 18 14  2  0
  1 32  1  0
  1 33  1  0
  1 34  1  0
  3 35  1  0
  3 36  1  0
  5 37  1  0
  6 38  1  0
  7 39  1  0
  8 40  1  0
 16 41  1  0
 26 42  1  0
 27 43  1  0
 28 44  1  0
 29 45  1  0
M  CHG  4  13  -1  15  -1  24  -1  31  -1
M  END
>  <UniqueID>  (49) 
47

>  <SMILES>  (49) 
CN(Cc1ccccn1)C(=O)c1[n-]c2[n-]cnc2c(=O)c1C(=O)[N-]c1ccccc1[O-]

>  <Energy>  (49) 
100.62130063893278

>  <Genealogy>  (49) 
CN(Cc1ccccn1)C(=O)c1[n-]c2[n-]cnc2c(=O)c1C(=O)[N-]c1ccccc1[O-] (protonated)
CN(Cc1ccccn1)C(=O)c1[n-]c2[n-]cnc2c(=O)c1C(=O)[N-]c1ccccc1[O-] (3D coordinates assigned)
CN(Cc1ccccn1)C(=O)c1[n-]c2[n-]cnc2c(=O)c1C(=O)[N-]c1ccccc1[O-] (optimized conformer: 100.62130063893278 kcal/mol)

>  <smiles>  (49) 
CN(Cc1ccccn1)C(=O)c1[nH]c2[nH]cnc2c(=O)c1C(=O)Nc1ccccc1O

>  <score_type>  (49) 
oracle

>  <origin>  (49) 
adg

>  <m_score__min__energy>  (49) 
-15.039999999999999

>  <m_primary>  (49) 
energy

$$$$
49:0
     RDKit          3D

 54 56  0  0  1  0  0  0  0  0999 V2000
   57.1650   34.0230   44.7720 C   0  0  0  0  0  0  0  0  0  0  0  0
   57.7320   32.3650   44.5170 S   0  0  0  0  0  0  0  0  0  0  0  0
   58.5260   32.2510   43.2550 O   0  0  0  0  0  0  0  0  0  0  0  0
   56.5110   31.4930   44.4650 O   0  0  0  0  0  0  0  0  0  0  0  0
   58.7150   31.9180   45.8860 N   0  0  0  0  0  0  0  0  0  0  0  0
   58.1490   32.5080   47.1050 C   0  0  0  0  0  0  0  0  0  0  0  0
   58.7990   33.8380   47.3650 C   0  0  0  0  0  0  0  0  0  0  0  0
   60.0190   33.8160   47.9930 O   0  0  0  0  0  0  0  0  0  0  0  0
   61.2170   33.2790   47.6880 C   0  0  0  0  0  0  0  0  0  0  0  0
   62.3330   33.9250   47.2210 C   0  0  0  0  0  0  0  0  0  0  0  0
   63.5280   33.2860   46.9360 C   0  0  0  0  0  0  0  0  0  0  0  0
   63.6440   31.9360   47.1180 C   0  0  0  0  0  0  0  0  0  0  0  0
   62.5480   31.2500   47.5860 C   0  0  0  0  0  0  0  0  0  0  0  0
   61.3610   31.8900   47.8680 C   0  0  0  0  0  0  0  0  0  0  0  0
   60.2650   31.1230   48.3510 N   0  0  0  0  0  0  0  0  0  0  0  0
   60.3160   29.8440   48.2000 C   0  0  0  0  0  0  0  0  0  0  0  0
   59.9620   29.2100   47.0680 N   0  0  0  0  0  0  0  0  0  0  0  0
   60.0690   27.8680   47.0570 C   0  0  0  0  0  0  0  0  0  0  0  0
   59.7350   27.2170   45.9760 N   0  0  0  0  0  0  0  0  0  0  0  0
   58.5180   26.4760   45.9070 C   0  0  0  0  0  0  0  0  0  0  0  0
   58.5770   25.0880   46.0670 C   0  0  0  0  0  0  0  0  0  0  0  0
   57.3930   24.3500   46.0030 C   0  0  0  0  0  0  0  0  0  0  0  0
   56.1770   24.9400   45.7880 C   0  0  0  0  0  0  0  0  0  0  0  0
   56.1190   26.3070   45.6310 C   0  0  0  0  0  0  0  0  0  0  0  0
   57.2910   27.0690   45.6910 C   0  0  0  0  0  0  0  0  0  0  0  0
   57.2030   28.8120   45.4880 S   0  0  0  0  0  0  0  0  0  0  0  0
   58.4480   29.3500   44.3900 N   0  0  0  0  0  0  0  0  0  0  0  0
   55.8740   29.1490   44.8760 O   0  0  0  0  0  0  0  0  0  0  0  0
   57.4440   29.5290   46.7810 O   0  0  0  0  0  0  0  0  0  0  0  0
   60.4970   27.1410   48.0850 N   0  0  0  0  0  0  0  0  0  0  0  0
   60.8680   27.7360   49.2580 C   0  0  0  0  0  0  0  0  0  0  0  0
   60.7680   29.1150   49.2960 C   0  0  0  0  0  0  0  0  0  0  0  0
   61.2320   29.9200   50.7780 Cl  0  0  0  0  0  0  0  0  0  0  0  0
   57.0959   34.2250   45.8511 H   0  0  0  0  0  0  0  0  0  0  0  0
   57.8733   34.7276   44.3117 H   0  0  0  0  0  0  0  0  0  0  0  0
   56.1736   34.1464   44.3117 H   0  0  0  0  0  0  0  0  0  0  0  0
   58.7680   30.8770   45.9410 H   0  0  0  0  0  0  0  0  0  0  0  0
   57.0656   32.6481   46.9759 H   0  0  0  0  0  0  0  0  0  0  0  0
   58.3324   31.8369   47.9570 H   0  0  0  0  0  0  0  0  0  0  0  0
   58.9326   34.3389   46.3948 H   0  0  0  0  0  0  0  0  0  0  0  0
   58.1248   34.3577   48.0617 H   0  0  0  0  0  0  0  0  0  0  0  0
   62.2756   35.0122   47.0639 H   0  0  0  0  0  0  0  0  0  0  0  0
   64.3852   33.8655   46.5626 H   0  0  0  0  0  0  0  0  0  0  0  0
   64.5865   31.4138   46.8965 H   0  0  0  0  0  0  0  0  0  0  0  0
   62.6208   30.1631   47.7390 H   0  0  0  0  0  0  0  0  0  0  0  0
   59.6250   29.7640   46.2520 H   0  0  0  0  0  0  0  0  0  0  0  0
   59.5401   24.5857   46.2404 H   0  0  0  0  0  0  0  0  0  0  0  0
   57.4394   23.2583   46.1296 H   0  0  0  0  0  0  0  0  0  0  0  0
   55.2612   24.3325   45.7414 H   0  0  0  0  0  0  0  0  0  0  0  0
   55.1509   26.8000   45.4584 H   0  0  0  0  0  0  0  0  0  0  0  0
   58.4590   30.4010   44.3350 H   0  0  0  0  0  0  0  0  0  0  0  0
   59.3730   29.0050   44.7290 H   0  0  0  0  0  0  0  0  0  0  0  0
   60.5810   26.1000   48.0820 H   0  0  0  0  0  0  0  0  0  0  0  0
   61.2247   27.1533   50.1201 H   0  0  0  0  0  0  0  0  0  0  0  0
  1  2  1  0
  2  3  2  0
  2  4  2  0
  2  5  1  0
  5  6  1  0
  6  7  1  0
  7  8  1  0
  8  9  1  0
  9 10  2  0
 10 11  1  0
 11 12  2  0
 12 13  1  0
 13 14  2  0
 14 15  1  0
 15 16  2  0
 16 17  1  0
 17 18  1  0
 18 19  2  0
 19 20  1  0
 20 21  2  0
 21 22  1  0
 22 23  2  0
 23 24  1  0
 24 25  2  0
 25 26  1  0
 26 27  1  0
 26 28  2  0
 26 29  2  0
 18 30  1  0
 30 31  1  0
 31 32  2  0
 32 33  1  0
 14  9  1  0
 32 16  1  0
 25 20  1  0
  1 34  1  0
  1 35  1  0
  1 36  1  0
  5 37  1  0
  6 38  1  0
  6 39  1  0
  7 40  1  0
  7 41  1  0
 10 42  1  0
 11 43  1  0
 12 44  1  0
 13 45  1  0
 17 46  1  0
 21 47  1  0
 22 48  1  0
 23 49  1  0
 24 50  1  0
 27 51  1  0
 27 52  1  0
 30 53  1  0
 31 54  1  0
M  END
>  <smiles>  (50) 
CS(=O)(=O)NCCOc1ccccc1N=c1[nH]c(=Nc2ccccc2S(N)(=O)=O)[nH]cc1Cl

>  <score_type>  (50) 
oracle

>  <origin>  (50) 
adg

>  <m_score__min__energy>  (50) 
-7.9100000000000001

>  <m_primary>  (50) 
energy

$$$$
50:0
     RDKit          3D

 61 64  0  0  0  0  0  0  0  0999 V2000
   59.3110   33.5340   49.4770 C   0  0  0  0  0  0  0  0  0  0  0  0
   60.6790   33.6330   48.8510 C   0  0  0  0  0  0  0  0  0  0  0  0
   61.7930   33.7750   49.6990 C   0  0  0  0  0  0  0  0  0  0  0  0
   63.0840   33.8440   49.1720 C   0  0  0  0  0  0  0  0  0  0  0  0
   63.2820   33.7730   47.7940 C   0  0  0  0  0  0  0  0  0  0  0  0
   62.1900   33.6400   46.9350 C   0  0  0  0  0  0  0  0  0  0  0  0
   60.8760   33.5760   47.4420 C   0  0  0  0  0  0  0  0  0  0  0  0
   59.7540   33.4510   46.4740 C   0  0  0  0  0  0  0  0  0  0  0  0
   59.6390   32.4210   45.6030 N   0  0  0  0  0  0  0  0  0  0  0  0
   58.5190   32.7080   44.9130 C   0  0  0  0  0  0  0  0  0  0  0  0
   57.9520   31.8260   43.8420 C   0  0  0  0  0  0  0  0  0  0  0  0
   56.5420   30.8640   44.4930 S   0  0  0  0  0  0  0  0  0  0  0  0
   57.3720   29.2370   44.5020 C   0  0  0  0  0  0  0  0  0  0  0  0
   58.4340   29.2380   45.5480 C   0  0  0  0  0  0  0  0  0  0  0  0
   59.4690   28.5330   45.3880 O   0  0  0  0  0  0  0  0  0  0  0  0
   58.2680   30.0530   46.7140 N   0  0  0  0  0  0  0  0  0  0  0  0
   59.1230   30.0850   47.8690 C   0  0  0  0  0  0  0  0  0  0  0  0
   58.6040   30.0310   49.1750 C   0  0  0  0  0  0  0  0  0  0  0  0
   59.4630   30.0950   50.2840 C   0  0  0  0  0  0  0  0  0  0  0  0
   58.8100   30.0100   51.9220 S   0  0  0  0  0  0  0  0  0  0  0  0
   59.1600   31.2680   52.6650 O   0  0  0  0  0  0  0  0  0  0  0  0
   59.4440   28.8530   52.6420 O   0  0  0  0  0  0  0  0  0  0  0  0
   57.0770   29.8070   51.9180 N   0  0  0  0  0  0  0  0  0  0  0  0
   56.6530   28.9520   53.0420 C   0  0  0  0  0  0  0  0  0  0  0  0
   55.1240   29.0150   53.2320 C   0  0  0  0  0  0  0  0  0  0  0  0
   54.4980   29.5570   52.0860 O   0  0  0  0  0  0  0  0  0  0  0  0
   54.8750   30.9140   51.9240 C   0  0  0  0  0  0  0  0  0  0  0  0
   56.4040   31.1120   51.9880 C   0  0  0  0  0  0  0  0  0  0  0  0
   60.8420   30.2410   50.0840 C   0  0  0  0  0  0  0  0  0  0  0  0
   61.3600   30.3190   48.7890 C   0  0  0  0  0  0  0  0  0  0  0  0
   60.5050   30.2460   47.6820 C   0  0  0  0  0  0  0  0  0  0  0  0
   61.0240   30.3290   46.3900 O   0  0  0  0  0  0  0  0  0  0  0  0
   57.9880   33.8860   45.3950 C   0  0  0  0  0  0  0  0  0  0  0  0
   56.7490   34.5830   44.9340 C   0  0  0  0  0  0  0  0  0  0  0  0
   58.7740   34.3200   46.3490 O   0  0  0  0  0  0  0  0  0  0  0  0
   59.4078   33.5410   50.5727 H   0  0  0  0  0  0  0  0  0  0  0  0
   58.6987   34.3902   49.1575 H   0  0  0  0  0  0  0  0  0  0  0  0
   58.8284   32.5986   49.1575 H   0  0  0  0  0  0  0  0  0  0  0  0
   61.6452   33.8322   50.7875 H   0  0  0  0  0  0  0  0  0  0  0  0
   63.9466   33.9546   49.8455 H   0  0  0  0  0  0  0  0  0  0  0  0
   64.3010   33.8219   47.3827 H   0  0  0  0  0  0  0  0  0  0  0  0
   62.3566   33.5844   45.8491 H   0  0  0  0  0  0  0  0  0  0  0  0
   57.6095   32.4489   43.0026 H   0  0  0  0  0  0  0  0  0  0  0  0
   58.7328   31.1302   43.5011 H   0  0  0  0  0  0  0  0  0  0  0  0
   56.6368   28.4495   44.7240 H   0  0  0  0  0  0  0  0  0  0  0  0
   57.8218   29.0446   43.5168 H   0  0  0  0  0  0  0  0  0  0  0  0
   57.5188   29.9381   49.3287 H   0  0  0  0  0  0  0  0  0  0  0  0
   56.9482   27.9126   52.8357 H   0  0  0  0  0  0  0  0  0  0  0  0
   57.1375   29.3126   53.9614 H   0  0  0  0  0  0  0  0  0  0  0  0
   54.7400   27.9990   53.4063 H   0  0  0  0  0  0  0  0  0  0  0  0
   54.9020   29.6611   54.0941 H   0  0  0  0  0  0  0  0  0  0  0  0
   54.5138   31.2666   50.9466 H   0  0  0  0  0  0  0  0  0  0  0  0
   54.4280   31.4869   52.7498 H   0  0  0  0  0  0  0  0  0  0  0  0
   56.7275   31.7359   51.1417 H   0  0  0  0  0  0  0  0  0  0  0  0
   56.6675   31.6069   52.9344 H   0  0  0  0  0  0  0  0  0  0  0  0
   61.5189   30.2944   50.9494 H   0  0  0  0  0  0  0  0  0  0  0  0
   62.4431   30.4382   48.6381 H   0  0  0  0  0  0  0  0  0  0  0  0
   60.4210   30.4160   45.5800 H   0  0  0  0  0  0  0  0  0  0  0  0
   56.1662   34.9109   45.8074 H   0  0  0  0  0  0  0  0  0  0  0  0
   57.0248   35.4584   44.3276 H   0  0  0  0  0  0  0  0  0  0  0  0
   56.1441   33.8928   44.3276 H   0  0  0  0  0  0  0  0  0  0  0  0
  1  2  1  0
  2  3  2  0
  3  4  1  0
  4  5  2  0
  5  6  1  0
  6  7  2  0
  7  8  1  0
  8  9  2  0
  9 10  1  0
 10 11  1  0
 11 12  1  0
 12 13  1  0
 13 14  1  0
 14 15  2  0
 14 16  1  0
 16 17  1  0
 17 18  2  0
 18 19  1  0
 19 20  1  0
 20 21  2  0
 20 22  2  0
 20 23  1  0
 23 24  1  0
 24 25  1  0
 25 26  1  0
 26 27  1  0
 27 28  1  0
 19 29  2  0
 29 30  1  0
 30 31  2  0
 31 32  1  0
 10 33  2  0
 33 34  1  0
 33 35  1  0
  7  2  1  0
 35  8  1  0
 31 17  1  0
 28 23  1  0
  1 36  1  0
  1 37  1  0
  1 38  1  0
  3 39  1  0
  4 40  1  0
  5 41  1  0
  6 42  1  0
 11 43  1  0
 11 44  1  0
 13 45  1  0
 13 46  1  0
 18 47  1  0
 24 48  1  0
 24 49  1  0
 25 50  1  0
 25 51  1  0
 27 52  1  0
 27 53  1  0
 28 54  1  0
 28 55  1  0
 29 56  1  0
 30 57  1  0
 32 58  1  0
 34 59  1  0
 34 60  1  0
 34 61  1  0
M  CHG  1  16  -1
M  END
>  <UniqueID>  (51) 
48

>  <SMILES>  (51) 
Cc1ccccc1-c1nc(CSCC(=O)[N-]c2cc(S(=O)(=O)N3CCOCC3)ccc2O)c(C)o1

>  <Energy>  (51) 
101.7567658633875

>  <Genealogy>  (51) 
Cc1ccccc1-c1nc(CSCC(=O)[N-]c2cc(S(=O)(=O)N3CCOCC3)ccc2O)c(C)o1 (protonated)
Cc1ccccc1-c1nc(CSCC(=O)[N-]c2cc(S(=O)(=O)N3CCOCC3)ccc2O)c(C)o1 (3D coordinates assigned)
Cc1ccccc1-c1nc(CSCC(=O)[N-]c2cc(S(=O)(=O)N3CCOCC3)ccc2O)c(C)o1 (nonaromatic ring conformer: 101.7567658633875 kcal/mol)

>  <smiles>  (51) 
Cc1ccccc1-c1nc(CSCC(=O)Nc2cc(S(=O)(=O)N3CCOCC3)ccc2O)c(C)o1

>  <score_type>  (51) 
oracle

>  <origin>  (51) 
adg

>  <m_score__min__energy>  (51) 
-11.789999999999999

>  <m_primary>  (51) 
energy

$$$$
51:0
     RDKit          3D

 45 47  0  0  0  0  0  0  0  0999 V2000
   56.6910   24.4620   47.1390 C   0  0  0  0  0  0  0  0  0  0  0  0
   57.1210   25.5150   46.2270 N   0  0  0  0  0  0  0  0  0  0  0  0
   56.4070   26.7390   46.0040 C   0  0  0  0  0  0  0  0  0  0  0  0
   55.1500   26.7060   45.9360 O   0  0  0  0  0  0  0  0  0  0  0  0
   57.1050   28.0300   45.8150 C   0  0  0  0  0  0  0  0  0  0  0  0
   58.4100   28.2000   46.3070 C   0  0  0  0  0  0  0  0  0  0  0  0
   59.0950   29.4090   46.1140 C   0  0  0  0  0  0  0  0  0  0  0  0
   60.5150   29.5480   46.5940 C   0  0  0  0  0  0  0  0  0  0  0  0
   60.6510   28.9750   47.9290 N   0  0  0  0  0  0  0  0  0  0  0  0
   61.1420   29.7100   49.0540 C   0  0  0  0  0  0  0  0  0  0  0  0
   61.4790   29.1080   50.1090 O   0  0  0  0  0  0  0  0  0  0  0  0
   61.2420   31.1710   48.9890 C   0  0  0  0  0  0  0  0  0  0  0  0
   62.4080   31.9130   49.0940 C   0  0  0  0  0  0  0  0  0  0  0  0
   61.9760   33.2070   48.9200 C   0  0  0  0  0  0  0  0  0  0  0  0
   62.7130   34.2300   48.9170 O   0  0  0  0  0  0  0  0  0  0  0  0
   60.6450   33.2270   48.7360 N   0  0  0  0  0  0  0  0  0  0  0  0
   59.8150   34.3890   48.4300 C   0  0  0  0  0  0  0  0  0  0  0  0
   59.0830   34.1650   47.1360 C   0  0  0  0  0  0  0  0  0  0  0  0
   57.8060   33.5800   47.1330 C   0  0  0  0  0  0  0  0  0  0  0  0
   57.1120   33.4100   45.9310 C   0  0  0  0  0  0  0  0  0  0  0  0
   57.6830   33.8340   44.7270 C   0  0  0  0  0  0  0  0  0  0  0  0
   58.9470   34.4320   44.7250 C   0  0  0  0  0  0  0  0  0  0  0  0
   59.6440   34.6020   45.9240 C   0  0  0  0  0  0  0  0  0  0  0  0
   60.1880   31.9850   48.7630 N   0  0  0  0  0  0  0  0  0  0  0  0
   58.4570   30.4650   45.4480 C   0  0  0  0  0  0  0  0  0  0  0  0
   57.1480   30.3150   44.9830 C   0  0  0  0  0  0  0  0  0  0  0  0
   56.4660   29.1040   45.1640 C   0  0  0  0  0  0  0  0  0  0  0  0
   55.1640   28.9580   44.6840 O   0  0  0  0  0  0  0  0  0  0  0  0
   56.8281   24.7978   48.1775 H   0  0  0  0  0  0  0  0  0  0  0  0
   55.6287   24.2364   46.9638 H   0  0  0  0  0  0  0  0  0  0  0  0
   57.2917   23.5573   46.9638 H   0  0  0  0  0  0  0  0  0  0  0  0
   58.8993   27.3772   46.8488 H   0  0  0  0  0  0  0  0  0  0  0  0
   61.1867   29.0199   45.9012 H   0  0  0  0  0  0  0  0  0  0  0  0
   60.7798   30.6150   46.6313 H   0  0  0  0  0  0  0  0  0  0  0  0
   63.4320   31.5535   49.2733 H   0  0  0  0  0  0  0  0  0  0  0  0
   59.0866   34.5411   49.2401 H   0  0  0  0  0  0  0  0  0  0  0  0
   60.4555   35.2784   48.3359 H   0  0  0  0  0  0  0  0  0  0  0  0
   57.3502   33.2544   48.0797 H   0  0  0  0  0  0  0  0  0  0  0  0
   56.1163   32.9425   45.9326 H   0  0  0  0  0  0  0  0  0  0  0  0
   57.1378   33.6971   43.7815 H   0  0  0  0  0  0  0  0  0  0  0  0
   59.3934   34.7692   43.7779 H   0  0  0  0  0  0  0  0  0  0  0  0
   60.6350   35.0794   45.9192 H   0  0  0  0  0  0  0  0  0  0  0  0
   58.9889   31.4150   45.2910 H   0  0  0  0  0  0  0  0  0  0  0  0
   56.6499   31.1521   44.4720 H   0  0  0  0  0  0  0  0  0  0  0  0
   54.7690   28.0430   44.4910 H   0  0  0  0  0  0  0  0  0  0  0  0
  1  2  1  0
  2  3  1  0
  3  4  2  0
  3  5  1  0
  5  6  2  0
  6  7  1  0
  7  8  1  0
  8  9  1  0
  9 10  1  0
 10 11  2  0
 10 12  1  0
 12 13  2  0
 13 14  1  0
 14 15  2  0
 14 16  1  0
 16 17  1  0
 17 18  1  0
 18 19  2  0
 19 20  1  0
 20 21  2  0
 21 22  1  0
 22 23  2  0
 16 24  1  0
  7 25  2  0
 25 26  1  0
 26 27  2  0
 27 28  1  0
 27  5  1  0
 24 12  1  0
 23 18  1  0
  1 29  1  0
  1 30  1  0
  1 31  1  0
  6 32  1  0
  8 33  1  0
  8 34  1  0
 13 35  1  0
 17 36  1  0
 17 37  1  0
 19 38  1  0
 20 39  1  0
 21 40  1  0
 22 41  1  0
 23 42  1  0
 25 43  1  0
 26 44  1  0
 28 45  1  0
M  CHG  3   2  -1   9  -1  24  -1
M  END
>  <UniqueID>  (52) 
49

>  <SMILES>  (52) 
C[N-]C(=O)c1cc(C[N-]C(=O)c2cc(=O)n(Cc3ccccc3)[n-]2)ccc1O

>  <Energy>  (52) 
77.32561012415616

>  <Genealogy>  (52) 
C[N-]C(=O)c1cc(C[N-]C(=O)c2cc(=O)n(Cc3ccccc3)[n-]2)ccc1O (protonated)
C[N-]C(=O)c1cc(C[N-]C(=O)c2cc(=O)n(Cc3ccccc3)[n-]2)ccc1O (3D coordinates assigned)
C[N-]C(=O)c1cc(C[N-]C(=O)c2cc(=O)n(Cc3ccccc3)[n-]2)ccc1O (optimized conformer: 77.32561012415616 kcal/mol)

>  <smiles>  (52) 
CNC(=O)c1cc(CNC(=O)c2cc(=O)n(Cc3ccccc3)[nH]2)ccc1O

>  <score_type>  (52) 
oracle

>  <origin>  (52) 
adg

>  <m_score__min__energy>  (52) 
-13.609999999999999

>  <m_primary>  (52) 
energy

$$$$
52:0
     RDKit          3D

 77 81  0  0  0  0  0  0  0  0999 V2000
   61.1020   28.4600   54.8420 C   0  0  0  0  0  0  0  0  0  0  0  0
   61.1260   28.2710   53.3490 C   0  0  0  0  0  0  0  0  0  0  0  0
   61.5700   27.0540   52.8090 C   0  0  0  0  0  0  0  0  0  0  0  0
   61.5720   26.8520   51.4290 C   0  0  0  0  0  0  0  0  0  0  0  0
   61.1180   27.8540   50.5730 C   0  0  0  0  0  0  0  0  0  0  0  0
   60.6440   29.0750   51.0880 C   0  0  0  0  0  0  0  0  0  0  0  0
   60.2020   30.1190   50.2020 N   0  0  0  0  0  0  0  0  0  0  0  0
   58.8290   30.4910   50.0230 C   0  0  0  0  0  0  0  0  0  0  0  0
   57.9550   30.1440   50.8600 O   0  0  0  0  0  0  0  0  0  0  0  0
   58.4660   31.3010   48.9020 N   0  0  0  0  0  0  0  0  0  0  0  0
   59.1990   31.1300   47.3400 S   0  0  0  0  0  0  0  0  0  0  0  0
   60.6610   30.8210   47.5170 O   0  0  0  0  0  0  0  0  0  0  0  0
   58.5330   29.9850   46.6310 O   0  0  0  0  0  0  0  0  0  0  0  0
   58.9970   32.6130   46.3890 C   0  0  0  0  0  0  0  0  0  0  0  0
   57.9240   32.7080   45.4860 C   0  0  0  0  0  0  0  0  0  0  0  0
   57.7240   33.8750   44.7430 C   0  0  0  0  0  0  0  0  0  0  0  0
   58.5920   34.9580   44.8870 C   0  0  0  0  0  0  0  0  0  0  0  0
   59.6670   34.8770   45.7730 C   0  0  0  0  0  0  0  0  0  0  0  0
   59.8840   33.7090   46.5230 C   0  0  0  0  0  0  0  0  0  0  0  0
   61.0410   33.6690   47.4350 C   0  0  0  0  0  0  0  0  0  0  0  0
   62.3240   33.4200   46.9300 C   0  0  0  0  0  0  0  0  0  0  0  0
   63.4180   33.3410   47.7980 C   0  0  0  0  0  0  0  0  0  0  0  0
   63.2410   33.5110   49.1800 C   0  0  0  0  0  0  0  0  0  0  0  0
   64.4130   33.3610   50.1100 C   0  0  0  0  0  0  0  0  0  0  0  0
   64.1100   32.3530   51.1310 N   0  0  0  0  0  0  0  0  0  0  0  0
   64.3160   32.6570   52.5550 C   0  0  0  0  0  0  0  0  0  0  0  0
   64.9400   31.4620   53.2820 C   0  0  0  0  0  0  0  0  0  0  0  0
   64.0600   30.2220   53.0890 C   0  0  0  0  0  0  0  0  0  0  0  0
   63.9480   29.8470   51.6060 C   0  0  0  0  0  0  0  0  0  0  0  0
   63.6530   31.0430   50.7430 C   0  0  0  0  0  0  0  0  0  0  0  0
   63.0860   30.8760   49.6310 O   0  0  0  0  0  0  0  0  0  0  0  0
   61.9520   33.7440   49.6850 C   0  0  0  0  0  0  0  0  0  0  0  0
   60.8590   33.8220   48.8170 C   0  0  0  0  0  0  0  0  0  0  0  0
   60.6700   29.2930   52.4850 C   0  0  0  0  0  0  0  0  0  0  0  0
   60.2120   30.5420   53.0340 N   0  0  0  0  0  0  0  0  0  0  0  0
   58.9560   30.5980   53.7840 C   0  0  0  0  0  0  0  0  0  0  0  0
   58.1720   31.8770   53.4240 C   0  0  0  0  0  0  0  0  0  0  0  0
   59.0160   33.0960   53.2680 N   0  0  0  0  0  0  0  0  0  0  0  0
   58.9010   33.6710   51.9160 C   0  0  0  0  0  0  0  0  0  0  0  0
   60.4280   32.9180   53.6730 C   0  0  0  0  0  0  0  0  0  0  0  0
   61.0830   31.7180   52.9700 C   0  0  0  0  0  0  0  0  0  0  0  0
   61.2257   27.4855   55.3370 H   0  0  0  0  0  0  0  0  0  0  0  0
   61.9224   29.1295   55.1401 H   0  0  0  0  0  0  0  0  0  0  0  0
   60.1404   28.9032   55.1401 H   0  0  0  0  0  0  0  0  0  0  0  0
   61.9188   26.2541   53.4787 H   0  0  0  0  0  0  0  0  0  0  0  0
   61.9330   25.8990   51.0149 H   0  0  0  0  0  0  0  0  0  0  0  0
   61.1303   27.6890   49.4855 H   0  0  0  0  0  0  0  0  0  0  0  0
   60.9130   30.6620   49.6630 H   0  0  0  0  0  0  0  0  0  0  0  0
   57.2368   31.8579   45.3631 H   0  0  0  0  0  0  0  0  0  0  0  0
   56.8789   33.9399   44.0419 H   0  0  0  0  0  0  0  0  0  0  0  0
   58.4289   35.8753   44.3023 H   0  0  0  0  0  0  0  0  0  0  0  0
   60.3488   35.7330   45.8849 H   0  0  0  0  0  0  0  0  0  0  0  0
   62.4713   33.2863   45.8481 H   0  0  0  0  0  0  0  0  0  0  0  0
   64.4226   33.1446   47.3953 H   0  0  0  0  0  0  0  0  0  0  0  0
   65.2968   33.0455   49.5361 H   0  0  0  0  0  0  0  0  0  0  0  0
   64.6144   34.3252   50.5996 H   0  0  0  0  0  0  0  0  0  0  0  0
   64.9867   33.5242   52.6452 H   0  0  0  0  0  0  0  0  0  0  0  0
   63.3405   32.8779   53.0129 H   0  0  0  0  0  0  0  0  0  0  0  0
   65.9417   31.2668   52.8715 H   0  0  0  0  0  0  0  0  0  0  0  0
   65.0182   31.6893   54.3554 H   0  0  0  0  0  0  0  0  0  0  0  0
   64.5022   29.3788   53.6399 H   0  0  0  0  0  0  0  0  0  0  0  0
   63.0524   30.4473   53.4685 H   0  0  0  0  0  0  0  0  0  0  0  0
   64.8986   29.3997   51.2800 H   0  0  0  0  0  0  0  0  0  0  0  0
   63.1157   29.1360   51.4973 H   0  0  0  0  0  0  0  0  0  0  0  0
   61.8015   33.8657   50.7678 H   0  0  0  0  0  0  0  0  0  0  0  0
   59.8518   34.0042   49.2198 H   0  0  0  0  0  0  0  0  0  0  0  0
   58.3460   29.7169   53.5359 H   0  0  0  0  0  0  0  0  0  0  0  0
   59.1830   30.6093   54.8603 H   0  0  0  0  0  0  0  0  0  0  0  0
   57.6442   31.7008   52.4751 H   0  0  0  0  0  0  0  0  0  0  0  0
   57.4908   32.0736   54.2650 H   0  0  0  0  0  0  0  0  0  0  0  0
   58.6858   34.7470   51.9923 H   0  0  0  0  0  0  0  0  0  0  0  0
   59.8464   33.5237   51.3733 H   0  0  0  0  0  0  0  0  0  0  0  0
   58.0850   33.1714   51.3733 H   0  0  0  0  0  0  0  0  0  0  0  0
   60.9884   33.8290   53.4162 H   0  0  0  0  0  0  0  0  0  0  0  0
   60.4490   32.7294   54.7565 H   0  0  0  0  0  0  0  0  0  0  0  0
   61.2678   31.9736   51.9162 H   0  0  0  0  0  0  0  0  0  0  0  0
   62.0304   31.4845   53.4778 H   0  0  0  0  0  0  0  0  0  0  0  0
  1  2  1  0
  2  3  2  0
  3  4  1  0
  4  5  2  0
  5  6  1  0
  6  7  1  0
  7  8  1  0
  8  9  2  0
  8 10  1  0
 10 11  1  0
 11 12  2  0
 11 13  2  0
 11 14  1  0
 14 15  2  0
 15 16  1  0
 16 17  2  0
 17 18  1  0
 18 19  2  0
 19 20  1  0
 20 21  2  0
 21 22  1  0
 22 23  2  0
 23 24  1  0
 24 25  1  0
 25 26  1  0
 26 27  1  0
 27 28  1  0
 28 29  1  0
 29 30  1  0
 30 31  2  0
 23 32  1  0
 32 33  2  0
  6 34  2  0
 34 35  1  0
 35 36  1  0
 36 37  1  0
 37 38  1  0
 38 39  1  0
 38 40  1  0
 40 41  1  0
 34  2  1  0
 41 35  1  0
 19 14  1  0
 33 20  1  0
 30 25  1  0
  1 42  1  0
  1 43  1  0
  1 44  1  0
  3 45  1  0
  4 46  1  0
  5 47  1  0
  7 48  1  0
 15 49  1  0
 16 50  1  0
 17 51  1  0
 18 52  1  0
 21 53  1  0
 22 54  1  0
 24 55  1  0
 24 56  1  0
 26 57  1  0
 26 58  1  0
 27 59  1  0
 27 60  1  0
 28 61  1  0
 28 62  1  0
 29 63  1  0
 29 64  1  0
 32 65  1  0
 33 66  1  0
 36 67  1  0
 36 68  1  0
 37 69  1  0
 37 70  1  0
 39 71  1  0
 39 72  1  0
 39 73  1  0
 40 74  1  0
 40 75  1  0
 41 76  1  0
 41 77  1  0
M  CHG  1  10  -1
M  END
>  <UniqueID>  (53) 
50

>  <SMILES>  (53) 
Cc1cccc(NC(=O)[N-]S(=O)(=O)c2ccccc2-c2ccc(CN3CCCCC3=O)cc2)c1N1CCN(C)CC1

>  <Energy>  (53) 
102.50275659664422

>  <Genealogy>  (53) 
Cc1cccc(NC(=O)[N-]S(=O)(=O)c2ccccc2-c2ccc(CN3CCCCC3=O)cc2)c1N1CCN(C)CC1 (protonated)
Cc1cccc(NC(=O)[N-]S(=O)(=O)c2ccccc2-c2ccc(CN3CCCCC3=O)cc2)c1N1CCN(C)CC1 (3D coordinates assigned)
Cc1cccc(NC(=O)[N-]S(=O)(=O)c2ccccc2-c2ccc(CN3CCCCC3=O)cc2)c1N1CCN(C)CC1 (nonaromatic ring conformer: 102.50275659664422 kcal/mol)

>  <smiles>  (53) 
Cc1cccc(NC(=O)NS(=O)(=O)c2ccccc2-c2ccc(CN3CCCCC3=O)cc2)c1N1CCN(C)CC1

>  <score_type>  (53) 
oracle

>  <origin>  (53) 
adg

>  <m_score__min__energy>  (53) 
-11.859999999999999

>  <m_primary>  (53) 
energy

$$$$
53:0
     RDKit          3D

 43 46  0  0  0  0  0  0  0  0999 V2000
   54.5100   26.3210   45.9930 N   0  0  0  0  0  0  0  0  0  0  0  0
   55.5310   24.9500   45.7450 S   0  0  0  0  0  0  0  0  0  0  0  0
   55.2420   23.9110   46.7930 O   0  0  0  0  0  0  0  0  0  0  0  0
   55.2480   24.3550   44.3950 O   0  0  0  0  0  0  0  0  0  0  0  0
   57.2250   25.4490   45.8350 C   0  0  0  0  0  0  0  0  0  0  0  0
   58.2210   24.4710   45.9710 C   0  0  0  0  0  0  0  0  0  0  0  0
   59.5650   24.8320   46.0540 C   0  0  0  0  0  0  0  0  0  0  0  0
   59.9280   26.1740   45.9910 C   0  0  0  0  0  0  0  0  0  0  0  0
   58.9510   27.1610   45.8400 C   0  0  0  0  0  0  0  0  0  0  0  0
   57.5900   26.8130   45.7650 C   0  0  0  0  0  0  0  0  0  0  0  0
   56.5680   27.8130   45.6280 N   0  0  0  0  0  0  0  0  0  0  0  0
   56.7570   29.3500   44.8440 S   0  0  0  0  0  0  0  0  0  0  0  0
   55.4420   30.0790   44.8450 O   0  0  0  0  0  0  0  0  0  0  0  0
   57.1730   29.1260   43.4200 O   0  0  0  0  0  0  0  0  0  0  0  0
   57.9990   30.2900   45.6670 C   0  0  0  0  0  0  0  0  0  0  0  0
   58.4320   31.5000   45.1140 C   0  0  0  0  0  0  0  0  0  0  0  0
   59.4240   32.2490   45.7510 C   0  0  0  0  0  0  0  0  0  0  0  0
   60.0050   31.7950   46.9450 C   0  0  0  0  0  0  0  0  0  0  0  0
   61.0640   32.5970   47.5940 C   0  0  0  0  0  0  0  0  0  0  0  0
   61.5290   33.8450   47.2270 C   0  0  0  0  0  0  0  0  0  0  0  0
   62.4900   34.2220   48.0900 N   0  0  0  0  0  0  0  0  0  0  0  0
   62.5750   33.1790   48.9470 C   0  0  0  0  0  0  0  0  0  0  0  0
   63.5250   33.1030   50.1060 C   0  0  0  0  0  0  0  0  0  0  0  0
   65.0160   33.0860   49.7860 C   0  0  0  0  0  0  0  0  0  0  0  0
   64.3050   31.7970   50.1660 C   0  0  0  0  0  0  0  0  0  0  0  0
   61.7320   32.2180   48.6560 O   0  0  0  0  0  0  0  0  0  0  0  0
   59.5640   30.5790   47.4980 C   0  0  0  0  0  0  0  0  0  0  0  0
   58.5660   29.8340   46.8630 C   0  0  0  0  0  0  0  0  0  0  0  0
   53.7530   26.2820   45.2710 H   0  0  0  0  0  0  0  0  0  0  0  0
   57.9389   23.4086   46.0126 H   0  0  0  0  0  0  0  0  0  0  0  0
   60.3374   24.0573   46.1691 H   0  0  0  0  0  0  0  0  0  0  0  0
   60.9883   26.4586   46.0604 H   0  0  0  0  0  0  0  0  0  0  0  0
   59.2482   28.2184   45.7793 H   0  0  0  0  0  0  0  0  0  0  0  0
   57.9897   31.8627   44.1744 H   0  0  0  0  0  0  0  0  0  0  0  0
   59.7527   33.2030   45.3130 H   0  0  0  0  0  0  0  0  0  0  0  0
   61.1720   34.4342   46.3695 H   0  0  0  0  0  0  0  0  0  0  0  0
   62.9025   33.6975   50.7909 H   0  0  0  0  0  0  0  0  0  0  0  0
   65.3585   33.2411   48.7522 H   0  0  0  0  0  0  0  0  0  0  0  0
   65.8980   33.6271   50.1593 H   0  0  0  0  0  0  0  0  0  0  0  0
   64.1340   31.0194   49.4070 H   0  0  0  0  0  0  0  0  0  0  0  0
   64.4608   31.0195   50.9284 H   0  0  0  0  0  0  0  0  0  0  0  0
   60.0071   30.2122   48.4356 H   0  0  0  0  0  0  0  0  0  0  0  0
   58.2250   28.8860   47.3047 H   0  0  0  0  0  0  0  0  0  0  0  0
  1  2  1  0
  2  3  2  0
  2  4  2  0
  2  5  1  0
  5  6  2  0
  6  7  1  0
  7  8  2  0
  8  9  1  0
  9 10  2  0
 10 11  1  0
 11 12  1  0
 12 13  2  0
 12 14  2  0
 12 15  1  0
 15 16  2  0
 16 17  1  0
 17 18  2  0
 18 19  1  0
 19 20  2  0
 20 21  1  0
 21 22  2  0
 22 23  1  0
 23 24  1  0
 24 25  1  0
 22 26  1  0
 18 27  1  0
 27 28  2  0
 10  5  1  0
 28 15  1  0
 26 19  1  0
 25 23  1  0
  1 29  1  0
  6 30  1  0
  7 31  1  0
  8 32  1  0
  9 33  1  0
 16 34  1  0
 17 35  1  0
 20 36  1  0
 23 37  1  0
 24 38  1  0
 24 39  1  0
 25 40  1  0
 25 41  1  0
 27 42  1  0
 28 43  1  0
M  CHG  2   1  -1  11  -1
M  END
>  <UniqueID>  (54) 
51

>  <SMILES>  (54) 
[NH-]S(=O)(=O)c1ccccc1[N-]S(=O)(=O)c1ccc(-c2cnc(C3CC3)o2)cc1

>  <Energy>  (54) 
345.4150050663734

>  <Genealogy>  (54) 
[NH-]S(=O)(=O)c1ccccc1[N-]S(=O)(=O)c1ccc(-c2cnc(C3CC3)o2)cc1 (protonated)
[NH-]S(=O)(=O)c1ccccc1[N-]S(=O)(=O)c1ccc(-c2cnc(C3CC3)o2)cc1 (3D coordinates assigned)
[NH-]S(=O)(=O)c1ccccc1[N-]S(=O)(=O)c1ccc(-c2cnc(C3CC3)o2)cc1 (nonaromatic ring conformer: 345.4150050663734 kcal/mol)

>  <smiles>  (54) 
NS(=O)(=O)c1ccccc1NS(=O)(=O)c1ccc(-c2cnc(C3CC3)o2)cc1

>  <score_type>  (54) 
oracle

>  <origin>  (54) 
adg

>  <m_score__min__energy>  (54) 
-13.460000000000001

>  <m_primary>  (54) 
energy

$$$$
54:0
     RDKit          3D

 59 61  0  0  0  0  0  0  0  0999 V2000
   53.5680   25.8910   45.2440 H   0  0  0  0  0  0  0  0  0  0  0  0
   54.2880   25.8810   45.9960 N   0  0  0  0  0  0  0  0  0  0  0  0
   55.5640   25.9570   45.7670 C   0  0  0  0  0  0  0  0  0  0  0  0
   56.2610   27.0910   45.9830 N   0  0  0  0  0  0  0  0  0  0  0  0
   57.5190   26.7650   45.6170 C   0  0  0  0  0  0  0  0  0  0  0  0
   58.6890   27.7030   45.6940 C   0  0  0  0  0  0  0  0  0  0  0  0
   58.7793   28.0702   46.7269 H   0  0  0  0  0  0  0  0  0  0  0  0
   59.5851   27.1459   45.3830 H   0  0  0  0  0  0  0  0  0  0  0  0
   58.5390   28.9110   44.7520 C   0  0  0  0  0  0  0  0  0  0  0  0
   58.3499   29.8054   45.3638 H   0  0  0  0  0  0  0  0  0  0  0  0
   59.4727   28.9825   44.1748 H   0  0  0  0  0  0  0  0  0  0  0  0
   57.3940   28.7710   43.7320 C   0  0  0  0  0  0  0  0  0  0  0  0
   57.6815   28.0158   42.9857 H   0  0  0  0  0  0  0  0  0  0  0  0
   56.4931   28.4786   44.2913 H   0  0  0  0  0  0  0  0  0  0  0  0
   57.0700   30.0810   43.0000 C   0  0  0  0  0  0  0  0  0  0  0  0
   57.7867   30.2214   42.1774 H   0  0  0  0  0  0  0  0  0  0  0  0
   56.0441   30.0216   42.6076 H   0  0  0  0  0  0  0  0  0  0  0  0
   57.1600   31.2460   43.9330 C   0  0  0  0  0  0  0  0  0  0  0  0
   56.8740   31.1960   45.2500 N   0  0  0  0  0  0  0  0  0  0  0  0
   57.1410   32.3980   45.7410 N   0  0  0  0  0  0  0  0  0  0  0  0
   57.5760   33.2020   44.7820 N   0  0  0  0  0  0  0  0  0  0  0  0
   58.1030   34.5420   45.0100 C   0  0  0  0  0  0  0  0  0  0  0  0
   58.2845   35.0344   44.0432 H   0  0  0  0  0  0  0  0  0  0  0  0
   57.3751   35.1294   45.5889 H   0  0  0  0  0  0  0  0  0  0  0  0
   59.3890   34.4480   45.7720 C   0  0  0  0  0  0  0  0  0  0  0  0
   60.0610   35.4930   45.9880 O   0  0  0  0  0  0  0  0  0  0  0  0
   59.8910   33.1630   46.1630 N   0  0  0  0  0  0  0  0  0  0  0  0
   59.3420   32.3170   45.8880 H   0  0  0  0  0  0  0  0  0  0  0  0
   61.1710   32.9690   46.7880 C   0  0  0  0  0  0  0  0  0  0  0  0
   62.2090   33.8880   46.5530 C   0  0  0  0  0  0  0  0  0  0  0  0
   62.0617   34.7038   45.8299 H   0  0  0  0  0  0  0  0  0  0  0  0
   63.4260   33.7740   47.2300 C   0  0  0  0  0  0  0  0  0  0  0  0
   64.2363   34.4902   47.0288 H   0  0  0  0  0  0  0  0  0  0  0  0
   63.6140   32.7510   48.1620 C   0  0  0  0  0  0  0  0  0  0  0  0
   64.5689   32.6686   48.7017 H   0  0  0  0  0  0  0  0  0  0  0  0
   62.5910   31.8320   48.4100 C   0  0  0  0  0  0  0  0  0  0  0  0
   62.7442   31.0320   49.1493 H   0  0  0  0  0  0  0  0  0  0  0  0
   61.3660   31.9210   47.7220 C   0  0  0  0  0  0  0  0  0  0  0  0
   60.3520   30.9240   47.9550 N   0  0  0  0  0  0  0  0  0  0  0  0
   59.6400   30.5100   47.0170 O   0  0  0  0  0  0  0  0  0  0  0  0
   60.2660   30.2960   49.1790 O   0  0  0  0  0  0  0  0  0  0  0  0
   57.6150   32.5120   43.6300 C   0  0  0  0  0  0  0  0  0  0  0  0
   57.9426   32.8811   42.6469 H   0  0  0  0  0  0  0  0  0  0  0  0
   57.5670   25.4490   45.2070 C   0  0  0  0  0  0  0  0  0  0  0  0
   58.4645   24.9101   44.8694 H   0  0  0  0  0  0  0  0  0  0  0  0
   56.3240   24.9390   45.2920 N   0  0  0  0  0  0  0  0  0  0  0  0
   55.9490   23.5580   44.9630 C   0  0  0  0  0  0  0  0  0  0  0  0
   56.6784   22.8709   45.4168 H   0  0  0  0  0  0  0  0  0  0  0  0
   54.9393   23.3694   45.3566 H   0  0  0  0  0  0  0  0  0  0  0  0
   55.9270   23.3320   43.4430 C   0  0  0  0  0  0  0  0  0  0  0  0
   54.8788   23.2498   43.1196 H   0  0  0  0  0  0  0  0  0  0  0  0
   56.4428   24.1882   42.9839 H   0  0  0  0  0  0  0  0  0  0  0  0
   56.6740   22.0650   42.9940 C   0  0  0  0  0  0  0  0  0  0  0  0
   55.9559   21.2336   42.9379 H   0  0  0  0  0  0  0  0  0  0  0  0
   57.1281   22.2749   42.0143 H   0  0  0  0  0  0  0  0  0  0  0  0
   57.7980   21.6770   43.9520 C   0  0  0  0  0  0  0  0  0  0  0  0
   57.4529   21.7961   44.9896 H   0  0  0  0  0  0  0  0  0  0  0  0
   58.0824   20.6287   43.7782 H   0  0  0  0  0  0  0  0  0  0  0  0
   58.6685   22.3267   43.7782 H   0  0  0  0  0  0  0  0  0  0  0  0
  1  2  1  0
  2  3  2  0
  3  4  1  0
  4  5  1  0
  5  6  1  0
  6  7  1  0
  6  8  1  0
  6  9  1  0
  9 10  1  0
  9 11  1  0
  9 12  1  0
 12 13  1  0
 12 14  1  0
 12 15  1  0
 15 16  1  0
 15 17  1  0
 15 18  1  0
 18 19  1  0
 19 20  2  0
 20 21  1  0
 21 22  1  0
 22 23  1  0
 22 24  1  0
 22 25  1  0
 25 26  2  0
 25 27  1  0
 27 28  1  0
 27 29  1  0
 29 30  2  0
 30 31  1  0
 30 32  1  0
 32 33  1  0
 32 34  2  0
 34 35  1  0
 34 36  1  0
 36 37  1  0
 36 38  2  0
 38 39  1  0
 39 40  2  0
 39 41  1  0
 21 42  1  0
 42 43  1  0
  5 44  2  0
 44 45  1  0
 44 46  1  0
 46 47  1  0
 47 48  1  0
 47 49  1  0
 47 50  1  0
 50 51  1  0
 50 52  1  0
 50 53  1  0
 53 54  1  0
 53 55  1  0
 53 56  1  0
 56 57  1  0
 56 58  1  0
 56 59  1  0
 46  3  1  0
 42 18  2  0
 38 29  1  0
M  CHG  3   4  -1  39   1  41  -1
M  END
>  <UniqueID>  (55) 
52

>  <SMILES>  (55) 
[H]/N=c1/[n-]c(CCCCc2cn(CC(=O)Nc3ccccc3[N+](=O)[O-])nn2)cn1CCCC

>  <Energy>  (55) 
119.88201447031481

>  <Genealogy>  (55) 
CCCCn1cc(CCCCc2cn(CC(=O)Nc3ccccc3[N+](=O)[O-])nn2)[n-]c1=N (protonated)
[H]/N=c1/[n-]c(CCCCc2cn(CC(=O)Nc3ccccc3[N+](=O)[O-])nn2)cn1CCCC (cis-trans isomerization)
[H]/N=c1/[n-]c(CCCCc2cn(CC(=O)Nc3ccccc3[N+](=O)[O-])nn2)cn1CCCC (3D coordinates assigned)
[H]/N=c1/[n-]c(CCCCc2cn(CC(=O)Nc3ccccc3[N+](=O)[O-])nn2)cn1CCCC (optimized conformer: 119.88201447031481 kcal/mol)

>  <smiles>  (55) 
CCCCn1cc(CCCCc2cn(CC(=O)Nc3ccccc3[N+](=O)[O-])nn2)[nH]c1=N

>  <score_type>  (55) 
oracle

>  <origin>  (55) 
adg

>  <m_score__min__energy>  (55) 
-11.44

>  <m_primary>  (55) 
energy

$$$$
55:0
     RDKit          3D

 58 60  0  0  0  0  0  0  0  0999 V2000
   58.0090   21.6720   44.0950 C   0  0  0  0  0  0  0  0  0  0  0  0
   56.6870   21.8720   42.8600 S   0  0  0  0  0  0  0  0  0  0  0  0
   56.1300   23.5230   43.4270 C   0  0  0  0  0  0  0  0  0  0  0  0
   55.4950   23.4450   44.8210 C   0  0  0  0  0  0  0  0  0  0  0  0
   55.1630   24.8230   45.4040 C   0  0  0  0  0  0  0  0  0  0  0  0
   55.7280   24.9480   46.7460 N   0  0  0  0  0  0  0  0  0  0  0  0
   57.4060   25.3860   46.6470 S   0  0  0  0  0  0  0  0  0  0  0  0
   58.0600   25.1220   47.9740 O   0  0  0  0  0  0  0  0  0  0  0  0
   58.1040   24.5600   45.6020 O   0  0  0  0  0  0  0  0  0  0  0  0
   57.5560   27.0980   46.2590 C   0  0  0  0  0  0  0  0  0  0  0  0
   58.5780   27.8670   46.8290 C   0  0  0  0  0  0  0  0  0  0  0  0
   58.6930   29.2250   46.5200 C   0  0  0  0  0  0  0  0  0  0  0  0
   57.7810   29.8340   45.6430 C   0  0  0  0  0  0  0  0  0  0  0  0
   57.8940   31.2790   45.3300 C   0  0  0  0  0  0  0  0  0  0  0  0
   58.1310   32.1970   46.3670 C   0  0  0  0  0  0  0  0  0  0  0  0
   58.3050   33.5620   46.0890 C   0  0  0  0  0  0  0  0  0  0  0  0
   58.6610   34.5200   47.1970 C   0  0  0  0  0  0  0  0  0  0  0  0
   60.0440   35.0060   47.0570 N   0  0  0  0  0  0  0  0  0  0  0  0
   60.8760   34.1280   46.2150 C   0  0  0  0  0  0  0  0  0  0  0  0
   61.8750   33.3710   47.0520 C   0  0  0  0  0  0  0  0  0  0  0  0
   61.4930   32.2080   47.7440 C   0  0  0  0  0  0  0  0  0  0  0  0
   62.4090   31.5450   48.5650 C   0  0  0  0  0  0  0  0  0  0  0  0
   63.7110   32.0310   48.6980 C   0  0  0  0  0  0  0  0  0  0  0  0
   64.1040   33.1760   47.9990 C   0  0  0  0  0  0  0  0  0  0  0  0
   63.1930   33.8410   47.1750 C   0  0  0  0  0  0  0  0  0  0  0  0
   58.1820   34.0180   44.7680 C   0  0  0  0  0  0  0  0  0  0  0  0
   57.9240   33.1160   43.7360 C   0  0  0  0  0  0  0  0  0  0  0  0
   57.7810   31.7490   44.0060 C   0  0  0  0  0  0  0  0  0  0  0  0
   57.5090   30.8620   42.9640 O   0  0  0  0  0  0  0  0  0  0  0  0
   56.7720   29.0530   45.0550 C   0  0  0  0  0  0  0  0  0  0  0  0
   56.6610   27.6940   45.3630 C   0  0  0  0  0  0  0  0  0  0  0  0
   57.5795   21.7370   45.1056 H   0  0  0  0  0  0  0  0  0  0  0  0
   58.4889   20.6910   43.9629 H   0  0  0  0  0  0  0  0  0  0  0  0
   58.7575   22.4671   43.9629 H   0  0  0  0  0  0  0  0  0  0  0  0
   56.9957   24.2006   43.4644 H   0  0  0  0  0  0  0  0  0  0  0  0
   55.3748   23.8977   42.7204 H   0  0  0  0  0  0  0  0  0  0  0  0
   54.5658   22.8605   44.7510 H   0  0  0  0  0  0  0  0  0  0  0  0
   56.2276   22.9713   45.4910 H   0  0  0  0  0  0  0  0  0  0  0  0
   55.5871   25.6043   44.7561 H   0  0  0  0  0  0  0  0  0  0  0  0
   54.0704   24.9372   45.4605 H   0  0  0  0  0  0  0  0  0  0  0  0
   59.2930   27.4004   47.5226 H   0  0  0  0  0  0  0  0  0  0  0  0
   59.5029   29.8205   46.9665 H   0  0  0  0  0  0  0  0  0  0  0  0
   58.1807   31.8425   47.4071 H   0  0  0  0  0  0  0  0  0  0  0  0
   57.9739   35.3784   47.1637 H   0  0  0  0  0  0  0  0  0  0  0  0
   58.5735   33.9902   48.1570 H   0  0  0  0  0  0  0  0  0  0  0  0
   59.9970   35.9400   46.5850 H   0  0  0  0  0  0  0  0  0  0  0  0
   60.2272   33.4104   45.6915 H   0  0  0  0  0  0  0  0  0  0  0  0
   61.4229   34.7499   45.4910 H   0  0  0  0  0  0  0  0  0  0  0  0
   60.4696   31.8188   47.6387 H   0  0  0  0  0  0  0  0  0  0  0  0
   62.1036   30.6382   49.1076 H   0  0  0  0  0  0  0  0  0  0  0  0
   64.4274   31.5131   49.3526 H   0  0  0  0  0  0  0  0  0  0  0  0
   65.1323   33.5539   48.0980 H   0  0  0  0  0  0  0  0  0  0  0  0
   63.5091   34.7366   46.6200 H   0  0  0  0  0  0  0  0  0  0  0  0
   58.2893   35.0899   44.5455 H   0  0  0  0  0  0  0  0  0  0  0  0
   57.8321   33.4808   42.7023 H   0  0  0  0  0  0  0  0  0  0  0  0
   58.1400   30.1030   42.7340 H   0  0  0  0  0  0  0  0  0  0  0  0
   56.0656   29.5133   44.3485 H   0  0  0  0  0  0  0  0  0  0  0  0
   55.8669   27.0904   44.8992 H   0  0  0  0  0  0  0  0  0  0  0  0
  1  2  1  0
  2  3  1  0
  3  4  1  0
  4  5  1  0
  5  6  1  0
  6  7  1  0
  7  8  2  0
  7  9  2  0
  7 10  1  0
 10 11  2  0
 11 12  1  0
 12 13  2  0
 13 14  1  0
 14 15  2  0
 15 16  1  0
 16 17  1  0
 17 18  1  0
 18 19  1  0
 19 20  1  0
 20 21  2  0
 21 22  1  0
 22 23  2  0
 23 24  1  0
 24 25  2  0
 16 26  2  0
 26 27  1  0
 27 28  2  0
 28 29  1  0
 13 30  1  0
 30 31  2  0
 31 10  1  0
 28 14  1  0
 25 20  1  0
  1 32  1  0
  1 33  1  0
  1 34  1  0
  3 35  1  0
  3 36  1  0
  4 37  1  0
  4 38  1  0
  5 39  1  0
  5 40  1  0
 11 41  1  0
 12 42  1  0
 15 43  1  0
 17 44  1  0
 17 45  1  0
 18 46  1  0
 19 47  1  0
 19 48  1  0
 21 49  1  0
 22 50  1  0
 23 51  1  0
 24 52  1  0
 25 53  1  0
 26 54  1  0
 27 55  1  0
 29 56  1  0
 30 57  1  0
 31 58  1  0
M  CHG  1   6  -1
M  END
>  <UniqueID>  (56) 
53

>  <SMILES>  (56) 
CSCCC[N-]S(=O)(=O)c1ccc(-c2cc(CNCc3ccccc3)ccc2O)cc1

>  <Energy>  (56) 
50.761362024841794

>  <Genealogy>  (56) 
CSCCC[N-]S(=O)(=O)c1ccc(-c2cc(CNCc3ccccc3)ccc2O)cc1 (protonated)
CSCCC[N-]S(=O)(=O)c1ccc(-c2cc(CNCc3ccccc3)ccc2O)cc1 (3D coordinates assigned)
CSCCC[N-]S(=O)(=O)c1ccc(-c2cc(CNCc3ccccc3)ccc2O)cc1 (optimized conformer: 50.761362024841794 kcal/mol)

>  <smiles>  (56) 
CSCCCNS(=O)(=O)c1ccc(-c2cc(CNCc3ccccc3)ccc2O)cc1

>  <score_type>  (56) 
oracle

>  <origin>  (56) 
adg

>  <m_score__min__energy>  (56) 
-10.460000000000001

>  <m_primary>  (56) 
energy

$$$$
56:0
     RDKit          3D

 27 28  0  0  0  0  0  0  0  0999 V2000
   58.6882   23.5050   44.6996 H   0  0  0  0  0  0  0  0  0  0  0  0
   57.8010   24.1000   44.9620 C   0  0  0  0  0  0  0  0  0  0  0  0
   57.9550   25.3800   45.5040 C   0  0  0  0  0  0  0  0  0  0  0  0
   58.9635   25.7844   45.6755 H   0  0  0  0  0  0  0  0  0  0  0  0
   56.8250   26.1530   45.8310 C   0  0  0  0  0  0  0  0  0  0  0  0
   56.9440   27.4610   46.4120 N   0  0  0  0  0  0  0  0  0  0  0  0
   58.1540   28.1020   46.8320 C   0  0  0  0  0  0  0  0  0  0  0  0
   58.7300   27.7360   47.8920 O   0  0  0  0  0  0  0  0  0  0  0  0
   58.7170   29.1210   45.9940 N   0  0  0  0  0  0  0  0  0  0  0  0
   58.2110   30.2860   45.7100 C   0  0  0  0  0  0  0  0  0  0  0  0
   57.0110   30.4150   45.1060 N   0  0  0  0  0  0  0  0  0  0  0  0
   56.6600   31.6840   44.8980 N   0  0  0  0  0  0  0  0  0  0  0  0
   57.5730   32.5730   45.3490 C   0  0  0  0  0  0  0  0  0  0  0  0
   57.4390   34.0530   45.1820 C   0  0  0  0  0  0  0  0  0  0  0  0
   56.9389   34.4728   46.0673 H   0  0  0  0  0  0  0  0  0  0  0  0
   56.8460   34.2554   44.2779 H   0  0  0  0  0  0  0  0  0  0  0  0
   58.8090   34.7020   45.0260 C   0  0  0  0  0  0  0  0  0  0  0  0
   59.2346   34.9036   46.0201 H   0  0  0  0  0  0  0  0  0  0  0  0
   59.4752   34.0238   44.4726 H   0  0  0  0  0  0  0  0  0  0  0  0
   58.7061   35.6471   44.4726 H   0  0  0  0  0  0  0  0  0  0  0  0
   58.9080   31.7950   46.0230 S   0  0  0  0  0  0  0  0  0  0  0  0
   55.5450   25.6080   45.6400 C   0  0  0  0  0  0  0  0  0  0  0  0
   54.4150   26.3410   45.9840 O   0  0  0  0  0  0  0  0  0  0  0  0
   55.3960   24.3270   45.0970 C   0  0  0  0  0  0  0  0  0  0  0  0
   54.3898   23.9109   44.9405 H   0  0  0  0  0  0  0  0  0  0  0  0
   56.5230   23.5750   44.7530 C   0  0  0  0  0  0  0  0  0  0  0  0
   56.3330   21.9680   44.0750 Cl  0  0  0  0  0  0  0  0  0  0  0  0
  1  2  1  0
  2  3  2  0
  3  4  1  0
  3  5  1  0
  5  6  1  0
  6  7  1  0
  7  8  2  0
  7  9  1  0
  9 10  2  0
 10 11  1  0
 11 12  1  0
 12 13  2  0
 13 14  1  0
 14 15  1  0
 14 16  1  0
 14 17  1  0
 17 18  1  0
 17 19  1  0
 17 20  1  0
 13 21  1  0
  5 22  2  0
 22 23  1  0
 22 24  1  0
 24 25  1  0
 24 26  2  0
 26 27  1  0
 26  2  1  0
 21 10  1  0
M  CHG  3   6  -1  11  -1  23  -1
M  END
>  <UniqueID>  (57) 
54

>  <SMILES>  (57) 
CCc1n[n-]/c(=N/C(=O)[N-]c2ccc(Cl)cc2[O-])s1

>  <Energy>  (57) 
64.55655854958145

>  <Genealogy>  (57) 
CCc1n[n-]c(=NC(=O)[N-]c2ccc(Cl)cc2[O-])s1 (protonated)
CCc1n[n-]/c(=N/C(=O)[N-]c2ccc(Cl)cc2[O-])s1 (cis-trans isomerization)
CCc1n[n-]/c(=N/C(=O)[N-]c2ccc(Cl)cc2[O-])s1 (3D coordinates assigned)
CCc1n[n-]/c(=N/C(=O)[N-]c2ccc(Cl)cc2[O-])s1 (optimized conformer: 64.55655854958145 kcal/mol)

>  <smiles>  (57) 
CCc1n[nH]c(=NC(=O)Nc2ccc(Cl)cc2O)s1

>  <score_type>  (57) 
oracle

>  <origin>  (57) 
adg

>  <m_score__min__energy>  (57) 
-13.16

>  <m_primary>  (57) 
energy

$$$$
57:0
     RDKit          3D

 19 19  0  0  0  0  0  0  0  0999 V2000
   55.8740   22.7200   46.4070 C   0  0  0  0  0  0  0  0  0  0  0  0
   55.5870   24.0670   46.7650 O   0  0  0  0  0  0  0  0  0  0  0  0
   56.3230   25.2090   46.3930 C   0  0  0  0  0  0  0  0  0  0  0  0
   57.7410   25.2680   46.4060 C   0  0  0  0  0  0  0  0  0  0  0  0
   58.4910   24.1640   46.7990 O   0  0  0  0  0  0  0  0  0  0  0  0
   58.4050   26.4540   46.0190 C   0  0  0  0  0  0  0  0  0  0  0  0
   59.8810   26.5740   46.0130 C   0  0  0  0  0  0  0  0  0  0  0  0
   60.5360   26.7770   47.0690 O   0  0  0  0  0  0  0  0  0  0  0  0
   57.6510   27.5670   45.6230 C   0  0  0  0  0  0  0  0  0  0  0  0
   56.2590   27.5130   45.6100 C   0  0  0  0  0  0  0  0  0  0  0  0
   55.5330   28.6300   45.2120 O   0  0  0  0  0  0  0  0  0  0  0  0
   55.5930   26.3450   45.9910 C   0  0  0  0  0  0  0  0  0  0  0  0
   54.1980   26.3290   45.9640 O   0  0  0  0  0  0  0  0  0  0  0  0
   56.0023   22.1177   47.3185 H   0  0  0  0  0  0  0  0  0  0  0  0
   55.0423   22.3133   45.8129 H   0  0  0  0  0  0  0  0  0  0  0  0
   56.7992   22.6877   45.8129 H   0  0  0  0  0  0  0  0  0  0  0  0
   60.4206   26.4832   45.0587 H   0  0  0  0  0  0  0  0  0  0  0  0
   58.1632   28.4920   45.3196 H   0  0  0  0  0  0  0  0  0  0  0  0
   53.6550   25.5790   46.3730 H   0  0  0  0  0  0  0  0  0  0  0  0
  1  2  1  0
  2  3  1  0
  3  4  2  0
  4  5  1  0
  4  6  1  0
  6  7  1  0
  7  8  2  0
  6  9  2  0
  9 10  1  0
 10 11  1  0
 10 12  2  0
 12 13  1  0
 12  3  1  0
  1 14  1  0
  1 15  1  0
  1 16  1  0
  7 17  1  0
  9 18  1  0
 13 19  1  0
M  CHG  2   5  -1  11  -1
M  END
>  <UniqueID>  (58) 
55

>  <SMILES>  (58) 
COc1c([O-])c(C=O)cc([O-])c1O

>  <Energy>  (58) 
22.29235167332828

>  <Genealogy>  (58) 
COc1c([O-])c(C=O)cc([O-])c1O (protonated)
COc1c([O-])c(C=O)cc([O-])c1O (3D coordinates assigned)
COc1c([O-])c(C=O)cc([O-])c1O (optimized conformer: 22.29235167332828 kcal/mol)

>  <smiles>  (58) 
COc1c(O)c(O)cc(C=O)c1O

>  <score_type>  (58) 
oracle

>  <origin>  (58) 
adg

>  <m_score__min__energy>  (58) 
-10.68

>  <m_primary>  (58) 
energy

$$$$
58:0
     RDKit          3D

 26 27  0  0  0  0  0  0  0  0999 V2000
   54.7610   26.3480   45.9970 N   0  0  0  0  0  0  0  0  0  0  0  0
   55.7790   24.9630   46.1680 S   0  0  0  0  0  0  0  0  0  0  0  0
   54.9880   23.7230   45.8580 O   0  0  0  0  0  0  0  0  0  0  0  0
   56.2820   24.8870   47.5820 O   0  0  0  0  0  0  0  0  0  0  0  0
   57.1570   25.0780   45.0390 C   0  0  0  0  0  0  0  0  0  0  0  0
   58.2780   25.8790   45.6530 C   0  0  0  0  0  0  0  0  0  0  0  0
   59.4170   25.2120   46.1330 C   0  0  0  0  0  0  0  0  0  0  0  0
   60.4820   25.9280   46.6800 C   0  0  0  0  0  0  0  0  0  0  0  0
   60.4340   27.3220   46.7480 C   0  0  0  0  0  0  0  0  0  0  0  0
   59.3110   28.0150   46.2630 C   0  0  0  0  0  0  0  0  0  0  0  0
   59.2330   29.4200   46.3060 C   0  0  0  0  0  0  0  0  0  0  0  0
   60.1740   30.1060   46.7910 O   0  0  0  0  0  0  0  0  0  0  0  0
   58.1010   30.0700   45.8060 C   0  0  0  0  0  0  0  0  0  0  0  0
   57.0510   29.3170   45.2630 C   0  0  0  0  0  0  0  0  0  0  0  0
   55.8460   29.9710   44.7250 C   0  0  0  0  0  0  0  0  0  0  0  0
   54.8040   29.2970   44.5150 O   0  0  0  0  0  0  0  0  0  0  0  0
   55.8440   31.3320   44.4430 O   0  0  0  0  0  0  0  0  0  0  0  0
   57.1450   27.9600   45.2320 N   0  0  0  0  0  0  0  0  0  0  0  0
   58.2290   27.2890   45.7090 C   0  0  0  0  0  0  0  0  0  0  0  0
   55.2260   26.9860   45.3130 H   0  0  0  0  0  0  0  0  0  0  0  0
   57.5202   24.0660   44.8070 H   0  0  0  0  0  0  0  0  0  0  0  0
   56.8225   25.5811   44.1197 H   0  0  0  0  0  0  0  0  0  0  0  0
   59.4698   24.1147   46.0771 H   0  0  0  0  0  0  0  0  0  0  0  0
   61.3642   25.3917   47.0597 H   0  0  0  0  0  0  0  0  0  0  0  0
   61.2771   27.8793   47.1822 H   0  0  0  0  0  0  0  0  0  0  0  0
   58.0346   31.1675   45.8386 H   0  0  0  0  0  0  0  0  0  0  0  0
  1  2  1  0
  2  3  2  0
  2  4  2  0
  2  5  1  0
  5  6  1  0
  6  7  2  0
  7  8  1  0
  8  9  2  0
  9 10  1  0
 10 11  1  0
 11 12  2  0
 11 13  1  0
 13 14  2  0
 14 15  1  0
 15 16  2  0
 15 17  1  0
 14 18  1  0
 18 19  1  0
 19  6  1  0
 19 10  2  0
  1 20  1  0
  5 21  1  0
  5 22  1  0
  7 23  1  0
  8 24  1  0
  9 25  1  0
 13 26  1  0
M  CHG  3   1  -1  17  -1  18  -1
M  END
>  <UniqueID>  (59) 
56

>  <SMILES>  (59) 
[NH-]S(=O)(=O)Cc1cccc2c(=O)cc(C(=O)[O-])[n-]c12

>  <Energy>  (59) 
25.571510081521385

>  <Genealogy>  (59) 
[NH-]S(=O)(=O)Cc1cccc2c(=O)cc(C(=O)[O-])[n-]c12 (protonated)
[NH-]S(=O)(=O)Cc1cccc2c(=O)cc(C(=O)[O-])[n-]c12 (3D coordinates assigned)
[NH-]S(=O)(=O)Cc1cccc2c(=O)cc(C(=O)[O-])[n-]c12 (optimized conformer: 25.571510081521385 kcal/mol)

>  <smiles>  (59) 
NS(=O)(=O)Cc1cccc2c(=O)cc(C(=O)O)[nH]c12

>  <score_type>  (59) 
oracle

>  <origin>  (59) 
adg

>  <m_score__min__energy>  (59) 
-13.17

>  <m_primary>  (59) 
energy

$$$$
59:0
     RDKit          3D

 51 53  0  0  0  0  0  0  0  0999 V2000
   55.4560   29.3430   44.8900 O   0  0  0  0  0  0  0  0  0  0  0  0
   56.6780   29.4980   44.6320 C   0  0  0  0  0  0  0  0  0  0  0  0
   57.5290   28.3450   44.6050 N   0  0  0  0  0  0  0  0  0  0  0  0
   58.9020   28.3120   45.0990 C   0  0  0  0  0  0  0  0  0  0  0  0
   59.0410   27.2620   46.2020 C   0  0  0  0  0  0  0  0  0  0  0  0
   57.7080   27.0100   46.9240 C   0  0  0  0  0  0  0  0  0  0  0  0
   57.5870   25.5660   47.4280 C   0  0  0  0  0  0  0  0  0  0  0  0
   56.5150   24.8480   46.7320 N   0  0  0  0  0  0  0  0  0  0  0  0
   55.4970   25.3620   46.0180 C   0  0  0  0  0  0  0  0  0  0  0  0
   55.2870   26.7160   45.7710 O   0  0  0  0  0  0  0  0  0  0  0  0
   54.6950   24.3380   45.5690 C   0  0  0  0  0  0  0  0  0  0  0  0
   55.1980   23.1620   46.0020 N   0  0  0  0  0  0  0  0  0  0  0  0
   56.2970   23.5160   46.7030 C   0  0  0  0  0  0  0  0  0  0  0  0
   57.0400   22.6770   47.2760 O   0  0  0  0  0  0  0  0  0  0  0  0
   57.1800   30.8530   44.3310 C   0  0  0  0  0  0  0  0  0  0  0  0
   57.4680   31.2350   43.0120 C   0  0  0  0  0  0  0  0  0  0  0  0
   57.9570   32.5160   42.7410 C   0  0  0  0  0  0  0  0  0  0  0  0
   58.1780   33.4180   43.7840 C   0  0  0  0  0  0  0  0  0  0  0  0
   57.9280   33.0400   45.1140 C   0  0  0  0  0  0  0  0  0  0  0  0
   58.1780   34.0140   46.2460 C   0  0  0  0  0  0  0  0  0  0  0  0
   59.4900   33.8450   46.9090 N   0  0  0  0  0  0  0  0  0  0  0  0
   60.6370   34.0420   46.0050 C   0  0  0  0  0  0  0  0  0  0  0  0
   61.9620   33.8530   46.7740 C   0  0  0  0  0  0  0  0  0  0  0  0
   61.7370   33.7110   48.1650 O   0  0  0  0  0  0  0  0  0  0  0  0
   60.9620   32.5500   48.4110 C   0  0  0  0  0  0  0  0  0  0  0  0
   59.6210   32.5770   47.6480 C   0  0  0  0  0  0  0  0  0  0  0  0
   57.4250   31.7550   45.3790 C   0  0  0  0  0  0  0  0  0  0  0  0
   59.5804   28.0606   44.2704 H   0  0  0  0  0  0  0  0  0  0  0  0
   59.1599   29.2996   45.5089 H   0  0  0  0  0  0  0  0  0  0  0  0
   59.3866   26.3188   45.7537 H   0  0  0  0  0  0  0  0  0  0  0  0
   59.7637   27.6376   46.9414 H   0  0  0  0  0  0  0  0  0  0  0  0
   57.6359   27.6926   47.7835 H   0  0  0  0  0  0  0  0  0  0  0  0
   56.8950   27.1862   46.2042 H   0  0  0  0  0  0  0  0  0  0  0  0
   58.5397   25.0445   47.2538 H   0  0  0  0  0  0  0  0  0  0  0  0
   57.3484   25.5913   48.5015 H   0  0  0  0  0  0  0  0  0  0  0  0
   55.8820   27.2400   45.1430 H   0  0  0  0  0  0  0  0  0  0  0  0
   53.7896   24.4581   44.9559 H   0  0  0  0  0  0  0  0  0  0  0  0
   57.3084   30.5237   42.1882 H   0  0  0  0  0  0  0  0  0  0  0  0
   58.1683   32.8144   41.7036 H   0  0  0  0  0  0  0  0  0  0  0  0
   58.5497   34.4295   43.5632 H   0  0  0  0  0  0  0  0  0  0  0  0
   58.1244   35.0354   45.8412 H   0  0  0  0  0  0  0  0  0  0  0  0
   57.4095   33.8186   47.0084 H   0  0  0  0  0  0  0  0  0  0  0  0
   60.5844   33.3089   45.1866 H   0  0  0  0  0  0  0  0  0  0  0  0
   60.6013   35.0633   45.5980 H   0  0  0  0  0  0  0  0  0  0  0  0
   62.4675   32.9507   46.3994 H   0  0  0  0  0  0  0  0  0  0  0  0
   62.5853   34.7450   46.6137 H   0  0  0  0  0  0  0  0  0  0  0  0
   61.5345   31.6667   48.0915 H   0  0  0  0  0  0  0  0  0  0  0  0
   60.7394   32.5122   49.4876 H   0  0  0  0  0  0  0  0  0  0  0  0
   59.5877   31.7366   46.9391 H   0  0  0  0  0  0  0  0  0  0  0  0
   58.7933   32.4898   48.3672 H   0  0  0  0  0  0  0  0  0  0  0  0
   57.2213   31.4529   46.4169 H   0  0  0  0  0  0  0  0  0  0  0  0
  1  2  2  0
  2  3  1  0
  3  4  1  0
  4  5  1  0
  5  6  1  0
  6  7  1  0
  7  8  1  0
  8  9  1  0
  9 10  1  0
  9 11  2  0
 11 12  1  0
 12 13  1  0
 13 14  2  0
  2 15  1  0
 15 16  2  0
 16 17  1  0
 17 18  2  0
 18 19  1  0
 19 20  1  0
 20 21  1  0
 21 22  1  0
 22 23  1  0
 23 24  1  0
 24 25  1  0
 25 26  1  0
 19 27  2  0
 13  8  1  0
 27 15  1  0
 26 21  1  0
  4 28  1  0
  4 29  1  0
  5 30  1  0
  5 31  1  0
  6 32  1  0
  6 33  1  0
  7 34  1  0
  7 35  1  0
 10 36  1  0
 11 37  1  0
 16 38  1  0
 17 39  1  0
 18 40  1  0
 20 41  1  0
 20 42  1  0
 22 43  1  0
 22 44  1  0
 23 45  1  0
 23 46  1  0
 25 47  1  0
 25 48  1  0
 26 49  1  0
 26 50  1  0
 27 51  1  0
M  CHG  2   3  -1  12  -1
M  END
>  <UniqueID>  (60) 
57

>  <SMILES>  (60) 
O=C([N-]CCCCn1c(O)c[n-]c1=O)c1cccc(CN2CCOCC2)c1

>  <Energy>  (60) 
92.2963784550758

>  <Genealogy>  (60) 
O=C([N-]CCCCn1c(O)c[n-]c1=O)c1cccc(CN2CCOCC2)c1 (protonated)
O=C([N-]CCCCn1c(O)c[n-]c1=O)c1cccc(CN2CCOCC2)c1 (3D coordinates assigned)
O=C([N-]CCCCn1c(O)c[n-]c1=O)c1cccc(CN2CCOCC2)c1 (nonaromatic ring conformer: 92.2963784550758 kcal/mol)

>  <smiles>  (60) 
O=C(NCCCCn1c(O)c[nH]c1=O)c1cccc(CN2CCOCC2)c1

>  <score_type>  (60) 
oracle

>  <origin>  (60) 
adg

>  <m_score__min__energy>  (60) 
-11.449999999999999

>  <m_primary>  (60) 
energy

$$$$
60:0
     RDKit          3D

 47 49  0  0  0  0  0  0  0  0999 V2000
   61.6944   29.5645   44.5899 H   0  0  0  0  0  0  0  0  0  0  0  0
   60.8520   29.3210   45.2540 C   0  0  0  0  0  0  0  0  0  0  0  0
   60.9990   29.3990   46.5990 N   0  0  0  0  0  0  0  0  0  0  0  0
   59.9900   29.0940   47.4550 C   0  0  0  0  0  0  0  0  0  0  0  0
   60.2150   29.2530   48.7340 N   0  0  0  0  0  0  0  0  0  0  0  0
   59.8630   30.3720   49.6110 C   0  0  0  0  0  0  0  0  0  0  0  0
   59.4076   31.1730   49.0101 H   0  0  0  0  0  0  0  0  0  0  0  0
   59.1525   30.0166   50.3719 H   0  0  0  0  0  0  0  0  0  0  0  0
   61.1110   30.9180   50.3160 C   0  0  0  0  0  0  0  0  0  0  0  0
   60.8003   31.5528   51.1589 H   0  0  0  0  0  0  0  0  0  0  0  0
   61.7117   30.0698   50.6763 H   0  0  0  0  0  0  0  0  0  0  0  0
   61.9470   31.7320   49.3680 C   0  0  0  0  0  0  0  0  0  0  0  0
   62.5650   32.9120   49.8110 C   0  0  0  0  0  0  0  0  0  0  0  0
   62.4353   33.2496   50.8498 H   0  0  0  0  0  0  0  0  0  0  0  0
   63.3450   33.6530   48.9230 C   0  0  0  0  0  0  0  0  0  0  0  0
   63.8287   34.5825   49.2576 H   0  0  0  0  0  0  0  0  0  0  0  0
   63.5100   33.2130   47.6110 C   0  0  0  0  0  0  0  0  0  0  0  0
   64.1193   33.7938   46.9029 H   0  0  0  0  0  0  0  0  0  0  0  0
   62.8940   32.0270   47.2040 C   0  0  0  0  0  0  0  0  0  0  0  0
   63.0218   31.6690   46.1718 H   0  0  0  0  0  0  0  0  0  0  0  0
   62.1360   31.3130   48.0810 N   0  0  0  0  0  0  0  0  0  0  0  0
   61.6910   30.4270   47.7510 H   0  0  0  0  0  0  0  0  0  0  0  0
   58.7570   28.6450   46.9100 C   0  0  0  0  0  0  0  0  0  0  0  0
   57.8070   28.2860   47.6590 O   0  0  0  0  0  0  0  0  0  0  0  0
   58.5980   28.5900   45.5460 N   0  0  0  0  0  0  0  0  0  0  0  0
   57.2980   28.2320   44.9530 C   0  0  0  0  0  0  0  0  0  0  0  0
   56.7695   27.5398   45.6250 H   0  0  0  0  0  0  0  0  0  0  0  0
   57.4663   27.7506   43.9783 H   0  0  0  0  0  0  0  0  0  0  0  0
   56.4670   29.4640   44.7560 C   0  0  0  0  0  0  0  0  0  0  0  0
   55.2150   29.4070   44.8870 O   0  0  0  0  0  0  0  0  0  0  0  0
   57.1030   30.6930   44.3960 N   0  0  0  0  0  0  0  0  0  0  0  0
   56.6460   31.9940   44.8620 C   0  0  0  0  0  0  0  0  0  0  0  0
   56.3466   32.6085   44.0002 H   0  0  0  0  0  0  0  0  0  0  0  0
   55.7846   31.8630   45.5335 H   0  0  0  0  0  0  0  0  0  0  0  0
   57.7600   32.6760   45.6010 C   0  0  0  0  0  0  0  0  0  0  0  0
   58.3670   33.8250   45.0660 C   0  0  0  0  0  0  0  0  0  0  0  0
   58.0423   34.2117   44.0887 H   0  0  0  0  0  0  0  0  0  0  0  0
   59.3830   34.4790   45.7720 C   0  0  0  0  0  0  0  0  0  0  0  0
   59.8634   35.3711   45.3438 H   0  0  0  0  0  0  0  0  0  0  0  0
   59.7880   33.9990   47.0220 C   0  0  0  0  0  0  0  0  0  0  0  0
   60.7630   34.6420   47.7090 F   0  0  0  0  0  0  0  0  0  0  0  0
   59.1750   32.8680   47.5680 C   0  0  0  0  0  0  0  0  0  0  0  0
   59.4897   32.4947   48.5537 H   0  0  0  0  0  0  0  0  0  0  0  0
   58.1620   32.2100   46.8630 C   0  0  0  0  0  0  0  0  0  0  0  0
   57.6782   31.3236   47.2991 H   0  0  0  0  0  0  0  0  0  0  0  0
   59.6290   28.9310   44.7190 C   0  0  0  0  0  0  0  0  0  0  0  0
   59.4923   28.8973   43.6280 H   0  0  0  0  0  0  0  0  0  0  0  0
  1  2  1  0
  2  3  1  0
  3  4  1  0
  4  5  2  0
  5  6  1  0
  6  7  1  0
  6  8  1  0
  6  9  1  0
  9 10  1  0
  9 11  1  0
  9 12  1  0
 12 13  2  0
 13 14  1  0
 13 15  1  0
 15 16  1  0
 15 17  2  0
 17 18  1  0
 17 19  1  0
 19 20  1  0
 19 21  2  0
 21 22  1  0
  4 23  1  0
 23 24  2  0
 23 25  1  0
 25 26  1  0
 26 27  1  0
 26 28  1  0
 26 29  1  0
 29 30  2  0
 29 31  1  0
 31 32  1  0
 32 33  1  0
 32 34  1  0
 32 35  1  0
 35 36  2  0
 36 37  1  0
 36 38  1  0
 38 39  1  0
 38 40  2  0
 40 41  1  0
 40 42  1  0
 42 43  1  0
 42 44  2  0
 44 45  1  0
 25 46  1  0
 46 47  1  0
 46  2  2  0
 21 12  1  0
 44 35  1  0
M  CHG  3   3  -1  21   1  31  -1
M  END
>  <UniqueID>  (61) 
58

>  <SMILES>  (61) 
O=C(Cn1cc[n-]/c(=N/CCc2cccc[nH+]2)c1=O)[N-]Cc1ccc(F)cc1

>  <Energy>  (61) 
46.98773717727331

>  <Genealogy>  (61) 
O=C(Cn1cc[n-]c(=NCCc2cccc[nH+]2)c1=O)[N-]Cc1ccc(F)cc1 (protonated)
O=C(Cn1cc[n-]/c(=N/CCc2cccc[nH+]2)c1=O)[N-]Cc1ccc(F)cc1 (cis-trans isomerization)
O=C(Cn1cc[n-]/c(=N/CCc2cccc[nH+]2)c1=O)[N-]Cc1ccc(F)cc1 (3D coordinates assigned)
O=C(Cn1cc[n-]/c(=N/CCc2cccc[nH+]2)c1=O)[N-]Cc1ccc(F)cc1 (optimized conformer: 46.98773717727331 kcal/mol)

>  <smiles>  (61) 
O=C(Cn1cc[nH]c(=NCCc2ccccn2)c1=O)NCc1ccc(F)cc1

>  <score_type>  (61) 
oracle

>  <origin>  (61) 
adg

>  <m_score__min__energy>  (61) 
-8.8499999999999996

>  <m_primary>  (61) 
energy

$$$$
61:0
     RDKit          3D

 43 46  0  0  0  0  0  0  0  0999 V2000
   55.4380   29.4610   45.1170 O   0  0  0  0  0  0  0  0  0  0  0  0
   56.6890   29.3520   45.2370 C   0  0  0  0  0  0  0  0  0  0  0  0
   57.5490   30.3720   44.7150 N   0  0  0  0  0  0  0  0  0  0  0  0
   57.7170   31.7010   45.2290 C   0  0  0  0  0  0  0  0  0  0  0  0
   58.2310   31.8600   46.5230 C   0  0  0  0  0  0  0  0  0  0  0  0
   58.4290   33.1380   47.0550 C   0  0  0  0  0  0  0  0  0  0  0  0
   58.1300   34.2680   46.2890 C   0  0  0  0  0  0  0  0  0  0  0  0
   57.6400   34.1200   44.9890 C   0  0  0  0  0  0  0  0  0  0  0  0
   57.4390   32.8430   44.4540 C   0  0  0  0  0  0  0  0  0  0  0  0
   57.2400   28.2120   45.9230 N   0  0  0  0  0  0  0  0  0  0  0  0
   56.6520   26.9960   46.0760 C   0  0  0  0  0  0  0  0  0  0  0  0
   55.5070   26.7150   45.6250 O   0  0  0  0  0  0  0  0  0  0  0  0
   57.4190   26.1080   46.7550 N   0  0  0  0  0  0  0  0  0  0  0  0
   57.0630   24.7450   47.1570 C   0  0  0  0  0  0  0  0  0  0  0  0
   56.7870   23.9000   45.9410 C   0  0  0  0  0  0  0  0  0  0  0  0
   57.8400   23.2260   45.3000 C   0  0  0  0  0  0  0  0  0  0  0  0
   57.5940   22.4620   44.1540 C   0  0  0  0  0  0  0  0  0  0  0  0
   56.2980   22.3660   43.6380 C   0  0  0  0  0  0  0  0  0  0  0  0
   56.0680   21.6020   42.4950 O   0  0  0  0  0  0  0  0  0  0  0  0
   55.2450   23.0370   44.2730 C   0  0  0  0  0  0  0  0  0  0  0  0
   55.4880   23.8020   45.4180 C   0  0  0  0  0  0  0  0  0  0  0  0
   58.5360   26.8010   47.0560 C   0  0  0  0  0  0  0  0  0  0  0  0
   59.6550   26.3770   47.7750 C   0  0  0  0  0  0  0  0  0  0  0  0
   60.6910   27.3030   47.9850 C   0  0  0  0  0  0  0  0  0  0  0  0
   60.5850   28.6170   47.4840 C   0  0  0  0  0  0  0  0  0  0  0  0
   59.4470   29.0210   46.7630 C   0  0  0  0  0  0  0  0  0  0  0  0
   58.4330   28.0750   46.5530 C   0  0  0  0  0  0  0  0  0  0  0  0
   58.4804   30.9734   47.1244 H   0  0  0  0  0  0  0  0  0  0  0  0
   58.8202   33.2539   48.0766 H   0  0  0  0  0  0  0  0  0  0  0  0
   58.2804   35.2733   46.7093 H   0  0  0  0  0  0  0  0  0  0  0  0
   57.4116   35.0101   44.3844 H   0  0  0  0  0  0  0  0  0  0  0  0
   57.0632   32.7311   43.4263 H   0  0  0  0  0  0  0  0  0  0  0  0
   57.8958   24.3042   47.7245 H   0  0  0  0  0  0  0  0  0  0  0  0
   56.1592   24.7796   47.7830 H   0  0  0  0  0  0  0  0  0  0  0  0
   58.8618   23.2993   45.7007 H   0  0  0  0  0  0  0  0  0  0  0  0
   58.4224   21.9354   43.6576 H   0  0  0  0  0  0  0  0  0  0  0  0
   56.2350   21.9740   41.5670 H   0  0  0  0  0  0  0  0  0  0  0  0
   54.2243   22.9619   43.8699 H   0  0  0  0  0  0  0  0  0  0  0  0
   54.6579   24.3292   45.9109 H   0  0  0  0  0  0  0  0  0  0  0  0
   59.7236   25.3507   48.1648 H   0  0  0  0  0  0  0  0  0  0  0  0
   61.5895   27.0013   48.5432 H   0  0  0  0  0  0  0  0  0  0  0  0
   61.4010   29.3336   47.6590 H   0  0  0  0  0  0  0  0  0  0  0  0
   59.3551   30.0466   46.3760 H   0  0  0  0  0  0  0  0  0  0  0  0
  1  2  2  0
  2  3  1  0
  3  4  1  0
  4  5  2  0
  5  6  1  0
  6  7  2  0
  7  8  1  0
  8  9  2  0
  2 10  1  0
 10 11  1  0
 11 12  2  0
 11 13  1  0
 13 14  1  0
 14 15  1  0
 15 16  2  0
 16 17  1  0
 17 18  2  0
 18 19  1  0
 18 20  1  0
 20 21  2  0
 13 22  1  0
 22 23  2  0
 23 24  1  0
 24 25  2  0
 25 26  1  0
 26 27  2  0
  9  4  1  0
 27 10  1  0
 21 15  1  0
 27 22  1  0
  5 28  1  0
  6 29  1  0
  7 30  1  0
  8 31  1  0
  9 32  1  0
 14 33  1  0
 14 34  1  0
 16 35  1  0
 17 36  1  0
 19 37  1  0
 20 38  1  0
 21 39  1  0
 23 40  1  0
 24 41  1  0
 25 42  1  0
 26 43  1  0
M  CHG  1   3  -1
M  END
>  <UniqueID>  (62) 
59

>  <SMILES>  (62) 
O=C([N-]c1ccccc1)n1c(=O)n(Cc2ccc(O)cc2)c2ccccc21

>  <Energy>  (62) 
93.97432858670892

>  <Genealogy>  (62) 
O=C([N-]c1ccccc1)n1c(=O)n(Cc2ccc(O)cc2)c2ccccc21 (protonated)
O=C([N-]c1ccccc1)n1c(=O)n(Cc2ccc(O)cc2)c2ccccc21 (3D coordinates assigned)
O=C([N-]c1ccccc1)n1c(=O)n(Cc2ccc(O)cc2)c2ccccc21 (optimized conformer: 93.97432858670892 kcal/mol)

>  <smiles>  (62) 
O=C(Nc1ccccc1)n1c(=O)n(Cc2ccc(O)cc2)c2ccccc21

>  <score_type>  (62) 
oracle

>  <origin>  (62) 
adg

>  <m_score__min__energy>  (62) 
-11.199999999999999

>  <m_primary>  (62) 
energy

$$$$
62:0
     RDKit          3D

 68 72  0  0  0  0  0  0  0  0999 V2000
   56.6720   33.6150   46.0520 O   0  0  0  0  0  0  0  0  0  0  0  0
   57.4580   33.5430   45.0700 C   0  0  0  0  0  0  0  0  0  0  0  0
   58.4780   34.6130   44.8640 C   0  0  0  0  0  0  0  0  0  0  0  0
   59.6570   34.4160   45.8200 C   0  0  0  0  0  0  0  0  0  0  0  0
   59.3110   34.9190   47.2320 C   0  0  0  0  0  0  0  0  0  0  0  0
   60.2470   34.4160   48.2980 C   0  0  0  0  0  0  0  0  0  0  0  0
   61.4510   33.7580   48.1270 C   0  0  0  0  0  0  0  0  0  0  0  0
   61.8960   33.5240   49.4160 C   0  0  0  0  0  0  0  0  0  0  0  0
   63.1580   32.8540   49.8170 C   0  0  0  0  0  0  0  0  0  0  0  0
   64.3960   33.3780   49.3970 C   0  0  0  0  0  0  0  0  0  0  0  0
   65.5910   32.7510   49.7550 C   0  0  0  0  0  0  0  0  0  0  0  0
   65.5690   31.5950   50.5360 C   0  0  0  0  0  0  0  0  0  0  0  0
   64.3490   31.0680   50.9660 C   0  0  0  0  0  0  0  0  0  0  0  0
   63.1490   31.6900   50.6090 C   0  0  0  0  0  0  0  0  0  0  0  0
   60.9960   34.0130   50.2910 N   0  0  0  0  0  0  0  0  0  0  0  0
   59.9950   34.5520   49.6120 N   0  0  0  0  0  0  0  0  0  0  0  0
   57.3420   32.4700   44.1230 N   0  0  0  0  0  0  0  0  0  0  0  0
   57.4770   31.0790   44.4440 C   0  0  0  0  0  0  0  0  0  0  0  0
   56.4470   30.1660   44.1750 C   0  0  0  0  0  0  0  0  0  0  0  0
   56.6010   28.8180   44.4960 C   0  0  0  0  0  0  0  0  0  0  0  0
   57.7800   28.3580   45.0950 C   0  0  0  0  0  0  0  0  0  0  0  0
   57.9090   26.9540   45.3780 N   0  0  0  0  0  0  0  0  0  0  0  0
   57.5430   25.9760   44.3460 C   0  0  0  0  0  0  0  0  0  0  0  0
   56.7440   24.8280   44.9740 C   0  0  0  0  0  0  0  0  0  0  0  0
   55.8980   25.3380   45.9850 O   0  0  0  0  0  0  0  0  0  0  0  0
   56.6530   25.7390   47.1200 C   0  0  0  0  0  0  0  0  0  0  0  0
   57.9520   26.4970   46.7690 C   0  0  0  0  0  0  0  0  0  0  0  0
   58.8070   29.2750   45.4040 C   0  0  0  0  0  0  0  0  0  0  0  0
   60.2770   28.7530   46.2390 S   0  0  0  0  0  0  0  0  0  0  0  0
   60.7580   27.4660   45.6340 O   0  0  0  0  0  0  0  0  0  0  0  0
   61.3750   29.7690   46.0900 O   0  0  0  0  0  0  0  0  0  0  0  0
   59.9160   28.5040   47.9180 N   0  0  0  0  0  0  0  0  0  0  0  0
   59.5940   29.5550   48.8360 C   0  0  0  0  0  0  0  0  0  0  0  0
   59.9310   29.4780   50.2000 C   0  0  0  0  0  0  0  0  0  0  0  0
   59.6190   30.5330   51.0640 C   0  0  0  0  0  0  0  0  0  0  0  0
   58.9770   31.6790   50.5730 C   0  0  0  0  0  0  0  0  0  0  0  0
   58.6990   32.7360   51.4360 O   0  0  0  0  0  0  0  0  0  0  0  0
   58.6160   31.7480   49.2190 C   0  0  0  0  0  0  0  0  0  0  0  0
   58.9050   30.6800   48.3610 C   0  0  0  0  0  0  0  0  0  0  0  0
   58.6400   30.6330   45.0820 C   0  0  0  0  0  0  0  0  0  0  0  0
   58.8416   34.5725   43.8266 H   0  0  0  0  0  0  0  0  0  0  0  0
   58.0154   35.5908   45.0640 H   0  0  0  0  0  0  0  0  0  0  0  0
   59.9047   33.3454   45.8700 H   0  0  0  0  0  0  0  0  0  0  0  0
   60.5146   34.9924   45.4427 H   0  0  0  0  0  0  0  0  0  0  0  0
   59.3475   36.0184   47.2280 H   0  0  0  0  0  0  0  0  0  0  0  0
   58.3096   34.5340   47.4747 H   0  0  0  0  0  0  0  0  0  0  0  0
   61.9427   33.4833   47.1821 H   0  0  0  0  0  0  0  0  0  0  0  0
   64.4216   34.2893   48.7815 H   0  0  0  0  0  0  0  0  0  0  0  0
   66.5519   33.1693   49.4206 H   0  0  0  0  0  0  0  0  0  0  0  0
   66.5112   31.0993   50.8127 H   0  0  0  0  0  0  0  0  0  0  0  0
   64.3324   30.1606   51.5876 H   0  0  0  0  0  0  0  0  0  0  0  0
   62.1920   31.2674   50.9489 H   0  0  0  0  0  0  0  0  0  0  0  0
   55.5137   30.5149   43.7088 H   0  0  0  0  0  0  0  0  0  0  0  0
   55.7888   28.1093   44.2766 H   0  0  0  0  0  0  0  0  0  0  0  0
   56.9299   26.4692   43.5773 H   0  0  0  0  0  0  0  0  0  0  0  0
   58.4586   25.5722   43.8892 H   0  0  0  0  0  0  0  0  0  0  0  0
   56.1353   24.3387   44.1994 H   0  0  0  0  0  0  0  0  0  0  0  0
   57.4383   24.0963   45.4127 H   0  0  0  0  0  0  0  0  0  0  0  0
   56.0250   26.3958   47.7398 H   0  0  0  0  0  0  0  0  0  0  0  0
   56.9507   24.8207   47.6473 H   0  0  0  0  0  0  0  0  0  0  0  0
   58.0567   27.3666   47.4344 H   0  0  0  0  0  0  0  0  0  0  0  0
   58.8095   25.8204   46.8989 H   0  0  0  0  0  0  0  0  0  0  0  0
   60.4418   28.5846   50.5885 H   0  0  0  0  0  0  0  0  0  0  0  0
   59.8778   30.4635   52.1309 H   0  0  0  0  0  0  0  0  0  0  0  0
   59.1900   33.6230   51.3650 H   0  0  0  0  0  0  0  0  0  0  0  0
   58.1055   32.6419   48.8312 H   0  0  0  0  0  0  0  0  0  0  0  0
   58.5897   30.7238   47.3081 H   0  0  0  0  0  0  0  0  0  0  0  0
   59.4323   31.3532   45.3343 H   0  0  0  0  0  0  0  0  0  0  0  0
  1  2  2  0
  2  3  1  0
  3  4  1  0
  4  5  1  0
  5  6  1  0
  6  7  1  0
  7  8  2  0
  8  9  1  0
  9 10  2  0
 10 11  1  0
 11 12  2  0
 12 13  1  0
 13 14  2  0
  8 15  1  0
 15 16  1  0
  2 17  1  0
 17 18  1  0
 18 19  2  0
 19 20  1  0
 20 21  2  0
 21 22  1  0
 22 23  1  0
 23 24  1  0
 24 25  1  0
 25 26  1  0
 26 27  1  0
 21 28  1  0
 28 29  1  0
 29 30  2  0
 29 31  2  0
 29 32  1  0
 32 33  1  0
 33 34  2  0
 34 35  1  0
 35 36  2  0
 36 37  1  0
 36 38  1  0
 38 39  2  0
 28 40  2  0
 16  6  2  0
 40 18  1  0
 14  9  1  0
 27 22  1  0
 39 33  1  0
  3 41  1  0
  3 42  1  0
  4 43  1  0
  4 44  1  0
  5 45  1  0
  5 46  1  0
  7 47  1  0
 10 48  1  0
 11 49  1  0
 12 50  1  0
 13 51  1  0
 14 52  1  0
 19 53  1  0
 20 54  1  0
 23 55  1  0
 23 56  1  0
 24 57  1  0
 24 58  1  0
 26 59  1  0
 26 60  1  0
 27 61  1  0
 27 62  1  0
 34 63  1  0
 35 64  1  0
 37 65  1  0
 38 66  1  0
 39 67  1  0
 40 68  1  0
M  CHG  3  15  -1  17  -1  32  -1
M  END
>  <UniqueID>  (63) 
60

>  <SMILES>  (63) 
O=C(CCCc1cc(-c2ccccc2)[n-]n1)[N-]c1ccc(N2CCOCC2)c(S(=O)(=O)[N-]c2ccc(O)cc2)c1

>  <Energy>  (63) 
123.6857897932751

>  <Genealogy>  (63) 
O=C(CCCc1cc(-c2ccccc2)[n-]n1)[N-]c1ccc(N2CCOCC2)c(S(=O)(=O)[N-]c2ccc(O)cc2)c1 (protonated)
O=C(CCCc1cc(-c2ccccc2)[n-]n1)[N-]c1ccc(N2CCOCC2)c(S(=O)(=O)[N-]c2ccc(O)cc2)c1 (3D coordinates assigned)
O=C(CCCc1cc(-c2ccccc2)[n-]n1)[N-]c1ccc(N2CCOCC2)c(S(=O)(=O)[N-]c2ccc(O)cc2)c1 (nonaromatic ring conformer: 123.6857897932751 kcal/mol)

>  <smiles>  (63) 
O=C(CCCc1cc(-c2ccccc2)[nH]n1)Nc1ccc(N2CCOCC2)c(S(=O)(=O)Nc2ccc(O)cc2)c1

>  <score_type>  (63) 
oracle

>  <origin>  (63) 
adg

>  <m_score__min__energy>  (63) 
-15.449999999999999

>  <m_primary>  (63) 
energy

$$$$
63:0
     RDKit          3D

 46 48  0  0  0  0  0  0  0  0999 V2000
   61.5340   34.1930   48.5440 O   0  0  0  0  0  0  0  0  0  0  0  0
   60.2780   34.1100   48.4870 C   0  0  0  0  0  0  0  0  0  0  0  0
   59.5350   33.4770   49.6280 C   0  0  0  0  0  0  0  0  0  0  0  0
   59.8130   31.6720   49.6610 S   0  0  0  0  0  0  0  0  0  0  0  0
   58.5390   31.3370   50.8810 C   0  0  0  0  0  0  0  0  0  0  0  0
   57.7450   32.3800   51.3760 C   0  0  0  0  0  0  0  0  0  0  0  0
   56.7530   32.1150   52.3260 C   0  0  0  0  0  0  0  0  0  0  0  0
   56.5600   30.8110   52.7910 C   0  0  0  0  0  0  0  0  0  0  0  0
   57.3590   29.7700   52.3070 C   0  0  0  0  0  0  0  0  0  0  0  0
   58.3490   30.0320   51.3550 C   0  0  0  0  0  0  0  0  0  0  0  0
   59.6050   34.5930   47.3190 N   0  0  0  0  0  0  0  0  0  0  0  0
   59.9390   34.2070   45.9550 C   0  0  0  0  0  0  0  0  0  0  0  0
   59.0340   33.0920   45.5170 C   0  0  0  0  0  0  0  0  0  0  0  0
   58.9510   31.9120   46.2690 C   0  0  0  0  0  0  0  0  0  0  0  0
   58.0880   30.8840   45.8770 C   0  0  0  0  0  0  0  0  0  0  0  0
   57.2860   31.0220   44.7300 C   0  0  0  0  0  0  0  0  0  0  0  0
   56.3760   29.9300   44.3120 C   0  0  0  0  0  0  0  0  0  0  0  0
   55.8560   29.9500   43.1630 O   0  0  0  0  0  0  0  0  0  0  0  0
   56.0460   28.8800   45.2320 N   0  0  0  0  0  0  0  0  0  0  0  0
   56.8850   27.7800   45.6200 C   0  0  0  0  0  0  0  0  0  0  0  0
   58.2850   27.9080   45.6820 C   0  0  0  0  0  0  0  0  0  0  0  0
   59.0760   26.8280   46.0840 C   0  0  0  0  0  0  0  0  0  0  0  0
   58.4800   25.6180   46.4390 C   0  0  0  0  0  0  0  0  0  0  0  0
   57.0910   25.4860   46.4030 C   0  0  0  0  0  0  0  0  0  0  0  0
   56.2880   26.5610   46.0040 C   0  0  0  0  0  0  0  0  0  0  0  0
   54.9030   26.3930   45.9880 O   0  0  0  0  0  0  0  0  0  0  0  0
   57.3560   32.2180   43.9930 C   0  0  0  0  0  0  0  0  0  0  0  0
   58.2190   33.2460   44.3870 C   0  0  0  0  0  0  0  0  0  0  0  0
   59.8873   33.9135   50.5742 H   0  0  0  0  0  0  0  0  0  0  0  0
   58.4593   33.6658   49.4964 H   0  0  0  0  0  0  0  0  0  0  0  0
   57.9019   33.4080   51.0173 H   0  0  0  0  0  0  0  0  0  0  0  0
   56.1245   32.9332   52.7073 H   0  0  0  0  0  0  0  0  0  0  0  0
   55.7795   30.6035   53.5378 H   0  0  0  0  0  0  0  0  0  0  0  0
   57.2084   28.7446   52.6755 H   0  0  0  0  0  0  0  0  0  0  0  0
   58.9792   29.2131   50.9778 H   0  0  0  0  0  0  0  0  0  0  0  0
   59.8075   35.0706   45.2865 H   0  0  0  0  0  0  0  0  0  0  0  0
   60.9850   33.8690   45.9142 H   0  0  0  0  0  0  0  0  0  0  0  0
   59.5679   31.7941   47.1721 H   0  0  0  0  0  0  0  0  0  0  0  0
   58.0360   29.9595   46.4708 H   0  0  0  0  0  0  0  0  0  0  0  0
   58.7594   28.8632   45.4126 H   0  0  0  0  0  0  0  0  0  0  0  0
   60.1704   26.9325   46.1205 H   0  0  0  0  0  0  0  0  0  0  0  0
   59.1051   24.7671   46.7476 H   0  0  0  0  0  0  0  0  0  0  0  0
   56.6247   24.5319   46.6898 H   0  0  0  0  0  0  0  0  0  0  0  0
   54.3260   26.7120   45.2190 H   0  0  0  0  0  0  0  0  0  0  0  0
   56.7271   32.3460   43.0997 H   0  0  0  0  0  0  0  0  0  0  0  0
   58.2583   34.1799   43.8071 H   0  0  0  0  0  0  0  0  0  0  0  0
  1  2  2  0
  2  3  1  0
  3  4  1  0
  4  5  1  0
  5  6  2  0
  6  7  1  0
  7  8  2  0
  8  9  1  0
  9 10  2  0
  2 11  1  0
 11 12  1  0
 12 13  1  0
 13 14  2  0
 14 15  1  0
 15 16  2  0
 16 17  1  0
 17 18  2  0
 17 19  1  0
 19 20  1  0
 20 21  2  0
 21 22  1  0
 22 23  2  0
 23 24  1  0
 24 25  2  0
 25 26  1  0
 16 27  1  0
 27 28  2  0
 10  5  1  0
 28 13  1  0
 25 20  1  0
  3 29  1  0
  3 30  1  0
  6 31  1  0
  7 32  1  0
  8 33  1  0
  9 34  1  0
 10 35  1  0
 12 36  1  0
 12 37  1  0
 14 38  1  0
 15 39  1  0
 21 40  1  0
 22 41  1  0
 23 42  1  0
 24 43  1  0
 26 44  1  0
 27 45  1  0
 28 46  1  0
M  CHG  2  11  -1  19  -1
M  END
>  <UniqueID>  (64) 
61

>  <SMILES>  (64) 
O=C(CSc1ccccc1)[N-]Cc1ccc(C(=O)[N-]c2ccccc2O)cc1

>  <Energy>  (64) 
46.14878704963802

>  <Genealogy>  (64) 
O=C(CSc1ccccc1)[N-]Cc1ccc(C(=O)[N-]c2ccccc2O)cc1 (protonated)
O=C(CSc1ccccc1)[N-]Cc1ccc(C(=O)[N-]c2ccccc2O)cc1 (3D coordinates assigned)
O=C(CSc1ccccc1)[N-]Cc1ccc(C(=O)[N-]c2ccccc2O)cc1 (optimized conformer: 46.14878704963802 kcal/mol)

>  <smiles>  (64) 
O=C(CSc1ccccc1)NCc1ccc(C(=O)Nc2ccccc2O)cc1

>  <score_type>  (64) 
oracle

>  <origin>  (64) 
adg

>  <m_score__min__energy>  (64) 
-11.880000000000001

>  <m_primary>  (64) 
energy

$$$$
64:0
     RDKit          3D

 34 35  0  0  0  0  0  0  0  0999 V2000
   57.2140   31.1330   42.8620 O   0  0  0  0  0  0  0  0  0  0  0  0
   57.1300   30.9890   44.1130 C   0  0  0  0  0  0  0  0  0  0  0  0
   56.9100   32.1400   44.9380 N   0  0  0  0  0  0  0  0  0  0  0  0
   57.9650   32.8170   45.6840 C   0  0  0  0  0  0  0  0  0  0  0  0
   58.6690   33.8500   44.7960 C   0  0  0  0  0  0  0  0  0  0  0  0
   59.2860   34.9950   45.6100 C   0  0  0  0  0  0  0  0  0  0  0  0
   60.1310   34.4850   46.7500 C   0  0  0  0  0  0  0  0  0  0  0  0
   61.3880   33.9100   46.5020 C   0  0  0  0  0  0  0  0  0  0  0  0
   62.1570   33.4130   47.5610 C   0  0  0  0  0  0  0  0  0  0  0  0
   61.6740   33.4830   48.8710 C   0  0  0  0  0  0  0  0  0  0  0  0
   62.4390   32.9900   49.9210 O   0  0  0  0  0  0  0  0  0  0  0  0
   60.4210   34.0500   49.1240 C   0  0  0  0  0  0  0  0  0  0  0  0
   59.6500   34.5470   48.0690 C   0  0  0  0  0  0  0  0  0  0  0  0
   57.2490   29.6310   44.7110 C   0  0  0  0  0  0  0  0  0  0  0  0
   58.5290   29.0900   44.9450 C   0  0  0  0  0  0  0  0  0  0  0  0
   58.6770   27.8190   45.5030 C   0  0  0  0  0  0  0  0  0  0  0  0
   57.5520   27.0670   45.8380 C   0  0  0  0  0  0  0  0  0  0  0  0
   56.2730   27.5830   45.6180 C   0  0  0  0  0  0  0  0  0  0  0  0
   55.1590   26.8250   45.9570 O   0  0  0  0  0  0  0  0  0  0  0  0
   56.1130   28.8590   45.0580 C   0  0  0  0  0  0  0  0  0  0  0  0
   54.8230   29.3410   44.8590 O   0  0  0  0  0  0  0  0  0  0  0  0
   57.5243   33.3267   46.5534 H   0  0  0  0  0  0  0  0  0  0  0  0
   58.7019   32.0711   46.0166 H   0  0  0  0  0  0  0  0  0  0  0  0
   59.4682   33.3460   44.2327 H   0  0  0  0  0  0  0  0  0  0  0  0
   57.9150   34.2843   44.1231 H   0  0  0  0  0  0  0  0  0  0  0  0
   59.9163   35.6040   44.9453 H   0  0  0  0  0  0  0  0  0  0  0  0
   58.4650   35.5909   46.0352 H   0  0  0  0  0  0  0  0  0  0  0  0
   61.7697   33.8499   45.4721 H   0  0  0  0  0  0  0  0  0  0  0  0
   63.1426   32.9668   47.3621 H   0  0  0  0  0  0  0  0  0  0  0  0
   60.0413   34.1051   50.1549 H   0  0  0  0  0  0  0  0  0  0  0  0
   58.6631   34.9883   48.2721 H   0  0  0  0  0  0  0  0  0  0  0  0
   59.4225   29.6764   44.6848 H   0  0  0  0  0  0  0  0  0  0  0  0
   59.6830   27.4102   45.6786 H   0  0  0  0  0  0  0  0  0  0  0  0
   57.6719   26.0653   46.2765 H   0  0  0  0  0  0  0  0  0  0  0  0
  1  2  2  0
  2  3  1  0
  3  4  1  0
  4  5  1  0
  5  6  1  0
  6  7  1  0
  7  8  2  0
  8  9  1  0
  9 10  2  0
 10 11  1  0
 10 12  1  0
 12 13  2  0
  2 14  1  0
 14 15  2  0
 15 16  1  0
 16 17  2  0
 17 18  1  0
 18 19  1  0
 18 20  2  0
 20 21  1  0
 13  7  1  0
 20 14  1  0
  4 22  1  0
  4 23  1  0
  5 24  1  0
  5 25  1  0
  6 26  1  0
  6 27  1  0
  8 28  1  0
  9 29  1  0
 12 30  1  0
 13 31  1  0
 15 32  1  0
 16 33  1  0
 17 34  1  0
M  CHG  4   3  -1  11  -1  19  -1  21  -1
M  END
>  <UniqueID>  (65) 
62

>  <SMILES>  (65) 
O=C([N-]CCCc1ccc([O-])cc1)c1cccc([O-])c1[O-]

>  <Energy>  (65) 
31.72433545980827

>  <Genealogy>  (65) 
O=C([N-]CCCc1ccc([O-])cc1)c1cccc([O-])c1[O-] (protonated)
O=C([N-]CCCc1ccc([O-])cc1)c1cccc([O-])c1[O-] (3D coordinates assigned)
O=C([N-]CCCc1ccc([O-])cc1)c1cccc([O-])c1[O-] (optimized conformer: 31.72433545980827 kcal/mol)

>  <smiles>  (65) 
O=C(NCCCc1ccc(O)cc1)c1cccc(O)c1O

>  <score_type>  (65) 
oracle

>  <origin>  (65) 
adg

>  <m_score__min__energy>  (65) 
-16.489999999999998

>  <m_primary>  (65) 
energy

$$$$
65:0
     RDKit          3D

 34 37  0  0  0  0  0  0  0  0999 V2000
   59.3240   28.3180   47.6780 C   0  0  0  0  0  0  0  0  0  0  0  0
   58.4080   28.6530   46.5900 N   0  0  0  0  0  0  0  0  0  0  0  0
   57.6910   27.8130   45.7920 C   0  0  0  0  0  0  0  0  0  0  0  0
   57.7490   26.3820   45.8730 N   0  0  0  0  0  0  0  0  0  0  0  0
   58.9090   25.5620   45.7000 C   0  0  0  0  0  0  0  0  0  0  0  0
   60.0890   25.9960   45.6450 O   0  0  0  0  0  0  0  0  0  0  0  0
   58.5140   24.1710   45.5020 C   0  0  0  0  0  0  0  0  0  0  0  0
   59.2820   23.0270   45.3020 C   0  0  0  0  0  0  0  0  0  0  0  0
   58.6120   21.8050   45.1160 C   0  0  0  0  0  0  0  0  0  0  0  0
   57.1970   21.7490   45.1270 C   0  0  0  0  0  0  0  0  0  0  0  0
   56.5290   20.5000   44.9350 N   0  0  0  0  0  0  0  0  0  0  0  0
   56.4470   22.9270   45.3260 C   0  0  0  0  0  0  0  0  0  0  0  0
   57.1370   24.1230   45.5110 C   0  0  0  0  0  0  0  0  0  0  0  0
   56.6490   25.4820   45.7190 C   0  0  0  0  0  0  0  0  0  0  0  0
   55.4380   25.8250   45.7630 O   0  0  0  0  0  0  0  0  0  0  0  0
   56.9070   28.4680   44.8990 N   0  0  0  0  0  0  0  0  0  0  0  0
   57.1690   29.7620   45.1420 C   0  0  0  0  0  0  0  0  0  0  0  0
   56.6450   30.8340   44.4980 N   0  0  0  0  0  0  0  0  0  0  0  0
   57.0380   32.0860   44.8800 C   0  0  0  0  0  0  0  0  0  0  0  0
   57.9750   32.2590   45.9260 C   0  0  0  0  0  0  0  0  0  0  0  0
   58.5100   31.1340   46.5820 C   0  0  0  0  0  0  0  0  0  0  0  0
   58.0730   29.8820   46.1520 C   0  0  0  0  0  0  0  0  0  0  0  0
   58.8286   28.4992   48.6433 H   0  0  0  0  0  0  0  0  0  0  0  0
   59.6080   27.2578   47.6049 H   0  0  0  0  0  0  0  0  0  0  0  0
   60.2250   28.9448   47.6049 H   0  0  0  0  0  0  0  0  0  0  0  0
   60.3808   23.0778   45.2899 H   0  0  0  0  0  0  0  0  0  0  0  0
   59.1925   20.8837   44.9605 H   0  0  0  0  0  0  0  0  0  0  0  0
   57.0220   19.6930   44.4910 H   0  0  0  0  0  0  0  0  0  0  0  0
   55.5360   20.3730   45.2330 H   0  0  0  0  0  0  0  0  0  0  0  0
   55.3473   22.9019   45.3349 H   0  0  0  0  0  0  0  0  0  0  0  0
   56.2710   28.0670   44.1750 H   0  0  0  0  0  0  0  0  0  0  0  0
   56.6221   32.9672   44.3696 H   0  0  0  0  0  0  0  0  0  0  0  0
   58.2850   33.2708   46.2262 H   0  0  0  0  0  0  0  0  0  0  0  0
   59.2405   31.2383   47.3978 H   0  0  0  0  0  0  0  0  0  0  0  0
  1  2  1  0
  2  3  1  0
  3  4  1  0
  4  5  1  0
  5  6  2  0
  5  7  1  0
  7  8  2  0
  8  9  1  0
  9 10  2  0
 10 11  1  0
 10 12  1  0
 12 13  2  0
 13 14  1  0
 14 15  2  0
  3 16  2  0
 16 17  1  0
 17 18  2  0
 18 19  1  0
 19 20  2  0
 20 21  1  0
 21 22  2  0
 22  2  1  0
 14  4  1  0
 22 17  1  0
 13  7  1  0
  1 23  1  0
  1 24  1  0
  1 25  1  0
  8 26  1  0
  9 27  1  0
 11 28  1  0
 11 29  1  0
 12 30  1  0
 16 31  1  0
 19 32  1  0
 20 33  1  0
 21 34  1  0
M  CHG  1  16   1
M  END
>  <UniqueID>  (66) 
63

>  <SMILES>  (66) 
Cn1c(N2C(=O)c3ccc(N)cc3C2=O)[nH+]c2ncccc21

>  <Energy>  (66) 
115.88301953000345

>  <Genealogy>  (66) 
Cn1c(N2C(=O)c3ccc(N)cc3C2=O)[nH+]c2ncccc21 (protonated)
Cn1c(N2C(=O)c3ccc(N)cc3C2=O)[nH+]c2ncccc21 (3D coordinates assigned)
Cn1c(N2C(=O)c3ccc(N)cc3C2=O)[nH+]c2ncccc21 (nonaromatic ring conformer: 115.88301953000345 kcal/mol)

>  <smiles>  (66) 
Cn1c(N2C(=O)c3ccc(N)cc3C2=O)nc2ncccc21

>  <score_type>  (66) 
oracle

>  <origin>  (66) 
adg

>  <m_score__min__energy>  (66) 
-5.9000000000000004

>  <m_primary>  (66) 
energy

$$$$
66:0
     RDKit          3D

 38 39  0  0  0  0  0  0  0  0999 V2000
   56.1130   30.8080   44.8260 O   0  0  0  0  0  0  0  0  0  0  0  0
   56.4610   29.6620   45.2180 C   0  0  0  0  0  0  0  0  0  0  0  0
   55.5210   28.6420   45.2030 O   0  0  0  0  0  0  0  0  0  0  0  0
   57.8380   29.4390   45.7290 C   0  0  0  0  0  0  0  0  0  0  0  0
   58.0690   28.2920   46.5140 C   0  0  0  0  0  0  0  0  0  0  0  0
   59.3380   28.0150   47.0240 C   0  0  0  0  0  0  0  0  0  0  0  0
   60.3960   28.8820   46.7700 C   0  0  0  0  0  0  0  0  0  0  0  0
   60.1910   30.0300   46.0080 C   0  0  0  0  0  0  0  0  0  0  0  0
   58.9210   30.3290   45.4730 C   0  0  0  0  0  0  0  0  0  0  0  0
   58.7780   31.5980   44.6560 C   0  0  0  0  0  0  0  0  0  0  0  0
   58.2380   32.7560   45.4780 C   0  0  0  0  0  0  0  0  0  0  0  0
   58.2420   34.0810   44.8990 S   0  0  0  0  0  0  0  0  0  0  0  0
   57.4920   32.5080   46.6960 N   0  0  0  0  0  0  0  0  0  0  0  0
   58.3980   32.5090   47.8550 C   0  0  0  0  0  0  0  0  0  0  0  0
   59.2590   33.7780   47.8750 C   0  0  0  0  0  0  0  0  0  0  0  0
   60.7010   33.4400   47.6100 C   0  0  0  0  0  0  0  0  0  0  0  0
   61.4130   34.1210   46.6070 C   0  0  0  0  0  0  0  0  0  0  0  0
   62.7630   33.8340   46.3850 C   0  0  0  0  0  0  0  0  0  0  0  0
   63.4140   32.8750   47.1660 C   0  0  0  0  0  0  0  0  0  0  0  0
   62.7160   32.2050   48.1750 C   0  0  0  0  0  0  0  0  0  0  0  0
   61.3660   32.4890   48.4010 C   0  0  0  0  0  0  0  0  0  0  0  0
   57.2370   27.6050   46.7279 H   0  0  0  0  0  0  0  0  0  0  0  0
   59.5020   27.1101   47.6275 H   0  0  0  0  0  0  0  0  0  0  0  0
   61.3959   28.6607   47.1715 H   0  0  0  0  0  0  0  0  0  0  0  0
   61.0323   30.7135   45.8208 H   0  0  0  0  0  0  0  0  0  0  0  0
   59.7655   31.8762   44.2592 H   0  0  0  0  0  0  0  0  0  0  0  0
   58.0611   31.3975   43.8461 H   0  0  0  0  0  0  0  0  0  0  0  0
   56.7460   33.2330   46.8290 H   0  0  0  0  0  0  0  0  0  0  0  0
   57.0110   31.5830   46.6310 H   0  0  0  0  0  0  0  0  0  0  0  0
   57.8018   32.4636   48.7783 H   0  0  0  0  0  0  0  0  0  0  0  0
   59.0618   31.6348   47.7832 H   0  0  0  0  0  0  0  0  0  0  0  0
   58.9010   34.4707   47.0992 H   0  0  0  0  0  0  0  0  0  0  0  0
   59.1797   34.2464   48.8671 H   0  0  0  0  0  0  0  0  0  0  0  0
   60.9063   34.8819   45.9952 H   0  0  0  0  0  0  0  0  0  0  0  0
   63.3140   34.3640   45.5941 H   0  0  0  0  0  0  0  0  0  0  0  0
   64.4752   32.6475   46.9868 H   0  0  0  0  0  0  0  0  0  0  0  0
   63.2298   31.4532   48.7921 H   0  0  0  0  0  0  0  0  0  0  0  0
   60.8225   31.9656   49.2014 H   0  0  0  0  0  0  0  0  0  0  0  0
  1  2  2  0
  2  3  1  0
  2  4  1  0
  4  5  2  0
  5  6  1  0
  6  7  2  0
  7  8  1  0
  8  9  2  0
  9 10  1  0
 10 11  1  0
 11 12  2  0
 11 13  1  0
 13 14  1  0
 14 15  1  0
 15 16  1  0
 16 17  2  0
 17 18  1  0
 18 19  2  0
 19 20  1  0
 20 21  2  0
  9  4  1  0
 21 16  1  0
  5 22  1  0
  6 23  1  0
  7 24  1  0
  8 25  1  0
 10 26  1  0
 10 27  1  0
 13 28  1  0
 13 29  1  0
 14 30  1  0
 14 31  1  0
 15 32  1  0
 15 33  1  0
 17 34  1  0
 18 35  1  0
 19 36  1  0
 20 37  1  0
 21 38  1  0
M  CHG  2   3  -1  13   1
M  END
>  <UniqueID>  (67) 
64

>  <SMILES>  (67) 
O=C([O-])c1ccccc1CC(=S)[NH2+]CCc1ccccc1

>  <Energy>  (67) 
41.017291078647524

>  <Genealogy>  (67) 
O=C([O-])c1ccccc1CC(=S)[NH2+]CCc1ccccc1 (protonated)
O=C([O-])c1ccccc1CC(=S)[NH2+]CCc1ccccc1 (3D coordinates assigned)
O=C([O-])c1ccccc1CC(=S)[NH2+]CCc1ccccc1 (optimized conformer: 41.017291078647524 kcal/mol)

>  <smiles>  (67) 
O=C(O)c1ccccc1CC(=S)NCCc1ccccc1

>  <score_type>  (67) 
oracle

>  <origin>  (67) 
adg

>  <m_score__min__energy>  (67) 
-8.9000000000000004

>  <m_primary>  (67) 
energy

$$$$
67:0
     RDKit          3D

 46 48  0  0  1  0  0  0  0  0999 V2000
   64.8980   32.9730   51.7240 C   0  0  0  0  0  0  0  0  0  0  0  0
   64.1700   33.1660   50.4800 N   0  0  0  0  0  0  0  0  0  0  0  0
   64.5270   32.5080   49.3710 C   0  0  0  0  0  0  0  0  0  0  0  0
   63.7920   32.7390   48.2290 C   0  0  0  0  0  0  0  0  0  0  0  0
   62.7220   33.6090   48.1910 C   0  0  0  0  0  0  0  0  0  0  0  0
   61.9430   33.8410   46.9410 C   0  0  0  0  0  0  0  0  0  0  0  0
   60.6760   34.4690   47.2760 N   0  0  0  0  0  0  0  0  0  0  0  0
   59.5870   34.0200   46.7680 C   0  0  0  0  0  0  0  0  0  0  0  0
   59.3170   34.0710   45.4140 C   0  0  0  0  0  0  0  0  0  0  0  0
   58.0730   33.5060   45.2310 C   0  0  0  0  0  0  0  0  0  0  0  0
   57.3920   33.3460   44.0110 O   0  0  0  0  0  0  0  0  0  0  0  0
   57.7410   32.1680   43.2930 C   0  0  0  0  0  0  0  0  0  0  0  0
   57.5740   31.0000   44.2250 C   0  0  0  0  0  0  0  0  0  0  0  0
   56.6960   31.0150   45.1430 O   0  0  0  0  0  0  0  0  0  0  0  0
   58.3900   29.8390   44.1110 N   0  0  0  0  0  0  0  0  0  0  0  0
   58.1750   28.7750   45.0260 C   0  0  0  0  0  0  0  0  0  0  0  0
   59.1700   28.2570   45.8280 C   0  0  0  0  0  0  0  0  0  0  0  0
   58.9140   27.2220   46.7020 C   0  0  0  0  0  0  0  0  0  0  0  0
   57.6300   26.6860   46.7800 C   0  0  0  0  0  0  0  0  0  0  0  0
   56.6520   27.2220   45.9680 C   0  0  0  0  0  0  0  0  0  0  0  0
   55.3340   26.7280   45.9970 O   0  0  0  0  0  0  0  0  0  0  0  0
   56.8790   28.2560   45.0850 C   0  0  0  0  0  0  0  0  0  0  0  0
   57.6300   33.1370   46.4500 N   0  0  0  0  0  0  0  0  0  0  0  0
   58.5320   33.4400   47.3790 N   0  0  0  0  0  0  0  0  0  0  0  0
   62.4110   34.2550   49.3810 C   0  0  0  0  0  0  0  0  0  0  0  0
   63.1340   34.0350   50.5280 C   0  0  0  0  0  0  0  0  0  0  0  0
   64.2240   33.1517   52.5748 H   0  0  0  0  0  0  0  0  0  0  0  0
   65.2802   31.9425   51.7691 H   0  0  0  0  0  0  0  0  0  0  0  0
   65.7405   33.6788   51.7691 H   0  0  0  0  0  0  0  0  0  0  0  0
   65.3759   31.8085   49.3712 H   0  0  0  0  0  0  0  0  0  0  0  0
   64.0703   32.2067   47.3075 H   0  0  0  0  0  0  0  0  0  0  0  0
   62.5134   34.4992   46.2691 H   0  0  0  0  0  0  0  0  0  0  0  0
   61.7573   32.8805   46.4381 H   0  0  0  0  0  0  0  0  0  0  0  0
   59.9703   34.4838   44.6312 H   0  0  0  0  0  0  0  0  0  0  0  0
   57.0797   32.0501   42.4219 H   0  0  0  0  0  0  0  0  0  0  0  0
   58.7785   32.2289   42.9327 H   0  0  0  0  0  0  0  0  0  0  0  0
   59.1120   29.8030   43.3710 H   0  0  0  0  0  0  0  0  0  0  0  0
   60.1851   28.6767   45.7694 H   0  0  0  0  0  0  0  0  0  0  0  0
   59.7195   26.8211   47.3348 H   0  0  0  0  0  0  0  0  0  0  0  0
   57.4029   25.8593   47.4692 H   0  0  0  0  0  0  0  0  0  0  0  0
   54.9970   26.3260   46.8740 H   0  0  0  0  0  0  0  0  0  0  0  0
   56.0728   28.6562   44.4527 H   0  0  0  0  0  0  0  0  0  0  0  0
   56.6890   32.6720   46.5930 H   0  0  0  0  0  0  0  0  0  0  0  0
   58.4560   33.2670   48.4180 H   0  0  0  0  0  0  0  0  0  0  0  0
   61.5661   34.9590   49.4052 H   0  0  0  0  0  0  0  0  0  0  0  0
   62.8768   34.5531   51.4636 H   0  0  0  0  0  0  0  0  0  0  0  0
  1  2  1  0
  2  3  2  0
  3  4  1  0
  4  5  2  0
  5  6  1  0
  6  7  1  0
  7  8  2  0
  8  9  1  0
  9 10  2  0
 10 11  1  0
 11 12  1  0
 12 13  1  0
 13 14  2  0
 13 15  1  0
 15 16  1  0
 16 17  2  0
 17 18  1  0
 18 19  2  0
 19 20  1  0
 20 21  1  0
 20 22  2  0
 10 23  1  0
 23 24  1  0
  5 25  1  0
 25 26  2  0
 26  2  1  0
 24  8  1  0
 22 16  1  0
  1 27  1  0
  1 28  1  0
  1 29  1  0
  3 30  1  0
  4 31  1  0
  6 32  1  0
  6 33  1  0
  9 34  1  0
 12 35  1  0
 12 36  1  0
 15 37  1  0
 17 38  1  0
 18 39  1  0
 19 40  1  0
 21 41  1  0
 22 42  1  0
 23 43  1  0
 24 44  1  0
 25 45  1  0
 26 46  1  0
M  CHG  1   2   1
M  END
>  <smiles>  (68) 
C[n+]1ccc(CN=c2cc(OCC(=O)Nc3cccc(O)c3)[nH][nH]2)cc1

>  <score_type>  (68) 
oracle

>  <origin>  (68) 
adg

>  <m_score__min__energy>  (68) 
-7.8300000000000001

>  <m_primary>  (68) 
energy

$$$$
68:0
     RDKit          3D

 53 55  0  0  0  0  0  0  0  0999 V2000
   61.4100   22.6110   45.2270 H   0  0  0  0  0  0  0  0  0  0  0  0
   60.4900   22.5960   45.5980 O   0  0  0  0  0  0  0  0  0  0  0  0
   59.6680   22.1010   44.5790 C   0  0  0  0  0  0  0  0  0  0  0  0
   60.1226   21.1930   44.1560 H   0  0  0  0  0  0  0  0  0  0  0  0
   59.5638   22.8709   43.8003 H   0  0  0  0  0  0  0  0  0  0  0  0
   58.2770   21.7600   45.1290 C   0  0  0  0  0  0  0  0  0  0  0  0
   58.0140   22.5035   45.8958 H   0  0  0  0  0  0  0  0  0  0  0  0
   58.3319   20.7403   45.5379 H   0  0  0  0  0  0  0  0  0  0  0  0
   57.1740   21.7580   44.0530 C   0  0  0  0  0  0  0  0  0  0  0  0
   56.6625   20.7847   44.0867 H   0  0  0  0  0  0  0  0  0  0  0  0
   57.6736   21.9473   43.0915 H   0  0  0  0  0  0  0  0  0  0  0  0
   56.1170   22.8630   44.2230 C   0  0  0  0  0  0  0  0  0  0  0  0
   55.5805   22.6969   45.1688 H   0  0  0  0  0  0  0  0  0  0  0  0
   55.4358   22.8128   43.3608 H   0  0  0  0  0  0  0  0  0  0  0  0
   56.7290   24.2410   44.2480 C   0  0  0  0  0  0  0  0  0  0  0  0
   56.7910   24.9720   45.4440 C   0  0  0  0  0  0  0  0  0  0  0  0
   56.4035   24.5317   46.3746 H   0  0  0  0  0  0  0  0  0  0  0  0
   57.3420   26.2560   45.4600 C   0  0  0  0  0  0  0  0  0  0  0  0
   57.3714   26.8274   46.3995 H   0  0  0  0  0  0  0  0  0  0  0  0
   57.8590   26.8210   44.2810 C   0  0  0  0  0  0  0  0  0  0  0  0
   58.4360   28.1850   44.2630 C   0  0  0  0  0  0  0  0  0  0  0  0
   59.3354   28.3505   43.6516 H   0  0  0  0  0  0  0  0  0  0  0  0
   57.9370   29.2420   44.9440 C   0  0  0  0  0  0  0  0  0  0  0  0
   56.4930   29.5650   44.8580 C   0  0  0  0  0  0  0  0  0  0  0  0
   56.1050   30.7250   44.5510 O   0  0  0  0  0  0  0  0  0  0  0  0
   55.5430   28.5860   45.1220 O   0  0  0  0  0  0  0  0  0  0  0  0
   58.8050   30.1390   45.7450 C   0  0  0  0  0  0  0  0  0  0  0  0
   59.7820   29.6060   46.5990 C   0  0  0  0  0  0  0  0  0  0  0  0
   59.9167   28.5167   46.6722 H   0  0  0  0  0  0  0  0  0  0  0  0
   60.5820   30.4630   47.3550 C   0  0  0  0  0  0  0  0  0  0  0  0
   61.5180   29.9270   48.2320 O   0  0  0  0  0  0  0  0  0  0  0  0
   60.4190   31.8530   47.2410 C   0  0  0  0  0  0  0  0  0  0  0  0
   61.2340   32.7580   48.0020 N   0  0  0  0  0  0  0  0  0  0  0  0
   60.7730   33.4250   49.2070 C   0  0  0  0  0  0  0  0  0  0  0  0
   59.7936   33.8954   49.0352 H   0  0  0  0  0  0  0  0  0  0  0  0
   60.6478   32.7192   50.0414 H   0  0  0  0  0  0  0  0  0  0  0  0
   61.8250   34.4830   49.5150 C   0  0  0  0  0  0  0  0  0  0  0  0
   61.4555   35.4810   49.2368 H   0  0  0  0  0  0  0  0  0  0  0  0
   62.0653   34.5102   50.5881 H   0  0  0  0  0  0  0  0  0  0  0  0
   63.0500   34.1190   48.6780 C   0  0  0  0  0  0  0  0  0  0  0  0
   63.5056   35.0255   48.2529 H   0  0  0  0  0  0  0  0  0  0  0  0
   63.8201   33.6214   49.2858 H   0  0  0  0  0  0  0  0  0  0  0  0
   62.5430   33.2100   47.5660 C   0  0  0  0  0  0  0  0  0  0  0  0
   62.4624   33.7669   46.6208 H   0  0  0  0  0  0  0  0  0  0  0  0
   63.2263   32.3674   47.3839 H   0  0  0  0  0  0  0  0  0  0  0  0
   59.4380   32.3460   46.3700 C   0  0  0  0  0  0  0  0  0  0  0  0
   59.2919   33.4317   46.2710 H   0  0  0  0  0  0  0  0  0  0  0  0
   58.6650   31.4920   45.6460 N   0  0  0  0  0  0  0  0  0  0  0  0
   57.9390   31.8950   45.0100 H   0  0  0  0  0  0  0  0  0  0  0  0
   57.7690   26.1010   43.0810 C   0  0  0  0  0  0  0  0  0  0  0  0
   58.1365   26.5492   42.1461 H   0  0  0  0  0  0  0  0  0  0  0  0
   57.2160   24.8190   43.0650 C   0  0  0  0  0  0  0  0  0  0  0  0
   57.1616   24.2587   42.1200 H   0  0  0  0  0  0  0  0  0  0  0  0
  1  2  1  0
  2  3  1  0
  3  4  1  0
  3  5  1  0
  3  6  1  0
  6  7  1  0
  6  8  1  0
  6  9  1  0
  9 10  1  0
  9 11  1  0
  9 12  1  0
 12 13  1  0
 12 14  1  0
 12 15  1  0
 15 16  2  0
 16 17  1  0
 16 18  1  0
 18 19  1  0
 18 20  2  0
 20 21  1  0
 21 22  1  0
 21 23  2  0
 23 24  1  0
 24 25  2  0
 24 26  1  0
 23 27  1  0
 27 28  2  0
 28 29  1  0
 28 30  1  0
 30 31  1  0
 30 32  2  0
 32 33  1  0
 33 34  1  0
 34 35  1  0
 34 36  1  0
 34 37  1  0
 37 38  1  0
 37 39  1  0
 37 40  1  0
 40 41  1  0
 40 42  1  0
 40 43  1  0
 43 44  1  0
 43 45  1  0
 32 46  1  0
 46 47  1  0
 46 48  2  0
 48 49  1  0
 20 50  1  0
 50 51  1  0
 50 52  2  0
 52 53  1  0
 52 15  1  0
 48 27  1  0
 43 33  1  0
M  CHG  3  26  -1  31  -1  48   1
M  END
>  <UniqueID>  (69) 
65

>  <SMILES>  (69) 
O=C([O-])/C(=C/c1ccc(CCCCO)cc1)c1cc([O-])c(N2CCCC2)c[nH+]1

>  <Energy>  (69) 
65.5286684252139

>  <Genealogy>  (69) 
O=C([O-])C(=Cc1ccc(CCCCO)cc1)c1cc([O-])c(N2CCCC2)c[nH+]1 (protonated)
O=C([O-])/C(=C/c1ccc(CCCCO)cc1)c1cc([O-])c(N2CCCC2)c[nH+]1 (cis-trans isomerization)
O=C([O-])/C(=C/c1ccc(CCCCO)cc1)c1cc([O-])c(N2CCCC2)c[nH+]1 (3D coordinates assigned)
O=C([O-])/C(=C/c1ccc(CCCCO)cc1)c1cc([O-])c(N2CCCC2)c[nH+]1 (nonaromatic ring conformer: 65.5286684252139 kcal/mol)

>  <smiles>  (69) 
O=C(O)C(=Cc1ccc(CCCCO)cc1)c1cc(O)c(N2CCCC2)cn1

>  <score_type>  (69) 
oracle

>  <origin>  (69) 
adg

>  <m_score__min__energy>  (69) 
-10.109999999999999

>  <m_primary>  (69) 
energy

$$$$
69:0
     RDKit          3D

 34 36  0  0  0  0  0  0  0  0999 V2000
   58.5430   26.9540   45.4800 O   0  0  0  0  0  0  0  0  0  0  0  0
   57.5300   27.6180   45.8360 C   0  0  0  0  0  0  0  0  0  0  0  0
   56.4270   26.9650   46.4850 N   0  0  0  0  0  0  0  0  0  0  0  0
   55.7650   25.9410   46.0350 C   0  0  0  0  0  0  0  0  0  0  0  0
   54.4310   25.9260   45.8200 N   0  0  0  0  0  0  0  0  0  0  0  0
   54.0180   24.7190   45.3480 C   0  0  0  0  0  0  0  0  0  0  0  0
   55.0230   23.7720   45.1870 C   0  0  0  0  0  0  0  0  0  0  0  0
   56.4820   24.4720   45.6540 S   0  0  0  0  0  0  0  0  0  0  0  0
   57.4860   29.0860   45.5890 C   0  0  0  0  0  0  0  0  0  0  0  0
   56.3400   29.6950   45.0480 C   0  0  0  0  0  0  0  0  0  0  0  0
   55.2200   28.9420   44.7030 O   0  0  0  0  0  0  0  0  0  0  0  0
   56.3230   31.0320   44.8400 N   0  0  0  0  0  0  0  0  0  0  0  0
   57.3870   31.8180   45.1320 C   0  0  0  0  0  0  0  0  0  0  0  0
   57.3030   33.0570   44.9130 O   0  0  0  0  0  0  0  0  0  0  0  0
   58.5310   31.2690   45.6520 N   0  0  0  0  0  0  0  0  0  0  0  0
   59.6800   32.1310   45.9990 C   0  0  0  0  0  0  0  0  0  0  0  0
   59.5820   32.5890   47.4320 C   0  0  0  0  0  0  0  0  0  0  0  0
   58.9500   31.7830   48.3960 C   0  0  0  0  0  0  0  0  0  0  0  0
   58.8360   32.2230   49.7180 C   0  0  0  0  0  0  0  0  0  0  0  0
   59.3460   33.4710   50.0880 C   0  0  0  0  0  0  0  0  0  0  0  0
   59.9730   34.2790   49.1360 C   0  0  0  0  0  0  0  0  0  0  0  0
   60.0890   33.8430   47.8130 C   0  0  0  0  0  0  0  0  0  0  0  0
   58.5880   29.9160   45.8860 C   0  0  0  0  0  0  0  0  0  0  0  0
   59.6310   29.4090   46.3870 O   0  0  0  0  0  0  0  0  0  0  0  0
   52.9649   24.5075   45.1108 H   0  0  0  0  0  0  0  0  0  0  0  0
   54.8887   22.7442   44.8187 H   0  0  0  0  0  0  0  0  0  0  0  0
   55.1400   27.9710   44.9790 H   0  0  0  0  0  0  0  0  0  0  0  0
   60.6125   31.5635   45.8632 H   0  0  0  0  0  0  0  0  0  0  0  0
   59.6743   33.0133   45.3421 H   0  0  0  0  0  0  0  0  0  0  0  0
   58.5436   30.8021   48.1084 H   0  0  0  0  0  0  0  0  0  0  0  0
   58.3443   31.5863   50.4682 H   0  0  0  0  0  0  0  0  0  0  0  0
   59.2537   33.8167   51.1282 H   0  0  0  0  0  0  0  0  0  0  0  0
   60.3760   35.2599   49.4282 H   0  0  0  0  0  0  0  0  0  0  0  0
   60.5796   34.4847   47.0664 H   0  0  0  0  0  0  0  0  0  0  0  0
  1  2  2  0
  2  3  1  0
  3  4  2  3
  4  5  1  0
  5  6  1  0
  6  7  2  0
  7  8  1  0
  2  9  1  0
  9 10  2  0
 10 11  1  0
 10 12  1  0
 12 13  1  0
 13 14  2  0
 13 15  1  0
 15 16  1  0
 16 17  1  0
 17 18  2  0
 18 19  1  0
 19 20  2  0
 20 21  1  0
 21 22  2  0
 15 23  1  0
 23 24  2  0
  8  4  1  0
 23  9  1  0
 22 17  1  0
  6 25  1  0
  7 26  1  0
 11 27  1  0
 16 28  1  0
 16 29  1  0
 18 30  1  0
 19 31  1  0
 20 32  1  0
 21 33  1  0
 22 34  1  0
M  CHG  2   5  -1  12  -1
M  END
>  <UniqueID>  (70) 
66

>  <SMILES>  (70) 
O=C(N=c1[n-]ccs1)c1c(O)[n-]c(=O)n(Cc2ccccc2)c1=O

>  <Energy>  (70) 
76.96705240542342

>  <Genealogy>  (70) 
O=C(N=c1[n-]ccs1)c1c(O)[n-]c(=O)n(Cc2ccccc2)c1=O (protonated)
O=C(N=c1[n-]ccs1)c1c(O)[n-]c(=O)n(Cc2ccccc2)c1=O (3D coordinates assigned)
O=C(N=c1[n-]ccs1)c1c(O)[n-]c(=O)n(Cc2ccccc2)c1=O (optimized conformer: 76.96705240542342 kcal/mol)

>  <smiles>  (70) 
O=C(N=c1[nH]ccs1)c1c(O)[nH]c(=O)n(Cc2ccccc2)c1=O

>  <score_type>  (70) 
oracle

>  <origin>  (70) 
adg

>  <m_score__min__energy>  (70) 
-11.470000000000001

>  <m_primary>  (70) 
energy

$$$$
70:0
     RDKit          3D

 40 43  0  0  0  0  0  0  0  0999 V2000
   55.6130   28.9530   45.0460 O   0  0  0  0  0  0  0  0  0  0  0  0
   56.7210   28.4480   45.3740 C   0  0  0  0  0  0  0  0  0  0  0  0
   57.9280   29.2250   45.2520 N   0  0  0  0  0  0  0  0  0  0  0  0
   57.9770   30.5290   44.6470 C   0  0  0  0  0  0  0  0  0  0  0  0
   58.4720   31.6410   45.3530 C   0  0  0  0  0  0  0  0  0  0  0  0
   58.4960   32.9150   44.7590 C   0  0  0  0  0  0  0  0  0  0  0  0
   59.0160   34.1110   45.5240 C   0  0  1  0  0  0  0  0  0  0  0  0
   58.4750   34.1590   46.9760 C   0  0  0  0  0  0  0  0  0  0  0  0
   59.6720   34.4120   47.7510 N   0  0  0  0  0  0  0  0  0  0  0  0
   60.0730   33.8410   48.9790 C   0  0  0  0  0  0  0  0  0  0  0  0
   59.2720   33.6150   49.9250 O   0  0  0  0  0  0  0  0  0  0  0  0
   61.5300   33.5030   49.0120 C   0  0  0  0  0  0  0  0  0  0  0  0
   62.0170   33.8320   47.5800 C   0  0  0  0  0  0  0  0  0  0  0  0
   60.7680   34.2790   46.9000 C   0  0  0  0  0  0  0  0  0  0  0  0
   60.4720   34.0390   45.6700 N   0  0  0  0  0  0  0  0  0  0  0  0
   57.9880   33.0770   43.4620 C   0  0  0  0  0  0  0  0  0  0  0  0
   57.4730   31.9810   42.7650 C   0  0  0  0  0  0  0  0  0  0  0  0
   57.4620   30.7140   43.3540 C   0  0  0  0  0  0  0  0  0  0  0  0
   56.9580   29.6620   42.6590 F   0  0  0  0  0  0  0  0  0  0  0  0
   56.7490   27.0570   45.8860 C   0  0  0  0  0  0  0  0  0  0  0  0
   57.9460   26.4370   46.2840 C   0  0  0  0  0  0  0  0  0  0  0  0
   57.9320   25.1260   46.7670 C   0  0  0  0  0  0  0  0  0  0  0  0
   56.7190   24.4420   46.8560 C   0  0  0  0  0  0  0  0  0  0  0  0
   56.6880   23.2600   47.2880 O   0  0  0  0  0  0  0  0  0  0  0  0
   55.5650   25.0540   46.4800 N   0  0  0  0  0  0  0  0  0  0  0  0
   55.5520   26.3300   46.0070 C   0  0  0  0  0  0  0  0  0  0  0  0
   58.8180   28.8540   45.6490 H   0  0  0  0  0  0  0  0  0  0  0  0
   58.8440   31.5122   46.3801 H   0  0  0  0  0  0  0  0  0  0  0  0
   58.6893   34.9895   44.9483 H   0  0  0  0  0  0  0  0  0  0  0  0
   57.7427   34.9703   47.1003 H   0  0  0  0  0  0  0  0  0  0  0  0
   57.9451   33.2429   47.2759 H   0  0  0  0  0  0  0  0  0  0  0  0
   62.0581   34.1170   49.7564 H   0  0  0  0  0  0  0  0  0  0  0  0
   61.7181   32.4570   49.2958 H   0  0  0  0  0  0  0  0  0  0  0  0
   62.7700   34.6337   47.5922 H   0  0  0  0  0  0  0  0  0  0  0  0
   62.5043   32.9820   47.0801 H   0  0  0  0  0  0  0  0  0  0  0  0
   57.9950   34.0712   42.9913 H   0  0  0  0  0  0  0  0  0  0  0  0
   57.0747   32.1161   41.7486 H   0  0  0  0  0  0  0  0  0  0  0  0
   58.8969   26.9857   46.2150 H   0  0  0  0  0  0  0  0  0  0  0  0
   58.8685   24.6376   47.0742 H   0  0  0  0  0  0  0  0  0  0  0  0
   54.5984   26.7956   45.7174 H   0  0  0  0  0  0  0  0  0  0  0  0
  1  2  2  0
  2  3  1  0
  3  4  1  0
  4  5  2  0
  5  6  1  0
  6  7  1  0
  7  8  1  0
  8  9  1  0
  9 10  1  0
 10 11  2  0
 10 12  1  0
 12 13  1  0
 13 14  1  0
 14 15  2  0
  6 16  2  0
 16 17  1  0
 17 18  2  0
 18 19  1  0
  2 20  1  0
 20 21  1  0
 21 22  2  0
 22 23  1  0
 23 24  2  0
 23 25  1  0
 25 26  1  0
 18  4  1  0
 26 20  2  0
 15  7  1  0
 14  9  1  0
  3 27  1  0
  5 28  1  0
  7 29  1  6
  8 30  1  0
  8 31  1  0
 12 32  1  0
 12 33  1  0
 13 34  1  0
 13 35  1  0
 16 36  1  0
 17 37  1  0
 21 38  1  0
 22 39  1  0
 26 40  1  0
M  CHG  1  25  -1
M  END
>  <UniqueID>  (71) 
67

>  <SMILES>  (71) 
O=C(Nc1cc([C@H]2CN3C(=O)CCC3=N2)ccc1F)c1ccc(=O)[n-]c1

>  <Energy>  (71) 
87.35041682401994

>  <Genealogy>  (71) 
O=C(Nc1cc(C2CN3C(=O)CCC3=N2)ccc1F)c1ccc(=O)[n-]c1 (protonated)
O=C(Nc1cc([C@H]2CN3C(=O)CCC3=N2)ccc1F)c1ccc(=O)[n-]c1 (chirality)
O=C(Nc1cc([C@H]2CN3C(=O)CCC3=N2)ccc1F)c1ccc(=O)[n-]c1 (3D coordinates assigned)
O=C(Nc1cc([C@H]2CN3C(=O)CCC3=N2)ccc1F)c1ccc(=O)[n-]c1 (nonaromatic ring conformer: 87.35041682401994 kcal/mol)

>  <smiles>  (71) 
O=C(Nc1cc(C2CN3C(=O)CCC3=N2)ccc1F)c1ccc(=O)[nH]c1

>  <score_type>  (71) 
oracle

>  <origin>  (71) 
adg

>  <m_score__min__energy>  (71) 
-10.33

>  <m_primary>  (71) 
energy

$$$$
71:0
     RDKit          3D

 33 35  0  0  0  0  0  0  0  0999 V2000
   56.1396   29.9130   42.7884 H   0  0  0  0  0  0  0  0  0  0  0  0
   56.2000   29.6390   43.8520 C   0  0  0  0  0  0  0  0  0  0  0  0
   55.1430   29.3620   44.4780 O   0  0  0  0  0  0  0  0  0  0  0  0
   57.5140   29.6040   44.5130 C   0  0  0  0  0  0  0  0  0  0  0  0
   58.4200   28.5690   44.3610 C   0  0  0  0  0  0  0  0  0  0  0  0
   58.3441   27.7586   43.6211 H   0  0  0  0  0  0  0  0  0  0  0  0
   59.4080   28.7120   45.2620 N   0  0  0  0  0  0  0  0  0  0  0  0
   60.2080   28.0550   45.3960 H   0  0  0  0  0  0  0  0  0  0  0  0
   59.1790   29.7940   45.9930 N   0  0  0  0  0  0  0  0  0  0  0  0
   60.0490   30.2520   47.0460 C   0  0  0  0  0  0  0  0  0  0  0  0
   59.7230   29.9990   48.3900 C   0  0  0  0  0  0  0  0  0  0  0  0
   58.8053   29.4445   48.6357 H   0  0  0  0  0  0  0  0  0  0  0  0
   60.5600   30.4490   49.4160 C   0  0  0  0  0  0  0  0  0  0  0  0
   60.3011   30.2433   50.4651 H   0  0  0  0  0  0  0  0  0  0  0  0
   61.7240   31.1590   49.1120 C   0  0  0  0  0  0  0  0  0  0  0  0
   62.3824   31.5091   49.9207 H   0  0  0  0  0  0  0  0  0  0  0  0
   62.0510   31.4240   47.7800 C   0  0  0  0  0  0  0  0  0  0  0  0
   62.9657   31.9863   47.5408 H   0  0  0  0  0  0  0  0  0  0  0  0
   61.2180   30.9760   46.7500 C   0  0  0  0  0  0  0  0  0  0  0  0
   61.4783   31.1909   45.7031 H   0  0  0  0  0  0  0  0  0  0  0  0
   58.0470   30.3850   45.5450 C   0  0  0  0  0  0  0  0  0  0  0  0
   57.6290   31.5370   45.9940 N   0  0  0  0  0  0  0  0  0  0  0  0
   58.3520   32.7720   46.0620 C   0  0  0  0  0  0  0  0  0  0  0  0
   58.6920   33.3420   47.3010 C   0  0  0  0  0  0  0  0  0  0  0  0
   58.4473   32.8136   48.2343 H   0  0  0  0  0  0  0  0  0  0  0  0
   59.3410   34.5800   47.3490 C   0  0  0  0  0  0  0  0  0  0  0  0
   59.6258   35.0142   48.3187 H   0  0  0  0  0  0  0  0  0  0  0  0
   59.6280   35.2660   46.1650 C   0  0  0  0  0  0  0  0  0  0  0  0
   60.1459   36.2357   46.2031 H   0  0  0  0  0  0  0  0  0  0  0  0
   59.2570   34.7200   44.9330 C   0  0  0  0  0  0  0  0  0  0  0  0
   59.4753   35.2646   44.0026 H   0  0  0  0  0  0  0  0  0  0  0  0
   58.6080   33.4810   44.8820 C   0  0  0  0  0  0  0  0  0  0  0  0
   58.2983   33.0632   43.9127 H   0  0  0  0  0  0  0  0  0  0  0  0
  1  2  1  0
  2  3  2  0
  2  4  1  0
  4  5  2  0
  5  6  1  0
  5  7  1  0
  7  8  1  0
  7  9  1  0
  9 10  1  0
 10 11  2  0
 11 12  1  0
 11 13  1  0
 13 14  1  0
 13 15  2  0
 15 16  1  0
 15 17  1  0
 17 18  1  0
 17 19  2  0
 19 20  1  0
  9 21  1  0
 21 22  2  0
 22 23  1  0
 23 24  2  0
 24 25  1  0
 24 26  1  0
 26 27  1  0
 26 28  2  0
 28 29  1  0
 28 30  1  0
 30 31  1  0
 30 32  2  0
 32 33  1  0
 21  4  1  0
 32 23  1  0
 19 10  1  0
M  END
>  <UniqueID>  (72) 
68

>  <SMILES>  (72) 
O=Cc1c[nH]n(-c2ccccc2)/c1=N/c1ccccc1

>  <Energy>  (72) 
86.6763598368308

>  <Genealogy>  (72) 
O=Cc1c[nH]n(-c2ccccc2)/c1=N/c1ccccc1 (cis-trans isomerization)
O=Cc1c[nH]n(-c2ccccc2)/c1=N/c1ccccc1 (3D coordinates assigned)
O=Cc1c[nH]n(-c2ccccc2)/c1=N/c1ccccc1 (optimized conformer: 86.6763598368308 kcal/mol)

>  <smiles>  (72) 
O=Cc1c[nH]n(-c2ccccc2)c1=Nc1ccccc1

>  <score_type>  (72) 
oracle

>  <origin>  (72) 
adg

>  <m_score__min__energy>  (72) 
-6.7800000000000002

>  <m_primary>  (72) 
energy

$$$$
72:0
     RDKit          3D

 55 58  0  0  0  0  0  0  0  0999 V2000
   57.4090   26.1420   43.9260 O   0  0  0  0  0  0  0  0  0  0  0  0
   57.7560   27.1600   44.5850 C   0  0  0  0  0  0  0  0  0  0  0  0
   58.4700   28.2790   43.8940 C   0  0  0  0  0  0  0  0  0  0  0  0
   57.7770   29.5780   44.1510 C   0  0  0  0  0  0  0  0  0  0  0  0
   58.4980   31.0940   44.0400 S   0  0  0  0  0  0  0  0  0  0  0  0
   57.1130   31.8800   44.5810 C   0  0  0  0  0  0  0  0  0  0  0  0
   57.0180   33.1240   44.7220 O   0  0  0  0  0  0  0  0  0  0  0  0
   56.1040   31.0280   44.8600 N   0  0  0  0  0  0  0  0  0  0  0  0
   56.4770   29.7420   44.6260 C   0  0  0  0  0  0  0  0  0  0  0  0
   55.6130   28.6760   44.8470 O   0  0  0  0  0  0  0  0  0  0  0  0
   57.5350   27.2320   46.0000 N   0  0  0  0  0  0  0  0  0  0  0  0
   58.5180   27.4600   47.0240 C   0  0  0  0  0  0  0  0  0  0  0  0
   58.4650   28.5870   47.8670 C   0  0  0  0  0  0  0  0  0  0  0  0
   59.4590   28.7990   48.8330 C   0  0  0  0  0  0  0  0  0  0  0  0
   59.4010   30.2160   49.8790 S   0  0  0  0  0  0  0  0  0  0  0  0
   58.0510   30.3070   50.5370 O   0  0  0  0  0  0  0  0  0  0  0  0
   60.4440   30.0680   50.9520 O   0  0  0  0  0  0  0  0  0  0  0  0
   59.7210   31.6580   48.9470 N   0  0  0  0  0  0  0  0  0  0  0  0
   60.7360   31.3770   47.9150 C   0  0  0  0  0  0  0  0  0  0  0  0
   60.8190   32.5310   46.8950 C   0  0  0  0  0  0  0  0  0  0  0  0
   60.1350   33.6760   47.3670 O   0  0  0  0  0  0  0  0  0  0  0  0
   58.7520   33.3920   47.4730 C   0  0  0  0  0  0  0  0  0  0  0  0
   58.4760   32.1320   48.3230 C   0  0  0  0  0  0  0  0  0  0  0  0
   60.5290   27.9070   48.9350 C   0  0  0  0  0  0  0  0  0  0  0  0
   60.6040   26.8010   48.0870 C   0  0  0  0  0  0  0  0  0  0  0  0
   59.6050   26.5730   47.1350 C   0  0  0  0  0  0  0  0  0  0  0  0
   59.7500   25.1530   46.0440 S   0  0  0  0  0  0  0  0  0  0  0  0
   58.1350   24.4560   46.5200 C   0  0  0  0  0  0  0  0  0  0  0  0
   57.6530   23.5390   45.4330 C   0  0  0  0  0  0  0  0  0  0  0  0
   58.5210   22.5830   44.8760 C   0  0  0  0  0  0  0  0  0  0  0  0
   58.0910   21.7730   43.8220 C   0  0  0  0  0  0  0  0  0  0  0  0
   56.7990   21.9180   43.3090 C   0  0  0  0  0  0  0  0  0  0  0  0
   55.9300   22.8710   43.8530 C   0  0  0  0  0  0  0  0  0  0  0  0
   56.3570   23.6840   44.9090 C   0  0  0  0  0  0  0  0  0  0  0  0
   59.5017   28.3380   44.2710 H   0  0  0  0  0  0  0  0  0  0  0  0
   58.4732   28.0849   42.8113 H   0  0  0  0  0  0  0  0  0  0  0  0
   55.8950   27.7260   44.6430 H   0  0  0  0  0  0  0  0  0  0  0  0
   57.6383   29.3057   47.7669 H   0  0  0  0  0  0  0  0  0  0  0  0
   61.7162   31.2527   48.3985 H   0  0  0  0  0  0  0  0  0  0  0  0
   60.4504   30.4577   47.3827 H   0  0  0  0  0  0  0  0  0  0  0  0
   61.8755   32.7871   46.7270 H   0  0  0  0  0  0  0  0  0  0  0  0
   60.3475   32.2035   45.9567 H   0  0  0  0  0  0  0  0  0  0  0  0
   58.2492   34.2514   47.9406 H   0  0  0  0  0  0  0  0  0  0  0  0
   58.3681   33.2049   46.4593 H   0  0  0  0  0  0  0  0  0  0  0  0
   57.7458   32.3763   49.1086 H   0  0  0  0  0  0  0  0  0  0  0  0
   58.0764   31.3403   47.6723 H   0  0  0  0  0  0  0  0  0  0  0  0
   61.3148   28.0767   49.6858 H   0  0  0  0  0  0  0  0  0  0  0  0
   61.4525   26.1056   48.1677 H   0  0  0  0  0  0  0  0  0  0  0  0
   58.2402   23.8912   47.4580 H   0  0  0  0  0  0  0  0  0  0  0  0
   57.4096   25.2701   46.6653 H   0  0  0  0  0  0  0  0  0  0  0  0
   59.5415   22.4726   45.2713 H   0  0  0  0  0  0  0  0  0  0  0  0
   58.7701   21.0202   43.3953 H   0  0  0  0  0  0  0  0  0  0  0  0
   56.4644   21.2820   42.4762 H   0  0  0  0  0  0  0  0  0  0  0  0
   54.9121   22.9808   43.4507 H   0  0  0  0  0  0  0  0  0  0  0  0
   55.6764   24.4386   45.3301 H   0  0  0  0  0  0  0  0  0  0  0  0
  1  2  2  0
  2  3  1  0
  3  4  1  0
  4  5  1  0
  5  6  1  0
  6  7  2  0
  6  8  1  0
  8  9  1  0
  9 10  1  0
  2 11  1  0
 11 12  1  0
 12 13  2  0
 13 14  1  0
 14 15  1  0
 15 16  2  0
 15 17  2  0
 15 18  1  0
 18 19  1  0
 19 20  1  0
 20 21  1  0
 21 22  1  0
 22 23  1  0
 14 24  2  0
 24 25  1  0
 25 26  2  0
 26 27  1  0
 27 28  1  0
 28 29  1  0
 29 30  2  0
 30 31  1  0
 31 32  2  0
 32 33  1  0
 33 34  2  0
  9  4  2  0
 26 12  1  0
 34 29  1  0
 23 18  1  0
  3 35  1  0
  3 36  1  0
 10 37  1  0
 13 38  1  0
 19 39  1  0
 19 40  1  0
 20 41  1  0
 20 42  1  0
 22 43  1  0
 22 44  1  0
 23 45  1  0
 23 46  1  0
 24 47  1  0
 25 48  1  0
 28 49  1  0
 28 50  1  0
 30 51  1  0
 31 52  1  0
 32 53  1  0
 33 54  1  0
 34 55  1  0
M  CHG  2   8  -1  11  -1
M  END
>  <UniqueID>  (73) 
69

>  <SMILES>  (73) 
O=C(Cc1sc(=O)[n-]c1O)[N-]c1cc(S(=O)(=O)N2CCOCC2)ccc1SCc1ccccc1

>  <Energy>  (73) 
91.48271856001234

>  <Genealogy>  (73) 
O=C(Cc1sc(=O)[n-]c1O)[N-]c1cc(S(=O)(=O)N2CCOCC2)ccc1SCc1ccccc1 (protonated)
O=C(Cc1sc(=O)[n-]c1O)[N-]c1cc(S(=O)(=O)N2CCOCC2)ccc1SCc1ccccc1 (3D coordinates assigned)
O=C(Cc1sc(=O)[n-]c1O)[N-]c1cc(S(=O)(=O)N2CCOCC2)ccc1SCc1ccccc1 (nonaromatic ring conformer: 91.48271856001234 kcal/mol)

>  <smiles>  (73) 
O=C(Cc1sc(=O)[nH]c1O)Nc1cc(S(=O)(=O)N2CCOCC2)ccc1SCc1ccccc1

>  <score_type>  (73) 
oracle

>  <origin>  (73) 
adg

>  <m_score__min__energy>  (73) 
-13.69

>  <m_primary>  (73) 
energy

$$$$
73:0
     RDKit          3D

 42 45  0  0  0  0  0  0  0  0999 V2000
   58.2760   33.7350   51.9970 O   0  0  0  0  0  0  0  0  0  0  0  0
   58.1810   32.5330   51.6370 C   0  0  0  0  0  0  0  0  0  0  0  0
   59.0570   32.0150   50.6820 C   0  0  0  0  0  0  0  0  0  0  0  0
   58.9160   30.6750   50.3030 C   0  0  0  0  0  0  0  0  0  0  0  0
   59.8500   30.0590   49.3090 C   0  0  0  0  0  0  0  0  0  0  0  0
   61.1250   30.7700   49.3440 N   0  0  0  0  0  0  0  0  0  0  0  0
   61.3790   31.6000   47.8400 S   0  0  0  0  0  0  0  0  0  0  0  0
   62.3460   30.8280   46.9870 O   0  0  0  0  0  0  0  0  0  0  0  0
   61.9650   32.9560   48.1190 O   0  0  0  0  0  0  0  0  0  0  0  0
   59.8480   31.8000   46.9920 C   0  0  0  0  0  0  0  0  0  0  0  0
   59.1120   33.0020   47.1440 C   0  0  0  0  0  0  0  0  0  0  0  0
   57.8770   33.1730   46.4910 C   0  0  0  0  0  0  0  0  0  0  0  0
   57.4100   32.1240   45.7040 C   0  0  0  0  0  0  0  0  0  0  0  0
   56.2690   32.0730   44.9960 N   0  0  0  0  0  0  0  0  0  0  0  0
   56.2300   30.8870   44.3940 N   0  0  0  0  0  0  0  0  0  0  0  0
   57.3410   30.1860   44.7250 C   0  0  0  0  0  0  0  0  0  0  0  0
   57.6660   28.8280   44.1840 C   0  0  0  0  0  0  0  0  0  0  0  0
   57.9270   27.8670   45.3150 C   0  0  0  0  0  0  0  0  0  0  0  0
   59.2480   27.6370   45.7380 C   0  0  0  0  0  0  0  0  0  0  0  0
   59.5090   26.7770   46.8080 C   0  0  0  0  0  0  0  0  0  0  0  0
   58.4550   26.1450   47.4710 C   0  0  0  0  0  0  0  0  0  0  0  0
   57.1370   26.3750   47.0680 C   0  0  0  0  0  0  0  0  0  0  0  0
   56.8670   27.2340   45.9970 C   0  0  0  0  0  0  0  0  0  0  0  0
   55.5470   27.4520   45.6200 O   0  0  0  0  0  0  0  0  0  0  0  0
   58.1130   30.9640   45.5590 C   0  0  0  0  0  0  0  0  0  0  0  0
   59.3390   30.7570   46.1890 C   0  0  0  0  0  0  0  0  0  0  0  0
   57.9520   29.9120   50.8850 N   0  0  0  0  0  0  0  0  0  0  0  0
   57.1090   30.4340   51.8130 C   0  0  0  0  0  0  0  0  0  0  0  0
   56.2200   29.7120   52.3330 O   0  0  0  0  0  0  0  0  0  0  0  0
   57.2260   31.7360   52.1830 N   0  0  0  0  0  0  0  0  0  0  0  0
   59.8407   32.6457   50.2371 H   0  0  0  0  0  0  0  0  0  0  0  0
   60.0116   29.0009   49.5626 H   0  0  0  0  0  0  0  0  0  0  0  0
   59.4154   30.1286   48.3009 H   0  0  0  0  0  0  0  0  0  0  0  0
   59.5097   33.8082   47.7779 H   0  0  0  0  0  0  0  0  0  0  0  0
   57.3006   34.1036   46.5988 H   0  0  0  0  0  0  0  0  0  0  0  0
   56.8186   28.4630   43.5850 H   0  0  0  0  0  0  0  0  0  0  0  0
   58.5667   28.8974   43.5564 H   0  0  0  0  0  0  0  0  0  0  0  0
   60.0815   28.1373   45.2233 H   0  0  0  0  0  0  0  0  0  0  0  0
   60.5459   26.5977   47.1284 H   0  0  0  0  0  0  0  0  0  0  0  0
   58.6624   25.4657   48.3110 H   0  0  0  0  0  0  0  0  0  0  0  0
   56.3085   25.8789   47.5947 H   0  0  0  0  0  0  0  0  0  0  0  0
   59.8906   29.8135   46.0646 H   0  0  0  0  0  0  0  0  0  0  0  0
  1  2  2  0
  2  3  1  0
  3  4  2  0
  4  5  1  0
  5  6  1  0
  6  7  1  0
  7  8  2  0
  7  9  2  0
  7 10  1  0
 10 11  1  0
 11 12  2  0
 12 13  1  0
 13 14  2  0
 14 15  1  0
 15 16  1  0
 16 17  1  0
 17 18  1  0
 18 19  2  0
 19 20  1  0
 20 21  2  0
 21 22  1  0
 22 23  2  0
 23 24  1  0
 16 25  2  0
 25 26  1  0
  4 27  1  0
 27 28  1  0
 28 29  2  0
 28 30  1  0
 30  2  1  0
 26 10  2  0
 25 13  1  0
 23 18  1  0
  3 31  1  0
  5 32  1  0
  5 33  1  0
 11 34  1  0
 12 35  1  0
 17 36  1  0
 17 37  1  0
 19 38  1  0
 20 39  1  0
 21 40  1  0
 22 41  1  0
 26 42  1  0
M  CHG  5   6  -1  15  -1  24  -1  27  -1  30  -1
M  END
>  <UniqueID>  (74) 
70

>  <SMILES>  (74) 
O=c1cc(C[N-]S(=O)(=O)c2ccc3n[n-]c(Cc4ccccc4[O-])c3c2)[n-]c(=O)[n-]1

>  <Energy>  (74) 
82.21798399261776

>  <Genealogy>  (74) 
O=c1cc(C[N-]S(=O)(=O)c2ccc3n[n-]c(Cc4ccccc4[O-])c3c2)[n-]c(=O)[n-]1 (protonated)
O=c1cc(C[N-]S(=O)(=O)c2ccc3n[n-]c(Cc4ccccc4[O-])c3c2)[n-]c(=O)[n-]1 (3D coordinates assigned)
O=c1cc(C[N-]S(=O)(=O)c2ccc3n[n-]c(Cc4ccccc4[O-])c3c2)[n-]c(=O)[n-]1 (optimized conformer: 82.21798399261776 kcal/mol)

>  <smiles>  (74) 
O=c1cc(CNS(=O)(=O)c2ccc3n[nH]c(Cc4ccccc4O)c3c2)[nH]c(=O)[nH]1

>  <score_type>  (74) 
oracle

>  <origin>  (74) 
adg

>  <m_score__min__energy>  (74) 
-18.550000000000001

>  <m_primary>  (74) 
energy

$$$$
74:0
     RDKit          3D

 42 44  0  0  0  0  0  0  0  0999 V2000
   55.1440   29.3010   44.8430 N   0  0  0  0  0  0  0  0  0  0  0  0
   56.2150   29.8420   44.0720 C   0  0  0  0  0  0  0  0  0  0  0  0
   56.1950   29.7030   42.8190 O   0  0  0  0  0  0  0  0  0  0  0  0
   57.3460   30.5330   44.7430 C   0  0  0  0  0  0  0  0  0  0  0  0
   57.3100   31.9350   44.8730 C   0  0  0  0  0  0  0  0  0  0  0  0
   58.3250   32.6180   45.5440 C   0  0  0  0  0  0  0  0  0  0  0  0
   59.3960   31.9140   46.0930 C   0  0  0  0  0  0  0  0  0  0  0  0
   59.4590   30.5260   45.9620 C   0  0  0  0  0  0  0  0  0  0  0  0
   58.4430   29.8220   45.2950 C   0  0  0  0  0  0  0  0  0  0  0  0
   58.5760   28.4040   45.1050 N   0  0  0  0  0  0  0  0  0  0  0  0
   57.8240   27.4420   45.8660 C   0  0  0  0  0  0  0  0  0  0  0  0
   57.0330   27.8380   46.7660 O   0  0  0  0  0  0  0  0  0  0  0  0
   57.9530   25.9870   45.6090 C   0  0  0  0  0  0  0  0  0  0  0  0
   59.1800   25.3180   45.7780 C   0  0  0  0  0  0  0  0  0  0  0  0
   59.2790   23.9460   45.5260 C   0  0  0  0  0  0  0  0  0  0  0  0
   58.1630   23.2280   45.0930 C   0  0  0  0  0  0  0  0  0  0  0  0
   56.9390   23.8820   44.9040 C   0  0  0  0  0  0  0  0  0  0  0  0
   55.5220   22.9890   44.3600 S   0  0  0  0  0  0  0  0  0  0  0  0
   54.4040   23.9610   44.1030 O   0  0  0  0  0  0  0  0  0  0  0  0
   55.8170   22.2390   43.0900 O   0  0  0  0  0  0  0  0  0  0  0  0
   55.0310   21.8640   45.5830 N   0  0  0  0  0  0  0  0  0  0  0  0
   55.9180   21.1790   46.4800 C   0  0  0  0  0  0  0  0  0  0  0  0
   56.2390   19.8210   46.3220 C   0  0  0  0  0  0  0  0  0  0  0  0
   57.1110   19.2000   47.2200 C   0  0  0  0  0  0  0  0  0  0  0  0
   57.6560   19.9420   48.2680 C   0  0  0  0  0  0  0  0  0  0  0  0
   57.3390   21.2540   48.4090 N   0  0  0  0  0  0  0  0  0  0  0  0
   56.4950   21.8850   47.5480 C   0  0  0  0  0  0  0  0  0  0  0  0
   56.2450   23.1090   47.7130 O   0  0  0  0  0  0  0  0  0  0  0  0
   56.8380   25.2560   45.1570 C   0  0  0  0  0  0  0  0  0  0  0  0
   55.3300   28.6520   45.6390 H   0  0  0  0  0  0  0  0  0  0  0  0
   56.4707   32.4989   44.4399 H   0  0  0  0  0  0  0  0  0  0  0  0
   58.2802   33.7129   45.6399 H   0  0  0  0  0  0  0  0  0  0  0  0
   60.1912   32.4525   46.6293 H   0  0  0  0  0  0  0  0  0  0  0  0
   60.3133   29.9776   46.3856 H   0  0  0  0  0  0  0  0  0  0  0  0
   59.2530   28.0790   44.3820 H   0  0  0  0  0  0  0  0  0  0  0  0
   60.0665   25.8780   46.1104 H   0  0  0  0  0  0  0  0  0  0  0  0
   60.2401   23.4306   45.6696 H   0  0  0  0  0  0  0  0  0  0  0  0
   58.2449   22.1481   44.9001 H   0  0  0  0  0  0  0  0  0  0  0  0
   55.8039   19.2461   45.4912 H   0  0  0  0  0  0  0  0  0  0  0  0
   57.3652   18.1363   47.1017 H   0  0  0  0  0  0  0  0  0  0  0  0
   58.3434   19.4632   48.9809 H   0  0  0  0  0  0  0  0  0  0  0  0
   55.8776   25.7691   45.0009 H   0  0  0  0  0  0  0  0  0  0  0  0
  1  2  1  0
  2  3  2  0
  2  4  1  0
  4  5  2  0
  5  6  1  0
  6  7  2  0
  7  8  1  0
  8  9  2  0
  9 10  1  0
 10 11  1  0
 11 12  2  0
 11 13  1  0
 13 14  2  0
 14 15  1  0
 15 16  2  0
 16 17  1  0
 17 18  1  0
 18 19  2  0
 18 20  2  0
 18 21  1  0
 21 22  1  0
 22 23  2  0
 23 24  1  0
 24 25  2  0
 25 26  1  0
 26 27  1  0
 27 28  2  0
 17 29  2  0
  9  4  1  0
 29 13  1  0
 27 22  1  0
  1 30  1  0
  5 31  1  0
  6 32  1  0
  7 33  1  0
  8 34  1  0
 10 35  1  0
 14 36  1  0
 15 37  1  0
 16 38  1  0
 23 39  1  0
 24 40  1  0
 25 41  1  0
 29 42  1  0
M  CHG  3   1  -1  21  -1  26  -1
M  END
>  <UniqueID>  (75) 
71

>  <SMILES>  (75) 
[NH-]C(=O)c1ccccc1NC(=O)c1cccc(S(=O)(=O)[N-]c2ccc[n-]c2=O)c1

>  <Energy>  (75) 
59.69370639979215

>  <Genealogy>  (75) 
[NH-]C(=O)c1ccccc1NC(=O)c1cccc(S(=O)(=O)[N-]c2ccc[n-]c2=O)c1 (protonated)
[NH-]C(=O)c1ccccc1NC(=O)c1cccc(S(=O)(=O)[N-]c2ccc[n-]c2=O)c1 (3D coordinates assigned)
[NH-]C(=O)c1ccccc1NC(=O)c1cccc(S(=O)(=O)[N-]c2ccc[n-]c2=O)c1 (optimized conformer: 59.69370639979215 kcal/mol)

>  <smiles>  (75) 
NC(=O)c1ccccc1NC(=O)c1cccc(S(=O)(=O)Nc2ccc[nH]c2=O)c1

>  <score_type>  (75) 
oracle

>  <origin>  (75) 
adg

>  <m_score__min__energy>  (75) 
-14.66

>  <m_primary>  (75) 
energy

$$$$
75:0
     RDKit          3D

 30 30  0  0  0  0  0  0  0  0999 V2000
   58.2250   33.8280   44.5220 C   0  0  0  0  0  0  0  0  0  0  0  0
   58.2560   33.1590   45.8230 N   0  0  0  0  0  0  0  0  0  0  0  0
   57.2030   33.4550   46.7940 C   0  0  0  0  0  0  0  0  0  0  0  0
   59.4540   32.4960   46.2700 C   0  0  0  0  0  0  0  0  0  0  0  0
   60.5910   33.1620   46.5640 N   0  0  0  0  0  0  0  0  0  0  0  0
   61.4570   32.2070   46.9480 C   0  0  0  0  0  0  0  0  0  0  0  0
   62.8020   32.4610   47.3640 N   0  0  0  0  0  0  0  0  0  0  0  0
   63.4680   31.5690   47.9280 O   0  0  0  0  0  0  0  0  0  0  0  0
   63.3710   33.6940   47.1460 O   0  0  0  0  0  0  0  0  0  0  0  0
   60.8430   30.9740   46.8940 C   0  0  0  0  0  0  0  0  0  0  0  0
   59.5760   31.1580   46.4690 N   0  0  0  0  0  0  0  0  0  0  0  0
   58.5580   30.1090   46.3660 C   0  0  0  0  0  0  0  0  0  0  0  0
   58.2770   29.7270   44.9070 C   0  0  0  0  0  0  0  0  0  0  0  0
   56.5850   30.0540   44.4270 S   0  0  0  0  0  0  0  0  0  0  0  0
   55.5220   28.8900   45.1380 N   0  0  0  0  0  0  0  0  0  0  0  0
   56.4800   29.9610   42.9310 O   0  0  0  0  0  0  0  0  0  0  0  0
   56.1810   31.4360   44.8600 O   0  0  0  0  0  0  0  0  0  0  0  0
   58.1745   34.9167   44.6707 H   0  0  0  0  0  0  0  0  0  0  0  0
   59.1358   33.5767   43.9587 H   0  0  0  0  0  0  0  0  0  0  0  0
   57.3414   33.4935   43.9587 H   0  0  0  0  0  0  0  0  0  0  0  0
   57.6018   33.3429   47.8130 H   0  0  0  0  0  0  0  0  0  0  0  0
   56.8507   34.4870   46.6496 H   0  0  0  0  0  0  0  0  0  0  0  0
   56.3646   32.7577   46.6496 H   0  0  0  0  0  0  0  0  0  0  0  0
   60.7650   34.1890   46.5010 H   0  0  0  0  0  0  0  0  0  0  0  0
   61.3049   30.0096   47.1521 H   0  0  0  0  0  0  0  0  0  0  0  0
   58.9099   29.2175   46.9057 H   0  0  0  0  0  0  0  0  0  0  0  0
   57.6253   30.4945   46.8036 H   0  0  0  0  0  0  0  0  0  0  0  0
   58.9470   30.3069   44.2552 H   0  0  0  0  0  0  0  0  0  0  0  0
   58.4502   28.6455   44.8053 H   0  0  0  0  0  0  0  0  0  0  0  0
   54.5880   29.3440   45.2410 H   0  0  0  0  0  0  0  0  0  0  0  0
  1  2  1  0
  2  3  1  0
  2  4  1  0
  4  5  2  0
  5  6  1  0
  6  7  1  0
  7  8  2  0
  7  9  1  0
  6 10  2  0
 10 11  1  0
 11 12  1  0
 12 13  1  0
 13 14  1  0
 14 15  1  0
 14 16  2  0
 14 17  2  0
 11  4  1  0
  1 18  1  0
  1 19  1  0
  1 20  1  0
  3 21  1  0
  3 22  1  0
  3 23  1  0
  5 24  1  0
 10 25  1  0
 12 26  1  0
 12 27  1  0
 13 28  1  0
 13 29  1  0
 15 30  1  0
M  CHG  4   5   1   7   1   9  -1  15  -1
M  END
>  <UniqueID>  (76) 
72

>  <SMILES>  (76) 
CN(C)c1[nH+]c([N+](=O)[O-])cn1CCS([NH-])(=O)=O

>  <Energy>  (76) 
53.23110918387903

>  <Genealogy>  (76) 
CN(C)c1[nH+]c([N+](=O)[O-])cn1CCS([NH-])(=O)=O (protonated)
CN(C)c1[nH+]c([N+](=O)[O-])cn1CCS([NH-])(=O)=O (3D coordinates assigned)
CN(C)c1[nH+]c([N+](=O)[O-])cn1CCS([NH-])(=O)=O (optimized conformer: 53.23110918387903 kcal/mol)

>  <smiles>  (76) 
CN(C)c1nc([N+](=O)[O-])cn1CCS(N)(=O)=O

>  <score_type>  (76) 
oracle

>  <origin>  (76) 
adg

>  <m_score__min__energy>  (76) 
-7.1200000000000001

>  <m_primary>  (76) 
energy

$$$$
76:0
     RDKit          3D

 36 37  0  0  0  0  0  0  0  0999 V2000
   59.1960   26.5230   45.8930 C   0  0  0  0  0  0  0  0  0  0  0  0
   58.2040   27.5360   45.5040 N   0  0  0  0  0  0  0  0  0  0  0  0
   58.6380   28.7460   45.0370 C   0  0  0  0  0  0  0  0  0  0  0  0
   57.7260   29.7360   44.6490 C   0  0  0  0  0  0  0  0  0  0  0  0
   58.2170   31.0800   44.1720 C   0  0  0  0  0  0  0  0  0  0  0  0
   58.4160   31.9850   45.3030 N   0  0  0  0  0  0  0  0  0  0  0  0
   57.9550   33.3420   45.2670 C   0  0  0  0  0  0  0  0  0  0  0  0
   57.3920   33.7950   44.2340 O   0  0  0  0  0  0  0  0  0  0  0  0
   58.0930   34.2140   46.4760 C   0  0  0  0  0  0  0  0  0  0  0  0
   59.4640   34.0510   47.0730 C   0  0  0  0  0  0  0  0  0  0  0  0
   59.6370   34.0580   48.4660 C   0  0  0  0  0  0  0  0  0  0  0  0
   60.9160   33.9450   49.0200 C   0  0  0  0  0  0  0  0  0  0  0  0
   62.0450   33.8310   48.1910 C   0  0  0  0  0  0  0  0  0  0  0  0
   63.3600   33.7160   48.7640 N   0  0  0  0  0  0  0  0  0  0  0  0
   63.5960   34.1490   49.9110 O   0  0  0  0  0  0  0  0  0  0  0  0
   64.3820   33.1250   48.0570 O   0  0  0  0  0  0  0  0  0  0  0  0
   61.8670   33.8360   46.7950 C   0  0  0  0  0  0  0  0  0  0  0  0
   60.5890   33.9490   46.2420 C   0  0  0  0  0  0  0  0  0  0  0  0
   56.3600   29.4600   44.7840 C   0  0  0  0  0  0  0  0  0  0  0  0
   55.4940   30.3230   44.4790 O   0  0  0  0  0  0  0  0  0  0  0  0
   55.9610   28.2520   45.2500 N   0  0  0  0  0  0  0  0  0  0  0  0
   56.8540   27.2920   45.6050 C   0  0  0  0  0  0  0  0  0  0  0  0
   56.2690   25.8600   46.1570 S   0  0  0  0  0  0  0  0  0  0  0  0
   59.2514   26.4664   46.9901 H   0  0  0  0  0  0  0  0  0  0  0  0
   58.8977   25.5439   45.4900 H   0  0  0  0  0  0  0  0  0  0  0  0
   60.1811   26.8007   45.4900 H   0  0  0  0  0  0  0  0  0  0  0  0
   59.7176   28.9444   44.9651 H   0  0  0  0  0  0  0  0  0  0  0  0
   59.1716   30.9489   43.6414 H   0  0  0  0  0  0  0  0  0  0  0  0
   57.4641   31.5143   43.4979 H   0  0  0  0  0  0  0  0  0  0  0  0
   58.8940   31.6410   46.1680 H   0  0  0  0  0  0  0  0  0  0  0  0
   57.9442   35.2647   46.1864 H   0  0  0  0  0  0  0  0  0  0  0  0
   57.3376   33.9220   47.2204 H   0  0  0  0  0  0  0  0  0  0  0  0
   58.7617   34.1529   49.1254 H   0  0  0  0  0  0  0  0  0  0  0  0
   61.0393   33.9453   50.1131 H   0  0  0  0  0  0  0  0  0  0  0  0
   62.7417   33.7502   46.1335 H   0  0  0  0  0  0  0  0  0  0  0  0
   60.4646   33.9580   45.1491 H   0  0  0  0  0  0  0  0  0  0  0  0
  1  2  1  0
  2  3  1  0
  3  4  2  0
  4  5  1  0
  5  6  1  0
  6  7  1  0
  7  8  2  0
  7  9  1  0
  9 10  1  0
 10 11  2  0
 11 12  1  0
 12 13  2  0
 13 14  1  0
 14 15  2  0
 14 16  1  0
 13 17  1  0
 17 18  2  0
  4 19  1  0
 19 20  2  0
 19 21  1  0
 21 22  1  0
 22 23  2  0
 22  2  1  0
 18 10  1  0
  1 24  1  0
  1 25  1  0
  1 26  1  0
  3 27  1  0
  5 28  1  0
  5 29  1  0
  6 30  1  0
  9 31  1  0
  9 32  1  0
 11 33  1  0
 12 34  1  0
 17 35  1  0
 18 36  1  0
M  CHG  3  14   1  16  -1  21  -1
M  END
>  <UniqueID>  (77) 
73

>  <SMILES>  (77) 
Cn1cc(CNC(=O)Cc2ccc([N+](=O)[O-])cc2)c(=O)[n-]c1=S

>  <Energy>  (77) 
37.454638360053444

>  <Genealogy>  (77) 
Cn1cc(CNC(=O)Cc2ccc([N+](=O)[O-])cc2)c(=O)[n-]c1=S (protonated)
Cn1cc(CNC(=O)Cc2ccc([N+](=O)[O-])cc2)c(=O)[n-]c1=S (3D coordinates assigned)
Cn1cc(CNC(=O)Cc2ccc([N+](=O)[O-])cc2)c(=O)[n-]c1=S (optimized conformer: 37.454638360053444 kcal/mol)

>  <smiles>  (77) 
Cn1cc(CNC(=O)Cc2ccc([N+](=O)[O-])cc2)c(=O)[nH]c1=S

>  <score_type>  (77) 
oracle

>  <origin>  (77) 
adg

>  <m_score__min__energy>  (77) 
-9.6099999999999994

>  <m_primary>  (77) 
energy

$$$$
77:0
     RDKit          3D

 48 52  0  0  0  0  0  0  0  0999 V2000
   66.7150   32.7300   50.0430 C   0  0  0  0  0  0  0  0  0  0  0  0
   65.2700   32.9310   50.0740 N   0  0  0  0  0  0  0  0  0  0  0  0
   64.4400   32.9370   49.0060 C   0  0  0  0  0  0  0  0  0  0  0  0
   63.1310   33.1860   49.4130 C   0  0  0  0  0  0  0  0  0  0  0  0
   61.9450   33.2570   48.5310 C   0  0  0  0  0  0  0  0  0  0  0  0
   60.6960   32.8150   48.9950 C   0  0  0  0  0  0  0  0  0  0  0  0
   59.5690   32.8870   48.1740 C   0  0  0  0  0  0  0  0  0  0  0  0
   59.6640   33.4150   46.8740 C   0  0  0  0  0  0  0  0  0  0  0  0
   58.4690   33.4910   46.0000 C   0  0  0  0  0  0  0  0  0  0  0  0
   57.4010   34.0020   46.4400 O   0  0  0  0  0  0  0  0  0  0  0  0
   58.5100   32.9420   44.6760 N   0  0  0  0  0  0  0  0  0  0  0  0
   57.8570   31.7470   44.2230 C   0  0  0  0  0  0  0  0  0  0  0  0
   57.2540   31.6640   42.9570 C   0  0  0  0  0  0  0  0  0  0  0  0
   56.6420   30.4780   42.5480 C   0  0  0  0  0  0  0  0  0  0  0  0
   56.6410   29.3620   43.3860 C   0  0  0  0  0  0  0  0  0  0  0  0
   57.2670   29.4120   44.6450 C   0  0  0  0  0  0  0  0  0  0  0  0
   57.2660   28.2090   45.5190 C   0  0  0  0  0  0  0  0  0  0  0  0
   58.3510   27.7980   46.3040 C   0  0  0  0  0  0  0  0  0  0  0  0
   57.9190   26.3900   47.1180 S   0  0  0  0  0  0  0  0  0  0  0  0
   56.3850   26.3630   46.4430 C   0  0  0  0  0  0  0  0  0  0  0  0
   55.5190   25.4830   46.6820 O   0  0  0  0  0  0  0  0  0  0  0  0
   56.1740   27.3950   45.6040 N   0  0  0  0  0  0  0  0  0  0  0  0
   57.8760   30.6170   45.0500 C   0  0  0  0  0  0  0  0  0  0  0  0
   60.9130   33.8720   46.4170 C   0  0  0  0  0  0  0  0  0  0  0  0
   62.0410   33.7980   47.2400 C   0  0  0  0  0  0  0  0  0  0  0  0
   63.1920   33.3590   50.7880 C   0  0  0  0  0  0  0  0  0  0  0  0
   62.2130   33.7020   51.7250 C   0  0  0  0  0  0  0  0  0  0  0  0
   62.6040   33.8390   53.0680 C   0  0  0  0  0  0  0  0  0  0  0  0
   63.9500   33.6510   53.4450 C   0  0  0  0  0  0  0  0  0  0  0  0
   64.9220   33.3320   52.4810 C   0  0  0  0  0  0  0  0  0  0  0  0
   64.5080   33.1940   51.1530 C   0  0  0  0  0  0  0  0  0  0  0  0
   67.0999   32.6765   51.0721 H   0  0  0  0  0  0  0  0  0  0  0  0
   66.9434   31.7914   49.5168 H   0  0  0  0  0  0  0  0  0  0  0  0
   67.1909   33.5706   49.5168 H   0  0  0  0  0  0  0  0  0  0  0  0
   64.7536   32.7693   47.9651 H   0  0  0  0  0  0  0  0  0  0  0  0
   60.6045   32.4088   50.0132 H   0  0  0  0  0  0  0  0  0  0  0  0
   58.5986   32.5277   48.5471 H   0  0  0  0  0  0  0  0  0  0  0  0
   57.2641   32.5358   42.2863 H   0  0  0  0  0  0  0  0  0  0  0  0
   56.1587   30.4228   41.5614 H   0  0  0  0  0  0  0  0  0  0  0  0
   56.1465   28.4353   43.0593 H   0  0  0  0  0  0  0  0  0  0  0  0
   59.3221   28.3096   46.3762 H   0  0  0  0  0  0  0  0  0  0  0  0
   58.3733   30.6705   46.0297 H   0  0  0  0  0  0  0  0  0  0  0  0
   61.0033   34.2910   45.4040 H   0  0  0  0  0  0  0  0  0  0  0  0
   63.0102   34.1664   46.8728 H   0  0  0  0  0  0  0  0  0  0  0  0
   61.1679   33.8600   51.4203 H   0  0  0  0  0  0  0  0  0  0  0  0
   61.8543   34.0949   53.8312 H   0  0  0  0  0  0  0  0  0  0  0  0
   64.2411   33.7547   54.5007 H   0  0  0  0  0  0  0  0  0  0  0  0
   65.9764   33.1951   52.7631 H   0  0  0  0  0  0  0  0  0  0  0  0
  1  2  1  0
  2  3  1  0
  3  4  2  0
  4  5  1  0
  5  6  2  0
  6  7  1  0
  7  8  2  0
  8  9  1  0
  9 10  2  0
  9 11  1  0
 11 12  1  0
 12 13  2  0
 13 14  1  0
 14 15  2  0
 15 16  1  0
 16 17  1  0
 17 18  2  0
 18 19  1  0
 19 20  1  0
 20 21  2  0
 20 22  1  0
 16 23  2  0
  8 24  1  0
 24 25  2  0
  4 26  1  0
 26 27  2  0
 27 28  1  0
 28 29  2  0
 29 30  1  0
 30 31  2  0
 31  2  1  0
 25  5  1  0
 31 26  1  0
 23 12  1  0
 22 17  1  0
  1 32  1  0
  1 33  1  0
  1 34  1  0
  3 35  1  0
  6 36  1  0
  7 37  1  0
 13 38  1  0
 14 39  1  0
 15 40  1  0
 18 41  1  0
 23 42  1  0
 24 43  1  0
 25 44  1  0
 27 45  1  0
 28 46  1  0
 29 47  1  0
 30 48  1  0
M  CHG  2  11  -1  22  -1
M  END
>  <UniqueID>  (78) 
74

>  <SMILES>  (78) 
Cn1cc(-c2ccc(C(=O)[N-]c3cccc(-c4csc(=O)[n-]4)c3)cc2)c2ccccc21

>  <Energy>  (78) 
129.8782162790992

>  <Genealogy>  (78) 
Cn1cc(-c2ccc(C(=O)[N-]c3cccc(-c4csc(=O)[n-]4)c3)cc2)c2ccccc21 (protonated)
Cn1cc(-c2ccc(C(=O)[N-]c3cccc(-c4csc(=O)[n-]4)c3)cc2)c2ccccc21 (3D coordinates assigned)
Cn1cc(-c2ccc(C(=O)[N-]c3cccc(-c4csc(=O)[n-]4)c3)cc2)c2ccccc21 (optimized conformer: 129.8782162790992 kcal/mol)

>  <smiles>  (78) 
Cn1cc(-c2ccc(C(=O)Nc3cccc(-c4csc(=O)[nH]4)c3)cc2)c2ccccc21

>  <score_type>  (78) 
oracle

>  <origin>  (78) 
adg

>  <m_score__min__energy>  (78) 
-12.76

>  <m_primary>  (78) 
energy

$$$$
78:0
     RDKit          3D

 46 48  0  0  0  0  0  0  0  0999 V2000
   55.9398   29.0141   44.7611 H   0  0  0  0  0  0  0  0  0  0  0  0
   56.4640   28.2540   45.3590 C   0  0  0  0  0  0  0  0  0  0  0  0
   55.8610   27.0640   45.6190 N   0  0  0  0  0  0  0  0  0  0  0  0
   56.4590   26.0830   46.3460 C   0  0  0  0  0  0  0  0  0  0  0  0
   55.8030   24.9740   46.5480 N   0  0  0  0  0  0  0  0  0  0  0  0
   55.8740   23.7420   45.7610 C   0  0  0  0  0  0  0  0  0  0  0  0
   54.8862   23.2579   45.7596 H   0  0  0  0  0  0  0  0  0  0  0  0
   56.6258   23.0784   46.2131 H   0  0  0  0  0  0  0  0  0  0  0  0
   56.2870   24.0390   44.3230 C   0  0  0  0  0  0  0  0  0  0  0  0
   57.1801   24.6812   44.3232 H   0  0  0  0  0  0  0  0  0  0  0  0
   56.5138   23.0958   43.8044 H   0  0  0  0  0  0  0  0  0  0  0  0
   55.4650   24.5542   43.8044 H   0  0  0  0  0  0  0  0  0  0  0  0
   57.7550   26.3040   46.8520 C   0  0  0  0  0  0  0  0  0  0  0  0
   58.2589   25.5256   47.4437 H   0  0  0  0  0  0  0  0  0  0  0  0
   58.3950   27.5180   46.5970 C   0  0  0  0  0  0  0  0  0  0  0  0
   59.4097   27.6923   46.9842 H   0  0  0  0  0  0  0  0  0  0  0  0
   57.7530   28.5180   45.8500 C   0  0  0  0  0  0  0  0  0  0  0  0
   58.4180   29.8120   45.5610 C   0  0  0  0  0  0  0  0  0  0  0  0
   59.6220   29.8210   45.1870 O   0  0  0  0  0  0  0  0  0  0  0  0
   57.6930   31.0500   45.6580 N   0  0  0  0  0  0  0  0  0  0  0  0
   56.6600   31.0280   45.4970 H   0  0  0  0  0  0  0  0  0  0  0  0
   58.3230   32.3340   45.8020 C   0  0  0  0  0  0  0  0  0  0  0  0
   58.1010   33.3240   44.8330 C   0  0  0  0  0  0  0  0  0  0  0  0
   57.4555   33.1078   43.9690 H   0  0  0  0  0  0  0  0  0  0  0  0
   58.6940   34.5820   44.9580 C   0  0  0  0  0  0  0  0  0  0  0  0
   58.5288   35.3457   44.1838 H   0  0  0  0  0  0  0  0  0  0  0  0
   59.4960   34.8730   46.0630 C   0  0  0  0  0  0  0  0  0  0  0  0
   59.9747   35.8598   46.1477 H   0  0  0  0  0  0  0  0  0  0  0  0
   59.6940   33.9120   47.0660 C   0  0  0  0  0  0  0  0  0  0  0  0
   60.5430   34.2100   48.2370 C   0  0  0  0  0  0  0  0  0  0  0  0
   60.0680   34.9160   49.1680 O   0  0  0  0  0  0  0  0  0  0  0  0
   61.8940   33.7230   48.3330 N   0  0  0  0  0  0  0  0  0  0  0  0
   62.6300   33.7020   49.5870 C   0  0  0  0  0  0  0  0  0  0  0  0
   62.4929   34.6502   50.1276 H   0  0  0  0  0  0  0  0  0  0  0  0
   62.2781   32.8976   50.2496 H   0  0  0  0  0  0  0  0  0  0  0  0
   64.0940   33.5150   49.2060 C   0  0  0  0  0  0  0  0  0  0  0  0
   64.6395   34.4648   49.3076 H   0  0  0  0  0  0  0  0  0  0  0  0
   64.5894   32.7821   49.8598 H   0  0  0  0  0  0  0  0  0  0  0  0
   64.0960   33.0560   47.7510 C   0  0  0  0  0  0  0  0  0  0  0  0
   64.9064   33.5505   47.1954 H   0  0  0  0  0  0  0  0  0  0  0  0
   64.2603   31.9713   47.6711 H   0  0  0  0  0  0  0  0  0  0  0  0
   62.7430   33.4580   47.1820 C   0  0  0  0  0  0  0  0  0  0  0  0
   62.8410   34.3612   46.5618 H   0  0  0  0  0  0  0  0  0  0  0  0
   62.3223   32.6696   46.5406 H   0  0  0  0  0  0  0  0  0  0  0  0
   59.1150   32.6410   46.9250 C   0  0  0  0  0  0  0  0  0  0  0  0
   59.2816   31.8776   47.6992 H   0  0  0  0  0  0  0  0  0  0  0  0
  1  2  1  0
  2  3  1  0
  3  4  1  0
  4  5  2  0
  5  6  1  0
  6  7  1  0
  6  8  1  0
  6  9  1  0
  9 10  1  0
  9 11  1  0
  9 12  1  0
  4 13  1  0
 13 14  1  0
 13 15  2  0
 15 16  1  0
 15 17  1  0
 17 18  1  0
 18 19  2  0
 18 20  1  0
 20 21  1  0
 20 22  1  0
 22 23  2  0
 23 24  1  0
 23 25  1  0
 25 26  1  0
 25 27  2  0
 27 28  1  0
 27 29  1  0
 29 30  1  0
 30 31  2  0
 30 32  1  0
 32 33  1  0
 33 34  1  0
 33 35  1  0
 33 36  1  0
 36 37  1  0
 36 38  1  0
 36 39  1  0
 39 40  1  0
 39 41  1  0
 39 42  1  0
 42 43  1  0
 42 44  1  0
 29 45  2  0
 45 46  1  0
 17  2  2  0
 45 22  1  0
 42 32  1  0
M  CHG  1   3  -1
M  END
>  <UniqueID>  (79) 
75

>  <SMILES>  (79) 
CC/N=c1\ccc(C(=O)Nc2cccc(C(=O)N3CCCC3)c2)c[n-]1

>  <Energy>  (79) 
57.482675291118596

>  <Genealogy>  (79) 
CCN=c1ccc(C(=O)Nc2cccc(C(=O)N3CCCC3)c2)c[n-]1 (protonated)
CC/N=c1\ccc(C(=O)Nc2cccc(C(=O)N3CCCC3)c2)c[n-]1 (cis-trans isomerization)
CC/N=c1\ccc(C(=O)Nc2cccc(C(=O)N3CCCC3)c2)c[n-]1 (3D coordinates assigned)
CC/N=c1\ccc(C(=O)Nc2cccc(C(=O)N3CCCC3)c2)c[n-]1 (nonaromatic ring conformer: 57.482675291118596 kcal/mol)

>  <smiles>  (79) 
CCN=c1ccc(C(=O)Nc2cccc(C(=O)N3CCCC3)c2)c[nH]1

>  <score_type>  (79) 
oracle

>  <origin>  (79) 
adg

>  <m_score__min__energy>  (79) 
-9.9100000000000001

>  <m_primary>  (79) 
energy

$$$$
79:0
     RDKit          3D

 48 50  0  0  0  0  0  0  0  0999 V2000
   59.4701   29.4994   51.0446 H   0  0  0  0  0  0  0  0  0  0  0  0
   59.9530   30.2170   50.3650 C   0  0  0  0  0  0  0  0  0  0  0  0
   59.9770   29.9390   49.0470 C   0  0  0  0  0  0  0  0  0  0  0  0
   60.7270   28.9340   48.5430 N   0  0  0  0  0  0  0  0  0  0  0  0
   60.4580   28.9290   47.2290 C   0  0  0  0  0  0  0  0  0  0  0  0
   60.9150   28.2545   46.4899 H   0  0  0  0  0  0  0  0  0  0  0  0
   59.5210   29.8990   46.9480 C   0  0  0  0  0  0  0  0  0  0  0  0
   58.9830   30.0520   45.7240 C   0  0  0  0  0  0  0  0  0  0  0  0
   59.5719   30.6146   44.9846 H   0  0  0  0  0  0  0  0  0  0  0  0
   57.6780   29.5340   45.2870 C   0  0  0  0  0  0  0  0  0  0  0  0
   57.1370   28.2950   45.5850 C   0  0  0  0  0  0  0  0  0  0  0  0
   57.8510   27.1800   46.3040 C   0  0  0  0  0  0  0  0  0  0  0  0
   58.4287   27.6124   47.1343 H   0  0  0  0  0  0  0  0  0  0  0  0
   57.0847   26.4749   46.6583 H   0  0  0  0  0  0  0  0  0  0  0  0
   58.8050   26.4000   45.4030 C   0  0  0  0  0  0  0  0  0  0  0  0
   59.5080   25.8252   46.0238 H   0  0  0  0  0  0  0  0  0  0  0  0
   58.2287   25.7111   44.7680 H   0  0  0  0  0  0  0  0  0  0  0  0
   59.3657   27.1017   44.7680 H   0  0  0  0  0  0  0  0  0  0  0  0
   55.8290   28.3010   45.2460 N   0  0  0  0  0  0  0  0  0  0  0  0
   55.1480   27.5190   45.3640 H   0  0  0  0  0  0  0  0  0  0  0  0
   55.4970   29.4900   44.7660 N   0  0  0  0  0  0  0  0  0  0  0  0
   56.6030   30.2540   44.8050 C   0  0  0  0  0  0  0  0  0  0  0  0
   56.6140   31.4760   44.5010 O   0  0  0  0  0  0  0  0  0  0  0  0
   59.2530   30.5930   48.0900 N   0  0  0  0  0  0  0  0  0  0  0  0
   58.5200   31.8710   48.2570 C   0  0  0  0  0  0  0  0  0  0  0  0
   57.4493   31.6456   48.3696 H   0  0  0  0  0  0  0  0  0  0  0  0
   58.9383   32.3692   49.1440 H   0  0  0  0  0  0  0  0  0  0  0  0
   58.6890   32.8250   47.0900 C   0  0  0  0  0  0  0  0  0  0  0  0
   57.5340   33.3080   46.4460 C   0  0  0  0  0  0  0  0  0  0  0  0
   56.5427   32.9663   46.7784 H   0  0  0  0  0  0  0  0  0  0  0  0
   57.6330   34.2160   45.3900 C   0  0  0  0  0  0  0  0  0  0  0  0
   56.7227   34.5729   44.8861 H   0  0  0  0  0  0  0  0  0  0  0  0
   58.8820   34.6710   44.9730 C   0  0  0  0  0  0  0  0  0  0  0  0
   58.9595   35.3659   44.1239 H   0  0  0  0  0  0  0  0  0  0  0  0
   60.0350   34.2440   45.6340 C   0  0  0  0  0  0  0  0  0  0  0  0
   61.0183   34.6177   45.3123 H   0  0  0  0  0  0  0  0  0  0  0  0
   59.9500   33.3440   46.7030 C   0  0  0  0  0  0  0  0  0  0  0  0
   61.4350   32.9540   47.5580 Cl  0  0  0  0  0  0  0  0  0  0  0  0
   60.5580   31.4670   50.9500 C   0  0  0  0  0  0  0  0  0  0  0  0
   61.2252   31.9216   50.2029 H   0  0  0  0  0  0  0  0  0  0  0  0
   61.1108   31.1837   51.8578 H   0  0  0  0  0  0  0  0  0  0  0  0
   59.4880   32.4930   51.3480 C   0  0  0  0  0  0  0  0  0  0  0  0
   59.5395   32.6523   52.4352 H   0  0  0  0  0  0  0  0  0  0  0  0
   58.5105   32.0909   51.0433 H   0  0  0  0  0  0  0  0  0  0  0  0
   59.6750   33.8370   50.6470 C   0  0  0  0  0  0  0  0  0  0  0  0
   59.7855   34.6311   51.4001 H   0  0  0  0  0  0  0  0  0  0  0  0
   60.5767   33.8002   50.0180 H   0  0  0  0  0  0  0  0  0  0  0  0
   58.7975   34.0477   50.0180 H   0  0  0  0  0  0  0  0  0  0  0  0
  1  2  1  0
  2  3  2  3
  3  4  1  0
  4  5  2  0
  5  6  1  0
  5  7  1  0
  7  8  2  0
  8  9  1  0
  8 10  1  0
 10 11  2  0
 11 12  1  0
 12 13  1  0
 12 14  1  0
 12 15  1  0
 15 16  1  0
 15 17  1  0
 15 18  1  0
 11 19  1  0
 19 20  1  0
 19 21  1  0
 21 22  1  0
 22 23  2  0
  7 24  1  0
 24 25  1  0
 25 26  1  0
 25 27  1  0
 25 28  1  0
 28 29  2  0
 29 30  1  0
 29 31  1  0
 31 32  1  0
 31 33  2  0
 33 34  1  0
 33 35  1  0
 35 36  1  0
 35 37  2  0
 37 38  1  0
  2 39  1  0
 39 40  1  0
 39 41  1  0
 39 42  1  0
 42 43  1  0
 42 44  1  0
 42 45  1  0
 45 46  1  0
 45 47  1  0
 45 48  1  0
 24  3  1  0
 37 28  1  0
 22 10  1  0
M  CHG  1  21  -1
M  END
>  <UniqueID>  (80) 
76

>  <SMILES>  (80) 
CCCC=c1nc/c(=C/c2c(CC)[nH][n-]c2=O)n1Cc1ccccc1Cl

>  <Energy>  (80) 
120.24583733347312

>  <Genealogy>  (80) 
CCCC=c1ncc(=Cc2c(CC)[nH][n-]c2=O)n1Cc1ccccc1Cl (protonated)
CCCC=c1nc/c(=C/c2c(CC)[nH][n-]c2=O)n1Cc1ccccc1Cl (cis-trans isomerization)
CCCC=c1nc/c(=C/c2c(CC)[nH][n-]c2=O)n1Cc1ccccc1Cl (3D coordinates assigned)
CCCC=c1nc/c(=C/c2c(CC)[nH][n-]c2=O)n1Cc1ccccc1Cl (optimized conformer: 120.24583733347312 kcal/mol)

>  <smiles>  (80) 
CCCC=c1ncc(=Cc2c(CC)[nH][nH]c2=O)n1Cc1ccccc1Cl

>  <score_type>  (80) 
oracle

>  <origin>  (80) 
adg

>  <m_score__min__energy>  (80) 
-10.619999999999999

>  <m_primary>  (80) 
energy

$$$$
80:0
     RDKit          3D

 27 28  0  0  0  0  0  0  0  0999 V2000
   60.6260   28.7830   46.9260 N   0  0  0  0  0  0  0  0  0  0  0  0
   59.7170   29.0560   46.2630 C   0  0  0  0  0  0  0  0  0  0  0  0
   58.5860   29.3940   45.4370 C   0  0  0  0  0  0  0  0  0  0  0  0
   58.7130   30.4410   44.5130 C   0  0  0  0  0  0  0  0  0  0  0  0
   57.6140   30.8500   43.7340 C   0  0  0  0  0  0  0  0  0  0  0  0
   57.7460   31.9240   42.7850 N   0  0  0  0  0  0  0  0  0  0  0  0
   58.2610   33.0110   43.1180 O   0  0  0  0  0  0  0  0  0  0  0  0
   57.3080   31.7690   41.4890 O   0  0  0  0  0  0  0  0  0  0  0  0
   56.3810   30.2010   43.9060 C   0  0  0  0  0  0  0  0  0  0  0  0
   56.2500   29.1580   44.8250 C   0  0  0  0  0  0  0  0  0  0  0  0
   57.3470   28.7300   45.5790 C   0  0  0  0  0  0  0  0  0  0  0  0
   57.1600   27.6730   46.4810 O   0  0  0  0  0  0  0  0  0  0  0  0
   57.1380   26.3110   46.1430 C   0  0  0  0  0  0  0  0  0  0  0  0
   58.3520   25.6110   46.1370 C   0  0  0  0  0  0  0  0  0  0  0  0
   58.3880   24.2570   45.7990 C   0  0  0  0  0  0  0  0  0  0  0  0
   57.2080   23.5840   45.4750 C   0  0  0  0  0  0  0  0  0  0  0  0
   55.9870   24.2640   45.5000 C   0  0  0  0  0  0  0  0  0  0  0  0
   55.9400   25.6230   45.8440 C   0  0  0  0  0  0  0  0  0  0  0  0
   54.7110   26.2790   45.9090 O   0  0  0  0  0  0  0  0  0  0  0  0
   59.6819   30.9483   44.3955 H   0  0  0  0  0  0  0  0  0  0  0  0
   55.5109   30.5168   43.3118 H   0  0  0  0  0  0  0  0  0  0  0  0
   55.2740   28.6681   44.9572 H   0  0  0  0  0  0  0  0  0  0  0  0
   59.2839   26.1325   46.4007 H   0  0  0  0  0  0  0  0  0  0  0  0
   59.3475   23.7192   45.7879 H   0  0  0  0  0  0  0  0  0  0  0  0
   57.2394   22.5193   45.2003 H   0  0  0  0  0  0  0  0  0  0  0  0
   55.0583   23.7307   45.2486 H   0  0  0  0  0  0  0  0  0  0  0  0
   54.3850   26.7120   46.7650 H   0  0  0  0  0  0  0  0  0  0  0  0
  1  2  3  0
  2  3  1  0
  3  4  2  0
  4  5  1  0
  5  6  1  0
  6  7  2  0
  6  8  1  0
  5  9  2  0
  9 10  1  0
 10 11  2  0
 11 12  1  0
 12 13  1  0
 13 14  2  0
 14 15  1  0
 15 16  2  0
 16 17  1  0
 17 18  2  0
 18 19  1  0
 11  3  1  0
 18 13  1  0
  4 20  1  0
  9 21  1  0
 10 22  1  0
 14 23  1  0
 15 24  1  0
 16 25  1  0
 17 26  1  0
 19 27  1  0
M  CHG  2   6   1   8  -1
M  END
>  <UniqueID>  (81) 
77

>  <SMILES>  (81) 
N#Cc1cc([N+](=O)[O-])ccc1Oc1ccccc1O

>  <Energy>  (81) 
37.95072304187986

>  <Genealogy>  (81) 
N#Cc1cc([N+](=O)[O-])ccc1Oc1ccccc1O (3D coordinates assigned)
N#Cc1cc([N+](=O)[O-])ccc1Oc1ccccc1O (optimized conformer: 37.95072304187986 kcal/mol)

>  <smiles>  (81) 
N#Cc1cc([N+](=O)[O-])ccc1Oc1ccccc1O

>  <score_type>  (81) 
oracle

>  <origin>  (81) 
adg

>  <m_score__min__energy>  (81) 
-7.7800000000000002

>  <m_primary>  (81) 
energy

$$$$
81:0
     RDKit          3D

 60 62  0  0  0  0  0  0  0  0999 V2000
   64.0340   32.4890   47.1050 N   0  0  0  0  0  0  0  0  0  0  0  0
   63.5400   32.2750   48.4620 C   0  0  0  0  0  0  0  0  0  0  0  0
   62.2280   32.9840   48.6470 C   0  0  0  0  0  0  0  0  0  0  0  0
   61.7140   33.8010   47.6280 C   0  0  0  0  0  0  0  0  0  0  0  0
   60.4690   34.4180   47.7820 C   0  0  0  0  0  0  0  0  0  0  0  0
   59.7220   34.2130   48.9450 C   0  0  0  0  0  0  0  0  0  0  0  0
   60.2190   33.3910   49.9690 C   0  0  0  0  0  0  0  0  0  0  0  0
   59.3970   33.1100   51.1970 C   0  0  0  0  0  0  0  0  0  0  0  0
   58.2120   32.3430   50.8300 N   0  0  0  0  0  0  0  0  0  0  0  0
   58.2540   30.9550   50.4810 C   0  0  0  0  0  0  0  0  0  0  0  0
   57.6530   30.1110   51.2010 O   0  0  0  0  0  0  0  0  0  0  0  0
   58.9600   30.5190   49.2550 C   0  0  0  0  0  0  0  0  0  0  0  0
   58.8450   31.2590   48.0640 C   0  0  0  0  0  0  0  0  0  0  0  0
   59.4200   30.7900   46.8800 C   0  0  0  0  0  0  0  0  0  0  0  0
   60.1240   29.5770   46.8650 C   0  0  0  0  0  0  0  0  0  0  0  0
   60.5700   28.9750   45.5610 C   0  0  0  0  0  0  0  0  0  0  0  0
   59.3620   28.5500   44.7840 C   0  0  0  0  0  0  0  0  0  0  0  0
   58.8880   27.3930   44.9480 O   0  0  0  0  0  0  0  0  0  0  0  0
   58.7060   29.4840   43.9160 N   0  0  0  0  0  0  0  0  0  0  0  0
   57.2480   29.4910   43.7610 C   0  0  1  0  0  0  0  0  0  0  0  0
   56.5860   29.1750   45.1120 C   0  0  0  0  0  0  0  0  0  0  0  0
   55.2690   29.6540   45.1380 O   0  0  0  0  0  0  0  0  0  0  0  0
   56.7680   30.8480   43.2110 C   0  0  0  0  0  0  0  0  0  0  0  0
   57.3420   31.9930   44.0060 C   0  0  0  0  0  0  0  0  0  0  0  0
   58.4020   32.7580   43.4910 C   0  0  0  0  0  0  0  0  0  0  0  0
   58.9110   33.8370   44.2210 C   0  0  0  0  0  0  0  0  0  0  0  0
   58.3620   34.1630   45.4640 C   0  0  0  0  0  0  0  0  0  0  0  0
   57.2990   33.4150   45.9770 C   0  0  0  0  0  0  0  0  0  0  0  0
   56.7870   32.3360   45.2490 C   0  0  0  0  0  0  0  0  0  0  0  0
   60.2700   28.8530   48.0570 C   0  0  0  0  0  0  0  0  0  0  0  0
   59.6960   29.3210   49.2430 C   0  0  0  0  0  0  0  0  0  0  0  0
   61.4730   32.7770   49.8120 C   0  0  0  0  0  0  0  0  0  0  0  0
   64.8740   33.1140   47.1580 H   0  0  0  0  0  0  0  0  0  0  0  0
   64.3700   31.5700   46.7370 H   0  0  0  0  0  0  0  0  0  0  0  0
   63.3995   31.1975   48.6332 H   0  0  0  0  0  0  0  0  0  0  0  0
   64.2713   32.6737   49.1805 H   0  0  0  0  0  0  0  0  0  0  0  0
   62.2925   33.9563   46.7054 H   0  0  0  0  0  0  0  0  0  0  0  0
   60.0763   35.0668   46.9853 H   0  0  0  0  0  0  0  0  0  0  0  0
   58.7410   34.6974   49.0587 H   0  0  0  0  0  0  0  0  0  0  0  0
   59.9980   32.5331   51.9153 H   0  0  0  0  0  0  0  0  0  0  0  0
   59.0880   34.0615   51.6543 H   0  0  0  0  0  0  0  0  0  0  0  0
   58.2985   32.2136   48.0649 H   0  0  0  0  0  0  0  0  0  0  0  0
   59.3199   31.3756   45.9542 H   0  0  0  0  0  0  0  0  0  0  0  0
   61.1361   29.7213   44.9843 H   0  0  0  0  0  0  0  0  0  0  0  0
   61.2143   28.1045   45.7536 H   0  0  0  0  0  0  0  0  0  0  0  0
   59.2330   30.3440   43.6420 H   0  0  0  0  0  0  0  0  0  0  0  0
   56.9566   28.7167   43.0361 H   0  0  0  0  0  0  0  0  0  0  0  0
   56.5780   28.0857   45.2651 H   0  0  0  0  0  0  0  0  0  0  0  0
   57.1589   29.6665   45.9122 H   0  0  0  0  0  0  0  0  0  0  0  0
   54.7350   28.9700   45.6190 H   0  0  0  0  0  0  0  0  0  0  0  0
   57.0875   30.9434   42.1627 H   0  0  0  0  0  0  0  0  0  0  0  0
   55.6713   30.8863   43.2876 H   0  0  0  0  0  0  0  0  0  0  0  0
   58.8330   32.5075   42.5104 H   0  0  0  0  0  0  0  0  0  0  0  0
   59.7445   34.4297   43.8162 H   0  0  0  0  0  0  0  0  0  0  0  0
   58.7668   35.0089   46.0389 H   0  0  0  0  0  0  0  0  0  0  0  0
   56.8647   33.6748   46.9537 H   0  0  0  0  0  0  0  0  0  0  0  0
   55.9456   31.7535   45.6523 H   0  0  0  0  0  0  0  0  0  0  0  0
   60.8392   27.9117   48.0590 H   0  0  0  0  0  0  0  0  0  0  0  0
   59.8211   28.7478   50.1734 H   0  0  0  0  0  0  0  0  0  0  0  0
   61.8664   32.1286   50.6088 H   0  0  0  0  0  0  0  0  0  0  0  0
  1  2  1  0
  2  3  1  0
  3  4  2  0
  4  5  1  0
  5  6  2  0
  6  7  1  0
  7  8  1  0
  8  9  1  0
  9 10  1  0
 10 11  2  0
 10 12  1  0
 12 13  2  0
 13 14  1  0
 14 15  2  0
 15 16  1  0
 16 17  1  0
 17 18  2  0
 17 19  1  0
 19 20  1  0
 20 21  1  0
 21 22  1  0
 20 23  1  0
 23 24  1  0
 24 25  2  0
 25 26  1  0
 26 27  2  0
 27 28  1  0
 28 29  2  0
 15 30  1  0
 30 31  2  0
  7 32  2  0
 32  3  1  0
 31 12  1  0
 29 24  1  0
  1 33  1  0
  1 34  1  0
  2 35  1  0
  2 36  1  0
  4 37  1  0
  5 38  1  0
  6 39  1  0
  8 40  1  0
  8 41  1  0
 13 42  1  0
 14 43  1  0
 16 44  1  0
 16 45  1  0
 19 46  1  0
 20 47  1  6
 21 48  1  0
 21 49  1  0
 22 50  1  0
 23 51  1  0
 23 52  1  0
 25 53  1  0
 26 54  1  0
 27 55  1  0
 28 56  1  0
 29 57  1  0
 30 58  1  0
 31 59  1  0
 32 60  1  0
M  CHG  1   9  -1
M  END
>  <UniqueID>  (82) 
78

>  <SMILES>  (82) 
NCc1cccc(C[N-]C(=O)c2ccc(CC(=O)N[C@@H](CO)Cc3ccccc3)cc2)c1

>  <Energy>  (82) 
49.728271189958384

>  <Genealogy>  (82) 
NCc1cccc(C[N-]C(=O)c2ccc(CC(=O)NC(CO)Cc3ccccc3)cc2)c1 (protonated)
NCc1cccc(C[N-]C(=O)c2ccc(CC(=O)N[C@@H](CO)Cc3ccccc3)cc2)c1 (chirality)
NCc1cccc(C[N-]C(=O)c2ccc(CC(=O)N[C@@H](CO)Cc3ccccc3)cc2)c1 (3D coordinates assigned)
NCc1cccc(C[N-]C(=O)c2ccc(CC(=O)N[C@@H](CO)Cc3ccccc3)cc2)c1 (optimized conformer: 49.728271189958384 kcal/mol)

>  <smiles>  (82) 
NCc1cccc(CNC(=O)c2ccc(CC(=O)NC(CO)Cc3ccccc3)cc2)c1

>  <score_type>  (82) 
oracle

>  <origin>  (82) 
adg

>  <m_score__min__energy>  (82) 
-11.289999999999999

>  <m_primary>  (82) 
energy

$$$$
82:0
     RDKit          3D

 30 31  0  0  0  0  0  0  0  0999 V2000
   58.0176   27.3720   47.5863 H   0  0  0  0  0  0  0  0  0  0  0  0
   57.5820   27.5900   46.6000 C   0  0  0  0  0  0  0  0  0  0  0  0
   57.0720   26.5600   45.8910 C   0  0  0  0  0  0  0  0  0  0  0  0
   55.8450   25.8720   46.3620 C   0  0  0  0  0  0  0  0  0  0  0  0
   55.9160   24.8640   47.1150 O   0  0  0  0  0  0  0  0  0  0  0  0
   54.5920   26.3390   45.9820 O   0  0  0  0  0  0  0  0  0  0  0  0
   57.6980   26.1000   44.5970 C   0  0  0  0  0  0  0  0  0  0  0  0
   58.5666   25.4617   44.8164 H   0  0  0  0  0  0  0  0  0  0  0  0
   56.9600   25.5277   44.0157 H   0  0  0  0  0  0  0  0  0  0  0  0
   58.0237   26.9753   44.0157 H   0  0  0  0  0  0  0  0  0  0  0  0
   57.5910   28.9940   46.1320 C   0  0  0  0  0  0  0  0  0  0  0  0
   56.5790   29.4890   45.3030 C   0  0  0  0  0  0  0  0  0  0  0  0
   55.5270   28.6750   44.8960 O   0  0  0  0  0  0  0  0  0  0  0  0
   56.6080   30.7830   44.9020 N   0  0  0  0  0  0  0  0  0  0  0  0
   57.5920   31.6280   45.3000 C   0  0  0  0  0  0  0  0  0  0  0  0
   57.5670   32.8260   44.9060 O   0  0  0  0  0  0  0  0  0  0  0  0
   58.5870   31.1860   46.1330 N   0  0  0  0  0  0  0  0  0  0  0  0
   59.6260   32.0910   46.5620 C   0  0  0  0  0  0  0  0  0  0  0  0
   59.3350   33.4450   46.7970 C   0  0  0  0  0  0  0  0  0  0  0  0
   58.3102   33.8182   46.6536 H   0  0  0  0  0  0  0  0  0  0  0  0
   60.3420   34.3190   47.2120 C   0  0  0  0  0  0  0  0  0  0  0  0
   60.1087   35.3782   47.3952 H   0  0  0  0  0  0  0  0  0  0  0  0
   61.6460   33.8500   47.3950 C   0  0  0  0  0  0  0  0  0  0  0  0
   62.4379   34.5401   47.7215 H   0  0  0  0  0  0  0  0  0  0  0  0
   61.9440   32.5030   47.1630 C   0  0  0  0  0  0  0  0  0  0  0  0
   62.9703   32.1343   47.3071 H   0  0  0  0  0  0  0  0  0  0  0  0
   60.9380   31.6250   46.7480 C   0  0  0  0  0  0  0  0  0  0  0  0
   61.1747   30.5662   46.5666 H   0  0  0  0  0  0  0  0  0  0  0  0
   58.5930   29.8810   46.5570 C   0  0  0  0  0  0  0  0  0  0  0  0
   59.5130   29.4620   47.3160 O   0  0  0  0  0  0  0  0  0  0  0  0
  1  2  1  0
  2  3  2  0
  3  4  1  0
  4  5  2  0
  4  6  1  0
  3  7  1  0
  7  8  1  0
  7  9  1  0
  7 10  1  0
  2 11  1  0
 11 12  2  0
 12 13  1  0
 12 14  1  0
 14 15  1  0
 15 16  2  0
 15 17  1  0
 17 18  1  0
 18 19  2  0
 19 20  1  0
 19 21  1  0
 21 22  1  0
 21 23  2  0
 23 24  1  0
 23 25  1  0
 25 26  1  0
 25 27  2  0
 27 28  1  0
 17 29  1  0
 29 30  2  0
 29 11  1  0
 27 18  1  0
M  CHG  3   6  -1  13  -1  14  -1
M  END
>  <UniqueID>  (83) 
79

>  <SMILES>  (83) 
C/C(=C\c1c([O-])[n-]c(=O)n(-c2ccccc2)c1=O)C(=O)[O-]

>  <Energy>  (83) 
50.354217166369374

>  <Genealogy>  (83) 
CC(=Cc1c([O-])[n-]c(=O)n(-c2ccccc2)c1=O)C(=O)[O-] (protonated)
C/C(=C\c1c([O-])[n-]c(=O)n(-c2ccccc2)c1=O)C(=O)[O-] (cis-trans isomerization)
C/C(=C\c1c([O-])[n-]c(=O)n(-c2ccccc2)c1=O)C(=O)[O-] (3D coordinates assigned)
C/C(=C\c1c([O-])[n-]c(=O)n(-c2ccccc2)c1=O)C(=O)[O-] (optimized conformer: 50.354217166369374 kcal/mol)

>  <smiles>  (83) 
CC(=Cc1c(O)[nH]c(=O)n(-c2ccccc2)c1=O)C(=O)O

>  <score_type>  (83) 
oracle

>  <origin>  (83) 
adg

>  <m_score__min__energy>  (83) 
-14.609999999999999

>  <m_primary>  (83) 
energy

$$$$
83:0
     RDKit          3D

 51 53  0  0  0  0  0  0  0  0999 V2000
   61.6910   30.4360   48.2880 H   0  0  0  0  0  0  0  0  0  0  0  0
   61.3930   30.2630   47.3350 O   0  0  0  0  0  0  0  0  0  0  0  0
   60.3850   29.3500   47.0210 C   0  0  0  0  0  0  0  0  0  0  0  0
   59.8510   29.3540   45.7260 C   0  0  0  0  0  0  0  0  0  0  0  0
   60.2244   30.0760   44.9849 H   0  0  0  0  0  0  0  0  0  0  0  0
   58.8380   28.4400   45.3630 C   0  0  0  0  0  0  0  0  0  0  0  0
   58.2710   28.3680   43.9900 C   0  0  0  0  0  0  0  0  0  0  0  0
   58.6642   27.5971   43.3109 H   0  0  0  0  0  0  0  0  0  0  0  0
   57.3090   29.1840   43.5250 C   0  0  0  0  0  0  0  0  0  0  0  0
   57.3176   29.4597   42.4602 H   0  0  0  0  0  0  0  0  0  0  0  0
   56.2430   29.7230   44.3890 C   0  0  0  0  0  0  0  0  0  0  0  0
   55.5230   28.9180   45.0360 O   0  0  0  0  0  0  0  0  0  0  0  0
   56.0410   31.1400   44.4990 N   0  0  0  0  0  0  0  0  0  0  0  0
   56.9600   32.0260   44.7330 C   0  0  0  0  0  0  0  0  0  0  0  0
   57.0870   32.7090   45.8940 N   0  0  0  0  0  0  0  0  0  0  0  0
   58.1670   33.5390   45.8670 C   0  0  0  0  0  0  0  0  0  0  0  0
   58.5530   34.3680   47.0490 C   0  0  0  0  0  0  0  0  0  0  0  0
   58.3015   33.8278   47.9736 H   0  0  0  0  0  0  0  0  0  0  0  0
   59.6350   34.5641   47.0217 H   0  0  0  0  0  0  0  0  0  0  0  0
   58.0066   35.3223   47.0217 H   0  0  0  0  0  0  0  0  0  0  0  0
   58.9160   33.4970   44.6920 C   0  0  0  0  0  0  0  0  0  0  0  0
   59.8328   34.0696   44.4882 H   0  0  0  0  0  0  0  0  0  0  0  0
   58.1680   32.4130   43.6380 S   0  0  0  0  0  0  0  0  0  0  0  0
   58.3700   27.5330   46.3280 C   0  0  0  0  0  0  0  0  0  0  0  0
   57.5871   26.8089   46.0583 H   0  0  0  0  0  0  0  0  0  0  0  0
   58.8860   27.5390   47.6250 C   0  0  0  0  0  0  0  0  0  0  0  0
   58.4922   26.8350   48.3729 H   0  0  0  0  0  0  0  0  0  0  0  0
   59.9060   28.4390   47.9820 C   0  0  0  0  0  0  0  0  0  0  0  0
   60.4580   28.4670   49.2710 O   0  0  0  0  0  0  0  0  0  0  0  0
   60.7270   29.8910   50.1880 S   0  0  0  0  0  0  0  0  0  0  0  0
   60.0980   29.7270   51.5480 O   0  0  0  0  0  0  0  0  0  0  0  0
   62.2090   30.1200   50.3710 O   0  0  0  0  0  0  0  0  0  0  0  0
   60.0050   31.2630   49.3830 N   0  0  0  0  0  0  0  0  0  0  0  0
   58.5980   31.3750   49.7890 C   0  0  0  0  0  0  0  0  0  0  0  0
   58.5325   31.3802   50.8870 H   0  0  0  0  0  0  0  0  0  0  0  0
   58.1751   32.3096   49.3920 H   0  0  0  0  0  0  0  0  0  0  0  0
   58.0326   30.5190   49.3920 H   0  0  0  0  0  0  0  0  0  0  0  0
   60.7260   32.5030   49.7340 C   0  0  0  0  0  0  0  0  0  0  0  0
   60.0104   33.3377   49.7688 H   0  0  0  0  0  0  0  0  0  0  0  0
   61.2045   32.3648   50.7148 H   0  0  0  0  0  0  0  0  0  0  0  0
   61.7950   32.8120   48.7170 C   0  0  0  0  0  0  0  0  0  0  0  0
   61.4170   33.2400   47.4300 C   0  0  0  0  0  0  0  0  0  0  0  0
   60.3514   33.2983   47.1635 H   0  0  0  0  0  0  0  0  0  0  0  0
   62.3920   33.5920   46.4870 C   0  0  0  0  0  0  0  0  0  0  0  0
   62.0897   33.9163   45.4803 H   0  0  0  0  0  0  0  0  0  0  0  0
   63.7510   33.5320   46.8230 C   0  0  0  0  0  0  0  0  0  0  0  0
   64.5134   33.8164   46.0829 H   0  0  0  0  0  0  0  0  0  0  0  0
   64.1390   33.1100   48.1010 C   0  0  0  0  0  0  0  0  0  0  0  0
   65.2064   33.0603   48.3623 H   0  0  0  0  0  0  0  0  0  0  0  0
   63.1670   32.7500   49.0500 C   0  0  0  0  0  0  0  0  0  0  0  0
   63.5660   32.3730   50.2880 F   0  0  0  0  0  0  0  0  0  0  0  0
  1  2  1  0
  2  3  1  0
  3  4  2  0
  4  5  1  0
  4  6  1  0
  6  7  1  0
  7  8  1  0
  7  9  2  0
  9 10  1  0
  9 11  1  0
 11 12  2  0
 11 13  1  0
 13 14  2  3
 14 15  1  0
 15 16  1  0
 16 17  1  0
 17 18  1  0
 17 19  1  0
 17 20  1  0
 16 21  2  0
 21 22  1  0
 21 23  1  0
  6 24  2  0
 24 25  1  0
 24 26  1  0
 26 27  1  0
 26 28  2  0
 28 29  1  0
 29 30  1  0
 30 31  2  0
 30 32  2  0
 30 33  1  0
 33 34  1  0
 34 35  1  0
 34 36  1  0
 34 37  1  0
 33 38  1  0
 38 39  1  0
 38 40  1  0
 38 41  1  0
 41 42  2  0
 42 43  1  0
 42 44  1  0
 44 45  1  0
 44 46  2  0
 46 47  1  0
 46 48  1  0
 48 49  1  0
 48 50  2  0
 50 51  1  0
 28  3  1  0
 50 41  1  0
 23 14  1  0
M  CHG  1  15  -1
M  END
>  <UniqueID>  (84) 
80

>  <SMILES>  (84) 
Cc1csc(=NC(=O)/C=C/c2ccc(OS(=O)(=O)N(C)Cc3ccccc3F)c(O)c2)[n-]1

>  <Energy>  (84) 
83.38999248068737

>  <Genealogy>  (84) 
Cc1csc(=NC(=O)C=Cc2ccc(OS(=O)(=O)N(C)Cc3ccccc3F)c(O)c2)[n-]1 (protonated)
Cc1csc(=NC(=O)/C=C/c2ccc(OS(=O)(=O)N(C)Cc3ccccc3F)c(O)c2)[n-]1 (cis-trans isomerization)
Cc1csc(=NC(=O)/C=C/c2ccc(OS(=O)(=O)N(C)Cc3ccccc3F)c(O)c2)[n-]1 (3D coordinates assigned)
Cc1csc(=NC(=O)/C=C/c2ccc(OS(=O)(=O)N(C)Cc3ccccc3F)c(O)c2)[n-]1 (optimized conformer: 83.38999248068737 kcal/mol)

>  <smiles>  (84) 
Cc1csc(=NC(=O)C=Cc2ccc(OS(=O)(=O)N(C)Cc3ccccc3F)c(O)c2)[nH]1

>  <score_type>  (84) 
oracle

>  <origin>  (84) 
adg

>  <m_score__min__energy>  (84) 
-11.300000000000001

>  <m_primary>  (84) 
energy

$$$$
84:0
     RDKit          3D

 42 44  0  0  0  0  0  0  0  0999 V2000
   57.4307   22.1439   45.8191 H   0  0  0  0  0  0  0  0  0  0  0  0
   56.8760   23.0930   45.8570 C   0  0  0  0  0  0  0  0  0  0  0  0
   57.4560   24.1970   46.3950 N   0  0  0  0  0  0  0  0  0  0  0  0
   56.8140   25.4010   46.4470 C   0  0  0  0  0  0  0  0  0  0  0  0
   57.3810   26.4420   46.9870 N   0  0  0  0  0  0  0  0  0  0  0  0
   58.2700   27.3640   46.3360 C   0  0  0  0  0  0  0  0  0  0  0  0
   59.4900   27.3520   46.6470 O   0  0  0  0  0  0  0  0  0  0  0  0
   57.7940   28.3410   45.3360 C   0  0  0  0  0  0  0  0  0  0  0  0
   57.7650   28.0120   43.9710 C   0  0  0  0  0  0  0  0  0  0  0  0
   58.0905   27.0151   43.6390 H   0  0  0  0  0  0  0  0  0  0  0  0
   57.3230   28.9500   43.0340 C   0  0  0  0  0  0  0  0  0  0  0  0
   57.2788   28.6815   41.9682 H   0  0  0  0  0  0  0  0  0  0  0  0
   56.9370   30.2280   43.4470 C   0  0  0  0  0  0  0  0  0  0  0  0
   56.5870   30.9610   42.7053 H   0  0  0  0  0  0  0  0  0  0  0  0
   56.9940   30.5790   44.8010 C   0  0  0  0  0  0  0  0  0  0  0  0
   56.7020   31.9290   45.1820 N   0  0  0  0  0  0  0  0  0  0  0  0
   57.7210   33.2740   44.7800 S   0  0  0  0  0  0  0  0  0  0  0  0
   58.2840   33.0800   43.4000 O   0  0  0  0  0  0  0  0  0  0  0  0
   56.9170   34.5430   44.8060 O   0  0  0  0  0  0  0  0  0  0  0  0
   59.0520   33.3440   45.9350 C   0  0  0  0  0  0  0  0  0  0  0  0
   59.4270   34.5590   46.5270 C   0  0  0  0  0  0  0  0  0  0  0  0
   58.9567   35.4972   46.1975 H   0  0  0  0  0  0  0  0  0  0  0  0
   60.3960   34.5820   47.5340 C   0  0  0  0  0  0  0  0  0  0  0  0
   60.6800   35.5374   47.9994 H   0  0  0  0  0  0  0  0  0  0  0  0
   61.0100   33.3870   47.9550 C   0  0  0  0  0  0  0  0  0  0  0  0
   61.9620   33.3510   48.9850 O   0  0  0  0  0  0  0  0  0  0  0  0
   63.3630   33.2050   48.7780 C   0  0  0  0  0  0  0  0  0  0  0  0
   63.8738   33.1518   49.7508 H   0  0  0  0  0  0  0  0  0  0  0  0
   63.5557   32.2819   48.2117 H   0  0  0  0  0  0  0  0  0  0  0  0
   63.7419   34.0685   48.2117 H   0  0  0  0  0  0  0  0  0  0  0  0
   60.6540   32.1820   47.3380 C   0  0  0  0  0  0  0  0  0  0  0  0
   61.1481   31.2470   47.6406 H   0  0  0  0  0  0  0  0  0  0  0  0
   59.6750   32.1580   46.3400 C   0  0  0  0  0  0  0  0  0  0  0  0
   59.3934   31.2034   45.8714 H   0  0  0  0  0  0  0  0  0  0  0  0
   57.3810   29.6150   45.7470 C   0  0  0  0  0  0  0  0  0  0  0  0
   57.3595   29.8625   46.8186 H   0  0  0  0  0  0  0  0  0  0  0  0
   55.5070   25.5040   45.9500 C   0  0  0  0  0  0  0  0  0  0  0  0
   54.8200   26.7130   46.0000 O   0  0  0  0  0  0  0  0  0  0  0  0
   54.8910   24.3760   45.4010 C   0  0  0  0  0  0  0  0  0  0  0  0
   53.8661   24.4456   45.0076 H   0  0  0  0  0  0  0  0  0  0  0  0
   55.5760   23.1620   45.3520 C   0  0  0  0  0  0  0  0  0  0  0  0
   55.0980   22.2700   44.9209 H   0  0  0  0  0  0  0  0  0  0  0  0
  1  2  1  0
  2  3  1  0
  3  4  1  0
  4  5  2  0
  5  6  1  0
  6  7  2  0
  6  8  1  0
  8  9  2  0
  9 10  1  0
  9 11  1  0
 11 12  1  0
 11 13  2  0
 13 14  1  0
 13 15  1  0
 15 16  1  0
 16 17  1  0
 17 18  2  0
 17 19  2  0
 17 20  1  0
 20 21  2  0
 21 22  1  0
 21 23  1  0
 23 24  1  0
 23 25  2  0
 25 26  1  0
 26 27  1  0
 27 28  1  0
 27 29  1  0
 27 30  1  0
 25 31  1  0
 31 32  1  0
 31 33  2  0
 33 34  1  0
 15 35  2  0
 35 36  1  0
  4 37  1  0
 37 38  1  0
 37 39  2  0
 39 40  1  0
 39 41  1  0
 41 42  1  0
 41  2  2  0
 35  8  1  0
 33 20  1  0
M  CHG  3   3  -1  16  -1  38  -1
M  END
>  <UniqueID>  (85) 
81

>  <SMILES>  (85) 
COc1ccc(S(=O)(=O)[N-]c2cccc(C(=O)/N=c3\[n-]cccc3[O-])c2)cc1

>  <Energy>  (85) 
54.92124920282449

>  <Genealogy>  (85) 
COc1ccc(S(=O)(=O)[N-]c2cccc(C(=O)N=c3[n-]cccc3[O-])c2)cc1 (protonated)
COc1ccc(S(=O)(=O)[N-]c2cccc(C(=O)/N=c3\[n-]cccc3[O-])c2)cc1 (cis-trans isomerization)
COc1ccc(S(=O)(=O)[N-]c2cccc(C(=O)/N=c3\[n-]cccc3[O-])c2)cc1 (3D coordinates assigned)
COc1ccc(S(=O)(=O)[N-]c2cccc(C(=O)/N=c3\[n-]cccc3[O-])c2)cc1 (optimized conformer: 54.92124920282449 kcal/mol)

>  <smiles>  (85) 
COc1ccc(S(=O)(=O)Nc2cccc(C(=O)N=c3[nH]cccc3O)c2)cc1

>  <score_type>  (85) 
oracle

>  <origin>  (85) 
adg

>  <m_score__min__energy>  (85) 
-14.41

>  <m_primary>  (85) 
energy

$$$$
85:0
     RDKit          3D

 32 34  0  0  0  0  0  0  0  0999 V2000
   57.7760   26.8190   43.3170 O   0  0  0  0  0  0  0  0  0  0  0  0
   57.8100   28.1410   43.7540 C   0  0  0  0  0  0  0  0  0  0  0  0
   56.9300   29.0760   43.1990 C   0  0  0  0  0  0  0  0  0  0  0  0
   56.9520   30.4060   43.6280 C   0  0  0  0  0  0  0  0  0  0  0  0
   57.8610   30.8170   44.6180 C   0  0  0  0  0  0  0  0  0  0  0  0
   57.8870   32.2170   45.0840 C   0  0  0  0  0  0  0  0  0  0  0  0
   56.7950   32.9910   45.2450 N   0  0  0  0  0  0  0  0  0  0  0  0
   57.2270   34.1580   45.6960 N   0  0  0  0  0  0  0  0  0  0  0  0
   58.5640   34.0480   45.7910 C   0  0  0  0  0  0  0  0  0  0  0  0
   59.6430   35.3450   46.3910 S   0  0  0  0  0  0  0  0  0  0  0  0
   60.0630   34.4770   47.9430 C   0  0  0  0  0  0  0  0  0  0  0  0
   61.1490   33.4600   47.7120 C   0  0  0  0  0  0  0  0  0  0  0  0
   62.4490   33.8780   47.3820 C   0  0  0  0  0  0  0  0  0  0  0  0
   63.4480   32.9350   47.1180 C   0  0  0  0  0  0  0  0  0  0  0  0
   63.1540   31.5700   47.1770 C   0  0  0  0  0  0  0  0  0  0  0  0
   61.8640   31.1460   47.5020 C   0  0  0  0  0  0  0  0  0  0  0  0
   60.8640   32.0850   47.7710 C   0  0  0  0  0  0  0  0  0  0  0  0
   58.9780   32.8650   45.4140 O   0  0  0  0  0  0  0  0  0  0  0  0
   58.7430   29.8750   45.1730 C   0  0  0  0  0  0  0  0  0  0  0  0
   58.7170   28.5440   44.7440 C   0  0  0  0  0  0  0  0  0  0  0  0
   56.9140   26.3850   43.0080 H   0  0  0  0  0  0  0  0  0  0  0  0
   56.2175   28.7631   42.4215 H   0  0  0  0  0  0  0  0  0  0  0  0
   56.2546   31.1345   43.1887 H   0  0  0  0  0  0  0  0  0  0  0  0
   60.4095   35.2120   48.6845 H   0  0  0  0  0  0  0  0  0  0  0  0
   59.1657   33.9565   48.3089 H   0  0  0  0  0  0  0  0  0  0  0  0
   62.6824   34.9517   47.3310 H   0  0  0  0  0  0  0  0  0  0  0  0
   64.4652   33.2679   46.8639 H   0  0  0  0  0  0  0  0  0  0  0  0
   63.9395   30.8291   46.9672 H   0  0  0  0  0  0  0  0  0  0  0  0
   61.6342   30.0712   47.5464 H   0  0  0  0  0  0  0  0  0  0  0  0
   59.8499   31.7464   48.0299 H   0  0  0  0  0  0  0  0  0  0  0  0
   59.4579   30.1858   45.9491 H   0  0  0  0  0  0  0  0  0  0  0  0
   59.4098   27.8118   45.1844 H   0  0  0  0  0  0  0  0  0  0  0  0
  1  2  1  0
  2  3  2  0
  3  4  1  0
  4  5  2  0
  5  6  1  0
  6  7  2  0
  7  8  1  0
  8  9  2  0
  9 10  1  0
 10 11  1  0
 11 12  1  0
 12 13  2  0
 13 14  1  0
 14 15  2  0
 15 16  1  0
 16 17  2  0
  9 18  1  0
  5 19  1  0
 19 20  2  0
 20  2  1  0
 18  6  1  0
 17 12  1  0
  1 21  1  0
  3 22  1  0
  4 23  1  0
 11 24  1  0
 11 25  1  0
 13 26  1  0
 14 27  1  0
 15 28  1  0
 16 29  1  0
 17 30  1  0
 19 31  1  0
 20 32  1  0
M  END
>  <UniqueID>  (86) 
82

>  <SMILES>  (86) 
Oc1ccc(-c2nnc(SCc3ccccc3)o2)cc1

>  <Energy>  (86) 
63.799543973127314

>  <Genealogy>  (86) 
Oc1ccc(-c2nnc(SCc3ccccc3)o2)cc1 (3D coordinates assigned)
Oc1ccc(-c2nnc(SCc3ccccc3)o2)cc1 (optimized conformer: 63.799543973127314 kcal/mol)

>  <smiles>  (86) 
Oc1ccc(-c2nnc(SCc3ccccc3)o2)cc1

>  <score_type>  (86) 
oracle

>  <origin>  (86) 
adg

>  <m_score__min__energy>  (86) 
-7.0599999999999996

>  <m_primary>  (86) 
energy

$$$$
86:0
     RDKit          3D

 64 68  0  0  0  0  0  0  0  0999 V2000
   57.7700   27.9380   44.2480 C   0  0  0  0  0  0  0  0  0  0  0  0
   57.3020   28.6020   45.5500 C   0  0  2  0  0  0  0  0  0  0  0  0
   56.7530   29.9380   45.2940 N   0  0  0  0  0  0  0  0  0  0  0  0
   57.3090   30.9500   44.4380 C   0  0  0  0  0  0  0  0  0  0  0  0
   57.3480   30.7710   43.1890 O   0  0  0  0  0  0  0  0  0  0  0  0
   57.8560   32.1930   45.0240 C   0  0  0  0  0  0  0  0  0  0  0  0
   57.1760   33.4160   44.8760 C   0  0  0  0  0  0  0  0  0  0  0  0
   57.6970   34.5860   45.4340 C   0  0  0  0  0  0  0  0  0  0  0  0
   58.8980   34.5530   46.1440 C   0  0  0  0  0  0  0  0  0  0  0  0
   59.5900   33.3460   46.3040 C   0  0  0  0  0  0  0  0  0  0  0  0
   60.8200   33.3110   47.0480 N   0  0  0  0  0  0  0  0  0  0  0  0
   62.1030   33.4760   46.3440 C   0  0  0  0  0  0  0  0  0  0  0  0
   63.2860   32.9670   47.1900 C   0  0  0  0  0  0  0  0  0  0  0  0
   63.2950   33.6130   48.5850 C   0  0  0  0  0  0  0  0  0  0  0  0
   61.9640   33.5200   49.1790 N   0  0  0  0  0  0  0  0  0  0  0  0
   60.8220   33.4150   48.4820 C   0  0  0  0  0  0  0  0  0  0  0  0
   59.7150   33.4250   49.2570 N   0  0  0  0  0  0  0  0  0  0  0  0
   60.2060   33.5760   50.5080 C   0  0  0  0  0  0  0  0  0  0  0  0
   59.3430   33.6810   51.7290 C   0  0  0  0  0  0  0  0  0  0  0  0
   58.4470   32.4770   51.8460 C   0  0  0  0  0  0  0  0  0  0  0  0
   58.9180   31.1980   51.4990 C   0  0  0  0  0  0  0  0  0  0  0  0
   58.0810   30.0840   51.6220 C   0  0  0  0  0  0  0  0  0  0  0  0
   56.7650   30.2380   52.0690 C   0  0  0  0  0  0  0  0  0  0  0  0
   56.2860   31.5080   52.4000 C   0  0  0  0  0  0  0  0  0  0  0  0
   57.1230   32.6240   52.2940 C   0  0  0  0  0  0  0  0  0  0  0  0
   61.5880   33.6400   50.4620 C   0  0  0  0  0  0  0  0  0  0  0  0
   62.5070   33.8320   51.5890 C   0  0  0  0  0  0  0  0  0  0  0  0
   62.3170   33.1020   52.8010 N   0  0  0  0  0  0  0  0  0  0  0  0
   63.4460   34.6640   51.4950 O   0  0  0  0  0  0  0  0  0  0  0  0
   59.0620   32.1690   45.7480 C   0  0  0  0  0  0  0  0  0  0  0  0
   58.3910   28.5910   46.6130 C   0  0  0  0  0  0  0  0  0  0  0  0
   58.5150   29.7080   47.4630 C   0  0  0  0  0  0  0  0  0  0  0  0
   59.4990   29.7460   48.4540 C   0  0  0  0  0  0  0  0  0  0  0  0
   60.3820   28.6770   48.6050 C   0  0  0  0  0  0  0  0  0  0  0  0
   60.2850   27.5680   47.7620 C   0  0  0  0  0  0  0  0  0  0  0  0
   59.2980   27.5210   46.7730 C   0  0  0  0  0  0  0  0  0  0  0  0
   58.3887   27.0602   44.4859 H   0  0  0  0  0  0  0  0  0  0  0  0
   56.8942   27.6215   43.6624 H   0  0  0  0  0  0  0  0  0  0  0  0
   58.3625   28.6564   43.6624 H   0  0  0  0  0  0  0  0  0  0  0  0
   56.4782   28.0018   45.9636 H   0  0  0  0  0  0  0  0  0  0  0  0
   56.2288   33.4510   44.3178 H   0  0  0  0  0  0  0  0  0  0  0  0
   57.1582   35.5374   45.3132 H   0  0  0  0  0  0  0  0  0  0  0  0
   59.3026   35.4785   46.5796 H   0  0  0  0  0  0  0  0  0  0  0  0
   62.0683   32.9092   45.4019 H   0  0  0  0  0  0  0  0  0  0  0  0
   62.2542   34.5487   46.1529 H   0  0  0  0  0  0  0  0  0  0  0  0
   63.2035   31.8757   47.3012 H   0  0  0  0  0  0  0  0  0  0  0  0
   64.2208   33.2368   46.6768 H   0  0  0  0  0  0  0  0  0  0  0  0
   64.0190   33.0887   49.2261 H   0  0  0  0  0  0  0  0  0  0  0  0
   63.5804   34.6715   48.4945 H   0  0  0  0  0  0  0  0  0  0  0  0
   59.9837   33.7435   52.6209 H   0  0  0  0  0  0  0  0  0  0  0  0
   58.7185   34.5828   51.6470 H   0  0  0  0  0  0  0  0  0  0  0  0
   59.9468   31.0734   51.1301 H   0  0  0  0  0  0  0  0  0  0  0  0
   58.4594   29.0833   51.3662 H   0  0  0  0  0  0  0  0  0  0  0  0
   56.1079   29.3605   52.1599 H   0  0  0  0  0  0  0  0  0  0  0  0
   55.2486   31.6307   52.7447 H   0  0  0  0  0  0  0  0  0  0  0  0
   56.7432   33.6208   52.5624 H   0  0  0  0  0  0  0  0  0  0  0  0
   62.9680   33.2450   53.6050 H   0  0  0  0  0  0  0  0  0  0  0  0
   61.5360   32.4190   52.8960 H   0  0  0  0  0  0  0  0  0  0  0  0
   59.5978   31.2174   45.8803 H   0  0  0  0  0  0  0  0  0  0  0  0
   57.8291   30.5599   47.3449 H   0  0  0  0  0  0  0  0  0  0  0  0
   59.5775   30.6207   49.1164 H   0  0  0  0  0  0  0  0  0  0  0  0
   61.1543   28.7075   49.3877 H   0  0  0  0  0  0  0  0  0  0  0  0
   60.9872   26.7290   47.8764 H   0  0  0  0  0  0  0  0  0  0  0  0
   59.2275   26.6430   46.1140 H   0  0  0  0  0  0  0  0  0  0  0  0
  1  2  1  0
  2  3  1  0
  3  4  1  0
  4  5  2  0
  4  6  1  0
  6  7  2  0
  7  8  1  0
  8  9  2  0
  9 10  1  0
 10 11  1  0
 11 12  1  0
 12 13  1  0
 13 14  1  0
 14 15  1  0
 15 16  1  0
 16 17  2  0
 17 18  1  0
 18 19  1  0
 19 20  1  0
 20 21  2  0
 21 22  1  0
 22 23  2  0
 23 24  1  0
 24 25  2  0
 18 26  2  0
 26 27  1  0
 27 28  1  0
 27 29  2  0
 10 30  2  0
  2 31  1  0
 31 32  2  0
 32 33  1  0
 33 34  2  0
 34 35  1  0
 35 36  2  0
 30  6  1  0
 36 31  1  0
 16 11  1  0
 25 20  1  0
 26 15  1  0
  1 37  1  0
  1 38  1  0
  1 39  1  0
  2 40  1  1
  7 41  1  0
  8 42  1  0
  9 43  1  0
 12 44  1  0
 12 45  1  0
 13 46  1  0
 13 47  1  0
 14 48  1  0
 14 49  1  0
 19 50  1  0
 19 51  1  0
 21 52  1  0
 22 53  1  0
 23 54  1  0
 24 55  1  0
 25 56  1  0
 28 57  1  0
 28 58  1  0
 30 59  1  0
 32 60  1  0
 33 61  1  0
 34 62  1  0
 35 63  1  0
 36 64  1  0
M  CHG  1   3  -1
M  END
>  <UniqueID>  (87) 
83

>  <SMILES>  (87) 
C[C@H]([N-]C(=O)c1cccc(N2CCCn3c2nc(Cc2ccccc2)c3C(N)=O)c1)c1ccccc1

>  <Energy>  (87) 
108.25639443200353

>  <Genealogy>  (87) 
CC([N-]C(=O)c1cccc(N2CCCn3c2nc(Cc2ccccc2)c3C(N)=O)c1)c1ccccc1 (protonated)
C[C@H]([N-]C(=O)c1cccc(N2CCCn3c2nc(Cc2ccccc2)c3C(N)=O)c1)c1ccccc1 (chirality)
C[C@H]([N-]C(=O)c1cccc(N2CCCn3c2nc(Cc2ccccc2)c3C(N)=O)c1)c1ccccc1 (3D coordinates assigned)
C[C@H]([N-]C(=O)c1cccc(N2CCCn3c2nc(Cc2ccccc2)c3C(N)=O)c1)c1ccccc1 (nonaromatic ring conformer: 108.25639443200353 kcal/mol)

>  <smiles>  (87) 
CC(NC(=O)c1cccc(N2CCCn3c2nc(Cc2ccccc2)c3C(N)=O)c1)c1ccccc1

>  <score_type>  (87) 
oracle

>  <origin>  (87) 
adg

>  <m_score__min__energy>  (87) 
-12.84

>  <m_primary>  (87) 
energy

$$$$
87:0
     RDKit          3D

 53 55  0  0  0  0  0  0  0  0999 V2000
   55.3780   23.6820   44.1400 C   0  0  0  0  0  0  0  0  0  0  0  0
   54.3880   23.9410   45.2660 C   0  0  0  0  0  0  0  0  0  0  0  0
   55.0920   24.4580   46.4320 N   0  0  0  0  0  0  0  0  0  0  0  0
   56.1950   25.3680   46.3600 C   0  0  0  0  0  0  0  0  0  0  0  0
   57.3580   24.9310   46.5770 O   0  0  0  0  0  0  0  0  0  0  0  0
   55.9870   26.7620   46.0740 N   0  0  0  0  0  0  0  0  0  0  0  0
   57.0100   27.6440   45.5800 C   0  0  0  0  0  0  0  0  0  0  0  0
   58.3570   27.2630   45.6890 C   0  0  0  0  0  0  0  0  0  0  0  0
   59.3730   28.1230   45.2630 C   0  0  0  0  0  0  0  0  0  0  0  0
   59.0560   29.3790   44.7420 C   0  0  0  0  0  0  0  0  0  0  0  0
   57.7170   29.7810   44.6430 C   0  0  0  0  0  0  0  0  0  0  0  0
   57.3170   31.3980   44.0660 S   0  0  0  0  0  0  0  0  0  0  0  0
   56.1790   31.9550   44.8740 O   0  0  0  0  0  0  0  0  0  0  0  0
   56.8750   31.3060   42.6330 O   0  0  0  0  0  0  0  0  0  0  0  0
   58.6710   32.4810   44.1670 N   0  0  0  0  0  0  0  0  0  0  0  0
   58.9790   33.2540   45.3300 C   0  0  0  0  0  0  0  0  0  0  0  0
   59.2860   34.6130   45.1890 C   0  0  0  0  0  0  0  0  0  0  0  0
   59.5790   35.3890   46.3150 C   0  0  0  0  0  0  0  0  0  0  0  0
   59.5760   34.8090   47.5870 C   0  0  0  0  0  0  0  0  0  0  0  0
   59.3000   33.4420   47.7330 C   0  0  0  0  0  0  0  0  0  0  0  0
   59.3140   32.6760   49.3180 S   0  0  0  0  0  0  0  0  0  0  0  0
   59.7160   33.6740   50.3700 O   0  0  0  0  0  0  0  0  0  0  0  0
   57.9240   32.1840   49.6190 O   0  0  0  0  0  0  0  0  0  0  0  0
   60.4420   31.3340   49.2770 N   0  0  0  0  0  0  0  0  0  0  0  0
   60.5690   30.6840   50.6010 C   0  0  0  0  0  0  0  0  0  0  0  0
   59.6960   29.4220   50.7290 C   0  0  0  0  0  0  0  0  0  0  0  0
   58.5360   29.5420   49.9360 O   0  0  0  0  0  0  0  0  0  0  0  0
   58.8780   29.5090   48.5590 C   0  0  0  0  0  0  0  0  0  0  0  0
   60.1130   30.3730   48.2110 C   0  0  0  0  0  0  0  0  0  0  0  0
   59.0250   32.6650   46.6020 C   0  0  0  0  0  0  0  0  0  0  0  0
   56.6970   28.9150   45.0630 C   0  0  0  0  0  0  0  0  0  0  0  0
   56.3591   23.4253   44.5662 H   0  0  0  0  0  0  0  0  0  0  0  0
   55.0180   22.8478   43.5199 H   0  0  0  0  0  0  0  0  0  0  0  0
   55.4726   24.5856   43.5199 H   0  0  0  0  0  0  0  0  0  0  0  0
   53.6414   24.6774   44.9338 H   0  0  0  0  0  0  0  0  0  0  0  0
   53.8861   22.9992   45.5325 H   0  0  0  0  0  0  0  0  0  0  0  0
   55.0500   27.1760   46.2820 H   0  0  0  0  0  0  0  0  0  0  0  0
   58.6144   26.2810   46.1126 H   0  0  0  0  0  0  0  0  0  0  0  0
   60.4247   27.8096   45.3383 H   0  0  0  0  0  0  0  0  0  0  0  0
   59.8582   30.0539   44.4088 H   0  0  0  0  0  0  0  0  0  0  0  0
   59.2967   35.0717   44.1893 H   0  0  0  0  0  0  0  0  0  0  0  0
   59.8123   36.4578   46.1996 H   0  0  0  0  0  0  0  0  0  0  0  0
   59.7901   35.4248   48.4730 H   0  0  0  0  0  0  0  0  0  0  0  0
   61.6209   30.4015   50.7550 H   0  0  0  0  0  0  0  0  0  0  0  0
   60.2262   31.4037   51.3590 H   0  0  0  0  0  0  0  0  0  0  0  0
   60.2734   28.5470   50.3959 H   0  0  0  0  0  0  0  0  0  0  0  0
   59.3973   29.3009   51.7807 H   0  0  0  0  0  0  0  0  0  0  0  0
   59.0911   28.4671   48.2777 H   0  0  0  0  0  0  0  0  0  0  0  0
   58.0246   29.9241   48.0028 H   0  0  0  0  0  0  0  0  0  0  0  0
   60.9761   29.7093   48.0546 H   0  0  0  0  0  0  0  0  0  0  0  0
   59.8768   30.9465   47.3025 H   0  0  0  0  0  0  0  0  0  0  0  0
   58.8438   31.5856   46.7113 H   0  0  0  0  0  0  0  0  0  0  0  0
   55.6461   29.2310   44.9879 H   0  0  0  0  0  0  0  0  0  0  0  0
  1  2  1  0
  2  3  1  0
  3  4  1  0
  4  5  2  0
  4  6  1  0
  6  7  1  0
  7  8  2  0
  8  9  1  0
  9 10  2  0
 10 11  1  0
 11 12  1  0
 12 13  2  0
 12 14  2  0
 12 15  1  0
 15 16  1  0
 16 17  2  0
 17 18  1  0
 18 19  2  0
 19 20  1  0
 20 21  1  0
 21 22  2  0
 21 23  2  0
 21 24  1  0
 24 25  1  0
 25 26  1  0
 26 27  1  0
 27 28  1  0
 28 29  1  0
 20 30  2  0
 11 31  2  0
 31  7  1  0
 30 16  1  0
 29 24  1  0
  1 32  1  0
  1 33  1  0
  1 34  1  0
  2 35  1  0
  2 36  1  0
  6 37  1  0
  8 38  1  0
  9 39  1  0
 10 40  1  0
 17 41  1  0
 18 42  1  0
 19 43  1  0
 25 44  1  0
 25 45  1  0
 26 46  1  0
 26 47  1  0
 28 48  1  0
 28 49  1  0
 29 50  1  0
 29 51  1  0
 30 52  1  0
 31 53  1  0
M  CHG  2   3  -1  15  -1
M  END
>  <UniqueID>  (88) 
84

>  <SMILES>  (88) 
CC[N-]C(=O)Nc1cccc(S(=O)(=O)[N-]c2cccc(S(=O)(=O)N3CCOCC3)c2)c1

>  <Energy>  (88) 
69.26283989813444

>  <Genealogy>  (88) 
CC[N-]C(=O)Nc1cccc(S(=O)(=O)[N-]c2cccc(S(=O)(=O)N3CCOCC3)c2)c1 (protonated)
CC[N-]C(=O)Nc1cccc(S(=O)(=O)[N-]c2cccc(S(=O)(=O)N3CCOCC3)c2)c1 (3D coordinates assigned)
CC[N-]C(=O)Nc1cccc(S(=O)(=O)[N-]c2cccc(S(=O)(=O)N3CCOCC3)c2)c1 (nonaromatic ring conformer: 69.26283989813444 kcal/mol)

>  <smiles>  (88) 
CCNC(=O)Nc1cccc(S(=O)(=O)Nc2cccc(S(=O)(=O)N3CCOCC3)c2)c1

>  <score_type>  (88) 
oracle

>  <origin>  (88) 
adg

>  <m_score__min__energy>  (88) 
-13.43

>  <m_primary>  (88) 
energy

$$$$
88:0
     RDKit          3D

 52 54  0  0  0  0  0  0  0  0999 V2000
   54.3890   25.9720   45.8950 N   0  0  0  0  0  0  0  0  0  0  0  0
   54.5010   24.2730   45.5930 S   0  0  0  0  0  0  0  0  0  0  0  0
   53.6910   23.9260   44.3760 O   0  0  0  0  0  0  0  0  0  0  0  0
   53.9480   23.5190   46.7690 O   0  0  0  0  0  0  0  0  0  0  0  0
   56.1870   23.8300   45.3350 C   0  0  0  0  0  0  0  0  0  0  0  0
   56.5050   22.6650   44.6240 C   0  0  0  0  0  0  0  0  0  0  0  0
   57.8430   22.3240   44.4020 C   0  0  0  0  0  0  0  0  0  0  0  0
   58.8670   23.1400   44.8900 C   0  0  0  0  0  0  0  0  0  0  0  0
   58.5580   24.3020   45.6210 C   0  0  0  0  0  0  0  0  0  0  0  0
   59.5830   25.1840   46.1000 N   0  0  0  0  0  0  0  0  0  0  0  0
   59.4440   26.5830   46.3820 C   0  0  0  0  0  0  0  0  0  0  0  0
   60.4140   27.3510   46.1360 O   0  0  0  0  0  0  0  0  0  0  0  0
   58.1690   27.1590   46.9240 C   0  0  0  0  0  0  0  0  0  0  0  0
   58.0600   28.5630   46.5460 N   0  0  0  0  0  0  0  0  0  0  0  0
   57.1670   29.0240   45.5260 C   0  0  0  0  0  0  0  0  0  0  0  0
   56.1380   28.3500   45.2470 O   0  0  0  0  0  0  0  0  0  0  0  0
   57.4440   30.2910   44.8080 C   0  0  0  0  0  0  0  0  0  0  0  0
   57.1810   30.4050   43.4310 C   0  0  0  0  0  0  0  0  0  0  0  0
   57.4460   31.6000   42.7570 C   0  0  0  0  0  0  0  0  0  0  0  0
   57.9800   32.6910   43.4450 C   0  0  0  0  0  0  0  0  0  0  0  0
   58.2500   32.5940   44.8150 C   0  0  0  0  0  0  0  0  0  0  0  0
   58.8970   33.9810   45.6950 S   0  0  0  0  0  0  0  0  0  0  0  0
   58.6610   35.2170   44.8750 O   0  0  0  0  0  0  0  0  0  0  0  0
   58.1600   34.1420   46.9960 O   0  0  0  0  0  0  0  0  0  0  0  0
   60.6080   33.8350   46.0010 N   0  0  0  0  0  0  0  0  0  0  0  0
   60.9110   33.6320   47.4230 C   0  0  0  0  0  0  0  0  0  0  0  0
   62.3970   33.8300   47.7110 C   0  0  0  0  0  0  0  0  0  0  0  0
   63.0590   32.4810   47.4570 C   0  0  0  0  0  0  0  0  0  0  0  0
   61.9500   31.4310   47.5030 C   0  0  0  0  0  0  0  0  0  0  0  0
   60.6510   32.1770   47.7870 C   0  0  0  0  0  0  0  0  0  0  0  0
   57.9800   31.3980   45.4930 C   0  0  0  0  0  0  0  0  0  0  0  0
   57.2170   24.6530   45.8170 C   0  0  0  0  0  0  0  0  0  0  0  0
   53.5660   26.3240   45.3570 H   0  0  0  0  0  0  0  0  0  0  0  0
   55.7019   22.0185   44.2404 H   0  0  0  0  0  0  0  0  0  0  0  0
   58.0901   21.4104   43.8414 H   0  0  0  0  0  0  0  0  0  0  0  0
   59.9175   22.8733   44.7022 H   0  0  0  0  0  0  0  0  0  0  0  0
   57.3136   26.6029   46.5129 H   0  0  0  0  0  0  0  0  0  0  0  0
   58.1719   27.0779   48.0210 H   0  0  0  0  0  0  0  0  0  0  0  0
   56.7642   29.5482   42.8813 H   0  0  0  0  0  0  0  0  0  0  0  0
   57.2332   31.6813   41.6809 H   0  0  0  0  0  0  0  0  0  0  0  0
   58.1890   33.6288   42.9094 H   0  0  0  0  0  0  0  0  0  0  0  0
   60.2916   34.3466   47.9849 H   0  0  0  0  0  0  0  0  0  0  0  0
   62.8175   34.5941   47.0406 H   0  0  0  0  0  0  0  0  0  0  0  0
   62.5647   34.1725   48.7428 H   0  0  0  0  0  0  0  0  0  0  0  0
   63.5441   32.4768   46.4697 H   0  0  0  0  0  0  0  0  0  0  0  0
   63.8326   32.2722   48.2107 H   0  0  0  0  0  0  0  0  0  0  0  0
   61.8833   30.9077   46.5377 H   0  0  0  0  0  0  0  0  0  0  0  0
   62.1509   30.6774   48.2787 H   0  0  0  0  0  0  0  0  0  0  0  0
   59.8347   31.7698   47.1723 H   0  0  0  0  0  0  0  0  0  0  0  0
   60.3506   32.0739   48.8402 H   0  0  0  0  0  0  0  0  0  0  0  0
   58.1887   31.3233   46.5704 H   0  0  0  0  0  0  0  0  0  0  0  0
   56.9685   25.5809   46.3529 H   0  0  0  0  0  0  0  0  0  0  0  0
  1  2  1  0
  2  3  2  0
  2  4  2  0
  2  5  1  0
  5  6  2  0
  6  7  1  0
  7  8  2  0
  8  9  1  0
  9 10  1  0
 10 11  1  0
 11 12  2  0
 11 13  1  0
 13 14  1  0
 14 15  1  0
 15 16  2  0
 15 17  1  0
 17 18  2  0
 18 19  1  0
 19 20  2  0
 20 21  1  0
 21 22  1  0
 22 23  2  0
 22 24  2  0
 22 25  1  0
 25 26  1  0
 26 27  1  0
 27 28  1  0
 28 29  1  0
 29 30  1  0
 21 31  2  0
  9 32  2  0
 32  5  1  0
 31 17  1  0
 30 26  1  0
  1 33  1  0
  6 34  1  0
  7 35  1  0
  8 36  1  0
 13 37  1  0
 13 38  1  0
 18 39  1  0
 19 40  1  0
 20 41  1  0
 26 42  1  0
 27 43  1  0
 27 44  1  0
 28 45  1  0
 28 46  1  0
 29 47  1  0
 29 48  1  0
 30 49  1  0
 30 50  1  0
 31 51  1  0
 32 52  1  0
M  CHG  4   1  -1  10  -1  14  -1  25  -1
M  END
>  <UniqueID>  (89) 
85

>  <SMILES>  (89) 
[NH-]S(=O)(=O)c1cccc([N-]C(=O)C[N-]C(=O)c2cccc(S(=O)(=O)[N-]C3CCCC3)c2)c1

>  <Energy>  (89) 
56.18844882299444

>  <Genealogy>  (89) 
[NH-]S(=O)(=O)c1cccc([N-]C(=O)C[N-]C(=O)c2cccc(S(=O)(=O)[N-]C3CCCC3)c2)c1 (protonated)
[NH-]S(=O)(=O)c1cccc([N-]C(=O)C[N-]C(=O)c2cccc(S(=O)(=O)[N-]C3CCCC3)c2)c1 (3D coordinates assigned)
[NH-]S(=O)(=O)c1cccc([N-]C(=O)C[N-]C(=O)c2cccc(S(=O)(=O)[N-]C3CCCC3)c2)c1 (nonaromatic ring conformer: 56.18844882299444 kcal/mol)

>  <smiles>  (89) 
NS(=O)(=O)c1cccc(NC(=O)CNC(=O)c2cccc(S(=O)(=O)NC3CCCC3)c2)c1

>  <score_type>  (89) 
oracle

>  <origin>  (89) 
adg

>  <m_score__min__energy>  (89) 
-15.6

>  <m_primary>  (89) 
energy

$$$$
89:0
     RDKit          3D

 30 31  0  0  0  0  0  0  0  0999 V2000
   57.7920   33.1140   46.2720 C   0  0  0  0  0  0  0  0  0  0  0  0
   57.4200   32.7790   44.8320 C   0  0  0  0  0  0  0  0  0  0  0  0
   57.6240   31.3130   44.5550 C   0  0  0  0  0  0  0  0  0  0  0  0
   58.5710   30.5810   45.2830 C   0  0  0  0  0  0  0  0  0  0  0  0
   58.7410   29.2130   45.0490 C   0  0  0  0  0  0  0  0  0  0  0  0
   57.9600   28.5510   44.0830 C   0  0  0  0  0  0  0  0  0  0  0  0
   58.1320   27.1020   43.8200 C   0  0  0  0  0  0  0  0  0  0  0  0
   58.0100   26.6550   42.6470 O   0  0  0  0  0  0  0  0  0  0  0  0
   58.5250   25.9400   45.1320 S   0  0  0  0  0  0  0  0  0  0  0  0
   56.8680   25.2440   45.1430 C   0  0  0  0  0  0  0  0  0  0  0  0
   56.5510   24.1790   44.2960 C   0  0  0  0  0  0  0  0  0  0  0  0
   55.2990   23.6490   44.3060 N   0  0  0  0  0  0  0  0  0  0  0  0
   54.3380   24.1500   45.1310 C   0  0  0  0  0  0  0  0  0  0  0  0
   52.8340   23.5080   45.1380 S   0  0  0  0  0  0  0  0  0  0  0  0
   54.6260   25.1910   45.9550 N   0  0  0  0  0  0  0  0  0  0  0  0
   55.8630   25.7490   45.9770 C   0  0  0  0  0  0  0  0  0  0  0  0
   56.0950   26.7180   46.7470 O   0  0  0  0  0  0  0  0  0  0  0  0
   56.9960   29.2880   43.3700 C   0  0  0  0  0  0  0  0  0  0  0  0
   56.8290   30.6550   43.6060 C   0  0  0  0  0  0  0  0  0  0  0  0
   57.1535   32.5390   46.9589 H   0  0  0  0  0  0  0  0  0  0  0  0
   58.8465   32.8549   46.4481 H   0  0  0  0  0  0  0  0  0  0  0  0
   57.6444   34.1897   46.4481 H   0  0  0  0  0  0  0  0  0  0  0  0
   56.3634   33.0343   44.6636 H   0  0  0  0  0  0  0  0  0  0  0  0
   58.0660   33.3590   44.1566 H   0  0  0  0  0  0  0  0  0  0  0  0
   59.1848   31.0857   46.0436 H   0  0  0  0  0  0  0  0  0  0  0  0
   59.4907   28.6499   45.6241 H   0  0  0  0  0  0  0  0  0  0  0  0
   57.3156   23.7687   43.6200 H   0  0  0  0  0  0  0  0  0  0  0  0
   55.0820   22.8500   43.6680 H   0  0  0  0  0  0  0  0  0  0  0  0
   56.3686   28.7835   42.6205 H   0  0  0  0  0  0  0  0  0  0  0  0
   56.0694   31.2182   43.0440 H   0  0  0  0  0  0  0  0  0  0  0  0
  1  2  1  0
  2  3  1  0
  3  4  2  0
  4  5  1  0
  5  6  2  0
  6  7  1  0
  7  8  2  0
  7  9  1  0
  9 10  1  0
 10 11  2  0
 11 12  1  0
 12 13  1  0
 13 14  2  0
 13 15  1  0
 15 16  1  0
 16 17  2  0
  6 18  1  0
 18 19  2  0
 19  3  1  0
 16 10  1  0
  1 20  1  0
  1 21  1  0
  1 22  1  0
  2 23  1  0
  2 24  1  0
  4 25  1  0
  5 26  1  0
 11 27  1  0
 12 28  1  0
 18 29  1  0
 19 30  1  0
M  CHG  1  15  -1
M  END
>  <UniqueID>  (90) 
86

>  <SMILES>  (90) 
CCc1ccc(C(=O)Sc2c[nH]c(=S)[n-]c2=O)cc1

>  <Energy>  (90) 
25.78880792891782

>  <Genealogy>  (90) 
CCc1ccc(C(=O)Sc2c[nH]c(=S)[n-]c2=O)cc1 (protonated)
CCc1ccc(C(=O)Sc2c[nH]c(=S)[n-]c2=O)cc1 (3D coordinates assigned)
CCc1ccc(C(=O)Sc2c[nH]c(=S)[n-]c2=O)cc1 (optimized conformer: 25.78880792891782 kcal/mol)

>  <smiles>  (90) 
CCc1ccc(C(=O)Sc2c[nH]c(=S)[nH]c2=O)cc1

>  <score_type>  (90) 
oracle

>  <origin>  (90) 
adg

>  <m_score__min__energy>  (90) 
-9.1199999999999992

>  <m_primary>  (90) 
energy

$$$$
90:0
     RDKit          3D

 41 43  0  0  0  0  0  0  0  0999 V2000
   57.9320   32.2040   42.2450 C   0  0  0  0  0  0  0  0  0  0  0  0
   57.7020   31.9130   43.6590 N   0  0  0  0  0  0  0  0  0  0  0  0
   57.7940   32.7540   44.7100 C   0  0  0  0  0  0  0  0  0  0  0  0
   58.1520   34.2080   44.6320 C   0  0  0  0  0  0  0  0  0  0  0  0
   59.2830   34.4960   45.5690 C   0  0  0  0  0  0  0  0  0  0  0  0
   59.6350   35.6920   45.7620 O   0  0  0  0  0  0  0  0  0  0  0  0
   59.8870   33.4260   46.3130 N   0  0  0  0  0  0  0  0  0  0  0  0
   60.9940   33.6020   47.2100 C   0  0  0  0  0  0  0  0  0  0  0  0
   62.3000   33.4130   46.7300 C   0  0  0  0  0  0  0  0  0  0  0  0
   63.3980   33.5790   47.5780 C   0  0  0  0  0  0  0  0  0  0  0  0
   63.2030   33.9560   48.9080 C   0  0  0  0  0  0  0  0  0  0  0  0
   61.9110   34.1830   49.3890 C   0  0  0  0  0  0  0  0  0  0  0  0
   60.8070   34.0170   48.5440 C   0  0  0  0  0  0  0  0  0  0  0  0
   59.5690   34.3130   49.0150 F   0  0  0  0  0  0  0  0  0  0  0  0
   57.3960   32.1580   45.8520 N   0  0  0  0  0  0  0  0  0  0  0  0
   57.0350   30.9230   45.5390 N   0  0  0  0  0  0  0  0  0  0  0  0
   57.2150   30.7850   44.2120 C   0  0  0  0  0  0  0  0  0  0  0  0
   56.7690   29.2920   43.3150 S   0  0  0  0  0  0  0  0  0  0  0  0
   58.1960   28.3010   43.8890 C   0  0  0  0  0  0  0  0  0  0  0  0
   58.0500   27.8830   45.3180 C   0  0  0  0  0  0  0  0  0  0  0  0
   58.2690   28.7190   46.2350 O   0  0  0  0  0  0  0  0  0  0  0  0
   57.6870   26.5240   45.6130 N   0  0  0  0  0  0  0  0  0  0  0  0
   56.4940   26.0050   45.6320 C   0  0  0  0  0  0  0  0  0  0  0  0
   56.1330   24.7040   45.3290 C   0  0  0  0  0  0  0  0  0  0  0  0
   54.7700   24.6990   45.5310 C   0  0  0  0  0  0  0  0  0  0  0  0
   54.3960   25.8970   45.9190 O   0  0  0  0  0  0  0  0  0  0  0  0
   55.4090   26.7100   45.9950 N   0  0  0  0  0  0  0  0  0  0  0  0
   58.6117   33.0640   42.1535 H   0  0  0  0  0  0  0  0  0  0  0  0
   58.3833   31.3266   41.7588 H   0  0  0  0  0  0  0  0  0  0  0  0
   56.9740   32.4404   41.7588 H   0  0  0  0  0  0  0  0  0  0  0  0
   58.4556   34.4559   43.6042 H   0  0  0  0  0  0  0  0  0  0  0  0
   57.2794   34.8154   44.9141 H   0  0  0  0  0  0  0  0  0  0  0  0
   59.3960   32.5030   46.3200 H   0  0  0  0  0  0  0  0  0  0  0  0
   62.4598   33.1322   45.6785 H   0  0  0  0  0  0  0  0  0  0  0  0
   64.4166   33.4126   47.1975 H   0  0  0  0  0  0  0  0  0  0  0  0
   64.0674   34.0745   49.5779 H   0  0  0  0  0  0  0  0  0  0  0  0
   61.7608   34.4928   50.4337 H   0  0  0  0  0  0  0  0  0  0  0  0
   58.2781   27.4007   43.2623 H   0  0  0  0  0  0  0  0  0  0  0  0
   59.0977   28.9258   43.8084 H   0  0  0  0  0  0  0  0  0  0  0  0
   56.7783   23.8741   45.0051 H   0  0  0  0  0  0  0  0  0  0  0  0
   54.1047   23.8343   45.3905 H   0  0  0  0  0  0  0  0  0  0  0  0
  1  2  1  0
  2  3  1  0
  3  4  1  0
  4  5  1  0
  5  6  2  0
  5  7  1  0
  7  8  1  0
  8  9  2  0
  9 10  1  0
 10 11  2  0
 11 12  1  0
 12 13  2  0
 13 14  1  0
  3 15  2  0
 15 16  1  0
 16 17  2  0
 17 18  1  0
 18 19  1  0
 19 20  1  0
 20 21  2  0
 20 22  1  0
 22 23  2  3
 23 24  1  0
 24 25  2  0
 25 26  1  0
 26 27  1  0
 17  2  1  0
 27 23  1  0
 13  8  1  0
  1 28  1  0
  1 29  1  0
  1 30  1  0
  4 31  1  0
  4 32  1  0
  7 33  1  0
  9 34  1  0
 10 35  1  0
 11 36  1  0
 12 37  1  0
 19 38  1  0
 19 39  1  0
 24 40  1  0
 25 41  1  0
M  CHG  1  27  -1
M  END
>  <UniqueID>  (91) 
87

>  <SMILES>  (91) 
Cn1c(CC(=O)Nc2ccccc2F)nnc1SCC(=O)N=c1cco[n-]1

>  <Energy>  (91) 
107.4155199408844

>  <Genealogy>  (91) 
Cn1c(CC(=O)Nc2ccccc2F)nnc1SCC(=O)N=c1cco[n-]1 (protonated)
Cn1c(CC(=O)Nc2ccccc2F)nnc1SCC(=O)N=c1cco[n-]1 (3D coordinates assigned)
Cn1c(CC(=O)Nc2ccccc2F)nnc1SCC(=O)N=c1cco[n-]1 (optimized conformer: 107.4155199408844 kcal/mol)

>  <smiles>  (91) 
Cn1c(CC(=O)Nc2ccccc2F)nnc1SCC(=O)N=c1cco[nH]1

>  <score_type>  (91) 
oracle

>  <origin>  (91) 
adg

>  <m_score__min__energy>  (91) 
-11.19

>  <m_primary>  (91) 
energy

$$$$
91:0
     RDKit          3D

 35 36  0  0  0  0  0  0  0  0999 V2000
   59.5155   33.3945   48.0634 H   0  0  0  0  0  0  0  0  0  0  0  0
   59.0740   33.4740   47.0590 C   0  0  0  0  0  0  0  0  0  0  0  0
   58.1340   32.5780   46.6580 N   0  0  0  0  0  0  0  0  0  0  0  0
   57.5580   32.6320   45.4260 C   0  0  0  0  0  0  0  0  0  0  0  0
   56.6720   31.7300   45.1140 N   0  0  0  0  0  0  0  0  0  0  0  0
   56.6370   30.9370   43.8880 C   0  0  0  0  0  0  0  0  0  0  0  0
   57.6625   30.6729   43.5904 H   0  0  0  0  0  0  0  0  0  0  0  0
   56.1655   31.5192   43.0826 H   0  0  0  0  0  0  0  0  0  0  0  0
   55.8480   29.6860   44.1370 C   0  0  0  0  0  0  0  0  0  0  0  0
   54.9090   29.3980   43.3500 O   0  0  0  0  0  0  0  0  0  0  0  0
   56.0850   28.8340   45.2660 N   0  0  0  0  0  0  0  0  0  0  0  0
   56.9860   27.6830   45.3250 C   0  0  0  0  0  0  0  0  0  0  0  0
   57.5112   27.6944   46.2915 H   0  0  0  0  0  0  0  0  0  0  0  0
   56.3777   26.7740   45.2081 H   0  0  0  0  0  0  0  0  0  0  0  0
   58.0280   27.6980   44.1970 C   0  0  0  0  0  0  0  0  0  0  0  0
   58.5315   26.7204   44.1692 H   0  0  0  0  0  0  0  0  0  0  0  0
   57.4982   27.9078   43.2561 H   0  0  0  0  0  0  0  0  0  0  0  0
   59.0850   28.7890   44.3880 C   0  0  0  0  0  0  0  0  0  0  0  0
   60.0419   28.4475   43.9665 H   0  0  0  0  0  0  0  0  0  0  0  0
   58.7575   29.7044   43.8735 H   0  0  0  0  0  0  0  0  0  0  0  0
   59.2560   29.0720   45.8100 N   0  0  0  0  0  0  0  0  0  0  0  0
   60.1320   28.4690   46.6370 C   0  0  0  0  0  0  0  0  0  0  0  0
   60.8867   27.7246   46.3432 H   0  0  0  0  0  0  0  0  0  0  0  0
   59.9210   28.9450   47.9180 C   0  0  0  0  0  0  0  0  0  0  0  0
   60.4656   28.6700   48.8333 H   0  0  0  0  0  0  0  0  0  0  0  0
   58.8750   29.8430   47.7970 C   0  0  0  0  0  0  0  0  0  0  0  0
   58.4303   30.4221   48.6198 H   0  0  0  0  0  0  0  0  0  0  0  0
   58.4910   29.8920   46.5090 N   0  0  0  0  0  0  0  0  0  0  0  0
   57.7100   30.4650   46.1180 H   0  0  0  0  0  0  0  0  0  0  0  0
   57.9450   33.6520   44.5310 C   0  0  0  0  0  0  0  0  0  0  0  0
   57.4915   33.7150   43.5308 H   0  0  0  0  0  0  0  0  0  0  0  0
   58.9100   34.5810   44.9280 C   0  0  0  0  0  0  0  0  0  0  0  0
   59.2202   35.3803   44.2389 H   0  0  0  0  0  0  0  0  0  0  0  0
   59.4800   34.4950   46.1980 C   0  0  0  0  0  0  0  0  0  0  0  0
   60.2403   35.2230   46.5173 H   0  0  0  0  0  0  0  0  0  0  0  0
  1  2  1  0
  2  3  1  0
  3  4  1  0
  4  5  2  0
  5  6  1  0
  6  7  1  0
  6  8  1  0
  6  9  1  0
  9 10  2  0
  9 11  1  0
 11 12  1  0
 12 13  1  0
 12 14  1  0
 12 15  1  0
 15 16  1  0
 15 17  1  0
 15 18  1  0
 18 19  1  0
 18 20  1  0
 18 21  1  0
 21 22  1  0
 22 23  1  0
 22 24  2  0
 24 25  1  0
 24 26  1  0
 26 27  1  0
 26 28  2  0
 28 29  1  0
  4 30  1  0
 30 31  1  0
 30 32  2  0
 32 33  1  0
 32 34  1  0
 34 35  1  0
 34  2  2  0
 28 21  1  0
M  CHG  3   3  -1  11  -1  28   1
M  END
>  <UniqueID>  (92) 
88

>  <SMILES>  (92) 
O=C(C/N=c1\cccc[n-]1)[N-]CCCn1ccc[nH+]1

>  <Energy>  (92) 
58.91683127500743

>  <Genealogy>  (92) 
O=C(CN=c1cccc[n-]1)[N-]CCCn1ccc[nH+]1 (protonated)
O=C(C/N=c1\cccc[n-]1)[N-]CCCn1ccc[nH+]1 (cis-trans isomerization)
O=C(C/N=c1\cccc[n-]1)[N-]CCCn1ccc[nH+]1 (3D coordinates assigned)
O=C(C/N=c1\cccc[n-]1)[N-]CCCn1ccc[nH+]1 (optimized conformer: 58.91683127500743 kcal/mol)

>  <smiles>  (92) 
O=C(CN=c1cccc[nH]1)NCCCn1cccn1

>  <score_type>  (92) 
oracle

>  <origin>  (92) 
adg

>  <m_score__min__energy>  (92) 
-8.1300000000000008

>  <m_primary>  (92) 
energy

$$$$
92:0
     RDKit          3D

 48 50  0  0  1  0  0  0  0  0999 V2000
   61.4120   27.0310   51.4540 C   0  0  0  0  0  0  0  0  0  0  0  0
   61.0210   27.6580   50.2370 O   0  0  0  0  0  0  0  0  0  0  0  0
   60.4190   28.9060   50.3410 C   0  0  0  0  0  0  0  0  0  0  0  0
   61.1600   30.0530   50.0620 C   0  0  0  0  0  0  0  0  0  0  0  0
   60.5630   31.2920   50.1650 C   0  0  0  0  0  0  0  0  0  0  0  0
   61.2210   32.3730   49.9140 N   0  0  0  0  0  0  0  0  0  0  0  0
   60.4290   33.7750   49.2550 S   0  0  0  0  0  0  0  0  0  0  0  0
   59.4010   34.1870   50.3030 O   0  0  0  0  0  0  0  0  0  0  0  0
   61.3390   34.9280   49.0730 O   0  0  0  0  0  0  0  0  0  0  0  0
   59.5240   33.3700   47.8280 C   0  0  0  0  0  0  0  0  0  0  0  0
   58.2640   32.8460   47.8270 C   0  0  0  0  0  0  0  0  0  0  0  0
   57.6260   32.5560   46.6170 C   0  0  0  0  0  0  0  0  0  0  0  0
   58.2480   32.7890   45.4110 C   0  0  0  0  0  0  0  0  0  0  0  0
   57.6630   32.5200   44.1510 N   0  0  0  0  0  0  0  0  0  0  0  0
   57.0860   31.4250   43.8120 C   0  0  0  0  0  0  0  0  0  0  0  0
   57.4210   30.1590   44.4560 C   0  0  0  0  0  0  0  0  0  0  0  0
   58.7170   29.8230   44.7900 C   0  0  0  0  0  0  0  0  0  0  0  0
   58.9230   28.5930   45.3990 C   0  0  0  0  0  0  0  0  0  0  0  0
   57.9070   27.7160   45.6760 C   0  0  0  0  0  0  0  0  0  0  0  0
   56.6190   28.0510   45.3440 C   0  0  0  0  0  0  0  0  0  0  0  0
   55.5260   27.2120   45.5930 O   0  0  0  0  0  0  0  0  0  0  0  0
   56.4030   29.2680   44.7400 C   0  0  0  0  0  0  0  0  0  0  0  0
   55.0900   29.6260   44.3930 O   0  0  0  0  0  0  0  0  0  0  0  0
   59.5230   33.3180   45.4150 C   0  0  0  0  0  0  0  0  0  0  0  0
   60.1480   33.6030   46.6000 C   0  0  0  0  0  0  0  0  0  0  0  0
   59.2740   31.4270   50.5290 N   0  0  0  0  0  0  0  0  0  0  0  0
   58.5640   30.3000   50.7970 C   0  0  0  0  0  0  0  0  0  0  0  0
   57.2380   30.4840   51.1690 O   0  0  0  0  0  0  0  0  0  0  0  0
   56.9540   31.5830   52.0410 C   0  0  0  0  0  0  0  0  0  0  0  0
   59.1450   29.0950   50.6970 N   0  0  0  0  0  0  0  0  0  0  0  0
   61.0436   27.6217   52.3057 H   0  0  0  0  0  0  0  0  0  0  0  0
   60.9851   26.0182   51.4983 H   0  0  0  0  0  0  0  0  0  0  0  0
   62.5093   26.9687   51.4983 H   0  0  0  0  0  0  0  0  0  0  0  0
   62.2149   29.9705   49.7614 H   0  0  0  0  0  0  0  0  0  0  0  0
   57.7494   32.6514   48.7796 H   0  0  0  0  0  0  0  0  0  0  0  0
   56.6100   32.1346   46.6289 H   0  0  0  0  0  0  0  0  0  0  0  0
   56.3232   31.4410   43.0196 H   0  0  0  0  0  0  0  0  0  0  0  0
   59.5551   30.5042   44.5815 H   0  0  0  0  0  0  0  0  0  0  0  0
   59.9499   28.3087   45.6721 H   0  0  0  0  0  0  0  0  0  0  0  0
   58.1225   26.7521   46.1602 H   0  0  0  0  0  0  0  0  0  0  0  0
   54.7760   27.1680   44.8920 H   0  0  0  0  0  0  0  0  0  0  0  0
   54.3230   28.9650   44.5030 H   0  0  0  0  0  0  0  0  0  0  0  0
   60.0390   33.5114   44.4630 H   0  0  0  0  0  0  0  0  0  0  0  0
   61.1638   34.0247   46.5844 H   0  0  0  0  0  0  0  0  0  0  0  0
   58.8140   32.3690   50.6090 H   0  0  0  0  0  0  0  0  0  0  0  0
   57.0393   31.2528   53.0868 H   0  0  0  0  0  0  0  0  0  0  0  0
   57.6718   32.3951   51.8532 H   0  0  0  0  0  0  0  0  0  0  0  0
   55.9326   31.9457   51.8532 H   0  0  0  0  0  0  0  0  0  0  0  0
  1  2  1  0
  2  3  1  0
  3  4  2  0
  4  5  1  0
  5  6  2  0
  6  7  1  0
  7  8  2  0
  7  9  2  0
  7 10  1  0
 10 11  2  0
 11 12  1  0
 12 13  2  0
 13 14  1  0
 14 15  2  0
 15 16  1  0
 16 17  2  0
 17 18  1  0
 18 19  2  0
 19 20  1  0
 20 21  1  0
 20 22  2  0
 22 23  1  0
 13 24  1  0
 24 25  2  0
  5 26  1  0
 26 27  1  0
 27 28  1  0
 28 29  1  0
 27 30  2  0
 30  3  1  0
 25 10  1  0
 22 16  1  0
  1 31  1  0
  1 32  1  0
  1 33  1  0
  4 34  1  0
 11 35  1  0
 12 36  1  0
 15 37  1  0
 17 38  1  0
 18 39  1  0
 19 40  1  0
 21 41  1  0
 23 42  1  0
 24 43  1  0
 25 44  1  0
 26 45  1  0
 29 46  1  0
 29 47  1  0
 29 48  1  0
M  END
>  <smiles>  (93) 
COc1cc(=NS(=O)(=O)c2ccc(N=Cc3cccc(O)c3O)cc2)[nH]c(OC)n1

>  <score_type>  (93) 
oracle

>  <origin>  (93) 
adg

>  <m_score__min__energy>  (93) 
-9.4299999999999997

>  <m_primary>  (93) 
energy

$$$$
93:0
     RDKit          3D

 39 41  0  0  0  0  0  0  0  0999 V2000
   58.9330   31.9500   50.2790 O   0  0  0  0  0  0  0  0  0  0  0  0
   59.0890   31.8040   49.0380 C   0  0  0  0  0  0  0  0  0  0  0  0
   60.3180   31.0930   48.5360 C   0  0  0  0  0  0  0  0  0  0  0  0
   61.4620   32.0500   48.3170 C   0  0  0  0  0  0  0  0  0  0  0  0
   62.4350   31.7870   47.3370 C   0  0  0  0  0  0  0  0  0  0  0  0
   63.4780   32.6920   47.1180 C   0  0  0  0  0  0  0  0  0  0  0  0
   63.5650   33.8580   47.8820 C   0  0  0  0  0  0  0  0  0  0  0  0
   62.6110   34.1200   48.8690 C   0  0  0  0  0  0  0  0  0  0  0  0
   61.5650   33.2190   49.0900 C   0  0  0  0  0  0  0  0  0  0  0  0
   58.1000   32.3490   48.1510 N   0  0  0  0  0  0  0  0  0  0  0  0
   58.3800   32.9960   46.9040 C   0  0  0  0  0  0  0  0  0  0  0  0
   59.0080   34.2480   46.9280 C   0  0  0  0  0  0  0  0  0  0  0  0
   59.4000   34.8660   45.7380 C   0  0  0  0  0  0  0  0  0  0  0  0
   59.1590   34.2390   44.5150 C   0  0  0  0  0  0  0  0  0  0  0  0
   58.5050   33.0060   44.4760 C   0  0  0  0  0  0  0  0  0  0  0  0
   58.0790   32.3890   45.6590 C   0  0  0  0  0  0  0  0  0  0  0  0
   57.3810   31.1400   45.5620 N   0  0  0  0  0  0  0  0  0  0  0  0
   57.9230   29.9280   45.0210 C   0  0  0  0  0  0  0  0  0  0  0  0
   58.8760   29.9910   44.1970 O   0  0  0  0  0  0  0  0  0  0  0  0
   57.3820   28.6070   45.4430 C   0  0  0  0  0  0  0  0  0  0  0  0
   56.0200   28.2860   45.2580 C   0  0  0  0  0  0  0  0  0  0  0  0
   55.1390   29.1940   44.6830 O   0  0  0  0  0  0  0  0  0  0  0  0
   55.5450   27.0790   45.6570 N   0  0  0  0  0  0  0  0  0  0  0  0
   56.3540   26.1610   46.2390 C   0  0  0  0  0  0  0  0  0  0  0  0
   55.8870   25.0490   46.6010 O   0  0  0  0  0  0  0  0  0  0  0  0
   57.6660   26.4390   46.4340 N   0  0  0  0  0  0  0  0  0  0  0  0
   58.1980   27.6290   46.0540 C   0  0  0  0  0  0  0  0  0  0  0  0
   59.4260   27.8330   46.2450 O   0  0  0  0  0  0  0  0  0  0  0  0
   60.6210   30.3379   49.2763 H   0  0  0  0  0  0  0  0  0  0  0  0
   60.0737   30.6224   47.5722 H   0  0  0  0  0  0  0  0  0  0  0  0
   62.3755   30.8651   46.7398 H   0  0  0  0  0  0  0  0  0  0  0  0
   64.2309   32.4855   46.3431 H   0  0  0  0  0  0  0  0  0  0  0  0
   64.3847   34.5703   47.7067 H   0  0  0  0  0  0  0  0  0  0  0  0
   62.6831   35.0365   49.4730 H   0  0  0  0  0  0  0  0  0  0  0  0
   60.8197   33.4260   49.8721 H   0  0  0  0  0  0  0  0  0  0  0  0
   59.1937   34.7478   47.8902 H   0  0  0  0  0  0  0  0  0  0  0  0
   59.8983   35.8463   45.7651 H   0  0  0  0  0  0  0  0  0  0  0  0
   59.4850   34.7171   43.5795 H   0  0  0  0  0  0  0  0  0  0  0  0
   58.3229   32.5153   43.5085 H   0  0  0  0  0  0  0  0  0  0  0  0
  1  2  2  0
  2  3  1  0
  3  4  1  0
  4  5  2  0
  5  6  1  0
  6  7  2  0
  7  8  1  0
  8  9  2  0
  2 10  1  0
 10 11  1  0
 11 12  2  0
 12 13  1  0
 13 14  2  0
 14 15  1  0
 15 16  2  0
 16 17  1  0
 17 18  1  0
 18 19  2  0
 18 20  1  0
 20 21  2  0
 21 22  1  0
 21 23  1  0
 23 24  1  0
 24 25  2  0
 24 26  1  0
 26 27  1  0
 27 28  2  0
  9  4  1  0
 16 11  1  0
 27 20  1  0
  3 29  1  0
  3 30  1  0
  5 31  1  0
  6 32  1  0
  7 33  1  0
  8 34  1  0
  9 35  1  0
 12 36  1  0
 13 37  1  0
 14 38  1  0
 15 39  1  0
M  CHG  5  10  -1  17  -1  22  -1  23  -1  26  -1
M  END
>  <UniqueID>  (94) 
89

>  <SMILES>  (94) 
O=C(Cc1ccccc1)[N-]c1ccccc1[N-]C(=O)c1c([O-])[n-]c(=O)[n-]c1=O

>  <Energy>  (94) 
56.2042692177044

>  <Genealogy>  (94) 
O=C(Cc1ccccc1)[N-]c1ccccc1[N-]C(=O)c1c([O-])[n-]c(=O)[n-]c1=O (protonated)
O=C(Cc1ccccc1)[N-]c1ccccc1[N-]C(=O)c1c([O-])[n-]c(=O)[n-]c1=O (3D coordinates assigned)
O=C(Cc1ccccc1)[N-]c1ccccc1[N-]C(=O)c1c([O-])[n-]c(=O)[n-]c1=O (optimized conformer: 56.2042692177044 kcal/mol)

>  <smiles>  (94) 
O=C(Cc1ccccc1)Nc1ccccc1NC(=O)c1c(O)[nH]c(=O)[nH]c1=O

>  <score_type>  (94) 
oracle

>  <origin>  (94) 
adg

>  <m_score__min__energy>  (94) 
-18.129999999999999

>  <m_primary>  (94) 
energy

$$$$
