0:0
     RDKit          3D

 51 53  0  0  0  0  0  0  0  0999 V2000
   55.1360   26.5830   45.9720 O   0  0  0  0  0  0  0  0  0  0  0  0
   56.1710   25.9430   46.3090 C   0  0  0  0  0  0  0  0  0  0  0  0
   56.0780   24.4760   46.5830 C   0  0  0  0  0  0  0  0  0  0  0  0
   56.4250   23.7080   45.3350 C   0  0  0  0  0  0  0  0  0  0  0  0
   57.5550   22.8720   45.3080 C   0  0  0  0  0  0  0  0  0  0  0  0
   57.8420   22.1090   44.1690 C   0  0  0  0  0  0  0  0  0  0  0  0
   57.0060   22.1760   43.0460 C   0  0  0  0  0  0  0  0  0  0  0  0
   55.8780   23.0060   43.0670 C   0  0  0  0  0  0  0  0  0  0  0  0
   55.5830   23.7640   44.2090 C   0  0  0  0  0  0  0  0  0  0  0  0
   57.4540   26.5830   46.3570 N   0  0  0  0  0  0  0  0  0  0  0  0
   58.5340   26.4590   45.3710 C   0  0  2  0  0  0  0  0  0  0  0  0
   59.9300   26.6520   45.9970 C   0  0  0  0  0  0  0  0  0  0  0  0
   60.0600   28.0090   46.6420 C   0  0  0  0  0  0  0  0  0  0  0  0
   60.6350   29.0810   45.9380 C   0  0  0  0  0  0  0  0  0  0  0  0
   60.7100   30.3490   46.5230 C   0  0  0  0  0  0  0  0  0  0  0  0
   60.2100   30.5560   47.8120 C   0  0  0  0  0  0  0  0  0  0  0  0
   59.6370   29.4950   48.5170 C   0  0  0  0  0  0  0  0  0  0  0  0
   59.5590   28.2250   47.9370 C   0  0  0  0  0  0  0  0  0  0  0  0
   58.3210   27.3990   44.2100 C   0  0  0  0  0  0  0  0  0  0  0  0
   59.1970   27.5050   43.3030 O   0  0  0  0  0  0  0  0  0  0  0  0
   57.1100   28.1650   44.1250 N   0  0  0  0  0  0  0  0  0  0  0  0
   56.9500   29.2650   43.1720 C   0  0  0  0  0  0  0  0  0  0  0  0
   57.3560   30.5660   43.8110 C   0  0  0  0  0  0  0  0  0  0  0  0
   57.4680   30.6460   45.2080 C   0  0  0  0  0  0  0  0  0  0  0  0
   57.8920   31.8380   45.8100 C   0  0  0  0  0  0  0  0  0  0  0  0
   58.2210   32.9500   45.0210 C   0  0  0  0  0  0  0  0  0  0  0  0
   58.1270   32.8710   43.6290 C   0  0  0  0  0  0  0  0  0  0  0  0
   57.6980   31.6830   43.0240 C   0  0  0  0  0  0  0  0  0  0  0  0
   56.7808   24.2078   47.3856 H   0  0  0  0  0  0  0  0  0  0  0  0
   55.0529   24.2258   46.8937 H   0  0  0  0  0  0  0  0  0  0  0  0
   58.2166   22.8169   46.1851 H   0  0  0  0  0  0  0  0  0  0  0  0
   58.7264   21.4550   44.1558 H   0  0  0  0  0  0  0  0  0  0  0  0
   57.2350   21.5787   42.1511 H   0  0  0  0  0  0  0  0  0  0  0  0
   55.2222   23.0633   42.1857 H   0  0  0  0  0  0  0  0  0  0  0  0
   54.6894   24.4053   44.2248 H   0  0  0  0  0  0  0  0  0  0  0  0
   58.4990   25.4280   44.9892 H   0  0  0  0  0  0  0  0  0  0  0  0
   60.0907   25.8760   46.7599 H   0  0  0  0  0  0  0  0  0  0  0  0
   60.6819   26.5746   45.1978 H   0  0  0  0  0  0  0  0  0  0  0  0
   61.0276   28.9220   44.9228 H   0  0  0  0  0  0  0  0  0  0  0  0
   61.1628   31.1842   45.9685 H   0  0  0  0  0  0  0  0  0  0  0  0
   60.2678   31.5540   48.2709 H   0  0  0  0  0  0  0  0  0  0  0  0
   59.2458   29.6590   49.5319 H   0  0  0  0  0  0  0  0  0  0  0  0
   59.1046   27.3934   48.4955 H   0  0  0  0  0  0  0  0  0  0  0  0
   56.3340   27.9670   44.7990 H   0  0  0  0  0  0  0  0  0  0  0  0
   57.5830   29.0788   42.2918 H   0  0  0  0  0  0  0  0  0  0  0  0
   55.8948   29.3272   42.8677 H   0  0  0  0  0  0  0  0  0  0  0  0
   57.2228   29.7726   45.8302 H   0  0  0  0  0  0  0  0  0  0  0  0
   57.9671   31.9020   46.9056 H   0  0  0  0  0  0  0  0  0  0  0  0
   58.5529   33.8840   45.4978 H   0  0  0  0  0  0  0  0  0  0  0  0
   58.3897   33.7409   43.0091 H   0  0  0  0  0  0  0  0  0  0  0  0
   57.6277   31.6219   41.9279 H   0  0  0  0  0  0  0  0  0  0  0  0
  1  2  2  0
  2  3  1  0
  3  4  1  0
  4  5  2  0
  5  6  1  0
  6  7  2  0
  7  8  1  0
  8  9  2  0
  2 10  1  0
 10 11  1  0
 11 12  1  0
 12 13  1  0
 13 14  2  0
 14 15  1  0
 15 16  2  0
 16 17  1  0
 17 18  2  0
 11 19  1  0
 19 20  2  0
 19 21  1  0
 21 22  1  0
 22 23  1  0
 23 24  2  0
 24 25  1  0
 25 26  2  0
 26 27  1  0
 27 28  2  0
  9  4  1  0
 18 13  1  0
 28 23  1  0
  3 29  1  0
  3 30  1  0
  5 31  1  0
  6 32  1  0
  7 33  1  0
  8 34  1  0
  9 35  1  0
 11 36  1  6
 12 37  1  0
 12 38  1  0
 14 39  1  0
 15 40  1  0
 16 41  1  0
 17 42  1  0
 18 43  1  0
 21 44  1  0
 22 45  1  0
 22 46  1  0
 24 47  1  0
 25 48  1  0
 26 49  1  0
 27 50  1  0
 28 51  1  0
M  CHG  1  10  -1
M  END
>  <UniqueID>  (1) 
1

>  <SMILES>  (1) 
O=C(Cc1ccccc1)[N-][C@H](Cc1ccccc1)C(=O)NCc1ccccc1

>  <Energy>  (1) 
44.730736282769726

>  <Genealogy>  (1) 
O=C(Cc1ccccc1)[N-]C(Cc1ccccc1)C(=O)NCc1ccccc1 (protonated)
O=C(Cc1ccccc1)[N-][C@H](Cc1ccccc1)C(=O)NCc1ccccc1 (chirality)
O=C(Cc1ccccc1)[N-][C@H](Cc1ccccc1)C(=O)NCc1ccccc1 (3D coordinates assigned)
O=C(Cc1ccccc1)[N-][C@H](Cc1ccccc1)C(=O)NCc1ccccc1 (optimized conformer: 44.730736282769726 kcal/mol)

>  <smiles>  (1) 
O=C(Cc1ccccc1)NC(Cc1ccccc1)C(=O)NCc1ccccc1

>  <score_type>  (1) 
oracle

>  <origin>  (1) 
adg

>  <m_score__min__energy>  (1) 
-11.98

>  <m_primary>  (1) 
energy

$$$$
1:0
     RDKit          3D

 58 62  0  0  0  0  0  0  0  0999 V2000
   57.2914   35.1458   44.1516 H   0  0  0  0  0  0  0  0  0  0  0  0
   57.8010   34.5670   44.9360 C   0  0  0  0  0  0  0  0  0  0  0  0
   59.1970   34.5570   45.0010 C   0  0  0  0  0  0  0  0  0  0  0  0
   59.7857   35.1272   44.2673 H   0  0  0  0  0  0  0  0  0  0  0  0
   59.8460   33.8220   45.9990 C   0  0  0  0  0  0  0  0  0  0  0  0
   60.9450   33.8138   46.0459 H   0  0  0  0  0  0  0  0  0  0  0  0
   59.1000   33.0940   46.9420 C   0  0  0  0  0  0  0  0  0  0  0  0
   59.8060   32.2750   47.9970 C   0  0  0  0  0  0  0  0  0  0  0  0
   59.3979   32.5374   48.9842 H   0  0  0  0  0  0  0  0  0  0  0  0
   60.8814   32.4996   47.9424 H   0  0  0  0  0  0  0  0  0  0  0  0
   59.6260   30.8200   47.7740 N   0  0  0  0  0  0  0  0  0  0  0  0
   58.7430   30.6860   47.2260 H   0  0  0  0  0  0  0  0  0  0  0  0
   59.5020   30.0870   49.0650 C   0  0  0  0  0  0  0  0  0  0  0  0
   58.4730   30.2032   49.4359 H   0  0  0  0  0  0  0  0  0  0  0  0
   60.2409   30.5162   49.7576 H   0  0  0  0  0  0  0  0  0  0  0  0
   59.8110   28.5810   48.9390 C   0  0  0  0  0  0  0  0  0  0  0  0
   59.1165   28.0136   49.5759 H   0  0  0  0  0  0  0  0  0  0  0  0
   60.8481   28.4008   49.2582 H   0  0  0  0  0  0  0  0  0  0  0  0
   59.6580   28.1450   47.5500 N   0  0  0  0  0  0  0  0  0  0  0  0
   58.4510   27.4700   47.1600 C   0  0  0  0  0  0  0  0  0  0  0  0
   58.3510   26.1360   47.4180 N   0  0  0  0  0  0  0  0  0  0  0  0
   57.3330   25.3820   46.9390 C   0  0  0  0  0  0  0  0  0  0  0  0
   57.2630   24.0140   47.2240 C   0  0  0  0  0  0  0  0  0  0  0  0
   58.0223   23.5463   47.8680 H   0  0  0  0  0  0  0  0  0  0  0  0
   56.2220   23.2380   46.6870 C   0  0  0  0  0  0  0  0  0  0  0  0
   56.1220   21.7790   47.0220 C   0  0  0  0  0  0  0  0  0  0  0  0
   56.1134   21.6535   48.1148 H   0  0  0  0  0  0  0  0  0  0  0  0
   55.1936   21.3683   46.5984 H   0  0  0  0  0  0  0  0  0  0  0  0
   56.9857   21.2455   46.5984 H   0  0  0  0  0  0  0  0  0  0  0  0
   55.2420   23.8500   45.8880 C   0  0  0  0  0  0  0  0  0  0  0  0
   54.4124   23.2506   45.4850 H   0  0  0  0  0  0  0  0  0  0  0  0
   55.3150   25.2170   45.6020 C   0  0  0  0  0  0  0  0  0  0  0  0
   54.5508   25.6886   44.9667 H   0  0  0  0  0  0  0  0  0  0  0  0
   56.3610   25.9830   46.1250 C   0  0  0  0  0  0  0  0  0  0  0  0
   56.4410   27.3130   45.8680 N   0  0  0  0  0  0  0  0  0  0  0  0
   57.4330   28.0930   46.3770 C   0  0  0  0  0  0  0  0  0  0  0  0
   57.3840   29.3720   46.1150 N   0  0  0  0  0  0  0  0  0  0  0  0
   57.2470   30.0290   44.8490 C   0  0  0  0  0  0  0  0  0  0  0  0
   58.1390   31.0520   44.5030 C   0  0  0  0  0  0  0  0  0  0  0  0
   58.9128   31.3696   45.2174 H   0  0  0  0  0  0  0  0  0  0  0  0
   58.0490   31.6710   43.2520 C   0  0  0  0  0  0  0  0  0  0  0  0
   58.7352   32.4910   42.9939 H   0  0  0  0  0  0  0  0  0  0  0  0
   57.0870   31.2480   42.3290 C   0  0  0  0  0  0  0  0  0  0  0  0
   57.0010   31.8470   41.1160 F   0  0  0  0  0  0  0  0  0  0  0  0
   56.2240   30.1970   42.6520 C   0  0  0  0  0  0  0  0  0  0  0  0
   55.4751   29.8565   41.9218 H   0  0  0  0  0  0  0  0  0  0  0  0
   56.3120   29.5780   43.9030 C   0  0  0  0  0  0  0  0  0  0  0  0
   55.6474   28.7360   44.1466 H   0  0  0  0  0  0  0  0  0  0  0  0
   60.4610   28.8410   46.5320 C   0  0  0  0  0  0  0  0  0  0  0  0
   59.9091   28.8503   45.5805 H   0  0  0  0  0  0  0  0  0  0  0  0
   61.4176   28.3114   46.4120 H   0  0  0  0  0  0  0  0  0  0  0  0
   60.7470   30.2900   46.9650 C   0  0  0  0  0  0  0  0  0  0  0  0
   60.8756   30.9166   46.0701 H   0  0  0  0  0  0  0  0  0  0  0  0
   61.6633   30.3054   47.5734 H   0  0  0  0  0  0  0  0  0  0  0  0
   57.6970   33.1050   46.8650 C   0  0  0  0  0  0  0  0  0  0  0  0
   57.1038   32.5316   47.5926 H   0  0  0  0  0  0  0  0  0  0  0  0
   57.0520   33.8420   45.8670 C   0  0  0  0  0  0  0  0  0  0  0  0
   55.9533   33.8512   45.8145 H   0  0  0  0  0  0  0  0  0  0  0  0
  1  2  1  0
  2  3  2  0
  3  4  1  0
  3  5  1  0
  5  6  1  0
  5  7  2  0
  7  8  1  0
  8  9  1  0
  8 10  1  0
  8 11  1  0
 11 12  1  0
 11 13  1  0
 13 14  1  0
 13 15  1  0
 13 16  1  0
 16 17  1  0
 16 18  1  0
 16 19  1  0
 19 20  1  0
 20 21  2  0
 21 22  1  0
 22 23  2  0
 23 24  1  0
 23 25  1  0
 25 26  1  0
 26 27  1  0
 26 28  1  0
 26 29  1  0
 25 30  2  0
 30 31  1  0
 30 32  1  0
 32 33  1  0
 32 34  2  0
 34 35  1  0
 35 36  1  0
 36 37  2  0
 37 38  1  0
 38 39  2  0
 39 40  1  0
 39 41  1  0
 41 42  1  0
 41 43  2  0
 43 44  1  0
 43 45  1  0
 45 46  1  0
 45 47  2  0
 47 48  1  0
 19 49  1  0
 49 50  1  0
 49 51  1  0
 49 52  1  0
 52 53  1  0
 52 54  1  0
  7 55  1  0
 55 56  1  0
 55 57  2  0
 57 58  1  0
 57  2  1  0
 52 11  1  0
 36 20  1  0
 47 38  1  0
 34 22  1  0
M  CHG  2  11   1  35  -1
M  END
>  <UniqueID>  (2) 
2

>  <SMILES>  (2) 
Cc1ccc2[n-]/c(=N/c3ccc(F)cc3)c(N3CC[NH+](Cc4ccccc4)CC3)nc2c1

>  <Energy>  (2) 
91.55694110991244

>  <Genealogy>  (2) 
Cc1ccc2[n-]c(=Nc3ccc(F)cc3)c(N3CC[NH+](Cc4ccccc4)CC3)nc2c1 (protonated)
Cc1ccc2[n-]/c(=N/c3ccc(F)cc3)c(N3CC[NH+](Cc4ccccc4)CC3)nc2c1 (cis-trans isomerization)
Cc1ccc2[n-]/c(=N/c3ccc(F)cc3)c(N3CC[NH+](Cc4ccccc4)CC3)nc2c1 (3D coordinates assigned)
Cc1ccc2[n-]/c(=N/c3ccc(F)cc3)c(N3CC[NH+](Cc4ccccc4)CC3)nc2c1 (nonaromatic ring conformer: 91.55694110991244 kcal/mol)

>  <smiles>  (2) 
Cc1ccc2[nH]c(=Nc3ccc(F)cc3)c(N3CCN(Cc4ccccc4)CC3)nc2c1

>  <score_type>  (2) 
oracle

>  <origin>  (2) 
adg

>  <m_score__min__energy>  (2) 
-9.1500000000000004

>  <m_primary>  (2) 
energy

$$$$
2:0
     RDKit          3D

 36 37  0  0  1  0  0  0  0  0999 V2000
   57.4150   33.1800   46.3840 C   0  0  0  0  0  0  0  0  0  0  0  0
   58.3410   33.0410   45.1810 C   0  0  0  0  0  0  0  0  0  0  0  0
   58.8380   34.4540   44.9070 C   0  0  0  0  0  0  0  0  0  0  0  0
   57.5030   32.5080   44.0610 C   0  0  0  0  0  0  0  0  0  0  0  0
   56.9260   31.1840   44.4150 C   0  0  0  0  0  0  0  0  0  0  0  0
   55.8910   30.6130   44.7280 N   0  0  0  0  0  0  0  0  0  0  0  0
   55.7270   29.3680   44.9750 N   0  0  0  0  0  0  0  0  0  0  0  0
   56.7780   28.5770   44.8930 C   0  0  0  0  0  0  0  0  0  0  0  0
   56.9760   27.3610   45.0220 N   0  0  0  0  0  0  0  0  0  0  0  0
   57.0220   26.6920   46.2700 C   0  0  0  0  0  0  0  0  0  0  0  0
   55.9020   26.1760   46.6440 O   0  0  0  0  0  0  0  0  0  0  0  0
   58.2470   26.5920   47.0890 C   0  0  0  0  0  0  0  0  0  0  0  0
   58.9330   27.9020   47.2980 C   0  0  0  0  0  0  0  0  0  0  0  0
   58.5410   28.8480   48.1900 C   0  0  0  0  0  0  0  0  0  0  0  0
   59.2330   30.0610   48.2770 C   0  0  0  0  0  0  0  0  0  0  0  0
   60.3080   30.3150   47.4650 C   0  0  0  0  0  0  0  0  0  0  0  0
   60.7220   29.3640   46.5450 C   0  0  0  0  0  0  0  0  0  0  0  0
   60.0180   28.1780   46.4910 C   0  0  0  0  0  0  0  0  0  0  0  0
   60.4560   27.2620   45.5820 F   0  0  0  0  0  0  0  0  0  0  0  0
   58.1090   29.7000   44.4250 S   0  0  0  0  0  0  0  0  0  0  0  0
   58.0016   33.0919   47.3104 H   0  0  0  0  0  0  0  0  0  0  0  0
   56.9209   34.1624   46.3548 H   0  0  0  0  0  0  0  0  0  0  0  0
   56.6543   32.3860   46.3548 H   0  0  0  0  0  0  0  0  0  0  0  0
   59.1976   32.3655   45.3226 H   0  0  0  0  0  0  0  0  0  0  0  0
   59.0196   34.9703   45.8612 H   0  0  0  0  0  0  0  0  0  0  0  0
   59.7740   34.4082   44.3309 H   0  0  0  0  0  0  0  0  0  0  0  0
   58.0795   35.0042   44.3309 H   0  0  0  0  0  0  0  0  0  0  0  0
   56.6851   33.2142   43.8553 H   0  0  0  0  0  0  0  0  0  0  0  0
   58.1392   32.3882   43.1717 H   0  0  0  0  0  0  0  0  0  0  0  0
   54.7710   28.9560   45.2610 H   0  0  0  0  0  0  0  0  0  0  0  0
   57.9757   26.1804   48.0723 H   0  0  0  0  0  0  0  0  0  0  0  0
   58.9483   25.9431   46.5439 H   0  0  0  0  0  0  0  0  0  0  0  0
   57.6778   28.6603   48.8454 H   0  0  0  0  0  0  0  0  0  0  0  0
   58.9107   30.8197   49.0054 H   0  0  0  0  0  0  0  0  0  0  0  0
   60.8421   31.2734   47.5434 H   0  0  0  0  0  0  0  0  0  0  0  0
   61.5804   29.5480   45.8822 H   0  0  0  0  0  0  0  0  0  0  0  0
  1  2  1  0
  2  3  1  0
  2  4  1  0
  4  5  1  0
  5  6  2  0
  6  7  1  0
  7  8  1  0
  8  9  2  0
  9 10  1  0
 10 11  2  0
 10 12  1  0
 12 13  1  0
 13 14  2  0
 14 15  1  0
 15 16  2  0
 16 17  1  0
 17 18  2  0
 18 19  1  0
  8 20  1  0
 20  5  1  0
 18 13  1  0
  1 21  1  0
  1 22  1  0
  1 23  1  0
  2 24  1  0
  3 25  1  0
  3 26  1  0
  3 27  1  0
  4 28  1  0
  4 29  1  0
  7 30  1  0
 12 31  1  0
 12 32  1  0
 14 33  1  0
 15 34  1  0
 16 35  1  0
 17 36  1  0
M  END
>  <smiles>  (3) 
CC(C)Cc1n[nH]c(=NC(=O)Cc2ccccc2F)s1

>  <score_type>  (3) 
oracle

>  <origin>  (3) 
adg

>  <m_score__min__energy>  (3) 
-8.2699999999999996

>  <m_primary>  (3) 
energy

$$$$
3:0
     RDKit          3D

 31 31  0  0  0  0  0  0  0  0999 V2000
   55.3606   30.0371   42.7867 H   0  0  0  0  0  0  0  0  0  0  0  0
   56.0320   30.1100   43.6550 C   0  0  0  0  0  0  0  0  0  0  0  0
   55.6220   29.6690   44.8050 N   0  0  0  0  0  0  0  0  0  0  0  0
   55.8860   28.3880   45.2360 O   0  0  0  0  0  0  0  0  0  0  0  0
   57.2000   28.0070   45.6210 C   0  0  0  0  0  0  0  0  0  0  0  0
   57.1386   27.2264   46.3936 H   0  0  0  0  0  0  0  0  0  0  0  0
   57.7251   28.8900   46.0141 H   0  0  0  0  0  0  0  0  0  0  0  0
   57.9720   27.4680   44.4250 C   0  0  0  0  0  0  0  0  0  0  0  0
   58.8261   26.8717   44.7784 H   0  0  0  0  0  0  0  0  0  0  0  0
   57.3097   26.8350   43.8161 H   0  0  0  0  0  0  0  0  0  0  0  0
   58.3381   28.3078   43.8161 H   0  0  0  0  0  0  0  0  0  0  0  0
   57.3340   30.6900   43.4800 N   0  0  0  0  0  0  0  0  0  0  0  0
   57.8440   30.4540   42.6000 H   0  0  0  0  0  0  0  0  0  0  0  0
   57.9150   31.6640   44.3630 C   0  0  0  0  0  0  0  0  0  0  0  0
   57.7790   33.0270   44.0700 C   0  0  0  0  0  0  0  0  0  0  0  0
   57.2425   33.3394   43.1619 H   0  0  0  0  0  0  0  0  0  0  0  0
   58.3200   33.9930   44.9230 C   0  0  0  0  0  0  0  0  0  0  0  0
   58.2169   35.0594   44.6736 H   0  0  0  0  0  0  0  0  0  0  0  0
   58.9920   33.6160   46.0920 C   0  0  0  0  0  0  0  0  0  0  0  0
   59.5190   34.6300   46.9070 O   0  0  0  0  0  0  0  0  0  0  0  0
   59.6400   34.5750   48.3290 C   0  0  0  0  0  0  0  0  0  0  0  0
   59.3977   35.5619   48.7500 H   0  0  0  0  0  0  0  0  0  0  0  0
   58.9448   33.8139   48.7129 H   0  0  0  0  0  0  0  0  0  0  0  0
   61.0580   34.1920   48.7370 C   0  0  0  0  0  0  0  0  0  0  0  0
   61.1311   34.1723   49.8344 H   0  0  0  0  0  0  0  0  0  0  0  0
   61.2989   33.1966   48.3355 H   0  0  0  0  0  0  0  0  0  0  0  0
   61.7672   34.9308   48.3355 H   0  0  0  0  0  0  0  0  0  0  0  0
   59.1180   32.2470   46.3970 C   0  0  0  0  0  0  0  0  0  0  0  0
   59.6454   31.9359   47.3108 H   0  0  0  0  0  0  0  0  0  0  0  0
   58.5760   31.2820   45.5440 C   0  0  0  0  0  0  0  0  0  0  0  0
   58.6671   30.2157   45.7982 H   0  0  0  0  0  0  0  0  0  0  0  0
  1  2  1  0
  2  3  2  0
  3  4  1  0
  4  5  1  0
  5  6  1  0
  5  7  1  0
  5  8  1  0
  8  9  1  0
  8 10  1  0
  8 11  1  0
  2 12  1  0
 12 13  1  0
 12 14  1  0
 14 15  2  0
 15 16  1  0
 15 17  1  0
 17 18  1  0
 17 19  2  0
 19 20  1  0
 20 21  1  0
 21 22  1  0
 21 23  1  0
 21 24  1  0
 24 25  1  0
 24 26  1  0
 24 27  1  0
 19 28  1  0
 28 29  1  0
 28 30  2  0
 30 31  1  0
 30 14  1  0
M  END
>  <UniqueID>  (4) 
3

>  <SMILES>  (4) 
CCO/N=C\Nc1ccc(OCC)cc1

>  <Energy>  (4) 
26.25935313072143

>  <Genealogy>  (4) 
CCO/N=C\Nc1ccc(OCC)cc1 (cis-trans isomerization)
CCO/N=C\Nc1ccc(OCC)cc1 (3D coordinates assigned)
CCO/N=C\Nc1ccc(OCC)cc1 (optimized conformer: 26.25935313072143 kcal/mol)

>  <smiles>  (4) 
CCON=CNc1ccc(OCC)cc1

>  <score_type>  (4) 
oracle

>  <origin>  (4) 
adg

>  <m_score__min__energy>  (4) 
-5.7300000000000004

>  <m_primary>  (4) 
energy

$$$$
4:0
     RDKit          3D

 35 37  0  0  0  0  0  0  0  0999 V2000
   61.4250   29.5826   51.1635 H   0  0  0  0  0  0  0  0  0  0  0  0
   61.0150   29.2290   50.2060 C   0  0  0  0  0  0  0  0  0  0  0  0
   60.7330   30.1430   49.1860 C   0  0  0  0  0  0  0  0  0  0  0  0
   60.9117   31.2167   49.3451 H   0  0  0  0  0  0  0  0  0  0  0  0
   60.2240   29.6930   47.9640 C   0  0  0  0  0  0  0  0  0  0  0  0
   59.9878   30.4156   47.1690 H   0  0  0  0  0  0  0  0  0  0  0  0
   60.0130   28.3190   47.7480 C   0  0  0  0  0  0  0  0  0  0  0  0
   59.4410   27.8340   46.5250 N   0  0  0  0  0  0  0  0  0  0  0  0
   58.5510   28.4430   45.7960 C   0  0  0  0  0  0  0  0  0  0  0  0
   58.9300   29.6870   44.7290 S   0  0  0  0  0  0  0  0  0  0  0  0
   57.3240   29.9210   44.2730 C   0  0  0  0  0  0  0  0  0  0  0  0
   56.8410   30.9370   43.2840 C   0  0  0  0  0  0  0  0  0  0  0  0
   55.8216   31.2483   43.5557 H   0  0  0  0  0  0  0  0  0  0  0  0
   56.8491   30.4844   42.2815 H   0  0  0  0  0  0  0  0  0  0  0  0
   57.7400   32.1450   43.2750 C   0  0  0  0  0  0  0  0  0  0  0  0
   58.2360   32.5030   42.1720 O   0  0  0  0  0  0  0  0  0  0  0  0
   58.0890   32.9000   44.5110 C   0  0  0  0  0  0  0  0  0  0  0  0
   59.1230   33.8560   44.4790 C   0  0  0  0  0  0  0  0  0  0  0  0
   59.6624   34.0426   43.5387 H   0  0  0  0  0  0  0  0  0  0  0  0
   59.4710   34.5700   45.6290 C   0  0  0  0  0  0  0  0  0  0  0  0
   60.2820   35.3122   45.5899 H   0  0  0  0  0  0  0  0  0  0  0  0
   58.7910   34.3430   46.8280 C   0  0  0  0  0  0  0  0  0  0  0  0
   59.1310   35.0360   47.9420 F   0  0  0  0  0  0  0  0  0  0  0  0
   57.7620   33.4020   46.8760 C   0  0  0  0  0  0  0  0  0  0  0  0
   57.2264   33.2236   47.8201 H   0  0  0  0  0  0  0  0  0  0  0  0
   57.4090   32.6850   45.7290 C   0  0  0  0  0  0  0  0  0  0  0  0
   56.5945   31.9472   45.7761 H   0  0  0  0  0  0  0  0  0  0  0  0
   56.5350   29.0250   44.9930 C   0  0  0  0  0  0  0  0  0  0  0  0
   55.1510   28.9690   44.8750 O   0  0  0  0  0  0  0  0  0  0  0  0
   57.2160   28.2080   45.8380 N   0  0  0  0  0  0  0  0  0  0  0  0
   56.7420   27.5230   46.4650 H   0  0  0  0  0  0  0  0  0  0  0  0
   60.2650   27.4150   48.7880 C   0  0  0  0  0  0  0  0  0  0  0  0
   60.0599   26.3440   48.6436 H   0  0  0  0  0  0  0  0  0  0  0  0
   60.7760   27.8670   50.0090 C   0  0  0  0  0  0  0  0  0  0  0  0
   60.9898   27.1493   50.8147 H   0  0  0  0  0  0  0  0  0  0  0  0
  1  2  1  0
  2  3  2  0
  3  4  1  0
  3  5  1  0
  5  6  1  0
  5  7  2  0
  7  8  1  0
  8  9  2  0
  9 10  1  0
 10 11  1  0
 11 12  1  0
 12 13  1  0
 12 14  1  0
 12 15  1  0
 15 16  2  0
 15 17  1  0
 17 18  2  0
 18 19  1  0
 18 20  1  0
 20 21  1  0
 20 22  2  0
 22 23  1  0
 22 24  1  0
 24 25  1  0
 24 26  2  0
 26 27  1  0
 11 28  2  0
 28 29  1  0
 28 30  1  0
 30 31  1  0
  7 32  1  0
 32 33  1  0
 32 34  2  0
 34 35  1  0
 34  2  1  0
 30  9  1  0
 26 17  1  0
M  CHG  1  29  -1
M  END
>  <UniqueID>  (5) 
4

>  <SMILES>  (5) 
O=C(Cc1s/c(=N/c2ccccc2)[nH]c1[O-])c1ccc(F)cc1

>  <Energy>  (5) 
75.68272077351575

>  <Genealogy>  (5) 
O=C(Cc1sc(=Nc2ccccc2)[nH]c1[O-])c1ccc(F)cc1 (protonated)
O=C(Cc1s/c(=N/c2ccccc2)[nH]c1[O-])c1ccc(F)cc1 (cis-trans isomerization)
O=C(Cc1s/c(=N/c2ccccc2)[nH]c1[O-])c1ccc(F)cc1 (3D coordinates assigned)
O=C(Cc1s/c(=N/c2ccccc2)[nH]c1[O-])c1ccc(F)cc1 (optimized conformer: 75.68272077351575 kcal/mol)

>  <smiles>  (5) 
O=C(Cc1sc(=Nc2ccccc2)[nH]c1O)c1ccc(F)cc1

>  <score_type>  (5) 
oracle

>  <origin>  (5) 
adg

>  <m_score__min__energy>  (5) 
-11.050000000000001

>  <m_primary>  (5) 
energy

$$$$
5:0
     RDKit          3D

 41 43  0  0  0  0  0  0  0  0999 V2000
   56.2060   30.8370   44.5390 O   0  0  0  0  0  0  0  0  0  0  0  0
   57.4550   30.9460   44.6830 C   0  0  0  0  0  0  0  0  0  0  0  0
   58.1280   32.2300   44.2660 C   0  0  0  0  0  0  0  0  0  0  0  0
   57.5820   33.3830   45.0160 N   0  0  0  0  0  0  0  0  0  0  0  0
   58.4040   34.5910   44.8850 C   0  0  0  0  0  0  0  0  0  0  0  0
   59.8010   34.4170   45.4900 C   0  0  0  0  0  0  0  0  0  0  0  0
   59.8300   33.6500   46.7540 N   0  0  0  0  0  0  0  0  0  0  0  0
   61.0990   33.5180   47.4690 C   0  0  0  0  0  0  0  0  0  0  0  0
   62.3190   33.3350   46.7740 C   0  0  0  0  0  0  0  0  0  0  0  0
   63.5290   33.2080   47.4580 C   0  0  0  0  0  0  0  0  0  0  0  0
   63.5630   33.2570   48.8510 C   0  0  0  0  0  0  0  0  0  0  0  0
   65.1090   33.0920   49.6740 Cl  0  0  0  0  0  0  0  0  0  0  0  0
   62.3720   33.4300   49.5670 C   0  0  0  0  0  0  0  0  0  0  0  0
   62.3690   33.4900   51.3250 Cl  0  0  0  0  0  0  0  0  0  0  0  0
   61.1560   33.5570   48.8840 C   0  0  0  0  0  0  0  0  0  0  0  0
   58.6540   32.8920   47.2400 C   0  0  0  0  0  0  0  0  0  0  0  0
   57.3560   33.1050   46.4410 C   0  0  0  0  0  0  0  0  0  0  0  0
   58.2300   29.7920   45.2060 C   0  0  0  0  0  0  0  0  0  0  0  0
   59.5680   29.9700   45.6080 C   0  0  0  0  0  0  0  0  0  0  0  0
   60.3110   28.8940   46.1020 C   0  0  0  0  0  0  0  0  0  0  0  0
   59.7270   27.6300   46.2080 C   0  0  0  0  0  0  0  0  0  0  0  0
   60.4490   26.5870   46.6890 F   0  0  0  0  0  0  0  0  0  0  0  0
   58.3980   27.4400   45.8220 C   0  0  0  0  0  0  0  0  0  0  0  0
   57.6510   28.5130   45.3250 C   0  0  0  0  0  0  0  0  0  0  0  0
   59.2073   32.1510   44.4634 H   0  0  0  0  0  0  0  0  0  0  0  0
   57.9430   32.3903   43.1936 H   0  0  0  0  0  0  0  0  0  0  0  0
   58.5094   34.8322   43.8169 H   0  0  0  0  0  0  0  0  0  0  0  0
   57.8999   35.4001   45.4338 H   0  0  0  0  0  0  0  0  0  0  0  0
   60.4308   33.8933   44.7557 H   0  0  0  0  0  0  0  0  0  0  0  0
   60.1672   35.4266   45.7279 H   0  0  0  0  0  0  0  0  0  0  0  0
   62.3130   33.2921   45.6748 H   0  0  0  0  0  0  0  0  0  0  0  0
   64.4629   33.0682   46.8938 H   0  0  0  0  0  0  0  0  0  0  0  0
   60.2268   33.6897   49.4576 H   0  0  0  0  0  0  0  0  0  0  0  0
   58.9023   31.8210   47.2050 H   0  0  0  0  0  0  0  0  0  0  0  0
   58.4505   33.2653   48.2545 H   0  0  0  0  0  0  0  0  0  0  0  0
   56.7426   32.1958   46.5250 H   0  0  0  0  0  0  0  0  0  0  0  0
   56.8560   33.9875   46.8667 H   0  0  0  0  0  0  0  0  0  0  0  0
   60.0323   30.9643   45.5326 H   0  0  0  0  0  0  0  0  0  0  0  0
   61.3571   29.0431   46.4077 H   0  0  0  0  0  0  0  0  0  0  0  0
   57.9380   26.4446   45.9091 H   0  0  0  0  0  0  0  0  0  0  0  0
   56.6042   28.3573   45.0250 H   0  0  0  0  0  0  0  0  0  0  0  0
  1  2  2  0
  2  3  1  0
  3  4  1  0
  4  5  1  0
  5  6  1  0
  6  7  1  0
  7  8  1  0
  8  9  2  0
  9 10  1  0
 10 11  2  0
 11 12  1  0
 11 13  1  0
 13 14  1  0
 13 15  2  0
  7 16  1  0
 16 17  1  0
  2 18  1  0
 18 19  2  0
 19 20  1  0
 20 21  2  0
 21 22  1  0
 21 23  1  0
 23 24  2  0
 17  4  1  0
 24 18  1  0
 15  8  1  0
  3 25  1  0
  3 26  1  0
  5 27  1  0
  5 28  1  0
  6 29  1  0
  6 30  1  0
  9 31  1  0
 10 32  1  0
 15 33  1  0
 16 34  1  0
 16 35  1  0
 17 36  1  0
 17 37  1  0
 19 38  1  0
 20 39  1  0
 23 40  1  0
 24 41  1  0
M  END
>  <UniqueID>  (6) 
5

>  <SMILES>  (6) 
O=C(CN1CCN(c2ccc(Cl)c(Cl)c2)CC1)c1ccc(F)cc1

>  <Energy>  (6) 
57.3298697172816

>  <Genealogy>  (6) 
O=C(CN1CCN(c2ccc(Cl)c(Cl)c2)CC1)c1ccc(F)cc1 (3D coordinates assigned)
O=C(CN1CCN(c2ccc(Cl)c(Cl)c2)CC1)c1ccc(F)cc1 (nonaromatic ring conformer: 57.3298697172816 kcal/mol)

>  <smiles>  (6) 
O=C(CN1CCN(c2ccc(Cl)c(Cl)c2)CC1)c1ccc(F)cc1

>  <score_type>  (6) 
oracle

>  <origin>  (6) 
adg

>  <m_score__min__energy>  (6) 
-8.4800000000000004

>  <m_primary>  (6) 
energy

$$$$
6:0
     RDKit          3D

 40 42  0  0  0  0  0  0  0  0999 V2000
   55.9100   30.6250   44.4870 O   0  0  0  0  0  0  0  0  0  0  0  0
   57.1730   30.6260   44.4500 C   0  0  0  0  0  0  0  0  0  0  0  0
   57.9020   31.8750   44.0100 C   0  0  0  0  0  0  0  0  0  0  0  0
   57.3720   33.1560   44.6970 C   0  0  0  0  0  0  0  0  0  0  0  0
   58.0710   33.4970   45.9560 N   0  0  0  0  0  0  0  0  0  0  0  0
   59.0440   34.6040   45.8080 C   0  0  0  0  0  0  0  0  0  0  0  0
   59.9860   34.7100   47.0110 C   0  0  0  0  0  0  0  0  0  0  0  0
   60.6730   33.4310   47.2370 N   0  0  0  0  0  0  0  0  0  0  0  0
   61.9440   33.3910   47.9130 C   0  0  0  0  0  0  0  0  0  0  0  0
   62.1440   33.8940   49.1520 N   0  0  0  0  0  0  0  0  0  0  0  0
   63.4330   33.7450   49.5570 C   0  0  0  0  0  0  0  0  0  0  0  0
   64.2730   33.1210   48.6410 C   0  0  0  0  0  0  0  0  0  0  0  0
   63.3660   32.7460   47.2770 S   0  0  0  0  0  0  0  0  0  0  0  0
   60.0570   32.1860   46.7610 C   0  0  0  0  0  0  0  0  0  0  0  0
   58.5290   32.3280   46.7440 C   0  0  0  0  0  0  0  0  0  0  0  0
   57.9130   29.4030   44.8670 C   0  0  0  0  0  0  0  0  0  0  0  0
   57.2360   28.2460   45.3060 C   0  0  0  0  0  0  0  0  0  0  0  0
   57.9510   27.1080   45.6900 C   0  0  0  0  0  0  0  0  0  0  0  0
   59.3460   27.1050   45.6420 C   0  0  0  0  0  0  0  0  0  0  0  0
   60.0360   26.0000   46.0190 F   0  0  0  0  0  0  0  0  0  0  0  0
   60.0300   28.2410   45.2090 C   0  0  0  0  0  0  0  0  0  0  0  0
   59.3220   29.3840   44.8240 C   0  0  0  0  0  0  0  0  0  0  0  0
   58.9689   31.7624   44.2529 H   0  0  0  0  0  0  0  0  0  0  0  0
   57.7378   31.9889   42.9283 H   0  0  0  0  0  0  0  0  0  0  0  0
   57.4888   33.9971   43.9978 H   0  0  0  0  0  0  0  0  0  0  0  0
   56.3207   32.9653   44.9583 H   0  0  0  0  0  0  0  0  0  0  0  0
   59.6438   34.4299   44.9025 H   0  0  0  0  0  0  0  0  0  0  0  0
   58.4779   35.5445   45.7381 H   0  0  0  0  0  0  0  0  0  0  0  0
   60.7333   35.4939   46.8184 H   0  0  0  0  0  0  0  0  0  0  0  0
   59.3966   34.9616   47.9050 H   0  0  0  0  0  0  0  0  0  0  0  0
   63.7863   34.0930   50.5388 H   0  0  0  0  0  0  0  0  0  0  0  0
   65.3430   32.9100   48.7842 H   0  0  0  0  0  0  0  0  0  0  0  0
   60.4138   31.9692   45.7433 H   0  0  0  0  0  0  0  0  0  0  0  0
   60.3352   31.3645   47.4375 H   0  0  0  0  0  0  0  0  0  0  0  0
   58.0959   31.4168   46.3056 H   0  0  0  0  0  0  0  0  0  0  0  0
   58.1980   32.4774   47.7823 H   0  0  0  0  0  0  0  0  0  0  0  0
   56.1368   28.2393   45.3465 H   0  0  0  0  0  0  0  0  0  0  0  0
   57.4124   26.2116   46.0312 H   0  0  0  0  0  0  0  0  0  0  0  0
   61.1293   28.2378   45.1703 H   0  0  0  0  0  0  0  0  0  0  0  0
   59.8692   30.2759   44.4847 H   0  0  0  0  0  0  0  0  0  0  0  0
  1  2  2  0
  2  3  1  0
  3  4  1  0
  4  5  1  0
  5  6  1  0
  6  7  1  0
  7  8  1  0
  8  9  1  0
  9 10  2  0
 10 11  1  0
 11 12  2  0
 12 13  1  0
  8 14  1  0
 14 15  1  0
  2 16  1  0
 16 17  2  0
 17 18  1  0
 18 19  2  0
 19 20  1  0
 19 21  1  0
 21 22  2  0
 15  5  1  0
 22 16  1  0
 13  9  1  0
  3 23  1  0
  3 24  1  0
  4 25  1  0
  4 26  1  0
  6 27  1  0
  6 28  1  0
  7 29  1  0
  7 30  1  0
 11 31  1  0
 12 32  1  0
 14 33  1  0
 14 34  1  0
 15 35  1  0
 15 36  1  0
 17 37  1  0
 18 38  1  0
 21 39  1  0
 22 40  1  0
M  END
>  <UniqueID>  (7) 
6

>  <SMILES>  (7) 
O=C(CCN1CCN(c2nccs2)CC1)c1ccc(F)cc1

>  <Energy>  (7) 
82.148222284658

>  <Genealogy>  (7) 
O=C(CCN1CCN(c2nccs2)CC1)c1ccc(F)cc1 (3D coordinates assigned)
O=C(CCN1CCN(c2nccs2)CC1)c1ccc(F)cc1 (nonaromatic ring conformer: 82.148222284658 kcal/mol)

>  <smiles>  (7) 
O=C(CCN1CCN(c2nccs2)CC1)c1ccc(F)cc1

>  <score_type>  (7) 
oracle

>  <origin>  (7) 
adg

>  <m_score__min__energy>  (7) 
-7.4900000000000002

>  <m_primary>  (7) 
energy

$$$$
7:0
     RDKit          3D

 35 36  0  0  0  0  0  0  0  0999 V2000
   59.9130   30.2170   46.8140 C   0  0  0  0  0  0  0  0  0  0  0  0
   59.1010   28.9660   47.1190 C   0  0  0  0  0  0  0  0  0  0  0  0
   57.7630   29.1140   46.6510 O   0  0  0  0  0  0  0  0  0  0  0  0
   57.2720   28.4870   45.5000 C   0  0  0  0  0  0  0  0  0  0  0  0
   56.2830   27.7070   45.5610 O   0  0  0  0  0  0  0  0  0  0  0  0
   57.9010   28.7910   44.1780 C   0  0  0  0  0  0  0  0  0  0  0  0
   56.8470   29.9010   43.1790 S   0  0  0  0  0  0  0  0  0  0  0  0
   57.3960   31.4040   43.9870 C   0  0  0  0  0  0  0  0  0  0  0  0
   57.3890   31.5830   45.3260 N   0  0  0  0  0  0  0  0  0  0  0  0
   57.9340   32.7320   45.7150 N   0  0  0  0  0  0  0  0  0  0  0  0
   58.3720   33.4790   44.6790 C   0  0  0  0  0  0  0  0  0  0  0  0
   59.2690   35.0130   44.8740 S   0  0  0  0  0  0  0  0  0  0  0  0
   60.0550   34.4350   46.3790 C   0  0  0  0  0  0  0  0  0  0  0  0
   59.4260   34.6280   47.6140 C   0  0  0  0  0  0  0  0  0  0  0  0
   60.0150   34.1440   48.7850 C   0  0  0  0  0  0  0  0  0  0  0  0
   61.2300   33.4450   48.7280 C   0  0  0  0  0  0  0  0  0  0  0  0
   61.8680   32.9360   49.9870 C   0  0  0  0  0  0  0  0  0  0  0  0
   61.8710   33.2760   47.4900 C   0  0  0  0  0  0  0  0  0  0  0  0
   61.2840   33.7690   46.3200 C   0  0  0  0  0  0  0  0  0  0  0  0
   58.0950   32.7180   43.2000 S   0  0  0  0  0  0  0  0  0  0  0  0
   60.2217   30.6926   47.7566 H   0  0  0  0  0  0  0  0  0  0  0  0
   60.8054   29.9422   46.2325 H   0  0  0  0  0  0  0  0  0  0  0  0
   59.2987   30.9202   46.2325 H   0  0  0  0  0  0  0  0  0  0  0  0
   59.5655   28.1023   46.6207 H   0  0  0  0  0  0  0  0  0  0  0  0
   59.0823   28.8102   48.2078 H   0  0  0  0  0  0  0  0  0  0  0  0
   58.8733   29.2769   44.3473 H   0  0  0  0  0  0  0  0  0  0  0  0
   58.0277   27.8463   43.6289 H   0  0  0  0  0  0  0  0  0  0  0  0
   57.0200   30.8810   46.0030 H   0  0  0  0  0  0  0  0  0  0  0  0
   58.4656   35.1620   47.6631 H   0  0  0  0  0  0  0  0  0  0  0  0
   59.5242   34.3117   49.7551 H   0  0  0  0  0  0  0  0  0  0  0  0
   61.3436   33.3543   50.8588 H   0  0  0  0  0  0  0  0  0  0  0  0
   61.8039   31.8382   50.0126 H   0  0  0  0  0  0  0  0  0  0  0  0
   62.9242   33.2423   50.0126 H   0  0  0  0  0  0  0  0  0  0  0  0
   62.8380   32.7541   47.4402 H   0  0  0  0  0  0  0  0  0  0  0  0
   61.7892   33.6329   45.3524 H   0  0  0  0  0  0  0  0  0  0  0  0
  1  2  1  0
  2  3  1  0
  3  4  1  0
  4  5  2  0
  4  6  1  0
  6  7  1  0
  7  8  1  0
  8  9  2  0
  9 10  1  0
 10 11  2  0
 11 12  1  0
 12 13  1  0
 13 14  2  0
 14 15  1  0
 15 16  2  0
 16 17  1  0
 16 18  1  0
 18 19  2  0
 11 20  1  0
 20  8  1  0
 19 13  1  0
  1 21  1  0
  1 22  1  0
  1 23  1  0
  2 24  1  0
  2 25  1  0
  6 26  1  0
  6 27  1  0
  9 28  1  0
 14 29  1  0
 15 30  1  0
 17 31  1  0
 17 32  1  0
 17 33  1  0
 18 34  1  0
 19 35  1  0
M  CHG  1   9   1
M  END
>  <UniqueID>  (8) 
7

>  <SMILES>  (8) 
CCOC(=O)CSc1[nH+]nc(Sc2ccc(C)cc2)s1

>  <Energy>  (8) 
51.63769327447307

>  <Genealogy>  (8) 
CCOC(=O)CSc1[nH+]nc(Sc2ccc(C)cc2)s1 (protonated)
CCOC(=O)CSc1[nH+]nc(Sc2ccc(C)cc2)s1 (3D coordinates assigned)
CCOC(=O)CSc1[nH+]nc(Sc2ccc(C)cc2)s1 (optimized conformer: 51.63769327447307 kcal/mol)

>  <smiles>  (8) 
CCOC(=O)CSc1nnc(Sc2ccc(C)cc2)s1

>  <score_type>  (8) 
oracle

>  <origin>  (8) 
adg

>  <m_score__min__energy>  (8) 
-6.3399999999999999

>  <m_primary>  (8) 
energy

$$$$
8:0
     RDKit          3D

 28 29  0  0  0  0  0  0  0  0999 V2000
   56.9850   30.4400   43.9040 C   0  0  0  0  0  0  0  0  0  0  0  0
   57.0330   31.1070   45.1590 O   0  0  0  0  0  0  0  0  0  0  0  0
   57.7450   32.2960   45.3620 C   0  0  0  0  0  0  0  0  0  0  0  0
   57.3870   33.4270   44.6980 N   0  0  0  0  0  0  0  0  0  0  0  0
   58.0620   34.5890   44.8690 C   0  0  0  0  0  0  0  0  0  0  0  0
   59.1300   34.6410   45.7030 N   0  0  0  0  0  0  0  0  0  0  0  0
   59.5500   33.5370   46.3860 C   0  0  0  0  0  0  0  0  0  0  0  0
   60.7470   33.6500   47.2500 C   0  0  0  0  0  0  0  0  0  0  0  0
   60.6140   34.0880   48.5780 C   0  0  0  0  0  0  0  0  0  0  0  0
   61.7420   34.2150   49.3940 C   0  0  0  0  0  0  0  0  0  0  0  0
   63.0100   33.9160   48.8890 C   0  0  0  0  0  0  0  0  0  0  0  0
   63.1530   33.4950   47.5640 C   0  0  0  0  0  0  0  0  0  0  0  0
   62.0270   33.3660   46.7440 C   0  0  0  0  0  0  0  0  0  0  0  0
   58.8320   32.3240   46.2540 C   0  0  0  0  0  0  0  0  0  0  0  0
   59.2120   31.0790   47.0180 C   0  0  0  0  0  0  0  0  0  0  0  0
   56.9069   29.3551   44.0681 H   0  0  0  0  0  0  0  0  0  0  0  0
   56.1096   30.7889   43.3366 H   0  0  0  0  0  0  0  0  0  0  0  0
   57.9013   30.6600   43.3366 H   0  0  0  0  0  0  0  0  0  0  0  0
   57.7428   35.4931   44.3297 H   0  0  0  0  0  0  0  0  0  0  0  0
   59.6450   35.5450   45.8000 H   0  0  0  0  0  0  0  0  0  0  0  0
   59.6185   34.3320   48.9774 H   0  0  0  0  0  0  0  0  0  0  0  0
   61.6311   34.5509   50.4356 H   0  0  0  0  0  0  0  0  0  0  0  0
   63.8957   34.0120   49.5343 H   0  0  0  0  0  0  0  0  0  0  0  0
   64.1521   33.2648   47.1655 H   0  0  0  0  0  0  0  0  0  0  0  0
   62.1439   33.0412   45.6996 H   0  0  0  0  0  0  0  0  0  0  0  0
   59.1511   31.2786   48.0980 H   0  0  0  0  0  0  0  0  0  0  0  0
   58.5219   30.2633   46.7564 H   0  0  0  0  0  0  0  0  0  0  0  0
   60.2400   30.7877   46.7564 H   0  0  0  0  0  0  0  0  0  0  0  0
  1  2  1  0
  2  3  1  0
  3  4  2  0
  4  5  1  0
  5  6  2  0
  6  7  1  0
  7  8  1  0
  8  9  2  0
  9 10  1  0
 10 11  2  0
 11 12  1  0
 12 13  2  0
  7 14  2  0
 14 15  1  0
 14  3  1  0
 13  8  1  0
  1 16  1  0
  1 17  1  0
  1 18  1  0
  5 19  1  0
  6 20  1  0
  9 21  1  0
 10 22  1  0
 11 23  1  0
 12 24  1  0
 13 25  1  0
 15 26  1  0
 15 27  1  0
 15 28  1  0
M  CHG  1   6   1
M  END
>  <UniqueID>  (9) 
8

>  <SMILES>  (9) 
COc1nc[nH+]c(-c2ccccc2)c1C

>  <Energy>  (9) 
34.51837403004951

>  <Genealogy>  (9) 
COc1nc[nH+]c(-c2ccccc2)c1C (protonated)
COc1nc[nH+]c(-c2ccccc2)c1C (3D coordinates assigned)
COc1nc[nH+]c(-c2ccccc2)c1C (optimized conformer: 34.51837403004951 kcal/mol)

>  <smiles>  (9) 
COc1ncnc(-c2ccccc2)c1C

>  <score_type>  (9) 
oracle

>  <origin>  (9) 
adg

>  <m_score__min__energy>  (9) 
-4.3700000000000001

>  <m_primary>  (9) 
energy

$$$$
9:0
     RDKit          3D

 39 41  0  0  0  0  0  0  0  0999 V2000
   59.2100   34.9700   45.1910 C   0  0  0  0  0  0  0  0  0  0  0  0
   59.0520   34.5350   46.6460 C   0  0  0  0  0  0  0  0  0  0  0  0
   60.0870   33.4840   47.1210 C   0  0  0  0  0  0  0  0  0  0  0  0
   59.8020   32.0570   46.7980 N   0  0  1  0  0  0  0  0  0  0  0  0
   60.1400   31.1190   47.8900 C   0  0  0  0  0  0  0  0  0  0  0  0
   60.1400   29.6730   47.3790 C   0  0  0  0  0  0  0  0  0  0  0  0
   58.9150   29.3680   46.5650 C   0  0  0  0  0  0  0  0  0  0  0  0
   58.6080   28.0700   46.3030 N   0  0  0  0  0  0  0  0  0  0  0  0
   57.5400   27.7300   45.5340 C   0  0  0  0  0  0  0  0  0  0  0  0
   57.2280   26.3030   45.2720 C   0  0  0  0  0  0  0  0  0  0  0  0
   57.6900   25.6690   44.1020 C   0  0  0  0  0  0  0  0  0  0  0  0
   57.3950   24.3250   43.8590 C   0  0  0  0  0  0  0  0  0  0  0  0
   56.6350   23.5950   44.7780 C   0  0  0  0  0  0  0  0  0  0  0  0
   56.2680   21.9080   44.4690 Cl  0  0  0  0  0  0  0  0  0  0  0  0
   56.1720   24.2120   45.9420 C   0  0  0  0  0  0  0  0  0  0  0  0
   56.4630   25.5560   46.1910 C   0  0  0  0  0  0  0  0  0  0  0  0
   56.7580   28.7120   45.0090 N   0  0  0  0  0  0  0  0  0  0  0  0
   57.0240   30.0250   45.2270 C   0  0  0  0  0  0  0  0  0  0  0  0
   56.2660   30.8990   44.7300 O   0  0  0  0  0  0  0  0  0  0  0  0
   58.1350   30.3950   46.0030 C   0  0  0  0  0  0  0  0  0  0  0  0
   58.4150   31.8500   46.3210 C   0  0  0  0  0  0  0  0  0  0  0  0
   59.5853   36.0034   45.1559 H   0  0  0  0  0  0  0  0  0  0  0  0
   59.9234   34.3034   44.6844 H   0  0  0  0  0  0  0  0  0  0  0  0
   58.2351   34.9166   44.6844 H   0  0  0  0  0  0  0  0  0  0  0  0
   59.1508   35.4262   47.2832 H   0  0  0  0  0  0  0  0  0  0  0  0
   58.0643   34.0569   46.7230 H   0  0  0  0  0  0  0  0  0  0  0  0
   61.0539   33.7407   46.6636 H   0  0  0  0  0  0  0  0  0  0  0  0
   60.0637   33.5375   48.2194 H   0  0  0  0  0  0  0  0  0  0  0  0
   60.4260   31.8260   45.9860 H   0  0  0  0  0  0  0  0  0  0  0  0
   61.1385   31.3642   48.2811 H   0  0  0  0  0  0  0  0  0  0  0  0
   59.3859   31.2141   48.6852 H   0  0  0  0  0  0  0  0  0  0  0  0
   61.0311   29.5167   46.7533 H   0  0  0  0  0  0  0  0  0  0  0  0
   60.1461   29.0026   48.2511 H   0  0  0  0  0  0  0  0  0  0  0  0
   58.2879   26.2366   43.3737 H   0  0  0  0  0  0  0  0  0  0  0  0
   57.7616   23.8400   42.9423 H   0  0  0  0  0  0  0  0  0  0  0  0
   55.5756   23.6376   46.6661 H   0  0  0  0  0  0  0  0  0  0  0  0
   56.0928   26.0341   47.1099 H   0  0  0  0  0  0  0  0  0  0  0  0
   58.2593   32.4486   45.4114 H   0  0  0  0  0  0  0  0  0  0  0  0
   57.7299   32.1602   47.1237 H   0  0  0  0  0  0  0  0  0  0  0  0
  1  2  1  0
  2  3  1  0
  3  4  1  0
  4  5  1  0
  5  6  1  0
  6  7  1  0
  7  8  1  0
  8  9  1  0
  9 10  1  0
 10 11  2  0
 11 12  1  0
 12 13  2  0
 13 14  1  0
 13 15  1  0
 15 16  2  0
  9 17  2  0
 17 18  1  0
 18 19  2  0
 18 20  1  0
 20 21  1  0
 21  4  1  0
 20  7  2  0
 16 10  1  0
  1 22  1  0
  1 23  1  0
  1 24  1  0
  2 25  1  0
  2 26  1  0
  3 27  1  0
  3 28  1  0
  4 29  1  6
  5 30  1  0
  5 31  1  0
  6 32  1  0
  6 33  1  0
 11 34  1  0
 12 35  1  0
 15 36  1  0
 16 37  1  0
 21 38  1  0
 21 39  1  0
M  CHG  2   4   1   8  -1
M  END
>  <UniqueID>  (10) 
9

>  <SMILES>  (10) 
CCC[N@H+]1CCc2[n-]c(-c3ccc(Cl)cc3)nc(=O)c2C1

>  <Energy>  (10) 
50.89833278080303

>  <Genealogy>  (10) 
CCC[NH+]1CCc2[n-]c(-c3ccc(Cl)cc3)nc(=O)c2C1 (protonated)
CCC[N@H+]1CCc2[n-]c(-c3ccc(Cl)cc3)nc(=O)c2C1 (chirality)
CCC[N@H+]1CCc2[n-]c(-c3ccc(Cl)cc3)nc(=O)c2C1 (3D coordinates assigned)
CCC[N@H+]1CCc2[n-]c(-c3ccc(Cl)cc3)nc(=O)c2C1 (nonaromatic ring conformer: 50.89833278080303 kcal/mol)

>  <smiles>  (10) 
CCCN1CCc2[nH]c(-c3ccc(Cl)cc3)nc(=O)c2C1

>  <score_type>  (10) 
oracle

>  <origin>  (10) 
adg

>  <m_score__min__energy>  (10) 
-6.5899999999999999

>  <m_primary>  (10) 
energy

$$$$
10:0
     RDKit          3D

 43 45  0  0  0  0  0  0  0  0999 V2000
   61.1214   27.7514   49.7647 H   0  0  0  0  0  0  0  0  0  0  0  0
   60.3820   28.1860   49.0760 C   0  0  0  0  0  0  0  0  0  0  0  0
   59.6190   27.3500   48.2580 C   0  0  0  0  0  0  0  0  0  0  0  0
   59.7558   26.2598   48.3111 H   0  0  0  0  0  0  0  0  0  0  0  0
   58.6780   27.8930   47.3680 C   0  0  0  0  0  0  0  0  0  0  0  0
   57.8500   27.0000   46.5200 C   0  0  0  0  0  0  0  0  0  0  0  0
   57.8990   25.7540   46.6980 O   0  0  0  0  0  0  0  0  0  0  0  0
   56.9340   27.5180   45.5440 N   0  0  0  0  0  0  0  0  0  0  0  0
   57.0040   28.6950   44.9970 C   0  0  0  0  0  0  0  0  0  0  0  0
   56.1740   29.7000   45.3450 N   0  0  0  0  0  0  0  0  0  0  0  0
   56.3870   30.8170   44.6510 N   0  0  0  0  0  0  0  0  0  0  0  0
   57.3780   30.7030   43.7390 C   0  0  0  0  0  0  0  0  0  0  0  0
   57.8080   31.8170   42.8390 C   0  0  0  0  0  0  0  0  0  0  0  0
   58.8872   31.7279   42.6455 H   0  0  0  0  0  0  0  0  0  0  0  0
   57.5847   32.7745   43.3323 H   0  0  0  0  0  0  0  0  0  0  0  0
   57.0570   31.7640   41.5140 C   0  0  0  0  0  0  0  0  0  0  0  0
   55.9768   31.6878   41.7076 H   0  0  0  0  0  0  0  0  0  0  0  0
   57.2628   32.6789   40.9390 H   0  0  0  0  0  0  0  0  0  0  0  0
   57.3893   30.8871   40.9390 H   0  0  0  0  0  0  0  0  0  0  0  0
   58.0570   29.1590   43.7580 S   0  0  0  0  0  0  0  0  0  0  0  0
   58.5040   29.2890   47.3260 C   0  0  0  0  0  0  0  0  0  0  0  0
   57.7589   29.7244   46.6439 H   0  0  0  0  0  0  0  0  0  0  0  0
   59.2710   30.1310   48.1450 C   0  0  0  0  0  0  0  0  0  0  0  0
   59.0500   31.8810   48.0770 S   0  0  0  0  0  0  0  0  0  0  0  0
   60.3980   32.5390   48.2000 O   0  0  0  0  0  0  0  0  0  0  0  0
   58.1890   32.3350   49.2230 O   0  0  0  0  0  0  0  0  0  0  0  0
   58.3050   32.3480   46.5650 N   0  0  0  0  0  0  0  0  0  0  0  0
   57.7920   31.5080   46.2080 H   0  0  0  0  0  0  0  0  0  0  0  0
   57.3180   33.4250   46.7970 C   0  0  0  0  0  0  0  0  0  0  0  0
   56.3706   32.9811   47.1366 H   0  0  0  0  0  0  0  0  0  0  0  0
   57.7112   34.1097   47.5629 H   0  0  0  0  0  0  0  0  0  0  0  0
   57.0710   34.2160   45.5010 C   0  0  0  0  0  0  0  0  0  0  0  0
   56.6975   33.5197   44.7357 H   0  0  0  0  0  0  0  0  0  0  0  0
   56.3449   35.0064   45.7418 H   0  0  0  0  0  0  0  0  0  0  0  0
   58.2310   34.8610   44.9920 O   0  0  0  0  0  0  0  0  0  0  0  0
   59.4490   34.2440   45.3880 C   0  0  0  0  0  0  0  0  0  0  0  0
   60.2105   34.4519   44.6219 H   0  0  0  0  0  0  0  0  0  0  0  0
   59.7213   34.6618   46.3685 H   0  0  0  0  0  0  0  0  0  0  0  0
   59.3330   32.7170   45.5600 C   0  0  0  0  0  0  0  0  0  0  0  0
   59.0605   32.2702   44.5925 H   0  0  0  0  0  0  0  0  0  0  0  0
   60.3042   32.3397   45.9126 H   0  0  0  0  0  0  0  0  0  0  0  0
   60.2110   29.5710   49.0240 C   0  0  0  0  0  0  0  0  0  0  0  0
   60.9550   30.3630   49.8360 F   0  0  0  0  0  0  0  0  0  0  0  0
  1  2  1  0
  2  3  2  0
  3  4  1  0
  3  5  1  0
  5  6  1  0
  6  7  2  0
  6  8  1  0
  8  9  2  0
  9 10  1  0
 10 11  1  0
 11 12  2  0
 12 13  1  0
 13 14  1  0
 13 15  1  0
 13 16  1  0
 16 17  1  0
 16 18  1  0
 16 19  1  0
 12 20  1  0
  5 21  2  0
 21 22  1  0
 21 23  1  0
 23 24  1  0
 24 25  2  0
 24 26  2  0
 24 27  1  0
 27 28  1  0
 27 29  1  0
 29 30  1  0
 29 31  1  0
 29 32  1  0
 32 33  1  0
 32 34  1  0
 32 35  1  0
 35 36  1  0
 36 37  1  0
 36 38  1  0
 36 39  1  0
 39 40  1  0
 39 41  1  0
 23 42  2  0
 42 43  1  0
 42  2  1  0
 20  9  1  0
 39 27  1  0
M  CHG  2  10  -1  27   1
M  END
>  <UniqueID>  (11) 
10

>  <SMILES>  (11) 
CCc1n[n-]/c(=N/C(=O)c2ccc(F)c(S(=O)(=O)[NH+]3CCOCC3)c2)s1

>  <Energy>  (11) 
93.27506753047331

>  <Genealogy>  (11) 
CCc1n[n-]c(=NC(=O)c2ccc(F)c(S(=O)(=O)[NH+]3CCOCC3)c2)s1 (protonated)
CCc1n[n-]/c(=N/C(=O)c2ccc(F)c(S(=O)(=O)[NH+]3CCOCC3)c2)s1 (cis-trans isomerization)
CCc1n[n-]/c(=N/C(=O)c2ccc(F)c(S(=O)(=O)[NH+]3CCOCC3)c2)s1 (3D coordinates assigned)
CCc1n[n-]/c(=N/C(=O)c2ccc(F)c(S(=O)(=O)[NH+]3CCOCC3)c2)s1 (nonaromatic ring conformer: 93.27506753047331 kcal/mol)

>  <smiles>  (11) 
CCc1n[nH]c(=NC(=O)c2ccc(F)c(S(=O)(=O)N3CCOCC3)c2)s1

>  <score_type>  (11) 
oracle

>  <origin>  (11) 
adg

>  <m_score__min__energy>  (11) 
-9.7899999999999991

>  <m_primary>  (11) 
energy

$$$$
11:0
     RDKit          3D

 33 35  0  0  0  0  0  0  0  0999 V2000
   61.5360   26.0718   49.5163 H   0  0  0  0  0  0  0  0  0  0  0  0
   60.8370   26.8030   49.0840 C   0  0  0  0  0  0  0  0  0  0  0  0
   59.8690   26.5180   48.2460 O   0  0  0  0  0  0  0  0  0  0  0  0
   59.2390   27.6270   47.9300 C   0  0  0  0  0  0  0  0  0  0  0  0
   58.0670   27.6530   47.0270 C   0  0  0  0  0  0  0  0  0  0  0  0
   57.8190   28.8120   46.3620 N   0  0  0  0  0  0  0  0  0  0  0  0
   56.7750   28.9420   45.5010 C   0  0  0  0  0  0  0  0  0  0  0  0
   56.5670   30.0620   44.8740 N   0  0  0  0  0  0  0  0  0  0  0  0
   57.6180   30.8580   44.2480 C   0  0  0  0  0  0  0  0  0  0  0  0
   58.4774   30.2124   44.0142 H   0  0  0  0  0  0  0  0  0  0  0  0
   57.2353   31.3075   43.3199 H   0  0  0  0  0  0  0  0  0  0  0  0
   58.0490   31.9440   45.1910 C   0  0  0  0  0  0  0  0  0  0  0  0
   57.3650   33.1700   45.2160 C   0  0  0  0  0  0  0  0  0  0  0  0
   56.4935   33.3254   44.5631 H   0  0  0  0  0  0  0  0  0  0  0  0
   57.7890   34.1940   46.0690 C   0  0  0  0  0  0  0  0  0  0  0  0
   57.2447   35.1496   46.0928 H   0  0  0  0  0  0  0  0  0  0  0  0
   58.9030   34.0050   46.8910 C   0  0  0  0  0  0  0  0  0  0  0  0
   59.2321   34.8104   47.5640 H   0  0  0  0  0  0  0  0  0  0  0  0
   59.6000   32.7930   46.8590 C   0  0  0  0  0  0  0  0  0  0  0  0
   61.1300   32.5410   47.9740 Br  0  0  0  0  0  0  0  0  0  0  0  0
   59.1770   31.7670   46.0070 C   0  0  0  0  0  0  0  0  0  0  0  0
   59.7311   30.8172   45.9766 H   0  0  0  0  0  0  0  0  0  0  0  0
   55.9410   27.8880   45.2910 N   0  0  0  0  0  0  0  0  0  0  0  0
   55.1390   27.9870   44.6260 H   0  0  0  0  0  0  0  0  0  0  0  0
   56.1240   26.7090   45.9440 C   0  0  0  0  0  0  0  0  0  0  0  0
   55.3210   25.7570   45.7430 O   0  0  0  0  0  0  0  0  0  0  0  0
   57.1950   26.5590   46.8400 C   0  0  0  0  0  0  0  0  0  0  0  0
   57.3250   25.3300   47.5930 C   0  0  0  0  0  0  0  0  0  0  0  0
   57.4270   24.3500   48.2000 N   0  0  0  0  0  0  0  0  0  0  0  0
   59.8130   28.6930   48.6020 C   0  0  0  0  0  0  0  0  0  0  0  0
   59.5079   29.7488   48.5558 H   0  0  0  0  0  0  0  0  0  0  0  0
   60.8460   28.1570   49.3410 C   0  0  0  0  0  0  0  0  0  0  0  0
   61.5375   28.7001   50.0020 H   0  0  0  0  0  0  0  0  0  0  0  0
  1  2  1  0
  2  3  1  0
  3  4  1  0
  4  5  1  0
  5  6  1  0
  6  7  1  0
  7  8  2  0
  8  9  1  0
  9 10  1  0
  9 11  1  0
  9 12  1  0
 12 13  2  0
 13 14  1  0
 13 15  1  0
 15 16  1  0
 15 17  2  0
 17 18  1  0
 17 19  1  0
 19 20  1  0
 19 21  2  0
 21 22  1  0
  7 23  1  0
 23 24  1  0
 23 25  1  0
 25 26  2  0
 25 27  1  0
 27 28  1  0
 28 29  3  0
  4 30  2  0
 30 31  1  0
 30 32  1  0
 32 33  1  0
 32  2  2  0
 27  5  2  0
 21 12  1  0
M  CHG  1   6  -1
M  END
>  <UniqueID>  (12) 
11

>  <SMILES>  (12) 
N#Cc1c(-c2ccco2)[n-]/c(=N\Cc2cccc(Br)c2)[nH]c1=O

>  <Energy>  (12) 
66.04837660416497

>  <Genealogy>  (12) 
N#Cc1c(-c2ccco2)[n-]c(=NCc2cccc(Br)c2)[nH]c1=O (protonated)
N#Cc1c(-c2ccco2)[n-]/c(=N\Cc2cccc(Br)c2)[nH]c1=O (cis-trans isomerization)
N#Cc1c(-c2ccco2)[n-]/c(=N\Cc2cccc(Br)c2)[nH]c1=O (3D coordinates assigned)
N#Cc1c(-c2ccco2)[n-]/c(=N\Cc2cccc(Br)c2)[nH]c1=O (optimized conformer: 66.04837660416497 kcal/mol)

>  <smiles>  (12) 
N#Cc1c(-c2ccco2)[nH]c(=NCc2cccc(Br)c2)[nH]c1=O

>  <score_type>  (12) 
oracle

>  <origin>  (12) 
adg

>  <m_score__min__energy>  (12) 
-9.3100000000000005

>  <m_primary>  (12) 
energy

$$$$
12:0
     RDKit          3D

 33 35  0  0  0  0  0  0  0  0999 V2000
   56.7663   35.2089   45.6477 H   0  0  0  0  0  0  0  0  0  0  0  0
   57.2700   34.2310   45.6380 C   0  0  0  0  0  0  0  0  0  0  0  0
   56.6580   33.1600   45.0720 N   0  0  0  0  0  0  0  0  0  0  0  0
   57.2570   31.9410   45.0550 C   0  0  0  0  0  0  0  0  0  0  0  0
   56.6450   30.9380   44.4970 N   0  0  0  0  0  0  0  0  0  0  0  0
   56.6800   29.5810   44.9610 C   0  0  0  0  0  0  0  0  0  0  0  0
   55.5920   28.9890   45.1900 O   0  0  0  0  0  0  0  0  0  0  0  0
   57.9510   28.8820   45.2320 C   0  0  0  0  0  0  0  0  0  0  0  0
   58.2230   27.7580   46.4630 S   0  0  0  0  0  0  0  0  0  0  0  0
   59.8190   27.4910   46.0080 C   0  0  0  0  0  0  0  0  0  0  0  0
   60.7820   26.6290   46.7530 C   0  0  0  0  0  0  0  0  0  0  0  0
   60.6328   26.7626   47.8346 H   0  0  0  0  0  0  0  0  0  0  0  0
   60.6126   25.5752   46.4869 H   0  0  0  0  0  0  0  0  0  0  0  0
   61.8107   26.9136   46.4869 H   0  0  0  0  0  0  0  0  0  0  0  0
   60.1550   28.2470   44.9390 N   0  0  0  0  0  0  0  0  0  0  0  0
   61.1040   28.2530   44.5050 H   0  0  0  0  0  0  0  0  0  0  0  0
   59.1220   29.0080   44.4920 C   0  0  0  0  0  0  0  0  0  0  0  0
   59.2049   29.6693   43.6169 H   0  0  0  0  0  0  0  0  0  0  0  0
   58.5000   31.7960   45.5920 N   0  0  0  0  0  0  0  0  0  0  0  0
   59.1610   32.8380   46.1680 C   0  0  0  0  0  0  0  0  0  0  0  0
   60.5080   32.6080   46.7550 C   0  0  0  0  0  0  0  0  0  0  0  0
   61.4780   33.6270   46.7010 C   0  0  0  0  0  0  0  0  0  0  0  0
   61.2333   34.5869   46.2228 H   0  0  0  0  0  0  0  0  0  0  0  0
   62.7490   33.4310   47.2490 C   0  0  0  0  0  0  0  0  0  0  0  0
   63.5011   34.2318   47.1928 H   0  0  0  0  0  0  0  0  0  0  0  0
   63.0650   32.2190   47.8680 C   0  0  0  0  0  0  0  0  0  0  0  0
   64.2970   32.0310   48.4020 F   0  0  0  0  0  0  0  0  0  0  0  0
   62.1090   31.2050   47.9430 C   0  0  0  0  0  0  0  0  0  0  0  0
   62.3572   30.2530   48.4350 H   0  0  0  0  0  0  0  0  0  0  0  0
   60.8370   31.3950   47.3950 C   0  0  0  0  0  0  0  0  0  0  0  0
   60.0875   30.5928   47.4634 H   0  0  0  0  0  0  0  0  0  0  0  0
   58.5350   34.0950   46.2070 C   0  0  0  0  0  0  0  0  0  0  0  0
   59.0336   34.9553   46.6775 H   0  0  0  0  0  0  0  0  0  0  0  0
  1  2  1  0
  2  3  1  0
  3  4  1  0
  4  5  2  0
  5  6  1  0
  6  7  2  0
  6  8  1  0
  8  9  1  0
  9 10  1  0
 10 11  1  0
 11 12  1  0
 11 13  1  0
 11 14  1  0
 10 15  2  0
 15 16  1  0
 15 17  1  0
 17 18  1  0
  4 19  1  0
 19 20  2  0
 20 21  1  0
 21 22  2  0
 22 23  1  0
 22 24  1  0
 24 25  1  0
 24 26  2  0
 26 27  1  0
 26 28  1  0
 28 29  1  0
 28 30  2  0
 30 31  1  0
 20 32  1  0
 32 33  1  0
 32  2  2  0
 17  8  2  0
 30 21  1  0
M  CHG  2   3  -1  15   1
M  END
>  <UniqueID>  (13) 
12

>  <SMILES>  (13) 
Cc1[nH+]cc(C(=O)/N=c2\nc(-c3ccc(F)cc3)cc[n-]2)s1

>  <Energy>  (13) 
73.29070538417618

>  <Genealogy>  (13) 
Cc1[nH+]cc(C(=O)N=c2nc(-c3ccc(F)cc3)cc[n-]2)s1 (protonated)
Cc1[nH+]cc(C(=O)/N=c2\nc(-c3ccc(F)cc3)cc[n-]2)s1 (cis-trans isomerization)
Cc1[nH+]cc(C(=O)/N=c2\nc(-c3ccc(F)cc3)cc[n-]2)s1 (3D coordinates assigned)
Cc1[nH+]cc(C(=O)/N=c2\nc(-c3ccc(F)cc3)cc[n-]2)s1 (optimized conformer: 73.29070538417618 kcal/mol)

>  <smiles>  (13) 
Cc1ncc(C(=O)N=c2nc(-c3ccc(F)cc3)cc[nH]2)s1

>  <score_type>  (13) 
oracle

>  <origin>  (13) 
adg

>  <m_score__min__energy>  (13) 
-8.1099999999999994

>  <m_primary>  (13) 
energy

$$$$
13:0
     RDKit          3D

 39 42  0  0  0  0  0  0  0  0999 V2000
   55.4390   30.4630   45.2140 H   0  0  0  0  0  0  0  0  0  0  0  0
   55.2800   29.5020   44.9360 O   0  0  0  0  0  0  0  0  0  0  0  0
   56.2040   28.5120   45.2490 C   0  0  0  0  0  0  0  0  0  0  0  0
   55.8540   27.2820   45.6990 N   0  0  0  0  0  0  0  0  0  0  0  0
   57.0310   26.6390   45.8520 C   0  0  0  0  0  0  0  0  0  0  0  0
   57.2140   25.3420   46.3290 C   0  0  0  0  0  0  0  0  0  0  0  0
   56.3546   24.7139   46.6065 H   0  0  0  0  0  0  0  0  0  0  0  0
   58.5320   24.8600   46.4450 C   0  0  0  0  0  0  0  0  0  0  0  0
   58.7098   23.8410   46.8193 H   0  0  0  0  0  0  0  0  0  0  0  0
   59.6280   25.6760   46.0840 C   0  0  0  0  0  0  0  0  0  0  0  0
   60.6527   25.2867   46.1758 H   0  0  0  0  0  0  0  0  0  0  0  0
   59.4170   26.9830   45.6080 C   0  0  0  0  0  0  0  0  0  0  0  0
   60.2611   27.6307   45.3286 H   0  0  0  0  0  0  0  0  0  0  0  0
   58.1000   27.4280   45.5030 C   0  0  0  0  0  0  0  0  0  0  0  0
   57.5820   28.6430   45.1350 C   0  0  0  0  0  0  0  0  0  0  0  0
   58.3330   29.7960   44.7300 N   0  0  0  0  0  0  0  0  0  0  0  0
   57.8430   30.8620   44.2210 N   0  0  0  0  0  0  0  0  0  0  0  0
   57.4850   32.0560   44.9390 C   0  0  0  0  0  0  0  0  0  0  0  0
   56.2650   32.2830   45.1590 O   0  0  0  0  0  0  0  0  0  0  0  0
   58.4980   33.0550   45.3470 C   0  0  0  0  0  0  0  0  0  0  0  0
   59.5980   32.6570   46.0400 N   0  0  0  0  0  0  0  0  0  0  0  0
   60.5340   33.5310   46.5060 C   0  0  0  0  0  0  0  0  0  0  0  0
   61.6630   33.0140   47.3160 C   0  0  0  0  0  0  0  0  0  0  0  0
   62.9480   33.5810   47.2190 C   0  0  0  0  0  0  0  0  0  0  0  0
   63.1335   34.3966   46.5046 H   0  0  0  0  0  0  0  0  0  0  0  0
   63.9900   33.1130   48.0260 C   0  0  0  0  0  0  0  0  0  0  0  0
   64.9920   33.5589   47.9420 H   0  0  0  0  0  0  0  0  0  0  0  0
   63.7610   32.0810   48.9380 C   0  0  0  0  0  0  0  0  0  0  0  0
   64.5828   31.7133   49.5701 H   0  0  0  0  0  0  0  0  0  0  0  0
   62.4880   31.5150   49.0480 C   0  0  0  0  0  0  0  0  0  0  0  0
   62.2660   30.5190   49.9410 F   0  0  0  0  0  0  0  0  0  0  0  0
   61.4440   31.9810   48.2450 C   0  0  0  0  0  0  0  0  0  0  0  0
   60.4424   31.5363   48.3401 H   0  0  0  0  0  0  0  0  0  0  0  0
   60.3840   34.9000   46.2300 C   0  0  0  0  0  0  0  0  0  0  0  0
   61.1318   35.6228   46.5881 H   0  0  0  0  0  0  0  0  0  0  0  0
   59.2790   35.3360   45.4980 C   0  0  0  0  0  0  0  0  0  0  0  0
   59.1579   36.4052   45.2699 H   0  0  0  0  0  0  0  0  0  0  0  0
   58.3270   34.4160   45.0550 C   0  0  0  0  0  0  0  0  0  0  0  0
   57.4512   34.7553   44.4824 H   0  0  0  0  0  0  0  0  0  0  0  0
  1  2  1  0
  2  3  1  0
  3  4  1  0
  4  5  1  0
  5  6  2  0
  6  7  1  0
  6  8  1  0
  8  9  1  0
  8 10  2  0
 10 11  1  0
 10 12  1  0
 12 13  1  0
 12 14  2  0
 14 15  1  0
 15 16  1  0
 16 17  2  0
 17 18  1  0
 18 19  2  0
 18 20  1  0
 20 21  2  0
 21 22  1  0
 22 23  1  0
 23 24  2  0
 24 25  1  0
 24 26  1  0
 26 27  1  0
 26 28  2  0
 28 29  1  0
 28 30  1  0
 30 31  1  0
 30 32  2  0
 32 33  1  0
 22 34  2  0
 34 35  1  0
 34 36  1  0
 36 37  1  0
 36 38  2  0
 38 39  1  0
 15  3  2  0
 38 20  1  0
 14  5  1  0
 32 23  1  0
M  CHG  1   4  -1
M  END
>  <UniqueID>  (14) 
13

>  <SMILES>  (14) 
O=C(/N=N\c1c(O)[n-]c2ccccc12)c1cccc(-c2cccc(F)c2)n1

>  <Energy>  (14) 
90.25573995458669

>  <Genealogy>  (14) 
O=C(N=Nc1c(O)[n-]c2ccccc12)c1cccc(-c2cccc(F)c2)n1 (protonated)
O=C(/N=N\c1c(O)[n-]c2ccccc12)c1cccc(-c2cccc(F)c2)n1 (cis-trans isomerization)
O=C(/N=N\c1c(O)[n-]c2ccccc12)c1cccc(-c2cccc(F)c2)n1 (3D coordinates assigned)
O=C(/N=N\c1c(O)[n-]c2ccccc12)c1cccc(-c2cccc(F)c2)n1 (optimized conformer: 90.25573995458669 kcal/mol)

>  <smiles>  (14) 
O=C(N=Nc1c(O)[nH]c2ccccc12)c1cccc(-c2cccc(F)c2)n1

>  <score_type>  (14) 
oracle

>  <origin>  (14) 
adg

>  <m_score__min__energy>  (14) 
-11.59

>  <m_primary>  (14) 
energy

$$$$
14:0
     RDKit          3D

 33 35  0  0  0  0  0  0  0  0999 V2000
   60.5560   34.1910   48.9010 C   0  0  0  0  0  0  0  0  0  0  0  0
   59.2640   34.2480   48.3050 O   0  0  0  0  0  0  0  0  0  0  0  0
   58.9890   33.9290   46.9660 C   0  0  0  0  0  0  0  0  0  0  0  0
   58.4080   32.6990   46.5980 C   0  0  0  0  0  0  0  0  0  0  0  0
   58.1180   32.4150   45.2520 C   0  0  0  0  0  0  0  0  0  0  0  0
   57.5040   31.1240   44.8620 C   0  0  0  0  0  0  0  0  0  0  0  0
   56.3680   31.1230   44.3160 O   0  0  0  0  0  0  0  0  0  0  0  0
   58.1910   29.8330   45.0630 C   0  0  0  0  0  0  0  0  0  0  0  0
   59.5610   29.6150   44.9460 C   0  0  0  0  0  0  0  0  0  0  0  0
   59.8580   28.3190   45.1850 N   0  0  0  0  0  0  0  0  0  0  0  0
   58.6870   27.7080   45.4360 C   0  0  0  0  0  0  0  0  0  0  0  0
   58.4870   26.3560   45.7100 C   0  0  0  0  0  0  0  0  0  0  0  0
   57.1670   25.9130   45.9030 C   0  0  0  0  0  0  0  0  0  0  0  0
   56.0860   26.8160   45.8050 C   0  0  0  0  0  0  0  0  0  0  0  0
   54.7840   26.3620   45.9830 O   0  0  0  0  0  0  0  0  0  0  0  0
   56.3180   28.1760   45.5230 C   0  0  0  0  0  0  0  0  0  0  0  0
   57.6420   28.5950   45.3630 C   0  0  0  0  0  0  0  0  0  0  0  0
   58.4530   33.3590   44.2670 C   0  0  0  0  0  0  0  0  0  0  0  0
   59.0370   34.5750   44.6250 C   0  0  0  0  0  0  0  0  0  0  0  0
   59.3030   34.8660   45.9660 C   0  0  0  0  0  0  0  0  0  0  0  0
   59.8810   36.0940   46.2850 O   0  0  0  0  0  0  0  0  0  0  0  0
   60.4550   34.1955   49.9963 H   0  0  0  0  0  0  0  0  0  0  0  0
   61.0659   33.2695   48.5835 H   0  0  0  0  0  0  0  0  0  0  0  0
   61.1451   35.0640   48.5835 H   0  0  0  0  0  0  0  0  0  0  0  0
   58.1788   31.9526   47.3728 H   0  0  0  0  0  0  0  0  0  0  0  0
   60.2993   30.3905   44.6939 H   0  0  0  0  0  0  0  0  0  0  0  0
   60.8060   27.8810   45.1650 H   0  0  0  0  0  0  0  0  0  0  0  0
   59.3349   25.6581   45.7732 H   0  0  0  0  0  0  0  0  0  0  0  0
   56.9747   24.8545   46.1322 H   0  0  0  0  0  0  0  0  0  0  0  0
   55.4833   28.8866   45.4315 H   0  0  0  0  0  0  0  0  0  0  0  0
   58.2539   33.1386   43.2079 H   0  0  0  0  0  0  0  0  0  0  0  0
   59.2897   35.3096   43.8463 H   0  0  0  0  0  0  0  0  0  0  0  0
   59.6310   36.6080   47.1220 H   0  0  0  0  0  0  0  0  0  0  0  0
  1  2  1  0
  2  3  1  0
  3  4  2  0
  4  5  1  0
  5  6  1  0
  6  7  2  0
  6  8  1  0
  8  9  2  0
  9 10  1  0
 10 11  1  0
 11 12  2  0
 12 13  1  0
 13 14  2  0
 14 15  1  0
 14 16  1  0
 16 17  2  0
  5 18  2  0
 18 19  1  0
 19 20  2  0
 20 21  1  0
 20  3  1  0
 17  8  1  0
 17 11  1  0
  1 22  1  0
  1 23  1  0
  1 24  1  0
  4 25  1  0
  9 26  1  0
 10 27  1  0
 12 28  1  0
 13 29  1  0
 16 30  1  0
 18 31  1  0
 19 32  1  0
 21 33  1  0
M  CHG  1  15  -1
M  END
>  <UniqueID>  (15) 
14

>  <SMILES>  (15) 
COc1cc(C(=O)c2c[nH]c3ccc([O-])cc23)ccc1O

>  <Energy>  (15) 
73.50384218961133

>  <Genealogy>  (15) 
COc1cc(C(=O)c2c[nH]c3ccc([O-])cc23)ccc1O (protonated)
COc1cc(C(=O)c2c[nH]c3ccc([O-])cc23)ccc1O (3D coordinates assigned)
COc1cc(C(=O)c2c[nH]c3ccc([O-])cc23)ccc1O (optimized conformer: 73.50384218961133 kcal/mol)

>  <smiles>  (15) 
COc1cc(C(=O)c2c[nH]c3ccc(O)cc23)ccc1O

>  <score_type>  (15) 
oracle

>  <origin>  (15) 
adg

>  <m_score__min__energy>  (15) 
-10.289999999999999

>  <m_primary>  (15) 
energy

$$$$
15:0
     RDKit          3D

 52 55  0  0  0  0  0  0  0  0999 V2000
   60.2660   29.6650   45.2360 O   0  0  0  0  0  0  0  0  0  0  0  0
   59.8330   28.9680   46.1930 C   0  0  0  0  0  0  0  0  0  0  0  0
   59.8320   29.4980   47.5270 N   0  0  0  0  0  0  0  0  0  0  0  0
   59.9240   30.9370   47.7890 C   0  0  0  0  0  0  0  0  0  0  0  0
   61.3820   31.3510   47.9870 C   0  0  0  0  0  0  0  0  0  0  0  0
   61.4840   32.8800   48.0950 C   0  0  0  0  0  0  0  0  0  0  0  0
   60.3960   33.4920   48.8940 N   0  0  0  0  0  0  0  0  0  0  0  0
   59.6490   34.5910   48.2440 C   0  0  0  0  0  0  0  0  0  0  0  0
   58.9960   34.1900   46.9420 C   0  0  0  0  0  0  0  0  0  0  0  0
   57.7770   33.4890   46.9360 C   0  0  0  0  0  0  0  0  0  0  0  0
   57.1660   33.1460   45.7260 C   0  0  0  0  0  0  0  0  0  0  0  0
   57.7740   33.4810   44.5140 C   0  0  0  0  0  0  0  0  0  0  0  0
   59.0020   34.1460   44.5090 C   0  0  0  0  0  0  0  0  0  0  0  0
   59.6140   34.4950   45.7160 C   0  0  0  0  0  0  0  0  0  0  0  0
   59.6070   32.5850   49.7530 C   0  0  0  0  0  0  0  0  0  0  0  0
   59.0820   31.3300   49.0190 C   0  0  0  0  0  0  0  0  0  0  0  0
   59.3510   27.5940   45.9330 C   0  0  0  0  0  0  0  0  0  0  0  0
   60.0900   26.5100   46.4360 C   0  0  0  0  0  0  0  0  0  0  0  0
   59.6260   25.2030   46.2830 C   0  0  0  0  0  0  0  0  0  0  0  0
   58.4220   24.9610   45.6220 C   0  0  0  0  0  0  0  0  0  0  0  0
   57.6860   26.0250   45.0970 C   0  0  0  0  0  0  0  0  0  0  0  0
   58.1460   27.3450   45.2260 C   0  0  0  0  0  0  0  0  0  0  0  0
   57.4100   28.4060   44.5900 N   0  0  0  0  0  0  0  0  0  0  0  0
   57.3840   28.6720   43.2690 C   0  0  0  0  0  0  0  0  0  0  0  0
   56.6070   29.7880   43.0340 C   0  0  0  0  0  0  0  0  0  0  0  0
   56.1560   30.2220   44.2660 C   0  0  0  0  0  0  0  0  0  0  0  0
   56.6730   29.3540   45.2050 C   0  0  0  0  0  0  0  0  0  0  0  0
   59.7070   28.8320   48.3230 H   0  0  0  0  0  0  0  0  0  0  0  0
   59.5213   31.4696   46.9148 H   0  0  0  0  0  0  0  0  0  0  0  0
   61.7683   30.8940   48.9100 H   0  0  0  0  0  0  0  0  0  0  0  0
   61.9745   31.0096   47.1254 H   0  0  0  0  0  0  0  0  0  0  0  0
   62.4455   33.1320   48.5661 H   0  0  0  0  0  0  0  0  0  0  0  0
   61.4002   33.2819   47.0745 H   0  0  0  0  0  0  0  0  0  0  0  0
   58.8652   34.9351   48.9348 H   0  0  0  0  0  0  0  0  0  0  0  0
   60.3767   35.3820   48.0101 H   0  0  0  0  0  0  0  0  0  0  0  0
   57.3018   33.2091   47.8878 H   0  0  0  0  0  0  0  0  0  0  0  0
   56.2047   32.6113   45.7286 H   0  0  0  0  0  0  0  0  0  0  0  0
   57.2855   33.2210   43.5633 H   0  0  0  0  0  0  0  0  0  0  0  0
   59.4880   34.3953   43.5542 H   0  0  0  0  0  0  0  0  0  0  0  0
   60.5852   35.0115   45.7071 H   0  0  0  0  0  0  0  0  0  0  0  0
   60.2435   32.2574   50.5882 H   0  0  0  0  0  0  0  0  0  0  0  0
   58.7260   33.1501   50.0914 H   0  0  0  0  0  0  0  0  0  0  0  0
   59.0846   30.4872   49.7259 H   0  0  0  0  0  0  0  0  0  0  0  0
   58.0715   31.5681   48.6554 H   0  0  0  0  0  0  0  0  0  0  0  0
   61.0425   26.6933   46.9548 H   0  0  0  0  0  0  0  0  0  0  0  0
   60.2107   24.3622   46.6844 H   0  0  0  0  0  0  0  0  0  0  0  0
   58.0518   23.9308   45.5142 H   0  0  0  0  0  0  0  0  0  0  0  0
   56.7368   25.8271   44.5775 H   0  0  0  0  0  0  0  0  0  0  0  0
   57.9036   28.0879   42.4952 H   0  0  0  0  0  0  0  0  0  0  0  0
   56.3891   30.2433   42.0566 H   0  0  0  0  0  0  0  0  0  0  0  0
   55.5101   31.0910   44.4601 H   0  0  0  0  0  0  0  0  0  0  0  0
   56.5093   29.4241   46.2905 H   0  0  0  0  0  0  0  0  0  0  0  0
  1  2  2  0
  2  3  1  0
  3  4  1  0
  4  5  1  0
  5  6  1  0
  6  7  1  0
  7  8  1  0
  8  9  1  0
  9 10  2  0
 10 11  1  0
 11 12  2  0
 12 13  1  0
 13 14  2  0
  7 15  1  0
 15 16  1  0
  2 17  1  0
 17 18  2  0
 18 19  1  0
 19 20  2  0
 20 21  1  0
 21 22  2  0
 22 23  1  0
 23 24  1  0
 24 25  2  0
 25 26  1  0
 26 27  2  0
 16  4  1  0
 22 17  1  0
 27 23  1  0
 14  9  1  0
  3 28  1  0
  4 29  1  0
  5 30  1  0
  5 31  1  0
  6 32  1  0
  6 33  1  0
  8 34  1  0
  8 35  1  0
 10 36  1  0
 11 37  1  0
 12 38  1  0
 13 39  1  0
 14 40  1  0
 15 41  1  0
 15 42  1  0
 16 43  1  0
 16 44  1  0
 18 45  1  0
 19 46  1  0
 20 47  1  0
 21 48  1  0
 24 49  1  0
 25 50  1  0
 26 51  1  0
 27 52  1  0
M  END
>  <UniqueID>  (16) 
15

>  <SMILES>  (16) 
O=C(NC1CCN(Cc2ccccc2)CC1)c1ccccc1-n1cccc1

>  <Energy>  (16) 
99.21077169658706

>  <Genealogy>  (16) 
O=C(NC1CCN(Cc2ccccc2)CC1)c1ccccc1-n1cccc1 (3D coordinates assigned)
O=C(NC1CCN(Cc2ccccc2)CC1)c1ccccc1-n1cccc1 (nonaromatic ring conformer: 99.21077169658706 kcal/mol)

>  <smiles>  (16) 
O=C(NC1CCN(Cc2ccccc2)CC1)c1ccccc1-n1cccc1

>  <score_type>  (16) 
oracle

>  <origin>  (16) 
adg

>  <m_score__min__energy>  (16) 
-8.0600000000000005

>  <m_primary>  (16) 
energy

$$$$
16:0
     RDKit          3D

 43 47  0  0  0  0  0  0  0  0999 V2000
   64.1280   32.4010   48.6490 O   0  0  0  0  0  0  0  0  0  0  0  0
   63.1490   32.9080   48.0380 C   0  0  0  0  0  0  0  0  0  0  0  0
   63.4120   33.8460   46.8980 C   0  0  0  0  0  0  0  0  0  0  0  0
   62.3090   33.8820   45.9950 O   0  0  0  0  0  0  0  0  0  0  0  0
   60.9870   33.7730   46.4300 C   0  0  0  0  0  0  0  0  0  0  0  0
   59.9520   34.2290   45.6070 C   0  0  0  0  0  0  0  0  0  0  0  0
   58.6270   34.1510   46.0390 C   0  0  0  0  0  0  0  0  0  0  0  0
   58.3330   33.6110   47.2920 C   0  0  0  0  0  0  0  0  0  0  0  0
   59.3600   33.1320   48.1120 C   0  0  0  0  0  0  0  0  0  0  0  0
   60.7030   33.1950   47.6840 C   0  0  0  0  0  0  0  0  0  0  0  0
   61.7940   32.6550   48.4710 N   0  0  0  0  0  0  0  0  0  0  0  0
   61.5540   31.8830   49.7030 C   0  0  0  0  0  0  0  0  0  0  0  0
   61.0690   30.5060   49.3740 C   0  0  0  0  0  0  0  0  0  0  0  0
   61.1160   29.8830   48.1470 C   0  0  0  0  0  0  0  0  0  0  0  0
   60.5230   28.6910   48.3160 N   0  0  0  0  0  0  0  0  0  0  0  0
   60.2630   27.6930   47.2840 C   0  0  0  0  0  0  0  0  0  0  0  0
   58.9620   27.9990   46.5970 C   0  0  0  0  0  0  0  0  0  0  0  0
   58.0190   26.9650   46.3650 C   0  0  0  0  0  0  0  0  0  0  0  0
   56.8180   27.2350   45.6830 C   0  0  0  0  0  0  0  0  0  0  0  0
   56.6000   28.5370   45.2420 C   0  0  0  0  0  0  0  0  0  0  0  0
   57.5040   29.5270   45.4500 C   0  0  0  0  0  0  0  0  0  0  0  0
   58.7040   29.3030   46.1200 C   0  0  0  0  0  0  0  0  0  0  0  0
   57.0310   30.7040   44.9030 O   0  0  0  0  0  0  0  0  0  0  0  0
   55.7490   30.4360   44.3160 C   0  0  0  0  0  0  0  0  0  0  0  0
   55.5130   29.0420   44.5560 O   0  0  0  0  0  0  0  0  0  0  0  0
   60.1090   28.5970   49.5690 N   0  0  0  0  0  0  0  0  0  0  0  0
   60.4310   29.6930   50.2410 N   0  0  0  0  0  0  0  0  0  0  0  0
   63.5822   34.8569   47.2970 H   0  0  0  0  0  0  0  0  0  0  0  0
   64.2980   33.4905   46.3516 H   0  0  0  0  0  0  0  0  0  0  0  0
   60.1827   34.6500   44.6173 H   0  0  0  0  0  0  0  0  0  0  0  0
   57.8150   34.5149   45.3923 H   0  0  0  0  0  0  0  0  0  0  0  0
   57.2894   33.5619   47.6361 H   0  0  0  0  0  0  0  0  0  0  0  0
   59.1192   32.7037   49.0962 H   0  0  0  0  0  0  0  0  0  0  0  0
   62.4922   31.8096   50.2725 H   0  0  0  0  0  0  0  0  0  0  0  0
   60.7863   32.3968   50.3003 H   0  0  0  0  0  0  0  0  0  0  0  0
   61.5507   30.2809   47.2182 H   0  0  0  0  0  0  0  0  0  0  0  0
   61.0785   27.7097   46.5460 H   0  0  0  0  0  0  0  0  0  0  0  0
   60.2036   26.6974   47.7480 H   0  0  0  0  0  0  0  0  0  0  0  0
   58.2279   25.9452   46.7206 H   0  0  0  0  0  0  0  0  0  0  0  0
   56.0758   26.4430   45.5043 H   0  0  0  0  0  0  0  0  0  0  0  0
   59.4285   30.1165   46.2730 H   0  0  0  0  0  0  0  0  0  0  0  0
   54.9697   31.0476   44.7942 H   0  0  0  0  0  0  0  0  0  0  0  0
   55.7275   30.6793   43.2434 H   0  0  0  0  0  0  0  0  0  0  0  0
  1  2  2  0
  2  3  1  0
  3  4  1  0
  4  5  1  0
  5  6  2  0
  6  7  1  0
  7  8  2  0
  8  9  1  0
  9 10  2  0
 10 11  1  0
 11 12  1  0
 12 13  1  0
 13 14  2  0
 14 15  1  0
 15 16  1  0
 16 17  1  0
 17 18  2  0
 18 19  1  0
 19 20  2  0
 20 21  1  0
 21 22  2  0
 21 23  1  0
 23 24  1  0
 24 25  1  0
 15 26  1  0
 26 27  2  0
 11  2  1  0
 27 13  1  0
 10  5  1  0
 22 17  1  0
 25 20  1  0
  3 28  1  0
  3 29  1  0
  6 30  1  0
  7 31  1  0
  8 32  1  0
  9 33  1  0
 12 34  1  0
 12 35  1  0
 14 36  1  0
 16 37  1  0
 16 38  1  0
 18 39  1  0
 19 40  1  0
 22 41  1  0
 24 42  1  0
 24 43  1  0
M  END
>  <UniqueID>  (17) 
16

>  <SMILES>  (17) 
O=C1COc2ccccc2N1Cc1cn(Cc2ccc3c(c2)OCO3)nn1

>  <Energy>  (17) 
113.1892992429839

>  <Genealogy>  (17) 
O=C1COc2ccccc2N1Cc1cn(Cc2ccc3c(c2)OCO3)nn1 (3D coordinates assigned)
O=C1COc2ccccc2N1Cc1cn(Cc2ccc3c(c2)OCO3)nn1 (nonaromatic ring conformer: 113.1892992429839 kcal/mol)

>  <smiles>  (17) 
O=C1COc2ccccc2N1Cc1cn(Cc2ccc3c(c2)OCO3)nn1

>  <score_type>  (17) 
oracle

>  <origin>  (17) 
adg

>  <m_score__min__energy>  (17) 
-8.3200000000000003

>  <m_primary>  (17) 
energy

$$$$
17:0
     RDKit          3D

 30 31  0  0  0  0  0  0  0  0999 V2000
   59.0650   34.5940   45.5920 C   0  0  0  0  0  0  0  0  0  0  0  0
   57.8060   33.7390   45.4920 C   0  0  0  0  0  0  0  0  0  0  0  0
   58.0240   32.5530   44.5250 C   0  0  0  0  0  0  0  0  0  0  0  0
   57.3160   31.3030   44.9020 N   0  0  1  0  0  0  0  0  0  0  0  0
   56.4930   30.7480   43.7910 C   0  0  0  0  0  0  0  0  0  0  0  0
   55.5420   29.6370   44.2950 C   0  0  0  0  0  0  0  0  0  0  0  0
   56.2870   28.7100   45.2000 C   0  0  0  0  0  0  0  0  0  0  0  0
   55.8780   27.4990   45.6220 N   0  0  0  0  0  0  0  0  0  0  0  0
   56.8050   27.0230   46.4470 N   0  0  0  0  0  0  0  0  0  0  0  0
   57.7970   27.9360   46.5560 C   0  0  0  0  0  0  0  0  0  0  0  0
   59.0240   27.7590   47.3930 C   0  0  0  0  0  0  0  0  0  0  0  0
   59.0290   26.4950   47.9530 F   0  0  0  0  0  0  0  0  0  0  0  0
   59.0490   28.7010   48.4070 F   0  0  0  0  0  0  0  0  0  0  0  0
   60.1480   27.9150   46.6040 F   0  0  0  0  0  0  0  0  0  0  0  0
   57.4750   29.0340   45.7890 C   0  0  0  0  0  0  0  0  0  0  0  0
   58.2370   30.2850   45.4740 C   0  0  0  0  0  0  0  0  0  0  0  0
   59.3114   34.7614   46.6509 H   0  0  0  0  0  0  0  0  0  0  0  0
   59.9004   34.0757   45.0986 H   0  0  0  0  0  0  0  0  0  0  0  0
   58.8912   35.5617   45.0986 H   0  0  0  0  0  0  0  0  0  0  0  0
   57.5542   33.3496   46.4895 H   0  0  0  0  0  0  0  0  0  0  0  0
   56.9858   34.3624   45.1064 H   0  0  0  0  0  0  0  0  0  0  0  0
   57.6744   32.8565   43.5272 H   0  0  0  0  0  0  0  0  0  0  0  0
   59.0989   32.3214   44.5568 H   0  0  0  0  0  0  0  0  0  0  0  0
   56.6540   31.5780   45.6680 H   0  0  0  0  0  0  0  0  0  0  0  0
   55.8946   31.5584   43.3493 H   0  0  0  0  0  0  0  0  0  0  0  0
   57.1705   30.3112   43.0425 H   0  0  0  0  0  0  0  0  0  0  0  0
   54.7062   30.0930   44.8460 H   0  0  0  0  0  0  0  0  0  0  0  0
   55.1525   29.0724   43.4350 H   0  0  0  0  0  0  0  0  0  0  0  0
   58.6902   30.6789   46.3957 H   0  0  0  0  0  0  0  0  0  0  0  0
   59.0261   30.0562   44.7426 H   0  0  0  0  0  0  0  0  0  0  0  0
  1  2  1  0
  2  3  1  0
  3  4  1  0
  4  5  1  0
  5  6  1  0
  6  7  1  0
  7  8  1  0
  8  9  1  0
  9 10  2  0
 10 11  1  0
 11 12  1  0
 11 13  1  0
 11 14  1  0
 10 15  1  0
 15 16  1  0
 16  4  1  0
 15  7  2  0
  1 17  1  0
  1 18  1  0
  1 19  1  0
  2 20  1  0
  2 21  1  0
  3 22  1  0
  3 23  1  0
  4 24  1  1
  5 25  1  0
  5 26  1  0
  6 27  1  0
  6 28  1  0
 16 29  1  0
 16 30  1  0
M  CHG  2   4   1   8  -1
M  END
>  <UniqueID>  (18) 
17

>  <SMILES>  (18) 
CCC[N@H+]1CCc2[n-]nc(C(F)(F)F)c2C1

>  <Energy>  (18) 
62.879222731073504

>  <Genealogy>  (18) 
CCC[NH+]1CCc2[n-]nc(C(F)(F)F)c2C1 (protonated)
CCC[N@H+]1CCc2[n-]nc(C(F)(F)F)c2C1 (chirality)
CCC[N@H+]1CCc2[n-]nc(C(F)(F)F)c2C1 (3D coordinates assigned)
CCC[N@H+]1CCc2[n-]nc(C(F)(F)F)c2C1 (nonaromatic ring conformer: 62.879222731073504 kcal/mol)

>  <smiles>  (18) 
CCCN1CCc2[nH]nc(C(F)(F)F)c2C1

>  <score_type>  (18) 
oracle

>  <origin>  (18) 
adg

>  <m_score__min__energy>  (18) 
-5.2699999999999996

>  <m_primary>  (18) 
energy

$$$$
18:0
     RDKit          3D

 24 25  0  0  0  0  0  0  0  0999 V2000
   61.5670   33.8350   47.8200 C   0  0  0  0  0  0  0  0  0  0  0  0
   60.3060   34.3630   48.5000 C   0  0  0  0  0  0  0  0  0  0  0  0
   59.3010   34.9440   47.4980 C   0  0  0  0  0  0  0  0  0  0  0  0
   58.9240   33.9560   46.4890 N   0  0  0  0  0  0  0  0  0  0  0  0
   59.0260   34.0970   45.0670 C   0  0  0  0  0  0  0  0  0  0  0  0
   59.6210   35.0430   44.4870 O   0  0  0  0  0  0  0  0  0  0  0  0
   58.3280   32.9970   44.4080 C   0  0  0  0  0  0  0  0  0  0  0  0
   58.1380   32.6890   43.0650 C   0  0  0  0  0  0  0  0  0  0  0  0
   57.3880   31.5400   42.7620 C   0  0  0  0  0  0  0  0  0  0  0  0
   56.8560   30.7500   43.8070 C   0  0  0  0  0  0  0  0  0  0  0  0
   57.0650   31.0940   45.1140 N   0  0  0  0  0  0  0  0  0  0  0  0
   57.7940   32.2030   45.3940 C   0  0  0  0  0  0  0  0  0  0  0  0
   58.1390   32.7760   46.6860 C   0  0  0  0  0  0  0  0  0  0  0  0
   57.7920   32.3280   47.8100 O   0  0  0  0  0  0  0  0  0  0  0  0
   62.2959   33.5298   48.5853 H   0  0  0  0  0  0  0  0  0  0  0  0
   61.3099   32.9689   47.1924 H   0  0  0  0  0  0  0  0  0  0  0  0
   62.0037   34.6258   47.1924 H   0  0  0  0  0  0  0  0  0  0  0  0
   59.8252   33.5363   49.0435 H   0  0  0  0  0  0  0  0  0  0  0  0
   60.6064   35.1726   49.1814 H   0  0  0  0  0  0  0  0  0  0  0  0
   58.3991   35.2642   48.0402 H   0  0  0  0  0  0  0  0  0  0  0  0
   59.7729   35.7971   46.9886 H   0  0  0  0  0  0  0  0  0  0  0  0
   58.5592   33.3214   42.2696 H   0  0  0  0  0  0  0  0  0  0  0  0
   57.2151   31.2556   41.7136 H   0  0  0  0  0  0  0  0  0  0  0  0
   56.2691   29.8512   43.5667 H   0  0  0  0  0  0  0  0  0  0  0  0
  1  2  1  0
  2  3  1  0
  3  4  1  0
  4  5  1  0
  5  6  2  0
  5  7  1  0
  7  8  2  0
  8  9  1  0
  9 10  2  0
 10 11  1  0
 11 12  2  0
 12 13  1  0
 13 14  2  0
 13  4  1  0
 12  7  1  0
  1 15  1  0
  1 16  1  0
  1 17  1  0
  2 18  1  0
  2 19  1  0
  3 20  1  0
  3 21  1  0
  8 22  1  0
  9 23  1  0
 10 24  1  0
M  END
>  <UniqueID>  (19) 
18

>  <SMILES>  (19) 
CCCN1C(=O)c2cccnc2C1=O

>  <Energy>  (19) 
53.258225381499614

>  <Genealogy>  (19) 
CCCN1C(=O)c2cccnc2C1=O (3D coordinates assigned)
CCCN1C(=O)c2cccnc2C1=O (nonaromatic ring conformer: 53.258225381499614 kcal/mol)

>  <smiles>  (19) 
CCCN1C(=O)c2cccnc2C1=O

>  <score_type>  (19) 
oracle

>  <origin>  (19) 
adg

>  <m_score__min__energy>  (19) 
-5.4800000000000004

>  <m_primary>  (19) 
energy

$$$$
19:0
     RDKit          3D

 48 49  0  0  0  0  0  0  0  0999 V2000
   60.0930   27.3710   46.5780 C   0  0  0  0  0  0  0  0  0  0  0  0
   60.1450   28.0720   45.2220 C   0  0  0  0  0  0  0  0  0  0  0  0
   58.8080   28.5270   44.8110 N   0  0  0  0  0  0  0  0  0  0  0  0
   57.8220   27.5310   44.3610 C   0  0  0  0  0  0  0  0  0  0  0  0
   58.1220   27.0740   42.9360 C   0  0  0  0  0  0  0  0  0  0  0  0
   58.4750   29.9350   44.8490 C   0  0  0  0  0  0  0  0  0  0  0  0
   57.7760   30.5310   43.7860 C   0  0  0  0  0  0  0  0  0  0  0  0
   57.4430   31.8860   43.8240 C   0  0  0  0  0  0  0  0  0  0  0  0
   57.7900   32.6690   44.9290 C   0  0  0  0  0  0  0  0  0  0  0  0
   57.4120   34.3890   44.8860 Cl  0  0  0  0  0  0  0  0  0  0  0  0
   58.4780   32.0860   46.0110 C   0  0  0  0  0  0  0  0  0  0  0  0
   58.8470   32.8730   47.2050 C   0  0  0  0  0  0  0  0  0  0  0  0
   57.9380   33.4680   47.8440 O   0  0  0  0  0  0  0  0  0  0  0  0
   60.2200   33.0000   47.6270 N   0  0  0  0  0  0  0  0  0  0  0  0
   61.3100   32.8770   46.6550 C   0  0  0  0  0  0  0  0  0  0  0  0
   62.4590   33.8340   46.9930 C   0  0  0  0  0  0  0  0  0  0  0  0
   62.8410   33.8510   48.4230 N   0  0  0  0  0  0  0  0  0  0  0  0
   63.8160   32.8300   48.7880 C   0  0  0  0  0  0  0  0  0  0  0  0
   64.9250   33.0420   49.7830 C   0  0  0  0  0  0  0  0  0  0  0  0
   63.7450   31.7260   48.2630 O   0  0  0  0  0  0  0  0  0  0  0  0
   61.6990   33.9510   49.3620 C   0  0  0  0  0  0  0  0  0  0  0  0
   60.5420   32.9950   49.0560 C   0  0  0  0  0  0  0  0  0  0  0  0
   58.8300   30.7280   45.9550 C   0  0  0  0  0  0  0  0  0  0  0  0
   60.1486   28.1209   47.3808 H   0  0  0  0  0  0  0  0  0  0  0  0
   59.1508   26.8101   46.6649 H   0  0  0  0  0  0  0  0  0  0  0  0
   60.9421   26.6772   46.6649 H   0  0  0  0  0  0  0  0  0  0  0  0
   60.8149   28.9417   45.2923 H   0  0  0  0  0  0  0  0  0  0  0  0
   60.5172   27.3577   44.4728 H   0  0  0  0  0  0  0  0  0  0  0  0
   57.8563   26.6609   45.0331 H   0  0  0  0  0  0  0  0  0  0  0  0
   56.8232   27.9914   44.3798 H   0  0  0  0  0  0  0  0  0  0  0  0
   58.7254   26.1548   42.9651 H   0  0  0  0  0  0  0  0  0  0  0  0
   57.1776   26.8761   42.4079 H   0  0  0  0  0  0  0  0  0  0  0  0
   58.6792   27.8618   42.4079 H   0  0  0  0  0  0  0  0  0  0  0  0
   57.4883   29.9238   42.9151 H   0  0  0  0  0  0  0  0  0  0  0  0
   56.9043   32.3405   42.9794 H   0  0  0  0  0  0  0  0  0  0  0  0
   61.6873   31.8438   46.6667 H   0  0  0  0  0  0  0  0  0  0  0  0
   60.9214   33.1345   45.6587 H   0  0  0  0  0  0  0  0  0  0  0  0
   63.3396   33.5352   46.4053 H   0  0  0  0  0  0  0  0  0  0  0  0
   62.1050   34.8469   46.7509 H   0  0  0  0  0  0  0  0  0  0  0  0
   63.3480   34.7630   48.5410 H   0  0  0  0  0  0  0  0  0  0  0  0
   64.5217   32.9649   50.8035 H   0  0  0  0  0  0  0  0  0  0  0  0
   65.7006   32.2759   49.6364 H   0  0  0  0  0  0  0  0  0  0  0  0
   65.3633   34.0402   49.6364 H   0  0  0  0  0  0  0  0  0  0  0  0
   62.0668   33.7325   50.3754 H   0  0  0  0  0  0  0  0  0  0  0  0
   61.2985   34.9705   49.2614 H   0  0  0  0  0  0  0  0  0  0  0  0
   60.8282   31.9763   49.3566 H   0  0  0  0  0  0  0  0  0  0  0  0
   59.6555   33.3276   49.6159 H   0  0  0  0  0  0  0  0  0  0  0  0
   59.3910   30.2782   46.7874 H   0  0  0  0  0  0  0  0  0  0  0  0
  1  2  1  0
  2  3  1  0
  3  4  1  0
  4  5  1  0
  3  6  1  0
  6  7  2  0
  7  8  1  0
  8  9  2  0
  9 10  1  0
  9 11  1  0
 11 12  1  0
 12 13  2  0
 12 14  1  0
 14 15  1  0
 15 16  1  0
 16 17  1  0
 17 18  1  0
 18 19  1  0
 18 20  2  0
 17 21  1  0
 21 22  1  0
 11 23  2  0
 23  6  1  0
 22 14  1  0
  1 24  1  0
  1 25  1  0
  1 26  1  0
  2 27  1  0
  2 28  1  0
  4 29  1  0
  4 30  1  0
  5 31  1  0
  5 32  1  0
  5 33  1  0
  7 34  1  0
  8 35  1  0
 15 36  1  0
 15 37  1  0
 16 38  1  0
 16 39  1  0
 17 40  1  0
 19 41  1  0
 19 42  1  0
 19 43  1  0
 21 44  1  0
 21 45  1  0
 22 46  1  0
 22 47  1  0
 23 48  1  0
M  CHG  1  17   1
M  END
>  <UniqueID>  (20) 
19

>  <SMILES>  (20) 
CCN(CC)c1ccc(Cl)c(C(=O)N2CC[NH+](C(C)=O)CC2)c1

>  <Energy>  (20) 
60.797621539640474

>  <Genealogy>  (20) 
CCN(CC)c1ccc(Cl)c(C(=O)N2CC[NH+](C(C)=O)CC2)c1 (protonated)
CCN(CC)c1ccc(Cl)c(C(=O)N2CC[NH+](C(C)=O)CC2)c1 (3D coordinates assigned)
CCN(CC)c1ccc(Cl)c(C(=O)N2CC[NH+](C(C)=O)CC2)c1 (nonaromatic ring conformer: 60.797621539640474 kcal/mol)

>  <smiles>  (20) 
CCN(CC)c1ccc(Cl)c(C(=O)N2CCN(C(C)=O)CC2)c1

>  <score_type>  (20) 
oracle

>  <origin>  (20) 
adg

>  <m_score__min__energy>  (20) 
-5.5899999999999999

>  <m_primary>  (20) 
energy

$$$$
20:0
     RDKit          3D

 31 32  0  0  0  0  0  0  0  0999 V2000
   57.8700   26.8720   46.0290 C   0  0  0  0  0  0  0  0  0  0  0  0
   56.5130   27.3650   45.6310 C   0  0  0  0  0  0  0  0  0  0  0  0
   55.4980   26.7190   46.0000 O   0  0  0  0  0  0  0  0  0  0  0  0
   56.3310   28.5720   44.8780 N   0  0  0  0  0  0  0  0  0  0  0  0
   56.9380   29.8450   45.1420 C   0  0  0  0  0  0  0  0  0  0  0  0
   56.6260   30.9280   44.3110 C   0  0  0  0  0  0  0  0  0  0  0  0
   57.2180   32.1770   44.5260 C   0  0  0  0  0  0  0  0  0  0  0  0
   58.1410   32.3500   45.5650 C   0  0  0  0  0  0  0  0  0  0  0  0
   58.8720   33.9290   45.8390 S   0  0  0  0  0  0  0  0  0  0  0  0
   58.5800   34.3590   47.2470 O   0  0  0  0  0  0  0  0  0  0  0  0
   58.3060   34.9480   44.8890 O   0  0  0  0  0  0  0  0  0  0  0  0
   60.5940   33.8390   45.6180 N   0  0  0  0  0  0  0  0  0  0  0  0
   61.4770   33.5400   46.5270 C   0  0  0  0  0  0  0  0  0  0  0  0
   62.8460   33.8500   46.3890 C   0  0  0  0  0  0  0  0  0  0  0  0
   63.7370   33.4900   47.4020 C   0  0  0  0  0  0  0  0  0  0  0  0
   63.2700   32.8310   48.5400 C   0  0  0  0  0  0  0  0  0  0  0  0
   64.3800   32.3750   49.8190 Cl  0  0  0  0  0  0  0  0  0  0  0  0
   61.9090   32.5410   48.6480 C   0  0  0  0  0  0  0  0  0  0  0  0
   61.0560   32.8970   47.6510 N   0  0  0  0  0  0  0  0  0  0  0  0
   58.4840   31.2600   46.3760 C   0  0  0  0  0  0  0  0  0  0  0  0
   57.8910   30.0110   46.1610 C   0  0  0  0  0  0  0  0  0  0  0  0
   57.9432   26.8454   47.1262 H   0  0  0  0  0  0  0  0  0  0  0  0
   58.0251   25.8601   45.6265 H   0  0  0  0  0  0  0  0  0  0  0  0
   58.6384   27.5484   45.6265 H   0  0  0  0  0  0  0  0  0  0  0  0
   55.9117   30.7959   43.4849 H   0  0  0  0  0  0  0  0  0  0  0  0
   56.9577   33.0261   43.8769 H   0  0  0  0  0  0  0  0  0  0  0  0
   63.2088   34.3711   45.4907 H   0  0  0  0  0  0  0  0  0  0  0  0
   64.8069   33.7258   47.3030 H   0  0  0  0  0  0  0  0  0  0  0  0
   61.5263   32.0241   49.5404 H   0  0  0  0  0  0  0  0  0  0  0  0
   59.2207   31.3864   47.1830 H   0  0  0  0  0  0  0  0  0  0  0  0
   58.1721   29.1553   46.7925 H   0  0  0  0  0  0  0  0  0  0  0  0
  1  2  1  0
  2  3  2  0
  2  4  1  0
  4  5  1  0
  5  6  2  0
  6  7  1  0
  7  8  2  0
  8  9  1  0
  9 10  2  0
  9 11  2  0
  9 12  1  0
 12 13  2  3
 13 14  1  0
 14 15  2  0
 15 16  1  0
 16 17  1  0
 16 18  2  0
 18 19  1  0
  8 20  1  0
 20 21  2  0
 21  5  1  0
 19 13  1  0
  1 22  1  0
  1 23  1  0
  1 24  1  0
  6 25  1  0
  7 26  1  0
 14 27  1  0
 15 28  1  0
 18 29  1  0
 20 30  1  0
 21 31  1  0
M  CHG  2   4  -1  19  -1
M  END
>  <UniqueID>  (21) 
20

>  <SMILES>  (21) 
CC(=O)[N-]c1ccc(S(=O)(=O)N=c2ccc(Cl)c[n-]2)cc1

>  <Energy>  (21) 
40.711274539356204

>  <Genealogy>  (21) 
CC(=O)[N-]c1ccc(S(=O)(=O)N=c2ccc(Cl)c[n-]2)cc1 (protonated)
CC(=O)[N-]c1ccc(S(=O)(=O)N=c2ccc(Cl)c[n-]2)cc1 (3D coordinates assigned)
CC(=O)[N-]c1ccc(S(=O)(=O)N=c2ccc(Cl)c[n-]2)cc1 (optimized conformer: 40.711274539356204 kcal/mol)

>  <smiles>  (21) 
CC(=O)Nc1ccc(S(=O)(=O)N=c2ccc(Cl)c[nH]2)cc1

>  <score_type>  (21) 
oracle

>  <origin>  (21) 
adg

>  <m_score__min__energy>  (21) 
-9.9499999999999993

>  <m_primary>  (21) 
energy

$$$$
21:0
     RDKit          3D

 47 49  0  0  0  0  0  0  0  0999 V2000
   60.7550   26.7670   48.3730 C   0  0  0  0  0  0  0  0  0  0  0  0
   60.7200   26.9630   46.9650 O   0  0  0  0  0  0  0  0  0  0  0  0
   59.7450   27.7160   46.2910 C   0  0  0  0  0  0  0  0  0  0  0  0
   58.4100   27.5690   46.6810 C   0  0  0  0  0  0  0  0  0  0  0  0
   57.3990   28.2920   46.0380 C   0  0  0  0  0  0  0  0  0  0  0  0
   57.7180   29.1720   44.9930 C   0  0  0  0  0  0  0  0  0  0  0  0
   56.4540   30.0750   44.1630 S   0  0  0  0  0  0  0  0  0  0  0  0
   56.7730   30.2200   42.7010 O   0  0  0  0  0  0  0  0  0  0  0  0
   55.1550   29.3300   44.2990 O   0  0  0  0  0  0  0  0  0  0  0  0
   56.2830   31.6500   44.8710 N   0  0  0  0  0  0  0  0  0  0  0  0
   57.3640   32.5370   45.1880 C   0  0  0  0  0  0  0  0  0  0  0  0
   57.3920   33.8000   44.5860 C   0  0  0  0  0  0  0  0  0  0  0  0
   58.4260   34.6960   44.8690 C   0  0  0  0  0  0  0  0  0  0  0  0
   59.4410   34.3380   45.7600 C   0  0  0  0  0  0  0  0  0  0  0  0
   59.4340   33.0730   46.3730 C   0  0  0  0  0  0  0  0  0  0  0  0
   60.4770   32.6970   47.2920 N   0  0  0  0  0  0  0  0  0  0  0  0
   61.1240   31.3820   47.1700 C   0  0  0  0  0  0  0  0  0  0  0  0
   62.6050   31.4190   47.6120 C   0  0  0  0  0  0  0  0  0  0  0  0
   62.9390   32.5830   48.4650 N   0  0  0  0  0  0  0  0  0  0  0  0
   64.1550   32.3150   49.2480 C   0  0  0  0  0  0  0  0  0  0  0  0
   61.8220   32.9410   49.3500 C   0  0  0  0  0  0  0  0  0  0  0  0
   60.6960   33.5150   48.4930 C   0  0  0  0  0  0  0  0  0  0  0  0
   58.3920   32.1770   46.0810 C   0  0  0  0  0  0  0  0  0  0  0  0
   59.0530   29.3250   44.6000 C   0  0  0  0  0  0  0  0  0  0  0  0
   60.0650   28.6040   45.2450 C   0  0  0  0  0  0  0  0  0  0  0  0
   60.5835   27.7273   48.8813 H   0  0  0  0  0  0  0  0  0  0  0  0
   59.9701   26.0531   48.6635 H   0  0  0  0  0  0  0  0  0  0  0  0
   61.7384   26.3689   48.6635 H   0  0  0  0  0  0  0  0  0  0  0  0
   58.1528   26.8801   47.4991 H   0  0  0  0  0  0  0  0  0  0  0  0
   56.3520   28.1701   46.3526 H   0  0  0  0  0  0  0  0  0  0  0  0
   56.5948   34.0892   43.8855 H   0  0  0  0  0  0  0  0  0  0  0  0
   58.4410   35.6857   44.3892 H   0  0  0  0  0  0  0  0  0  0  0  0
   60.2496   35.0496   45.9829 H   0  0  0  0  0  0  0  0  0  0  0  0
   60.5835   30.6609   47.8008 H   0  0  0  0  0  0  0  0  0  0  0  0
   61.0940   31.0868   46.1108 H   0  0  0  0  0  0  0  0  0  0  0  0
   62.8229   30.5002   48.1762 H   0  0  0  0  0  0  0  0  0  0  0  0
   63.2128   31.5025   46.6990 H   0  0  0  0  0  0  0  0  0  0  0  0
   63.9190   32.3670   50.3211 H   0  0  0  0  0  0  0  0  0  0  0  0
   64.5344   31.3117   49.0042 H   0  0  0  0  0  0  0  0  0  0  0  0
   64.9210   33.0659   49.0042 H   0  0  0  0  0  0  0  0  0  0  0  0
   61.4661   32.0455   49.8805 H   0  0  0  0  0  0  0  0  0  0  0  0
   62.1497   33.6838   50.0922 H   0  0  0  0  0  0  0  0  0  0  0  0
   59.7696   33.5387   49.0856 H   0  0  0  0  0  0  0  0  0  0  0  0
   60.9789   34.5302   48.1780 H   0  0  0  0  0  0  0  0  0  0  0  0
   58.3789   31.1843   46.5546 H   0  0  0  0  0  0  0  0  0  0  0  0
   59.3077   30.0142   43.7814 H   0  0  0  0  0  0  0  0  0  0  0  0
   61.1125   28.7311   44.9344 H   0  0  0  0  0  0  0  0  0  0  0  0
  1  2  1  0
  2  3  1  0
  3  4  2  0
  4  5  1  0
  5  6  2  0
  6  7  1  0
  7  8  2  0
  7  9  2  0
  7 10  1  0
 10 11  1  0
 11 12  2  0
 12 13  1  0
 13 14  2  0
 14 15  1  0
 15 16  1  0
 16 17  1  0
 17 18  1  0
 18 19  1  0
 19 20  1  0
 19 21  1  0
 21 22  1  0
 15 23  2  0
  6 24  1  0
 24 25  2  0
 25  3  1  0
 23 11  1  0
 22 16  1  0
  1 26  1  0
  1 27  1  0
  1 28  1  0
  4 29  1  0
  5 30  1  0
 12 31  1  0
 13 32  1  0
 14 33  1  0
 17 34  1  0
 17 35  1  0
 18 36  1  0
 18 37  1  0
 20 38  1  0
 20 39  1  0
 20 40  1  0
 21 41  1  0
 21 42  1  0
 22 43  1  0
 22 44  1  0
 23 45  1  0
 24 46  1  0
 25 47  1  0
M  CHG  1  10  -1
M  END
>  <UniqueID>  (22) 
21

>  <SMILES>  (22) 
COc1ccc(S(=O)(=O)[N-]c2cccc(N3CCN(C)CC3)c2)cc1

>  <Energy>  (22) 
58.813124398985465

>  <Genealogy>  (22) 
COc1ccc(S(=O)(=O)[N-]c2cccc(N3CCN(C)CC3)c2)cc1 (protonated)
COc1ccc(S(=O)(=O)[N-]c2cccc(N3CCN(C)CC3)c2)cc1 (3D coordinates assigned)
COc1ccc(S(=O)(=O)[N-]c2cccc(N3CCN(C)CC3)c2)cc1 (nonaromatic ring conformer: 58.813124398985465 kcal/mol)

>  <smiles>  (22) 
COc1ccc(S(=O)(=O)Nc2cccc(N3CCN(C)CC3)c2)cc1

>  <score_type>  (22) 
oracle

>  <origin>  (22) 
adg

>  <m_score__min__energy>  (22) 
-9.5299999999999994

>  <m_primary>  (22) 
energy

$$$$
22:0
     RDKit          3D

 26 27  0  0  0  0  0  0  0  0999 V2000
   57.7320   32.2810   42.2470 O   0  0  0  0  0  0  0  0  0  0  0  0
   57.4370   31.5610   43.2400 C   0  0  0  0  0  0  0  0  0  0  0  0
   56.7410   30.2510   42.9820 C   0  0  0  0  0  0  0  0  0  0  0  0
   56.4770   29.5180   44.2720 C   0  0  0  0  0  0  0  0  0  0  0  0
   55.3890   29.7200   44.8750 O   0  0  0  0  0  0  0  0  0  0  0  0
   57.4310   28.5430   44.8350 C   0  0  0  0  0  0  0  0  0  0  0  0
   58.7780   28.3870   44.5100 C   0  0  0  0  0  0  0  0  0  0  0  0
   59.4060   27.3610   45.2260 C   0  0  0  0  0  0  0  0  0  0  0  0
   58.5660   26.7010   46.1130 C   0  0  0  0  0  0  0  0  0  0  0  0
   57.0410   27.3950   46.0030 S   0  0  0  0  0  0  0  0  0  0  0  0
   57.7610   32.0380   44.6140 C   0  0  0  0  0  0  0  0  0  0  0  0
   58.8260   31.4510   45.3270 C   0  0  0  0  0  0  0  0  0  0  0  0
   59.1470   31.8890   46.6150 C   0  0  0  0  0  0  0  0  0  0  0  0
   58.4140   32.9150   47.2110 C   0  0  0  0  0  0  0  0  0  0  0  0
   57.3560   33.5080   46.5190 C   0  0  0  0  0  0  0  0  0  0  0  0
   57.0290   33.0750   45.2300 C   0  0  0  0  0  0  0  0  0  0  0  0
   55.7838   30.4455   42.4761 H   0  0  0  0  0  0  0  0  0  0  0  0
   57.3902   29.6270   42.3502 H   0  0  0  0  0  0  0  0  0  0  0  0
   59.2959   29.0086   43.7648 H   0  0  0  0  0  0  0  0  0  0  0  0
   60.4672   27.1015   45.0977 H   0  0  0  0  0  0  0  0  0  0  0  0
   58.8502   25.8682   46.7731 H   0  0  0  0  0  0  0  0  0  0  0  0
   59.4098   30.6409   44.8656 H   0  0  0  0  0  0  0  0  0  0  0  0
   59.9807   31.4228   47.1605 H   0  0  0  0  0  0  0  0  0  0  0  0
   58.6690   33.2567   48.2250 H   0  0  0  0  0  0  0  0  0  0  0  0
   56.7783   34.3177   46.9889 H   0  0  0  0  0  0  0  0  0  0  0  0
   56.1938   33.5470   44.6917 H   0  0  0  0  0  0  0  0  0  0  0  0
  1  2  2  0
  2  3  1  0
  3  4  1  0
  4  5  2  0
  4  6  1  0
  6  7  2  0
  7  8  1  0
  8  9  2  0
  9 10  1  0
  2 11  1  0
 11 12  2  0
 12 13  1  0
 13 14  2  0
 14 15  1  0
 15 16  2  0
 10  6  1  0
 16 11  1  0
  3 17  1  0
  3 18  1  0
  7 19  1  0
  8 20  1  0
  9 21  1  0
 12 22  1  0
 13 23  1  0
 14 24  1  0
 15 25  1  0
 16 26  1  0
M  END
>  <UniqueID>  (23) 
22

>  <SMILES>  (23) 
O=C(CC(=O)c1cccs1)c1ccccc1

>  <Energy>  (23) 
53.19980871744119

>  <Genealogy>  (23) 
O=C(CC(=O)c1cccs1)c1ccccc1 (3D coordinates assigned)
O=C(CC(=O)c1cccs1)c1ccccc1 (optimized conformer: 53.19980871744119 kcal/mol)

>  <smiles>  (23) 
O=C(CC(=O)c1cccs1)c1ccccc1

>  <score_type>  (23) 
oracle

>  <origin>  (23) 
adg

>  <m_score__min__energy>  (23) 
-6.6500000000000004

>  <m_primary>  (23) 
energy

$$$$
23:0
     RDKit          3D

 44 46  0  0  0  0  0  0  0  0999 V2000
   62.3420   34.2030   49.0250 C   0  0  0  0  0  0  0  0  0  0  0  0
   62.5600   33.1160   47.5830 S   0  0  0  0  0  0  0  0  0  0  0  0
   60.9350   33.4840   46.9240 C   0  0  0  0  0  0  0  0  0  0  0  0
   60.3130   34.6380   47.2780 N   0  0  0  0  0  0  0  0  0  0  0  0
   59.0890   34.9510   46.7840 C   0  0  0  0  0  0  0  0  0  0  0  0
   58.4480   34.0830   45.8990 C   0  0  0  0  0  0  0  0  0  0  0  0
   56.9010   34.5620   45.2080 Cl  0  0  0  0  0  0  0  0  0  0  0  0
   59.0970   32.8850   45.5490 C   0  0  0  0  0  0  0  0  0  0  0  0
   58.4970   31.9230   44.6000 C   0  0  0  0  0  0  0  0  0  0  0  0
   58.1490   32.4340   43.0750 S   0  0  0  0  0  0  0  0  0  0  0  0
   58.0450   30.6310   45.0630 N   0  0  0  0  0  0  0  0  0  0  0  0
   58.6990   29.9980   46.2200 C   0  0  0  0  0  0  0  0  0  0  0  0
   58.8050   28.4830   46.0170 C   0  0  0  0  0  0  0  0  0  0  0  0
   57.5320   27.9150   45.5600 N   0  0  0  0  0  0  0  0  0  0  0  0
   57.4250   26.4980   45.3720 C   0  0  0  0  0  0  0  0  0  0  0  0
   57.0240   25.6950   46.4490 C   0  0  0  0  0  0  0  0  0  0  0  0
   56.8990   24.3130   46.2920 C   0  0  0  0  0  0  0  0  0  0  0  0
   56.3920   23.3180   47.6450 Cl  0  0  0  0  0  0  0  0  0  0  0  0
   57.1720   23.7240   45.0540 C   0  0  0  0  0  0  0  0  0  0  0  0
   57.5770   24.5140   43.9760 C   0  0  0  0  0  0  0  0  0  0  0  0
   57.7230   25.9040   44.1260 C   0  0  0  0  0  0  0  0  0  0  0  0
   58.1370   26.7360   42.9430 C   0  0  0  0  0  0  0  0  0  0  0  0
   56.3920   28.7790   45.2450 C   0  0  0  0  0  0  0  0  0  0  0  0
   56.8670   29.9960   44.4460 C   0  0  0  0  0  0  0  0  0  0  0  0
   60.3290   32.6170   46.0690 N   0  0  0  0  0  0  0  0  0  0  0  0
   62.4597   33.6160   49.9478 H   0  0  0  0  0  0  0  0  0  0  0  0
   63.0978   35.0018   48.9996 H   0  0  0  0  0  0  0  0  0  0  0  0
   61.3366   34.6486   48.9996 H   0  0  0  0  0  0  0  0  0  0  0  0
   58.6008   35.8907   47.0816 H   0  0  0  0  0  0  0  0  0  0  0  0
   59.7085   30.4183   46.3394 H   0  0  0  0  0  0  0  0  0  0  0  0
   58.0966   30.1941   47.1192 H   0  0  0  0  0  0  0  0  0  0  0  0
   59.5802   28.2759   45.2646 H   0  0  0  0  0  0  0  0  0  0  0  0
   59.0644   28.0213   46.9811 H   0  0  0  0  0  0  0  0  0  0  0  0
   56.8065   26.1563   47.4236 H   0  0  0  0  0  0  0  0  0  0  0  0
   57.0676   22.6362   44.9287 H   0  0  0  0  0  0  0  0  0  0  0  0
   57.7832   24.0452   43.0025 H   0  0  0  0  0  0  0  0  0  0  0  0
   58.6012   27.6689   43.2953 H   0  0  0  0  0  0  0  0  0  0  0  0
   58.8603   26.1736   42.3343 H   0  0  0  0  0  0  0  0  0  0  0  0
   57.2522   26.9738   42.3343 H   0  0  0  0  0  0  0  0  0  0  0  0
   55.6598   28.2143   44.6491 H   0  0  0  0  0  0  0  0  0  0  0  0
   55.9254   29.1194   46.1812 H   0  0  0  0  0  0  0  0  0  0  0  0
   57.1293   29.6729   43.4277 H   0  0  0  0  0  0  0  0  0  0  0  0
   56.0509   30.7334   44.4294 H   0  0  0  0  0  0  0  0  0  0  0  0
   60.8220   31.7320   45.8120 H   0  0  0  0  0  0  0  0  0  0  0  0
  1  2  1  0
  2  3  1  0
  3  4  2  0
  4  5  1  0
  5  6  2  0
  6  7  1  0
  6  8  1  0
  8  9  1  0
  9 10  2  0
  9 11  1  0
 11 12  1  0
 12 13  1  0
 13 14  1  0
 14 15  1  0
 15 16  2  0
 16 17  1  0
 17 18  1  0
 17 19  2  0
 19 20  1  0
 20 21  2  0
 21 22  1  0
 14 23  1  0
 23 24  1  0
  8 25  2  0
 25  3  1  0
 24 11  1  0
 21 15  1  0
  1 26  1  0
  1 27  1  0
  1 28  1  0
  5 29  1  0
 12 30  1  0
 12 31  1  0
 13 32  1  0
 13 33  1  0
 16 34  1  0
 19 35  1  0
 20 36  1  0
 22 37  1  0
 22 38  1  0
 22 39  1  0
 23 40  1  0
 23 41  1  0
 24 42  1  0
 24 43  1  0
 25 44  1  0
M  CHG  1  25   1
M  END
>  <UniqueID>  (24) 
23

>  <SMILES>  (24) 
CSc1ncc(Cl)c(C(=S)N2CCN(c3cc(Cl)ccc3C)CC2)[nH+]1

>  <Energy>  (24) 
54.581531690975766

>  <Genealogy>  (24) 
CSc1ncc(Cl)c(C(=S)N2CCN(c3cc(Cl)ccc3C)CC2)[nH+]1 (protonated)
CSc1ncc(Cl)c(C(=S)N2CCN(c3cc(Cl)ccc3C)CC2)[nH+]1 (3D coordinates assigned)
CSc1ncc(Cl)c(C(=S)N2CCN(c3cc(Cl)ccc3C)CC2)[nH+]1 (nonaromatic ring conformer: 54.581531690975766 kcal/mol)

>  <smiles>  (24) 
CSc1ncc(Cl)c(C(=S)N2CCN(c3cc(Cl)ccc3C)CC2)n1

>  <score_type>  (24) 
oracle

>  <origin>  (24) 
adg

>  <m_score__min__energy>  (24) 
-7.3399999999999999

>  <m_primary>  (24) 
energy

$$$$
24:0
     RDKit          3D

 43 44  0  0  0  0  0  0  0  0999 V2000
   56.5800   22.9360   48.3040 C   0  0  0  0  0  0  0  0  0  0  0  0
   57.4000   23.3100   47.2010 O   0  0  0  0  0  0  0  0  0  0  0  0
   57.5200   24.6190   46.7080 C   0  0  0  0  0  0  0  0  0  0  0  0
   58.7600   25.2800   46.6370 C   0  0  0  0  0  0  0  0  0  0  0  0
   58.8400   26.5800   46.1380 C   0  0  0  0  0  0  0  0  0  0  0  0
   57.6910   27.2410   45.6860 C   0  0  0  0  0  0  0  0  0  0  0  0
   57.8000   28.5890   45.1960 N   0  0  0  0  0  0  0  0  0  0  0  0
   56.6790   29.4710   45.0200 C   0  0  0  0  0  0  0  0  0  0  0  0
   55.5170   29.0010   44.8950 O   0  0  0  0  0  0  0  0  0  0  0  0
   56.8730   30.8830   44.8800 N   0  0  0  0  0  0  0  0  0  0  0  0
   57.9180   31.6520   45.4910 C   0  0  0  0  0  0  0  0  0  0  0  0
   58.6300   31.0960   46.5570 C   0  0  0  0  0  0  0  0  0  0  0  0
   59.6710   31.8050   47.1630 C   0  0  0  0  0  0  0  0  0  0  0  0
   60.0350   33.0880   46.7030 C   0  0  0  0  0  0  0  0  0  0  0  0
   61.1150   33.8270   47.3320 N   0  0  0  0  0  0  0  0  0  0  0  0
   62.4530   33.8510   46.7290 C   0  0  0  0  0  0  0  0  0  0  0  0
   60.8880   34.5600   48.5840 C   0  0  0  0  0  0  0  0  0  0  0  0
   59.3280   33.6280   45.6080 C   0  0  0  0  0  0  0  0  0  0  0  0
   58.2870   32.9150   45.0050 C   0  0  0  0  0  0  0  0  0  0  0  0
   56.4480   26.5920   45.7750 C   0  0  0  0  0  0  0  0  0  0  0  0
   56.3580   25.2790   46.2790 C   0  0  0  0  0  0  0  0  0  0  0  0
   55.1330   24.5990   46.3730 O   0  0  0  0  0  0  0  0  0  0  0  0
   54.4370   24.0320   45.2680 C   0  0  0  0  0  0  0  0  0  0  0  0
   57.0996   23.1730   49.2441 H   0  0  0  0  0  0  0  0  0  0  0  0
   55.6309   23.4903   48.2598 H   0  0  0  0  0  0  0  0  0  0  0  0
   56.3763   21.8559   48.2598 H   0  0  0  0  0  0  0  0  0  0  0  0
   59.6723   24.7682   46.9772 H   0  0  0  0  0  0  0  0  0  0  0  0
   59.8137   27.0903   46.0991 H   0  0  0  0  0  0  0  0  0  0  0  0
   58.7350   28.9190   44.8650 H   0  0  0  0  0  0  0  0  0  0  0  0
   58.3690   30.0918   46.9224 H   0  0  0  0  0  0  0  0  0  0  0  0
   60.2131   31.3571   48.0089 H   0  0  0  0  0  0  0  0  0  0  0  0
   63.2132   33.8646   47.5239 H   0  0  0  0  0  0  0  0  0  0  0  0
   62.5904   32.9552   46.1056 H   0  0  0  0  0  0  0  0  0  0  0  0
   62.5581   34.7512   46.1056 H   0  0  0  0  0  0  0  0  0  0  0  0
   61.0929   33.8984   49.4386 H   0  0  0  0  0  0  0  0  0  0  0  0
   61.5585   35.4311   48.6257 H   0  0  0  0  0  0  0  0  0  0  0  0
   59.8426   34.8997   48.6257 H   0  0  0  0  0  0  0  0  0  0  0  0
   59.5990   34.6224   45.2237 H   0  0  0  0  0  0  0  0  0  0  0  0
   57.7546   33.3470   44.1448 H   0  0  0  0  0  0  0  0  0  0  0  0
   55.5364   27.1137   45.4482 H   0  0  0  0  0  0  0  0  0  0  0  0
   53.6337   23.3776   45.6374 H   0  0  0  0  0  0  0  0  0  0  0  0
   54.0025   24.8365   44.6564 H   0  0  0  0  0  0  0  0  0  0  0  0
   55.1370   23.4438   44.6564 H   0  0  0  0  0  0  0  0  0  0  0  0
  1  2  1  0
  2  3  1  0
  3  4  2  0
  4  5  1  0
  5  6  2  0
  6  7  1  0
  7  8  1  0
  8  9  2  0
  8 10  1  0
 10 11  1  0
 11 12  2  0
 12 13  1  0
 13 14  2  0
 14 15  1  0
 15 16  1  0
 15 17  1  0
 14 18  1  0
 18 19  2  0
  6 20  1  0
 20 21  2  0
 21 22  1  0
 22 23  1  0
 21  3  1  0
 19 11  1  0
  1 24  1  0
  1 25  1  0
  1 26  1  0
  4 27  1  0
  5 28  1  0
  7 29  1  0
 12 30  1  0
 13 31  1  0
 16 32  1  0
 16 33  1  0
 16 34  1  0
 17 35  1  0
 17 36  1  0
 17 37  1  0
 18 38  1  0
 19 39  1  0
 20 40  1  0
 23 41  1  0
 23 42  1  0
 23 43  1  0
M  CHG  1  10  -1
M  END
>  <UniqueID>  (25) 
24

>  <SMILES>  (25) 
COc1ccc(NC(=O)[N-]c2ccc(N(C)C)cc2)cc1OC

>  <Energy>  (25) 
50.16312928247082

>  <Genealogy>  (25) 
COc1ccc(NC(=O)[N-]c2ccc(N(C)C)cc2)cc1OC (protonated)
COc1ccc(NC(=O)[N-]c2ccc(N(C)C)cc2)cc1OC (3D coordinates assigned)
COc1ccc(NC(=O)[N-]c2ccc(N(C)C)cc2)cc1OC (optimized conformer: 50.16312928247082 kcal/mol)

>  <smiles>  (25) 
COc1ccc(NC(=O)Nc2ccc(N(C)C)cc2)cc1OC

>  <score_type>  (25) 
oracle

>  <origin>  (25) 
adg

>  <m_score__min__energy>  (25) 
-8.3699999999999992

>  <m_primary>  (25) 
energy

$$$$
25:0
     RDKit          3D

 43 45  0  0  1  0  0  0  0  0999 V2000
   58.1160   25.5290   47.2710 C   0  0  0  0  0  0  0  0  0  0  0  0
   57.7520   26.1010   45.9680 C   0  0  2  0  0  0  0  0  0  0  0  0
   58.2510   25.3410   44.8070 N   0  0  0  0  0  0  0  0  0  0  0  0
   57.6190   24.3490   44.3380 C   0  0  0  0  0  0  0  0  0  0  0  0
   58.0280   23.0810   44.7120 C   0  0  0  0  0  0  0  0  0  0  0  0
   57.3380   21.9860   44.2010 C   0  0  0  0  0  0  0  0  0  0  0  0
   57.7400   20.6830   44.5690 N   0  0  0  0  0  0  0  0  0  0  0  0
   56.3000   22.1760   43.3660 N   0  0  0  0  0  0  0  0  0  0  0  0
   55.9210   23.4260   43.0170 C   0  0  0  0  0  0  0  0  0  0  0  0
   56.5880   24.4860   43.5110 N   0  0  0  0  0  0  0  0  0  0  0  0
   57.8120   27.5490   45.7860 C   0  0  0  0  0  0  0  0  0  0  0  0
   58.9220   28.2170   46.2770 C   0  0  0  0  0  0  0  0  0  0  0  0
   59.0340   29.5860   46.1300 C   0  0  0  0  0  0  0  0  0  0  0  0
   58.0740   30.3550   45.5030 C   0  0  0  0  0  0  0  0  0  0  0  0
   58.2330   31.7610   45.3760 N   0  0  0  0  0  0  0  0  0  0  0  0
   58.0580   32.6090   44.2230 C   0  0  0  0  0  0  0  0  0  0  0  0
   58.8920   33.8360   44.5010 C   0  0  0  0  0  0  0  0  0  0  0  0
   58.9460   33.8560   45.9490 N   0  0  0  0  0  0  0  0  0  0  0  0
   59.2890   35.0220   46.7620 C   0  0  0  0  0  0  0  0  0  0  0  0
   58.6230   32.5910   46.4890 C   0  0  0  0  0  0  0  0  0  0  0  0
   58.6600   32.2330   47.6890 O   0  0  0  0  0  0  0  0  0  0  0  0
   56.9680   29.6930   45.0150 C   0  0  0  0  0  0  0  0  0  0  0  0
   55.9990   30.4000   44.3920 F   0  0  0  0  0  0  0  0  0  0  0  0
   56.8580   28.3200   45.1620 C   0  0  0  0  0  0  0  0  0  0  0  0
   57.7129   26.1624   48.0750 H   0  0  0  0  0  0  0  0  0  0  0  0
   57.6961   24.5159   47.3569 H   0  0  0  0  0  0  0  0  0  0  0  0
   59.2116   25.4803   47.3569 H   0  0  0  0  0  0  0  0  0  0  0  0
   56.6632   25.9508   46.0111 H   0  0  0  0  0  0  0  0  0  0  0  0
   58.8778   22.9421   45.3965 H   0  0  0  0  0  0  0  0  0  0  0  0
   57.2880   19.8450   44.1350 H   0  0  0  0  0  0  0  0  0  0  0  0
   58.4930   20.5380   45.2790 H   0  0  0  0  0  0  0  0  0  0  0  0
   55.0725   23.5761   42.3333 H   0  0  0  0  0  0  0  0  0  0  0  0
   56.2890   25.4230   43.2380 H   0  0  0  0  0  0  0  0  0  0  0  0
   59.7182   27.6544   46.7865 H   0  0  0  0  0  0  0  0  0  0  0  0
   59.9283   30.0859   46.5305 H   0  0  0  0  0  0  0  0  0  0  0  0
   58.4114   32.1008   43.3137 H   0  0  0  0  0  0  0  0  0  0  0  0
   57.0004   32.8611   44.0560 H   0  0  0  0  0  0  0  0  0  0  0  0
   59.8981   33.7397   44.0668 H   0  0  0  0  0  0  0  0  0  0  0  0
   58.4773   34.7566   44.0645 H   0  0  0  0  0  0  0  0  0  0  0  0
   59.2123   34.7612   47.8279 H   0  0  0  0  0  0  0  0  0  0  0  0
   60.3180   35.3375   46.5349 H   0  0  0  0  0  0  0  0  0  0  0  0
   58.5947   35.8444   46.5349 H   0  0  0  0  0  0  0  0  0  0  0  0
   55.9638   27.8212   44.7600 H   0  0  0  0  0  0  0  0  0  0  0  0
  1  2  1  0
  2  3  1  0
  3  4  2  0
  4  5  1  0
  5  6  2  0
  6  7  1  0
  6  8  1  0
  8  9  2  0
  9 10  1  0
  2 11  1  0
 11 12  2  0
 12 13  1  0
 13 14  2  0
 14 15  1  0
 15 16  1  0
 16 17  1  0
 17 18  1  0
 18 19  1  0
 18 20  1  0
 20 21  2  0
 14 22  1  0
 22 23  1  0
 22 24  2  0
 10  4  1  0
 24 11  1  0
 20 15  1  0
  1 25  1  0
  1 26  1  0
  1 27  1  0
  2 28  1  6
  5 29  1  0
  7 30  1  0
  7 31  1  0
  9 32  1  0
 10 33  1  0
 12 34  1  0
 13 35  1  0
 16 36  1  0
 16 37  1  0
 17 38  1  0
 17 39  1  0
 19 40  1  0
 19 41  1  0
 19 42  1  0
 24 43  1  0
M  END
>  <smiles>  (26) 
CC(N=c1cc(N)nc[nH]1)c1ccc(N2CCN(C)C2=O)c(F)c1

>  <score_type>  (26) 
oracle

>  <origin>  (26) 
adg

>  <m_score__min__energy>  (26) 
-7.5300000000000002

>  <m_primary>  (26) 
energy

$$$$
26:0
     RDKit          3D

 47 50  0  0  1  0  0  0  0  0999 V2000
   60.4820   27.8730   45.6070 C   0  0  0  0  0  0  0  0  0  0  0  0
   60.0600   26.8850   46.5450 O   0  0  0  0  0  0  0  0  0  0  0  0
   58.9390   26.1300   46.2440 C   0  0  0  0  0  0  0  0  0  0  0  0
   59.0200   24.8200   45.8000 C   0  0  0  0  0  0  0  0  0  0  0  0
   57.8720   24.0780   45.5030 C   0  0  0  0  0  0  0  0  0  0  0  0
   56.6200   24.6430   45.6460 C   0  0  0  0  0  0  0  0  0  0  0  0
   55.4150   23.9410   45.3600 N   0  0  0  0  0  0  0  0  0  0  0  0
   54.1350   24.5180   45.3710 C   0  0  0  0  0  0  0  0  0  0  0  0
   52.9250   23.7110   45.0600 C   0  0  0  0  0  0  0  0  0  0  0  0
   53.9970   25.7370   45.6480 O   0  0  0  0  0  0  0  0  0  0  0  0
   56.5410   25.9420   46.0850 C   0  0  0  0  0  0  0  0  0  0  0  0
   57.6840   26.6860   46.3830 C   0  0  0  0  0  0  0  0  0  0  0  0
   57.4680   28.0210   46.8300 N   0  0  0  0  0  0  0  0  0  0  0  0
   57.4880   28.9820   45.9680 C   0  0  0  0  0  0  0  0  0  0  0  0
   57.9060   30.2540   46.1040 N   0  0  0  0  0  0  0  0  0  0  0  0
   57.7050   30.8310   44.8920 C   0  0  0  0  0  0  0  0  0  0  0  0
   57.9350   32.1140   44.4060 C   0  0  0  0  0  0  0  0  0  0  0  0
   58.5030   33.1530   45.2580 C   0  0  0  0  0  0  0  0  0  0  0  0
   59.1410   34.2710   44.7680 C   0  0  0  0  0  0  0  0  0  0  0  0
   59.6460   35.1990   45.6610 C   0  0  0  0  0  0  0  0  0  0  0  0
   59.5130   35.0120   47.0260 C   0  0  0  0  0  0  0  0  0  0  0  0
   58.8760   33.8950   47.5210 C   0  0  0  0  0  0  0  0  0  0  0  0
   58.3810   32.9840   46.6270 C   0  0  0  0  0  0  0  0  0  0  0  0
   57.6380   32.4640   43.0970 C   0  0  0  0  0  0  0  0  0  0  0  0
   57.0990   31.5140   42.2520 C   0  0  0  0  0  0  0  0  0  0  0  0
   56.8800   30.2490   42.7600 C   0  0  0  0  0  0  0  0  0  0  0  0
   57.1780   29.9370   44.0350 N   0  0  0  0  0  0  0  0  0  0  0  0
   57.0470   28.8010   44.6980 N   0  0  0  0  0  0  0  0  0  0  0  0
   60.8584   28.7543   46.1471 H   0  0  0  0  0  0  0  0  0  0  0  0
   61.2825   27.4606   44.9752 H   0  0  0  0  0  0  0  0  0  0  0  0
   59.6306   28.1662   44.9752 H   0  0  0  0  0  0  0  0  0  0  0  0
   60.0086   24.3533   45.6784 H   0  0  0  0  0  0  0  0  0  0  0  0
   57.9670   23.0392   45.1538 H   0  0  0  0  0  0  0  0  0  0  0  0
   55.4780   22.9130   45.1230 H   0  0  0  0  0  0  0  0  0  0  0  0
   52.4463   23.3917   45.9975 H   0  0  0  0  0  0  0  0  0  0  0  0
   52.2186   24.3194   44.4762 H   0  0  0  0  0  0  0  0  0  0  0  0
   53.2152   22.8250   44.4762 H   0  0  0  0  0  0  0  0  0  0  0  0
   55.5518   26.4080   46.2048 H   0  0  0  0  0  0  0  0  0  0  0  0
   59.2473   34.4235   43.6838 H   0  0  0  0  0  0  0  0  0  0  0  0
   60.1589   36.0953   45.2822 H   0  0  0  0  0  0  0  0  0  0  0  0
   59.9192   35.7613   47.7213 H   0  0  0  0  0  0  0  0  0  0  0  0
   58.7682   33.7395   48.6046 H   0  0  0  0  0  0  0  0  0  0  0  0
   57.8694   32.0881   47.0088 H   0  0  0  0  0  0  0  0  0  0  0  0
   57.8294   33.4855   42.7366 H   0  0  0  0  0  0  0  0  0  0  0  0
   56.8521   31.7572   41.2080 H   0  0  0  0  0  0  0  0  0  0  0  0
   56.4508   29.4759   42.1057 H   0  0  0  0  0  0  0  0  0  0  0  0
   56.6620   27.9240   44.2890 H   0  0  0  0  0  0  0  0  0  0  0  0
  1  2  1  0
  2  3  1  0
  3  4  2  0
  4  5  1  0
  5  6  2  0
  6  7  1  0
  7  8  1  0
  8  9  1  0
  8 10  2  0
  6 11  1  0
 11 12  2  0
 12 13  1  0
 13 14  2  0
 14 15  1  0
 15 16  2  0
 16 17  1  0
 17 18  1  0
 18 19  2  0
 19 20  1  0
 20 21  2  0
 21 22  1  0
 22 23  2  0
 17 24  2  0
 24 25  1  0
 25 26  2  0
 26 27  1  0
 27 28  1  0
 12  3  1  0
 28 14  1  0
 27 16  1  0
 23 18  1  0
  1 29  1  0
  1 30  1  0
  1 31  1  0
  4 32  1  0
  5 33  1  0
  7 34  1  0
  9 35  1  0
  9 36  1  0
  9 37  1  0
 11 38  1  0
 19 39  1  0
 20 40  1  0
 21 41  1  0
 22 42  1  0
 23 43  1  0
 24 44  1  0
 25 45  1  0
 26 46  1  0
 28 47  1  0
M  END
>  <smiles>  (27) 
COc1ccc(NC(C)=O)cc1N=c1nc2c(-c3ccccc3)cccn2[nH]1

>  <score_type>  (27) 
oracle

>  <origin>  (27) 
adg

>  <m_score__min__energy>  (27) 
-8.7799999999999994

>  <m_primary>  (27) 
energy

$$$$
27:0
     RDKit          3D

 62 64  0  0  0  0  0  0  0  0999 V2000
   54.8910   24.1920   45.5110 C   0  0  0  0  0  0  0  0  0  0  0  0
   55.4630   25.1960   46.3440 O   0  0  0  0  0  0  0  0  0  0  0  0
   56.6930   25.8220   46.0950 C   0  0  0  0  0  0  0  0  0  0  0  0
   57.2420   25.9240   44.8030 C   0  0  0  0  0  0  0  0  0  0  0  0
   58.4610   26.5790   44.6050 C   0  0  0  0  0  0  0  0  0  0  0  0
   59.1390   27.1620   45.6870 C   0  0  0  0  0  0  0  0  0  0  0  0
   60.4150   27.9380   45.4610 C   0  0  0  0  0  0  0  0  0  0  0  0
   60.1810   29.3530   44.8920 C   0  0  0  0  0  0  0  0  0  0  0  0
   58.9170   29.9570   45.3830 N   0  0  0  0  0  0  0  0  0  0  0  0
   57.9160   30.0950   44.2940 C   0  0  0  0  0  0  0  0  0  0  0  0
   58.0260   31.4450   43.5760 C   0  0  0  0  0  0  0  0  0  0  0  0
   57.7700   32.6180   44.5400 C   0  0  0  0  0  0  0  0  0  0  0  0
   58.0120   32.2410   46.0200 C   0  0  2  0  0  0  0  0  0  0  0  0
   58.3050   33.5050   46.8610 C   0  0  0  0  0  0  0  0  0  0  0  0
   59.6660   34.0300   46.6030 N   0  0  0  0  0  0  0  0  0  0  0  0
   59.6410   35.1140   45.6070 C   0  0  0  0  0  0  0  0  0  0  0  0
   60.4150   34.4060   47.8270 C   0  0  0  0  0  0  0  0  0  0  0  0
   61.8020   33.8150   47.9040 C   0  0  0  0  0  0  0  0  0  0  0  0
   62.5820   33.4100   46.8340 C   0  0  0  0  0  0  0  0  0  0  0  0
   63.7600   32.9600   47.3020 N   0  0  0  0  0  0  0  0  0  0  0  0
   63.7650   33.0590   48.6210 N   0  0  0  0  0  0  0  0  0  0  0  0
   64.8830   32.6530   49.4680 C   0  0  0  0  0  0  0  0  0  0  0  0
   62.5760   33.5550   49.0310 C   0  0  0  0  0  0  0  0  0  0  0  0
   62.2130   33.8370   50.4610 C   0  0  0  0  0  0  0  0  0  0  0  0
   59.1630   31.2200   46.1310 C   0  0  0  0  0  0  0  0  0  0  0  0
   58.6090   27.0270   46.9800 C   0  0  0  0  0  0  0  0  0  0  0  0
   57.3940   26.3660   47.1790 C   0  0  0  0  0  0  0  0  0  0  0  0
   54.4435   23.4066   46.1379 H   0  0  0  0  0  0  0  0  0  0  0  0
   54.1135   24.6416   44.8759 H   0  0  0  0  0  0  0  0  0  0  0  0
   55.6742   23.7524   44.8759 H   0  0  0  0  0  0  0  0  0  0  0  0
   56.7097   25.4865   43.9456 H   0  0  0  0  0  0  0  0  0  0  0  0
   58.8917   26.6379   43.5946 H   0  0  0  0  0  0  0  0  0  0  0  0
   60.9407   28.0318   46.4227 H   0  0  0  0  0  0  0  0  0  0  0  0
   61.0043   27.3827   44.7164 H   0  0  0  0  0  0  0  0  0  0  0  0
   61.0205   29.9977   45.1913 H   0  0  0  0  0  0  0  0  0  0  0  0
   60.1096   29.2675   43.7976 H   0  0  0  0  0  0  0  0  0  0  0  0
   58.0756   29.2899   43.5616 H   0  0  0  0  0  0  0  0  0  0  0  0
   56.9146   30.0322   44.7449 H   0  0  0  0  0  0  0  0  0  0  0  0
   59.0366   31.5438   43.1529 H   0  0  0  0  0  0  0  0  0  0  0  0
   57.2650   31.4774   42.7824 H   0  0  0  0  0  0  0  0  0  0  0  0
   58.4439   33.4455   44.2734 H   0  0  0  0  0  0  0  0  0  0  0  0
   56.7127   32.9044   44.4398 H   0  0  0  0  0  0  0  0  0  0  0  0
   57.0999   31.7735   46.4195 H   0  0  0  0  0  0  0  0  0  0  0  0
   57.5689   34.2816   46.6061 H   0  0  0  0  0  0  0  0  0  0  0  0
   58.2378   33.2329   47.9247 H   0  0  0  0  0  0  0  0  0  0  0  0
   59.6186   36.0854   46.1227 H   0  0  0  0  0  0  0  0  0  0  0  0
   60.5408   35.0540   44.9771 H   0  0  0  0  0  0  0  0  0  0  0  0
   58.7450   35.0126   44.9771 H   0  0  0  0  0  0  0  0  0  0  0  0
   60.5040   35.5020   47.8550 H   0  0  0  0  0  0  0  0  0  0  0  0
   59.8503   34.0049   48.6815 H   0  0  0  0  0  0  0  0  0  0  0  0
   62.2867   33.4498   45.7751 H   0  0  0  0  0  0  0  0  0  0  0  0
   64.5490   32.5940   46.7240 H   0  0  0  0  0  0  0  0  0  0  0  0
   64.5983   32.7564   50.5255 H   0  0  0  0  0  0  0  0  0  0  0  0
   65.1399   31.6042   49.2583 H   0  0  0  0  0  0  0  0  0  0  0  0
   65.7530   33.2926   49.2583 H   0  0  0  0  0  0  0  0  0  0  0  0
   62.9041   33.3001   51.1274 H   0  0  0  0  0  0  0  0  0  0  0  0
   62.2855   34.9180   50.6514 H   0  0  0  0  0  0  0  0  0  0  0  0
   61.1835   33.4994   50.6514 H   0  0  0  0  0  0  0  0  0  0  0  0
   60.0786   31.6846   45.7362 H   0  0  0  0  0  0  0  0  0  0  0  0
   59.2531   30.9516   47.1939 H   0  0  0  0  0  0  0  0  0  0  0  0
   59.1528   27.4436   47.8407 H   0  0  0  0  0  0  0  0  0  0  0  0
   56.9845   26.2720   48.1956 H   0  0  0  0  0  0  0  0  0  0  0  0
  1  2  1  0
  2  3  1  0
  3  4  2  0
  4  5  1  0
  5  6  2  0
  6  7  1  0
  7  8  1  0
  8  9  1  0
  9 10  1  0
 10 11  1  0
 11 12  1  0
 12 13  1  0
 13 14  1  0
 14 15  1  0
 15 16  1  0
 15 17  1  0
 17 18  1  0
 18 19  1  0
 19 20  2  0
 20 21  1  0
 21 22  1  0
 21 23  1  0
 23 24  1  0
 13 25  1  0
  6 26  1  0
 26 27  2  0
 27  3  1  0
 25  9  1  0
 23 18  2  0
  1 28  1  0
  1 29  1  0
  1 30  1  0
  4 31  1  0
  5 32  1  0
  7 33  1  0
  7 34  1  0
  8 35  1  0
  8 36  1  0
 10 37  1  0
 10 38  1  0
 11 39  1  0
 11 40  1  0
 12 41  1  0
 12 42  1  0
 13 43  1  1
 14 44  1  0
 14 45  1  0
 16 46  1  0
 16 47  1  0
 16 48  1  0
 17 49  1  0
 17 50  1  0
 19 51  1  0
 20 52  1  0
 22 53  1  0
 22 54  1  0
 22 55  1  0
 24 56  1  0
 24 57  1  0
 24 58  1  0
 25 59  1  0
 25 60  1  0
 26 61  1  0
 27 62  1  0
M  CHG  1  20   1
M  END
>  <UniqueID>  (28) 
25

>  <SMILES>  (28) 
COc1ccc(CCN2CCC[C@H](CN(C)Cc3c[nH+]n(C)c3C)C2)cc1

>  <Energy>  (28) 
99.72522183663499

>  <Genealogy>  (28) 
COc1ccc(CCN2CCCC(CN(C)Cc3c[nH+]n(C)c3C)C2)cc1 (protonated)
COc1ccc(CCN2CCC[C@H](CN(C)Cc3c[nH+]n(C)c3C)C2)cc1 (chirality)
COc1ccc(CCN2CCC[C@H](CN(C)Cc3c[nH+]n(C)c3C)C2)cc1 (3D coordinates assigned)
COc1ccc(CCN2CCC[C@H](CN(C)Cc3c[nH+]n(C)c3C)C2)cc1 (nonaromatic ring conformer: 99.72522183663499 kcal/mol)

>  <smiles>  (28) 
COc1ccc(CCN2CCCC(CN(C)Cc3cnn(C)c3C)C2)cc1

>  <score_type>  (28) 
oracle

>  <origin>  (28) 
adg

>  <m_score__min__energy>  (28) 
-8

>  <m_primary>  (28) 
energy

$$$$
28:0
     RDKit          3D

 31 33  0  0  0  0  0  0  0  0999 V2000
   58.1940   27.4330   43.4890 C   0  0  0  0  0  0  0  0  0  0  0  0
   58.4850   27.7010   44.9420 C   0  0  0  0  0  0  0  0  0  0  0  0
   59.4870   26.9310   45.5760 C   0  0  0  0  0  0  0  0  0  0  0  0
   59.7880   27.2030   46.9050 C   0  0  0  0  0  0  0  0  0  0  0  0
   59.1490   28.1730   47.6010 C   0  0  0  0  0  0  0  0  0  0  0  0
   58.1470   28.9490   47.0350 C   0  0  0  0  0  0  0  0  0  0  0  0
   57.7810   28.6990   45.6930 C   0  0  0  0  0  0  0  0  0  0  0  0
   56.6710   29.4890   45.1150 C   0  0  0  0  0  0  0  0  0  0  0  0
   55.5210   28.9800   45.0650 O   0  0  0  0  0  0  0  0  0  0  0  0
   56.8560   30.8240   44.6240 N   0  0  0  0  0  0  0  0  0  0  0  0
   57.5970   31.8740   45.2630 C   0  0  0  0  0  0  0  0  0  0  0  0
   57.0550   33.1650   45.2870 C   0  0  0  0  0  0  0  0  0  0  0  0
   57.7480   34.2120   45.9030 C   0  0  0  0  0  0  0  0  0  0  0  0
   58.9950   33.9760   46.4880 C   0  0  0  0  0  0  0  0  0  0  0  0
   59.5560   32.6970   46.4460 C   0  0  0  0  0  0  0  0  0  0  0  0
   61.2700   32.3790   47.2280 Br  0  0  0  0  0  0  0  0  0  0  0  0
   58.8660   31.6490   45.8270 C   0  0  0  0  0  0  0  0  0  0  0  0
   59.6510   28.2240   48.8870 O   0  0  0  0  0  0  0  0  0  0  0  0
   60.6700   27.2190   49.0050 C   0  0  0  0  0  0  0  0  0  0  0  0
   60.7230   26.5920   47.7170 O   0  0  0  0  0  0  0  0  0  0  0  0
   57.3871   26.6899   43.4077 H   0  0  0  0  0  0  0  0  0  0  0  0
   57.8827   28.3673   42.9990 H   0  0  0  0  0  0  0  0  0  0  0  0
   59.0996   27.0460   42.9990 H   0  0  0  0  0  0  0  0  0  0  0  0
   60.0157   26.1356   45.0303 H   0  0  0  0  0  0  0  0  0  0  0  0
   57.6499   29.7393   47.6167 H   0  0  0  0  0  0  0  0  0  0  0  0
   56.0784   33.3567   44.8186 H   0  0  0  0  0  0  0  0  0  0  0  0
   57.3115   35.2214   45.9270 H   0  0  0  0  0  0  0  0  0  0  0  0
   59.5351   34.7974   46.9817 H   0  0  0  0  0  0  0  0  0  0  0  0
   59.3169   30.6467   45.7812 H   0  0  0  0  0  0  0  0  0  0  0  0
   61.6388   27.6777   49.2519 H   0  0  0  0  0  0  0  0  0  0  0  0
   60.4494   26.4987   49.8066 H   0  0  0  0  0  0  0  0  0  0  0  0
  1  2  1  0
  2  3  2  0
  3  4  1  0
  4  5  2  0
  5  6  1  0
  6  7  2  0
  7  8  1  0
  8  9  2  0
  8 10  1  0
 10 11  1  0
 11 12  2  0
 12 13  1  0
 13 14  2  0
 14 15  1  0
 15 16  1  0
 15 17  2  0
  5 18  1  0
 18 19  1  0
 19 20  1  0
  7  2  1  0
 17 11  1  0
 20  4  1  0
  1 21  1  0
  1 22  1  0
  1 23  1  0
  3 24  1  0
  6 25  1  0
 12 26  1  0
 13 27  1  0
 14 28  1  0
 17 29  1  0
 19 30  1  0
 19 31  1  0
M  CHG  1  10  -1
M  END
>  <UniqueID>  (29) 
26

>  <SMILES>  (29) 
Cc1cc2c(cc1C(=O)[N-]c1cccc(Br)c1)OCO2

>  <Energy>  (29) 
69.54612222949046

>  <Genealogy>  (29) 
Cc1cc2c(cc1C(=O)[N-]c1cccc(Br)c1)OCO2 (protonated)
Cc1cc2c(cc1C(=O)[N-]c1cccc(Br)c1)OCO2 (3D coordinates assigned)
Cc1cc2c(cc1C(=O)[N-]c1cccc(Br)c1)OCO2 (nonaromatic ring conformer: 69.54612222949046 kcal/mol)

>  <smiles>  (29) 
Cc1cc2c(cc1C(=O)Nc1cccc(Br)c1)OCO2

>  <score_type>  (29) 
oracle

>  <origin>  (29) 
adg

>  <m_score__min__energy>  (29) 
-8.9299999999999997

>  <m_primary>  (29) 
energy

$$$$
29:0
     RDKit          3D

 20 20  0  0  0  0  0  0  0  0999 V2000
   57.6950   31.9730   41.9390 C   0  0  0  0  0  0  0  0  0  0  0  0
   57.0150   31.0460   42.6180 C   0  0  0  0  0  0  0  0  0  0  0  0
   57.4180   30.6540   44.0110 C   0  0  0  0  0  0  0  0  0  0  0  0
   56.9550   31.6150   44.9600 O   0  0  0  0  0  0  0  0  0  0  0  0
   57.7330   32.6440   45.5160 C   0  0  0  0  0  0  0  0  0  0  0  0
   58.1620   33.6790   44.6730 C   0  0  0  0  0  0  0  0  0  0  0  0
   58.9380   34.7270   45.1750 C   0  0  0  0  0  0  0  0  0  0  0  0
   59.2930   34.7510   46.5260 C   0  0  0  0  0  0  0  0  0  0  0  0
   58.8730   33.7250   47.3770 C   0  0  0  0  0  0  0  0  0  0  0  0
   58.0960   32.6740   46.8780 C   0  0  0  0  0  0  0  0  0  0  0  0
   57.3844   32.2465   40.9198 H   0  0  0  0  0  0  0  0  0  0  0  0
   58.5658   32.4632   42.3988 H   0  0  0  0  0  0  0  0  0  0  0  0
   56.1455   30.5615   42.1497 H   0  0  0  0  0  0  0  0  0  0  0  0
   56.9831   29.6723   44.2499 H   0  0  0  0  0  0  0  0  0  0  0  0
   58.5159   30.6078   44.0616 H   0  0  0  0  0  0  0  0  0  0  0  0
   57.8856   33.6659   43.6084 H   0  0  0  0  0  0  0  0  0  0  0  0
   59.2698   35.5343   44.5055 H   0  0  0  0  0  0  0  0  0  0  0  0
   59.9030   35.5773   46.9199 H   0  0  0  0  0  0  0  0  0  0  0  0
   59.1537   33.7438   48.4404 H   0  0  0  0  0  0  0  0  0  0  0  0
   57.7671   31.8682   47.5507 H   0  0  0  0  0  0  0  0  0  0  0  0
  1  2  2  0
  2  3  1  0
  3  4  1  0
  4  5  1  0
  5  6  2  0
  6  7  1  0
  7  8  2  0
  8  9  1  0
  9 10  2  0
 10  5  1  0
  1 11  1  0
  1 12  1  0
  2 13  1  0
  3 14  1  0
  3 15  1  0
  6 16  1  0
  7 17  1  0
  8 18  1  0
  9 19  1  0
 10 20  1  0
M  END
>  <UniqueID>  (30) 
27

>  <SMILES>  (30) 
C=CCOc1ccccc1

>  <Energy>  (30) 
15.616218611483413

>  <Genealogy>  (30) 
C=CCOc1ccccc1 (3D coordinates assigned)
C=CCOc1ccccc1 (optimized conformer: 15.616218611483413 kcal/mol)

>  <smiles>  (30) 
C=CCOc1ccccc1

>  <score_type>  (30) 
oracle

>  <origin>  (30) 
adg

>  <m_score__min__energy>  (30) 
-4.5199999999999996

>  <m_primary>  (30) 
energy

$$$$
30:0
     RDKit          3D

 34 35  0  0  0  0  0  0  0  0999 V2000
   60.1873   36.0854   47.6978 H   0  0  0  0  0  0  0  0  0  0  0  0
   59.7640   35.3180   47.0330 C   0  0  0  0  0  0  0  0  0  0  0  0
   59.6410   35.5700   45.6700 C   0  0  0  0  0  0  0  0  0  0  0  0
   59.9723   36.5348   45.2584 H   0  0  0  0  0  0  0  0  0  0  0  0
   59.0990   34.6030   44.8250 C   0  0  0  0  0  0  0  0  0  0  0  0
   59.0062   34.8129   43.7492 H   0  0  0  0  0  0  0  0  0  0  0  0
   58.6680   33.3590   45.3310 C   0  0  0  0  0  0  0  0  0  0  0  0
   58.0880   32.3600   44.3910 C   0  0  0  0  0  0  0  0  0  0  0  0
   58.4890   32.3320   43.1950 O   0  0  0  0  0  0  0  0  0  0  0  0
   57.0690   31.4480   44.8370 N   0  0  0  0  0  0  0  0  0  0  0  0
   57.1980   30.1860   45.1300 C   0  0  0  0  0  0  0  0  0  0  0  0
   56.0670   28.9670   44.8640 S   0  0  0  0  0  0  0  0  0  0  0  0
   57.0410   27.7510   45.5110 C   0  0  0  0  0  0  0  0  0  0  0  0
   56.6130   26.3350   45.5860 C   0  0  0  0  0  0  0  0  0  0  0  0
   55.4510   26.0750   46.0000 O   0  0  0  0  0  0  0  0  0  0  0  0
   57.4900   25.1970   45.1650 C   0  0  0  0  0  0  0  0  0  0  0  0
   57.8828   24.6873   46.0571 H   0  0  0  0  0  0  0  0  0  0  0  0
   56.9044   24.4855   44.5643 H   0  0  0  0  0  0  0  0  0  0  0  0
   58.3272   25.5820   44.5643 H   0  0  0  0  0  0  0  0  0  0  0  0
   58.2420   28.3490   45.9400 C   0  0  0  0  0  0  0  0  0  0  0  0
   59.3610   27.6330   46.6350 C   0  0  0  0  0  0  0  0  0  0  0  0
   59.2297   27.7170   47.7239 H   0  0  0  0  0  0  0  0  0  0  0  0
   59.3531   26.5718   46.3455 H   0  0  0  0  0  0  0  0  0  0  0  0
   60.3212   28.0849   46.3455 H   0  0  0  0  0  0  0  0  0  0  0  0
   58.3100   29.6930   45.7120 N   0  0  0  0  0  0  0  0  0  0  0  0
   59.1300   30.2860   45.9720 H   0  0  0  0  0  0  0  0  0  0  0  0
   58.8040   33.0990   46.7190 C   0  0  0  0  0  0  0  0  0  0  0  0
   58.4060   31.8540   47.2350 O   0  0  0  0  0  0  0  0  0  0  0  0
   58.9470   31.2460   48.4040 C   0  0  0  0  0  0  0  0  0  0  0  0
   58.5205   31.7254   49.2975 H   0  0  0  0  0  0  0  0  0  0  0  0
   58.6982   30.1745   48.4086 H   0  0  0  0  0  0  0  0  0  0  0  0
   60.0401   31.3686   48.4086 H   0  0  0  0  0  0  0  0  0  0  0  0
   59.3510   34.0930   47.5570 C   0  0  0  0  0  0  0  0  0  0  0  0
   59.4530   33.9001   48.6351 H   0  0  0  0  0  0  0  0  0  0  0  0
  1  2  1  0
  2  3  2  0
  3  4  1  0
  3  5  1  0
  5  6  1  0
  5  7  2  0
  7  8  1  0
  8  9  2  0
  8 10  1  0
 10 11  2  0
 11 12  1  0
 12 13  1  0
 13 14  1  0
 14 15  2  0
 14 16  1  0
 16 17  1  0
 16 18  1  0
 16 19  1  0
 13 20  2  0
 20 21  1  0
 21 22  1  0
 21 23  1  0
 21 24  1  0
 20 25  1  0
 25 26  1  0
  7 27  1  0
 27 28  1  0
 28 29  1  0
 29 30  1  0
 29 31  1  0
 29 32  1  0
 27 33  2  0
 33 34  1  0
 33  2  1  0
 25 11  1  0
M  END
>  <UniqueID>  (31) 
28

>  <SMILES>  (31) 
COc1ccccc1C(=O)/N=c1/[nH]c(C)c(C(C)=O)s1

>  <Energy>  (31) 
70.74498924630176

>  <Genealogy>  (31) 
COc1ccccc1C(=O)/N=c1/[nH]c(C)c(C(C)=O)s1 (cis-trans isomerization)
COc1ccccc1C(=O)/N=c1/[nH]c(C)c(C(C)=O)s1 (3D coordinates assigned)
COc1ccccc1C(=O)/N=c1/[nH]c(C)c(C(C)=O)s1 (optimized conformer: 70.74498924630176 kcal/mol)

>  <smiles>  (31) 
COc1ccccc1C(=O)N=c1[nH]c(C)c(C(C)=O)s1

>  <score_type>  (31) 
oracle

>  <origin>  (31) 
adg

>  <m_score__min__energy>  (31) 
-7.3899999999999997

>  <m_primary>  (31) 
energy

$$$$
31:0
     RDKit          3D

 29 32  0  0  0  0  0  0  0  0999 V2000
   60.0420   30.0610   47.1240 O   0  0  0  0  0  0  0  0  0  0  0  0
   59.2130   30.1180   46.1700 C   0  0  0  0  0  0  0  0  0  0  0  0
   58.8110   31.4160   45.7190 C   0  0  0  0  0  0  0  0  0  0  0  0
   59.3410   32.5730   46.3390 C   0  0  0  0  0  0  0  0  0  0  0  0
   58.9660   33.8520   45.9190 C   0  0  0  0  0  0  0  0  0  0  0  0
   58.0580   34.0110   44.8750 C   0  0  0  0  0  0  0  0  0  0  0  0
   57.5180   32.8900   44.2450 C   0  0  0  0  0  0  0  0  0  0  0  0
   57.8900   31.6080   44.6620 C   0  0  0  0  0  0  0  0  0  0  0  0
   57.2400   30.2550   43.9020 S   0  0  0  0  0  0  0  0  0  0  0  0
   57.8190   28.8150   44.5560 C   0  0  0  0  0  0  0  0  0  0  0  0
   57.3940   27.6210   44.0570 N   0  0  0  0  0  0  0  0  0  0  0  0
   57.8420   26.4380   44.5630 C   0  0  0  0  0  0  0  0  0  0  0  0
   57.3910   25.2180   44.0330 C   0  0  0  0  0  0  0  0  0  0  0  0
   57.8560   24.0090   44.5590 C   0  0  0  0  0  0  0  0  0  0  0  0
   58.7730   24.0090   45.6130 C   0  0  0  0  0  0  0  0  0  0  0  0
   59.2290   25.2170   46.1480 C   0  0  0  0  0  0  0  0  0  0  0  0
   58.7670   26.4360   45.6280 C   0  0  0  0  0  0  0  0  0  0  0  0
   59.2110   27.6570   46.1480 C   0  0  0  0  0  0  0  0  0  0  0  0
   58.7450   28.8820   45.6220 C   0  0  0  0  0  0  0  0  0  0  0  0
   60.0596   32.4635   47.1646 H   0  0  0  0  0  0  0  0  0  0  0  0
   59.3900   34.7374   46.4153 H   0  0  0  0  0  0  0  0  0  0  0  0
   57.7670   35.0200   44.5476 H   0  0  0  0  0  0  0  0  0  0  0  0
   56.8001   33.0141   43.4208 H   0  0  0  0  0  0  0  0  0  0  0  0
   56.7080   27.6180   43.2680 H   0  0  0  0  0  0  0  0  0  0  0  0
   56.6702   25.2138   43.2021 H   0  0  0  0  0  0  0  0  0  0  0  0
   57.4991   23.0557   44.1421 H   0  0  0  0  0  0  0  0  0  0  0  0
   59.1372   23.0555   46.0230 H   0  0  0  0  0  0  0  0  0  0  0  0
   59.9510   25.2123   46.9778 H   0  0  0  0  0  0  0  0  0  0  0  0
   59.9329   27.6627   46.9779 H   0  0  0  0  0  0  0  0  0  0  0  0
  1  2  2  0
  2  3  1  0
  3  4  2  0
  4  5  1  0
  5  6  2  0
  6  7  1  0
  7  8  2  0
  8  9  1  0
  9 10  1  0
 10 11  2  0
 11 12  1  0
 12 13  2  0
 13 14  1  0
 14 15  2  0
 15 16  1  0
 16 17  2  0
 17 18  1  0
 18 19  2  0
 19  2  1  0
  8  3  1  0
 19 10  1  0
 17 12  1  0
  4 20  1  0
  5 21  1  0
  6 22  1  0
  7 23  1  0
 11 24  1  0
 13 25  1  0
 14 26  1  0
 15 27  1  0
 16 28  1  0
 18 29  1  0
M  CHG  1  11   1
M  END
>  <UniqueID>  (32) 
29

>  <SMILES>  (32) 
O=c1c2ccccc2sc2[nH+]c3ccccc3cc12

>  <Energy>  (32) 
49.235441045051545

>  <Genealogy>  (32) 
O=c1c2ccccc2sc2[nH+]c3ccccc3cc12 (protonated)
O=c1c2ccccc2sc2[nH+]c3ccccc3cc12 (3D coordinates assigned)
O=c1c2ccccc2sc2[nH+]c3ccccc3cc12 (optimized conformer: 49.235441045051545 kcal/mol)

>  <smiles>  (32) 
O=c1c2ccccc2sc2nc3ccccc3cc12

>  <score_type>  (32) 
oracle

>  <origin>  (32) 
adg

>  <m_score__min__energy>  (32) 
-5.9699999999999998

>  <m_primary>  (32) 
energy

$$$$
32:0
     RDKit          3D

 29 31  0  0  0  0  0  0  0  0999 V2000
   60.0300   30.4030   45.7910 N   0  0  0  0  0  0  0  0  0  0  0  0
   59.0970   29.7220   45.7080 C   0  0  0  0  0  0  0  0  0  0  0  0
   57.9390   28.8780   45.6050 C   0  0  0  0  0  0  0  0  0  0  0  0
   57.9360   27.5600   45.8820 N   0  0  0  0  0  0  0  0  0  0  0  0
   56.6510   27.2040   45.6460 C   0  0  0  0  0  0  0  0  0  0  0  0
   56.1480   25.8410   45.8220 C   0  0  0  0  0  0  0  0  0  0  0  0
   56.9240   24.7020   45.9090 C   0  0  0  0  0  0  0  0  0  0  0  0
   56.0350   23.6620   46.0650 C   0  0  0  0  0  0  0  0  0  0  0  0
   54.7760   24.2280   46.0620 C   0  0  0  0  0  0  0  0  0  0  0  0
   54.8760   25.5290   45.9150 O   0  0  0  0  0  0  0  0  0  0  0  0
   55.9010   28.2090   45.2490 O   0  0  0  0  0  0  0  0  0  0  0  0
   56.6790   29.2610   45.2230 C   0  0  0  0  0  0  0  0  0  0  0  0
   56.2730   30.5800   44.8400 N   0  0  0  0  0  0  0  0  0  0  0  0
   57.1210   31.5400   44.1980 C   0  0  0  0  0  0  0  0  0  0  0  0
   57.3240   31.4330   42.9590 O   0  0  0  0  0  0  0  0  0  0  0  0
   57.7790   32.6370   44.9440 C   0  0  0  0  0  0  0  0  0  0  0  0
   58.5730   33.5750   44.2620 C   0  0  0  0  0  0  0  0  0  0  0  0
   59.1980   34.6120   44.9620 C   0  0  0  0  0  0  0  0  0  0  0  0
   59.0480   34.7130   46.3470 C   0  0  0  0  0  0  0  0  0  0  0  0
   58.2790   33.7720   47.0370 C   0  0  0  0  0  0  0  0  0  0  0  0
   57.6530   32.7330   46.3410 C   0  0  0  0  0  0  0  0  0  0  0  0
   58.0212   24.6388   45.8633 H   0  0  0  0  0  0  0  0  0  0  0  0
   56.2791   22.5947   46.1708 H   0  0  0  0  0  0  0  0  0  0  0  0
   53.8320   23.6732   46.1669 H   0  0  0  0  0  0  0  0  0  0  0  0
   58.7034   33.4931   43.1728 H   0  0  0  0  0  0  0  0  0  0  0  0
   59.8089   35.3495   44.4208 H   0  0  0  0  0  0  0  0  0  0  0  0
   59.5352   35.5332   46.8946 H   0  0  0  0  0  0  0  0  0  0  0  0
   58.1660   33.8486   48.1285 H   0  0  0  0  0  0  0  0  0  0  0  0
   57.0590   31.9871   46.8894 H   0  0  0  0  0  0  0  0  0  0  0  0
  1  2  3  0
  2  3  1  0
  3  4  1  0
  4  5  2  0
  5  6  1  0
  6  7  2  0
  7  8  1  0
  8  9  2  0
  9 10  1  0
  5 11  1  0
 11 12  1  0
 12 13  1  0
 13 14  1  0
 14 15  2  0
 14 16  1  0
 16 17  2  0
 17 18  1  0
 18 19  2  0
 19 20  1  0
 20 21  2  0
 12  3  2  0
 21 16  1  0
 10  6  1  0
  7 22  1  0
  8 23  1  0
  9 24  1  0
 17 25  1  0
 18 26  1  0
 19 27  1  0
 20 28  1  0
 21 29  1  0
M  CHG  1  13  -1
M  END
>  <UniqueID>  (33) 
30

>  <SMILES>  (33) 
N#Cc1nc(-c2ccco2)oc1[N-]C(=O)c1ccccc1

>  <Energy>  (33) 
90.87223004936297

>  <Genealogy>  (33) 
N#Cc1nc(-c2ccco2)oc1[N-]C(=O)c1ccccc1 (protonated)
N#Cc1nc(-c2ccco2)oc1[N-]C(=O)c1ccccc1 (3D coordinates assigned)
N#Cc1nc(-c2ccco2)oc1[N-]C(=O)c1ccccc1 (optimized conformer: 90.87223004936297 kcal/mol)

>  <smiles>  (33) 
N#Cc1nc(-c2ccco2)oc1NC(=O)c1ccccc1

>  <score_type>  (33) 
oracle

>  <origin>  (33) 
adg

>  <m_score__min__energy>  (33) 
-9.0700000000000003

>  <m_primary>  (33) 
energy

$$$$
33:0
     RDKit          3D

 39 40  0  0  0  0  0  0  0  0999 V2000
   61.4930   33.8030   46.6950 C   0  0  0  0  0  0  0  0  0  0  0  0
   60.2400   34.5630   47.1150 C   0  0  0  0  0  0  0  0  0  0  0  0
   59.2490   34.6250   45.9790 C   0  0  0  0  0  0  0  0  0  0  0  0
   59.6280   35.0560   44.8990 O   0  0  0  0  0  0  0  0  0  0  0  0
   57.8750   34.1780   46.1570 N   0  0  0  0  0  0  0  0  0  0  0  0
   57.7780   33.0360   47.0930 C   0  0  0  0  0  0  0  0  0  0  0  0
   58.1460   31.6950   46.4390 C   0  0  0  0  0  0  0  0  0  0  0  0
   57.3230   31.4730   45.2350 N   0  0  0  0  0  0  0  0  0  0  0  0
   57.6240   30.1570   44.6300 C   0  0  0  0  0  0  0  0  0  0  0  0
   56.6260   29.1130   45.0690 C   0  0  0  0  0  0  0  0  0  0  0  0
   55.4000   29.3060   44.8520 O   0  0  0  0  0  0  0  0  0  0  0  0
   57.0190   27.8940   45.7200 N   0  0  0  0  0  0  0  0  0  0  0  0
   56.4320   26.7350   45.6530 C   0  0  0  0  0  0  0  0  0  0  0  0
   55.1450   26.5030   45.9940 N   0  0  0  0  0  0  0  0  0  0  0  0
   54.7950   25.2250   45.8620 N   0  0  0  0  0  0  0  0  0  0  0  0
   55.8070   24.4360   45.4370 C   0  0  0  0  0  0  0  0  0  0  0  0
   55.6530   22.9820   45.1490 C   0  0  0  0  0  0  0  0  0  0  0  0
   57.2150   25.3260   45.1730 S   0  0  0  0  0  0  0  0  0  0  0  0
   57.5760   32.5490   44.2610 C   0  0  0  0  0  0  0  0  0  0  0  0
   57.2040   33.9130   44.8640 C   0  0  0  0  0  0  0  0  0  0  0  0
   62.0387   33.4720   47.5909 H   0  0  0  0  0  0  0  0  0  0  0  0
   61.2064   32.9264   46.0955 H   0  0  0  0  0  0  0  0  0  0  0  0
   62.1380   34.4622   46.0955 H   0  0  0  0  0  0  0  0  0  0  0  0
   59.7767   34.0506   47.9710 H   0  0  0  0  0  0  0  0  0  0  0  0
   60.5245   35.5886   47.3930 H   0  0  0  0  0  0  0  0  0  0  0  0
   57.3400   34.9620   46.6010 H   0  0  0  0  0  0  0  0  0  0  0  0
   58.4610   33.2144   47.9366 H   0  0  0  0  0  0  0  0  0  0  0  0
   56.7308   32.9667   47.4224 H   0  0  0  0  0  0  0  0  0  0  0  0
   59.2087   31.7085   46.1554 H   0  0  0  0  0  0  0  0  0  0  0  0
   57.9593   30.8824   47.1565 H   0  0  0  0  0  0  0  0  0  0  0  0
   57.5883   30.2492   43.5345 H   0  0  0  0  0  0  0  0  0  0  0  0
   58.6250   29.8426   44.9605 H   0  0  0  0  0  0  0  0  0  0  0  0
   55.5940   22.4249   46.0957 H   0  0  0  0  0  0  0  0  0  0  0  0
   54.7325   22.8185   44.5694 H   0  0  0  0  0  0  0  0  0  0  0  0
   56.5188   22.6293   44.5694 H   0  0  0  0  0  0  0  0  0  0  0  0
   58.6423   32.5504   43.9907 H   0  0  0  0  0  0  0  0  0  0  0  0
   56.9606   32.3736   43.3663 H   0  0  0  0  0  0  0  0  0  0  0  0
   57.4916   34.7008   44.1522 H   0  0  0  0  0  0  0  0  0  0  0  0
   56.1203   33.9042   45.0522 H   0  0  0  0  0  0  0  0  0  0  0  0
  1  2  1  0
  2  3  1  0
  3  4  2  0
  3  5  1  0
  5  6  1  0
  6  7  1  0
  7  8  1  0
  8  9  1  0
  9 10  1  0
 10 11  2  0
 10 12  1  0
 12 13  2  3
 13 14  1  0
 14 15  1  0
 15 16  2  0
 16 17  1  0
 16 18  1  0
  8 19  1  0
 19 20  1  0
 20  5  1  0
 18 13  1  0
  1 21  1  0
  1 22  1  0
  1 23  1  0
  2 24  1  0
  2 25  1  0
  5 26  1  0
  6 27  1  0
  6 28  1  0
  7 29  1  0
  7 30  1  0
  9 31  1  0
  9 32  1  0
 17 33  1  0
 17 34  1  0
 17 35  1  0
 19 36  1  0
 19 37  1  0
 20 38  1  0
 20 39  1  0
M  CHG  2   5   1  14  -1
M  END
>  <UniqueID>  (34) 
31

>  <SMILES>  (34) 
CCC(=O)[NH+]1CCN(CC(=O)N=c2[n-]nc(C)s2)CC1

>  <Energy>  (34) 
75.74632197484291

>  <Genealogy>  (34) 
CCC(=O)[NH+]1CCN(CC(=O)N=c2[n-]nc(C)s2)CC1 (protonated)
CCC(=O)[NH+]1CCN(CC(=O)N=c2[n-]nc(C)s2)CC1 (3D coordinates assigned)
CCC(=O)[NH+]1CCN(CC(=O)N=c2[n-]nc(C)s2)CC1 (nonaromatic ring conformer: 75.74632197484291 kcal/mol)

>  <smiles>  (34) 
CCC(=O)N1CCN(CC(=O)N=c2[nH]nc(C)s2)CC1

>  <score_type>  (34) 
oracle

>  <origin>  (34) 
adg

>  <m_score__min__energy>  (34) 
-8.5700000000000003

>  <m_primary>  (34) 
energy

$$$$
34:0
     RDKit          3D

 47 49  0  0  0  0  0  0  0  0999 V2000
   59.3194   35.1651   46.9642 H   0  0  0  0  0  0  0  0  0  0  0  0
   59.8680   34.2120   46.9370 C   0  0  0  0  0  0  0  0  0  0  0  0
   59.3440   33.2180   46.1870 C   0  0  0  0  0  0  0  0  0  0  0  0
   59.2120   31.8130   46.6800 C   0  0  0  0  0  0  0  0  0  0  0  0
   59.1760   31.5610   47.9140 O   0  0  0  0  0  0  0  0  0  0  0  0
   59.0050   30.6860   45.7100 C   0  0  0  0  0  0  0  0  0  0  0  0
   58.9134   29.7371   46.2589 H   0  0  0  0  0  0  0  0  0  0  0  0
   59.8618   30.6199   45.0233 H   0  0  0  0  0  0  0  0  0  0  0  0
   57.7550   30.9430   44.9400 C   0  0  0  0  0  0  0  0  0  0  0  0
   56.8600   30.0030   44.8190 N   0  0  0  0  0  0  0  0  0  0  0  0
   57.1120   28.5990   44.6650 C   0  0  0  0  0  0  0  0  0  0  0  0
   56.7510   27.6760   45.6600 C   0  0  0  0  0  0  0  0  0  0  0  0
   56.2408   28.0239   46.5703 H   0  0  0  0  0  0  0  0  0  0  0  0
   57.0370   26.3170   45.4990 C   0  0  0  0  0  0  0  0  0  0  0  0
   56.7312   25.5976   46.2729 H   0  0  0  0  0  0  0  0  0  0  0  0
   57.7150   25.8650   44.3500 C   0  0  0  0  0  0  0  0  0  0  0  0
   58.0250   24.5130   44.1300 O   0  0  0  0  0  0  0  0  0  0  0  0
   57.1280   23.4160   44.3020 C   0  0  0  0  0  0  0  0  0  0  0  0
   56.3785   23.6785   45.0631 H   0  0  0  0  0  0  0  0  0  0  0  0
   57.7041   22.5350   44.6213 H   0  0  0  0  0  0  0  0  0  0  0  0
   56.4180   23.0890   42.9920 C   0  0  0  0  0  0  0  0  0  0  0  0
   55.4384   22.6378   43.2086 H   0  0  0  0  0  0  0  0  0  0  0  0
   56.2761   24.0125   42.4114 H   0  0  0  0  0  0  0  0  0  0  0  0
   57.0275   22.3809   42.4114 H   0  0  0  0  0  0  0  0  0  0  0  0
   58.0980   26.7960   43.3760 C   0  0  0  0  0  0  0  0  0  0  0  0
   58.6296   26.4551   42.4754 H   0  0  0  0  0  0  0  0  0  0  0  0
   57.8110   28.1530   43.5380 C   0  0  0  0  0  0  0  0  0  0  0  0
   58.1364   28.8755   42.7751 H   0  0  0  0  0  0  0  0  0  0  0  0
   57.6100   32.5130   44.1600 S   0  0  0  0  0  0  0  0  0  0  0  0
   57.7790   32.3250   42.3990 C   0  0  0  0  0  0  0  0  0  0  0  0
   58.5001   31.5228   42.1834 H   0  0  0  0  0  0  0  0  0  0  0  0
   56.8027   32.0675   41.9624 H   0  0  0  0  0  0  0  0  0  0  0  0
   58.1386   33.2684   41.9624 H   0  0  0  0  0  0  0  0  0  0  0  0
   58.9360   33.5520   44.7640 C   0  0  0  0  0  0  0  0  0  0  0  0
   58.6041   34.6002   44.7305 H   0  0  0  0  0  0  0  0  0  0  0  0
   59.8109   33.3799   44.1198 H   0  0  0  0  0  0  0  0  0  0  0  0
   61.1160   34.1270   47.7240 C   0  0  0  0  0  0  0  0  0  0  0  0
   62.3180   33.8080   47.0760 C   0  0  0  0  0  0  0  0  0  0  0  0
   62.3311   33.6627   45.9857 H   0  0  0  0  0  0  0  0  0  0  0  0
   63.5000   33.6740   47.8110 C   0  0  0  0  0  0  0  0  0  0  0  0
   64.4437   33.4415   47.2959 H   0  0  0  0  0  0  0  0  0  0  0  0
   63.4840   33.8350   49.1990 C   0  0  0  0  0  0  0  0  0  0  0  0
   64.4160   33.7349   49.7747 H   0  0  0  0  0  0  0  0  0  0  0  0
   62.2850   34.1230   49.8560 C   0  0  0  0  0  0  0  0  0  0  0  0
   62.2725   34.2437   50.9493 H   0  0  0  0  0  0  0  0  0  0  0  0
   61.1000   34.2580   49.1240 C   0  0  0  0  0  0  0  0  0  0  0  0
   60.1540   34.4670   49.6449 H   0  0  0  0  0  0  0  0  0  0  0  0
  1  2  1  0
  2  3  2  3
  3  4  1  0
  4  5  2  0
  4  6  1  0
  6  7  1  0
  6  8  1  0
  6  9  1  0
  9 10  2  0
 10 11  1  0
 11 12  2  0
 12 13  1  0
 12 14  1  0
 14 15  1  0
 14 16  2  0
 16 17  1  0
 17 18  1  0
 18 19  1  0
 18 20  1  0
 18 21  1  0
 21 22  1  0
 21 23  1  0
 21 24  1  0
 16 25  1  0
 25 26  1  0
 25 27  2  0
 27 28  1  0
  9 29  1  0
 29 30  1  6
 30 31  1  0
 30 32  1  0
 30 33  1  0
 29 34  1  0
 34 35  1  0
 34 36  1  0
  2 37  1  0
 37 38  2  0
 38 39  1  0
 38 40  1  0
 40 41  1  0
 40 42  2  0
 42 43  1  0
 42 44  1  0
 44 45  1  0
 44 46  2  0
 46 47  1  0
 34  3  1  0
 46 37  1  0
 27 11  1  0
M  CHG  1  29   1
M  END
>  <UniqueID>  (35) 
32

>  <SMILES>  (35) 
CCOc1ccc(/N=C2/CC(=O)C(=Cc3ccccc3)C[S@@+]2C)cc1

>  <Energy>  (35) 
61.03274589885081

>  <Genealogy>  (35) 
CCOc1ccc(N=C2CC(=O)C(=Cc3ccccc3)C[S@@+]2C)cc1 (chirality)
CCOc1ccc(/N=C2/CC(=O)C(=Cc3ccccc3)C[S@@+]2C)cc1 (cis-trans isomerization)
CCOc1ccc(/N=C2/CC(=O)C(=Cc3ccccc3)C[S@@+]2C)cc1 (3D coordinates assigned)
CCOc1ccc(/N=C2/CC(=O)C(=Cc3ccccc3)C[S@@+]2C)cc1 (nonaromatic ring conformer: 61.03274589885081 kcal/mol)

>  <smiles>  (35) 
CCOc1ccc(N=C2CC(=O)C(=Cc3ccccc3)C[S+]2C)cc1

>  <score_type>  (35) 
oracle

>  <origin>  (35) 
adg

>  <m_score__min__energy>  (35) 
-6.7800000000000002

>  <m_primary>  (35) 
energy

$$$$
35:0
     RDKit          3D

 30 32  0  0  0  0  0  0  0  0999 V2000
   57.0120   29.3620   43.3440 C   0  0  0  0  0  0  0  0  0  0  0  0
   56.0980   30.0200   44.3310 C   0  0  0  0  0  0  0  0  0  0  0  0
   55.1890   29.3360   44.8700 O   0  0  0  0  0  0  0  0  0  0  0  0
   56.2470   31.3950   44.7110 N   0  0  0  0  0  0  0  0  0  0  0  0
   57.4480   32.0290   45.1730 C   0  0  0  0  0  0  0  0  0  0  0  0
   57.7080   33.3470   44.7840 C   0  0  0  0  0  0  0  0  0  0  0  0
   58.8770   33.9900   45.1950 C   0  0  0  0  0  0  0  0  0  0  0  0
   59.8170   33.3130   45.9870 C   0  0  0  0  0  0  0  0  0  0  0  0
   60.9560   33.9370   46.3870 N   0  0  0  0  0  0  0  0  0  0  0  0
   61.8860   33.2930   47.1480 C   0  0  0  0  0  0  0  0  0  0  0  0
   63.0480   33.9750   47.5410 C   0  0  0  0  0  0  0  0  0  0  0  0
   64.0030   33.3240   48.3160 C   0  0  0  0  0  0  0  0  0  0  0  0
   63.7970   32.0030   48.6960 C   0  0  0  0  0  0  0  0  0  0  0  0
   62.6350   31.3430   48.2950 C   0  0  0  0  0  0  0  0  0  0  0  0
   61.6890   31.9810   47.5290 N   0  0  0  0  0  0  0  0  0  0  0  0
   60.5490   31.3200   47.1420 C   0  0  0  0  0  0  0  0  0  0  0  0
   60.3570   30.1180   47.4860 O   0  0  0  0  0  0  0  0  0  0  0  0
   59.5820   31.9760   46.3600 C   0  0  0  0  0  0  0  0  0  0  0  0
   58.4000   31.3350   45.9400 C   0  0  0  0  0  0  0  0  0  0  0  0
   57.7905   28.8015   43.8823 H   0  0  0  0  0  0  0  0  0  0  0  0
   56.4337   28.6717   42.7124 H   0  0  0  0  0  0  0  0  0  0  0  0
   57.4832   30.1295   42.7124 H   0  0  0  0  0  0  0  0  0  0  0  0
   56.9857   33.8812   44.1492 H   0  0  0  0  0  0  0  0  0  0  0  0
   59.0622   35.0324   44.8966 H   0  0  0  0  0  0  0  0  0  0  0  0
   61.1210   34.9310   46.1040 H   0  0  0  0  0  0  0  0  0  0  0  0
   63.2033   35.0208   47.2374 H   0  0  0  0  0  0  0  0  0  0  0  0
   64.9165   33.8523   48.6264 H   0  0  0  0  0  0  0  0  0  0  0  0
   64.5459   31.4808   49.3095 H   0  0  0  0  0  0  0  0  0  0  0  0
   62.4738   30.2974   48.5962 H   0  0  0  0  0  0  0  0  0  0  0  0
   58.2208   30.2848   46.2139 H   0  0  0  0  0  0  0  0  0  0  0  0
  1  2  1  0
  2  3  2  0
  2  4  1  0
  4  5  1  0
  5  6  2  0
  6  7  1  0
  7  8  2  0
  8  9  1  0
  9 10  2  0
 10 11  1  0
 11 12  2  0
 12 13  1  0
 13 14  2  0
 14 15  1  0
 15 16  1  0
 16 17  2  0
 16 18  1  0
 18 19  2  0
 19  5  1  0
 18  8  1  0
 15 10  1  0
  1 20  1  0
  1 21  1  0
  1 22  1  0
  6 23  1  0
  7 24  1  0
  9 25  1  0
 11 26  1  0
 12 27  1  0
 13 28  1  0
 14 29  1  0
 19 30  1  0
M  CHG  2   4  -1   9   1
M  END
>  <UniqueID>  (36) 
33

>  <SMILES>  (36) 
CC(=O)[N-]c1ccc2[nH+]c3ccccn3c(=O)c2c1

>  <Energy>  (36) 
46.043058844535686

>  <Genealogy>  (36) 
CC(=O)[N-]c1ccc2[nH+]c3ccccn3c(=O)c2c1 (protonated)
CC(=O)[N-]c1ccc2[nH+]c3ccccn3c(=O)c2c1 (3D coordinates assigned)
CC(=O)[N-]c1ccc2[nH+]c3ccccn3c(=O)c2c1 (optimized conformer: 46.043058844535686 kcal/mol)

>  <smiles>  (36) 
CC(=O)Nc1ccc2nc3ccccn3c(=O)c2c1

>  <score_type>  (36) 
oracle

>  <origin>  (36) 
adg

>  <m_score__min__energy>  (36) 
-7.7300000000000004

>  <m_primary>  (36) 
energy

$$$$
36:0
     RDKit          3D

 33 34  0  0  0  0  0  0  0  0999 V2000
   58.5240   22.1560   44.5550 C   0  0  0  0  0  0  0  0  0  0  0  0
   57.9270   23.5500   44.3920 C   0  0  0  0  0  0  0  0  0  0  0  0
   56.4500   23.4870   44.1270 C   0  0  0  0  0  0  0  0  0  0  0  0
   55.9210   22.8180   43.0840 N   0  0  0  0  0  0  0  0  0  0  0  0
   54.6300   22.9600   43.1510 O   0  0  0  0  0  0  0  0  0  0  0  0
   54.2800   23.6900   44.1840 C   0  0  0  0  0  0  0  0  0  0  0  0
   52.8570   23.9800   44.5370 C   0  0  0  0  0  0  0  0  0  0  0  0
   55.4300   24.0930   44.8490 C   0  0  0  0  0  0  0  0  0  0  0  0
   55.5570   24.9180   46.0730 C   0  0  0  0  0  0  0  0  0  0  0  0
   55.6620   24.3450   47.1880 O   0  0  0  0  0  0  0  0  0  0  0  0
   55.5160   26.3500   46.0420 N   0  0  0  0  0  0  0  0  0  0  0  0
   56.6050   27.2440   45.7690 C   0  0  0  0  0  0  0  0  0  0  0  0
   57.9100   26.7990   46.0220 C   0  0  0  0  0  0  0  0  0  0  0  0
   59.0110   27.6330   45.7800 C   0  0  0  0  0  0  0  0  0  0  0  0
   60.3970   27.1700   46.1170 C   0  0  0  0  0  0  0  0  0  0  0  0
   58.7990   28.9290   45.2880 C   0  0  0  0  0  0  0  0  0  0  0  0
   57.5050   29.3660   44.9990 C   0  0  0  0  0  0  0  0  0  0  0  0
   56.4080   28.5280   45.2190 C   0  0  0  0  0  0  0  0  0  0  0  0
   55.1410   28.9700   44.8640 O   0  0  0  0  0  0  0  0  0  0  0  0
   58.6239   21.9228   45.6253 H   0  0  0  0  0  0  0  0  0  0  0  0
   57.8637   21.4163   44.0786 H   0  0  0  0  0  0  0  0  0  0  0  0
   59.5150   22.1235   44.0786 H   0  0  0  0  0  0  0  0  0  0  0  0
   58.1008   24.1237   45.3143 H   0  0  0  0  0  0  0  0  0  0  0  0
   58.4121   24.0356   43.5325 H   0  0  0  0  0  0  0  0  0  0  0  0
   52.7479   24.0022   45.6314 H   0  0  0  0  0  0  0  0  0  0  0  0
   52.5672   24.9557   44.1197 H   0  0  0  0  0  0  0  0  0  0  0  0
   52.2085   23.1955   44.1197 H   0  0  0  0  0  0  0  0  0  0  0  0
   58.0721   25.7844   46.4147 H   0  0  0  0  0  0  0  0  0  0  0  0
   60.5148   27.1306   47.2100 H   0  0  0  0  0  0  0  0  0  0  0  0
   60.5618   26.1680   45.6941 H   0  0  0  0  0  0  0  0  0  0  0  0
   61.1310   27.8717   45.6941 H   0  0  0  0  0  0  0  0  0  0  0  0
   59.6541   29.6026   45.1295 H   0  0  0  0  0  0  0  0  0  0  0  0
   57.3475   30.3770   44.5953 H   0  0  0  0  0  0  0  0  0  0  0  0
  1  2  1  0
  2  3  1  0
  3  4  2  0
  4  5  1  0
  5  6  1  0
  6  7  1  0
  6  8  2  0
  8  9  1  0
  9 10  2  0
  9 11  1  0
 11 12  1  0
 12 13  2  0
 13 14  1  0
 14 15  1  0
 14 16  2  0
 16 17  1  0
 17 18  2  0
 18 19  1  0
  8  3  1  0
 18 12  1  0
  1 20  1  0
  1 21  1  0
  1 22  1  0
  2 23  1  0
  2 24  1  0
  7 25  1  0
  7 26  1  0
  7 27  1  0
 13 28  1  0
 15 29  1  0
 15 30  1  0
 15 31  1  0
 16 32  1  0
 17 33  1  0
M  CHG  2  11  -1  19  -1
M  END
>  <UniqueID>  (37) 
34

>  <SMILES>  (37) 
CCc1noc(C)c1C(=O)[N-]c1cc(C)ccc1[O-]

>  <Energy>  (37) 
67.25421661701893

>  <Genealogy>  (37) 
CCc1noc(C)c1C(=O)[N-]c1cc(C)ccc1[O-] (protonated)
CCc1noc(C)c1C(=O)[N-]c1cc(C)ccc1[O-] (3D coordinates assigned)
CCc1noc(C)c1C(=O)[N-]c1cc(C)ccc1[O-] (optimized conformer: 67.25421661701893 kcal/mol)

>  <smiles>  (37) 
CCc1noc(C)c1C(=O)Nc1cc(C)ccc1O

>  <score_type>  (37) 
oracle

>  <origin>  (37) 
adg

>  <m_score__min__energy>  (37) 
-12.59

>  <m_primary>  (37) 
energy

$$$$
37:0
     RDKit          3D

 25 26  0  0  0  0  0  0  0  0999 V2000
   59.8065   30.9126   46.2149 H   0  0  0  0  0  0  0  0  0  0  0  0
   59.1670   30.0240   46.1080 C   0  0  0  0  0  0  0  0  0  0  0  0
   57.8720   30.1420   45.5960 C   0  0  0  0  0  0  0  0  0  0  0  0
   57.3580   31.4250   45.2020 C   0  0  0  0  0  0  0  0  0  0  0  0
   56.9440   32.4580   44.8870 N   0  0  0  0  0  0  0  0  0  0  0  0
   57.0890   29.0370   45.4680 N   0  0  0  0  0  0  0  0  0  0  0  0
   57.5210   27.7940   45.8240 C   0  0  0  0  0  0  0  0  0  0  0  0
   56.6110   26.6410   45.6550 C   0  0  0  0  0  0  0  0  0  0  0  0
   56.9200   25.3970   45.1320 C   0  0  0  0  0  0  0  0  0  0  0  0
   57.8907   25.0392   44.7583 H   0  0  0  0  0  0  0  0  0  0  0  0
   55.7180   24.7080   45.1900 C   0  0  0  0  0  0  0  0  0  0  0  0
   55.4790   23.4970   44.7750 N   0  0  0  0  0  0  0  0  0  0  0  0
   56.2850   22.6930   43.8980 C   0  0  0  0  0  0  0  0  0  0  0  0
   55.7770   22.2710   42.8260 O   0  0  0  0  0  0  0  0  0  0  0  0
   57.6790   22.2720   44.2510 C   0  0  0  0  0  0  0  0  0  0  0  0
   57.7862   22.2396   45.3453 H   0  0  0  0  0  0  0  0  0  0  0  0
   57.8774   21.2739   43.8334 H   0  0  0  0  0  0  0  0  0  0  0  0
   58.3967   22.9934   43.8334 H   0  0  0  0  0  0  0  0  0  0  0  0
   54.7520   25.4940   45.6990 N   0  0  0  0  0  0  0  0  0  0  0  0
   55.3040   26.6620   45.9850 N   0  0  0  0  0  0  0  0  0  0  0  0
   54.7790   27.4660   46.3960 H   0  0  0  0  0  0  0  0  0  0  0  0
   58.8190   27.6430   46.3430 C   0  0  0  0  0  0  0  0  0  0  0  0
   59.1859   26.6486   46.6373 H   0  0  0  0  0  0  0  0  0  0  0  0
   59.6390   28.7650   46.4820 C   0  0  0  0  0  0  0  0  0  0  0  0
   60.6563   28.6564   46.8860 H   0  0  0  0  0  0  0  0  0  0  0  0
  1  2  1  0
  2  3  2  0
  3  4  1  0
  4  5  3  0
  3  6  1  0
  6  7  2  0
  7  8  1  0
  8  9  2  0
  9 10  1  0
  9 11  1  0
 11 12  2  0
 12 13  1  0
 13 14  2  0
 13 15  1  0
 15 16  1  0
 15 17  1  0
 15 18  1  0
 11 19  1  0
 19 20  1  0
 20 21  1  0
  7 22  1  0
 22 23  1  0
 22 24  2  0
 24 25  1  0
 24  2  1  0
 20  8  1  0
M  CHG  1  19  -1
M  END
>  <UniqueID>  (38) 
35

>  <SMILES>  (38) 
CC(=O)/N=c1\cc(-c2cccc(C#N)n2)[nH][n-]1

>  <Energy>  (38) 
61.42566039541883

>  <Genealogy>  (38) 
CC(=O)N=c1cc(-c2cccc(C#N)n2)[nH][n-]1 (protonated)
CC(=O)/N=c1\cc(-c2cccc(C#N)n2)[nH][n-]1 (cis-trans isomerization)
CC(=O)/N=c1\cc(-c2cccc(C#N)n2)[nH][n-]1 (3D coordinates assigned)
CC(=O)/N=c1\cc(-c2cccc(C#N)n2)[nH][n-]1 (optimized conformer: 61.42566039541883 kcal/mol)

>  <smiles>  (38) 
CC(=O)N=c1cc(-c2cccc(C#N)n2)[nH][nH]1

>  <score_type>  (38) 
oracle

>  <origin>  (38) 
adg

>  <m_score__min__energy>  (38) 
-8.3699999999999992

>  <m_primary>  (38) 
energy

$$$$
38:0
     RDKit          3D

 32 34  0  0  0  0  0  0  0  0999 V2000
   60.0069   33.8195   49.8205 H   0  0  0  0  0  0  0  0  0  0  0  0
   60.2280   33.8250   48.7430 C   0  0  0  0  0  0  0  0  0  0  0  0
   59.1830   33.8770   47.8150 C   0  0  0  0  0  0  0  0  0  0  0  0
   58.1404   33.9086   48.1642 H   0  0  0  0  0  0  0  0  0  0  0  0
   59.4610   33.8890   46.4400 C   0  0  0  0  0  0  0  0  0  0  0  0
   58.1500   33.9680   45.2680 S   0  0  0  0  0  0  0  0  0  0  0  0
   56.8070   33.9420   45.9460 O   0  0  0  0  0  0  0  0  0  0  0  0
   58.2700   35.2650   44.5200 O   0  0  0  0  0  0  0  0  0  0  0  0
   58.2550   32.6690   44.1160 N   0  0  0  0  0  0  0  0  0  0  0  0
   57.9460   31.3970   44.1520 C   0  0  0  0  0  0  0  0  0  0  0  0
   57.0470   30.9760   43.1620 C   0  0  0  0  0  0  0  0  0  0  0  0
   56.8064   31.6486   42.3255 H   0  0  0  0  0  0  0  0  0  0  0  0
   56.4560   29.7200   43.2240 C   0  0  0  0  0  0  0  0  0  0  0  0
   55.7444   29.4113   42.4440 H   0  0  0  0  0  0  0  0  0  0  0  0
   56.7510   28.8740   44.2390 N   0  0  0  0  0  0  0  0  0  0  0  0
   56.2680   27.9470   44.2650 H   0  0  0  0  0  0  0  0  0  0  0  0
   57.6850   29.1880   45.1810 C   0  0  0  0  0  0  0  0  0  0  0  0
   58.0060   28.2430   46.1690 C   0  0  0  0  0  0  0  0  0  0  0  0
   57.4446   27.2987   46.2244 H   0  0  0  0  0  0  0  0  0  0  0  0
   59.0300   28.4930   47.0790 C   0  0  0  0  0  0  0  0  0  0  0  0
   59.2563   27.7619   47.8691 H   0  0  0  0  0  0  0  0  0  0  0  0
   59.7660   29.6700   46.9860 C   0  0  0  0  0  0  0  0  0  0  0  0
   60.6007   29.8493   47.6796 H   0  0  0  0  0  0  0  0  0  0  0  0
   59.4510   30.6250   46.0170 C   0  0  0  0  0  0  0  0  0  0  0  0
   60.0651   31.5340   45.9350 H   0  0  0  0  0  0  0  0  0  0  0  0
   58.3580   30.4450   45.1400 C   0  0  0  0  0  0  0  0  0  0  0  0
   60.7920   33.8390   46.0020 C   0  0  0  0  0  0  0  0  0  0  0  0
   61.0159   33.8415   44.9250 H   0  0  0  0  0  0  0  0  0  0  0  0
   61.8350   33.7860   46.9310 C   0  0  0  0  0  0  0  0  0  0  0  0
   62.8782   33.7490   46.5841 H   0  0  0  0  0  0  0  0  0  0  0  0
   61.5540   33.7800   48.3010 C   0  0  0  0  0  0  0  0  0  0  0  0
   62.9810   33.7100   49.5690 Br  0  0  0  0  0  0  0  0  0  0  0  0
  1  2  1  0
  2  3  2  0
  3  4  1  0
  3  5  1  0
  5  6  1  0
  6  7  2  0
  6  8  2  0
  6  9  1  0
  9 10  2  0
 10 11  1  0
 11 12  1  0
 11 13  2  0
 13 14  1  0
 13 15  1  0
 15 16  1  0
 15 17  1  0
 17 18  2  0
 18 19  1  0
 18 20  1  0
 20 21  1  0
 20 22  2  0
 22 23  1  0
 22 24  1  0
 24 25  1  0
 24 26  2  0
  5 27  2  0
 27 28  1  0
 27 29  1  0
 29 30  1  0
 29 31  2  0
 31 32  1  0
 31  2  1  0
 26 10  1  0
 26 17  1  0
M  END
>  <UniqueID>  (39) 
36

>  <SMILES>  (39) 
O=S(=O)(/N=c1/cc[nH]c2ccccc12)c1ccc(Br)cc1

>  <Energy>  (39) 
59.92795990567055

>  <Genealogy>  (39) 
O=S(=O)(/N=c1/cc[nH]c2ccccc12)c1ccc(Br)cc1 (cis-trans isomerization)
O=S(=O)(/N=c1/cc[nH]c2ccccc12)c1ccc(Br)cc1 (3D coordinates assigned)
O=S(=O)(/N=c1/cc[nH]c2ccccc12)c1ccc(Br)cc1 (optimized conformer: 59.92795990567055 kcal/mol)

>  <smiles>  (39) 
O=S(=O)(N=c1cc[nH]c2ccccc12)c1ccc(Br)cc1

>  <score_type>  (39) 
oracle

>  <origin>  (39) 
adg

>  <m_score__min__energy>  (39) 
-8.7799999999999994

>  <m_primary>  (39) 
energy

$$$$
39:0
     RDKit          3D

 27 28  0  0  0  0  0  0  0  0999 V2000
   55.6520   28.3850   54.2850 C   0  0  0  0  0  0  0  0  0  0  0  0
   55.2510   28.5060   52.9250 O   0  0  0  0  0  0  0  0  0  0  0  0
   54.2750   29.4010   52.4560 C   0  0  0  0  0  0  0  0  0  0  0  0
   52.9100   29.0650   52.4360 C   0  0  0  0  0  0  0  0  0  0  0  0
   51.9620   29.9950   52.0120 C   0  0  0  0  0  0  0  0  0  0  0  0
   52.3780   31.2690   51.6070 C   0  0  0  0  0  0  0  0  0  0  0  0
   51.4060   32.2820   51.1630 C   0  0  0  0  0  0  0  0  0  0  0  0
   50.9260   33.1000   51.9910 O   0  0  0  0  0  0  0  0  0  0  0  0
   51.0070   32.3470   49.8330 O   0  0  0  0  0  0  0  0  0  0  0  0
   53.7040   31.5720   51.6220 N   0  0  0  0  0  0  0  0  0  0  0  0
   54.6600   30.6850   52.0160 C   0  0  0  0  0  0  0  0  0  0  0  0
   56.0770   31.1130   51.9880 C   0  0  0  0  0  0  0  0  0  0  0  0
   56.4520   32.4180   52.3560 C   0  0  0  0  0  0  0  0  0  0  0  0
   57.7980   32.7970   52.3430 C   0  0  0  0  0  0  0  0  0  0  0  0
   58.7820   31.8770   51.9740 C   0  0  0  0  0  0  0  0  0  0  0  0
   58.4220   30.5730   51.6240 C   0  0  0  0  0  0  0  0  0  0  0  0
   57.0770   30.1900   51.6370 C   0  0  0  0  0  0  0  0  0  0  0  0
   54.8064   28.6401   54.9407 H   0  0  0  0  0  0  0  0  0  0  0  0
   55.9703   27.3508   54.4828 H   0  0  0  0  0  0  0  0  0  0  0  0
   56.4892   29.0705   54.4828 H   0  0  0  0  0  0  0  0  0  0  0  0
   52.5884   28.0631   52.7566 H   0  0  0  0  0  0  0  0  0  0  0  0
   50.8946   29.7297   51.9958 H   0  0  0  0  0  0  0  0  0  0  0  0
   55.6821   33.1443   52.6556 H   0  0  0  0  0  0  0  0  0  0  0  0
   58.0824   33.8218   52.6240 H   0  0  0  0  0  0  0  0  0  0  0  0
   59.8397   32.1788   51.9589 H   0  0  0  0  0  0  0  0  0  0  0  0
   59.1973   29.8470   51.3380 H   0  0  0  0  0  0  0  0  0  0  0  0
   56.7999   29.1593   51.3707 H   0  0  0  0  0  0  0  0  0  0  0  0
  1  2  1  0
  2  3  1  0
  3  4  2  0
  4  5  1  0
  5  6  2  0
  6  7  1  0
  7  8  2  0
  7  9  1  0
  6 10  1  0
 10 11  2  0
 11 12  1  0
 12 13  2  0
 13 14  1  0
 14 15  2  0
 15 16  1  0
 16 17  2  0
 11  3  1  0
 17 12  1  0
  1 18  1  0
  1 19  1  0
  1 20  1  0
  4 21  1  0
  5 22  1  0
 13 23  1  0
 14 24  1  0
 15 25  1  0
 16 26  1  0
 17 27  1  0
M  CHG  1   9  -1
M  END
>  <UniqueID>  (40) 
37

>  <SMILES>  (40) 
COc1ccc(C(=O)[O-])nc1-c1ccccc1

>  <Energy>  (40) 
32.930016124695214

>  <Genealogy>  (40) 
COc1ccc(C(=O)[O-])nc1-c1ccccc1 (protonated)
COc1ccc(C(=O)[O-])nc1-c1ccccc1 (3D coordinates assigned)
COc1ccc(C(=O)[O-])nc1-c1ccccc1 (optimized conformer: 32.930016124695214 kcal/mol)

>  <smiles>  (40) 
COc1ccc(C(=O)O)nc1-c1ccccc1

>  <score_type>  (40) 
oracle

>  <origin>  (40) 
adg

>  <m_score__min__energy>  (40) 
-8.9800000000000004

>  <m_primary>  (40) 
energy

$$$$
40:0
     RDKit          3D

 39 41  0  0  0  0  0  0  0  0999 V2000
   56.2760   29.3350   42.7100 N   0  0  0  0  0  0  0  0  0  0  0  0
   56.9950   30.3180   43.4580 C   0  0  0  0  0  0  0  0  0  0  0  0
   57.4210   31.5020   42.8410 C   0  0  0  0  0  0  0  0  0  0  0  0
   58.1250   32.4650   43.5710 C   0  0  0  0  0  0  0  0  0  0  0  0
   58.4150   32.2540   44.9300 C   0  0  0  0  0  0  0  0  0  0  0  0
   59.1290   33.2510   45.6870 N   0  0  0  0  0  0  0  0  0  0  0  0
   58.5170   34.5700   45.9150 C   0  0  0  0  0  0  0  0  0  0  0  0
   59.2740   35.3680   46.9860 C   0  0  0  0  0  0  0  0  0  0  0  0
   59.5980   34.4840   48.1990 C   0  0  0  0  0  0  0  0  0  0  0  0
   60.3630   33.1810   47.8200 C   0  0  2  0  0  0  0  0  0  0  0  0
   61.7550   33.1410   48.4230 C   0  0  0  0  0  0  0  0  0  0  0  0
   61.9690   33.4870   49.7710 C   0  0  0  0  0  0  0  0  0  0  0  0
   63.2580   33.4610   50.3120 C   0  0  0  0  0  0  0  0  0  0  0  0
   64.3450   33.0950   49.5150 C   0  0  0  0  0  0  0  0  0  0  0  0
   64.1460   32.7570   48.1750 C   0  0  0  0  0  0  0  0  0  0  0  0
   62.8590   32.7810   47.6290 C   0  0  0  0  0  0  0  0  0  0  0  0
   60.4300   32.9460   46.2970 C   0  0  0  0  0  0  0  0  0  0  0  0
   57.9770   31.0680   45.5470 C   0  0  0  0  0  0  0  0  0  0  0  0
   57.2740   30.1080   44.8150 C   0  0  0  0  0  0  0  0  0  0  0  0
   56.4960   28.3190   42.8120 H   0  0  0  0  0  0  0  0  0  0  0  0
   55.5190   29.6150   42.0460 H   0  0  0  0  0  0  0  0  0  0  0  0
   57.2006   31.6748   41.7773 H   0  0  0  0  0  0  0  0  0  0  0  0
   58.4535   33.3924   43.0790 H   0  0  0  0  0  0  0  0  0  0  0  0
   58.5295   35.1369   44.9724 H   0  0  0  0  0  0  0  0  0  0  0  0
   57.4865   34.4144   46.2669 H   0  0  0  0  0  0  0  0  0  0  0  0
   60.2125   35.7481   46.5561 H   0  0  0  0  0  0  0  0  0  0  0  0
   58.6387   36.2023   47.3181 H   0  0  0  0  0  0  0  0  0  0  0  0
   60.2188   35.0633   48.8983 H   0  0  0  0  0  0  0  0  0  0  0  0
   58.6409   34.1826   48.6496 H   0  0  0  0  0  0  0  0  0  0  0  0
   59.7756   32.3583   48.2537 H   0  0  0  0  0  0  0  0  0  0  0  0
   61.1170   33.7795   50.4022 H   0  0  0  0  0  0  0  0  0  0  0  0
   63.4163   33.7292   51.3670 H   0  0  0  0  0  0  0  0  0  0  0  0
   65.3581   33.0730   49.9431 H   0  0  0  0  0  0  0  0  0  0  0  0
   65.0033   32.4713   47.5477 H   0  0  0  0  0  0  0  0  0  0  0  0
   62.7088   32.5167   46.5718 H   0  0  0  0  0  0  0  0  0  0  0  0
   61.1998   33.5994   45.8605 H   0  0  0  0  0  0  0  0  0  0  0  0
   60.6831   31.8931   46.1035 H   0  0  0  0  0  0  0  0  0  0  0  0
   58.1894   30.8955   46.6124 H   0  0  0  0  0  0  0  0  0  0  0  0
   56.9379   29.1829   45.3062 H   0  0  0  0  0  0  0  0  0  0  0  0
  1  2  1  0
  2  3  2  0
  3  4  1  0
  4  5  2  0
  5  6  1  0
  6  7  1  0
  7  8  1  0
  8  9  1  0
  9 10  1  0
 10 11  1  0
 11 12  2  0
 12 13  1  0
 13 14  2  0
 14 15  1  0
 15 16  2  0
 10 17  1  0
  5 18  1  0
 18 19  2  0
 19  2  1  0
 17  6  1  0
 16 11  1  0
  1 20  1  0
  1 21  1  0
  3 22  1  0
  4 23  1  0
  7 24  1  0
  7 25  1  0
  8 26  1  0
  8 27  1  0
  9 28  1  0
  9 29  1  0
 10 30  1  1
 12 31  1  0
 13 32  1  0
 14 33  1  0
 15 34  1  0
 16 35  1  0
 17 36  1  0
 17 37  1  0
 18 38  1  0
 19 39  1  0
M  END
>  <UniqueID>  (41) 
38

>  <SMILES>  (41) 
Nc1ccc(N2CCC[C@H](c3ccccc3)C2)cc1

>  <Energy>  (41) 
46.56386300120849

>  <Genealogy>  (41) 
Nc1ccc(N2CCC[C@H](c3ccccc3)C2)cc1 (chirality)
Nc1ccc(N2CCC[C@H](c3ccccc3)C2)cc1 (3D coordinates assigned)
Nc1ccc(N2CCC[C@H](c3ccccc3)C2)cc1 (nonaromatic ring conformer: 46.56386300120849 kcal/mol)

>  <smiles>  (41) 
Nc1ccc(N2CCCC(c3ccccc3)C2)cc1

>  <score_type>  (41) 
oracle

>  <origin>  (41) 
adg

>  <m_score__min__energy>  (41) 
-7.54

>  <m_primary>  (41) 
energy

$$$$
41:0
     RDKit          3D

 22 23  0  0  0  0  0  0  0  0999 V2000
   60.0100   25.8140   46.3940 C   0  0  0  0  0  0  0  0  0  0  0  0
   58.6330   26.3910   46.1230 C   0  0  0  0  0  0  0  0  0  0  0  0
   57.4630   25.6160   46.3260 C   0  0  0  0  0  0  0  0  0  0  0  0
   57.5310   24.2490   46.7970 C   0  0  0  0  0  0  0  0  0  0  0  0
   57.5830   23.1570   47.1740 N   0  0  0  0  0  0  0  0  0  0  0  0
   56.2050   26.1810   46.0660 C   0  0  0  0  0  0  0  0  0  0  0  0
   55.1550   25.5030   46.2420 O   0  0  0  0  0  0  0  0  0  0  0  0
   56.1020   27.4610   45.6220 N   0  0  0  0  0  0  0  0  0  0  0  0
   57.1980   28.2410   45.4140 C   0  0  0  0  0  0  0  0  0  0  0  0
   57.0410   29.5590   44.9550 C   0  0  0  0  0  0  0  0  0  0  0  0
   58.1550   30.3690   44.7370 C   0  0  0  0  0  0  0  0  0  0  0  0
   59.4360   29.8730   44.9750 C   0  0  0  0  0  0  0  0  0  0  0  0
   59.6110   28.5640   45.4320 C   0  0  0  0  0  0  0  0  0  0  0  0
   58.4960   27.7260   45.6590 C   0  0  0  0  0  0  0  0  0  0  0  0
   60.1719   25.7462   47.4799 H   0  0  0  0  0  0  0  0  0  0  0  0
   60.0810   24.8104   45.9493 H   0  0  0  0  0  0  0  0  0  0  0  0
   60.7753   26.4671   45.9493 H   0  0  0  0  0  0  0  0  0  0  0  0
   55.1470   27.8500   45.4390 H   0  0  0  0  0  0  0  0  0  0  0  0
   56.0323   29.9551   44.7662 H   0  0  0  0  0  0  0  0  0  0  0  0
   58.0229   31.4000   44.3770 H   0  0  0  0  0  0  0  0  0  0  0  0
   60.3126   30.5147   44.8023 H   0  0  0  0  0  0  0  0  0  0  0  0
   60.6260   28.1824   45.6167 H   0  0  0  0  0  0  0  0  0  0  0  0
  1  2  1  0
  2  3  2  0
  3  4  1  0
  4  5  3  0
  3  6  1  0
  6  7  2  0
  6  8  1  0
  8  9  1  0
  9 10  2  0
 10 11  1  0
 11 12  2  0
 12 13  1  0
 13 14  2  0
 14  2  1  0
 14  9  1  0
  1 15  1  0
  1 16  1  0
  1 17  1  0
  8 18  1  0
 10 19  1  0
 11 20  1  0
 12 21  1  0
 13 22  1  0
M  END
>  <UniqueID>  (42) 
39

>  <SMILES>  (42) 
Cc1c(C#N)c(=O)[nH]c2ccccc12

>  <Energy>  (42) 
30.897628888529063

>  <Genealogy>  (42) 
Cc1c(C#N)c(=O)[nH]c2ccccc12 (3D coordinates assigned)
Cc1c(C#N)c(=O)[nH]c2ccccc12 (optimized conformer: 30.897628888529063 kcal/mol)

>  <smiles>  (42) 
Cc1c(C#N)c(=O)[nH]c2ccccc12

>  <score_type>  (42) 
oracle

>  <origin>  (42) 
adg

>  <m_score__min__energy>  (42) 
-5.9500000000000002

>  <m_primary>  (42) 
energy

$$$$
42:0
     RDKit          3D

 36 37  0  0  0  0  0  0  0  0999 V2000
   58.3900   33.9430   44.9960 C   0  0  0  0  0  0  0  0  0  0  0  0
   59.3140   34.0010   46.1760 C   0  0  0  0  0  0  0  0  0  0  0  0
   58.8130   34.3030   47.4470 C   0  0  0  0  0  0  0  0  0  0  0  0
   59.6740   34.4000   48.5390 C   0  0  0  0  0  0  0  0  0  0  0  0
   61.0580   34.2130   48.3810 C   0  0  0  0  0  0  0  0  0  0  0  0
   61.9540   34.3410   49.5850 C   0  0  0  0  0  0  0  0  0  0  0  0
   61.5790   33.9520   47.0880 C   0  0  0  0  0  0  0  0  0  0  0  0
   63.0670   33.8360   46.8330 C   0  0  0  0  0  0  0  0  0  0  0  0
   63.4910   32.4270   46.7780 N   0  0  0  0  0  0  0  0  0  0  0  0
   63.0350   31.6490   47.9420 C   0  0  0  0  0  0  0  0  0  0  0  0
   63.9010   31.9180   49.1450 C   0  0  0  0  0  0  0  0  0  0  0  0
   63.5660   31.3630   50.3890 C   0  0  0  0  0  0  0  0  0  0  0  0
   64.3510   31.6540   51.5060 C   0  0  0  0  0  0  0  0  0  0  0  0
   65.4670   32.4800   51.3720 C   0  0  0  0  0  0  0  0  0  0  0  0
   65.7870   32.9990   50.1160 C   0  0  0  0  0  0  0  0  0  0  0  0
   65.0090   32.7100   49.0360 N   0  0  0  0  0  0  0  0  0  0  0  0
   60.6940   33.8390   46.0010 C   0  0  0  0  0  0  0  0  0  0  0  0
   57.3498   33.8777   45.3477 H   0  0  0  0  0  0  0  0  0  0  0  0
   58.5150   34.8508   44.3874 H   0  0  0  0  0  0  0  0  0  0  0  0
   58.6275   33.0580   44.3874 H   0  0  0  0  0  0  0  0  0  0  0  0
   57.7338   34.4648   47.5853 H   0  0  0  0  0  0  0  0  0  0  0  0
   59.2658   34.6254   49.5353 H   0  0  0  0  0  0  0  0  0  0  0  0
   61.3515   34.2549   50.5013 H   0  0  0  0  0  0  0  0  0  0  0  0
   62.7095   33.5417   49.5665 H   0  0  0  0  0  0  0  0  0  0  0  0
   62.4554   35.3199   49.5665 H   0  0  0  0  0  0  0  0  0  0  0  0
   63.3052   34.3198   45.8743 H   0  0  0  0  0  0  0  0  0  0  0  0
   63.6008   34.3277   47.6596 H   0  0  0  0  0  0  0  0  0  0  0  0
   64.5380   32.4210   46.7910 H   0  0  0  0  0  0  0  0  0  0  0  0
   61.9971   31.9277   48.1766 H   0  0  0  0  0  0  0  0  0  0  0  0
   63.1008   30.5790   47.6955 H   0  0  0  0  0  0  0  0  0  0  0  0
   62.6910   30.7032   50.4836 H   0  0  0  0  0  0  0  0  0  0  0  0
   64.0904   31.2334   52.4884 H   0  0  0  0  0  0  0  0  0  0  0  0
   66.0887   32.7201   52.2471 H   0  0  0  0  0  0  0  0  0  0  0  0
   66.6705   33.6436   49.9982 H   0  0  0  0  0  0  0  0  0  0  0  0
   65.2700   33.1230   48.1130 H   0  0  0  0  0  0  0  0  0  0  0  0
   61.0914   33.6202   44.9989 H   0  0  0  0  0  0  0  0  0  0  0  0
  1  2  1  0
  2  3  2  0
  3  4  1  0
  4  5  2  0
  5  6  1  0
  5  7  1  0
  7  8  1  0
  8  9  1  0
  9 10  1  0
 10 11  1  0
 11 12  2  0
 12 13  1  0
 13 14  2  0
 14 15  1  0
 15 16  2  0
  7 17  2  0
 17  2  1  0
 16 11  1  0
  1 18  1  0
  1 19  1  0
  1 20  1  0
  3 21  1  0
  4 22  1  0
  6 23  1  0
  6 24  1  0
  6 25  1  0
  8 26  1  0
  8 27  1  0
  9 28  1  0
 10 29  1  0
 10 30  1  0
 12 31  1  0
 13 32  1  0
 14 33  1  0
 15 34  1  0
 16 35  1  0
 17 36  1  0
M  CHG  1  16   1
M  END
>  <UniqueID>  (43) 
40

>  <SMILES>  (43) 
Cc1ccc(C)c(CNCc2cccc[nH+]2)c1

>  <Energy>  (43) 
32.282647505600224

>  <Genealogy>  (43) 
Cc1ccc(C)c(CNCc2cccc[nH+]2)c1 (protonated)
Cc1ccc(C)c(CNCc2cccc[nH+]2)c1 (3D coordinates assigned)
Cc1ccc(C)c(CNCc2cccc[nH+]2)c1 (optimized conformer: 32.282647505600224 kcal/mol)

>  <smiles>  (43) 
Cc1ccc(C)c(CNCc2ccccn2)c1

>  <score_type>  (43) 
oracle

>  <origin>  (43) 
adg

>  <m_score__min__energy>  (43) 
-4.9199999999999999

>  <m_primary>  (43) 
energy

$$$$
43:0
     RDKit          3D

 35 38  0  0  0  0  0  0  0  0999 V2000
   58.4958   25.1892   48.2819 H   0  0  0  0  0  0  0  0  0  0  0  0
   58.0690   25.7910   47.4660 C   0  0  0  0  0  0  0  0  0  0  0  0
   56.7800   25.5980   47.0850 N   0  0  0  0  0  0  0  0  0  0  0  0
   56.2130   26.3250   46.0840 C   0  0  0  0  0  0  0  0  0  0  0  0
   54.8500   26.0930   45.7240 N   0  0  0  0  0  0  0  0  0  0  0  0
   54.6150   25.6720   44.7980 H   0  0  0  0  0  0  0  0  0  0  0  0
   54.0730   26.3390   46.3770 H   0  0  0  0  0  0  0  0  0  0  0  0
   56.9680   27.2980   45.4170 C   0  0  0  0  0  0  0  0  0  0  0  0
   56.5096   27.9013   44.6195 H   0  0  0  0  0  0  0  0  0  0  0  0
   58.3060   27.5000   45.7680 C   0  0  0  0  0  0  0  0  0  0  0  0
   59.0500   28.5260   45.0900 N   0  0  0  0  0  0  0  0  0  0  0  0
   58.9760   29.8070   45.3000 C   0  0  0  0  0  0  0  0  0  0  0  0
   58.0300   30.6150   44.7610 N   0  0  0  0  0  0  0  0  0  0  0  0
   58.1840   31.8910   45.1930 C   0  0  0  0  0  0  0  0  0  0  0  0
   57.3790   32.9550   44.7820 C   0  0  0  0  0  0  0  0  0  0  0  0
   56.5461   32.7893   44.0829 H   0  0  0  0  0  0  0  0  0  0  0  0
   57.6510   34.2380   45.2760 C   0  0  0  0  0  0  0  0  0  0  0  0
   57.0277   35.0873   44.9594 H   0  0  0  0  0  0  0  0  0  0  0  0
   58.7150   34.4500   46.1740 C   0  0  0  0  0  0  0  0  0  0  0  0
   58.9188   35.4648   46.5463 H   0  0  0  0  0  0  0  0  0  0  0  0
   59.5220   33.3750   46.6010 C   0  0  0  0  0  0  0  0  0  0  0  0
   60.6340   33.6050   47.5520 C   0  0  0  0  0  0  0  0  0  0  0  0
   61.9600   33.7140   47.1020 C   0  0  0  0  0  0  0  0  0  0  0  0
   62.1816   33.6397   46.0271 H   0  0  0  0  0  0  0  0  0  0  0  0
   62.9710   33.9110   47.9900 N   0  0  0  0  0  0  0  0  0  0  0  0
   62.7420   34.0070   49.3260 C   0  0  0  0  0  0  0  0  0  0  0  0
   63.7050   34.1950   50.1140 O   0  0  0  0  0  0  0  0  0  0  0  0
   61.4410   33.8960   49.8210 C   0  0  0  0  0  0  0  0  0  0  0  0
   61.2493   33.9709   50.9016 H   0  0  0  0  0  0  0  0  0  0  0  0
   60.3860   33.6890   48.9300 C   0  0  0  0  0  0  0  0  0  0  0  0
   59.3582   33.5916   49.3096 H   0  0  0  0  0  0  0  0  0  0  0  0
   59.2300   32.1020   46.0850 C   0  0  0  0  0  0  0  0  0  0  0  0
   60.0180   30.6340   46.3380 S   0  0  0  0  0  0  0  0  0  0  0  0
   58.8540   26.7510   46.8250 C   0  0  0  0  0  0  0  0  0  0  0  0
   59.8930   26.9204   47.1440 H   0  0  0  0  0  0  0  0  0  0  0  0
  1  2  1  0
  2  3  2  0
  3  4  1  0
  4  5  1  0
  5  6  1  0
  5  7  1  0
  4  8  2  0
  8  9  1  0
  8 10  1  0
 10 11  1  0
 11 12  2  0
 12 13  1  0
 13 14  1  0
 14 15  2  0
 15 16  1  0
 15 17  1  0
 17 18  1  0
 17 19  2  0
 19 20  1  0
 19 21  1  0
 21 22  1  0
 22 23  2  0
 23 24  1  0
 23 25  1  0
 25 26  1  0
 26 27  2  0
 26 28  1  0
 28 29  1  0
 28 30  2  0
 30 31  1  0
 21 32  2  0
 32 33  1  0
 10 34  2  0
 34 35  1  0
 34  2  1  0
 33 12  1  0
 32 14  1  0
 30 22  1  0
M  CHG  2  13  -1  25  -1
M  END
>  <UniqueID>  (44) 
41

>  <SMILES>  (44) 
Nc1cc(/N=c2\[n-]c3cccc(-c4ccc(=O)[n-]c4)c3s2)ccn1

>  <Energy>  (44) 
87.0624621317684

>  <Genealogy>  (44) 
Nc1cc(N=c2[n-]c3cccc(-c4ccc(=O)[n-]c4)c3s2)ccn1 (protonated)
Nc1cc(/N=c2\[n-]c3cccc(-c4ccc(=O)[n-]c4)c3s2)ccn1 (cis-trans isomerization)
Nc1cc(/N=c2\[n-]c3cccc(-c4ccc(=O)[n-]c4)c3s2)ccn1 (3D coordinates assigned)
Nc1cc(/N=c2\[n-]c3cccc(-c4ccc(=O)[n-]c4)c3s2)ccn1 (optimized conformer: 87.0624621317684 kcal/mol)

>  <smiles>  (44) 
Nc1cc(N=c2[nH]c3cccc(-c4ccc(=O)[nH]c4)c3s2)ccn1

>  <score_type>  (44) 
oracle

>  <origin>  (44) 
adg

>  <m_score__min__energy>  (44) 
-11.25

>  <m_primary>  (44) 
energy

$$$$
44:0
     RDKit          3D

 38 40  0  0  0  0  0  0  0  0999 V2000
   56.4800   24.9910   46.3470 C   0  0  0  0  0  0  0  0  0  0  0  0
   55.5810   26.1260   45.9620 C   0  0  0  0  0  0  0  0  0  0  0  0
   54.3370   25.9370   45.9500 O   0  0  0  0  0  0  0  0  0  0  0  0
   56.0850   27.4250   45.6270 N   0  0  0  0  0  0  0  0  0  0  0  0
   57.2180   28.0990   46.1940 C   0  0  0  0  0  0  0  0  0  0  0  0
   58.2310   27.5020   47.4030 S   0  0  0  0  0  0  0  0  0  0  0  0
   59.3190   28.7780   47.3510 C   0  0  0  0  0  0  0  0  0  0  0  0
   58.9020   29.7040   46.3970 C   0  0  0  0  0  0  0  0  0  0  0  0
   57.7350   29.3010   45.7100 C   0  0  0  0  0  0  0  0  0  0  0  0
   57.0910   30.0660   44.6210 C   0  0  0  0  0  0  0  0  0  0  0  0
   56.9420   29.5230   43.4960 O   0  0  0  0  0  0  0  0  0  0  0  0
   56.6000   31.4000   44.8130 N   0  0  0  0  0  0  0  0  0  0  0  0
   57.3830   32.5500   45.1640 C   0  0  0  0  0  0  0  0  0  0  0  0
   58.2170   33.1210   44.1930 C   0  0  0  0  0  0  0  0  0  0  0  0
   58.9920   34.2440   44.4990 C   0  0  0  0  0  0  0  0  0  0  0  0
   58.9490   34.7960   45.7820 C   0  0  0  0  0  0  0  0  0  0  0  0
   58.1390   34.2180   46.7640 C   0  0  0  0  0  0  0  0  0  0  0  0
   57.3630   33.0940   46.4620 C   0  0  0  0  0  0  0  0  0  0  0  0
   59.6750   30.9750   46.1470 C   0  0  0  0  0  0  0  0  0  0  0  0
   60.5510   31.3440   47.3550 C   0  0  0  0  0  0  0  0  0  0  0  0
   61.3690   30.1340   47.8320 C   0  0  0  0  0  0  0  0  0  0  0  0
   60.4520   28.9970   48.3090 C   0  0  0  0  0  0  0  0  0  0  0  0
   56.5345   24.9221   47.4435 H   0  0  0  0  0  0  0  0  0  0  0  0
   56.0787   24.0511   45.9401 H   0  0  0  0  0  0  0  0  0  0  0  0
   57.4868   25.1664   45.9401 H   0  0  0  0  0  0  0  0  0  0  0  0
   58.2621   32.6834   43.1848 H   0  0  0  0  0  0  0  0  0  0  0  0
   59.6362   34.6934   43.7289 H   0  0  0  0  0  0  0  0  0  0  0  0
   59.5521   35.6848   46.0192 H   0  0  0  0  0  0  0  0  0  0  0  0
   58.1118   34.6479   47.7761 H   0  0  0  0  0  0  0  0  0  0  0  0
   56.7360   32.6345   47.2403 H   0  0  0  0  0  0  0  0  0  0  0  0
   60.3195   30.8349   45.2667 H   0  0  0  0  0  0  0  0  0  0  0  0
   58.9563   31.7904   45.9779 H   0  0  0  0  0  0  0  0  0  0  0  0
   61.2391   32.1524   47.0668 H   0  0  0  0  0  0  0  0  0  0  0  0
   59.8960   31.6700   48.1764 H   0  0  0  0  0  0  0  0  0  0  0  0
   61.9893   29.7696   46.9999 H   0  0  0  0  0  0  0  0  0  0  0  0
   61.9996   30.4505   48.6759 H   0  0  0  0  0  0  0  0  0  0  0  0
   61.0399   28.0706   48.3877 H   0  0  0  0  0  0  0  0  0  0  0  0
   60.0330   29.2738   49.2877 H   0  0  0  0  0  0  0  0  0  0  0  0
  1  2  1  0
  2  3  2  0
  2  4  1  0
  4  5  1  0
  5  6  1  0
  6  7  1  0
  7  8  2  0
  8  9  1  0
  9 10  1  0
 10 11  2  0
 10 12  1  0
 12 13  1  0
 13 14  2  0
 14 15  1  0
 15 16  2  0
 16 17  1  0
 17 18  2  0
  8 19  1  0
 19 20  1  0
 20 21  1  0
 21 22  1  0
  9  5  2  0
 18 13  1  0
 22  7  1  0
  1 23  1  0
  1 24  1  0
  1 25  1  0
 14 26  1  0
 15 27  1  0
 16 28  1  0
 17 29  1  0
 18 30  1  0
 19 31  1  0
 19 32  1  0
 20 33  1  0
 20 34  1  0
 21 35  1  0
 21 36  1  0
 22 37  1  0
 22 38  1  0
M  CHG  2   4  -1  12  -1
M  END
>  <UniqueID>  (45) 
42

>  <SMILES>  (45) 
CC(=O)[N-]c1sc2c(c1C(=O)[N-]c1ccccc1)CCCC2

>  <Energy>  (45) 
73.53688899502752

>  <Genealogy>  (45) 
CC(=O)[N-]c1sc2c(c1C(=O)[N-]c1ccccc1)CCCC2 (protonated)
CC(=O)[N-]c1sc2c(c1C(=O)[N-]c1ccccc1)CCCC2 (3D coordinates assigned)
CC(=O)[N-]c1sc2c(c1C(=O)[N-]c1ccccc1)CCCC2 (nonaromatic ring conformer: 73.53688899502752 kcal/mol)

>  <smiles>  (45) 
CC(=O)Nc1sc2c(c1C(=O)Nc1ccccc1)CCCC2

>  <score_type>  (45) 
oracle

>  <origin>  (45) 
adg

>  <m_score__min__energy>  (45) 
-11.039999999999999

>  <m_primary>  (45) 
energy

$$$$
45:0
     RDKit          3D

 19 19  0  0  0  0  0  0  0  0999 V2000
   55.7510   30.0870   44.1700 C   0  0  0  0  0  0  0  0  0  0  0  0
   55.9670   28.8160   44.8520 N   0  0  0  0  0  0  0  0  0  0  0  0
   57.2460   28.4170   45.3870 C   0  0  0  0  0  0  0  0  0  0  0  0
   58.3790   29.2300   45.1880 C   0  0  0  0  0  0  0  0  0  0  0  0
   59.6410   28.8130   45.6110 C   0  0  0  0  0  0  0  0  0  0  0  0
   59.7970   27.5780   46.2320 C   0  0  0  0  0  0  0  0  0  0  0  0
   58.6870   26.7620   46.4530 C   0  0  0  0  0  0  0  0  0  0  0  0
   57.4020   27.1710   46.0540 C   0  0  0  0  0  0  0  0  0  0  0  0
   56.2480   26.3070   46.3970 C   0  0  0  0  0  0  0  0  0  0  0  0
   56.4190   25.2680   47.0880 O   0  0  0  0  0  0  0  0  0  0  0  0
   54.9590   26.6590   46.0170 O   0  0  0  0  0  0  0  0  0  0  0  0
   55.6154   30.8846   44.9153 H   0  0  0  0  0  0  0  0  0  0  0  0
   56.6228   30.3180   43.5402 H   0  0  0  0  0  0  0  0  0  0  0  0
   54.8519   30.0170   43.5402 H   0  0  0  0  0  0  0  0  0  0  0  0
   55.1440   28.1810   44.9470 H   0  0  0  0  0  0  0  0  0  0  0  0
   58.2671   30.2059   44.6928 H   0  0  0  0  0  0  0  0  0  0  0  0
   60.5149   29.4622   45.4532 H   0  0  0  0  0  0  0  0  0  0  0  0
   60.7961   27.2445   46.5490 H   0  0  0  0  0  0  0  0  0  0  0  0
   58.8186   25.7871   46.9452 H   0  0  0  0  0  0  0  0  0  0  0  0
  1  2  1  0
  2  3  1  0
  3  4  2  0
  4  5  1  0
  5  6  2  0
  6  7  1  0
  7  8  2  0
  8  9  1  0
  9 10  2  0
  9 11  1  0
  8  3  1  0
  1 12  1  0
  1 13  1  0
  1 14  1  0
  2 15  1  0
  4 16  1  0
  5 17  1  0
  6 18  1  0
  7 19  1  0
M  CHG  1  11  -1
M  END
>  <UniqueID>  (46) 
43

>  <SMILES>  (46) 
CNc1ccccc1C(=O)[O-]

>  <Energy>  (46) 
22.617342204322707

>  <Genealogy>  (46) 
CNc1ccccc1C(=O)[O-] (protonated)
CNc1ccccc1C(=O)[O-] (3D coordinates assigned)
CNc1ccccc1C(=O)[O-] (optimized conformer: 22.617342204322707 kcal/mol)

>  <smiles>  (46) 
CNc1ccccc1C(=O)O

>  <score_type>  (46) 
oracle

>  <origin>  (46) 
adg

>  <m_score__min__energy>  (46) 
-8.1500000000000004

>  <m_primary>  (46) 
energy

$$$$
46:0
     RDKit          3D

 29 30  0  0  0  0  0  0  0  0999 V2000
   55.5320   29.8260   43.7360 C   0  0  0  0  0  0  0  0  0  0  0  0
   55.5330   28.9670   44.8710 O   0  0  0  0  0  0  0  0  0  0  0  0
   56.6480   28.2430   45.3230 C   0  0  0  0  0  0  0  0  0  0  0  0
   57.9550   28.7660   45.2370 C   0  0  0  0  0  0  0  0  0  0  0  0
   59.0380   28.0540   45.7560 C   0  0  0  0  0  0  0  0  0  0  0  0
   58.8330   26.8190   46.3720 C   0  0  0  0  0  0  0  0  0  0  0  0
   57.5460   26.2850   46.4550 C   0  0  0  0  0  0  0  0  0  0  0  0
   56.4550   26.9710   45.9080 C   0  0  0  0  0  0  0  0  0  0  0  0
   55.1530   26.3810   46.0240 N   0  0  0  0  0  0  0  0  0  0  0  0
   54.8040   25.0540   45.6140 C   0  0  0  0  0  0  0  0  0  0  0  0
   53.6010   24.6800   45.6400 O   0  0  0  0  0  0  0  0  0  0  0  0
   55.8390   24.1320   45.1100 C   0  0  0  0  0  0  0  0  0  0  0  0
   56.2650   24.0390   43.7990 C   0  0  0  0  0  0  0  0  0  0  0  0
   57.2320   23.0550   43.7830 C   0  0  0  0  0  0  0  0  0  0  0  0
   57.3960   22.5710   44.9940 O   0  0  0  0  0  0  0  0  0  0  0  0
   56.5790   23.1920   45.8140 C   0  0  0  0  0  0  0  0  0  0  0  0
   56.4990   22.8880   47.2760 C   0  0  0  0  0  0  0  0  0  0  0  0
   55.5308   30.8742   44.0695 H   0  0  0  0  0  0  0  0  0  0  0  0
   56.4304   29.6348   43.1307 H   0  0  0  0  0  0  0  0  0  0  0  0
   54.6341   29.6328   43.1307 H   0  0  0  0  0  0  0  0  0  0  0  0
   58.1223   29.7418   44.7576 H   0  0  0  0  0  0  0  0  0  0  0  0
   60.0545   28.4673   45.6791 H   0  0  0  0  0  0  0  0  0  0  0  0
   59.6859   26.2660   46.7924 H   0  0  0  0  0  0  0  0  0  0  0  0
   57.3877   25.3176   46.9541 H   0  0  0  0  0  0  0  0  0  0  0  0
   55.9064   24.6291   42.9427 H   0  0  0  0  0  0  0  0  0  0  0  0
   57.7833   22.7249   42.8902 H   0  0  0  0  0  0  0  0  0  0  0  0
   56.7374   23.7940   47.8525 H   0  0  0  0  0  0  0  0  0  0  0  0
   55.4818   22.5518   47.5255 H   0  0  0  0  0  0  0  0  0  0  0  0
   57.2189   22.0946   47.5255 H   0  0  0  0  0  0  0  0  0  0  0  0
  1  2  1  0
  2  3  1  0
  3  4  2  0
  4  5  1  0
  5  6  2  0
  6  7  1  0
  7  8  2  0
  8  9  1  0
  9 10  1  0
 10 11  2  0
 10 12  1  0
 12 13  1  0
 13 14  2  0
 14 15  1  0
 15 16  1  0
 16 17  1  0
  8  3  1  0
 16 12  2  0
  1 18  1  0
  1 19  1  0
  1 20  1  0
  4 21  1  0
  5 22  1  0
  6 23  1  0
  7 24  1  0
 13 25  1  0
 14 26  1  0
 17 27  1  0
 17 28  1  0
 17 29  1  0
M  CHG  1   9  -1
M  END
>  <UniqueID>  (47) 
44

>  <SMILES>  (47) 
COc1ccccc1[N-]C(=O)c1ccoc1C

>  <Energy>  (47) 
59.33627167536128

>  <Genealogy>  (47) 
COc1ccccc1[N-]C(=O)c1ccoc1C (protonated)
COc1ccccc1[N-]C(=O)c1ccoc1C (3D coordinates assigned)
COc1ccccc1[N-]C(=O)c1ccoc1C (optimized conformer: 59.33627167536128 kcal/mol)

>  <smiles>  (47) 
COc1ccccc1NC(=O)c1ccoc1C

>  <score_type>  (47) 
oracle

>  <origin>  (47) 
adg

>  <m_score__min__energy>  (47) 
-8.4000000000000004

>  <m_primary>  (47) 
energy

$$$$
47:0
     RDKit          3D

 53 57  0  0  0  0  0  0  0  0999 V2000
   58.3900   22.3270   44.4960 C   0  0  0  0  0  0  0  0  0  0  0  0
   57.5260   23.4250   44.7640 O   0  0  0  0  0  0  0  0  0  0  0  0
   57.9620   24.7050   45.1340 C   0  0  0  0  0  0  0  0  0  0  0  0
   58.5940   24.9610   46.3660 C   0  0  0  0  0  0  0  0  0  0  0  0
   59.0090   26.2560   46.6900 C   0  0  0  0  0  0  0  0  0  0  0  0
   58.7860   27.3150   45.7990 C   0  0  0  0  0  0  0  0  0  0  0  0
   59.2400   28.6770   46.1210 C   0  0  0  0  0  0  0  0  0  0  0  0
   60.3320   28.9240   46.8680 N   0  0  0  0  0  0  0  0  0  0  0  0
   60.4780   30.2370   46.9530 N   0  0  0  0  0  0  0  0  0  0  0  0
   61.5040   30.8510   47.7430 C   0  0  0  0  0  0  0  0  0  0  0  0
   61.5780   30.6210   49.1250 C   0  0  0  0  0  0  0  0  0  0  0  0
   62.5890   31.2200   49.8840 C   0  0  0  0  0  0  0  0  0  0  0  0
   63.5230   32.0580   49.2690 C   0  0  0  0  0  0  0  0  0  0  0  0
   63.4420   32.3060   47.8960 C   0  0  0  0  0  0  0  0  0  0  0  0
   62.4320   31.7120   47.1350 C   0  0  0  0  0  0  0  0  0  0  0  0
   59.4900   30.8580   46.2660 C   0  0  0  0  0  0  0  0  0  0  0  0
   59.1680   32.3290   46.3770 C   0  0  0  0  0  0  0  0  0  0  0  0
   59.2010   32.7610   47.8190 C   0  0  0  0  0  0  0  0  0  0  0  0
   59.9350   33.8940   48.2120 C   0  0  0  0  0  0  0  0  0  0  0  0
   59.9900   34.2650   49.5590 C   0  0  0  0  0  0  0  0  0  0  0  0
   59.3100   33.5140   50.5210 C   0  0  0  0  0  0  0  0  0  0  0  0
   58.5750   32.3870   50.1390 C   0  0  0  0  0  0  0  0  0  0  0  0
   58.5190   32.0110   48.7940 C   0  0  0  0  0  0  0  0  0  0  0  0
   58.6760   29.8780   45.7070 C   0  0  0  0  0  0  0  0  0  0  0  0
   57.5220   30.0550   44.8010 C   0  0  0  0  0  0  0  0  0  0  0  0
   57.5740   30.4850   43.4890 C   0  0  0  0  0  0  0  0  0  0  0  0
   56.2710   30.4680   43.0380 C   0  0  0  0  0  0  0  0  0  0  0  0
   55.5060   30.0240   44.0960 C   0  0  0  0  0  0  0  0  0  0  0  0
   56.2800   29.7820   45.1290 O   0  0  0  0  0  0  0  0  0  0  0  0
   58.1800   27.0570   44.5620 C   0  0  0  0  0  0  0  0  0  0  0  0
   57.7640   25.7630   44.2370 C   0  0  0  0  0  0  0  0  0  0  0  0
   58.7335   21.8905   45.4454 H   0  0  0  0  0  0  0  0  0  0  0  0
   57.8464   21.5654   43.9177 H   0  0  0  0  0  0  0  0  0  0  0  0
   59.2581   22.6762   43.9177 H   0  0  0  0  0  0  0  0  0  0  0  0
   58.7619   24.1383   47.0766 H   0  0  0  0  0  0  0  0  0  0  0  0
   59.5132   26.4450   47.6492 H   0  0  0  0  0  0  0  0  0  0  0  0
   60.8393   29.9681   49.6129 H   0  0  0  0  0  0  0  0  0  0  0  0
   62.6488   31.0312   50.9660 H   0  0  0  0  0  0  0  0  0  0  0  0
   64.3220   32.5225   49.8656 H   0  0  0  0  0  0  0  0  0  0  0  0
   64.1746   32.9699   47.4137 H   0  0  0  0  0  0  0  0  0  0  0  0
   62.3635   31.9193   46.0569 H   0  0  0  0  0  0  0  0  0  0  0  0
   59.9102   32.9074   45.8073 H   0  0  0  0  0  0  0  0  0  0  0  0
   58.1611   32.5077   45.9717 H   0  0  0  0  0  0  0  0  0  0  0  0
   60.4679   34.4907   47.4570 H   0  0  0  0  0  0  0  0  0  0  0  0
   60.5696   35.1496   49.8617 H   0  0  0  0  0  0  0  0  0  0  0  0
   59.3527   33.8093   51.5798 H   0  0  0  0  0  0  0  0  0  0  0  0
   58.0407   31.7962   50.8976 H   0  0  0  0  0  0  0  0  0  0  0  0
   57.9391   31.1248   48.4967 H   0  0  0  0  0  0  0  0  0  0  0  0
   58.4692   30.7798   42.9218 H   0  0  0  0  0  0  0  0  0  0  0  0
   55.9140   30.7513   42.0368 H   0  0  0  0  0  0  0  0  0  0  0  0
   54.4140   29.8926   44.0775 H   0  0  0  0  0  0  0  0  0  0  0  0
   58.0311   27.8766   43.8437 H   0  0  0  0  0  0  0  0  0  0  0  0
   57.2771   25.5735   43.2690 H   0  0  0  0  0  0  0  0  0  0  0  0
  1  2  1  0
  2  3  1  0
  3  4  2  0
  4  5  1  0
  5  6  2  0
  6  7  1  0
  7  8  2  0
  8  9  1  0
  9 10  1  0
 10 11  2  0
 11 12  1  0
 12 13  2  0
 13 14  1  0
 14 15  2  0
  9 16  1  0
 16 17  1  0
 17 18  1  0
 18 19  2  0
 19 20  1  0
 20 21  2  0
 21 22  1  0
 22 23  2  0
 16 24  2  0
 24 25  1  0
 25 26  2  0
 26 27  1  0
 27 28  2  0
 28 29  1  0
  6 30  1  0
 30 31  2  0
 31  3  1  0
 24  7  1  0
 29 25  1  0
 15 10  1  0
 23 18  1  0
  1 32  1  0
  1 33  1  0
  1 34  1  0
  4 35  1  0
  5 36  1  0
 11 37  1  0
 12 38  1  0
 13 39  1  0
 14 40  1  0
 15 41  1  0
 17 42  1  0
 17 43  1  0
 19 44  1  0
 20 45  1  0
 21 46  1  0
 22 47  1  0
 23 48  1  0
 26 49  1  0
 27 50  1  0
 28 51  1  0
 30 52  1  0
 31 53  1  0
M  END
>  <UniqueID>  (48) 
45

>  <SMILES>  (48) 
COc1ccc(-c2nn(-c3ccccc3)c(Cc3ccccc3)c2-c2ccco2)cc1

>  <Energy>  (48) 
128.38537078615508

>  <Genealogy>  (48) 
COc1ccc(-c2nn(-c3ccccc3)c(Cc3ccccc3)c2-c2ccco2)cc1 (3D coordinates assigned)
COc1ccc(-c2nn(-c3ccccc3)c(Cc3ccccc3)c2-c2ccco2)cc1 (optimized conformer: 128.38537078615508 kcal/mol)

>  <smiles>  (48) 
COc1ccc(-c2nn(-c3ccccc3)c(Cc3ccccc3)c2-c2ccco2)cc1

>  <score_type>  (48) 
oracle

>  <origin>  (48) 
adg

>  <m_score__min__energy>  (48) 
-8.4100000000000001

>  <m_primary>  (48) 
energy

$$$$
48:0
     RDKit          3D

 59 63  0  0  0  0  0  0  0  0999 V2000
   59.1389   35.3986   45.7205 H   0  0  0  0  0  0  0  0  0  0  0  0
   58.6340   34.5010   45.3340 C   0  0  0  0  0  0  0  0  0  0  0  0
   57.5090   33.9950   45.9920 C   0  0  0  0  0  0  0  0  0  0  0  0
   57.1279   34.4962   46.8940 H   0  0  0  0  0  0  0  0  0  0  0  0
   56.8680   32.8520   45.5040 C   0  0  0  0  0  0  0  0  0  0  0  0
   55.9772   32.4617   46.0179 H   0  0  0  0  0  0  0  0  0  0  0  0
   57.3580   32.2000   44.3590 C   0  0  0  0  0  0  0  0  0  0  0  0
   56.6480   30.9970   43.8100 C   0  0  0  0  0  0  0  0  0  0  0  0
   57.2570   30.5418   43.0151 H   0  0  0  0  0  0  0  0  0  0  0  0
   55.6754   31.3003   43.3953 H   0  0  0  0  0  0  0  0  0  0  0  0
   56.4420   30.0280   44.8820 N   0  0  0  0  0  0  0  0  0  0  0  0
   57.3960   29.5490   45.6220 C   0  0  0  0  0  0  0  0  0  0  0  0
   57.4970   28.2030   45.8500 N   0  0  0  0  0  0  0  0  0  0  0  0
   58.5070   27.7520   46.6290 C   0  0  0  0  0  0  0  0  0  0  0  0
   59.4220   28.5900   47.1910 C   0  0  0  0  0  0  0  0  0  0  0  0
   59.3380   29.9670   46.9610 C   0  0  0  0  0  0  0  0  0  0  0  0
   60.2940   30.9410   47.5290 C   0  0  0  0  0  0  0  0  0  0  0  0
   59.8440   31.9040   48.4460 C   0  0  0  0  0  0  0  0  0  0  0  0
   58.7863   31.9199   48.7476 H   0  0  0  0  0  0  0  0  0  0  0  0
   60.7330   32.8430   48.9780 C   0  0  0  0  0  0  0  0  0  0  0  0
   60.3747   33.5877   49.7040 H   0  0  0  0  0  0  0  0  0  0  0  0
   62.0750   32.8380   48.5900 C   0  0  0  0  0  0  0  0  0  0  0  0
   62.7722   33.5746   49.0158 H   0  0  0  0  0  0  0  0  0  0  0  0
   62.5350   31.8960   47.6590 C   0  0  0  0  0  0  0  0  0  0  0  0
   63.9050   31.9020   47.2480 N   0  0  0  0  0  0  0  0  0  0  0  0
   64.3140   31.0860   46.7400 H   0  0  0  0  0  0  0  0  0  0  0  0
   64.5180   32.7230   47.4450 H   0  0  0  0  0  0  0  0  0  0  0  0
   61.6410   30.9540   47.1270 C   0  0  0  0  0  0  0  0  0  0  0  0
   61.9972   30.2198   46.3894 H   0  0  0  0  0  0  0  0  0  0  0  0
   58.3060   30.4080   46.1790 N   0  0  0  0  0  0  0  0  0  0  0  0
   60.2680   27.8090   47.9600 C   0  0  0  0  0  0  0  0  0  0  0  0
   61.1189   28.1479   48.5691 H   0  0  0  0  0  0  0  0  0  0  0  0
   59.8120   26.5020   47.7980 C   0  0  0  0  0  0  0  0  0  0  0  0
   60.2667   25.6168   48.2667 H   0  0  0  0  0  0  0  0  0  0  0  0
   58.7310   26.4740   46.9830 N   0  0  0  0  0  0  0  0  0  0  0  0
   57.9830   25.2910   46.5590 C   0  0  0  0  0  0  0  0  0  0  0  0
   58.2285   25.0656   45.5107 H   0  0  0  0  0  0  0  0  0  0  0  0
   58.2610   24.4469   47.2073 H   0  0  0  0  0  0  0  0  0  0  0  0
   56.4710   25.5290   46.6820 C   0  0  0  0  0  0  0  0  0  0  0  0
   56.0882   24.9548   47.5386 H   0  0  0  0  0  0  0  0  0  0  0  0
   56.3038   26.6069   46.8239 H   0  0  0  0  0  0  0  0  0  0  0  0
   55.7500   25.1070   45.4610 N   0  0  0  0  0  0  0  0  0  0  0  0
   54.7170   24.0850   45.7600 C   0  0  0  0  0  0  0  0  0  0  0  0
   54.4838   24.1187   46.8345 H   0  0  0  0  0  0  0  0  0  0  0  0
   53.8274   24.3118   45.1540 H   0  0  0  0  0  0  0  0  0  0  0  0
   55.1920   22.6660   45.3980 C   0  0  0  0  0  0  0  0  0  0  0  0
   56.0810   22.4320   46.0021 H   0  0  0  0  0  0  0  0  0  0  0  0
   54.3549   21.9828   45.6042 H   0  0  0  0  0  0  0  0  0  0  0  0
   55.5280   22.5120   44.0250 O   0  0  0  0  0  0  0  0  0  0  0  0
   56.0000   23.7060   43.4150 C   0  0  0  0  0  0  0  0  0  0  0  0
   56.7234   23.4340   42.6323 H   0  0  0  0  0  0  0  0  0  0  0  0
   55.1218   24.2298   43.0096 H   0  0  0  0  0  0  0  0  0  0  0  0
   56.6860   24.6700   44.3970 C   0  0  0  0  0  0  0  0  0  0  0  0
   57.5434   24.1601   44.8605 H   0  0  0  0  0  0  0  0  0  0  0  0
   57.0183   25.5578   43.8390 H   0  0  0  0  0  0  0  0  0  0  0  0
   58.4790   32.7240   43.6950 C   0  0  0  0  0  0  0  0  0  0  0  0
   58.8561   32.2334   42.7856 H   0  0  0  0  0  0  0  0  0  0  0  0
   59.1180   33.8680   44.1860 C   0  0  0  0  0  0  0  0  0  0  0  0
   60.0017   34.2692   43.6681 H   0  0  0  0  0  0  0  0  0  0  0  0
  1  2  1  0
  2  3  2  0
  3  4  1  0
  3  5  1  0
  5  6  1  0
  5  7  2  0
  7  8  1  0
  8  9  1  0
  8 10  1  0
  8 11  1  0
 11 12  2  0
 12 13  1  0
 13 14  2  0
 14 15  1  0
 15 16  2  0
 16 17  1  0
 17 18  2  0
 18 19  1  0
 18 20  1  0
 20 21  1  0
 20 22  2  0
 22 23  1  0
 22 24  1  0
 24 25  1  0
 25 26  1  0
 25 27  1  0
 24 28  2  0
 28 29  1  0
 16 30  1  0
 15 31  1  0
 31 32  1  0
 31 33  2  0
 33 34  1  0
 33 35  1  0
 35 36  1  0
 36 37  1  0
 36 38  1  0
 36 39  1  0
 39 40  1  0
 39 41  1  0
 39 42  1  0
 42 43  1  0
 43 44  1  0
 43 45  1  0
 43 46  1  0
 46 47  1  0
 46 48  1  0
 46 49  1  0
 49 50  1  0
 50 51  1  0
 50 52  1  0
 50 53  1  0
 53 54  1  0
 53 55  1  0
  7 56  1  0
 56 57  1  0
 56 58  2  0
 58 59  1  0
 58  2  1  0
 30 12  1  0
 53 42  1  0
 35 14  1  0
 28 17  1  0
M  CHG  1  30  -1
M  END
>  <UniqueID>  (49) 
46

>  <SMILES>  (49) 
Nc1cccc(-c2[n-]/c(=N/Cc3ccccc3)nc3c2ccn3CCN2CCOCC2)c1

>  <Energy>  (49) 
114.46159108554696

>  <Genealogy>  (49) 
Nc1cccc(-c2[n-]c(=NCc3ccccc3)nc3c2ccn3CCN2CCOCC2)c1 (protonated)
Nc1cccc(-c2[n-]/c(=N/Cc3ccccc3)nc3c2ccn3CCN2CCOCC2)c1 (cis-trans isomerization)
Nc1cccc(-c2[n-]/c(=N/Cc3ccccc3)nc3c2ccn3CCN2CCOCC2)c1 (3D coordinates assigned)
Nc1cccc(-c2[n-]/c(=N/Cc3ccccc3)nc3c2ccn3CCN2CCOCC2)c1 (nonaromatic ring conformer: 114.46159108554696 kcal/mol)

>  <smiles>  (49) 
Nc1cccc(-c2[nH]c(=NCc3ccccc3)nc3c2ccn3CCN2CCOCC2)c1

>  <score_type>  (49) 
oracle

>  <origin>  (49) 
adg

>  <m_score__min__energy>  (49) 
-11.06

>  <m_primary>  (49) 
energy

$$$$
49:0
     RDKit          3D

 38 40  0  0  0  0  0  0  0  0999 V2000
   57.8073   33.1332   42.6155 H   0  0  0  0  0  0  0  0  0  0  0  0
   57.7850   32.9280   43.6960 C   0  0  0  0  0  0  0  0  0  0  0  0
   57.9110   33.9780   44.5230 C   0  0  0  0  0  0  0  0  0  0  0  0
   57.5288   34.9473   44.1704 H   0  0  0  0  0  0  0  0  0  0  0  0
   58.5220   33.9380   45.8700 C   0  0  0  0  0  0  0  0  0  0  0  0
   57.9450   33.2130   46.9240 C   0  0  0  0  0  0  0  0  0  0  0  0
   56.9997   32.6732   46.7656 H   0  0  0  0  0  0  0  0  0  0  0  0
   58.5510   33.1760   48.1400 N   0  0  0  0  0  0  0  0  0  0  0  0
   59.7300   33.8120   48.3920 C   0  0  0  0  0  0  0  0  0  0  0  0
   60.3130   33.7360   49.7150 N   0  0  0  0  0  0  0  0  0  0  0  0
   61.7530   33.9250   49.9280 C   0  0  0  0  0  0  0  0  0  0  0  0
   61.9635   33.9526   51.0073 H   0  0  0  0  0  0  0  0  0  0  0  0
   62.3042   33.0915   49.4682 H   0  0  0  0  0  0  0  0  0  0  0  0
   62.0704   34.8725   49.4682 H   0  0  0  0  0  0  0  0  0  0  0  0
   59.4380   33.4660   50.8630 C   0  0  0  0  0  0  0  0  0  0  0  0
   59.9942   33.6376   51.7963 H   0  0  0  0  0  0  0  0  0  0  0  0
   58.5673   34.1373   50.8263 H   0  0  0  0  0  0  0  0  0  0  0  0
   59.0970   32.4208   50.8263 H   0  0  0  0  0  0  0  0  0  0  0  0
   60.3520   34.5220   47.3470 C   0  0  0  0  0  0  0  0  0  0  0  0
   61.3090   35.0356   47.5211 H   0  0  0  0  0  0  0  0  0  0  0  0
   59.7490   34.5710   46.0900 C   0  0  0  0  0  0  0  0  0  0  0  0
   60.2415   35.1105   45.2676 H   0  0  0  0  0  0  0  0  0  0  0  0
   57.6190   31.5210   44.1130 C   0  0  0  0  0  0  0  0  0  0  0  0
   58.7020   30.8350   44.4670 O   0  0  0  0  0  0  0  0  0  0  0  0
   58.6570   29.5620   44.8500 C   0  0  0  0  0  0  0  0  0  0  0  0
   59.8380   28.9070   45.2200 C   0  0  0  0  0  0  0  0  0  0  0  0
   60.7965   29.4458   45.1904 H   0  0  0  0  0  0  0  0  0  0  0  0
   59.8020   27.5700   45.6270 C   0  0  0  0  0  0  0  0  0  0  0  0
   60.7320   27.0592   45.9171 H   0  0  0  0  0  0  0  0  0  0  0  0
   58.5860   26.8810   45.6660 C   0  0  0  0  0  0  0  0  0  0  0  0
   58.5621   25.8296   45.9884 H   0  0  0  0  0  0  0  0  0  0  0  0
   57.4010   27.5230   45.2970 C   0  0  0  0  0  0  0  0  0  0  0  0
   56.4473   26.9758   45.3280 H   0  0  0  0  0  0  0  0  0  0  0  0
   57.4260   28.8680   44.8860 C   0  0  0  0  0  0  0  0  0  0  0  0
   56.2660   29.5570   44.4980 C   0  0  0  0  0  0  0  0  0  0  0  0
   55.1410   28.9880   44.5000 O   0  0  0  0  0  0  0  0  0  0  0  0
   56.3630   30.8920   44.1020 C   0  0  0  0  0  0  0  0  0  0  0  0
   55.4665   31.4450   43.7851 H   0  0  0  0  0  0  0  0  0  0  0  0
  1  2  1  0
  2  3  2  0
  3  4  1  0
  3  5  1  0
  5  6  2  0
  6  7  1  0
  6  8  1  0
  8  9  2  0
  9 10  1  0
 10 11  1  0
 11 12  1  0
 11 13  1  0
 11 14  1  0
 10 15  1  0
 15 16  1  0
 15 17  1  0
 15 18  1  0
  9 19  1  0
 19 20  1  0
 19 21  2  0
 21 22  1  0
  2 23  1  0
 23 24  1  0
 24 25  1  0
 25 26  2  0
 26 27  1  0
 26 28  1  0
 28 29  1  0
 28 30  2  0
 30 31  1  0
 30 32  1  0
 32 33  1  0
 32 34  2  0
 34 35  1  0
 35 36  2  0
 35 37  1  0
 37 38  1  0
 21  5  1  0
 37 23  2  0
 34 25  1  0
M  END
>  <UniqueID>  (50) 
47

>  <SMILES>  (50) 
CN(C)c1ccc(/C=C\c2cc(=O)c3ccccc3o2)cn1

>  <Energy>  (50) 
54.702606175532786

>  <Genealogy>  (50) 
CN(C)c1ccc(/C=C\c2cc(=O)c3ccccc3o2)cn1 (cis-trans isomerization)
CN(C)c1ccc(/C=C\c2cc(=O)c3ccccc3o2)cn1 (3D coordinates assigned)
CN(C)c1ccc(/C=C\c2cc(=O)c3ccccc3o2)cn1 (optimized conformer: 54.702606175532786 kcal/mol)

>  <smiles>  (50) 
CN(C)c1ccc(C=Cc2cc(=O)c3ccccc3o2)cn1

>  <score_type>  (50) 
oracle

>  <origin>  (50) 
adg

>  <m_score__min__energy>  (50) 
-7.6600000000000001

>  <m_primary>  (50) 
energy

$$$$
50:0
     RDKit          3D

 49 50  0  0  0  0  0  0  0  0999 V2000
   61.9150   31.5050   47.2500 C   0  0  0  0  0  0  0  0  0  0  0  0
   60.9590   32.6930   47.3550 C   0  0  0  0  0  0  0  0  0  0  0  0
   59.5970   32.4020   46.6850 C   0  0  1  0  0  0  0  0  0  0  0  0
   59.0390   31.0700   47.1600 C   0  0  0  0  0  0  0  0  0  0  0  0
   58.7240   30.8880   48.3670 O   0  0  0  0  0  0  0  0  0  0  0  0
   58.8250   30.0180   46.2060 N   0  0  0  0  0  0  0  0  0  0  0  0
   58.5970   28.6510   46.5840 C   0  0  0  0  0  0  0  0  0  0  0  0
   57.5290   27.9540   46.0000 C   0  0  0  0  0  0  0  0  0  0  0  0
   57.2680   26.6170   46.3390 C   0  0  0  0  0  0  0  0  0  0  0  0
   56.1590   25.9170   45.7450 N   0  0  0  0  0  0  0  0  0  0  0  0
   56.3520   24.9340   45.0000 O   0  0  0  0  0  0  0  0  0  0  0  0
   54.8660   26.3210   45.9890 O   0  0  0  0  0  0  0  0  0  0  0  0
   58.1060   25.9750   47.2670 C   0  0  0  0  0  0  0  0  0  0  0  0
   59.1890   26.6510   47.8310 C   0  0  0  0  0  0  0  0  0  0  0  0
   59.4560   27.9890   47.4850 C   0  0  0  0  0  0  0  0  0  0  0  0
   60.5700   28.6760   47.9950 O   0  0  0  0  0  0  0  0  0  0  0  0
   60.7990   28.9400   49.3760 C   0  0  0  0  0  0  0  0  0  0  0  0
   58.6650   33.5530   46.8480 N   0  0  0  0  0  0  0  0  0  0  0  0
   59.2640   34.8230   46.4060 C   0  0  0  0  0  0  0  0  0  0  0  0
   57.3020   33.3600   46.2990 C   0  0  0  0  0  0  0  0  0  0  0  0
   57.3870   32.5640   45.0380 C   0  0  0  0  0  0  0  0  0  0  0  0
   57.9850   32.9710   43.8610 C   0  0  0  0  0  0  0  0  0  0  0  0
   57.7900   31.9410   42.9660 C   0  0  0  0  0  0  0  0  0  0  0  0
   57.0870   30.9730   43.6580 C   0  0  0  0  0  0  0  0  0  0  0  0
   56.6140   29.6740   43.0980 C   0  0  0  0  0  0  0  0  0  0  0  0
   56.8560   31.3730   44.8870 O   0  0  0  0  0  0  0  0  0  0  0  0
   62.1890   31.1645   48.2595 H   0  0  0  0  0  0  0  0  0  0  0  0
   61.4223   30.6847   46.7075 H   0  0  0  0  0  0  0  0  0  0  0  0
   62.8217   31.8108   46.7075 H   0  0  0  0  0  0  0  0  0  0  0  0
   60.7904   32.9201   48.4180 H   0  0  0  0  0  0  0  0  0  0  0  0
   61.4185   33.5456   46.8336 H   0  0  0  0  0  0  0  0  0  0  0  0
   59.7383   32.2946   45.5994 H   0  0  0  0  0  0  0  0  0  0  0  0
   58.7180   30.2770   45.1990 H   0  0  0  0  0  0  0  0  0  0  0  0
   56.8867   28.4624   45.2658 H   0  0  0  0  0  0  0  0  0  0  0  0
   57.9066   24.9312   47.5511 H   0  0  0  0  0  0  0  0  0  0  0  0
   59.8393   26.1339   48.5519 H   0  0  0  0  0  0  0  0  0  0  0  0
   60.1991   28.2485   49.9859 H   0  0  0  0  0  0  0  0  0  0  0  0
   61.8658   28.7992   49.6042 H   0  0  0  0  0  0  0  0  0  0  0  0
   60.5089   29.9762   49.6042 H   0  0  0  0  0  0  0  0  0  0  0  0
   59.5460   35.4210   47.2851 H   0  0  0  0  0  0  0  0  0  0  0  0
   60.1591   34.6154   45.8013 H   0  0  0  0  0  0  0  0  0  0  0  0
   58.5345   35.3817   45.8013 H   0  0  0  0  0  0  0  0  0  0  0  0
   56.6831   32.8222   47.0322 H   0  0  0  0  0  0  0  0  0  0  0  0
   56.8475   34.3391   46.0873 H   0  0  0  0  0  0  0  0  0  0  0  0
   58.5085   33.9206   43.6763 H   0  0  0  0  0  0  0  0  0  0  0  0
   58.1243   31.8983   41.9189 H   0  0  0  0  0  0  0  0  0  0  0  0
   56.3645   28.9888   43.9216 H   0  0  0  0  0  0  0  0  0  0  0  0
   55.7204   29.8449   42.4797 H   0  0  0  0  0  0  0  0  0  0  0  0
   57.4083   29.2303   42.4797 H   0  0  0  0  0  0  0  0  0  0  0  0
  1  2  1  0
  2  3  1  0
  3  4  1  0
  4  5  2  0
  4  6  1  0
  6  7  1  0
  7  8  2  0
  8  9  1  0
  9 10  1  0
 10 11  2  0
 10 12  1  0
  9 13  2  0
 13 14  1  0
 14 15  2  0
 15 16  1  0
 16 17  1  0
  3 18  1  0
 18 19  1  0
 18 20  1  0
 20 21  1  0
 21 22  2  0
 22 23  1  0
 23 24  2  0
 24 25  1  0
 24 26  1  0
 15  7  1  0
 26 21  1  0
  1 27  1  0
  1 28  1  0
  1 29  1  0
  2 30  1  0
  2 31  1  0
  3 32  1  6
  6 33  1  0
  8 34  1  0
 13 35  1  0
 14 36  1  0
 17 37  1  0
 17 38  1  0
 17 39  1  0
 19 40  1  0
 19 41  1  0
 19 42  1  0
 20 43  1  0
 20 44  1  0
 22 45  1  0
 23 46  1  0
 25 47  1  0
 25 48  1  0
 25 49  1  0
M  CHG  2  10   1  12  -1
M  END
>  <UniqueID>  (51) 
48

>  <SMILES>  (51) 
CC[C@@H](C(=O)Nc1cc([N+](=O)[O-])ccc1OC)N(C)Cc1ccc(C)o1

>  <Energy>  (51) 
80.68815774097314

>  <Genealogy>  (51) 
CC[C@@H](C(=O)Nc1cc([N+](=O)[O-])ccc1OC)N(C)Cc1ccc(C)o1 (chirality)
CC[C@@H](C(=O)Nc1cc([N+](=O)[O-])ccc1OC)N(C)Cc1ccc(C)o1 (3D coordinates assigned)
CC[C@@H](C(=O)Nc1cc([N+](=O)[O-])ccc1OC)N(C)Cc1ccc(C)o1 (optimized conformer: 80.68815774097314 kcal/mol)

>  <smiles>  (51) 
CCC(C(=O)Nc1cc([N+](=O)[O-])ccc1OC)N(C)Cc1ccc(C)o1

>  <score_type>  (51) 
oracle

>  <origin>  (51) 
adg

>  <m_score__min__energy>  (51) 
-8.6500000000000004

>  <m_primary>  (51) 
energy

$$$$
51:0
     RDKit          3D

 33 36  0  0  0  0  0  0  0  0999 V2000
   61.4940   32.3830   48.9470 C   0  0  0  0  0  0  0  0  0  0  0  0
   61.9080   32.2710   47.6160 C   0  0  0  0  0  0  0  0  0  0  0  0
   61.2460   31.3960   46.7490 C   0  0  0  0  0  0  0  0  0  0  0  0
   60.1560   30.6400   47.2060 C   0  0  0  0  0  0  0  0  0  0  0  0
   59.4530   29.7240   46.2870 C   0  0  0  0  0  0  0  0  0  0  0  0
   59.8000   28.3710   46.2130 C   0  0  0  0  0  0  0  0  0  0  0  0
   58.6920   27.5570   45.2330 S   0  0  0  0  0  0  0  0  0  0  0  0
   57.7850   28.9200   44.8840 C   0  0  0  0  0  0  0  0  0  0  0  0
   56.6640   28.9630   44.1290 N   0  0  0  0  0  0  0  0  0  0  0  0
   56.0380   30.1570   43.9510 C   0  0  0  0  0  0  0  0  0  0  0  0
   56.5540   31.2940   44.5010 N   0  0  0  0  0  0  0  0  0  0  0  0
   57.6890   31.2810   45.2580 C   0  0  0  0  0  0  0  0  0  0  0  0
   58.2370   32.5730   45.7090 C   0  0  0  0  0  0  0  0  0  0  0  0
   58.0550   32.9870   47.0370 C   0  0  0  0  0  0  0  0  0  0  0  0
   58.5740   34.2110   47.4690 C   0  0  0  0  0  0  0  0  0  0  0  0
   59.2600   35.0360   46.5740 C   0  0  0  0  0  0  0  0  0  0  0  0
   59.4190   34.6440   45.2420 C   0  0  0  0  0  0  0  0  0  0  0  0
   58.8980   33.4220   44.8060 C   0  0  0  0  0  0  0  0  0  0  0  0
   58.3190   30.0410   45.4980 C   0  0  0  0  0  0  0  0  0  0  0  0
   59.7640   30.7360   48.5510 C   0  0  0  0  0  0  0  0  0  0  0  0
   60.4260   31.6130   49.4160 C   0  0  0  0  0  0  0  0  0  0  0  0
   62.0096   33.0781   49.6259 H   0  0  0  0  0  0  0  0  0  0  0  0
   62.7545   32.8712   47.2510 H   0  0  0  0  0  0  0  0  0  0  0  0
   61.5808   31.3002   45.7056 H   0  0  0  0  0  0  0  0  0  0  0  0
   60.6621   27.9085   46.7159 H   0  0  0  0  0  0  0  0  0  0  0  0
   55.1111   30.2064   43.3607 H   0  0  0  0  0  0  0  0  0  0  0  0
   57.5024   32.3467   47.7403 H   0  0  0  0  0  0  0  0  0  0  0  0
   58.4422   34.5251   48.5149 H   0  0  0  0  0  0  0  0  0  0  0  0
   59.6752   35.9948   46.9180 H   0  0  0  0  0  0  0  0  0  0  0  0
   59.9540   35.2969   44.5366 H   0  0  0  0  0  0  0  0  0  0  0  0
   59.0061   33.1245   43.7525 H   0  0  0  0  0  0  0  0  0  0  0  0
   58.9336   30.1194   48.9254 H   0  0  0  0  0  0  0  0  0  0  0  0
   60.1063   31.6968   50.4652 H   0  0  0  0  0  0  0  0  0  0  0  0
  1  2  2  0
  2  3  1  0
  3  4  2  0
  4  5  1  0
  5  6  2  0
  6  7  1  0
  7  8  1  0
  8  9  2  0
  9 10  1  0
 10 11  2  0
 11 12  1  0
 12 13  1  0
 13 14  2  0
 14 15  1  0
 15 16  2  0
 16 17  1  0
 17 18  2  0
 12 19  2  0
  4 20  1  0
 20 21  2  0
 21  1  1  0
 19  5  1  0
 19  8  1  0
 18 13  1  0
  1 22  1  0
  2 23  1  0
  3 24  1  0
  6 25  1  0
 10 26  1  0
 14 27  1  0
 15 28  1  0
 16 29  1  0
 17 30  1  0
 18 31  1  0
 20 32  1  0
 21 33  1  0
M  END
>  <UniqueID>  (52) 
49

>  <SMILES>  (52) 
c1ccc(-c2csc3ncnc(-c4ccccc4)c23)cc1

>  <Energy>  (52) 
84.34029302993902

>  <Genealogy>  (52) 
c1ccc(-c2csc3ncnc(-c4ccccc4)c23)cc1 (3D coordinates assigned)
c1ccc(-c2csc3ncnc(-c4ccccc4)c23)cc1 (optimized conformer: 84.34029302993902 kcal/mol)

>  <smiles>  (52) 
c1ccc(-c2csc3ncnc(-c4ccccc4)c23)cc1

>  <score_type>  (52) 
oracle

>  <origin>  (52) 
adg

>  <m_score__min__energy>  (52) 
-7.5499999999999998

>  <m_primary>  (52) 
energy

$$$$
52:0
     RDKit          3D

 28 30  0  0  0  0  0  0  0  0999 V2000
   57.4636   32.2737   42.4851 H   0  0  0  0  0  0  0  0  0  0  0  0
   57.4020   31.4760   43.2400 C   0  0  0  0  0  0  0  0  0  0  0  0
   58.1220   31.5850   44.4320 C   0  0  0  0  0  0  0  0  0  0  0  0
   58.7429   32.4735   44.6189 H   0  0  0  0  0  0  0  0  0  0  0  0
   58.0550   30.5670   45.3880 C   0  0  0  0  0  0  0  0  0  0  0  0
   58.6119   30.6638   46.3317 H   0  0  0  0  0  0  0  0  0  0  0  0
   57.2770   29.4180   45.1470 C   0  0  0  0  0  0  0  0  0  0  0  0
   57.1510   28.3600   46.1130 N   0  0  0  0  0  0  0  0  0  0  0  0
   56.7110   27.1570   45.8940 C   0  0  0  0  0  0  0  0  0  0  0  0
   55.5440   26.6670   46.3530 N   0  0  0  0  0  0  0  0  0  0  0  0
   55.4870   25.4130   45.9320 N   0  0  0  0  0  0  0  0  0  0  0  0
   56.6230   25.1880   45.2390 C   0  0  0  0  0  0  0  0  0  0  0  0
   56.9690   23.9070   44.5940 C   0  0  0  0  0  0  0  0  0  0  0  0
   58.0230   23.1260   45.0960 C   0  0  0  0  0  0  0  0  0  0  0  0
   58.5915   23.4726   45.9716 H   0  0  0  0  0  0  0  0  0  0  0  0
   58.3540   21.9100   44.4890 C   0  0  0  0  0  0  0  0  0  0  0  0
   59.1788   21.3022   44.8893 H   0  0  0  0  0  0  0  0  0  0  0  0
   57.6370   21.4670   43.3740 C   0  0  0  0  0  0  0  0  0  0  0  0
   57.8994   20.5119   42.8955 H   0  0  0  0  0  0  0  0  0  0  0  0
   56.5870   22.2370   42.8670 C   0  0  0  0  0  0  0  0  0  0  0  0
   56.0226   21.8869   41.9902 H   0  0  0  0  0  0  0  0  0  0  0  0
   56.2530   23.4520   43.4730 C   0  0  0  0  0  0  0  0  0  0  0  0
   55.4257   24.0550   43.0705 H   0  0  0  0  0  0  0  0  0  0  0  0
   57.3810   26.2600   45.2160 O   0  0  0  0  0  0  0  0  0  0  0  0
   56.5330   29.3340   43.9610 C   0  0  0  0  0  0  0  0  0  0  0  0
   55.8896   28.4603   43.7801 H   0  0  0  0  0  0  0  0  0  0  0  0
   56.6040   30.3540   43.0070 C   0  0  0  0  0  0  0  0  0  0  0  0
   56.0305   30.2724   42.0719 H   0  0  0  0  0  0  0  0  0  0  0  0
  1  2  1  0
  2  3  2  0
  3  4  1  0
  3  5  1  0
  5  6  1  0
  5  7  2  0
  7  8  1  0
  8  9  2  0
  9 10  1  0
 10 11  1  0
 11 12  2  0
 12 13  1  0
 13 14  2  0
 14 15  1  0
 14 16  1  0
 16 17  1  0
 16 18  2  0
 18 19  1  0
 18 20  1  0
 20 21  1  0
 20 22  2  0
 22 23  1  0
 12 24  1  0
  7 25  1  0
 25 26  1  0
 25 27  2  0
 27 28  1  0
 27  2  1  0
 24  9  1  0
 22 13  1  0
M  CHG  1  10  -1
M  END
>  <UniqueID>  (53) 
50

>  <SMILES>  (53) 
c1ccc(/N=c2\[n-]nc(-c3ccccc3)o2)cc1

>  <Energy>  (53) 
72.15329071675903

>  <Genealogy>  (53) 
c1ccc(N=c2[n-]nc(-c3ccccc3)o2)cc1 (protonated)
c1ccc(/N=c2\[n-]nc(-c3ccccc3)o2)cc1 (cis-trans isomerization)
c1ccc(/N=c2\[n-]nc(-c3ccccc3)o2)cc1 (3D coordinates assigned)
c1ccc(/N=c2\[n-]nc(-c3ccccc3)o2)cc1 (optimized conformer: 72.15329071675903 kcal/mol)

>  <smiles>  (53) 
c1ccc(N=c2[nH]nc(-c3ccccc3)o2)cc1

>  <score_type>  (53) 
oracle

>  <origin>  (53) 
adg

>  <m_score__min__energy>  (53) 
-8.5199999999999996

>  <m_primary>  (53) 
energy

$$$$
53:0
     RDKit          3D

 44 46  0  0  0  0  0  0  0  0999 V2000
   65.9550   32.8010   49.9770 C   0  0  0  0  0  0  0  0  0  0  0  0
   64.7220   31.9630   50.3470 C   0  0  0  0  0  0  0  0  0  0  0  0
   63.5180   32.3180   49.5460 N   0  0  2  0  0  0  0  0  0  0  0  0
   63.7370   31.9790   48.1070 C   0  0  0  0  0  0  0  0  0  0  0  0
   62.9470   32.8460   47.1050 C   0  0  0  0  0  0  0  0  0  0  0  0
   61.7120   33.3630   47.6990 N   0  0  0  0  0  0  0  0  0  0  0  0
   60.5320   33.5290   46.8860 C   0  0  0  0  0  0  0  0  0  0  0  0
   60.0360   34.8110   46.6030 C   0  0  0  0  0  0  0  0  0  0  0  0
   58.8900   34.9680   45.8210 C   0  0  0  0  0  0  0  0  0  0  0  0
   58.2240   33.8510   45.3120 C   0  0  0  0  0  0  0  0  0  0  0  0
   57.1400   34.0390   44.5190 F   0  0  0  0  0  0  0  0  0  0  0  0
   58.7030   32.5550   45.5870 C   0  0  0  0  0  0  0  0  0  0  0  0
   58.0280   31.3920   45.0710 N   0  0  0  0  0  0  0  0  0  0  0  0
   57.3980   31.2970   43.8810 C   0  0  0  0  0  0  0  0  0  0  0  0
   56.8920   30.0240   43.7180 C   0  0  0  0  0  0  0  0  0  0  0  0
   57.2320   29.3160   44.8520 C   0  0  0  0  0  0  0  0  0  0  0  0
   57.9320   30.1840   45.6650 C   0  0  0  0  0  0  0  0  0  0  0  0
   59.8610   32.4070   46.3710 C   0  0  0  0  0  0  0  0  0  0  0  0
   61.7580   33.9800   49.0280 C   0  0  0  0  0  0  0  0  0  0  0  0
   63.1250   33.7480   49.7090 C   0  0  1  0  0  0  0  0  0  0  0  0
   63.0150   34.1980   51.1820 C   0  0  0  0  0  0  0  0  0  0  0  0
   66.4559   33.1415   50.8952 H   0  0  0  0  0  0  0  0  0  0  0  0
   66.6509   32.1880   49.3854 H   0  0  0  0  0  0  0  0  0  0  0  0
   65.6412   33.6737   49.3854 H   0  0  0  0  0  0  0  0  0  0  0  0
   64.9555   30.9015   50.1778 H   0  0  0  0  0  0  0  0  0  0  0  0
   64.4884   32.1679   51.4022 H   0  0  0  0  0  0  0  0  0  0  0  0
   62.7260   31.7280   49.9000 H   0  0  0  0  0  0  0  0  0  0  0  0
   64.8087   32.0957   47.8883 H   0  0  0  0  0  0  0  0  0  0  0  0
   63.3738   30.9491   47.9752 H   0  0  0  0  0  0  0  0  0  0  0  0
   63.5752   33.6932   46.7926 H   0  0  0  0  0  0  0  0  0  0  0  0
   62.6785   32.2183   46.2425 H   0  0  0  0  0  0  0  0  0  0  0  0
   60.5531   35.6972   46.9995 H   0  0  0  0  0  0  0  0  0  0  0  0
   58.5096   35.9772   45.6046 H   0  0  0  0  0  0  0  0  0  0  0  0
   57.3023   32.1133   43.1499 H   0  0  0  0  0  0  0  0  0  0  0  0
   56.3274   29.6470   42.8525 H   0  0  0  0  0  0  0  0  0  0  0  0
   56.9919   28.2642   45.0665 H   0  0  0  0  0  0  0  0  0  0  0  0
   58.3495   29.9293   46.6503 H   0  0  0  0  0  0  0  0  0  0  0  0
   60.2468   31.3991   46.5840 H   0  0  0  0  0  0  0  0  0  0  0  0
   61.5875   35.0620   48.9266 H   0  0  0  0  0  0  0  0  0  0  0  0
   60.9776   33.5191   49.6513 H   0  0  0  0  0  0  0  0  0  0  0  0
   63.9238   34.3440   49.2434 H   0  0  0  0  0  0  0  0  0  0  0  0
   63.2238   33.3438   51.8429 H   0  0  0  0  0  0  0  0  0  0  0  0
   63.7439   34.9986   51.3762 H   0  0  0  0  0  0  0  0  0  0  0  0
   61.9990   34.5721   51.3762 H   0  0  0  0  0  0  0  0  0  0  0  0
  1  2  1  0
  2  3  1  0
  3  4  1  0
  4  5  1  0
  5  6  1  0
  6  7  1  0
  7  8  2  0
  8  9  1  0
  9 10  2  0
 10 11  1  0
 10 12  1  0
 12 13  1  0
 13 14  1  0
 14 15  2  0
 15 16  1  0
 16 17  2  0
 12 18  2  0
  6 19  1  0
 19 20  1  0
 20 21  1  0
 20  3  1  0
 18  7  1  0
 17 13  1  0
  1 22  1  0
  1 23  1  0
  1 24  1  0
  2 25  1  0
  2 26  1  0
  3 27  1  1
  4 28  1  0
  4 29  1  0
  5 30  1  0
  5 31  1  0
  8 32  1  0
  9 33  1  0
 14 34  1  0
 15 35  1  0
 16 36  1  0
 17 37  1  0
 18 38  1  0
 19 39  1  0
 19 40  1  0
 20 41  1  6
 21 42  1  0
 21 43  1  0
 21 44  1  0
M  CHG  1   3   1
M  END
>  <UniqueID>  (54) 
51

>  <SMILES>  (54) 
CC[N@@H+]1CCN(c2ccc(F)c(-n3cccc3)c2)C[C@H]1C

>  <Energy>  (54) 
87.76736355232569

>  <Genealogy>  (54) 
CC[NH+]1CCN(c2ccc(F)c(-n3cccc3)c2)CC1C (protonated)
CC[N@@H+]1CCN(c2ccc(F)c(-n3cccc3)c2)C[C@H]1C (chirality)
CC[N@@H+]1CCN(c2ccc(F)c(-n3cccc3)c2)C[C@H]1C (3D coordinates assigned)
CC[N@@H+]1CCN(c2ccc(F)c(-n3cccc3)c2)C[C@H]1C (nonaromatic ring conformer: 87.76736355232569 kcal/mol)

>  <smiles>  (54) 
CCN1CCN(c2ccc(F)c(-n3cccc3)c2)CC1C

>  <score_type>  (54) 
oracle

>  <origin>  (54) 
adg

>  <m_score__min__energy>  (54) 
-5.4400000000000004

>  <m_primary>  (54) 
energy

$$$$
54:0
     RDKit          3D

 31 32  0  0  0  0  0  0  0  0999 V2000
   58.5430   22.6900   45.1620 C   0  0  0  0  0  0  0  0  0  0  0  0
   58.4720   23.6580   46.2040 O   0  0  0  0  0  0  0  0  0  0  0  0
   58.3270   25.0380   45.9950 C   0  0  0  0  0  0  0  0  0  0  0  0
   58.5700   25.9840   47.0080 C   0  0  0  0  0  0  0  0  0  0  0  0
   58.4090   27.3490   46.7510 C   0  0  0  0  0  0  0  0  0  0  0  0
   57.9880   27.7900   45.4850 C   0  0  0  0  0  0  0  0  0  0  0  0
   57.8400   29.1870   45.1860 N   0  0  0  0  0  0  0  0  0  0  0  0
   56.5850   29.8160   44.8660 C   0  0  0  0  0  0  0  0  0  0  0  0
   55.5140   29.1530   44.8900 O   0  0  0  0  0  0  0  0  0  0  0  0
   56.5220   31.2110   44.5490 N   0  0  0  0  0  0  0  0  0  0  0  0
   57.4420   32.2160   44.9960 C   0  0  0  0  0  0  0  0  0  0  0  0
   57.9580   33.1860   44.1170 C   0  0  0  0  0  0  0  0  0  0  0  0
   58.8260   34.1740   44.5930 C   0  0  0  0  0  0  0  0  0  0  0  0
   59.1700   34.2130   45.9470 C   0  0  0  0  0  0  0  0  0  0  0  0
   60.0100   35.1730   46.4060 F   0  0  0  0  0  0  0  0  0  0  0  0
   58.6380   33.2680   46.8300 C   0  0  0  0  0  0  0  0  0  0  0  0
   57.7700   32.2790   46.3570 C   0  0  0  0  0  0  0  0  0  0  0  0
   57.7720   26.8450   44.4720 C   0  0  0  0  0  0  0  0  0  0  0  0
   57.9310   25.4800   44.7280 C   0  0  0  0  0  0  0  0  0  0  0  0
   58.6168   21.6839   45.6006 H   0  0  0  0  0  0  0  0  0  0  0  0
   57.6378   22.7535   44.5403 H   0  0  0  0  0  0  0  0  0  0  0  0
   59.4293   22.8849   44.5403 H   0  0  0  0  0  0  0  0  0  0  0  0
   58.8879   25.6483   48.0061 H   0  0  0  0  0  0  0  0  0  0  0  0
   58.6132   28.0823   47.5450 H   0  0  0  0  0  0  0  0  0  0  0  0
   58.7120   29.7590   45.1300 H   0  0  0  0  0  0  0  0  0  0  0  0
   57.6782   33.1672   43.0534 H   0  0  0  0  0  0  0  0  0  0  0  0
   59.2388   34.9220   43.9001 H   0  0  0  0  0  0  0  0  0  0  0  0
   58.9025   33.3027   47.8972 H   0  0  0  0  0  0  0  0  0  0  0  0
   57.3422   31.5463   47.0571 H   0  0  0  0  0  0  0  0  0  0  0  0
   57.4749   27.1805   43.4674 H   0  0  0  0  0  0  0  0  0  0  0  0
   57.7435   24.7486   43.9281 H   0  0  0  0  0  0  0  0  0  0  0  0
  1  2  1  0
  2  3  1  0
  3  4  2  0
  4  5  1  0
  5  6  2  0
  6  7  1  0
  7  8  1  0
  8  9  2  0
  8 10  1  0
 10 11  1  0
 11 12  2  0
 12 13  1  0
 13 14  2  0
 14 15  1  0
 14 16  1  0
 16 17  2  0
  6 18  1  0
 18 19  2  0
 19  3  1  0
 17 11  1  0
  1 20  1  0
  1 21  1  0
  1 22  1  0
  4 23  1  0
  5 24  1  0
  7 25  1  0
 12 26  1  0
 13 27  1  0
 16 28  1  0
 17 29  1  0
 18 30  1  0
 19 31  1  0
M  CHG  1  10  -1
M  END
>  <UniqueID>  (55) 
52

>  <SMILES>  (55) 
COc1ccc(NC(=O)[N-]c2ccc(F)cc2)cc1

>  <Energy>  (55) 
39.29817152031282

>  <Genealogy>  (55) 
COc1ccc(NC(=O)[N-]c2ccc(F)cc2)cc1 (protonated)
COc1ccc(NC(=O)[N-]c2ccc(F)cc2)cc1 (3D coordinates assigned)
COc1ccc(NC(=O)[N-]c2ccc(F)cc2)cc1 (optimized conformer: 39.29817152031282 kcal/mol)

>  <smiles>  (55) 
COc1ccc(NC(=O)Nc2ccc(F)cc2)cc1

>  <score_type>  (55) 
oracle

>  <origin>  (55) 
adg

>  <m_score__min__energy>  (55) 
-7.7800000000000002

>  <m_primary>  (55) 
energy

$$$$
55:0
     RDKit          3D

 35 36  0  0  0  0  0  0  0  0999 V2000
   57.7630   26.4560   45.6610 C   0  0  0  0  0  0  0  0  0  0  0  0
   56.3370   26.9060   45.7600 C   0  0  0  0  0  0  0  0  0  0  0  0
   55.4890   26.1320   46.2770 O   0  0  0  0  0  0  0  0  0  0  0  0
   55.9000   28.1720   45.2480 N   0  0  0  0  0  0  0  0  0  0  0  0
   56.6860   29.3660   45.1280 C   0  0  0  0  0  0  0  0  0  0  0  0
   56.3370   30.3100   44.1560 C   0  0  0  0  0  0  0  0  0  0  0  0
   57.0660   31.4970   44.0300 C   0  0  0  0  0  0  0  0  0  0  0  0
   58.1510   31.7540   44.8750 C   0  0  0  0  0  0  0  0  0  0  0  0
   58.8600   32.9930   44.7380 N   0  0  0  0  0  0  0  0  0  0  0  0
   58.5010   34.2480   45.3310 C   0  0  0  0  0  0  0  0  0  0  0  0
   57.5760   34.9250   44.8090 O   0  0  0  0  0  0  0  0  0  0  0  0
   59.2300   34.8040   46.5230 C   0  0  0  0  0  0  0  0  0  0  0  0
   60.6410   34.7690   46.3070 O   0  0  0  0  0  0  0  0  0  0  0  0
   61.4990   33.7440   46.7370 C   0  0  0  0  0  0  0  0  0  0  0  0
   62.9040   33.8510   46.6740 C   0  0  0  0  0  0  0  0  0  0  0  0
   63.7100   32.7980   47.1180 C   0  0  0  0  0  0  0  0  0  0  0  0
   63.1280   31.6340   47.6240 C   0  0  0  0  0  0  0  0  0  0  0  0
   61.7370   31.5200   47.6880 C   0  0  0  0  0  0  0  0  0  0  0  0
   60.9270   32.5710   47.2460 C   0  0  0  0  0  0  0  0  0  0  0  0
   58.4650   30.8350   45.8890 C   0  0  0  0  0  0  0  0  0  0  0  0
   57.7380   29.6490   46.0150 C   0  0  0  0  0  0  0  0  0  0  0  0
   58.1772   26.3253   46.6716 H   0  0  0  0  0  0  0  0  0  0  0  0
   57.8090   25.4997   45.1194 H   0  0  0  0  0  0  0  0  0  0  0  0
   58.3495   27.2127   45.1194 H   0  0  0  0  0  0  0  0  0  0  0  0
   55.4849   30.1176   43.4875 H   0  0  0  0  0  0  0  0  0  0  0  0
   56.7846   32.2327   43.2621 H   0  0  0  0  0  0  0  0  0  0  0  0
   58.9146   35.8450   46.6871 H   0  0  0  0  0  0  0  0  0  0  0  0
   58.9897   34.1916   47.4046 H   0  0  0  0  0  0  0  0  0  0  0  0
   63.3670   34.7653   46.2745 H   0  0  0  0  0  0  0  0  0  0  0  0
   64.8053   32.8869   47.0685 H   0  0  0  0  0  0  0  0  0  0  0  0
   63.7644   30.8071   47.9721 H   0  0  0  0  0  0  0  0  0  0  0  0
   61.2785   30.6029   48.0864 H   0  0  0  0  0  0  0  0  0  0  0  0
   59.8324   32.4758   47.2985 H   0  0  0  0  0  0  0  0  0  0  0  0
   59.2873   31.0500   46.5873 H   0  0  0  0  0  0  0  0  0  0  0  0
   57.9902   28.9338   46.8118 H   0  0  0  0  0  0  0  0  0  0  0  0
  1  2  1  0
  2  3  2  0
  2  4  1  0
  4  5  1  0
  5  6  2  0
  6  7  1  0
  7  8  2  0
  8  9  1  0
  9 10  1  0
 10 11  2  0
 10 12  1  0
 12 13  1  0
 13 14  1  0
 14 15  2  0
 15 16  1  0
 16 17  2  0
 17 18  1  0
 18 19  2  0
  8 20  1  0
 20 21  2  0
 21  5  1  0
 19 14  1  0
  1 22  1  0
  1 23  1  0
  1 24  1  0
  6 25  1  0
  7 26  1  0
 12 27  1  0
 12 28  1  0
 15 29  1  0
 16 30  1  0
 17 31  1  0
 18 32  1  0
 19 33  1  0
 20 34  1  0
 21 35  1  0
M  CHG  2   4  -1   9  -1
M  END
>  <UniqueID>  (56) 
53

>  <SMILES>  (56) 
CC(=O)[N-]c1ccc([N-]C(=O)COc2ccccc2)cc1

>  <Energy>  (56) 
42.5976965586011

>  <Genealogy>  (56) 
CC(=O)[N-]c1ccc([N-]C(=O)COc2ccccc2)cc1 (protonated)
CC(=O)[N-]c1ccc([N-]C(=O)COc2ccccc2)cc1 (3D coordinates assigned)
CC(=O)[N-]c1ccc([N-]C(=O)COc2ccccc2)cc1 (optimized conformer: 42.5976965586011 kcal/mol)

>  <smiles>  (56) 
CC(=O)Nc1ccc(NC(=O)COc2ccccc2)cc1

>  <score_type>  (56) 
oracle

>  <origin>  (56) 
adg

>  <m_score__min__energy>  (56) 
-10.32

>  <m_primary>  (56) 
energy

$$$$
56:0
     RDKit          3D

 26 27  0  0  0  0  0  0  0  0999 V2000
   58.9751   35.4769   46.8277 H   0  0  0  0  0  0  0  0  0  0  0  0
   58.6510   34.5840   46.2730 C   0  0  0  0  0  0  0  0  0  0  0  0
   58.2160   33.4500   46.9660 C   0  0  0  0  0  0  0  0  0  0  0  0
   58.1997   33.4506   48.0659 H   0  0  0  0  0  0  0  0  0  0  0  0
   57.8020   32.3160   46.2620 C   0  0  0  0  0  0  0  0  0  0  0  0
   57.4641   31.4238   46.8095 H   0  0  0  0  0  0  0  0  0  0  0  0
   57.8160   32.3120   44.8600 C   0  0  0  0  0  0  0  0  0  0  0  0
   57.2860   30.8850   43.9750 S   0  0  0  0  0  0  0  0  0  0  0  0
   57.1350   31.2440   42.5250 O   0  0  0  0  0  0  0  0  0  0  0  0
   55.9630   30.3970   44.4980 O   0  0  0  0  0  0  0  0  0  0  0  0
   58.4600   29.6140   44.1240 N   0  0  0  0  0  0  0  0  0  0  0  0
   58.3360   28.5270   44.8300 C   0  0  0  0  0  0  0  0  0  0  0  0
   59.4680   28.0200   45.4810 C   0  0  0  0  0  0  0  0  0  0  0  0
   60.4360   28.5339   45.3861 H   0  0  0  0  0  0  0  0  0  0  0  0
   59.3630   26.8610   46.2500 C   0  0  0  0  0  0  0  0  0  0  0  0
   60.2483   26.4580   46.7636 H   0  0  0  0  0  0  0  0  0  0  0  0
   58.1340   26.2150   46.3660 C   0  0  0  0  0  0  0  0  0  0  0  0
   58.0180   25.0890   47.1110 F   0  0  0  0  0  0  0  0  0  0  0  0
   57.0220   26.7400   45.7040 C   0  0  0  0  0  0  0  0  0  0  0  0
   56.0475   26.2366   45.7872 H   0  0  0  0  0  0  0  0  0  0  0  0
   57.1380   27.8720   44.9560 N   0  0  0  0  0  0  0  0  0  0  0  0
   56.2760   28.2160   44.4810 H   0  0  0  0  0  0  0  0  0  0  0  0
   58.2580   33.4500   44.1690 C   0  0  0  0  0  0  0  0  0  0  0  0
   58.2775   33.4514   43.0692 H   0  0  0  0  0  0  0  0  0  0  0  0
   58.6740   34.5830   44.8760 C   0  0  0  0  0  0  0  0  0  0  0  0
   59.0196   35.4741   44.3316 H   0  0  0  0  0  0  0  0  0  0  0  0
  1  2  1  0
  2  3  2  0
  3  4  1  0
  3  5  1  0
  5  6  1  0
  5  7  2  0
  7  8  1  0
  8  9  2  0
  8 10  2  0
  8 11  1  0
 11 12  2  0
 12 13  1  0
 13 14  1  0
 13 15  2  0
 15 16  1  0
 15 17  1  0
 17 18  1  0
 17 19  2  0
 19 20  1  0
 19 21  1  0
 21 22  1  0
  7 23  1  0
 23 24  1  0
 23 25  2  0
 25 26  1  0
 25  2  1  0
 21 12  1  0
M  END
>  <UniqueID>  (57) 
54

>  <SMILES>  (57) 
O=S(=O)(/N=c1/ccc(F)c[nH]1)c1ccccc1

>  <Energy>  (57) 
31.9119188642244

>  <Genealogy>  (57) 
O=S(=O)(/N=c1/ccc(F)c[nH]1)c1ccccc1 (cis-trans isomerization)
O=S(=O)(/N=c1/ccc(F)c[nH]1)c1ccccc1 (3D coordinates assigned)
O=S(=O)(/N=c1/ccc(F)c[nH]1)c1ccccc1 (optimized conformer: 31.9119188642244 kcal/mol)

>  <smiles>  (57) 
O=S(=O)(N=c1ccc(F)c[nH]1)c1ccccc1

>  <score_type>  (57) 
oracle

>  <origin>  (57) 
adg

>  <m_score__min__energy>  (57) 
-6.7300000000000004

>  <m_primary>  (57) 
energy

$$$$
57:0
     RDKit          3D

 72 77  0  0  0  0  0  0  0  0999 V2000
   61.4850   29.7017   49.0221 H   0  0  0  0  0  0  0  0  0  0  0  0
   60.6520   30.3980   48.8450 C   0  0  0  0  0  0  0  0  0  0  0  0
   60.4470   30.8250   47.5870 C   0  0  0  0  0  0  0  0  0  0  0  0
   60.2150   30.0696   46.8218 H   0  0  0  0  0  0  0  0  0  0  0  0
   60.5130   32.2720   47.1500 C   0  0  0  0  0  0  0  0  0  0  0  0
   60.4818   32.9084   48.0467 H   0  0  0  0  0  0  0  0  0  0  0  0
   61.4471   32.3966   46.5826 H   0  0  0  0  0  0  0  0  0  0  0  0
   59.4060   32.6680   46.2570 N   0  0  0  0  0  0  0  0  0  0  0  0
   58.4060   33.5360   46.9070 C   0  0  0  0  0  0  0  0  0  0  0  0
   57.7605   32.9262   47.5562 H   0  0  0  0  0  0  0  0  0  0  0  0
   58.9237   34.2982   47.5079 H   0  0  0  0  0  0  0  0  0  0  0  0
   57.5440   34.2320   45.8390 C   0  0  0  0  0  0  0  0  0  0  0  0
   56.5355   34.3907   46.2487 H   0  0  0  0  0  0  0  0  0  0  0  0
   58.0328   35.1840   45.5846 H   0  0  0  0  0  0  0  0  0  0  0  0
   57.4260   33.4060   44.5420 C   0  0  0  0  0  0  0  0  0  0  0  0
   56.4711   33.6435   44.0503 H   0  0  0  0  0  0  0  0  0  0  0  0
   58.2718   33.6612   43.8867 H   0  0  0  0  0  0  0  0  0  0  0  0
   57.4760   31.9050   44.8390 C   0  0  0  0  0  0  0  0  0  0  0  0
   56.6198   31.6373   45.4756 H   0  0  0  0  0  0  0  0  0  0  0  0
   57.4366   31.3612   43.8836 H   0  0  0  0  0  0  0  0  0  0  0  0
   58.7840   31.5180   45.5660 C   0  0  0  0  0  0  0  0  0  0  0  0
   58.5580   30.7393   46.3093 H   0  0  0  0  0  0  0  0  0  0  0  0
   59.4950   31.1573   44.8081 H   0  0  0  0  0  0  0  0  0  0  0  0
   59.8330   30.8020   50.0040 C   0  0  0  0  0  0  0  0  0  0  0  0
   58.5360   31.3100   49.8270 C   0  0  0  0  0  0  0  0  0  0  0  0
   58.1278   31.4298   48.8126 H   0  0  0  0  0  0  0  0  0  0  0  0
   57.7640   31.6630   50.9330 C   0  0  0  0  0  0  0  0  0  0  0  0
   56.7424   32.0440   50.7877 H   0  0  0  0  0  0  0  0  0  0  0  0
   58.2830   31.5350   52.2310 C   0  0  0  0  0  0  0  0  0  0  0  0
   57.4310   31.8590   53.4270 C   0  0  0  0  0  0  0  0  0  0  0  0
   56.6407   32.5607   53.1220 H   0  0  0  0  0  0  0  0  0  0  0  0
   58.0774   32.3039   54.1979 H   0  0  0  0  0  0  0  0  0  0  0  0
   56.7890   30.6210   54.0080 C   0  0  0  0  0  0  0  0  0  0  0  0
   57.4080   29.9160   55.0580 C   0  0  0  0  0  0  0  0  0  0  0  0
   58.3451   30.2945   55.4923 H   0  0  0  0  0  0  0  0  0  0  0  0
   56.8410   28.7410   55.5510 C   0  0  0  0  0  0  0  0  0  0  0  0
   57.3148   28.2136   56.3920 H   0  0  0  0  0  0  0  0  0  0  0  0
   55.6710   28.2320   54.9780 C   0  0  0  0  0  0  0  0  0  0  0  0
   55.2365   27.2978   55.3632 H   0  0  0  0  0  0  0  0  0  0  0  0
   55.0450   28.9060   53.9120 C   0  0  0  0  0  0  0  0  0  0  0  0
   53.8320   28.2840   53.2380 C   0  0  2  0  0  0  0  0  0  0  0  0
   54.1076   27.6369   52.3922 H   0  0  0  0  0  0  0  0  0  0  0  0
   53.0030   29.3720   52.5720 C   0  0  0  0  0  0  0  0  0  0  0  0
   53.2540   29.6910   51.2230 C   0  0  0  0  0  0  0  0  0  0  0  0
   53.8929   29.0295   50.6195 H   0  0  0  0  0  0  0  0  0  0  0  0
   52.7030   30.8360   50.6400 C   0  0  0  0  0  0  0  0  0  0  0  0
   52.8892   31.0571   49.5787 H   0  0  0  0  0  0  0  0  0  0  0  0
   51.9160   31.6990   51.4060 C   0  0  0  0  0  0  0  0  0  0  0  0
   51.3970   32.8570   50.8400 O   0  0  0  0  0  0  0  0  0  0  0  0
   51.6570   31.3980   52.7450 C   0  0  0  0  0  0  0  0  0  0  0  0
   51.0426   32.0798   53.3513 H   0  0  0  0  0  0  0  0  0  0  0  0
   52.1770   30.2310   53.3180 C   0  0  0  0  0  0  0  0  0  0  0  0
   51.8360   29.9160   54.6230 O   0  0  0  0  0  0  0  0  0  0  0  0
   51.1150   28.7290   54.9070 C   0  0  0  0  0  0  0  0  0  0  0  0
   50.6128   28.8498   55.8782 H   0  0  0  0  0  0  0  0  0  0  0  0
   50.3994   28.5788   54.0852 H   0  0  0  0  0  0  0  0  0  0  0  0
   51.9860   27.5010   54.9690 C   0  0  0  0  0  0  0  0  0  0  0  0
   51.5290   26.4690   55.8170 C   0  0  0  0  0  0  0  0  0  0  0  0
   50.6262   26.6299   56.4245 H   0  0  0  0  0  0  0  0  0  0  0  0
   52.1990   25.2520   55.8990 C   0  0  0  0  0  0  0  0  0  0  0  0
   51.8286   24.4648   56.5722 H   0  0  0  0  0  0  0  0  0  0  0  0
   53.3340   25.0310   55.1320 C   0  0  0  0  0  0  0  0  0  0  0  0
   53.8612   24.0675   55.1938 H   0  0  0  0  0  0  0  0  0  0  0  0
   53.8050   26.0300   54.2840 C   0  0  0  0  0  0  0  0  0  0  0  0
   54.7166   25.8476   53.6960 H   0  0  0  0  0  0  0  0  0  0  0  0
   53.1420   27.2730   54.1590 C   0  0  0  0  0  0  0  0  0  0  0  0
   55.6120   30.1060   53.4400 C   0  0  0  0  0  0  0  0  0  0  0  0
   55.1262   30.6475   52.6149 H   0  0  0  0  0  0  0  0  0  0  0  0
   59.5960   31.0690   52.4060 C   0  0  0  0  0  0  0  0  0  0  0  0
   60.0153   30.9786   53.4189 H   0  0  0  0  0  0  0  0  0  0  0  0
   60.3710   30.7200   51.2980 C   0  0  0  0  0  0  0  0  0  0  0  0
   61.4073   30.3794   51.4398 H   0  0  0  0  0  0  0  0  0  0  0  0
  1  2  1  0
  2  3  2  0
  3  4  1  0
  3  5  1  0
  5  6  1  0
  5  7  1  0
  5  8  1  0
  8  9  1  0
  9 10  1  0
  9 11  1  0
  9 12  1  0
 12 13  1  0
 12 14  1  0
 12 15  1  0
 15 16  1  0
 15 17  1  0
 15 18  1  0
 18 19  1  0
 18 20  1  0
 18 21  1  0
 21 22  1  0
 21 23  1  0
  2 24  1  0
 24 25  2  0
 25 26  1  0
 25 27  1  0
 27 28  1  0
 27 29  2  0
 29 30  1  0
 30 31  1  0
 30 32  1  0
 30 33  1  0
 33 34  2  0
 34 35  1  0
 34 36  1  0
 36 37  1  0
 36 38  2  0
 38 39  1  0
 38 40  1  0
 40 41  1  0
 41 42  1  6
 41 43  1  0
 43 44  2  0
 44 45  1  0
 44 46  1  0
 46 47  1  0
 46 48  2  0
 48 49  1  0
 48 50  1  0
 50 51  1  0
 50 52  2  0
 52 53  1  0
 53 54  1  0
 54 55  1  0
 54 56  1  0
 54 57  1  0
 57 58  2  0
 58 59  1  0
 58 60  1  0
 60 61  1  0
 60 62  2  0
 62 63  1  0
 62 64  1  0
 64 65  1  0
 64 66  2  0
 40 67  2  0
 67 68  1  0
 29 69  1  0
 69 70  1  0
 69 71  2  0
 71 72  1  0
 21  8  1  0
 71 24  1  0
 67 33  1  0
 66 41  1  0
 52 43  1  0
 66 57  1  0
M  CHG  1  49  -1
M  END
>  <UniqueID>  (58) 
55

>  <SMILES>  (58) 
[O-]c1ccc2c(c1)OCc1ccccc1[C@@H]2c1cccc(Cc2ccc(/C=C\CN3CCCCC3)cc2)c1

>  <Energy>  (58) 
114.15015986263965

>  <Genealogy>  (58) 
[O-]c1ccc2c(c1)OCc1ccccc1C2c1cccc(Cc2ccc(C=CCN3CCCCC3)cc2)c1 (protonated)
[O-]c1ccc2c(c1)OCc1ccccc1[C@@H]2c1cccc(Cc2ccc(C=CCN3CCCCC3)cc2)c1 (chirality)
[O-]c1ccc2c(c1)OCc1ccccc1[C@@H]2c1cccc(Cc2ccc(/C=C\CN3CCCCC3)cc2)c1 (cis-trans isomerization)
[O-]c1ccc2c(c1)OCc1ccccc1[C@@H]2c1cccc(Cc2ccc(/C=C\CN3CCCCC3)cc2)c1 (3D coordinates assigned)
[O-]c1ccc2c(c1)OCc1ccccc1[C@@H]2c1cccc(Cc2ccc(/C=C\CN3CCCCC3)cc2)c1 (nonaromatic ring conformer: 114.15015986263965 kcal/mol)

>  <smiles>  (58) 
Oc1ccc2c(c1)OCc1ccccc1C2c1cccc(Cc2ccc(C=CCN3CCCCC3)cc2)c1

>  <score_type>  (58) 
oracle

>  <origin>  (58) 
adg

>  <m_score__min__energy>  (58) 
-12.949999999999999

>  <m_primary>  (58) 
energy

$$$$
58:0
     RDKit          3D

 24 25  0  0  0  0  0  0  0  0999 V2000
   52.3330   30.8230   49.2490 H   0  0  0  0  0  0  0  0  0  0  0  0
   52.0740   30.4360   50.1820 N   0  0  0  0  0  0  0  0  0  0  0  0
   51.7070   31.1810   51.1760 C   0  0  0  0  0  0  0  0  0  0  0  0
   51.9190   30.9410   52.5230 C   0  0  0  0  0  0  0  0  0  0  0  0
   52.6830   29.8590   53.1820 C   0  0  0  0  0  0  0  0  0  0  0  0
   52.1940   29.2380   54.3430 C   0  0  0  0  0  0  0  0  0  0  0  0
   51.2401   29.5682   54.7800 H   0  0  0  0  0  0  0  0  0  0  0  0
   52.9140   28.2020   54.9460 C   0  0  0  0  0  0  0  0  0  0  0  0
   52.5268   27.7259   55.8589 H   0  0  0  0  0  0  0  0  0  0  0  0
   54.1320   27.7650   54.3910 C   0  0  0  0  0  0  0  0  0  0  0  0
   54.8920   26.7330   54.9610 O   0  0  0  0  0  0  0  0  0  0  0  0
   56.2080   26.3810   54.5470 C   0  0  0  0  0  0  0  0  0  0  0  0
   56.8382   26.2124   55.4327 H   0  0  0  0  0  0  0  0  0  0  0  0
   56.1692   25.4617   53.9442 H   0  0  0  0  0  0  0  0  0  0  0  0
   56.6333   27.1970   53.9442 H   0  0  0  0  0  0  0  0  0  0  0  0
   54.6070   28.3750   53.2250 C   0  0  0  0  0  0  0  0  0  0  0  0
   55.5558   28.0389   52.7813 H   0  0  0  0  0  0  0  0  0  0  0  0
   53.8860   29.4080   52.6190 C   0  0  0  0  0  0  0  0  0  0  0  0
   54.2643   29.8699   51.6951 H   0  0  0  0  0  0  0  0  0  0  0  0
   51.2440   31.9760   53.1520 C   0  0  0  0  0  0  0  0  0  0  0  0
   51.1741   32.1176   54.2406 H   0  0  0  0  0  0  0  0  0  0  0  0
   50.6860   32.7830   52.2260 N   0  0  0  0  0  0  0  0  0  0  0  0
   50.9710   32.2950   51.0290 N   0  0  0  0  0  0  0  0  0  0  0  0
   50.6470   32.7140   50.1290 H   0  0  0  0  0  0  0  0  0  0  0  0
  1  2  1  0
  2  3  2  0
  3  4  1  0
  4  5  1  0
  5  6  2  0
  6  7  1  0
  6  8  1  0
  8  9  1  0
  8 10  2  0
 10 11  1  0
 11 12  1  0
 12 13  1  0
 12 14  1  0
 12 15  1  0
 10 16  1  0
 16 17  1  0
 16 18  2  0
 18 19  1  0
  4 20  2  0
 20 21  1  0
 20 22  1  0
 22 23  1  0
 23 24  1  0
 23  3  1  0
 18  5  1  0
M  CHG  1  22  -1
M  END
>  <UniqueID>  (59) 
56

>  <SMILES>  (59) 
[H]/N=c1/[nH][n-]cc1-c1ccc(OC)cc1

>  <Energy>  (59) 
60.73762046233225

>  <Genealogy>  (59) 
COc1ccc(-c2c[n-][nH]c2=N)cc1 (protonated)
[H]/N=c1/[nH][n-]cc1-c1ccc(OC)cc1 (cis-trans isomerization)
[H]/N=c1/[nH][n-]cc1-c1ccc(OC)cc1 (3D coordinates assigned)
[H]/N=c1/[nH][n-]cc1-c1ccc(OC)cc1 (optimized conformer: 60.73762046233225 kcal/mol)

>  <smiles>  (59) 
COc1ccc(-c2c[nH][nH]c2=N)cc1

>  <score_type>  (59) 
oracle

>  <origin>  (59) 
adg

>  <m_score__min__energy>  (59) 
-7.9400000000000004

>  <m_primary>  (59) 
energy

$$$$
59:0
     RDKit          3D

 41 43  0  0  0  0  0  0  0  0999 V2000
   60.2103   34.6925   44.8121 H   0  0  0  0  0  0  0  0  0  0  0  0
   59.9360   34.3250   45.8120 C   0  0  0  0  0  0  0  0  0  0  0  0
   60.8990   34.2830   46.8250 C   0  0  0  0  0  0  0  0  0  0  0  0
   61.9303   34.6030   46.6154 H   0  0  0  0  0  0  0  0  0  0  0  0
   60.5530   33.8340   48.1070 C   0  0  0  0  0  0  0  0  0  0  0  0
   61.7650   33.7350   49.3830 S   0  0  0  0  0  0  0  0  0  0  0  0
   61.0590   33.6450   50.7090 O   0  0  0  0  0  0  0  0  0  0  0  0
   62.6190   34.9730   49.3780 O   0  0  0  0  0  0  0  0  0  0  0  0
   62.7600   32.3210   49.1450 N   0  0  0  0  0  0  0  0  0  0  0  0
   63.3010   32.1460   50.0240 H   0  0  0  0  0  0  0  0  0  0  0  0
   61.9160   31.1510   48.8640 C   0  0  0  0  0  0  0  0  0  0  0  0
   61.5894   30.6983   49.8119 H   0  0  0  0  0  0  0  0  0  0  0  0
   61.0350   31.4650   48.2849 H   0  0  0  0  0  0  0  0  0  0  0  0
   62.4918   30.4141   48.2849 H   0  0  0  0  0  0  0  0  0  0  0  0
   63.7050   32.5540   48.0440 C   0  0  0  0  0  0  0  0  0  0  0  0
   64.6952   32.7981   48.4562 H   0  0  0  0  0  0  0  0  0  0  0  0
   63.7786   31.6471   47.4258 H   0  0  0  0  0  0  0  0  0  0  0  0
   63.3486   33.3912   47.4258 H   0  0  0  0  0  0  0  0  0  0  0  0
   59.2380   33.4300   48.3670 C   0  0  0  0  0  0  0  0  0  0  0  0
   58.9615   33.0795   49.3723 H   0  0  0  0  0  0  0  0  0  0  0  0
   58.2760   33.4700   47.3560 C   0  0  0  0  0  0  0  0  0  0  0  0
   57.2422   33.1626   47.5723 H   0  0  0  0  0  0  0  0  0  0  0  0
   58.6210   33.9010   46.0630 C   0  0  0  0  0  0  0  0  0  0  0  0
   57.6090   33.9360   44.9800 C   0  0  0  0  0  0  0  0  0  0  0  0
   56.8920   34.9620   44.8430 O   0  0  0  0  0  0  0  0  0  0  0  0
   57.3810   32.8170   44.1060 N   0  0  0  0  0  0  0  0  0  0  0  0
   57.5210   31.5660   44.4260 C   0  0  0  0  0  0  0  0  0  0  0  0
   58.7640   31.0820   44.6810 N   0  0  0  0  0  0  0  0  0  0  0  0
   58.9430   29.7810   45.0230 C   0  0  0  0  0  0  0  0  0  0  0  0
   60.2280   29.2890   45.2790 C   0  0  0  0  0  0  0  0  0  0  0  0
   61.0982   29.9578   45.2051 H   0  0  0  0  0  0  0  0  0  0  0  0
   60.4050   27.9460   45.6290 C   0  0  0  0  0  0  0  0  0  0  0  0
   61.4150   27.5603   45.8315 H   0  0  0  0  0  0  0  0  0  0  0  0
   59.3010   27.0930   45.7220 C   0  0  0  0  0  0  0  0  0  0  0  0
   59.4459   26.0376   45.9961 H   0  0  0  0  0  0  0  0  0  0  0  0
   58.0130   27.5760   45.4680 C   0  0  0  0  0  0  0  0  0  0  0  0
   57.1465   26.9025   45.5432 H   0  0  0  0  0  0  0  0  0  0  0  0
   57.8290   28.9260   45.1160 C   0  0  0  0  0  0  0  0  0  0  0  0
   56.5670   29.4780   44.8490 C   0  0  0  0  0  0  0  0  0  0  0  0
   55.5240   28.7730   44.9160 O   0  0  0  0  0  0  0  0  0  0  0  0
   56.4620   30.7620   44.5230 O   0  0  0  0  0  0  0  0  0  0  0  0
  1  2  1  0
  2  3  2  0
  3  4  1  0
  3  5  1  0
  5  6  1  0
  6  7  2  0
  6  8  2  0
  6  9  1  0
  9 10  1  0
  9 11  1  0
 11 12  1  0
 11 13  1  0
 11 14  1  0
  9 15  1  0
 15 16  1  0
 15 17  1  0
 15 18  1  0
  5 19  2  0
 19 20  1  0
 19 21  1  0
 21 22  1  0
 21 23  2  0
 23 24  1  0
 24 25  2  0
 24 26  1  0
 26 27  2  0
 27 28  1  0
 28 29  1  0
 29 30  2  0
 30 31  1  0
 30 32  1  0
 32 33  1  0
 32 34  2  0
 34 35  1  0
 34 36  1  0
 36 37  1  0
 36 38  2  0
 38 39  1  0
 39 40  2  0
 39 41  1  0
 23  2  1  0
 41 27  1  0
 38 29  1  0
M  CHG  2   9   1  28  -1
M  END
>  <UniqueID>  (60) 
57

>  <SMILES>  (60) 
C[NH+](C)S(=O)(=O)c1ccc(C(=O)/N=c2/[n-]c3ccccc3c(=O)o2)cc1

>  <Energy>  (60) 
52.545703247749756

>  <Genealogy>  (60) 
C[NH+](C)S(=O)(=O)c1ccc(C(=O)N=c2[n-]c3ccccc3c(=O)o2)cc1 (protonated)
C[NH+](C)S(=O)(=O)c1ccc(C(=O)/N=c2/[n-]c3ccccc3c(=O)o2)cc1 (cis-trans isomerization)
C[NH+](C)S(=O)(=O)c1ccc(C(=O)/N=c2/[n-]c3ccccc3c(=O)o2)cc1 (3D coordinates assigned)
C[NH+](C)S(=O)(=O)c1ccc(C(=O)/N=c2/[n-]c3ccccc3c(=O)o2)cc1 (optimized conformer: 52.545703247749756 kcal/mol)

>  <smiles>  (60) 
CN(C)S(=O)(=O)c1ccc(C(=O)N=c2[nH]c3ccccc3c(=O)o2)cc1

>  <score_type>  (60) 
oracle

>  <origin>  (60) 
adg

>  <m_score__min__energy>  (60) 
-9.1999999999999993

>  <m_primary>  (60) 
energy

$$$$
60:0
     RDKit          3D

103105  0  0  0  0  0  0  0  0999 V2000
   58.9030   28.9890   48.4730 C   0  0  0  0  0  0  0  0  0  0  0  0
   59.1630   28.3810   47.0940 C   0  0  0  0  0  0  0  0  0  0  0  0
   59.1120   29.4230   45.9660 C   0  0  0  0  0  0  0  0  0  0  0  0
   59.1530   28.7800   44.5700 C   0  0  0  0  0  0  0  0  0  0  0  0
   57.7630   28.3280   44.0900 C   0  0  0  0  0  0  0  0  0  0  0  0
   56.6850   29.3980   44.3070 C   0  0  0  0  0  0  0  0  0  0  0  0
   57.0570   30.7030   43.5890 C   0  0  0  0  0  0  0  0  0  0  0  0
   57.3270   31.8670   44.5590 C   0  0  0  0  0  0  0  0  0  0  0  0
   58.1590   33.0260   43.9710 C   0  0  0  0  0  0  0  0  0  0  0  0
   58.3030   34.2540   44.8920 C   0  0  0  0  0  0  0  0  0  0  0  0
   58.1330   33.9520   46.3940 C   0  0  0  0  0  0  0  0  0  0  0  0
   59.1760   34.6200   47.3150 C   0  0  0  0  0  0  0  0  0  0  0  0
   60.1260   33.6420   48.0360 C   0  0  0  0  0  0  0  0  0  0  0  0
   60.1000   32.1970   47.4990 C   0  0  0  0  0  0  0  0  0  0  0  0
   61.3110   31.3300   47.9060 C   0  0  0  0  0  0  0  0  0  0  0  0
   62.6090   31.6140   47.1250 C   0  0  0  0  0  0  0  0  0  0  0  0
   63.6480   32.3740   47.9640 C   0  0  0  0  0  0  0  0  0  0  0  0
   63.3970   33.8900   47.9760 C   0  0  0  0  0  0  0  0  0  0  0  0
   62.9840   34.3540   49.2480 O   0  0  0  0  0  0  0  0  0  0  0  0
   62.8580   33.2990   50.1860 C   0  0  0  0  0  0  0  0  0  0  0  0
   62.0320   33.7480   51.4100 C   0  0  2  0  0  0  0  0  0  0  0  0
   62.2530   32.8500   52.6180 C   0  0  0  0  0  0  0  0  0  0  0  0
   61.1650   31.8360   52.4750 C   0  0  0  0  0  0  0  0  0  0  0  0
   60.0580   32.6210   51.7480 C   0  0  1  0  0  0  0  0  0  0  0  0
   59.3480   31.7310   50.6850 C   0  0  0  0  0  0  0  0  0  0  0  0
   58.0900   31.0730   51.2660 C   0  0  0  0  0  0  0  0  0  0  0  0
   57.0700   32.0930   51.6290 N   0  0  1  0  0  0  0  0  0  0  0  0
   55.9890   31.5320   52.4810 C   0  0  0  0  0  0  0  0  0  0  0  0
   56.1140   30.0150   52.7690 C   0  0  0  0  0  0  0  0  0  0  0  0
   54.8410   29.2480   52.3840 C   0  0  0  0  0  0  0  0  0  0  0  0
   53.6420   30.1500   52.2670 C   0  0  0  0  0  0  0  0  0  0  0  0
   52.8850   30.4720   53.4060 C   0  0  0  0  0  0  0  0  0  0  0  0
   51.7690   31.3100   53.2960 C   0  0  0  0  0  0  0  0  0  0  0  0
   51.4020   31.8290   52.0520 C   0  0  0  0  0  0  0  0  0  0  0  0
   52.1480   31.5080   50.9150 C   0  0  0  0  0  0  0  0  0  0  0  0
   53.2630   30.6700   51.0170 C   0  0  0  0  0  0  0  0  0  0  0  0
   57.6410   33.3710   52.1510 C   0  0  0  0  0  0  0  0  0  0  0  0
   59.0320   33.1850   52.7780 C   0  0  0  0  0  0  0  0  0  0  0  0
   60.6580   33.7210   51.0860 O   0  0  0  0  0  0  0  0  0  0  0  0
   59.2083   28.2749   49.2520 H   0  0  0  0  0  0  0  0  0  0  0  0
   59.4826   29.9178   48.5794 H   0  0  0  0  0  0  0  0  0  0  0  0
   57.8310   29.2115   48.5794 H   0  0  0  0  0  0  0  0  0  0  0  0
   60.1593   27.9148   47.0974 H   0  0  0  0  0  0  0  0  0  0  0  0
   58.3692   27.6443   46.9012 H   0  0  0  0  0  0  0  0  0  0  0  0
   58.1810   30.0010   46.0612 H   0  0  0  0  0  0  0  0  0  0  0  0
   59.9986   30.0666   46.0644 H   0  0  0  0  0  0  0  0  0  0  0  0
   59.5519   29.5143   43.8547 H   0  0  0  0  0  0  0  0  0  0  0  0
   59.7927   27.8873   44.6312 H   0  0  0  0  0  0  0  0  0  0  0  0
   57.8192   28.0978   43.0158 H   0  0  0  0  0  0  0  0  0  0  0  0
   57.4783   27.4449   44.6808 H   0  0  0  0  0  0  0  0  0  0  0  0
   55.7270   29.0296   43.9114 H   0  0  0  0  0  0  0  0  0  0  0  0
   56.6027   29.6008   45.3850 H   0  0  0  0  0  0  0  0  0  0  0  0
   57.9633   30.5279   42.9907 H   0  0  0  0  0  0  0  0  0  0  0  0
   56.1999   30.9894   42.9618 H   0  0  0  0  0  0  0  0  0  0  0  0
   56.3574   32.2731   44.8831 H   0  0  0  0  0  0  0  0  0  0  0  0
   57.9226   31.4483   45.3836 H   0  0  0  0  0  0  0  0  0  0  0  0
   59.1668   32.6450   43.7493 H   0  0  0  0  0  0  0  0  0  0  0  0
   57.6181   33.3719   43.0778 H   0  0  0  0  0  0  0  0  0  0  0  0
   59.3047   34.6821   44.7392 H   0  0  0  0  0  0  0  0  0  0  0  0
   57.4924   34.9457   44.6190 H   0  0  0  0  0  0  0  0  0  0  0  0
   57.1350   34.2981   46.7010 H   0  0  0  0  0  0  0  0  0  0  0  0
   58.2724   32.8668   46.5074 H   0  0  0  0  0  0  0  0  0  0  0  0
   59.7862   35.3006   46.7031 H   0  0  0  0  0  0  0  0  0  0  0  0
   58.6071   35.1351   48.1030 H   0  0  0  0  0  0  0  0  0  0  0  0
   61.1520   34.0255   47.9353 H   0  0  0  0  0  0  0  0  0  0  0  0
   59.7811   33.5896   49.0792 H   0  0  0  0  0  0  0  0  0  0  0  0
   59.1887   31.7091   47.8751 H   0  0  0  0  0  0  0  0  0  0  0  0
   60.1313   32.2750   46.4022 H   0  0  0  0  0  0  0  0  0  0  0  0
   61.5107   31.5030   48.9738 H   0  0  0  0  0  0  0  0  0  0  0  0
   61.0354   30.2904   47.6753 H   0  0  0  0  0  0  0  0  0  0  0  0
   63.0456   30.6559   46.8067 H   0  0  0  0  0  0  0  0  0  0  0  0
   62.3484   32.2466   46.2637 H   0  0  0  0  0  0  0  0  0  0  0  0
   63.6078   32.0012   48.9981 H   0  0  0  0  0  0  0  0  0  0  0  0
   64.6354   32.2015   47.5110 H   0  0  0  0  0  0  0  0  0  0  0  0
   64.3276   34.4053   47.6961 H   0  0  0  0  0  0  0  0  0  0  0  0
   62.5897   34.1041   47.2602 H   0  0  0  0  0  0  0  0  0  0  0  0
   62.3553   32.4471   49.7048 H   0  0  0  0  0  0  0  0  0  0  0  0
   63.8629   33.0089   50.5266 H   0  0  0  0  0  0  0  0  0  0  0  0
   62.3626   34.7649   51.6681 H   0  0  0  0  0  0  0  0  0  0  0  0
   63.2448   32.3755   52.5837 H   0  0  0  0  0  0  0  0  0  0  0  0
   62.2237   33.3905   53.5756 H   0  0  0  0  0  0  0  0  0  0  0  0
   61.5006   30.9772   51.8751 H   0  0  0  0  0  0  0  0  0  0  0  0
   60.8377   31.4111   53.4354 H   0  0  0  0  0  0  0  0  0  0  0  0
   59.0623   32.3561   49.8262 H   0  0  0  0  0  0  0  0  0  0  0  0
   60.0438   30.9385   50.3723 H   0  0  0  0  0  0  0  0  0  0  0  0
   57.6636   30.3896   50.5169 H   0  0  0  0  0  0  0  0  0  0  0  0
   58.3724   30.5228   52.1757 H   0  0  0  0  0  0  0  0  0  0  0  0
   56.5950   32.3400   50.7260 H   0  0  0  0  0  0  0  0  0  0  0  0
   55.9990   32.0655   53.4429 H   0  0  0  0  0  0  0  0  0  0  0  0
   55.0512   31.6661   51.9219 H   0  0  0  0  0  0  0  0  0  0  0  0
   56.9591   29.6126   52.1912 H   0  0  0  0  0  0  0  0  0  0  0  0
   56.2731   29.8871   53.8499 H   0  0  0  0  0  0  0  0  0  0  0  0
   55.0062   28.7523   51.4160 H   0  0  0  0  0  0  0  0  0  0  0  0
   54.6353   28.5176   53.1804 H   0  0  0  0  0  0  0  0  0  0  0  0
   53.1701   30.0644   54.3871 H   0  0  0  0  0  0  0  0  0  0  0  0
   51.1800   31.5602   54.1907 H   0  0  0  0  0  0  0  0  0  0  0  0
   50.5266   32.4897   51.9677 H   0  0  0  0  0  0  0  0  0  0  0  0
   51.8571   31.9160   49.9358 H   0  0  0  0  0  0  0  0  0  0  0  0
   53.8443   30.4174   50.1179 H   0  0  0  0  0  0  0  0  0  0  0  0
   57.7224   34.0861   51.3191 H   0  0  0  0  0  0  0  0  0  0  0  0
   56.9673   33.7394   52.9387 H   0  0  0  0  0  0  0  0  0  0  0  0
   59.3916   34.1584   53.1429 H   0  0  0  0  0  0  0  0  0  0  0  0
   58.9425   32.4633   53.6033 H   0  0  0  0  0  0  0  0  0  0  0  0
  1  2  1  0
  2  3  1  0
  3  4  1  0
  4  5  1  0
  5  6  1  0
  6  7  1  0
  7  8  1  0
  8  9  1  0
  9 10  1  0
 10 11  1  0
 11 12  1  0
 12 13  1  0
 13 14  1  0
 14 15  1  0
 15 16  1  0
 16 17  1  0
 17 18  1  0
 18 19  1  0
 19 20  1  0
 20 21  1  0
 21 22  1  0
 22 23  1  0
 23 24  1  0
 24 25  1  0
 25 26  1  0
 26 27  1  0
 27 28  1  0
 28 29  1  0
 29 30  1  0
 30 31  1  0
 31 32  2  0
 32 33  1  0
 33 34  2  0
 34 35  1  0
 35 36  2  0
 27 37  1  0
 37 38  1  0
 24 39  1  6
 39 21  1  0
 38 24  1  0
 36 31  1  0
  1 40  1  0
  1 41  1  0
  1 42  1  0
  2 43  1  0
  2 44  1  0
  3 45  1  0
  3 46  1  0
  4 47  1  0
  4 48  1  0
  5 49  1  0
  5 50  1  0
  6 51  1  0
  6 52  1  0
  7 53  1  0
  7 54  1  0
  8 55  1  0
  8 56  1  0
  9 57  1  0
  9 58  1  0
 10 59  1  0
 10 60  1  0
 11 61  1  0
 11 62  1  0
 12 63  1  0
 12 64  1  0
 13 65  1  0
 13 66  1  0
 14 67  1  0
 14 68  1  0
 15 69  1  0
 15 70  1  0
 16 71  1  0
 16 72  1  0
 17 73  1  0
 17 74  1  0
 18 75  1  0
 18 76  1  0
 20 77  1  0
 20 78  1  0
 21 79  1  1
 22 80  1  0
 22 81  1  0
 23 82  1  0
 23 83  1  0
 25 84  1  0
 25 85  1  0
 26 86  1  0
 26 87  1  0
 27 88  1  6
 28 89  1  0
 28 90  1  0
 29 91  1  0
 29 92  1  0
 30 93  1  0
 30 94  1  0
 32 95  1  0
 33 96  1  0
 34 97  1  0
 35 98  1  0
 36 99  1  0
 37100  1  0
 37101  1  0
 38102  1  0
 38103  1  0
M  CHG  1  27   1
M  END
>  <UniqueID>  (61) 
58

>  <SMILES>  (61) 
CCCCCCCCCCCCCCCCCCOC[C@@H]1CCC2(CC[NH+](CCCc3ccccc3)CC2)O1

>  <Energy>  (61) 
91.31665547960618

>  <Genealogy>  (61) 
CCCCCCCCCCCCCCCCCCOCC1CCC2(CC[NH+](CCCc3ccccc3)CC2)O1 (protonated)
CCCCCCCCCCCCCCCCCCOC[C@@H]1CCC2(CC[NH+](CCCc3ccccc3)CC2)O1 (chirality)
CCCCCCCCCCCCCCCCCCOC[C@@H]1CCC2(CC[NH+](CCCc3ccccc3)CC2)O1 (3D coordinates assigned)
CCCCCCCCCCCCCCCCCCOC[C@@H]1CCC2(CC[NH+](CCCc3ccccc3)CC2)O1 (nonaromatic ring conformer: 91.31665547960618 kcal/mol)

>  <smiles>  (61) 
CCCCCCCCCCCCCCCCCCOCC1CCC2(CCN(CCCc3ccccc3)CC2)O1

>  <score_type>  (61) 
oracle

>  <origin>  (61) 
adg

>  <m_score__min__energy>  (61) 
-7.8399999999999999

>  <m_primary>  (61) 
energy

$$$$
61:0
     RDKit          3D

 24 25  0  0  0  0  0  0  0  0999 V2000
   57.3890   23.9900   47.7890 N   0  0  0  0  0  0  0  0  0  0  0  0
   57.5620   25.0050   47.2630 C   0  0  0  0  0  0  0  0  0  0  0  0
   57.7760   26.2670   46.6090 C   0  0  0  0  0  0  0  0  0  0  0  0
   59.2790   26.9800   46.3860 S   0  0  0  0  0  0  0  0  0  0  0  0
   58.7190   28.3390   45.5700 C   0  0  0  0  0  0  0  0  0  0  0  0
   57.3310   28.2540   45.4560 C   0  0  0  0  0  0  0  0  0  0  0  0
   56.5220   29.3300   44.8420 C   0  0  0  0  0  0  0  0  0  0  0  0
   55.2740   29.1720   44.7430 O   0  0  0  0  0  0  0  0  0  0  0  0
   57.1290   30.6030   44.3790 C   0  0  0  0  0  0  0  0  0  0  0  0
   57.7010   31.5080   45.2920 C   0  0  0  0  0  0  0  0  0  0  0  0
   58.2810   32.6980   44.8410 C   0  0  0  0  0  0  0  0  0  0  0  0
   58.3040   32.9930   43.4760 C   0  0  0  0  0  0  0  0  0  0  0  0
   57.7510   32.0970   42.5590 C   0  0  0  0  0  0  0  0  0  0  0  0
   57.1710   30.9050   43.0050 C   0  0  0  0  0  0  0  0  0  0  0  0
   56.8020   27.0850   46.0430 C   0  0  0  0  0  0  0  0  0  0  0  0
   55.4130   26.7330   46.0210 N   0  0  0  0  0  0  0  0  0  0  0  0
   59.3440   29.1600   45.1887 H   0  0  0  0  0  0  0  0  0  0  0  0
   57.6919   31.2780   46.3676 H   0  0  0  0  0  0  0  0  0  0  0  0
   58.7198   33.4029   45.5625 H   0  0  0  0  0  0  0  0  0  0  0  0
   58.7577   33.9310   43.1235 H   0  0  0  0  0  0  0  0  0  0  0  0
   57.7715   32.3290   41.4839 H   0  0  0  0  0  0  0  0  0  0  0  0
   56.7449   30.1989   42.2771 H   0  0  0  0  0  0  0  0  0  0  0  0
   55.0240   26.0490   46.7070 H   0  0  0  0  0  0  0  0  0  0  0  0
   54.7690   27.1020   45.2880 H   0  0  0  0  0  0  0  0  0  0  0  0
  1  2  3  0
  2  3  1  0
  3  4  1  0
  4  5  1  0
  5  6  2  0
  6  7  1  0
  7  8  2  0
  7  9  1  0
  9 10  2  0
 10 11  1  0
 11 12  2  0
 12 13  1  0
 13 14  2  0
  6 15  1  0
 15 16  1  0
 15  3  2  0
 14  9  1  0
  5 17  1  0
 10 18  1  0
 11 19  1  0
 12 20  1  0
 13 21  1  0
 14 22  1  0
 16 23  1  0
 16 24  1  0
M  END
>  <UniqueID>  (62) 
59

>  <SMILES>  (62) 
N#Cc1scc(C(=O)c2ccccc2)c1N

>  <Energy>  (62) 
56.55344476935501

>  <Genealogy>  (62) 
N#Cc1scc(C(=O)c2ccccc2)c1N (3D coordinates assigned)
N#Cc1scc(C(=O)c2ccccc2)c1N (optimized conformer: 56.55344476935501 kcal/mol)

>  <smiles>  (62) 
N#Cc1scc(C(=O)c2ccccc2)c1N

>  <score_type>  (62) 
oracle

>  <origin>  (62) 
adg

>  <m_score__min__energy>  (62) 
-7.5099999999999998

>  <m_primary>  (62) 
energy

$$$$
62:0
     RDKit          3D

 41 43  0  0  0  0  0  0  0  0999 V2000
   56.2080   29.1790   44.6720 C   0  0  0  0  0  0  0  0  0  0  0  0
   56.9120   30.4410   44.2700 C   0  0  0  0  0  0  0  0  0  0  0  0
   57.0320   30.7810   42.9150 C   0  0  0  0  0  0  0  0  0  0  0  0
   57.6550   31.9790   42.5360 C   0  0  0  0  0  0  0  0  0  0  0  0
   57.7420   32.3600   41.0880 C   0  0  0  0  0  0  0  0  0  0  0  0
   58.1280   32.8550   43.5240 C   0  0  0  0  0  0  0  0  0  0  0  0
   58.0220   32.5180   44.8840 C   0  0  0  0  0  0  0  0  0  0  0  0
   58.4870   33.3980   45.9200 N   0  0  0  0  0  0  0  0  0  0  0  0
   59.0940   33.0190   47.1640 C   0  0  0  0  0  0  0  0  0  0  0  0
   58.3460   32.7900   48.1510 O   0  0  0  0  0  0  0  0  0  0  0  0
   60.5580   32.8060   47.2940 C   0  0  0  0  0  0  0  0  0  0  0  0
   61.3840   33.9180   47.5400 C   0  0  0  0  0  0  0  0  0  0  0  0
   62.7690   33.7730   47.6180 C   0  0  0  0  0  0  0  0  0  0  0  0
   63.3530   32.5200   47.4400 C   0  0  0  0  0  0  0  0  0  0  0  0
   62.5520   31.4050   47.1890 C   0  0  0  0  0  0  0  0  0  0  0  0
   61.1530   31.5280   47.1180 C   0  0  0  0  0  0  0  0  0  0  0  0
   60.3500   30.3020   46.8950 C   0  0  0  0  0  0  0  0  0  0  0  0
   59.5730   29.7550   47.9320 C   0  0  0  0  0  0  0  0  0  0  0  0
   58.8290   28.5900   47.7170 C   0  0  0  0  0  0  0  0  0  0  0  0
   58.8610   27.9590   46.4700 C   0  0  0  0  0  0  0  0  0  0  0  0
   59.6380   28.4890   45.4380 C   0  0  0  0  0  0  0  0  0  0  0  0
   60.3840   29.6540   45.6490 C   0  0  0  0  0  0  0  0  0  0  0  0
   57.3920   31.3240   45.2490 C   0  0  0  0  0  0  0  0  0  0  0  0
   56.1713   29.1132   45.7694 H   0  0  0  0  0  0  0  0  0  0  0  0
   55.1838   29.1867   44.2707 H   0  0  0  0  0  0  0  0  0  0  0  0
   56.7526   28.3116   44.2707 H   0  0  0  0  0  0  0  0  0  0  0  0
   56.6350   30.1038   42.1444 H   0  0  0  0  0  0  0  0  0  0  0  0
   57.9862   33.4293   41.0042 H   0  0  0  0  0  0  0  0  0  0  0  0
   58.5274   31.7651   40.5989 H   0  0  0  0  0  0  0  0  0  0  0  0
   56.7762   32.1650   40.5989 H   0  0  0  0  0  0  0  0  0  0  0  0
   58.5849   33.8121   43.2323 H   0  0  0  0  0  0  0  0  0  0  0  0
   60.9327   34.9124   47.6722 H   0  0  0  0  0  0  0  0  0  0  0  0
   63.4019   34.6496   47.8205 H   0  0  0  0  0  0  0  0  0  0  0  0
   64.4460   32.4099   47.4974 H   0  0  0  0  0  0  0  0  0  0  0  0
   63.0198   30.4199   47.0452 H   0  0  0  0  0  0  0  0  0  0  0  0
   59.5503   30.2454   48.9164 H   0  0  0  0  0  0  0  0  0  0  0  0
   58.2183   28.1701   48.5299 H   0  0  0  0  0  0  0  0  0  0  0  0
   58.2736   27.0443   46.3016 H   0  0  0  0  0  0  0  0  0  0  0  0
   59.6637   27.9902   44.4579 H   0  0  0  0  0  0  0  0  0  0  0  0
   61.0000   30.0644   44.8353 H   0  0  0  0  0  0  0  0  0  0  0  0
   57.2717   31.0748   46.3136 H   0  0  0  0  0  0  0  0  0  0  0  0
  1  2  1  0
  2  3  2  0
  3  4  1  0
  4  5  1  0
  4  6  2  0
  6  7  1  0
  7  8  1  0
  8  9  1  0
  9 10  2  0
  9 11  1  0
 11 12  2  0
 12 13  1  0
 13 14  2  0
 14 15  1  0
 15 16  2  0
 16 17  1  0
 17 18  2  0
 18 19  1  0
 19 20  2  0
 20 21  1  0
 21 22  2  0
  7 23  2  0
 23  2  1  0
 16 11  1  0
 22 17  1  0
  1 24  1  0
  1 25  1  0
  1 26  1  0
  3 27  1  0
  5 28  1  0
  5 29  1  0
  5 30  1  0
  6 31  1  0
 12 32  1  0
 13 33  1  0
 14 34  1  0
 15 35  1  0
 18 36  1  0
 19 37  1  0
 20 38  1  0
 21 39  1  0
 22 40  1  0
 23 41  1  0
M  CHG  1   8  -1
M  END
>  <UniqueID>  (63) 
60

>  <SMILES>  (63) 
Cc1cc(C)cc([N-]C(=O)c2ccccc2-c2ccccc2)c1

>  <Energy>  (63) 
56.64822116598786

>  <Genealogy>  (63) 
Cc1cc(C)cc([N-]C(=O)c2ccccc2-c2ccccc2)c1 (protonated)
Cc1cc(C)cc([N-]C(=O)c2ccccc2-c2ccccc2)c1 (3D coordinates assigned)
Cc1cc(C)cc([N-]C(=O)c2ccccc2-c2ccccc2)c1 (optimized conformer: 56.64822116598786 kcal/mol)

>  <smiles>  (63) 
Cc1cc(C)cc(NC(=O)c2ccccc2-c2ccccc2)c1

>  <score_type>  (63) 
oracle

>  <origin>  (63) 
adg

>  <m_score__min__energy>  (63) 
-10.18

>  <m_primary>  (63) 
energy

$$$$
63:0
     RDKit          3D

 38 41  0  0  0  0  0  0  0  0999 V2000
   56.3570   19.9690   44.8740 Cl  0  0  0  0  0  0  0  0  0  0  0  0
   56.7470   21.6630   44.6380 C   0  0  0  0  0  0  0  0  0  0  0  0
   55.8080   22.5230   44.0590 C   0  0  0  0  0  0  0  0  0  0  0  0
   56.1170   23.8750   43.8740 C   0  0  0  0  0  0  0  0  0  0  0  0
   57.3740   24.3750   44.2510 C   0  0  0  0  0  0  0  0  0  0  0  0
   57.6700   25.8090   44.0580 C   0  0  0  0  0  0  0  0  0  0  0  0
   58.0240   26.3180   42.8990 O   0  0  0  0  0  0  0  0  0  0  0  0
   58.2290   27.5980   42.9980 N   0  0  0  0  0  0  0  0  0  0  0  0
   58.0180   27.9570   44.2760 C   0  0  0  0  0  0  0  0  0  0  0  0
   58.1640   29.3360   44.7800 C   0  0  0  0  0  0  0  0  0  0  0  0
   59.2090   29.6570   45.6710 C   0  0  0  0  0  0  0  0  0  0  0  0
   60.3670   28.4430   46.2070 Cl  0  0  0  0  0  0  0  0  0  0  0  0
   59.3520   30.9680   46.1380 C   0  0  0  0  0  0  0  0  0  0  0  0
   58.4570   31.9600   45.7360 C   0  0  0  0  0  0  0  0  0  0  0  0
   57.4070   31.6460   44.8710 C   0  0  0  0  0  0  0  0  0  0  0  0
   57.2510   30.3400   44.3940 C   0  0  0  0  0  0  0  0  0  0  0  0
   55.8710   29.9850   43.3580 Cl  0  0  0  0  0  0  0  0  0  0  0  0
   57.6570   26.8340   45.0030 C   0  0  0  0  0  0  0  0  0  0  0  0
   57.3420   26.7640   46.4730 C   0  0  0  0  0  0  0  0  0  0  0  0
   56.8120   25.4500   46.8310 N   0  0  0  0  0  0  0  0  0  0  0  0
   57.4160   24.5260   47.5960 C   0  0  0  0  0  0  0  0  0  0  0  0
   56.6070   23.4720   47.8170 N   0  0  0  0  0  0  0  0  0  0  0  0
   55.4830   23.8250   47.1550 C   0  0  0  0  0  0  0  0  0  0  0  0
   55.5890   25.0310   46.5650 N   0  0  0  0  0  0  0  0  0  0  0  0
   58.3020   23.5080   44.8540 C   0  0  0  0  0  0  0  0  0  0  0  0
   57.9910   22.1580   45.0400 C   0  0  0  0  0  0  0  0  0  0  0  0
   54.8261   22.1361   43.7489 H   0  0  0  0  0  0  0  0  0  0  0  0
   55.3707   24.5505   43.4305 H   0  0  0  0  0  0  0  0  0  0  0  0
   58.5190   28.2200   42.2120 H   0  0  0  0  0  0  0  0  0  0  0  0
   60.1738   31.2178   46.8252 H   0  0  0  0  0  0  0  0  0  0  0  0
   58.5788   32.9905   46.1009 H   0  0  0  0  0  0  0  0  0  0  0  0
   56.6988   32.4293   44.5630 H   0  0  0  0  0  0  0  0  0  0  0  0
   58.2614   26.9502   47.0475 H   0  0  0  0  0  0  0  0  0  0  0  0
   56.5824   27.5247   46.7062 H   0  0  0  0  0  0  0  0  0  0  0  0
   58.4386   24.6180   47.9908 H   0  0  0  0  0  0  0  0  0  0  0  0
   54.5814   23.1969   47.1037 H   0  0  0  0  0  0  0  0  0  0  0  0
   59.2785   23.8943   45.1813 H   0  0  0  0  0  0  0  0  0  0  0  0
   58.7264   21.4840   45.5035 H   0  0  0  0  0  0  0  0  0  0  0  0
  1  2  1  0
  2  3  2  0
  3  4  1  0
  4  5  2  0
  5  6  1  0
  6  7  1  0
  7  8  1  0
  8  9  2  0
  9 10  1  0
 10 11  2  0
 11 12  1  0
 11 13  1  0
 13 14  2  0
 14 15  1  0
 15 16  2  0
 16 17  1  0
  9 18  1  0
 18 19  1  0
 19 20  1  0
 20 21  1  0
 21 22  2  0
 22 23  1  0
 23 24  2  0
  5 25  1  0
 25 26  2  0
 26  2  1  0
 18  6  2  0
 24 20  1  0
 16 10  1  0
  3 27  1  0
  4 28  1  0
  8 29  1  0
 13 30  1  0
 14 31  1  0
 15 32  1  0
 19 33  1  0
 19 34  1  0
 21 35  1  0
 23 36  1  0
 25 37  1  0
 26 38  1  0
M  CHG  1   8   1
M  END
>  <UniqueID>  (64) 
61

>  <SMILES>  (64) 
Clc1ccc(-c2o[nH+]c(-c3c(Cl)cccc3Cl)c2Cn2cncn2)cc1

>  <Energy>  (64) 
117.16973163250637

>  <Genealogy>  (64) 
Clc1ccc(-c2o[nH+]c(-c3c(Cl)cccc3Cl)c2Cn2cncn2)cc1 (protonated)
Clc1ccc(-c2o[nH+]c(-c3c(Cl)cccc3Cl)c2Cn2cncn2)cc1 (3D coordinates assigned)
Clc1ccc(-c2o[nH+]c(-c3c(Cl)cccc3Cl)c2Cn2cncn2)cc1 (optimized conformer: 117.16973163250637 kcal/mol)

>  <smiles>  (64) 
Clc1ccc(-c2onc(-c3c(Cl)cccc3Cl)c2Cn2cncn2)cc1

>  <score_type>  (64) 
oracle

>  <origin>  (64) 
adg

>  <m_score__min__energy>  (64) 
-6.8499999999999996

>  <m_primary>  (64) 
energy

$$$$
64:0
     RDKit          3D

 43 44  0  0  0  0  0  0  0  0999 V2000
   57.3450   25.1380   47.0680 C   0  0  0  0  0  0  0  0  0  0  0  0
   56.3880   25.9000   46.1580 C   0  0  0  0  0  0  0  0  0  0  0  0
   57.0660   27.0970   45.5710 C   0  0  0  0  0  0  0  0  0  0  0  0
   58.3410   27.1290   45.0430 C   0  0  0  0  0  0  0  0  0  0  0  0
   58.5290   28.4180   44.5950 C   0  0  0  0  0  0  0  0  0  0  0  0
   57.3510   29.0910   44.8750 C   0  0  0  0  0  0  0  0  0  0  0  0
   57.0430   30.5030   44.5810 C   0  0  0  0  0  0  0  0  0  0  0  0
   55.8350   30.8510   44.4860 O   0  0  0  0  0  0  0  0  0  0  0  0
   58.0840   31.4750   44.4040 N   0  0  0  0  0  0  0  0  0  0  0  0
   57.7730   32.8620   44.0620 C   0  0  0  0  0  0  0  0  0  0  0  0
   58.4390   33.8090   45.0200 C   0  0  0  0  0  0  0  0  0  0  0  0
   59.0080   34.8370   44.5680 O   0  0  0  0  0  0  0  0  0  0  0  0
   58.4210   33.5490   46.4750 C   0  0  0  0  0  0  0  0  0  0  0  0
   57.3110   33.4610   47.0680 O   0  0  0  0  0  0  0  0  0  0  0  0
   59.6380   33.4060   47.2310 N   0  0  0  0  0  0  0  0  0  0  0  0
   59.6520   33.8390   48.6350 C   0  0  0  0  0  0  0  0  0  0  0  0
   61.0660   34.2440   49.1100 C   0  0  0  0  0  0  0  0  0  0  0  0
   62.1550   33.6880   48.2730 N   0  0  0  0  0  0  0  0  0  0  0  0
   63.4160   33.6420   49.0280 C   0  0  0  0  0  0  0  0  0  0  0  0
   61.8130   32.3540   47.7560 C   0  0  0  0  0  0  0  0  0  0  0  0
   60.6890   32.5060   46.7330 C   0  0  0  0  0  0  0  0  0  0  0  0
   56.5000   28.2760   45.4540 O   0  0  0  0  0  0  0  0  0  0  0  0
   57.0909   25.3403   48.1190 H   0  0  0  0  0  0  0  0  0  0  0  0
   57.2578   24.0593   46.8708 H   0  0  0  0  0  0  0  0  0  0  0  0
   58.3767   25.4646   46.8708 H   0  0  0  0  0  0  0  0  0  0  0  0
   56.0559   25.2371   45.3454 H   0  0  0  0  0  0  0  0  0  0  0  0
   55.5240   26.2351   46.7506 H   0  0  0  0  0  0  0  0  0  0  0  0
   59.0587   26.2970   44.9908 H   0  0  0  0  0  0  0  0  0  0  0  0
   59.4291   28.8284   44.1140 H   0  0  0  0  0  0  0  0  0  0  0  0
   59.0820   31.1860   44.5090 H   0  0  0  0  0  0  0  0  0  0  0  0
   58.1289   33.0707   43.0423 H   0  0  0  0  0  0  0  0  0  0  0  0
   56.6841   33.0052   44.1238 H   0  0  0  0  0  0  0  0  0  0  0  0
   58.9807   34.7034   48.7453 H   0  0  0  0  0  0  0  0  0  0  0  0
   59.3198   32.9910   49.2519 H   0  0  0  0  0  0  0  0  0  0  0  0
   61.1383   35.3415   49.0906 H   0  0  0  0  0  0  0  0  0  0  0  0
   61.1959   33.8339   50.1224 H   0  0  0  0  0  0  0  0  0  0  0  0
   63.1983   33.6499   50.1062 H   0  0  0  0  0  0  0  0  0  0  0  0
   63.9638   32.7233   48.7713 H   0  0  0  0  0  0  0  0  0  0  0  0
   64.0292   34.5184   48.7713 H   0  0  0  0  0  0  0  0  0  0  0  0
   62.6945   31.9049   47.2752 H   0  0  0  0  0  0  0  0  0  0  0  0
   61.4880   31.7017   48.5799 H   0  0  0  0  0  0  0  0  0  0  0  0
   61.1041   32.9190   45.8018 H   0  0  0  0  0  0  0  0  0  0  0  0
   60.2446   31.5161   46.5525 H   0  0  0  0  0  0  0  0  0  0  0  0
  1  2  1  0
  2  3  1  0
  3  4  2  0
  4  5  1  0
  5  6  2  0
  6  7  1  0
  7  8  2  0
  7  9  1  0
  9 10  1  0
 10 11  1  0
 11 12  2  0
 11 13  1  0
 13 14  2  0
 13 15  1  0
 15 16  1  0
 16 17  1  0
 17 18  1  0
 18 19  1  0
 18 20  1  0
 20 21  1  0
  6 22  1  0
 22  3  1  0
 21 15  1  0
  1 23  1  0
  1 24  1  0
  1 25  1  0
  2 26  1  0
  2 27  1  0
  4 28  1  0
  5 29  1  0
  9 30  1  0
 10 31  1  0
 10 32  1  0
 16 33  1  0
 16 34  1  0
 17 35  1  0
 17 36  1  0
 19 37  1  0
 19 38  1  0
 19 39  1  0
 20 40  1  0
 20 41  1  0
 21 42  1  0
 21 43  1  0
M  END
>  <UniqueID>  (65) 
62

>  <SMILES>  (65) 
CCc1ccc(C(=O)NCC(=O)C(=O)N2CCN(C)CC2)o1

>  <Energy>  (65) 
68.08519447514888

>  <Genealogy>  (65) 
CCc1ccc(C(=O)NCC(=O)C(=O)N2CCN(C)CC2)o1 (3D coordinates assigned)
CCc1ccc(C(=O)NCC(=O)C(=O)N2CCN(C)CC2)o1 (nonaromatic ring conformer: 68.08519447514888 kcal/mol)

>  <smiles>  (65) 
CCc1ccc(C(=O)NCC(=O)C(=O)N2CCN(C)CC2)o1

>  <score_type>  (65) 
oracle

>  <origin>  (65) 
adg

>  <m_score__min__energy>  (65) 
-7.8300000000000001

>  <m_primary>  (65) 
energy

$$$$
65:0
     RDKit          3D

 56 60  0  0  0  0  0  0  0  0999 V2000
   61.3180   26.3440   50.9480 C   0  0  0  0  0  0  0  0  0  0  0  0
   60.7210   27.5410   50.2780 C   0  0  0  0  0  0  0  0  0  0  0  0
   60.6650   28.7720   50.9420 C   0  0  0  0  0  0  0  0  0  0  0  0
   60.1190   29.8770   50.2890 C   0  0  0  0  0  0  0  0  0  0  0  0
   59.6390   29.7490   48.9850 C   0  0  0  0  0  0  0  0  0  0  0  0
   59.7100   28.5010   48.3410 C   0  0  0  0  0  0  0  0  0  0  0  0
   59.2270   28.3360   46.9920 N   0  0  0  0  0  0  0  0  0  0  0  0
   58.0930   28.9950   46.6020 C   0  0  0  0  0  0  0  0  0  0  0  0
   57.5930   28.8740   45.2970 C   0  0  0  0  0  0  0  0  0  0  0  0
   56.3950   29.6610   44.9230 C   0  0  0  0  0  0  0  0  0  0  0  0
   55.3170   29.0570   44.6770 O   0  0  0  0  0  0  0  0  0  0  0  0
   56.4260   31.0910   44.8110 N   0  0  0  0  0  0  0  0  0  0  0  0
   57.4630   31.9600   45.2850 C   0  0  0  0  0  0  0  0  0  0  0  0
   57.8880   31.8430   46.6130 C   0  0  0  0  0  0  0  0  0  0  0  0
   58.8990   32.6710   47.1090 C   0  0  0  0  0  0  0  0  0  0  0  0
   59.5200   33.6080   46.2770 C   0  0  0  0  0  0  0  0  0  0  0  0
   60.5280   34.4180   46.8190 O   0  0  0  0  0  0  0  0  0  0  0  0
   61.7470   33.9580   47.3400 C   0  0  0  0  0  0  0  0  0  0  0  0
   62.8410   33.8440   46.4780 C   0  0  0  0  0  0  0  0  0  0  0  0
   64.0660   33.3800   46.9630 C   0  0  0  0  0  0  0  0  0  0  0  0
   64.2070   33.0530   48.2760 N   0  0  0  0  0  0  0  0  0  0  0  0
   63.1710   33.1790   49.1530 C   0  0  0  0  0  0  0  0  0  0  0  0
   63.3310   32.8660   50.5100 C   0  0  0  0  0  0  0  0  0  0  0  0
   62.2620   33.0290   51.3920 C   0  0  0  0  0  0  0  0  0  0  0  0
   61.0410   33.5090   50.9110 C   0  0  0  0  0  0  0  0  0  0  0  0
   60.8960   33.8050   49.5920 N   0  0  0  0  0  0  0  0  0  0  0  0
   61.9150   33.6440   48.7020 C   0  0  0  0  0  0  0  0  0  0  0  0
   59.0980   33.7290   44.9380 C   0  0  0  0  0  0  0  0  0  0  0  0
   59.6400   34.6630   44.1170 F   0  0  0  0  0  0  0  0  0  0  0  0
   58.0890   32.8980   44.4430 C   0  0  0  0  0  0  0  0  0  0  0  0
   58.2440   28.0050   44.3950 C   0  0  0  0  0  0  0  0  0  0  0  0
   57.7390   27.7620   42.9960 C   0  0  0  0  0  0  0  0  0  0  0  0
   59.4080   27.3480   44.8100 C   0  0  0  0  0  0  0  0  0  0  0  0
   59.8890   27.5220   46.1080 C   0  0  0  0  0  0  0  0  0  0  0  0
   60.9490   26.9270   46.4500 O   0  0  0  0  0  0  0  0  0  0  0  0
   60.2520   27.4390   49.0040 N   0  0  0  0  0  0  0  0  0  0  0  0
   61.2570   26.4663   52.0395 H   0  0  0  0  0  0  0  0  0  0  0  0
   60.7642   25.4419   50.6486 H   0  0  0  0  0  0  0  0  0  0  0  0
   62.3717   26.2437   50.6486 H   0  0  0  0  0  0  0  0  0  0  0  0
   61.0479   28.8670   51.9688 H   0  0  0  0  0  0  0  0  0  0  0  0
   60.0668   30.8488   50.8017 H   0  0  0  0  0  0  0  0  0  0  0  0
   59.2085   30.6175   48.4650 H   0  0  0  0  0  0  0  0  0  0  0  0
   57.5633   29.6319   47.3257 H   0  0  0  0  0  0  0  0  0  0  0  0
   57.4232   31.0942   47.2712 H   0  0  0  0  0  0  0  0  0  0  0  0
   59.2083   32.5850   48.1611 H   0  0  0  0  0  0  0  0  0  0  0  0
   62.7375   34.1195   45.4181 H   0  0  0  0  0  0  0  0  0  0  0  0
   64.9217   33.2784   46.2793 H   0  0  0  0  0  0  0  0  0  0  0  0
   65.1370   32.7100   48.6070 H   0  0  0  0  0  0  0  0  0  0  0  0
   64.2976   32.4925   50.8790 H   0  0  0  0  0  0  0  0  0  0  0  0
   62.3796   32.7816   52.4574 H   0  0  0  0  0  0  0  0  0  0  0  0
   60.1955   33.6476   51.6009 H   0  0  0  0  0  0  0  0  0  0  0  0
   57.7825   32.9776   43.3896 H   0  0  0  0  0  0  0  0  0  0  0  0
   56.7486   27.2854   43.0413 H   0  0  0  0  0  0  0  0  0  0  0  0
   57.6605   28.7209   42.4628 H   0  0  0  0  0  0  0  0  0  0  0  0
   58.4393   27.1023   42.4628 H   0  0  0  0  0  0  0  0  0  0  0  0
   59.9458   26.6918   44.1099 H   0  0  0  0  0  0  0  0  0  0  0  0
  1  2  1  0
  2  3  2  0
  3  4  1  0
  4  5  2  0
  5  6  1  0
  6  7  1  0
  7  8  1  0
  8  9  2  0
  9 10  1  0
 10 11  2  0
 10 12  1  0
 12 13  1  0
 13 14  2  0
 14 15  1  0
 15 16  2  0
 16 17  1  0
 17 18  1  0
 18 19  2  0
 19 20  1  0
 20 21  2  0
 21 22  1  0
 22 23  2  0
 23 24  1  0
 24 25  2  0
 25 26  1  0
 26 27  2  0
 16 28  1  0
 28 29  1  0
 28 30  2  0
  9 31  1  0
 31 32  1  0
 31 33  2  0
 33 34  1  0
 34 35  2  0
  6 36  2  0
 36  2  1  0
 34  7  1  0
 30 13  1  0
 27 18  1  0
 27 22  1  0
  1 37  1  0
  1 38  1  0
  1 39  1  0
  3 40  1  0
  4 41  1  0
  5 42  1  0
  8 43  1  0
 14 44  1  0
 15 45  1  0
 19 46  1  0
 20 47  1  0
 21 48  1  0
 23 49  1  0
 24 50  1  0
 25 51  1  0
 30 52  1  0
 32 53  1  0
 32 54  1  0
 32 55  1  0
 33 56  1  0
M  CHG  2  12  -1  21   1
M  END
>  <UniqueID>  (66) 
63

>  <SMILES>  (66) 
Cc1cccc(-n2cc(C(=O)[N-]c3ccc(Oc4cc[nH+]c5cccnc45)c(F)c3)c(C)cc2=O)n1

>  <Energy>  (66) 
91.29368234274628

>  <Genealogy>  (66) 
Cc1cccc(-n2cc(C(=O)[N-]c3ccc(Oc4cc[nH+]c5cccnc45)c(F)c3)c(C)cc2=O)n1 (protonated)
Cc1cccc(-n2cc(C(=O)[N-]c3ccc(Oc4cc[nH+]c5cccnc45)c(F)c3)c(C)cc2=O)n1 (3D coordinates assigned)
Cc1cccc(-n2cc(C(=O)[N-]c3ccc(Oc4cc[nH+]c5cccnc45)c(F)c3)c(C)cc2=O)n1 (optimized conformer: 91.29368234274628 kcal/mol)

>  <smiles>  (66) 
Cc1cccc(-n2cc(C(=O)Nc3ccc(Oc4ccnc5cccnc45)c(F)c3)c(C)cc2=O)n1

>  <score_type>  (66) 
oracle

>  <origin>  (66) 
adg

>  <m_score__min__energy>  (66) 
-9.9499999999999993

>  <m_primary>  (66) 
energy

$$$$
66:0
     RDKit          3D

 43 44  0  0  0  0  0  0  0  0999 V2000
   55.5680   30.4990   45.2510 H   0  0  0  0  0  0  0  0  0  0  0  0
   55.5460   29.4880   45.1920 O   0  0  0  0  0  0  0  0  0  0  0  0
   56.6340   28.7010   45.5690 C   0  0  0  0  0  0  0  0  0  0  0  0
   57.9160   29.2610   45.5600 C   0  0  0  0  0  0  0  0  0  0  0  0
   58.0496   30.3075   45.2485 H   0  0  0  0  0  0  0  0  0  0  0  0
   59.0350   28.5030   45.9440 C   0  0  0  0  0  0  0  0  0  0  0  0
   60.3740   29.1410   45.9060 C   0  0  0  0  0  0  0  0  0  0  0  0
   61.1848   28.6195   45.3763 H   0  0  0  0  0  0  0  0  0  0  0  0
   60.6480   30.3210   46.4840 C   0  0  0  0  0  0  0  0  0  0  0  0
   60.7537   31.2038   45.8362 H   0  0  0  0  0  0  0  0  0  0  0  0
   60.8160   30.5020   47.9430 C   0  0  0  0  0  0  0  0  0  0  0  0
   60.0240   29.8840   48.7060 O   0  0  0  0  0  0  0  0  0  0  0  0
   61.8660   31.4150   48.5400 C   0  0  1  0  0  0  0  0  0  0  0  0
   62.3011   30.9050   49.4121 H   0  0  0  0  0  0  0  0  0  0  0  0
   62.9270   31.6720   47.5540 C   0  0  0  0  0  0  0  0  0  0  0  0
   63.7610   31.8750   46.7780 N   0  0  0  0  0  0  0  0  0  0  0  0
   61.2710   32.7100   49.0390 C   0  0  0  0  0  0  0  0  0  0  0  0
   60.4880   32.6730   50.0270 O   0  0  0  0  0  0  0  0  0  0  0  0
   61.5060   33.9880   48.3220 C   0  0  0  0  0  0  0  0  0  0  0  0
   62.4239   34.5424   48.5671 H   0  0  0  0  0  0  0  0  0  0  0  0
   60.6920   34.5230   47.4000 C   0  0  0  0  0  0  0  0  0  0  0  0
   60.8847   35.5630   47.0980 H   0  0  0  0  0  0  0  0  0  0  0  0
   59.5570   33.8280   46.7570 C   0  0  0  0  0  0  0  0  0  0  0  0
   58.4920   33.3170   47.5170 C   0  0  0  0  0  0  0  0  0  0  0  0
   58.5130   33.3986   48.6138 H   0  0  0  0  0  0  0  0  0  0  0  0
   57.4070   32.7060   46.8860 C   0  0  0  0  0  0  0  0  0  0  0  0
   56.5844   32.2930   47.4882 H   0  0  0  0  0  0  0  0  0  0  0  0
   57.3620   32.6170   45.4910 C   0  0  0  0  0  0  0  0  0  0  0  0
   56.2780   32.0040   44.8780 O   0  0  0  0  0  0  0  0  0  0  0  0
   58.4020   33.1480   44.7140 C   0  0  0  0  0  0  0  0  0  0  0  0
   58.3130   33.0470   43.3180 O   0  0  0  0  0  0  0  0  0  0  0  0
   57.8530   31.8940   42.6200 C   0  0  0  0  0  0  0  0  0  0  0  0
   57.5462   31.1250   43.3443 H   0  0  0  0  0  0  0  0  0  0  0  0
   56.9945   32.1660   41.9883 H   0  0  0  0  0  0  0  0  0  0  0  0
   58.6629   31.5004   41.9883 H   0  0  0  0  0  0  0  0  0  0  0  0
   59.4950   33.7650   45.3570 C   0  0  0  0  0  0  0  0  0  0  0  0
   60.3062   34.2008   44.7553 H   0  0  0  0  0  0  0  0  0  0  0  0
   58.8500   27.1560   46.3120 C   0  0  0  0  0  0  0  0  0  0  0  0
   59.7181   26.5425   46.5948 H   0  0  0  0  0  0  0  0  0  0  0  0
   57.5700   26.5940   46.3200 C   0  0  0  0  0  0  0  0  0  0  0  0
   57.4346   25.5433   46.6163 H   0  0  0  0  0  0  0  0  0  0  0  0
   56.4620   27.3620   45.9530 C   0  0  0  0  0  0  0  0  0  0  0  0
   55.1960   26.7880   45.9680 O   0  0  0  0  0  0  0  0  0  0  0  0
  1  2  1  0
  2  3  1  0
  3  4  2  0
  4  5  1  0
  4  6  1  0
  6  7  1  0
  7  8  1  0
  7  9  2  3
  9 10  1  0
  9 11  1  0
 11 12  2  0
 11 13  1  0
 13 14  1  1
 13 15  1  0
 15 16  3  0
 13 17  1  0
 17 18  2  0
 17 19  1  0
 19 20  1  0
 19 21  2  0
 21 22  1  0
 21 23  1  0
 23 24  2  0
 24 25  1  0
 24 26  1  0
 26 27  1  0
 26 28  2  0
 28 29  1  0
 28 30  1  0
 30 31  1  0
 31 32  1  0
 32 33  1  0
 32 34  1  0
 32 35  1  0
 30 36  2  0
 36 37  1  0
  6 38  2  0
 38 39  1  0
 38 40  1  0
 40 41  1  0
 40 42  2  0
 42 43  1  0
 42  3  1  0
 36 23  1  0
M  CHG  2  29  -1  43  -1
M  END
>  <UniqueID>  (67) 
64

>  <SMILES>  (67) 
COc1cc(/C=C\C(=O)[C@H](C#N)C(=O)C=Cc2ccc([O-])c(O)c2)ccc1[O-]

>  <Energy>  (67) 
53.25547060939386

>  <Genealogy>  (67) 
COc1cc(C=CC(=O)C(C#N)C(=O)C=Cc2ccc([O-])c(O)c2)ccc1[O-] (protonated)
COc1cc(C=CC(=O)[C@H](C#N)C(=O)C=Cc2ccc([O-])c(O)c2)ccc1[O-] (chirality)
COc1cc(/C=C\C(=O)[C@H](C#N)C(=O)C=Cc2ccc([O-])c(O)c2)ccc1[O-] (cis-trans isomerization)
COc1cc(/C=C\C(=O)[C@H](C#N)C(=O)C=Cc2ccc([O-])c(O)c2)ccc1[O-] (3D coordinates assigned)
COc1cc(/C=C\C(=O)[C@H](C#N)C(=O)C=Cc2ccc([O-])c(O)c2)ccc1[O-] (optimized conformer: 53.25547060939386 kcal/mol)

>  <smiles>  (67) 
COc1cc(C=CC(=O)C(C#N)C(=O)C=Cc2ccc(O)c(O)c2)ccc1O

>  <score_type>  (67) 
oracle

>  <origin>  (67) 
adg

>  <m_score__min__energy>  (67) 
-12.74

>  <m_primary>  (67) 
energy

$$$$
67:0
     RDKit          3D

 35 38  0  0  0  0  0  0  0  0999 V2000
   59.6470   35.3390   47.0400 C   0  0  0  0  0  0  0  0  0  0  0  0
   59.6390   35.4380   45.6500 C   0  0  0  0  0  0  0  0  0  0  0  0
   59.1750   34.3710   44.8800 C   0  0  0  0  0  0  0  0  0  0  0  0
   58.7300   33.2010   45.5140 C   0  0  0  0  0  0  0  0  0  0  0  0
   58.2330   32.0670   44.7070 C   0  0  0  0  0  0  0  0  0  0  0  0
   57.9100   32.0990   43.3530 C   0  0  0  0  0  0  0  0  0  0  0  0
   57.4750   30.8880   42.9410 N   0  0  0  0  0  0  0  0  0  0  0  0
   57.5290   30.0870   44.0170 C   0  0  0  0  0  0  0  0  0  0  0  0
   57.2060   28.7310   44.0710 C   0  0  0  0  0  0  0  0  0  0  0  0
   57.3760   28.0470   45.2970 C   0  0  0  0  0  0  0  0  0  0  0  0
   57.0450   26.6040   45.4020 C   0  0  0  0  0  0  0  0  0  0  0  0
   57.6780   25.6570   44.5780 C   0  0  0  0  0  0  0  0  0  0  0  0
   57.3550   24.3040   44.6860 C   0  0  0  0  0  0  0  0  0  0  0  0
   56.4030   23.9010   45.6210 C   0  0  0  0  0  0  0  0  0  0  0  0
   55.7970   24.8210   46.4170 N   0  0  0  0  0  0  0  0  0  0  0  0
   56.0900   26.1470   46.3290 C   0  0  0  0  0  0  0  0  0  0  0  0
   57.8770   28.7550   46.4240 C   0  0  0  0  0  0  0  0  0  0  0  0
   58.1960   30.1200   46.3350 C   0  0  0  0  0  0  0  0  0  0  0  0
   57.9920   30.7650   45.1150 C   0  0  0  0  0  0  0  0  0  0  0  0
   58.7330   33.1350   46.8790 N   0  0  0  0  0  0  0  0  0  0  0  0
   59.1830   34.1680   47.6440 C   0  0  0  0  0  0  0  0  0  0  0  0
   60.0146   36.1738   47.6548 H   0  0  0  0  0  0  0  0  0  0  0  0
   59.9978   36.3556   45.1608 H   0  0  0  0  0  0  0  0  0  0  0  0
   59.1581   34.4465   43.7827 H   0  0  0  0  0  0  0  0  0  0  0  0
   57.9968   32.9863   42.7087 H   0  0  0  0  0  0  0  0  0  0  0  0
   57.1680   30.6300   41.9770 H   0  0  0  0  0  0  0  0  0  0  0  0
   56.8281   28.2063   43.1811 H   0  0  0  0  0  0  0  0  0  0  0  0
   58.4307   25.9839   43.8455 H   0  0  0  0  0  0  0  0  0  0  0  0
   57.8469   23.5624   44.0395 H   0  0  0  0  0  0  0  0  0  0  0  0
   56.1417   22.8366   45.7148 H   0  0  0  0  0  0  0  0  0  0  0  0
   55.5777   26.8653   46.9859 H   0  0  0  0  0  0  0  0  0  0  0  0
   58.0166   28.2264   47.3785 H   0  0  0  0  0  0  0  0  0  0  0  0
   58.5955   30.6651   47.2029 H   0  0  0  0  0  0  0  0  0  0  0  0
   58.3560   32.2920   47.3660 H   0  0  0  0  0  0  0  0  0  0  0  0
   59.1811   34.0800   48.7405 H   0  0  0  0  0  0  0  0  0  0  0  0
  1  2  2  0
  2  3  1  0
  3  4  2  0
  4  5  1  0
  5  6  2  0
  6  7  1  0
  7  8  1  0
  8  9  2  0
  9 10  1  0
 10 11  1  0
 11 12  2  0
 12 13  1  0
 13 14  2  0
 14 15  1  0
 15 16  2  0
 10 17  2  0
 17 18  1  0
 18 19  2  0
  4 20  1  0
 20 21  2  0
 21  1  1  0
 19  5  1  0
 19  8  1  0
 16 11  1  0
  1 22  1  0
  2 23  1  0
  3 24  1  0
  6 25  1  0
  7 26  1  0
  9 27  1  0
 12 28  1  0
 13 29  1  0
 14 30  1  0
 16 31  1  0
 17 32  1  0
 18 33  1  0
 20 34  1  0
 21 35  1  0
M  CHG  1  20   1
M  END
>  <UniqueID>  (68) 
65

>  <SMILES>  (68) 
c1ccc(-c2c[nH]c3cc(-c4cccnc4)ccc23)[nH+]c1

>  <Energy>  (68) 
83.22218208924912

>  <Genealogy>  (68) 
c1ccc(-c2c[nH]c3cc(-c4cccnc4)ccc23)[nH+]c1 (protonated)
c1ccc(-c2c[nH]c3cc(-c4cccnc4)ccc23)[nH+]c1 (3D coordinates assigned)
c1ccc(-c2c[nH]c3cc(-c4cccnc4)ccc23)[nH+]c1 (optimized conformer: 83.22218208924912 kcal/mol)

>  <smiles>  (68) 
c1ccc(-c2c[nH]c3cc(-c4cccnc4)ccc23)nc1

>  <score_type>  (68) 
oracle

>  <origin>  (68) 
adg

>  <m_score__min__energy>  (68) 
-5.96

>  <m_primary>  (68) 
energy

$$$$
68:0
     RDKit          3D

 44 46  0  0  0  0  0  0  0  0999 V2000
   56.1600   31.5350   44.6080 O   0  0  0  0  0  0  0  0  0  0  0  0
   57.3830   31.2410   44.6480 C   0  0  0  0  0  0  0  0  0  0  0  0
   58.3510   32.2830   44.4640 N   0  0  0  0  0  0  0  0  0  0  0  0
   58.0860   33.7220   44.5380 C   0  0  0  0  0  0  0  0  0  0  0  0
   59.3960   34.4680   44.8700 C   0  0  0  0  0  0  0  0  0  0  0  0
   59.6860   34.5300   46.3840 C   0  0  0  0  0  0  0  0  0  0  0  0
   58.9580   33.4600   47.0920 N   0  0  0  0  0  0  0  0  0  0  0  0
   59.4550   33.2120   48.4640 C   0  0  0  0  0  0  0  0  0  0  0  0
   60.9650   33.1880   48.5750 C   0  0  0  0  0  0  0  0  0  0  0  0
   61.7320   32.4160   47.6850 C   0  0  0  0  0  0  0  0  0  0  0  0
   63.1260   32.3950   47.7880 C   0  0  0  0  0  0  0  0  0  0  0  0
   63.7670   33.1500   48.7740 C   0  0  0  0  0  0  0  0  0  0  0  0
   65.1200   33.1290   48.8720 F   0  0  0  0  0  0  0  0  0  0  0  0
   63.0140   33.9310   49.6560 C   0  0  0  0  0  0  0  0  0  0  0  0
   61.6210   33.9550   49.5560 C   0  0  0  0  0  0  0  0  0  0  0  0
   57.4930   33.6600   47.0290 C   0  0  0  0  0  0  0  0  0  0  0  0
   57.0180   34.0230   45.6040 C   0  0  0  0  0  0  0  0  0  0  0  0
   57.7760   29.8350   44.8750 C   0  0  0  0  0  0  0  0  0  0  0  0
   59.1310   29.4720   44.8340 C   0  0  0  0  0  0  0  0  0  0  0  0
   59.5140   28.1480   45.0610 C   0  0  0  0  0  0  0  0  0  0  0  0
   58.5490   27.1790   45.3420 C   0  0  0  0  0  0  0  0  0  0  0  0
   57.1990   27.5310   45.4020 C   0  0  0  0  0  0  0  0  0  0  0  0
   56.2740   26.5780   45.6820 F   0  0  0  0  0  0  0  0  0  0  0  0
   56.8040   28.8600   45.1720 C   0  0  0  0  0  0  0  0  0  0  0  0
   55.4550   29.2150   45.2240 O   0  0  0  0  0  0  0  0  0  0  0  0
   57.7053   34.0662   43.5651 H   0  0  0  0  0  0  0  0  0  0  0  0
   60.2300   33.9499   44.3741 H   0  0  0  0  0  0  0  0  0  0  0  0
   59.2856   35.5026   44.5130 H   0  0  0  0  0  0  0  0  0  0  0  0
   60.7660   34.4055   46.5514 H   0  0  0  0  0  0  0  0  0  0  0  0
   59.3530   35.5043   46.7712 H   0  0  0  0  0  0  0  0  0  0  0  0
   59.0722   34.0076   49.1201 H   0  0  0  0  0  0  0  0  0  0  0  0
   59.0975   32.2139   48.7574 H   0  0  0  0  0  0  0  0  0  0  0  0
   61.2324   31.8251   46.9031 H   0  0  0  0  0  0  0  0  0  0  0  0
   63.7191   31.7835   47.0921 H   0  0  0  0  0  0  0  0  0  0  0  0
   63.5194   34.5275   50.4298 H   0  0  0  0  0  0  0  0  0  0  0  0
   61.0335   34.5767   50.2477 H   0  0  0  0  0  0  0  0  0  0  0  0
   56.9941   32.7315   47.3437 H   0  0  0  0  0  0  0  0  0  0  0  0
   57.2357   34.4962   47.6958 H   0  0  0  0  0  0  0  0  0  0  0  0
   56.1139   33.4404   45.3733 H   0  0  0  0  0  0  0  0  0  0  0  0
   56.8158   35.1040   45.5819 H   0  0  0  0  0  0  0  0  0  0  0  0
   59.8954   30.2340   44.6220 H   0  0  0  0  0  0  0  0  0  0  0  0
   60.5771   27.8685   45.0183 H   0  0  0  0  0  0  0  0  0  0  0  0
   58.8527   26.1362   45.5165 H   0  0  0  0  0  0  0  0  0  0  0  0
   55.1460   30.0890   45.6320 H   0  0  0  0  0  0  0  0  0  0  0  0
  1  2  2  0
  2  3  1  0
  3  4  1  0
  4  5  1  0
  5  6  1  0
  6  7  1  0
  7  8  1  0
  8  9  1  0
  9 10  2  0
 10 11  1  0
 11 12  2  0
 12 13  1  0
 12 14  1  0
 14 15  2  0
  7 16  1  0
 16 17  1  0
  2 18  1  0
 18 19  2  0
 19 20  1  0
 20 21  2  0
 21 22  1  0
 22 23  1  0
 22 24  2  0
 24 25  1  0
 17  4  1  0
 24 18  1  0
 15  9  1  0
  4 26  1  0
  5 27  1  0
  5 28  1  0
  6 29  1  0
  6 30  1  0
  8 31  1  0
  8 32  1  0
 10 33  1  0
 11 34  1  0
 14 35  1  0
 15 36  1  0
 16 37  1  0
 16 38  1  0
 17 39  1  0
 17 40  1  0
 19 41  1  0
 20 42  1  0
 21 43  1  0
 25 44  1  0
M  CHG  1   3  -1
M  END
>  <UniqueID>  (69) 
66

>  <SMILES>  (69) 
O=C([N-]C1CCN(Cc2ccc(F)cc2)CC1)c1cccc(F)c1O

>  <Energy>  (69) 
58.638024739264715

>  <Genealogy>  (69) 
O=C([N-]C1CCN(Cc2ccc(F)cc2)CC1)c1cccc(F)c1O (protonated)
O=C([N-]C1CCN(Cc2ccc(F)cc2)CC1)c1cccc(F)c1O (3D coordinates assigned)
O=C([N-]C1CCN(Cc2ccc(F)cc2)CC1)c1cccc(F)c1O (nonaromatic ring conformer: 58.638024739264715 kcal/mol)

>  <smiles>  (69) 
O=C(NC1CCN(Cc2ccc(F)cc2)CC1)c1cccc(F)c1O

>  <score_type>  (69) 
oracle

>  <origin>  (69) 
adg

>  <m_score__min__energy>  (69) 
-10.4

>  <m_primary>  (69) 
energy

$$$$
69:0
     RDKit          3D

 57 60  0  0  0  0  0  0  0  0999 V2000
   51.6420   23.8680   44.5900 C   0  0  0  0  0  0  0  0  0  0  0  0
   52.8050   23.0480   44.7300 O   0  0  0  0  0  0  0  0  0  0  0  0
   54.1060   23.5440   44.9030 C   0  0  0  0  0  0  0  0  0  0  0  0
   55.1670   22.8580   44.3030 C   0  0  0  0  0  0  0  0  0  0  0  0
   56.4690   23.3430   44.4000 C   0  0  0  0  0  0  0  0  0  0  0  0
   56.7340   24.5560   45.0680 C   0  0  0  0  0  0  0  0  0  0  0  0
   58.0220   25.1160   45.0790 O   0  0  0  0  0  0  0  0  0  0  0  0
   59.0510   24.7580   45.9950 C   0  0  0  0  0  0  0  0  0  0  0  0
   55.6710   25.2390   45.7060 C   0  0  0  0  0  0  0  0  0  0  0  0
   55.8610   26.5010   46.3660 N   0  0  0  0  0  0  0  0  0  0  0  0
   57.0480   27.2990   46.3420 C   0  0  0  0  0  0  0  0  0  0  0  0
   57.7260   27.4710   47.3980 O   0  0  0  0  0  0  0  0  0  0  0  0
   57.4900   27.9100   45.0450 C   0  0  0  0  0  0  0  0  0  0  0  0
   57.2350   29.3530   45.0290 N   0  0  0  0  0  0  0  0  0  0  0  0
   56.1690   30.0060   44.5000 C   0  0  0  0  0  0  0  0  0  0  0  0
   55.1750   29.4240   43.9850 O   0  0  0  0  0  0  0  0  0  0  0  0
   56.2720   31.3200   44.5870 O   0  0  0  0  0  0  0  0  0  0  0  0
   57.4240   31.5440   45.1710 C   0  0  0  0  0  0  0  0  0  0  0  0
   58.0130   32.7630   45.4840 C   0  0  0  0  0  0  0  0  0  0  0  0
   59.2870   32.7390   46.0910 C   0  0  0  0  0  0  0  0  0  0  0  0
   60.1200   34.2600   46.3980 S   0  0  0  0  0  0  0  0  0  0  0  0
   59.5530   35.3530   45.5330 O   0  0  0  0  0  0  0  0  0  0  0  0
   61.5820   34.0960   46.0840 O   0  0  0  0  0  0  0  0  0  0  0  0
   59.9280   34.6810   48.0730 N   0  0  0  0  0  0  0  0  0  0  0  0
   60.1470   33.5000   48.9130 C   0  0  0  0  0  0  0  0  0  0  0  0
   61.6220   33.2700   49.0790 C   0  0  0  0  0  0  0  0  0  0  0  0
   62.2790   32.3160   48.2820 C   0  0  0  0  0  0  0  0  0  0  0  0
   63.6580   32.1180   48.4160 C   0  0  0  0  0  0  0  0  0  0  0  0
   64.3900   32.8800   49.3330 C   0  0  0  0  0  0  0  0  0  0  0  0
   63.7460   33.8460   50.1110 C   0  0  0  0  0  0  0  0  0  0  0  0
   62.3670   34.0450   49.9820 C   0  0  0  0  0  0  0  0  0  0  0  0
   59.9180   31.5010   46.3780 C   0  0  0  0  0  0  0  0  0  0  0  0
   59.2850   30.2850   46.0560 C   0  0  0  0  0  0  0  0  0  0  0  0
   58.0340   30.3510   45.4450 C   0  0  0  0  0  0  0  0  0  0  0  0
   54.3670   24.7290   45.6160 C   0  0  0  0  0  0  0  0  0  0  0  0
   51.2608   24.1368   45.5862 H   0  0  0  0  0  0  0  0  0  0  0  0
   51.9028   24.7831   44.0380 H   0  0  0  0  0  0  0  0  0  0  0  0
   50.8677   23.3150   44.0380 H   0  0  0  0  0  0  0  0  0  0  0  0
   54.9715   21.9275   43.7498 H   0  0  0  0  0  0  0  0  0  0  0  0
   57.2975   22.7749   43.9517 H   0  0  0  0  0  0  0  0  0  0  0  0
   58.6857   24.8851   47.0248 H   0  0  0  0  0  0  0  0  0  0  0  0
   59.3361   23.7079   45.8341 H   0  0  0  0  0  0  0  0  0  0  0  0
   59.9264   25.4044   45.8341 H   0  0  0  0  0  0  0  0  0  0  0  0
   58.5678   27.7339   44.9135 H   0  0  0  0  0  0  0  0  0  0  0  0
   56.9203   27.4449   44.2270 H   0  0  0  0  0  0  0  0  0  0  0  0
   57.5041   33.7136   45.2663 H   0  0  0  0  0  0  0  0  0  0  0  0
   58.9370   34.9930   48.1990 H   0  0  0  0  0  0  0  0  0  0  0  0
   59.6878   33.6614   49.8994 H   0  0  0  0  0  0  0  0  0  0  0  0
   59.6903   32.6206   48.4354 H   0  0  0  0  0  0  0  0  0  0  0  0
   61.7080   31.7240   47.5516 H   0  0  0  0  0  0  0  0  0  0  0  0
   64.1669   31.3623   47.7996 H   0  0  0  0  0  0  0  0  0  0  0  0
   65.4727   32.7188   49.4417 H   0  0  0  0  0  0  0  0  0  0  0  0
   64.3238   34.4506   50.8256 H   0  0  0  0  0  0  0  0  0  0  0  0
   61.8647   34.8115   50.5904 H   0  0  0  0  0  0  0  0  0  0  0  0
   60.9089   31.4910   46.8555 H   0  0  0  0  0  0  0  0  0  0  0  0
   59.7605   29.3184   46.2786 H   0  0  0  0  0  0  0  0  0  0  0  0
   53.5396   25.2612   46.1081 H   0  0  0  0  0  0  0  0  0  0  0  0
  1  2  1  0
  2  3  1  0
  3  4  2  0
  4  5  1  0
  5  6  2  0
  6  7  1  0
  7  8  1  0
  6  9  1  0
  9 10  1  0
 10 11  1  0
 11 12  2  0
 11 13  1  0
 13 14  1  0
 14 15  1  0
 15 16  2  0
 15 17  1  0
 17 18  1  0
 18 19  2  0
 19 20  1  0
 20 21  1  0
 21 22  2  0
 21 23  2  0
 21 24  1  0
 24 25  1  0
 25 26  1  0
 26 27  2  0
 27 28  1  0
 28 29  2  0
 29 30  1  0
 30 31  2  0
 20 32  2  0
 32 33  1  0
 33 34  2  0
  9 35  2  0
 35  3  1  0
 34 14  1  0
 34 18  1  0
 31 26  1  0
  1 36  1  0
  1 37  1  0
  1 38  1  0
  4 39  1  0
  5 40  1  0
  8 41  1  0
  8 42  1  0
  8 43  1  0
 13 44  1  0
 13 45  1  0
 19 46  1  0
 24 47  1  0
 25 48  1  0
 25 49  1  0
 27 50  1  0
 28 51  1  0
 29 52  1  0
 30 53  1  0
 31 54  1  0
 32 55  1  0
 33 56  1  0
 35 57  1  0
M  CHG  1  10  -1
M  END
>  <UniqueID>  (70) 
67

>  <SMILES>  (70) 
COc1ccc(OC)c([N-]C(=O)Cn2c(=O)oc3cc(S(=O)(=O)NCc4ccccc4)ccc32)c1

>  <Energy>  (70) 
105.92097350280002

>  <Genealogy>  (70) 
COc1ccc(OC)c([N-]C(=O)Cn2c(=O)oc3cc(S(=O)(=O)NCc4ccccc4)ccc32)c1 (protonated)
COc1ccc(OC)c([N-]C(=O)Cn2c(=O)oc3cc(S(=O)(=O)NCc4ccccc4)ccc32)c1 (3D coordinates assigned)
COc1ccc(OC)c([N-]C(=O)Cn2c(=O)oc3cc(S(=O)(=O)NCc4ccccc4)ccc32)c1 (optimized conformer: 105.92097350280002 kcal/mol)

>  <smiles>  (70) 
COc1ccc(OC)c(NC(=O)Cn2c(=O)oc3cc(S(=O)(=O)NCc4ccccc4)ccc32)c1

>  <score_type>  (70) 
oracle

>  <origin>  (70) 
adg

>  <m_score__min__energy>  (70) 
-11.699999999999999

>  <m_primary>  (70) 
energy

$$$$
70:0
     RDKit          3D

 49 53  0  0  0  0  0  0  0  0999 V2000
   57.6550   23.9150   44.1590 Cl  0  0  0  0  0  0  0  0  0  0  0  0
   57.5320   25.6540   44.3600 C   0  0  0  0  0  0  0  0  0  0  0  0
   57.1100   26.1890   45.5800 C   0  0  0  0  0  0  0  0  0  0  0  0
   57.0120   27.5750   45.7410 C   0  0  0  0  0  0  0  0  0  0  0  0
   57.3330   28.4430   44.6820 C   0  0  0  0  0  0  0  0  0  0  0  0
   57.2320   29.8700   44.8640 N   0  0  0  0  0  0  0  0  0  0  0  0
   58.1890   30.7190   45.2880 C   0  0  0  0  0  0  0  0  0  0  0  0
   57.6180   31.9770   45.2960 C   0  0  0  0  0  0  0  0  0  0  0  0
   58.2660   33.2640   45.6420 C   0  0  0  0  0  0  0  0  0  0  0  0
   58.6040   34.1470   44.6010 C   0  0  0  0  0  0  0  0  0  0  0  0
   59.2850   35.3360   44.8670 C   0  0  0  0  0  0  0  0  0  0  0  0
   59.6390   35.6620   46.1760 C   0  0  0  0  0  0  0  0  0  0  0  0
   59.2930   34.8090   47.2250 C   0  0  0  0  0  0  0  0  0  0  0  0
   58.5900   33.6210   46.9760 C   0  0  0  0  0  0  0  0  0  0  0  0
   58.1680   32.8300   48.0960 N   0  0  0  0  0  0  0  0  0  0  0  0
   59.1250   32.3960   49.1110 C   0  0  0  0  0  0  0  0  0  0  0  0
   59.4240   30.9330   48.9360 C   0  0  0  0  0  0  0  0  0  0  0  0
   59.4830   30.0830   50.0490 C   0  0  0  0  0  0  0  0  0  0  0  0
   59.8030   28.7680   49.8990 N   0  0  0  0  0  0  0  0  0  0  0  0
   60.0860   28.2390   48.6740 C   0  0  0  0  0  0  0  0  0  0  0  0
   60.4150   26.8810   48.5400 C   0  0  0  0  0  0  0  0  0  0  0  0
   60.7090   26.3490   47.2810 C   0  0  0  0  0  0  0  0  0  0  0  0
   60.6780   27.1660   46.1480 C   0  0  0  0  0  0  0  0  0  0  0  0
   60.3510   28.5210   46.2660 C   0  0  0  0  0  0  0  0  0  0  0  0
   60.0530   29.0640   47.5260 C   0  0  0  0  0  0  0  0  0  0  0  0
   59.7250   30.4170   47.6690 C   0  0  0  0  0  0  0  0  0  0  0  0
   56.3480   31.8620   44.8610 N   0  0  0  0  0  0  0  0  0  0  0  0
   56.1400   30.5770   44.6120 N   0  0  0  0  0  0  0  0  0  0  0  0
   57.7620   27.8910   43.4590 C   0  0  0  0  0  0  0  0  0  0  0  0
   57.8590   26.5050   43.3020 C   0  0  0  0  0  0  0  0  0  0  0  0
   56.8546   25.5195   46.4146 H   0  0  0  0  0  0  0  0  0  0  0  0
   56.6809   27.9898   46.7045 H   0  0  0  0  0  0  0  0  0  0  0  0
   59.2202   30.4614   45.5715 H   0  0  0  0  0  0  0  0  0  0  0  0
   58.3286   33.8979   43.5656 H   0  0  0  0  0  0  0  0  0  0  0  0
   59.5429   36.0171   44.0427 H   0  0  0  0  0  0  0  0  0  0  0  0
   60.1907   36.5911   46.3816 H   0  0  0  0  0  0  0  0  0  0  0  0
   59.5740   35.0705   48.2558 H   0  0  0  0  0  0  0  0  0  0  0  0
   57.3160   32.2370   47.9730 H   0  0  0  0  0  0  0  0  0  0  0  0
   60.0551   32.9739   49.0068 H   0  0  0  0  0  0  0  0  0  0  0  0
   58.6955   32.5621   50.1100 H   0  0  0  0  0  0  0  0  0  0  0  0
   59.2691   30.4815   51.0517 H   0  0  0  0  0  0  0  0  0  0  0  0
   59.8350   28.1640   50.7510 H   0  0  0  0  0  0  0  0  0  0  0  0
   60.4416   26.2332   49.4286 H   0  0  0  0  0  0  0  0  0  0  0  0
   60.9655   25.2839   47.1821 H   0  0  0  0  0  0  0  0  0  0  0  0
   60.9115   26.7424   45.1601 H   0  0  0  0  0  0  0  0  0  0  0  0
   60.3273   29.1610   45.3717 H   0  0  0  0  0  0  0  0  0  0  0  0
   59.7036   31.0745   46.7874 H   0  0  0  0  0  0  0  0  0  0  0  0
   58.0225   28.5550   42.6216 H   0  0  0  0  0  0  0  0  0  0  0  0
   58.1938   26.0838   42.3426 H   0  0  0  0  0  0  0  0  0  0  0  0
  1  2  1  0
  2  3  2  0
  3  4  1  0
  4  5  2  0
  5  6  1  0
  6  7  1  0
  7  8  2  0
  8  9  1  0
  9 10  2  0
 10 11  1  0
 11 12  2  0
 12 13  1  0
 13 14  2  0
 14 15  1  0
 15 16  1  0
 16 17  1  0
 17 18  2  0
 18 19  1  0
 19 20  2  0
 20 21  1  0
 21 22  2  0
 22 23  1  0
 23 24  2  0
 24 25  1  0
 25 26  2  0
  8 27  1  0
 27 28  2  0
  5 29  1  0
 29 30  2  0
 30  2  1  0
 28  6  1  0
 14  9  1  0
 26 17  1  0
 25 20  1  0
  3 31  1  0
  4 32  1  0
  7 33  1  0
 10 34  1  0
 11 35  1  0
 12 36  1  0
 13 37  1  0
 15 38  1  0
 16 39  1  0
 16 40  1  0
 18 41  1  0
 19 42  1  0
 21 43  1  0
 22 44  1  0
 23 45  1  0
 24 46  1  0
 26 47  1  0
 29 48  1  0
 30 49  1  0
M  CHG  1  19   1
M  END
>  <UniqueID>  (71) 
68

>  <SMILES>  (71) 
Clc1ccc(-n2cc(-c3ccccc3NCc3c[nH+]c4ccccc4c3)nn2)cc1

>  <Energy>  (71) 
102.43389582203318

>  <Genealogy>  (71) 
Clc1ccc(-n2cc(-c3ccccc3NCc3c[nH+]c4ccccc4c3)nn2)cc1 (protonated)
Clc1ccc(-n2cc(-c3ccccc3NCc3c[nH+]c4ccccc4c3)nn2)cc1 (3D coordinates assigned)
Clc1ccc(-n2cc(-c3ccccc3NCc3c[nH+]c4ccccc4c3)nn2)cc1 (optimized conformer: 102.43389582203318 kcal/mol)

>  <smiles>  (71) 
Clc1ccc(-n2cc(-c3ccccc3NCc3cnc4ccccc4c3)nn2)cc1

>  <score_type>  (71) 
oracle

>  <origin>  (71) 
adg

>  <m_score__min__energy>  (71) 
-9.2200000000000006

>  <m_primary>  (71) 
energy

$$$$
71:0
     RDKit          3D

 52 54  0  0  0  0  0  0  0  0999 V2000
   59.7490   33.7450   52.1040 C   0  0  0  0  0  0  0  0  0  0  0  0
   59.3760   34.3030   50.8480 O   0  0  0  0  0  0  0  0  0  0  0  0
   60.0290   34.0340   49.6350 C   0  0  0  0  0  0  0  0  0  0  0  0
   61.4270   34.0840   49.6110 C   0  0  0  0  0  0  0  0  0  0  0  0
   62.1380   33.8350   48.4250 C   0  0  0  0  0  0  0  0  0  0  0  0
   63.6540   33.9100   48.4060 C   0  0  0  0  0  0  0  0  0  0  0  0
   64.3460   32.6350   48.7380 N   0  0  0  0  0  0  0  0  0  0  0  0
   63.4480   31.5860   49.2480 C   0  0  0  0  0  0  0  0  0  0  0  0
   63.5730   31.5650   50.7670 C   0  0  0  0  0  0  0  0  0  0  0  0
   64.8500   32.3250   51.0870 C   0  0  0  0  0  0  0  0  0  0  0  0
   65.4100   32.7820   49.7450 C   0  0  0  0  0  0  0  0  0  0  0  0
   61.4280   33.4820   47.2670 C   0  0  0  0  0  0  0  0  0  0  0  0
   60.0270   33.4380   47.2720 C   0  0  0  0  0  0  0  0  0  0  0  0
   59.3110   33.0960   46.0690 N   0  0  0  0  0  0  0  0  0  0  0  0
   59.1540   34.1110   45.0220 C   0  0  0  0  0  0  0  0  0  0  0  0
   58.9340   31.7220   45.8190 C   0  0  0  0  0  0  0  0  0  0  0  0
   59.8690   30.6910   46.0120 C   0  0  0  0  0  0  0  0  0  0  0  0
   59.5190   29.3620   45.7700 C   0  0  0  0  0  0  0  0  0  0  0  0
   58.2300   29.0400   45.3300 C   0  0  0  0  0  0  0  0  0  0  0  0
   57.8920   27.6610   45.0860 C   0  0  0  0  0  0  0  0  0  0  0  0
   57.6200   26.5530   44.8900 N   0  0  0  0  0  0  0  0  0  0  0  0
   57.2790   30.0540   45.1300 C   0  0  0  0  0  0  0  0  0  0  0  0
   55.9930   29.6990   44.6850 O   0  0  0  0  0  0  0  0  0  0  0  0
   55.5680   29.7390   43.3270 C   0  0  0  0  0  0  0  0  0  0  0  0
   57.6390   31.3940   45.3770 C   0  0  0  0  0  0  0  0  0  0  0  0
   59.3310   33.7150   48.4580 C   0  0  0  0  0  0  0  0  0  0  0  0
   59.3367   34.3618   52.9162 H   0  0  0  0  0  0  0  0  0  0  0  0
   59.3525   32.7220   52.1830 H   0  0  0  0  0  0  0  0  0  0  0  0
   60.8459   33.7202   52.1830 H   0  0  0  0  0  0  0  0  0  0  0  0
   61.9771   34.3216   50.5335 H   0  0  0  0  0  0  0  0  0  0  0  0
   63.9688   34.2178   47.3980 H   0  0  0  0  0  0  0  0  0  0  0  0
   63.9383   34.6294   49.1880 H   0  0  0  0  0  0  0  0  0  0  0  0
   64.7820   32.2910   47.8490 H   0  0  0  0  0  0  0  0  0  0  0  0
   62.4100   31.8097   48.9608 H   0  0  0  0  0  0  0  0  0  0  0  0
   63.7209   30.6075   48.8261 H   0  0  0  0  0  0  0  0  0  0  0  0
   62.7064   32.0598   51.2297 H   0  0  0  0  0  0  0  0  0  0  0  0
   63.6048   30.5369   51.1568 H   0  0  0  0  0  0  0  0  0  0  0  0
   64.6291   33.1932   51.7253 H   0  0  0  0  0  0  0  0  0  0  0  0
   65.5691   31.6960   51.6322 H   0  0  0  0  0  0  0  0  0  0  0  0
   65.7215   33.8350   49.8089 H   0  0  0  0  0  0  0  0  0  0  0  0
   66.2859   32.1767   49.4687 H   0  0  0  0  0  0  0  0  0  0  0  0
   61.9768   33.2372   46.3456 H   0  0  0  0  0  0  0  0  0  0  0  0
   59.0016   35.0964   45.4865 H   0  0  0  0  0  0  0  0  0  0  0  0
   60.0589   34.1362   44.3971 H   0  0  0  0  0  0  0  0  0  0  0  0
   58.2837   33.8616   44.3971 H   0  0  0  0  0  0  0  0  0  0  0  0
   60.8851   30.9335   46.3566 H   0  0  0  0  0  0  0  0  0  0  0  0
   60.2596   28.5638   45.9258 H   0  0  0  0  0  0  0  0  0  0  0  0
   54.4735   29.8420   43.2882 H   0  0  0  0  0  0  0  0  0  0  0  0
   56.0352   30.5971   42.8217 H   0  0  0  0  0  0  0  0  0  0  0  0
   55.8669   28.8088   42.8217 H   0  0  0  0  0  0  0  0  0  0  0  0
   56.8989   32.1929   45.2224 H   0  0  0  0  0  0  0  0  0  0  0  0
   58.2315   33.6823   48.4666 H   0  0  0  0  0  0  0  0  0  0  0  0
  1  2  1  0
  2  3  1  0
  3  4  2  0
  4  5  1  0
  5  6  1  0
  6  7  1  0
  7  8  1  0
  8  9  1  0
  9 10  1  0
 10 11  1  0
  5 12  2  0
 12 13  1  0
 13 14  1  0
 14 15  1  0
 14 16  1  0
 16 17  2  0
 17 18  1  0
 18 19  2  0
 19 20  1  0
 20 21  3  0
 19 22  1  0
 22 23  1  0
 23 24  1  0
 22 25  2  0
 13 26  2  0
 26  3  1  0
 11  7  1  0
 25 16  1  0
  1 27  1  0
  1 28  1  0
  1 29  1  0
  4 30  1  0
  6 31  1  0
  6 32  1  0
  7 33  1  0
  8 34  1  0
  8 35  1  0
  9 36  1  0
  9 37  1  0
 10 38  1  0
 10 39  1  0
 11 40  1  0
 11 41  1  0
 12 42  1  0
 15 43  1  0
 15 44  1  0
 15 45  1  0
 17 46  1  0
 18 47  1  0
 24 48  1  0
 24 49  1  0
 24 50  1  0
 25 51  1  0
 26 52  1  0
M  CHG  1   7   1
M  END
>  <UniqueID>  (72) 
69

>  <SMILES>  (72) 
COc1cc(C[NH+]2CCCC2)cc(N(C)c2ccc(C#N)c(OC)c2)c1

>  <Energy>  (72) 
64.90615147242494

>  <Genealogy>  (72) 
COc1cc(C[NH+]2CCCC2)cc(N(C)c2ccc(C#N)c(OC)c2)c1 (protonated)
COc1cc(C[NH+]2CCCC2)cc(N(C)c2ccc(C#N)c(OC)c2)c1 (3D coordinates assigned)
COc1cc(C[NH+]2CCCC2)cc(N(C)c2ccc(C#N)c(OC)c2)c1 (nonaromatic ring conformer: 64.90615147242494 kcal/mol)

>  <smiles>  (72) 
COc1cc(CN2CCCC2)cc(N(C)c2ccc(C#N)c(OC)c2)c1

>  <score_type>  (72) 
oracle

>  <origin>  (72) 
adg

>  <m_score__min__energy>  (72) 
-6.1100000000000003

>  <m_primary>  (72) 
energy

$$$$
72:0
     RDKit          3D

 40 41  0  0  0  0  0  0  0  0999 V2000
   57.8960   31.6720   42.6780 C   0  0  0  0  0  0  0  0  0  0  0  0
   56.6410   30.8290   42.5120 C   0  0  0  0  0  0  0  0  0  0  0  0
   56.8360   29.5660   43.1370 O   0  0  0  0  0  0  0  0  0  0  0  0
   56.4290   29.2910   44.4470 C   0  0  0  0  0  0  0  0  0  0  0  0
   55.2480   29.5600   44.8020 O   0  0  0  0  0  0  0  0  0  0  0  0
   57.3690   28.6610   45.4110 C   0  0  0  0  0  0  0  0  0  0  0  0
   57.1250   27.3430   45.8360 C   0  0  0  0  0  0  0  0  0  0  0  0
   58.0080   26.6890   46.7020 C   0  0  0  0  0  0  0  0  0  0  0  0
   57.7190   25.2880   47.1570 C   0  0  0  0  0  0  0  0  0  0  0  0
   59.1190   27.3750   47.2010 C   0  0  0  0  0  0  0  0  0  0  0  0
   59.3730   28.7000   46.8230 C   0  0  0  0  0  0  0  0  0  0  0  0
   60.5610   29.4010   47.4250 C   0  0  0  0  0  0  0  0  0  0  0  0
   58.5200   29.3380   45.8870 C   0  0  0  0  0  0  0  0  0  0  0  0
   58.7730   30.6890   45.4750 N   0  0  0  0  0  0  0  0  0  0  0  0
   58.0570   31.8430   45.9380 C   0  0  0  0  0  0  0  0  0  0  0  0
   56.9220   32.0840   45.4480 O   0  0  0  0  0  0  0  0  0  0  0  0
   58.6380   32.7780   46.9290 C   0  0  0  0  0  0  0  0  0  0  0  0
   58.7680   32.3730   48.2690 C   0  0  0  0  0  0  0  0  0  0  0  0
   59.3210   33.2340   49.2210 C   0  0  0  0  0  0  0  0  0  0  0  0
   59.7570   34.5050   48.8460 C   0  0  0  0  0  0  0  0  0  0  0  0
   59.6450   34.9180   47.5170 C   0  0  0  0  0  0  0  0  0  0  0  0
   59.0930   34.0640   46.5540 C   0  0  0  0  0  0  0  0  0  0  0  0
   58.9310   34.6670   44.9070 Cl  0  0  0  0  0  0  0  0  0  0  0  0
   58.1046   31.8121   43.7489 H   0  0  0  0  0  0  0  0  0  0  0  0
   58.7463   31.1612   42.2026 H   0  0  0  0  0  0  0  0  0  0  0  0
   57.7447   32.6524   42.2026 H   0  0  0  0  0  0  0  0  0  0  0  0
   55.7887   31.3429   42.9804 H   0  0  0  0  0  0  0  0  0  0  0  0
   56.4351   30.6821   41.4415 H   0  0  0  0  0  0  0  0  0  0  0  0
   56.2256   26.8178   45.4820 H   0  0  0  0  0  0  0  0  0  0  0  0
   57.7119   25.2537   48.2564 H   0  0  0  0  0  0  0  0  0  0  0  0
   56.7370   24.9733   46.7740 H   0  0  0  0  0  0  0  0  0  0  0  0
   58.4963   24.6104   46.7740 H   0  0  0  0  0  0  0  0  0  0  0  0
   59.8020   26.8685   47.8988 H   0  0  0  0  0  0  0  0  0  0  0  0
   60.4932   29.3610   48.5222 H   0  0  0  0  0  0  0  0  0  0  0  0
   61.4855   28.9037   47.0964 H   0  0  0  0  0  0  0  0  0  0  0  0
   60.5726   30.4507   47.0964 H   0  0  0  0  0  0  0  0  0  0  0  0
   58.4317   31.3701   48.5707 H   0  0  0  0  0  0  0  0  0  0  0  0
   59.4126   32.9089   50.2678 H   0  0  0  0  0  0  0  0  0  0  0  0
   60.1892   35.1820   49.5976 H   0  0  0  0  0  0  0  0  0  0  0  0
   59.9923   35.9199   47.2246 H   0  0  0  0  0  0  0  0  0  0  0  0
  1  2  1  0
  2  3  1  0
  3  4  1  0
  4  5  2  0
  4  6  1  0
  6  7  2  0
  7  8  1  0
  8  9  1  0
  8 10  2  0
 10 11  1  0
 11 12  1  0
 11 13  2  0
 13 14  1  0
 14 15  1  0
 15 16  2  0
 15 17  1  0
 17 18  2  0
 18 19  1  0
 19 20  2  0
 20 21  1  0
 21 22  2  0
 22 23  1  0
 13  6  1  0
 22 17  1  0
  1 24  1  0
  1 25  1  0
  1 26  1  0
  2 27  1  0
  2 28  1  0
  7 29  1  0
  9 30  1  0
  9 31  1  0
  9 32  1  0
 10 33  1  0
 12 34  1  0
 12 35  1  0
 12 36  1  0
 18 37  1  0
 19 38  1  0
 20 39  1  0
 21 40  1  0
M  CHG  1  14  -1
M  END
>  <UniqueID>  (73) 
70

>  <SMILES>  (73) 
CCOC(=O)c1cc(C)cc(C)c1[N-]C(=O)c1ccccc1Cl

>  <Energy>  (73) 
48.070031780330275

>  <Genealogy>  (73) 
CCOC(=O)c1cc(C)cc(C)c1[N-]C(=O)c1ccccc1Cl (protonated)
CCOC(=O)c1cc(C)cc(C)c1[N-]C(=O)c1ccccc1Cl (3D coordinates assigned)
CCOC(=O)c1cc(C)cc(C)c1[N-]C(=O)c1ccccc1Cl (optimized conformer: 48.070031780330275 kcal/mol)

>  <smiles>  (73) 
CCOC(=O)c1cc(C)cc(C)c1NC(=O)c1ccccc1Cl

>  <score_type>  (73) 
oracle

>  <origin>  (73) 
adg

>  <m_score__min__energy>  (73) 
-8.8300000000000001

>  <m_primary>  (73) 
energy

$$$$
73:0
     RDKit          3D

 37 40  0  0  0  0  0  0  0  0999 V2000
   58.7990   33.8830   48.2010 O   0  0  0  0  0  0  0  0  0  0  0  0
   59.9810   33.7190   47.7930 C   0  0  0  0  0  0  0  0  0  0  0  0
   60.9910   33.3000   48.6730 C   0  0  0  0  0  0  0  0  0  0  0  0
   60.9020   32.9780   50.0600 C   0  0  0  0  0  0  0  0  0  0  0  0
   59.6490   32.9210   50.8360 C   0  0  0  0  0  0  0  0  0  0  0  0
   59.4310   33.8330   51.8790 C   0  0  0  0  0  0  0  0  0  0  0  0
   58.2620   33.7620   52.6430 C   0  0  0  0  0  0  0  0  0  0  0  0
   57.3130   32.7680   52.3820 C   0  0  0  0  0  0  0  0  0  0  0  0
   57.5370   31.8400   51.3610 C   0  0  0  0  0  0  0  0  0  0  0  0
   58.7050   31.9090   50.5940 C   0  0  0  0  0  0  0  0  0  0  0  0
   62.0890   32.6790   50.6610 N   0  0  0  0  0  0  0  0  0  0  0  0
   63.2500   32.7820   49.4710 S   0  0  0  0  0  0  0  0  0  0  0  0
   62.2810   33.2120   48.1920 C   0  0  0  0  0  0  0  0  0  0  0  0
   62.5890   33.4780   46.8670 C   0  0  0  0  0  0  0  0  0  0  0  0
   63.8870   33.3800   46.3720 O   0  0  0  0  0  0  0  0  0  0  0  0
   61.5700   33.8450   46.0450 N   0  0  0  0  0  0  0  0  0  0  0  0
   60.3070   33.9730   46.4790 N   0  0  0  0  0  0  0  0  0  0  0  0
   59.2780   34.3520   45.5040 C   0  0  0  0  0  0  0  0  0  0  0  0
   58.6110   33.1200   44.9530 C   0  0  0  0  0  0  0  0  0  0  0  0
   58.2730   33.0520   43.5920 C   0  0  0  0  0  0  0  0  0  0  0  0
   57.6860   31.8960   43.0680 C   0  0  0  0  0  0  0  0  0  0  0  0
   57.4390   30.7990   43.8990 C   0  0  0  0  0  0  0  0  0  0  0  0
   57.7800   30.8560   45.2530 C   0  0  0  0  0  0  0  0  0  0  0  0
   58.3670   32.0100   45.7800 C   0  0  0  0  0  0  0  0  0  0  0  0
   60.1821   34.6066   52.0967 H   0  0  0  0  0  0  0  0  0  0  0  0
   58.0884   34.4887   53.4503 H   0  0  0  0  0  0  0  0  0  0  0  0
   56.3911   32.7167   52.9798 H   0  0  0  0  0  0  0  0  0  0  0  0
   56.7938   31.0543   51.1603 H   0  0  0  0  0  0  0  0  0  0  0  0
   58.8846   31.1694   49.7998 H   0  0  0  0  0  0  0  0  0  0  0  0
   64.5440   32.6960   46.7280 H   0  0  0  0  0  0  0  0  0  0  0  0
   58.5248   34.9844   45.9967 H   0  0  0  0  0  0  0  0  0  0  0  0
   59.7494   34.9065   44.6792 H   0  0  0  0  0  0  0  0  0  0  0  0
   58.4708   33.9118   42.9350 H   0  0  0  0  0  0  0  0  0  0  0  0
   57.4186   31.8497   42.0020 H   0  0  0  0  0  0  0  0  0  0  0  0
   56.9759   29.8904   43.4867 H   0  0  0  0  0  0  0  0  0  0  0  0
   57.5862   29.9915   45.9050 H   0  0  0  0  0  0  0  0  0  0  0  0
   58.6388   32.0495   46.8452 H   0  0  0  0  0  0  0  0  0  0  0  0
  1  2  2  0
  2  3  1  0
  3  4  1  0
  4  5  1  0
  5  6  2  0
  6  7  1  0
  7  8  2  0
  8  9  1  0
  9 10  2  0
  4 11  2  0
 11 12  1  0
 12 13  1  0
 13 14  1  0
 14 15  1  0
 14 16  2  0
 16 17  1  0
 17 18  1  0
 18 19  1  0
 19 20  2  0
 20 21  1  0
 21 22  2  0
 22 23  1  0
 23 24  2  0
 17  2  1  0
 24 19  1  0
 13  3  2  0
 10  5  1  0
  6 25  1  0
  7 26  1  0
  8 27  1  0
  9 28  1  0
 10 29  1  0
 15 30  1  0
 18 31  1  0
 18 32  1  0
 20 33  1  0
 21 34  1  0
 22 35  1  0
 23 36  1  0
 24 37  1  0
M  END
>  <UniqueID>  (74) 
71

>  <SMILES>  (74) 
O=c1c2c(-c3ccccc3)nsc2c(O)nn1Cc1ccccc1

>  <Energy>  (74) 
89.0933078459881

>  <Genealogy>  (74) 
O=c1c2c(-c3ccccc3)nsc2c(O)nn1Cc1ccccc1 (3D coordinates assigned)
O=c1c2c(-c3ccccc3)nsc2c(O)nn1Cc1ccccc1 (optimized conformer: 89.0933078459881 kcal/mol)

>  <smiles>  (74) 
O=c1c2c(-c3ccccc3)nsc2c(O)nn1Cc1ccccc1

>  <score_type>  (74) 
oracle

>  <origin>  (74) 
adg

>  <m_score__min__energy>  (74) 
-7.9400000000000004

>  <m_primary>  (74) 
energy

$$$$
74:0
     RDKit          3D

 58 59  0  0  0  0  0  0  0  0999 V2000
   62.3390   30.6120   50.9460 C   0  0  0  0  0  0  0  0  0  0  0  0
   60.9700   30.6860   50.5580 O   0  0  0  0  0  0  0  0  0  0  0  0
   60.4980   30.4710   49.2530 C   0  0  0  0  0  0  0  0  0  0  0  0
   61.3080   30.6910   48.1220 C   0  0  0  0  0  0  0  0  0  0  0  0
   60.8050   30.4630   46.8400 C   0  0  0  0  0  0  0  0  0  0  0  0
   59.4860   30.0220   46.6630 C   0  0  0  0  0  0  0  0  0  0  0  0
   58.9600   29.7520   45.2790 C   0  0  0  0  0  0  0  0  0  0  0  0
   57.4710   29.3850   45.3280 C   0  0  0  0  0  0  0  0  0  0  0  0
   56.6500   30.4980   44.8060 N   0  0  0  0  0  0  0  0  0  0  0  0
   55.8830   30.0590   43.6270 C   0  0  0  0  0  0  0  0  0  0  0  0
   57.4770   31.6850   44.4810 C   0  0  0  0  0  0  0  0  0  0  0  0
   57.4360   32.7030   45.6280 C   0  0  0  0  0  0  0  0  0  0  0  0
   57.6410   34.1400   45.1230 C   0  0  0  0  0  0  0  0  0  0  0  0
   59.0340   34.6720   45.4820 C   0  0  0  0  0  0  0  0  0  0  0  0
   59.3940   34.3230   46.8200 O   0  0  0  0  0  0  0  0  0  0  0  0
   60.7000   34.0780   47.2800 C   0  0  0  0  0  0  0  0  0  0  0  0
   61.7790   33.8370   46.4030 C   0  0  0  0  0  0  0  0  0  0  0  0
   63.0610   33.6110   46.9070 C   0  0  0  0  0  0  0  0  0  0  0  0
   63.2830   33.6170   48.2840 C   0  0  0  0  0  0  0  0  0  0  0  0
   62.2220   33.8440   49.1640 C   0  0  0  0  0  0  0  0  0  0  0  0
   60.9230   34.0710   48.6680 C   0  0  0  0  0  0  0  0  0  0  0  0
   59.8290   34.2960   49.5200 O   0  0  0  0  0  0  0  0  0  0  0  0
   59.6580   33.6780   50.7910 C   0  0  0  0  0  0  0  0  0  0  0  0
   58.6810   29.7900   47.7880 C   0  0  0  0  0  0  0  0  0  0  0  0
   59.1790   30.0170   49.0860 C   0  0  0  0  0  0  0  0  0  0  0  0
   58.3980   29.8030   50.2320 O   0  0  0  0  0  0  0  0  0  0  0  0
   57.9760   30.8300   51.1250 C   0  0  0  0  0  0  0  0  0  0  0  0
   62.4093   30.6082   52.0437 H   0  0  0  0  0  0  0  0  0  0  0  0
   62.7838   29.6885   50.5469 H   0  0  0  0  0  0  0  0  0  0  0  0
   62.8808   31.4822   50.5469 H   0  0  0  0  0  0  0  0  0  0  0  0
   62.3419   31.0442   48.2495 H   0  0  0  0  0  0  0  0  0  0  0  0
   61.4476   30.6304   45.9630 H   0  0  0  0  0  0  0  0  0  0  0  0
   59.0900   30.6527   44.6610 H   0  0  0  0  0  0  0  0  0  0  0  0
   59.5185   28.9090   44.8461 H   0  0  0  0  0  0  0  0  0  0  0  0
   57.2981   28.4882   44.7150 H   0  0  0  0  0  0  0  0  0  0  0  0
   57.1853   29.1891   46.3720 H   0  0  0  0  0  0  0  0  0  0  0  0
   54.9719   29.5375   43.9556 H   0  0  0  0  0  0  0  0  0  0  0  0
   55.6061   30.9354   43.0226 H   0  0  0  0  0  0  0  0  0  0  0  0
   56.4984   29.3764   43.0226 H   0  0  0  0  0  0  0  0  0  0  0  0
   58.5172   31.3669   44.3172 H   0  0  0  0  0  0  0  0  0  0  0  0
   57.0759   32.1583   43.5726 H   0  0  0  0  0  0  0  0  0  0  0  0
   56.4583   32.6372   46.1277 H   0  0  0  0  0  0  0  0  0  0  0  0
   58.2530   32.4657   46.3253 H   0  0  0  0  0  0  0  0  0  0  0  0
   57.5247   34.1539   44.0293 H   0  0  0  0  0  0  0  0  0  0  0  0
   56.8919   34.7844   45.6063 H   0  0  0  0  0  0  0  0  0  0  0  0
   59.7716   34.2417   44.7886 H   0  0  0  0  0  0  0  0  0  0  0  0
   59.0181   35.7689   45.4016 H   0  0  0  0  0  0  0  0  0  0  0  0
   61.6089   33.8272   45.3163 H   0  0  0  0  0  0  0  0  0  0  0  0
   63.8978   33.4278   46.2169 H   0  0  0  0  0  0  0  0  0  0  0  0
   64.2952   33.4427   48.6777 H   0  0  0  0  0  0  0  0  0  0  0  0
   62.4016   33.8455   50.2492 H   0  0  0  0  0  0  0  0  0  0  0  0
   59.8609   34.4112   51.5855 H   0  0  0  0  0  0  0  0  0  0  0  0
   58.6249   33.3121   50.8848 H   0  0  0  0  0  0  0  0  0  0  0  0
   60.3561   32.8331   50.8848 H   0  0  0  0  0  0  0  0  0  0  0  0
   57.6510   29.4273   47.6554 H   0  0  0  0  0  0  0  0  0  0  0  0
   58.1144   30.4931   52.1629 H   0  0  0  0  0  0  0  0  0  0  0  0
   58.5746   31.7362   50.9507 H   0  0  0  0  0  0  0  0  0  0  0  0
   56.9131   31.0535   50.9507 H   0  0  0  0  0  0  0  0  0  0  0  0
  1  2  1  0
  2  3  1  0
  3  4  2  0
  4  5  1  0
  5  6  2  0
  6  7  1  0
  7  8  1  0
  8  9  1  0
  9 10  1  0
  9 11  1  0
 11 12  1  0
 12 13  1  0
 13 14  1  0
 14 15  1  0
 15 16  1  0
 16 17  2  0
 17 18  1  0
 18 19  2  0
 19 20  1  0
 20 21  2  0
 21 22  1  0
 22 23  1  0
  6 24  1  0
 24 25  2  0
 25 26  1  0
 26 27  1  0
 25  3  1  0
 21 16  1  0
  1 28  1  0
  1 29  1  0
  1 30  1  0
  4 31  1  0
  5 32  1  0
  7 33  1  0
  7 34  1  0
  8 35  1  0
  8 36  1  0
 10 37  1  0
 10 38  1  0
 10 39  1  0
 11 40  1  0
 11 41  1  0
 12 42  1  0
 12 43  1  0
 13 44  1  0
 13 45  1  0
 14 46  1  0
 14 47  1  0
 17 48  1  0
 18 49  1  0
 19 50  1  0
 20 51  1  0
 23 52  1  0
 23 53  1  0
 23 54  1  0
 24 55  1  0
 27 56  1  0
 27 57  1  0
 27 58  1  0
M  END
>  <UniqueID>  (75) 
72

>  <SMILES>  (75) 
COc1ccc(CCN(C)CCCCOc2ccccc2OC)cc1OC

>  <Energy>  (75) 
50.12756111035271

>  <Genealogy>  (75) 
COc1ccc(CCN(C)CCCCOc2ccccc2OC)cc1OC (3D coordinates assigned)
COc1ccc(CCN(C)CCCCOc2ccccc2OC)cc1OC (optimized conformer: 50.12756111035271 kcal/mol)

>  <smiles>  (75) 
COc1ccc(CCN(C)CCCCOc2ccccc2OC)cc1OC

>  <score_type>  (75) 
oracle

>  <origin>  (75) 
adg

>  <m_score__min__energy>  (75) 
-8.1400000000000006

>  <m_primary>  (75) 
energy

$$$$
75:0
     RDKit          3D

 52 53  0  0  0  0  0  0  0  0999 V2000
   63.3280   33.8340   46.5290 C   0  0  0  0  0  0  0  0  0  0  0  0
   63.4420   32.4390   47.1240 C   0  0  0  0  0  0  0  0  0  0  0  0
   63.9050   32.5340   48.4640 O   0  0  0  0  0  0  0  0  0  0  0  0
   63.0820   32.3080   49.5720 C   0  0  0  0  0  0  0  0  0  0  0  0
   62.9620   31.1480   50.0530 O   0  0  0  0  0  0  0  0  0  0  0  0
   62.3100   33.4400   50.1800 C   0  0  0  0  0  0  0  0  0  0  0  0
   60.9020   33.2280   50.0720 O   0  0  0  0  0  0  0  0  0  0  0  0
   60.1190   33.4560   48.9250 C   0  0  0  0  0  0  0  0  0  0  0  0
   60.3050   34.5900   48.1100 C   0  0  0  0  0  0  0  0  0  0  0  0
   59.4960   34.7980   46.9910 C   0  0  0  0  0  0  0  0  0  0  0  0
   58.4970   33.8790   46.6670 C   0  0  0  0  0  0  0  0  0  0  0  0
   57.3910   34.1720   45.1380 Br  0  0  0  0  0  0  0  0  0  0  0  0
   58.3050   32.7480   47.4620 C   0  0  0  0  0  0  0  0  0  0  0  0
   59.1120   32.5240   48.5910 C   0  0  0  0  0  0  0  0  0  0  0  0
   58.8590   31.3010   49.4480 C   0  0  0  0  0  0  0  0  0  0  0  0
   60.0580   30.4590   49.6040 N   0  0  0  0  0  0  0  0  0  0  0  0
   60.5460   29.8830   48.3400 C   0  0  0  0  0  0  0  0  0  0  0  0
   59.7180   28.6580   47.9270 C   0  0  0  0  0  0  0  0  0  0  0  0
   58.4900   29.0540   47.0960 C   0  0  0  0  0  0  0  0  0  0  0  0
   58.6640   28.6540   45.6800 N   0  0  0  0  0  0  0  0  0  0  0  0
   57.3990   28.1920   45.0620 C   0  0  0  0  0  0  0  0  0  0  0  0
   56.6360   29.3320   44.3550 C   0  0  0  0  0  0  0  0  0  0  0  0
   56.9590   30.5800   44.9320 O   0  0  0  0  0  0  0  0  0  0  0  0
   58.3100   30.9090   44.6560 C   0  0  0  0  0  0  0  0  0  0  0  0
   59.2810   29.7230   44.8720 C   0  0  0  0  0  0  0  0  0  0  0  0
   63.2675   34.5747   47.3400 H   0  0  0  0  0  0  0  0  0  0  0  0
   64.2122   34.0413   45.9083 H   0  0  0  0  0  0  0  0  0  0  0  0
   62.4219   33.8950   45.9083 H   0  0  0  0  0  0  0  0  0  0  0  0
   62.4556   31.9523   47.1101 H   0  0  0  0  0  0  0  0  0  0  0  0
   64.1520   31.8435   46.5312 H   0  0  0  0  0  0  0  0  0  0  0  0
   62.5784   33.5258   51.2433 H   0  0  0  0  0  0  0  0  0  0  0  0
   62.5637   34.3627   49.6375 H   0  0  0  0  0  0  0  0  0  0  0  0
   61.0930   35.3167   48.3569 H   0  0  0  0  0  0  0  0  0  0  0  0
   59.6466   35.6886   46.3632 H   0  0  0  0  0  0  0  0  0  0  0  0
   57.5162   32.0264   47.2031 H   0  0  0  0  0  0  0  0  0  0  0  0
   58.5287   31.6312   50.4439 H   0  0  0  0  0  0  0  0  0  0  0  0
   58.0906   30.6956   48.9450 H   0  0  0  0  0  0  0  0  0  0  0  0
   60.8230   31.0420   50.0170 H   0  0  0  0  0  0  0  0  0  0  0  0
   60.4773   30.6447   47.5494 H   0  0  0  0  0  0  0  0  0  0  0  0
   61.5887   29.5638   48.4844 H   0  0  0  0  0  0  0  0  0  0  0  0
   60.3508   27.9856   47.3291 H   0  0  0  0  0  0  0  0  0  0  0  0
   59.3654   28.1594   48.8419 H   0  0  0  0  0  0  0  0  0  0  0  0
   57.6002   28.5536   47.5057 H   0  0  0  0  0  0  0  0  0  0  0  0
   58.3692   30.1464   47.1424 H   0  0  0  0  0  0  0  0  0  0  0  0
   57.6320   27.4117   44.3225 H   0  0  0  0  0  0  0  0  0  0  0  0
   56.7549   27.8073   45.8665 H   0  0  0  0  0  0  0  0  0  0  0  0
   56.9106   29.3444   43.2899 H   0  0  0  0  0  0  0  0  0  0  0  0
   55.5556   29.1585   44.4679 H   0  0  0  0  0  0  0  0  0  0  0  0
   58.3837   31.2352   43.6081 H   0  0  0  0  0  0  0  0  0  0  0  0
   58.6033   31.7044   45.3570 H   0  0  0  0  0  0  0  0  0  0  0  0
   59.5644   29.3111   43.8922 H   0  0  0  0  0  0  0  0  0  0  0  0
   60.1635   30.0959   45.4125 H   0  0  0  0  0  0  0  0  0  0  0  0
  1  2  1  0
  2  3  1  0
  3  4  1  0
  4  5  2  0
  4  6  1  0
  6  7  1  0
  7  8  1  0
  8  9  2  0
  9 10  1  0
 10 11  2  0
 11 12  1  0
 11 13  1  0
 13 14  2  0
 14 15  1  0
 15 16  1  0
 16 17  1  0
 17 18  1  0
 18 19  1  0
 19 20  1  0
 20 21  1  0
 21 22  1  0
 22 23  1  0
 23 24  1  0
 24 25  1  0
 14  8  1  0
 25 20  1  0
  1 26  1  0
  1 27  1  0
  1 28  1  0
  2 29  1  0
  2 30  1  0
  6 31  1  0
  6 32  1  0
  9 33  1  0
 10 34  1  0
 13 35  1  0
 15 36  1  0
 15 37  1  0
 16 38  1  0
 17 39  1  0
 17 40  1  0
 18 41  1  0
 18 42  1  0
 19 43  1  0
 19 44  1  0
 21 45  1  0
 21 46  1  0
 22 47  1  0
 22 48  1  0
 24 49  1  0
 24 50  1  0
 25 51  1  0
 25 52  1  0
M  END
>  <UniqueID>  (76) 
73

>  <SMILES>  (76) 
CCOC(=O)COc1ccc(Br)cc1CNCCCN1CCOCC1

>  <Energy>  (76) 
50.95332212637611

>  <Genealogy>  (76) 
CCOC(=O)COc1ccc(Br)cc1CNCCCN1CCOCC1 (3D coordinates assigned)
CCOC(=O)COc1ccc(Br)cc1CNCCCN1CCOCC1 (nonaromatic ring conformer: 50.95332212637611 kcal/mol)

>  <smiles>  (76) 
CCOC(=O)COc1ccc(Br)cc1CNCCCN1CCOCC1

>  <score_type>  (76) 
oracle

>  <origin>  (76) 
adg

>  <m_score__min__energy>  (76) 
-7.25

>  <m_primary>  (76) 
energy

$$$$
76:0
     RDKit          3D

 44 46  0  0  0  0  0  0  0  0999 V2000
   57.7320   32.3490   41.1090 C   0  0  0  0  0  0  0  0  0  0  0  0
   57.5930   31.7370   42.4310 C   0  0  0  0  0  0  0  0  0  0  0  0
   57.4780   31.2320   43.5190 C   0  0  0  0  0  0  0  0  0  0  0  0
   57.3360   30.6110   44.8390 C   0  0  0  0  0  0  0  0  0  0  0  0
   58.6190   30.6310   45.5450 N   0  0  0  0  0  0  0  0  0  0  0  0
   59.4150   29.5730   45.8600 C   0  0  0  0  0  0  0  0  0  0  0  0
   59.1320   28.2190   45.4810 N   0  0  0  0  0  0  0  0  0  0  0  0
   59.2740   27.8050   44.0810 C   0  0  0  0  0  0  0  0  0  0  0  0
   58.1390   26.8510   43.6670 C   0  0  0  0  0  0  0  0  0  0  0  0
   57.6330   25.9560   44.8190 C   0  0  0  0  0  0  0  0  0  0  0  0
   58.6580   25.8280   45.9500 C   0  0  0  0  0  0  0  0  0  0  0  0
   58.9760   27.2090   46.5370 C   0  0  0  0  0  0  0  0  0  0  0  0
   60.5050   29.9080   46.5990 N   0  0  0  0  0  0  0  0  0  0  0  0
   60.3760   31.2440   46.7210 C   0  0  0  0  0  0  0  0  0  0  0  0
   59.2580   31.6820   46.0940 C   0  0  0  0  0  0  0  0  0  0  0  0
   58.9380   33.0360   46.0980 C   0  0  0  0  0  0  0  0  0  0  0  0
   57.8900   33.4500   45.5320 O   0  0  0  0  0  0  0  0  0  0  0  0
   59.7970   33.9070   46.7300 N   0  0  0  0  0  0  0  0  0  0  0  0
   59.4830   35.3450   46.7700 C   0  0  0  0  0  0  0  0  0  0  0  0
   60.9190   33.4290   47.3840 C   0  0  0  0  0  0  0  0  0  0  0  0
   61.6870   34.2350   47.9840 O   0  0  0  0  0  0  0  0  0  0  0  0
   61.2120   32.0820   47.3900 N   0  0  0  0  0  0  0  0  0  0  0  0
   62.4260   31.5730   48.0440 C   0  0  0  0  0  0  0  0  0  0  0  0
   57.9743   33.4160   41.2225 H   0  0  0  0  0  0  0  0  0  0  0  0
   58.5389   31.8466   40.5554 H   0  0  0  0  0  0  0  0  0  0  0  0
   56.7872   32.2445   40.5554 H   0  0  0  0  0  0  0  0  0  0  0  0
   56.5897   31.1678   45.4247 H   0  0  0  0  0  0  0  0  0  0  0  0
   57.0105   29.5678   44.7131 H   0  0  0  0  0  0  0  0  0  0  0  0
   59.2459   28.6971   43.4380 H   0  0  0  0  0  0  0  0  0  0  0  0
   60.2325   27.2771   43.9684 H   0  0  0  0  0  0  0  0  0  0  0  0
   57.2956   27.4532   43.2983 H   0  0  0  0  0  0  0  0  0  0  0  0
   58.5453   26.1825   42.8936 H   0  0  0  0  0  0  0  0  0  0  0  0
   56.7094   26.3928   45.2266 H   0  0  0  0  0  0  0  0  0  0  0  0
   57.4559   24.9502   44.4104 H   0  0  0  0  0  0  0  0  0  0  0  0
   58.2475   25.1830   46.7409 H   0  0  0  0  0  0  0  0  0  0  0  0
   59.5824   25.3879   45.5479 H   0  0  0  0  0  0  0  0  0  0  0  0
   58.1549   27.5121   47.2033 H   0  0  0  0  0  0  0  0  0  0  0  0
   59.9237   27.1391   47.0911 H   0  0  0  0  0  0  0  0  0  0  0  0
   59.4108   35.6756   47.8167 H   0  0  0  0  0  0  0  0  0  0  0  0
   60.2793   35.9085   46.2616 H   0  0  0  0  0  0  0  0  0  0  0  0
   58.5243   35.5253   46.2616 H   0  0  0  0  0  0  0  0  0  0  0  0
   62.3033   31.6245   49.1359 H   0  0  0  0  0  0  0  0  0  0  0  0
   62.5943   30.5285   47.7427 H   0  0  0  0  0  0  0  0  0  0  0  0
   63.2889   32.1851   47.7427 H   0  0  0  0  0  0  0  0  0  0  0  0
  1  2  1  0
  2  3  3  0
  3  4  1  0
  4  5  1  0
  5  6  1  0
  6  7  1  0
  7  8  1  0
  8  9  1  0
  9 10  1  0
 10 11  1  0
 11 12  1  0
  6 13  2  0
 13 14  1  0
 14 15  2  0
 15 16  1  0
 16 17  2  0
 16 18  1  0
 18 19  1  0
 18 20  1  0
 20 21  2  0
 20 22  1  0
 22 23  1  0
 15  5  1  0
 12  7  1  0
 22 14  1  0
  1 24  1  0
  1 25  1  0
  1 26  1  0
  4 27  1  0
  4 28  1  0
  8 29  1  0
  8 30  1  0
  9 31  1  0
  9 32  1  0
 10 33  1  0
 10 34  1  0
 11 35  1  0
 11 36  1  0
 12 37  1  0
 12 38  1  0
 19 39  1  0
 19 40  1  0
 19 41  1  0
 23 42  1  0
 23 43  1  0
 23 44  1  0
M  END
>  <UniqueID>  (77) 
74

>  <SMILES>  (77) 
CC#CCn1c(N2CCCCC2)nc2c1c(=O)n(C)c(=O)n2C

>  <Energy>  (77) 
88.71981358211106

>  <Genealogy>  (77) 
CC#CCn1c(N2CCCCC2)nc2c1c(=O)n(C)c(=O)n2C (3D coordinates assigned)
CC#CCn1c(N2CCCCC2)nc2c1c(=O)n(C)c(=O)n2C (nonaromatic ring conformer: 88.71981358211106 kcal/mol)

>  <smiles>  (77) 
CC#CCn1c(N2CCCCC2)nc2c1c(=O)n(C)c(=O)n2C

>  <score_type>  (77) 
oracle

>  <origin>  (77) 
adg

>  <m_score__min__energy>  (77) 
-5.9500000000000002

>  <m_primary>  (77) 
energy

$$$$
77:0
     RDKit          3D

 34 35  0  0  0  0  0  0  0  0999 V2000
   57.1020   28.2709   42.9503 H   0  0  0  0  0  0  0  0  0  0  0  0
   57.5090   28.8310   43.8050 C   0  0  0  0  0  0  0  0  0  0  0  0
   56.8980   30.1400   44.1350 C   0  0  0  0  0  0  0  0  0  0  0  0
   55.7460   30.1440   44.6420 O   0  0  0  0  0  0  0  0  0  0  0  0
   57.6180   31.4590   43.9820 C   0  0  0  0  0  0  0  0  0  0  0  0
   58.6747   31.3205   44.2543 H   0  0  0  0  0  0  0  0  0  0  0  0
   57.5161   31.7825   42.9356 H   0  0  0  0  0  0  0  0  0  0  0  0
   57.0130   32.5530   44.8790 C   0  0  0  0  0  0  0  0  0  0  0  0
   56.5265   33.3053   44.2407 H   0  0  0  0  0  0  0  0  0  0  0  0
   56.2901   32.0732   45.5552 H   0  0  0  0  0  0  0  0  0  0  0  0
   58.0560   33.2370   45.7270 C   0  0  0  0  0  0  0  0  0  0  0  0
   58.2140   32.8810   47.0770 C   0  0  0  0  0  0  0  0  0  0  0  0
   57.6228   32.0550   47.4991 H   0  0  0  0  0  0  0  0  0  0  0  0
   59.1210   33.5740   47.8860 C   0  0  0  0  0  0  0  0  0  0  0  0
   59.2401   33.2927   48.9427 H   0  0  0  0  0  0  0  0  0  0  0  0
   59.8760   34.6230   47.3540 C   0  0  0  0  0  0  0  0  0  0  0  0
   60.5831   35.1711   47.9940 H   0  0  0  0  0  0  0  0  0  0  0  0
   59.7330   34.9760   46.0090 C   0  0  0  0  0  0  0  0  0  0  0  0
   60.3324   35.7976   45.5899 H   0  0  0  0  0  0  0  0  0  0  0  0
   58.8290   34.2860   45.1960 C   0  0  0  0  0  0  0  0  0  0  0  0
   58.7216   34.5642   44.1372 H   0  0  0  0  0  0  0  0  0  0  0  0
   58.5280   28.2890   44.4860 C   0  0  0  0  0  0  0  0  0  0  0  0
   58.9688   27.3541   44.1097 H   0  0  0  0  0  0  0  0  0  0  0  0
   59.0910   28.8850   45.7200 C   0  0  0  0  0  0  0  0  0  0  0  0
   58.4890   28.7090   46.9820 C   0  0  0  0  0  0  0  0  0  0  0  0
   57.5893   28.0833   47.0769 H   0  0  0  0  0  0  0  0  0  0  0  0
   59.0300   29.3260   48.1140 C   0  0  0  0  0  0  0  0  0  0  0  0
   58.5576   29.1799   49.0966 H   0  0  0  0  0  0  0  0  0  0  0  0
   60.1680   30.1270   48.0010 C   0  0  0  0  0  0  0  0  0  0  0  0
   60.5951   30.6052   48.8948 H   0  0  0  0  0  0  0  0  0  0  0  0
   60.7640   30.3210   46.7530 C   0  0  0  0  0  0  0  0  0  0  0  0
   61.6594   30.9537   46.6643 H   0  0  0  0  0  0  0  0  0  0  0  0
   60.2240   29.7120   45.6160 C   0  0  0  0  0  0  0  0  0  0  0  0
   60.6885   29.8809   44.6333 H   0  0  0  0  0  0  0  0  0  0  0  0
  1  2  1  0
  2  3  1  0
  3  4  2  0
  3  5  1  0
  5  6  1  0
  5  7  1  0
  5  8  1  0
  8  9  1  0
  8 10  1  0
  8 11  1  0
 11 12  2  0
 12 13  1  0
 12 14  1  0
 14 15  1  0
 14 16  2  0
 16 17  1  0
 16 18  1  0
 18 19  1  0
 18 20  2  0
 20 21  1  0
  2 22  2  0
 22 23  1  0
 22 24  1  0
 24 25  2  0
 25 26  1  0
 25 27  1  0
 27 28  1  0
 27 29  2  0
 29 30  1  0
 29 31  1  0
 31 32  1  0
 31 33  2  0
 33 34  1  0
 20 11  1  0
 33 24  1  0
M  END
>  <UniqueID>  (78) 
75

>  <SMILES>  (78) 
O=C(/C=C/c1ccccc1)CCc1ccccc1

>  <Energy>  (78) 
32.18193732861842

>  <Genealogy>  (78) 
O=C(/C=C/c1ccccc1)CCc1ccccc1 (cis-trans isomerization)
O=C(/C=C/c1ccccc1)CCc1ccccc1 (3D coordinates assigned)
O=C(/C=C/c1ccccc1)CCc1ccccc1 (optimized conformer: 32.18193732861842 kcal/mol)

>  <smiles>  (78) 
O=C(C=Cc1ccccc1)CCc1ccccc1

>  <score_type>  (78) 
oracle

>  <origin>  (78) 
adg

>  <m_score__min__energy>  (78) 
-7.1600000000000001

>  <m_primary>  (78) 
energy

$$$$
78:0
     RDKit          3D

 40 42  0  0  0  0  0  0  0  0999 V2000
   59.6860   33.4030   51.1290 C   0  0  0  0  0  0  0  0  0  0  0  0
   60.1820   34.2110   50.0660 O   0  0  0  0  0  0  0  0  0  0  0  0
   61.3640   33.9490   49.3550 C   0  0  0  0  0  0  0  0  0  0  0  0
   62.6100   33.8140   50.0000 C   0  0  0  0  0  0  0  0  0  0  0  0
   63.7700   33.5810   49.2570 C   0  0  0  0  0  0  0  0  0  0  0  0
   63.7020   33.4810   47.8670 C   0  0  0  0  0  0  0  0  0  0  0  0
   62.4740   33.6100   47.2160 C   0  0  0  0  0  0  0  0  0  0  0  0
   61.3020   33.8370   47.9520 C   0  0  0  0  0  0  0  0  0  0  0  0
   60.0460   33.9510   47.2640 N   0  0  0  0  0  0  0  0  0  0  0  0
   58.9240   33.0870   47.6580 C   0  0  0  0  0  0  0  0  0  0  0  0
   57.7470   33.2320   46.6910 C   0  0  0  0  0  0  0  0  0  0  0  0
   58.2400   33.2040   45.3060 N   0  0  0  0  0  0  0  0  0  0  0  0
   57.7010   32.2680   44.3530 C   0  0  0  0  0  0  0  0  0  0  0  0
   57.8070   32.5190   42.9730 C   0  0  0  0  0  0  0  0  0  0  0  0
   57.2710   31.6170   42.0480 C   0  0  0  0  0  0  0  0  0  0  0  0
   56.6230   30.4610   42.4910 C   0  0  0  0  0  0  0  0  0  0  0  0
   56.5070   30.2070   43.8600 C   0  0  0  0  0  0  0  0  0  0  0  0
   57.0410   31.1060   44.7880 C   0  0  0  0  0  0  0  0  0  0  0  0
   59.3510   34.0840   44.9090 C   0  0  0  0  0  0  0  0  0  0  0  0
   59.9230   34.8490   46.1090 C   0  0  0  0  0  0  0  0  0  0  0  0
   59.9632   33.8546   52.0929 H   0  0  0  0  0  0  0  0  0  0  0  0
   58.5904   33.3351   51.0575 H   0  0  0  0  0  0  0  0  0  0  0  0
   60.1213   32.3953   51.0575 H   0  0  0  0  0  0  0  0  0  0  0  0
   62.6695   33.8926   51.0956 H   0  0  0  0  0  0  0  0  0  0  0  0
   64.7382   33.4763   49.7685 H   0  0  0  0  0  0  0  0  0  0  0  0
   64.6169   33.3003   47.2836 H   0  0  0  0  0  0  0  0  0  0  0  0
   62.4253   33.5332   46.1198 H   0  0  0  0  0  0  0  0  0  0  0  0
   59.2607   32.0398   47.6587 H   0  0  0  0  0  0  0  0  0  0  0  0
   58.5889   33.3877   48.6617 H   0  0  0  0  0  0  0  0  0  0  0  0
   57.0420   32.4019   46.8454 H   0  0  0  0  0  0  0  0  0  0  0  0
   57.2366   34.1883   46.8777 H   0  0  0  0  0  0  0  0  0  0  0  0
   58.3139   33.4290   42.6196 H   0  0  0  0  0  0  0  0  0  0  0  0
   57.3597   31.8180   40.9702 H   0  0  0  0  0  0  0  0  0  0  0  0
   56.2044   29.7513   41.7623 H   0  0  0  0  0  0  0  0  0  0  0  0
   55.9946   29.2981   44.2083 H   0  0  0  0  0  0  0  0  0  0  0  0
   56.9440   30.9027   45.8647 H   0  0  0  0  0  0  0  0  0  0  0  0
   60.1488   33.4722   44.4627 H   0  0  0  0  0  0  0  0  0  0  0  0
   58.9665   34.8177   44.1853 H   0  0  0  0  0  0  0  0  0  0  0  0
   60.9153   35.2458   45.8487 H   0  0  0  0  0  0  0  0  0  0  0  0
   59.2459   35.6771   46.3656 H   0  0  0  0  0  0  0  0  0  0  0  0
  1  2  1  0
  2  3  1  0
  3  4  2  0
  4  5  1  0
  5  6  2  0
  6  7  1  0
  7  8  2  0
  8  9  1  0
  9 10  1  0
 10 11  1  0
 11 12  1  0
 12 13  1  0
 13 14  2  0
 14 15  1  0
 15 16  2  0
 16 17  1  0
 17 18  2  0
 12 19  1  0
 19 20  1  0
  8  3  1  0
 20  9  1  0
 18 13  1  0
  1 21  1  0
  1 22  1  0
  1 23  1  0
  4 24  1  0
  5 25  1  0
  6 26  1  0
  7 27  1  0
 10 28  1  0
 10 29  1  0
 11 30  1  0
 11 31  1  0
 14 32  1  0
 15 33  1  0
 16 34  1  0
 17 35  1  0
 18 36  1  0
 19 37  1  0
 19 38  1  0
 20 39  1  0
 20 40  1  0
M  END
>  <UniqueID>  (79) 
76

>  <SMILES>  (79) 
COc1ccccc1N1CCN(c2ccccc2)CC1

>  <Energy>  (79) 
50.814883714545395

>  <Genealogy>  (79) 
COc1ccccc1N1CCN(c2ccccc2)CC1 (3D coordinates assigned)
COc1ccccc1N1CCN(c2ccccc2)CC1 (nonaromatic ring conformer: 50.814883714545395 kcal/mol)

>  <smiles>  (79) 
COc1ccccc1N1CCN(c2ccccc2)CC1

>  <score_type>  (79) 
oracle

>  <origin>  (79) 
adg

>  <m_score__min__energy>  (79) 
-7

>  <m_primary>  (79) 
energy

$$$$
79:0
     RDKit          3D

 30 32  0  0  0  0  0  0  0  0999 V2000
   57.9180   33.8850   45.8480 C   0  0  0  0  0  0  0  0  0  0  0  0
   58.2330   33.4270   44.4280 C   0  0  0  0  0  0  0  0  0  0  0  0
   58.3920   32.0100   44.3790 O   0  0  0  0  0  0  0  0  0  0  0  0
   57.3950   31.1080   44.7680 C   0  0  0  0  0  0  0  0  0  0  0  0
   56.1860   31.4650   44.8090 O   0  0  0  0  0  0  0  0  0  0  0  0
   57.7650   29.7330   45.1230 C   0  0  0  0  0  0  0  0  0  0  0  0
   56.8890   28.6990   45.4220 C   0  0  0  0  0  0  0  0  0  0  0  0
   57.6290   27.6000   45.6960 N   0  0  0  0  0  0  0  0  0  0  0  0
   58.9120   27.9920   45.5570 C   0  0  0  0  0  0  0  0  0  0  0  0
   59.0350   29.2870   45.2090 N   0  0  0  0  0  0  0  0  0  0  0  0
   59.9560   27.0940   45.7700 C   0  0  0  0  0  0  0  0  0  0  0  0
   61.1580   27.4470   45.6440 O   0  0  0  0  0  0  0  0  0  0  0  0
   59.6480   25.8160   46.1190 N   0  0  0  0  0  0  0  0  0  0  0  0
   58.3540   25.4020   46.2630 C   0  0  0  0  0  0  0  0  0  0  0  0
   58.0840   24.0790   46.6230 C   0  0  0  0  0  0  0  0  0  0  0  0
   56.7660   23.6490   46.7720 C   0  0  0  0  0  0  0  0  0  0  0  0
   55.7090   24.5380   46.5620 C   0  0  0  0  0  0  0  0  0  0  0  0
   55.9550   25.8680   46.2010 C   0  0  0  0  0  0  0  0  0  0  0  0
   54.8660   26.7070   46.0060 O   0  0  0  0  0  0  0  0  0  0  0  0
   57.2870   26.3200   46.0450 C   0  0  0  0  0  0  0  0  0  0  0  0
   58.3895   33.1994   46.5675 H   0  0  0  0  0  0  0  0  0  0  0  0
   58.3086   34.9019   46.0004 H   0  0  0  0  0  0  0  0  0  0  0  0
   56.8286   33.8840   46.0004 H   0  0  0  0  0  0  0  0  0  0  0  0
   57.4081   33.7211   43.7623 H   0  0  0  0  0  0  0  0  0  0  0  0
   59.1719   33.8997   44.1039 H   0  0  0  0  0  0  0  0  0  0  0  0
   55.7909   28.7617   45.4341 H   0  0  0  0  0  0  0  0  0  0  0  0
   59.9150   29.8250   45.0430 H   0  0  0  0  0  0  0  0  0  0  0  0
   58.9130   23.3753   46.7892 H   0  0  0  0  0  0  0  0  0  0  0  0
   56.5579   22.6068   47.0557 H   0  0  0  0  0  0  0  0  0  0  0  0
   54.6726   24.1893   46.6816 H   0  0  0  0  0  0  0  0  0  0  0  0
  1  2  1  0
  2  3  1  0
  3  4  1  0
  4  5  2  0
  4  6  1  0
  6  7  2  0
  7  8  1  0
  8  9  1  0
  9 10  2  0
  9 11  1  0
 11 12  2  0
 11 13  1  0
 13 14  1  0
 14 15  2  0
 15 16  1  0
 16 17  2  0
 17 18  1  0
 18 19  1  0
 18 20  2  0
 10  6  1  0
 20 14  1  0
 20  8  1  0
  1 21  1  0
  1 22  1  0
  1 23  1  0
  2 24  1  0
  2 25  1  0
  7 26  1  0
 10 27  1  0
 15 28  1  0
 16 29  1  0
 17 30  1  0
M  CHG  3  10   1  13  -1  19  -1
M  END
>  <UniqueID>  (80) 
77

>  <SMILES>  (80) 
CCOC(=O)c1cn2c([nH+]1)c(=O)[n-]c1cccc([O-])c12

>  <Energy>  (80) 
71.99174521171462

>  <Genealogy>  (80) 
CCOC(=O)c1cn2c([nH+]1)c(=O)[n-]c1cccc([O-])c12 (protonated)
CCOC(=O)c1cn2c([nH+]1)c(=O)[n-]c1cccc([O-])c12 (3D coordinates assigned)
CCOC(=O)c1cn2c([nH+]1)c(=O)[n-]c1cccc([O-])c12 (optimized conformer: 71.99174521171462 kcal/mol)

>  <smiles>  (80) 
CCOC(=O)c1cn2c(n1)c(=O)[nH]c1cccc(O)c12

>  <score_type>  (80) 
oracle

>  <origin>  (80) 
adg

>  <m_score__min__energy>  (80) 
-8.9700000000000006

>  <m_primary>  (80) 
energy

$$$$
80:0
     RDKit          3D

 33 34  0  0  0  0  0  0  0  0999 V2000
   55.1320   29.3500   44.8940 O   0  0  0  0  0  0  0  0  0  0  0  0
   56.3420   29.6680   44.7430 C   0  0  0  0  0  0  0  0  0  0  0  0
   56.6580   31.0020   44.3250 N   0  0  0  0  0  0  0  0  0  0  0  0
   57.4570   31.9430   45.0560 C   0  0  0  0  0  0  0  0  0  0  0  0
   58.1900   31.4940   46.1620 C   0  0  0  0  0  0  0  0  0  0  0  0
   58.9590   32.3890   46.9120 C   0  0  0  0  0  0  0  0  0  0  0  0
   58.9870   33.7460   46.5710 C   0  0  0  0  0  0  0  0  0  0  0  0
   59.9500   34.8690   47.5130 Cl  0  0  0  0  0  0  0  0  0  0  0  0
   58.2360   34.2060   45.4840 C   0  0  0  0  0  0  0  0  0  0  0  0
   57.4670   33.3120   44.7330 C   0  0  0  0  0  0  0  0  0  0  0  0
   57.3810   28.7260   45.0500 N   0  0  0  0  0  0  0  0  0  0  0  0
   57.1080   27.3200   45.3630 C   0  0  0  0  0  0  0  0  0  0  0  0
   57.7740   26.4120   44.3000 C   0  0  0  0  0  0  0  0  0  0  0  0
   58.0810   25.0220   44.8650 C   0  0  0  0  0  0  0  0  0  0  0  0
   59.0720   25.0950   46.0440 C   0  0  0  0  0  0  0  0  0  0  0  0
   58.9860   26.4150   46.8370 C   0  0  0  0  0  0  0  0  0  0  0  0
   57.5710   27.0020   46.8070 C   0  0  0  0  0  0  0  0  0  0  0  0
   58.1604   30.4307   46.4422 H   0  0  0  0  0  0  0  0  0  0  0  0
   59.5426   32.0262   47.7709 H   0  0  0  0  0  0  0  0  0  0  0  0
   58.2506   35.2736   45.2196 H   0  0  0  0  0  0  0  0  0  0  0  0
   56.8680   33.6803   43.8871 H   0  0  0  0  0  0  0  0  0  0  0  0
   58.3460   29.0920   45.2150 H   0  0  0  0  0  0  0  0  0  0  0  0
   56.0266   27.1221   45.3252 H   0  0  0  0  0  0  0  0  0  0  0  0
   57.0937   26.3072   43.4420 H   0  0  0  0  0  0  0  0  0  0  0  0
   58.7219   26.8775   43.9922 H   0  0  0  0  0  0  0  0  0  0  0  0
   57.1440   24.5636   45.2141 H   0  0  0  0  0  0  0  0  0  0  0  0
   58.5394   24.4196   44.0669 H   0  0  0  0  0  0  0  0  0  0  0  0
   58.8594   24.2618   46.7300 H   0  0  0  0  0  0  0  0  0  0  0  0
   60.0853   25.0369   45.6199 H   0  0  0  0  0  0  0  0  0  0  0  0
   59.2701   26.2224   47.8821 H   0  0  0  0  0  0  0  0  0  0  0  0
   59.6686   27.1407   46.3707 H   0  0  0  0  0  0  0  0  0  0  0  0
   56.8751   26.2754   47.2517 H   0  0  0  0  0  0  0  0  0  0  0  0
   57.5800   27.9427   47.3771 H   0  0  0  0  0  0  0  0  0  0  0  0
  1  2  2  0
  2  3  1  0
  3  4  1  0
  4  5  2  0
  5  6  1  0
  6  7  2  0
  7  8  1  0
  7  9  1  0
  9 10  2  0
  2 11  1  0
 11 12  1  0
 12 13  1  0
 13 14  1  0
 14 15  1  0
 15 16  1  0
 16 17  1  0
 10  4  1  0
 17 12  1  0
  5 18  1  0
  6 19  1  0
  9 20  1  0
 10 21  1  0
 11 22  1  0
 12 23  1  0
 13 24  1  0
 13 25  1  0
 14 26  1  0
 14 27  1  0
 15 28  1  0
 15 29  1  0
 16 30  1  0
 16 31  1  0
 17 32  1  0
 17 33  1  0
M  CHG  1   3  -1
M  END
>  <UniqueID>  (81) 
78

>  <SMILES>  (81) 
O=C([N-]c1ccc(Cl)cc1)NC1CCCCC1

>  <Energy>  (81) 
36.31546566902033

>  <Genealogy>  (81) 
O=C([N-]c1ccc(Cl)cc1)NC1CCCCC1 (protonated)
O=C([N-]c1ccc(Cl)cc1)NC1CCCCC1 (3D coordinates assigned)
O=C([N-]c1ccc(Cl)cc1)NC1CCCCC1 (nonaromatic ring conformer: 36.31546566902033 kcal/mol)

>  <smiles>  (81) 
O=C(Nc1ccc(Cl)cc1)NC1CCCCC1

>  <score_type>  (81) 
oracle

>  <origin>  (81) 
adg

>  <m_score__min__energy>  (81) 
-8.6199999999999992

>  <m_primary>  (81) 
energy

$$$$
81:0
     RDKit          3D

 37 38  0  0  0  0  0  0  0  0999 V2000
   59.6440   33.5390   49.1850 C   0  0  0  0  0  0  0  0  0  0  0  0
   58.5280   33.2410   48.3520 O   0  0  0  0  0  0  0  0  0  0  0  0
   58.5340   33.3450   46.9530 C   0  0  0  0  0  0  0  0  0  0  0  0
   59.0850   34.4530   46.2810 C   0  0  0  0  0  0  0  0  0  0  0  0
   59.0690   34.5060   44.8840 C   0  0  0  0  0  0  0  0  0  0  0  0
   58.5050   33.4620   44.1480 C   0  0  0  0  0  0  0  0  0  0  0  0
   57.9470   32.3590   44.8060 C   0  0  0  0  0  0  0  0  0  0  0  0
   57.2570   31.0210   43.8890 S   0  0  0  0  0  0  0  0  0  0  0  0
   57.0090   31.4510   42.4680 O   0  0  0  0  0  0  0  0  0  0  0  0
   55.9420   30.6390   44.5090 O   0  0  0  0  0  0  0  0  0  0  0  0
   58.3450   29.6540   43.9180 N   0  0  0  0  0  0  0  0  0  0  0  0
   57.5670   28.3950   43.9910 C   0  0  0  0  0  0  0  0  0  0  0  0
   58.4260   27.2370   44.5190 C   0  0  0  0  0  0  0  0  0  0  0  0
   58.9520   27.5010   45.8830 N   0  0  0  0  0  0  0  0  0  0  0  0
   58.1990   26.7540   46.9020 C   0  0  0  0  0  0  0  0  0  0  0  0
   59.0030   28.9390   46.2320 C   0  0  0  0  0  0  0  0  0  0  0  0
   59.3470   29.7980   45.0070 C   0  0  0  0  0  0  0  0  0  0  0  0
   57.9690   32.3040   46.2060 C   0  0  0  0  0  0  0  0  0  0  0  0
   59.3453   33.4592   50.2406 H   0  0  0  0  0  0  0  0  0  0  0  0
   60.4561   32.8262   48.9789 H   0  0  0  0  0  0  0  0  0  0  0  0
   59.9927   34.5617   48.9789 H   0  0  0  0  0  0  0  0  0  0  0  0
   59.5290   35.2787   46.8565 H   0  0  0  0  0  0  0  0  0  0  0  0
   59.5020   35.3727   44.3631 H   0  0  0  0  0  0  0  0  0  0  0  0
   58.4990   33.5061   43.0489 H   0  0  0  0  0  0  0  0  0  0  0  0
   58.8580   29.6640   43.0050 H   0  0  0  0  0  0  0  0  0  0  0  0
   56.7104   28.5419   44.6653 H   0  0  0  0  0  0  0  0  0  0  0  0
   57.2254   28.1392   42.9772 H   0  0  0  0  0  0  0  0  0  0  0  0
   57.8115   26.3251   44.5473 H   0  0  0  0  0  0  0  0  0  0  0  0
   59.2863   27.1211   43.8434 H   0  0  0  0  0  0  0  0  0  0  0  0
   58.5214   27.0738   47.9039 H   0  0  0  0  0  0  0  0  0  0  0  0
   57.1237   26.9524   46.7821 H   0  0  0  0  0  0  0  0  0  0  0  0
   58.3888   25.6772   46.7821 H   0  0  0  0  0  0  0  0  0  0  0  0
   58.0222   29.2480   46.6224 H   0  0  0  0  0  0  0  0  0  0  0  0
   59.7869   29.0850   46.9898 H   0  0  0  0  0  0  0  0  0  0  0  0
   59.3860   30.8534   45.3146 H   0  0  0  0  0  0  0  0  0  0  0  0
   60.3179   29.4569   44.6185 H   0  0  0  0  0  0  0  0  0  0  0  0
   57.5381   31.4342   46.7235 H   0  0  0  0  0  0  0  0  0  0  0  0
  1  2  1  0
  2  3  1  0
  3  4  2  0
  4  5  1  0
  5  6  2  0
  6  7  1  0
  7  8  1  0
  8  9  2  0
  8 10  2  0
  8 11  1  0
 11 12  1  0
 12 13  1  0
 13 14  1  0
 14 15  1  0
 14 16  1  0
 16 17  1  0
  7 18  2  0
 18  3  1  0
 17 11  1  0
  1 19  1  0
  1 20  1  0
  1 21  1  0
  4 22  1  0
  5 23  1  0
  6 24  1  0
 11 25  1  0
 12 26  1  0
 12 27  1  0
 13 28  1  0
 13 29  1  0
 15 30  1  0
 15 31  1  0
 15 32  1  0
 16 33  1  0
 16 34  1  0
 17 35  1  0
 17 36  1  0
 18 37  1  0
M  CHG  1  11   1
M  END
>  <UniqueID>  (82) 
79

>  <SMILES>  (82) 
COc1cccc(S(=O)(=O)[NH+]2CCN(C)CC2)c1

>  <Energy>  (82) 
45.070273938845965

>  <Genealogy>  (82) 
COc1cccc(S(=O)(=O)[NH+]2CCN(C)CC2)c1 (protonated)
COc1cccc(S(=O)(=O)[NH+]2CCN(C)CC2)c1 (3D coordinates assigned)
COc1cccc(S(=O)(=O)[NH+]2CCN(C)CC2)c1 (nonaromatic ring conformer: 45.070273938845965 kcal/mol)

>  <smiles>  (82) 
COc1cccc(S(=O)(=O)N2CCN(C)CC2)c1

>  <score_type>  (82) 
oracle

>  <origin>  (82) 
adg

>  <m_score__min__energy>  (82) 
-5.6399999999999997

>  <m_primary>  (82) 
energy

$$$$
82:0
     RDKit          3D

 39 41  0  0  0  0  0  0  0  0999 V2000
   57.0900   27.7870   45.9520 C   0  0  0  0  0  0  0  0  0  0  0  0
   57.0400   29.1340   45.3080 C   0  0  0  0  0  0  0  0  0  0  0  0
   55.9350   29.7200   44.9110 O   0  0  0  0  0  0  0  0  0  0  0  0
   56.1800   30.9000   44.4180 N   0  0  0  0  0  0  0  0  0  0  0  0
   57.5130   31.0940   44.4800 C   0  0  0  0  0  0  0  0  0  0  0  0
   58.1530   32.4150   44.1710 C   0  0  0  0  0  0  0  0  0  0  0  0
   57.8070   33.5910   45.4650 S   0  0  0  0  0  0  0  0  0  0  0  0
   56.6390   33.1150   46.2840 O   0  0  0  0  0  0  0  0  0  0  0  0
   57.4520   34.9170   44.8520 O   0  0  0  0  0  0  0  0  0  0  0  0
   59.2220   33.7840   46.4940 C   0  0  0  0  0  0  0  0  0  0  0  0
   59.0630   33.9730   47.8750 C   0  0  0  0  0  0  0  0  0  0  0  0
   60.1820   34.1570   48.6910 C   0  0  0  0  0  0  0  0  0  0  0  0
   61.4640   34.1610   48.1330 C   0  0  0  0  0  0  0  0  0  0  0  0
   61.6270   33.9800   46.7560 C   0  0  0  0  0  0  0  0  0  0  0  0
   60.5090   33.7930   45.9370 C   0  0  0  0  0  0  0  0  0  0  0  0
   58.1060   29.9750   45.0530 C   0  0  0  0  0  0  0  0  0  0  0  0
   59.5220   29.7460   45.4060 C   0  0  0  0  0  0  0  0  0  0  0  0
   60.2830   29.2260   44.5460 O   0  0  0  0  0  0  0  0  0  0  0  0
   60.0800   30.1350   46.7210 C   0  0  0  0  0  0  0  0  0  0  0  0
   59.2670   30.1610   47.8690 C   0  0  0  0  0  0  0  0  0  0  0  0
   59.8030   30.5350   49.1060 C   0  0  0  0  0  0  0  0  0  0  0  0
   61.1500   30.8950   49.2070 C   0  0  0  0  0  0  0  0  0  0  0  0
   61.8210   31.3610   50.7600 Cl  0  0  0  0  0  0  0  0  0  0  0  0
   61.9610   30.8890   48.0680 C   0  0  0  0  0  0  0  0  0  0  0  0
   61.4280   30.5180   46.8300 C   0  0  0  0  0  0  0  0  0  0  0  0
   57.0857   27.9032   47.0458 H   0  0  0  0  0  0  0  0  0  0  0  0
   56.2130   27.1997   45.6422 H   0  0  0  0  0  0  0  0  0  0  0  0
   58.0081   27.2663   45.6422 H   0  0  0  0  0  0  0  0  0  0  0  0
   59.2413   32.2794   44.0860 H   0  0  0  0  0  0  0  0  0  0  0  0
   57.7444   32.7965   43.2236 H   0  0  0  0  0  0  0  0  0  0  0  0
   58.0554   33.9763   48.3162 H   0  0  0  0  0  0  0  0  0  0  0  0
   60.0542   34.2990   49.7743 H   0  0  0  0  0  0  0  0  0  0  0  0
   62.3439   34.3065   48.7769 H   0  0  0  0  0  0  0  0  0  0  0  0
   62.6354   33.9847   46.3167 H   0  0  0  0  0  0  0  0  0  0  0  0
   60.6393   33.6527   44.8538 H   0  0  0  0  0  0  0  0  0  0  0  0
   58.2046   29.8859   47.7936 H   0  0  0  0  0  0  0  0  0  0  0  0
   59.1633   30.5458   50.0008 H   0  0  0  0  0  0  0  0  0  0  0  0
   63.0199   31.1766   48.1462 H   0  0  0  0  0  0  0  0  0  0  0  0
   62.0678   30.5259   45.9352 H   0  0  0  0  0  0  0  0  0  0  0  0
  1  2  1  0
  2  3  1  0
  3  4  1  0
  4  5  2  0
  5  6  1  0
  6  7  1  0
  7  8  2  0
  7  9  2  0
  7 10  1  0
 10 11  2  0
 11 12  1  0
 12 13  2  0
 13 14  1  0
 14 15  2  0
  5 16  1  0
 16 17  1  0
 17 18  2  0
 17 19  1  0
 19 20  2  0
 20 21  1  0
 21 22  2  0
 22 23  1  0
 22 24  1  0
 24 25  2  0
 16  2  2  0
 25 19  1  0
 15 10  1  0
  1 26  1  0
  1 27  1  0
  1 28  1  0
  6 29  1  0
  6 30  1  0
 11 31  1  0
 12 32  1  0
 13 33  1  0
 14 34  1  0
 15 35  1  0
 20 36  1  0
 21 37  1  0
 24 38  1  0
 25 39  1  0
M  END
>  <UniqueID>  (83) 
80

>  <SMILES>  (83) 
Cc1onc(CS(=O)(=O)c2ccccc2)c1C(=O)c1ccc(Cl)cc1

>  <Energy>  (83) 
69.88563503892688

>  <Genealogy>  (83) 
Cc1onc(CS(=O)(=O)c2ccccc2)c1C(=O)c1ccc(Cl)cc1 (3D coordinates assigned)
Cc1onc(CS(=O)(=O)c2ccccc2)c1C(=O)c1ccc(Cl)cc1 (optimized conformer: 69.88563503892688 kcal/mol)

>  <smiles>  (83) 
Cc1onc(CS(=O)(=O)c2ccccc2)c1C(=O)c1ccc(Cl)cc1

>  <score_type>  (83) 
oracle

>  <origin>  (83) 
adg

>  <m_score__min__energy>  (83) 
-8.6999999999999993

>  <m_primary>  (83) 
energy

$$$$
83:0
     RDKit          3D

 32 33  0  0  0  0  0  0  0  0999 V2000
   54.3770   26.7150   45.0680 H   0  0  0  0  0  0  0  0  0  0  0  0
   54.4040   26.1480   45.8810 O   0  0  0  0  0  0  0  0  0  0  0  0
   55.7450   25.7930   46.0870 C   0  0  0  0  0  0  0  0  0  0  0  0
   55.9622   24.8681   45.5326 H   0  0  0  0  0  0  0  0  0  0  0  0
   55.9075   25.6416   47.1643 H   0  0  0  0  0  0  0  0  0  0  0  0
   56.6830   26.9010   45.6010 C   0  0  0  0  0  0  0  0  0  0  0  0
   57.2185   26.5515   44.7060 H   0  0  0  0  0  0  0  0  0  0  0  0
   57.3921   27.1374   46.4081 H   0  0  0  0  0  0  0  0  0  0  0  0
   55.9370   28.1140   45.2680 N   0  0  0  0  0  0  0  0  0  0  0  0
   56.4790   29.2700   45.0340 C   0  0  0  0  0  0  0  0  0  0  0  0
   57.2610   29.9320   45.9150 N   0  0  0  0  0  0  0  0  0  0  0  0
   57.6990   31.1200   45.4130 C   0  0  0  0  0  0  0  0  0  0  0  0
   58.5620   32.0260   46.2160 C   0  0  0  0  0  0  0  0  0  0  0  0
   59.2670   31.5180   47.3190 C   0  0  0  0  0  0  0  0  0  0  0  0
   59.1722   30.4541   47.5818 H   0  0  0  0  0  0  0  0  0  0  0  0
   60.0860   32.3470   48.0850 C   0  0  0  0  0  0  0  0  0  0  0  0
   60.6266   31.9317   48.9483 H   0  0  0  0  0  0  0  0  0  0  0  0
   60.2270   33.7060   47.7650 C   0  0  0  0  0  0  0  0  0  0  0  0
   61.1160   34.5760   48.6160 C   0  0  0  0  0  0  0  0  0  0  0  0
   60.9138   34.3781   49.6790 H   0  0  0  0  0  0  0  0  0  0  0  0
   62.1697   34.3505   48.3951 H   0  0  0  0  0  0  0  0  0  0  0  0
   60.9134   35.6344   48.3951 H   0  0  0  0  0  0  0  0  0  0  0  0
   59.5210   34.2350   46.6610 C   0  0  0  0  0  0  0  0  0  0  0  0
   59.6490   35.6860   46.2760 C   0  0  0  0  0  0  0  0  0  0  0  0
   59.7034   36.3031   47.1850 H   0  0  0  0  0  0  0  0  0  0  0  0
   60.5632   35.8282   45.6810 H   0  0  0  0  0  0  0  0  0  0  0  0
   58.7738   35.9861   45.6810 H   0  0  0  0  0  0  0  0  0  0  0  0
   58.7030   33.3880   45.8920 C   0  0  0  0  0  0  0  0  0  0  0  0
   58.1651   33.7966   45.0238 H   0  0  0  0  0  0  0  0  0  0  0  0
   57.2530   31.3960   44.1150 C   0  0  0  0  0  0  0  0  0  0  0  0
   57.4899   32.2979   43.5315 H   0  0  0  0  0  0  0  0  0  0  0  0
   56.2930   30.1140   43.5990 S   0  0  0  0  0  0  0  0  0  0  0  0
  1  2  1  0
  2  3  1  0
  3  4  1  0
  3  5  1  0
  3  6  1  0
  6  7  1  0
  6  8  1  0
  6  9  1  0
  9 10  2  0
 10 11  1  0
 11 12  1  0
 12 13  1  0
 13 14  2  0
 14 15  1  0
 14 16  1  0
 16 17  1  0
 16 18  2  0
 18 19  1  0
 19 20  1  0
 19 21  1  0
 19 22  1  0
 18 23  1  0
 23 24  1  0
 24 25  1  0
 24 26  1  0
 24 27  1  0
 23 28  2  0
 28 29  1  0
 12 30  2  0
 30 31  1  0
 30 32  1  0
 32 10  1  0
 28 13  1  0
M  CHG  1  11  -1
M  END
>  <UniqueID>  (84) 
81

>  <SMILES>  (84) 
Cc1ccc(-c2cs/c(=N/CCO)[n-]2)cc1C

>  <Energy>  (84) 
62.23388285994716

>  <Genealogy>  (84) 
Cc1ccc(-c2csc(=NCCO)[n-]2)cc1C (protonated)
Cc1ccc(-c2cs/c(=N/CCO)[n-]2)cc1C (cis-trans isomerization)
Cc1ccc(-c2cs/c(=N/CCO)[n-]2)cc1C (3D coordinates assigned)
Cc1ccc(-c2cs/c(=N/CCO)[n-]2)cc1C (optimized conformer: 62.23388285994716 kcal/mol)

>  <smiles>  (84) 
Cc1ccc(-c2csc(=NCCO)[nH]2)cc1C

>  <score_type>  (84) 
oracle

>  <origin>  (84) 
adg

>  <m_score__min__energy>  (84) 
-9.3499999999999996

>  <m_primary>  (84) 
energy

$$$$
84:0
     RDKit          3D

 32 34  0  0  0  0  0  0  0  0999 V2000
   57.5960   28.5460   43.2070 O   0  0  0  0  0  0  0  0  0  0  0  0
   56.8910   29.4410   44.1870 S   0  0  0  0  0  0  0  0  0  0  0  0
   56.0010   30.3900   43.4350 O   0  0  0  0  0  0  0  0  0  0  0  0
   55.9220   28.4660   45.2440 N   0  0  0  0  0  0  0  0  0  0  0  0
   56.2770   27.2840   45.6400 C   0  0  0  0  0  0  0  0  0  0  0  0
   55.4090   26.3320   46.0520 N   0  0  0  0  0  0  0  0  0  0  0  0
   56.0570   25.1910   46.4020 C   0  0  0  0  0  0  0  0  0  0  0  0
   57.4410   25.2330   46.2700 C   0  0  0  0  0  0  0  0  0  0  0  0
   57.8680   26.7560   45.6920 S   0  0  0  0  0  0  0  0  0  0  0  0
   58.0560   30.3700   45.1260 C   0  0  0  0  0  0  0  0  0  0  0  0
   59.1590   29.7300   45.7010 C   0  0  0  0  0  0  0  0  0  0  0  0
   60.0930   30.4610   46.4400 C   0  0  0  0  0  0  0  0  0  0  0  0
   59.9330   31.8470   46.6200 C   0  0  0  0  0  0  0  0  0  0  0  0
   60.9250   32.6260   47.4030 C   0  0  0  0  0  0  0  0  0  0  0  0
   62.3020   32.5090   47.1320 C   0  0  0  0  0  0  0  0  0  0  0  0
   63.2340   33.2440   47.8710 C   0  0  0  0  0  0  0  0  0  0  0  0
   62.8050   34.1010   48.8870 C   0  0  0  0  0  0  0  0  0  0  0  0
   61.4420   34.2250   49.1660 C   0  0  0  0  0  0  0  0  0  0  0  0
   60.5050   33.4940   48.4290 C   0  0  0  0  0  0  0  0  0  0  0  0
   58.8170   32.4830   46.0440 C   0  0  0  0  0  0  0  0  0  0  0  0
   57.8850   31.7490   45.3050 C   0  0  0  0  0  0  0  0  0  0  0  0
   55.5258   24.2982   46.7637 H   0  0  0  0  0  0  0  0  0  0  0  0
   58.1364   24.4131   46.5029 H   0  0  0  0  0  0  0  0  0  0  0  0
   59.2918   28.6458   45.5708 H   0  0  0  0  0  0  0  0  0  0  0  0
   60.9594   29.9490   46.8841 H   0  0  0  0  0  0  0  0  0  0  0  0
   62.6465   31.8351   46.3338 H   0  0  0  0  0  0  0  0  0  0  0  0
   64.3076   33.1471   47.6517 H   0  0  0  0  0  0  0  0  0  0  0  0
   63.5402   34.6780   49.4672 H   0  0  0  0  0  0  0  0  0  0  0  0
   61.1049   34.8991   49.9672 H   0  0  0  0  0  0  0  0  0  0  0  0
   59.4329   33.5978   48.6523 H   0  0  0  0  0  0  0  0  0  0  0  0
   58.6774   33.5660   46.1765 H   0  0  0  0  0  0  0  0  0  0  0  0
   57.0146   32.2556   44.8626 H   0  0  0  0  0  0  0  0  0  0  0  0
  1  2  2  0
  2  3  2  0
  2  4  1  0
  4  5  2  3
  5  6  1  0
  6  7  1  0
  7  8  2  0
  8  9  1  0
  2 10  1  0
 10 11  2  0
 11 12  1  0
 12 13  2  0
 13 14  1  0
 14 15  2  0
 15 16  1  0
 16 17  2  0
 17 18  1  0
 18 19  2  0
 13 20  1  0
 20 21  2  0
  9  5  1  0
 21 10  1  0
 19 14  1  0
  7 22  1  0
  8 23  1  0
 11 24  1  0
 12 25  1  0
 15 26  1  0
 16 27  1  0
 17 28  1  0
 18 29  1  0
 19 30  1  0
 20 31  1  0
 21 32  1  0
M  CHG  1   6  -1
M  END
>  <UniqueID>  (85) 
82

>  <SMILES>  (85) 
O=S(=O)(N=c1[n-]ccs1)c1ccc(-c2ccccc2)cc1

>  <Energy>  (85) 
72.67271698609099

>  <Genealogy>  (85) 
O=S(=O)(N=c1[n-]ccs1)c1ccc(-c2ccccc2)cc1 (protonated)
O=S(=O)(N=c1[n-]ccs1)c1ccc(-c2ccccc2)cc1 (3D coordinates assigned)
O=S(=O)(N=c1[n-]ccs1)c1ccc(-c2ccccc2)cc1 (optimized conformer: 72.67271698609099 kcal/mol)

>  <smiles>  (85) 
O=S(=O)(N=c1[nH]ccs1)c1ccc(-c2ccccc2)cc1

>  <score_type>  (85) 
oracle

>  <origin>  (85) 
adg

>  <m_score__min__energy>  (85) 
-9.5500000000000007

>  <m_primary>  (85) 
energy

$$$$
85:0
     RDKit          3D

 31 34  0  0  0  0  0  0  0  0999 V2000
   55.1960   26.7150   46.0080 O   0  0  0  0  0  0  0  0  0  0  0  0
   56.3980   26.3500   45.9280 C   0  0  0  0  0  0  0  0  0  0  0  0
   57.5920   27.1930   45.7520 C   0  0  0  0  0  0  0  0  0  0  0  0
   57.6390   28.6700   45.6980 C   0  0  0  0  0  0  0  0  0  0  0  0
   58.7250   29.3010   46.2230 N   0  0  0  0  0  0  0  0  0  0  0  0
   58.8430   30.6550   46.2100 C   0  0  0  0  0  0  0  0  0  0  0  0
   59.9740   31.2780   46.7470 C   0  0  0  0  0  0  0  0  0  0  0  0
   60.0890   32.6820   46.7250 C   0  0  0  0  0  0  0  0  0  0  0  0
   61.2500   33.3310   47.2750 N   0  0  0  0  0  0  0  0  0  0  0  0
   61.1440   34.1260   48.2300 O   0  0  0  0  0  0  0  0  0  0  0  0
   62.5010   33.0850   46.7530 O   0  0  0  0  0  0  0  0  0  0  0  0
   59.0510   33.4440   46.1560 C   0  0  0  0  0  0  0  0  0  0  0  0
   57.9200   32.8200   45.6200 C   0  0  0  0  0  0  0  0  0  0  0  0
   57.8130   31.4270   45.6460 C   0  0  0  0  0  0  0  0  0  0  0  0
   56.7170   30.8070   45.1390 N   0  0  0  0  0  0  0  0  0  0  0  0
   56.5970   29.4530   45.1570 C   0  0  0  0  0  0  0  0  0  0  0  0
   55.5430   28.9240   44.7160 O   0  0  0  0  0  0  0  0  0  0  0  0
   58.6550   26.4620   45.5760 N   0  0  0  0  0  0  0  0  0  0  0  0
   58.2340   25.0990   45.6540 C   0  0  0  0  0  0  0  0  0  0  0  0
   59.0360   23.9670   45.5240 C   0  0  0  0  0  0  0  0  0  0  0  0
   58.4190   22.7050   45.6180 C   0  0  0  0  0  0  0  0  0  0  0  0
   57.0270   22.6020   45.8320 C   0  0  0  0  0  0  0  0  0  0  0  0
   56.2400   23.7610   45.9580 C   0  0  0  0  0  0  0  0  0  0  0  0
   56.8830   24.9920   45.8680 C   0  0  0  0  0  0  0  0  0  0  0  0
   60.7770   30.6694   47.1883 H   0  0  0  0  0  0  0  0  0  0  0  0
   59.1303   34.5409   46.1328 H   0  0  0  0  0  0  0  0  0  0  0  0
   57.1150   33.4255   45.1781 H   0  0  0  0  0  0  0  0  0  0  0  0
   60.1189   24.0567   45.3530 H   0  0  0  0  0  0  0  0  0  0  0  0
   59.0258   21.7924   45.5240 H   0  0  0  0  0  0  0  0  0  0  0  0
   56.5558   21.6104   45.9005 H   0  0  0  0  0  0  0  0  0  0  0  0
   55.1542   23.6967   46.1220 H   0  0  0  0  0  0  0  0  0  0  0  0
  1  2  2  0
  2  3  1  0
  3  4  1  0
  4  5  2  0
  5  6  1  0
  6  7  2  0
  7  8  1  0
  8  9  1  0
  9 10  2  0
  9 11  1  0
  8 12  2  0
 12 13  1  0
 13 14  2  0
 14 15  1  0
 15 16  1  0
 16 17  2  0
  3 18  2  0
 18 19  1  0
 19 20  2  0
 20 21  1  0
 21 22  2  0
 22 23  1  0
 23 24  2  0
 24  2  1  0
 16  4  1  0
 24 19  1  0
 14  6  1  0
  7 25  1  0
 12 26  1  0
 13 27  1  0
 20 28  1  0
 21 29  1  0
 22 30  1  0
 23 31  1  0
M  CHG  3   9   1  11  -1  15  -1
M  END
>  <UniqueID>  (86) 
83

>  <SMILES>  (86) 
O=C1C(c2nc3cc([N+](=O)[O-])ccc3[n-]c2=O)=Nc2ccccc21

>  <Energy>  (86) 
78.33164717316849

>  <Genealogy>  (86) 
O=C1C(c2nc3cc([N+](=O)[O-])ccc3[n-]c2=O)=Nc2ccccc21 (protonated)
O=C1C(c2nc3cc([N+](=O)[O-])ccc3[n-]c2=O)=Nc2ccccc21 (3D coordinates assigned)
O=C1C(c2nc3cc([N+](=O)[O-])ccc3[n-]c2=O)=Nc2ccccc21 (nonaromatic ring conformer: 78.33164717316849 kcal/mol)

>  <smiles>  (86) 
O=C1C(c2nc3cc([N+](=O)[O-])ccc3[nH]c2=O)=Nc2ccccc21

>  <score_type>  (86) 
oracle

>  <origin>  (86) 
adg

>  <m_score__min__energy>  (86) 
-9.6500000000000004

>  <m_primary>  (86) 
energy

$$$$
86:0
     RDKit          3D

 41 43  0  0  0  0  0  0  0  0999 V2000
   61.2240   29.6770   45.4570 O   0  0  0  0  0  0  0  0  0  0  0  0
   60.2290   29.9170   46.1950 C   0  0  0  0  0  0  0  0  0  0  0  0
   60.2300   31.0740   47.0470 N   0  0  0  0  0  0  0  0  0  0  0  0
   61.4090   31.8260   47.3810 C   0  0  0  0  0  0  0  0  0  0  0  0
   62.3190   31.3030   48.3130 C   0  0  0  0  0  0  0  0  0  0  0  0
   63.4830   32.0070   48.6380 C   0  0  0  0  0  0  0  0  0  0  0  0
   63.7550   33.2310   48.0230 C   0  0  0  0  0  0  0  0  0  0  0  0
   62.8670   33.7510   47.0770 C   0  0  0  0  0  0  0  0  0  0  0  0
   61.7010   33.0510   46.7500 C   0  0  0  0  0  0  0  0  0  0  0  0
   59.0590   29.0060   46.1740 C   0  0  0  0  0  0  0  0  0  0  0  0
   58.9730   27.9930   47.1470 C   0  0  0  0  0  0  0  0  0  0  0  0
   57.9300   27.0680   47.1220 C   0  0  0  0  0  0  0  0  0  0  0  0
   56.9570   27.1400   46.1270 C   0  0  0  0  0  0  0  0  0  0  0  0
   57.0180   28.1420   45.1580 C   0  0  0  0  0  0  0  0  0  0  0  0
   58.0620   29.0860   45.1680 C   0  0  0  0  0  0  0  0  0  0  0  0
   58.0740   30.1540   44.2020 N   0  0  0  0  0  0  0  0  0  0  0  0
   57.1470   31.2850   44.2510 C   0  0  0  0  0  0  0  0  0  0  0  0
   57.7840   32.4490   44.9600 C   0  0  0  0  0  0  0  0  0  0  0  0
   58.5340   33.3880   44.2320 C   0  0  0  0  0  0  0  0  0  0  0  0
   59.0920   34.4950   44.8770 C   0  0  0  0  0  0  0  0  0  0  0  0
   58.9020   34.6770   46.2500 C   0  0  0  0  0  0  0  0  0  0  0  0
   58.1490   33.7500   46.9790 C   0  0  0  0  0  0  0  0  0  0  0  0
   57.5890   32.6410   46.3370 C   0  0  0  0  0  0  0  0  0  0  0  0
   59.3050   31.4460   47.3640 H   0  0  0  0  0  0  0  0  0  0  0  0
   62.1154   30.3333   48.7908 H   0  0  0  0  0  0  0  0  0  0  0  0
   64.1849   31.5962   49.3787 H   0  0  0  0  0  0  0  0  0  0  0  0
   64.6684   33.7861   48.2831 H   0  0  0  0  0  0  0  0  0  0  0  0
   63.0855   34.7123   46.5889 H   0  0  0  0  0  0  0  0  0  0  0  0
   61.0098   33.4585   45.9976 H   0  0  0  0  0  0  0  0  0  0  0  0
   59.7370   27.9302   47.9359 H   0  0  0  0  0  0  0  0  0  0  0  0
   57.8752   26.2808   47.8883 H   0  0  0  0  0  0  0  0  0  0  0  0
   56.1388   26.4050   46.1055 H   0  0  0  0  0  0  0  0  0  0  0  0
   56.2431   28.1947   44.3791 H   0  0  0  0  0  0  0  0  0  0  0  0
   58.7130   30.0880   43.3800 H   0  0  0  0  0  0  0  0  0  0  0  0
   56.8841   31.5839   43.2256 H   0  0  0  0  0  0  0  0  0  0  0  0
   56.2417   30.9834   44.7982 H   0  0  0  0  0  0  0  0  0  0  0  0
   58.6824   33.2513   43.1507 H   0  0  0  0  0  0  0  0  0  0  0  0
   59.6820   35.2248   44.3031 H   0  0  0  0  0  0  0  0  0  0  0  0
   59.3439   35.5477   46.7565 H   0  0  0  0  0  0  0  0  0  0  0  0
   57.9972   33.8938   48.0589 H   0  0  0  0  0  0  0  0  0  0  0  0
   56.9939   31.9168   46.9127 H   0  0  0  0  0  0  0  0  0  0  0  0
  1  2  2  0
  2  3  1  0
  3  4  1  0
  4  5  2  0
  5  6  1  0
  6  7  2  0
  7  8  1  0
  8  9  2  0
  2 10  1  0
 10 11  2  0
 11 12  1  0
 12 13  2  0
 13 14  1  0
 14 15  2  0
 15 16  1  0
 16 17  1  0
 17 18  1  0
 18 19  2  0
 19 20  1  0
 20 21  2  0
 21 22  1  0
 22 23  2  0
  9  4  1  0
 15 10  1  0
 23 18  1  0
  3 24  1  0
  5 25  1  0
  6 26  1  0
  7 27  1  0
  8 28  1  0
  9 29  1  0
 11 30  1  0
 12 31  1  0
 13 32  1  0
 14 33  1  0
 16 34  1  0
 17 35  1  0
 17 36  1  0
 19 37  1  0
 20 38  1  0
 21 39  1  0
 22 40  1  0
 23 41  1  0
M  END
>  <UniqueID>  (87) 
84

>  <SMILES>  (87) 
O=C(Nc1ccccc1)c1ccccc1NCc1ccccc1

>  <Energy>  (87) 
51.9746816415659

>  <Genealogy>  (87) 
O=C(Nc1ccccc1)c1ccccc1NCc1ccccc1 (3D coordinates assigned)
O=C(Nc1ccccc1)c1ccccc1NCc1ccccc1 (optimized conformer: 51.9746816415659 kcal/mol)

>  <smiles>  (87) 
O=C(Nc1ccccc1)c1ccccc1NCc1ccccc1

>  <score_type>  (87) 
oracle

>  <origin>  (87) 
adg

>  <m_score__min__energy>  (87) 
-7.54

>  <m_primary>  (87) 
energy

$$$$
87:0
     RDKit          3D

 52 54  0  0  0  0  0  0  0  0999 V2000
   59.2710   34.7720   45.4370 C   0  0  0  0  0  0  0  0  0  0  0  0
   60.0910   33.6580   45.7730 O   0  0  0  0  0  0  0  0  0  0  0  0
   61.0960   33.6730   46.7550 C   0  0  0  0  0  0  0  0  0  0  0  0
   62.4560   33.8420   46.4210 C   0  0  0  0  0  0  0  0  0  0  0  0
   63.4300   33.8730   47.4210 C   0  0  0  0  0  0  0  0  0  0  0  0
   63.0650   33.7380   48.7600 C   0  0  0  0  0  0  0  0  0  0  0  0
   61.7230   33.5650   49.1060 C   0  0  0  0  0  0  0  0  0  0  0  0
   60.7320   33.5190   48.1100 C   0  0  0  0  0  0  0  0  0  0  0  0
   59.2860   33.3700   48.5100 C   0  0  0  0  0  0  0  0  0  0  0  0
   58.8400   31.9550   48.3020 C   0  0  0  0  0  0  0  0  0  0  0  0
   58.5720   31.2400   49.3050 O   0  0  0  0  0  0  0  0  0  0  0  0
   58.8040   31.4030   46.9750 N   0  0  0  0  0  0  0  0  0  0  0  0
   58.3700   30.0650   46.6730 C   0  0  0  0  0  0  0  0  0  0  0  0
   58.8270   28.9730   47.4320 C   0  0  0  0  0  0  0  0  0  0  0  0
   58.3850   27.6800   47.1480 C   0  0  0  0  0  0  0  0  0  0  0  0
   57.4630   27.4530   46.1240 C   0  0  0  0  0  0  0  0  0  0  0  0
   57.0570   26.1030   45.8550 N   0  0  0  0  0  0  0  0  0  0  0  0
   55.7180   25.6250   45.6780 C   0  0  0  0  0  0  0  0  0  0  0  0
   54.7280   26.3360   46.0020 O   0  0  0  0  0  0  0  0  0  0  0  0
   55.4960   24.2260   45.2000 C   0  0  0  0  0  0  0  0  0  0  0  0
   56.0160   23.2460   46.2140 C   0  0  0  0  0  0  0  0  0  0  0  0
   56.0200   23.5690   47.5790 C   0  0  0  0  0  0  0  0  0  0  0  0
   56.5390   22.6570   48.5010 C   0  0  0  0  0  0  0  0  0  0  0  0
   57.0460   21.4700   48.0750 N   0  0  0  0  0  0  0  0  0  0  0  0
   57.0650   21.1340   46.7570 C   0  0  0  0  0  0  0  0  0  0  0  0
   56.5540   22.0170   45.8010 C   0  0  0  0  0  0  0  0  0  0  0  0
   57.0030   28.5400   45.3580 C   0  0  0  0  0  0  0  0  0  0  0  0
   57.4420   29.8500   45.6370 C   0  0  0  0  0  0  0  0  0  0  0  0
   56.9890   30.9560   44.8990 O   0  0  0  0  0  0  0  0  0  0  0  0
   57.6730   31.5240   43.7870 C   0  0  0  0  0  0  0  0  0  0  0  0
   58.9147   35.2561   46.3582 H   0  0  0  0  0  0  0  0  0  0  0  0
   59.8557   35.4928   44.8466 H   0  0  0  0  0  0  0  0  0  0  0  0
   58.4090   34.4280   44.8466 H   0  0  0  0  0  0  0  0  0  0  0  0
   62.7509   33.9500   45.3668 H   0  0  0  0  0  0  0  0  0  0  0  0
   64.4884   34.0043   47.1517 H   0  0  0  0  0  0  0  0  0  0  0  0
   63.8351   33.7678   49.5449 H   0  0  0  0  0  0  0  0  0  0  0  0
   61.4398   33.4641   50.1641 H   0  0  0  0  0  0  0  0  0  0  0  0
   59.1725   33.6354   49.5714 H   0  0  0  0  0  0  0  0  0  0  0  0
   58.6693   34.0377   47.8904 H   0  0  0  0  0  0  0  0  0  0  0  0
   59.2130   31.9750   46.2030 H   0  0  0  0  0  0  0  0  0  0  0  0
   59.5376   29.1390   48.2551 H   0  0  0  0  0  0  0  0  0  0  0  0
   58.7663   26.8321   47.7360 H   0  0  0  0  0  0  0  0  0  0  0  0
   54.4190   24.0588   45.0512 H   0  0  0  0  0  0  0  0  0  0  0  0
   56.0317   24.0804   44.2503 H   0  0  0  0  0  0  0  0  0  0  0  0
   55.6172   24.5338   47.9210 H   0  0  0  0  0  0  0  0  0  0  0  0
   56.5374   22.8999   49.5738 H   0  0  0  0  0  0  0  0  0  0  0  0
   57.4830   20.1662   46.4429 H   0  0  0  0  0  0  0  0  0  0  0  0
   56.5734   21.7508   44.7339 H   0  0  0  0  0  0  0  0  0  0  0  0
   56.2948   28.3659   44.5345 H   0  0  0  0  0  0  0  0  0  0  0  0
   58.4723   32.1878   44.1483 H   0  0  0  0  0  0  0  0  0  0  0  0
   58.1114   30.7206   43.1768 H   0  0  0  0  0  0  0  0  0  0  0  0
   56.9638   32.1025   43.1768 H   0  0  0  0  0  0  0  0  0  0  0  0
  1  2  1  0
  2  3  1  0
  3  4  2  0
  4  5  1  0
  5  6  2  0
  6  7  1  0
  7  8  2  0
  8  9  1  0
  9 10  1  0
 10 11  2  0
 10 12  1  0
 12 13  1  0
 13 14  2  0
 14 15  1  0
 15 16  2  0
 16 17  1  0
 17 18  1  0
 18 19  2  0
 18 20  1  0
 20 21  1  0
 21 22  2  0
 22 23  1  0
 23 24  2  0
 24 25  1  0
 25 26  2  0
 16 27  1  0
 27 28  2  0
 28 29  1  0
 29 30  1  0
  8  3  1  0
 28 13  1  0
 26 21  1  0
  1 31  1  0
  1 32  1  0
  1 33  1  0
  4 34  1  0
  5 35  1  0
  6 36  1  0
  7 37  1  0
  9 38  1  0
  9 39  1  0
 12 40  1  0
 14 41  1  0
 15 42  1  0
 20 43  1  0
 20 44  1  0
 22 45  1  0
 23 46  1  0
 25 47  1  0
 26 48  1  0
 27 49  1  0
 30 50  1  0
 30 51  1  0
 30 52  1  0
M  CHG  1  17  -1
M  END
>  <UniqueID>  (88) 
85

>  <SMILES>  (88) 
COc1ccccc1CC(=O)Nc1ccc([N-]C(=O)Cc2ccncc2)cc1OC

>  <Energy>  (88) 
57.56562653469671

>  <Genealogy>  (88) 
COc1ccccc1CC(=O)Nc1ccc([N-]C(=O)Cc2ccncc2)cc1OC (protonated)
COc1ccccc1CC(=O)Nc1ccc([N-]C(=O)Cc2ccncc2)cc1OC (3D coordinates assigned)
COc1ccccc1CC(=O)Nc1ccc([N-]C(=O)Cc2ccncc2)cc1OC (optimized conformer: 57.56562653469671 kcal/mol)

>  <smiles>  (88) 
COc1ccccc1CC(=O)Nc1ccc(NC(=O)Cc2ccncc2)cc1OC

>  <score_type>  (88) 
oracle

>  <origin>  (88) 
adg

>  <m_score__min__energy>  (88) 
-10.41

>  <m_primary>  (88) 
energy

$$$$
88:0
     RDKit          3D

 48 52  0  0  0  0  0  0  0  0999 V2000
   61.4033   26.4600   47.0300 H   0  0  0  0  0  0  0  0  0  0  0  0
   60.3820   26.8460   47.1640 C   0  0  0  0  0  0  0  0  0  0  0  0
   60.2020   27.9530   47.8900 C   0  0  0  0  0  0  0  0  0  0  0  0
   59.1700   28.8230   47.7530 N   0  0  0  0  0  0  0  0  0  0  0  0
   59.3050   29.6550   48.8130 C   0  0  0  0  0  0  0  0  0  0  0  0
   58.5150   30.6000   49.0860 O   0  0  0  0  0  0  0  0  0  0  0  0
   60.4160   29.3070   49.5480 C   0  0  0  0  0  0  0  0  0  0  0  0
   60.8610   29.9190   50.6550 C   0  0  0  0  0  0  0  0  0  0  0  0
   60.9457   29.3364   51.5842 H   0  0  0  0  0  0  0  0  0  0  0  0
   61.2310   31.3060   50.6730 N   0  0  0  0  0  0  0  0  0  0  0  0
   61.9120   31.6040   51.4070 H   0  0  0  0  0  0  0  0  0  0  0  0
   60.8860   32.2500   49.6420 C   0  0  0  0  0  0  0  0  0  0  0  0
   61.4570   32.1140   48.3680 C   0  0  0  0  0  0  0  0  0  0  0  0
   62.1626   31.2934   48.1709 H   0  0  0  0  0  0  0  0  0  0  0  0
   61.1360   33.0140   47.3460 C   0  0  0  0  0  0  0  0  0  0  0  0
   61.5948   32.9032   46.3524 H   0  0  0  0  0  0  0  0  0  0  0  0
   60.2320   34.0550   47.5860 C   0  0  0  0  0  0  0  0  0  0  0  0
   59.9030   34.9810   46.5350 C   0  0  0  0  0  0  0  0  0  0  0  0
   59.6380   35.7260   45.6890 N   0  0  0  0  0  0  0  0  0  0  0  0
   59.6450   34.1890   48.8500 C   0  0  0  0  0  0  0  0  0  0  0  0
   58.9308   35.0039   49.0395 H   0  0  0  0  0  0  0  0  0  0  0  0
   59.9640   33.2900   49.8720 C   0  0  0  0  0  0  0  0  0  0  0  0
   59.4928   33.3952   50.8604 H   0  0  0  0  0  0  0  0  0  0  0  0
   60.9970   28.2510   48.9450 N   0  0  0  0  0  0  0  0  0  0  0  0
   61.8550   27.7360   49.2440 H   0  0  0  0  0  0  0  0  0  0  0  0
   58.4250   29.0860   46.5430 C   0  0  0  0  0  0  0  0  0  0  0  0
   58.1920   30.4220   46.1480 C   0  0  0  0  0  0  0  0  0  0  0  0
   58.5334   31.2432   46.7954 H   0  0  0  0  0  0  0  0  0  0  0  0
   57.5380   30.7200   44.9540 C   0  0  0  0  0  0  0  0  0  0  0  0
   57.3464   31.7675   44.6781 H   0  0  0  0  0  0  0  0  0  0  0  0
   57.1280   29.6930   44.1120 C   0  0  0  0  0  0  0  0  0  0  0  0
   56.3260   30.0680   42.5970 Cl  0  0  0  0  0  0  0  0  0  0  0  0
   57.3710   28.3680   44.4660 C   0  0  0  0  0  0  0  0  0  0  0  0
   57.0607   27.5617   43.7852 H   0  0  0  0  0  0  0  0  0  0  0  0
   58.0080   28.0410   45.6820 C   0  0  0  0  0  0  0  0  0  0  0  0
   58.2100   26.5980   45.9980 C   0  0  0  0  0  0  0  0  0  0  0  0
   57.1930   25.5980   45.5780 C   0  0  0  0  0  0  0  0  0  0  0  0
   56.0280   25.4000   46.3400 C   0  0  0  0  0  0  0  0  0  0  0  0
   55.8721   25.9808   47.2611 H   0  0  0  0  0  0  0  0  0  0  0  0
   55.0660   24.4690   45.9340 C   0  0  0  0  0  0  0  0  0  0  0  0
   54.1610   24.3146   46.5400 H   0  0  0  0  0  0  0  0  0  0  0  0
   55.2530   23.7350   44.7600 C   0  0  0  0  0  0  0  0  0  0  0  0
   54.4970   23.0013   44.4437 H   0  0  0  0  0  0  0  0  0  0  0  0
   56.4000   23.9330   43.9880 C   0  0  0  0  0  0  0  0  0  0  0  0
   56.5442   23.3570   43.0620 H   0  0  0  0  0  0  0  0  0  0  0  0
   57.3650   24.8610   44.3890 C   0  0  0  0  0  0  0  0  0  0  0  0
   58.2633   25.0170   43.7736 H   0  0  0  0  0  0  0  0  0  0  0  0
   59.2950   26.1450   46.5550 N   0  0  0  0  0  0  0  0  0  0  0  0
  1  2  1  0
  2  3  2  0
  3  4  1  0
  4  5  1  0
  5  6  2  0
  5  7  1  0
  7  8  2  0
  8  9  1  0
  8 10  1  0
 10 11  1  0
 10 12  1  0
 12 13  2  0
 13 14  1  0
 13 15  1  0
 15 16  1  0
 15 17  2  0
 17 18  1  0
 18 19  3  0
 17 20  1  0
 20 21  1  0
 20 22  2  0
 22 23  1  0
  7 24  1  0
 24 25  1  0
  4 26  1  0
 26 27  2  0
 27 28  1  0
 27 29  1  0
 29 30  1  0
 29 31  2  0
 31 32  1  0
 31 33  1  0
 33 34  1  0
 33 35  2  0
 35 36  1  0
 36 37  1  0
 37 38  2  0
 38 39  1  0
 38 40  1  0
 40 41  1  0
 40 42  2  0
 42 43  1  0
 42 44  1  0
 44 45  1  0
 44 46  2  0
 46 47  1  0
 36 48  2  0
 48  2  1  0
 24  3  1  0
 35 26  1  0
 46 37  1  0
 22 12  1  0
M  END
>  <UniqueID>  (89) 
86

>  <SMILES>  (89) 
N#Cc1ccc(N/C=c2\[nH]c3n(c2=O)-c2ccc(Cl)cc2C(c2ccccc2)=NC=3)cc1

>  <Energy>  (89) 
127.05841387756416

>  <Genealogy>  (89) 
N#Cc1ccc(N/C=c2\[nH]c3n(c2=O)-c2ccc(Cl)cc2C(c2ccccc2)=NC=3)cc1 (cis-trans isomerization)
N#Cc1ccc(N/C=c2\[nH]c3n(c2=O)-c2ccc(Cl)cc2C(c2ccccc2)=NC=3)cc1 (3D coordinates assigned)
N#Cc1ccc(N/C=c2\[nH]c3n(c2=O)-c2ccc(Cl)cc2C(c2ccccc2)=NC=3)cc1 (nonaromatic ring conformer: 127.05841387756416 kcal/mol)

>  <smiles>  (89) 
N#Cc1ccc(NC=c2[nH]c3n(c2=O)-c2ccc(Cl)cc2C(c2ccccc2)=NC=3)cc1

>  <score_type>  (89) 
oracle

>  <origin>  (89) 
adg

>  <m_score__min__energy>  (89) 
-8.2200000000000006

>  <m_primary>  (89) 
energy

$$$$
89:0
     RDKit          3D

 30 32  0  0  0  0  0  0  0  0999 V2000
   59.3340   36.8680   46.8790 H   0  0  0  0  0  0  0  0  0  0  0  0
   59.8560   36.0170   46.7040 O   0  0  0  0  0  0  0  0  0  0  0  0
   59.2430   34.8810   46.1810 C   0  0  0  0  0  0  0  0  0  0  0  0
   58.6560   33.9540   47.0450 C   0  0  0  0  0  0  0  0  0  0  0  0
   58.6802   34.1267   48.1311 H   0  0  0  0  0  0  0  0  0  0  0  0
   58.0380   32.8080   46.5370 C   0  0  0  0  0  0  0  0  0  0  0  0
   57.5776   32.0851   47.2266 H   0  0  0  0  0  0  0  0  0  0  0  0
   58.0000   32.5710   45.1470 C   0  0  0  0  0  0  0  0  0  0  0  0
   57.3470   31.3620   44.5810 C   0  0  0  0  0  0  0  0  0  0  0  0
   56.9680   30.3220   45.3760 N   0  0  0  0  0  0  0  0  0  0  0  0
   56.3840   29.3280   44.6770 C   0  0  0  0  0  0  0  0  0  0  0  0
   55.9900   28.2260   45.2440 N   0  0  0  0  0  0  0  0  0  0  0  0
   56.8290   27.1610   45.7200 C   0  0  0  0  0  0  0  0  0  0  0  0
   56.2880   25.9770   46.2550 C   0  0  0  0  0  0  0  0  0  0  0  0
   55.1974   25.8364   46.2830 H   0  0  0  0  0  0  0  0  0  0  0  0
   57.1320   24.9790   46.7510 C   0  0  0  0  0  0  0  0  0  0  0  0
   56.7053   24.0481   47.1527 H   0  0  0  0  0  0  0  0  0  0  0  0
   58.5180   25.1630   46.7370 C   0  0  0  0  0  0  0  0  0  0  0  0
   59.1819   24.3734   47.1188 H   0  0  0  0  0  0  0  0  0  0  0  0
   59.0590   26.3500   46.2380 C   0  0  0  0  0  0  0  0  0  0  0  0
   60.1490   26.4980   46.2350 H   0  0  0  0  0  0  0  0  0  0  0  0
   58.2170   27.3510   45.7420 C   0  0  0  0  0  0  0  0  0  0  0  0
   58.6467   28.2918   45.3675 H   0  0  0  0  0  0  0  0  0  0  0  0
   56.3270   29.6810   43.0310 S   0  0  0  0  0  0  0  0  0  0  0  0
   57.0620   31.1820   43.2210 C   0  0  0  0  0  0  0  0  0  0  0  0
   57.2812   31.8989   42.4160 H   0  0  0  0  0  0  0  0  0  0  0  0
   58.5900   33.5160   44.2860 C   0  0  0  0  0  0  0  0  0  0  0  0
   58.5645   33.3527   43.1985 H   0  0  0  0  0  0  0  0  0  0  0  0
   59.2080   34.6600   44.8000 C   0  0  0  0  0  0  0  0  0  0  0  0
   59.6682   35.3886   44.1164 H   0  0  0  0  0  0  0  0  0  0  0  0
  1  2  1  0
  2  3  1  0
  3  4  2  0
  4  5  1  0
  4  6  1  0
  6  7  1  0
  6  8  2  0
  8  9  1  0
  9 10  1  0
 10 11  1  0
 11 12  2  0
 12 13  1  0
 13 14  2  0
 14 15  1  0
 14 16  1  0
 16 17  1  0
 16 18  2  0
 18 19  1  0
 18 20  1  0
 20 21  1  0
 20 22  2  0
 22 23  1  0
 11 24  1  0
 24 25  1  0
 25 26  1  0
  8 27  1  0
 27 28  1  0
 27 29  2  0
 29 30  1  0
 29  3  1  0
 25  9  2  0
 22 13  1  0
M  CHG  1  10  -1
M  END
>  <UniqueID>  (90) 
87

>  <SMILES>  (90) 
Oc1ccc(-c2cs/c(=N\c3ccccc3)[n-]2)cc1

>  <Energy>  (90) 
72.19310917423925

>  <Genealogy>  (90) 
Oc1ccc(-c2csc(=Nc3ccccc3)[n-]2)cc1 (protonated)
Oc1ccc(-c2cs/c(=N\c3ccccc3)[n-]2)cc1 (cis-trans isomerization)
Oc1ccc(-c2cs/c(=N\c3ccccc3)[n-]2)cc1 (3D coordinates assigned)
Oc1ccc(-c2cs/c(=N\c3ccccc3)[n-]2)cc1 (optimized conformer: 72.19310917423925 kcal/mol)

>  <smiles>  (90) 
Oc1ccc(-c2csc(=Nc3ccccc3)[nH]2)cc1

>  <score_type>  (90) 
oracle

>  <origin>  (90) 
adg

>  <m_score__min__energy>  (90) 
-9

>  <m_primary>  (90) 
energy

$$$$
90:0
     RDKit          3D

 63 68  0  0  0  0  0  0  0  0999 V2000
   62.8350   30.0370   50.4710 O   0  0  0  0  0  0  0  0  0  0  0  0
   61.7660   30.6390   50.1720 C   0  0  0  0  0  0  0  0  0  0  0  0
   60.8660   30.0610   49.2960 C   0  0  0  0  0  0  0  0  0  0  0  0
   60.9540   28.8850   48.6540 N   0  0  0  0  0  0  0  0  0  0  0  0
   59.8060   28.8700   47.9260 C   0  0  0  0  0  0  0  0  0  0  0  0
   59.4790   27.7800   46.9590 C   0  0  0  0  0  0  0  0  0  0  0  0
   58.1900   28.0970   46.2610 C   0  0  0  0  0  0  0  0  0  0  0  0
   57.0230   27.3410   46.3040 C   0  0  0  0  0  0  0  0  0  0  0  0
   56.1010   27.8470   45.4510 N   0  0  0  0  0  0  0  0  0  0  0  0
   56.6830   28.9030   44.8570 C   0  0  0  0  0  0  0  0  0  0  0  0
   56.1430   29.7190   43.8630 C   0  0  0  0  0  0  0  0  0  0  0  0
   56.9510   30.7470   43.3430 C   0  0  0  0  0  0  0  0  0  0  0  0
   58.2680   30.9320   43.8220 C   0  0  0  0  0  0  0  0  0  0  0  0
   58.7870   30.0930   44.8250 C   0  0  0  0  0  0  0  0  0  0  0  0
   57.9610   29.0840   45.3220 C   0  0  0  0  0  0  0  0  0  0  0  0
   59.0310   29.9770   48.0700 N   0  0  0  0  0  0  0  0  0  0  0  0
   59.7350   30.7050   48.9500 C   0  0  0  0  0  0  0  0  0  0  0  0
   59.4250   31.9430   49.4230 N   0  0  0  0  0  0  0  0  0  0  0  0
   58.2080   32.6340   48.9640 C   0  0  0  0  0  0  0  0  0  0  0  0
   58.4670   33.3520   47.6650 C   0  0  0  0  0  0  0  0  0  0  0  0
   57.7170   33.0400   46.5190 C   0  0  0  0  0  0  0  0  0  0  0  0
   57.9430   33.7270   45.3210 C   0  0  0  0  0  0  0  0  0  0  0  0
   58.9080   34.7340   45.2620 C   0  0  0  0  0  0  0  0  0  0  0  0
   59.6520   35.0570   46.4000 C   0  0  0  0  0  0  0  0  0  0  0  0
   59.4350   34.3680   47.5970 C   0  0  0  0  0  0  0  0  0  0  0  0
   60.3130   32.5380   50.2970 C   0  0  0  0  0  0  0  0  0  0  0  0
   60.0710   33.6950   50.7410 O   0  0  0  0  0  0  0  0  0  0  0  0
   61.4700   31.8800   50.6890 N   0  0  0  0  0  0  0  0  0  0  0  0
   62.4240   32.5400   51.6030 C   0  0  0  0  0  0  0  0  0  0  0  0
   62.9090   33.8750   50.9920 C   0  0  0  0  0  0  0  0  0  0  0  0
   63.4100   33.7890   49.5980 N   0  0  0  0  0  0  0  0  0  0  0  0
   63.9700   32.4820   49.2180 C   0  0  0  0  0  0  0  0  0  0  0  0
   63.7870   32.3630   47.7180 C   0  0  0  0  0  0  0  0  0  0  0  0
   62.5150   33.1370   47.4380 C   0  0  0  0  0  0  0  0  0  0  0  0
   62.4060   34.1500   48.5750 C   0  0  0  0  0  0  0  0  0  0  0  0
   60.2861   27.6950   46.2165 H   0  0  0  0  0  0  0  0  0  0  0  0
   59.3763   26.8287   47.5017 H   0  0  0  0  0  0  0  0  0  0  0  0
   56.8707   26.4571   46.9409 H   0  0  0  0  0  0  0  0  0  0  0  0
   55.1460   27.4700   45.2680 H   0  0  0  0  0  0  0  0  0  0  0  0
   55.1174   29.5637   43.4970 H   0  0  0  0  0  0  0  0  0  0  0  0
   56.5556   31.4102   42.5595 H   0  0  0  0  0  0  0  0  0  0  0  0
   58.8916   31.7378   43.4075 H   0  0  0  0  0  0  0  0  0  0  0  0
   59.8104   30.2279   45.2050 H   0  0  0  0  0  0  0  0  0  0  0  0
   57.4064   31.8954   48.8158 H   0  0  0  0  0  0  0  0  0  0  0  0
   57.9090   33.3707   49.7242 H   0  0  0  0  0  0  0  0  0  0  0  0
   56.9496   32.2532   46.5634 H   0  0  0  0  0  0  0  0  0  0  0  0
   57.3591   33.4730   44.4240 H   0  0  0  0  0  0  0  0  0  0  0  0
   59.0828   35.2734   44.3194 H   0  0  0  0  0  0  0  0  0  0  0  0
   60.4089   35.8539   46.3539 H   0  0  0  0  0  0  0  0  0  0  0  0
   60.0250   34.6226   48.4898 H   0  0  0  0  0  0  0  0  0  0  0  0
   61.9282   32.7389   52.5646 H   0  0  0  0  0  0  0  0  0  0  0  0
   63.2899   31.8794   51.7577 H   0  0  0  0  0  0  0  0  0  0  0  0
   62.0663   34.5818   51.0073 H   0  0  0  0  0  0  0  0  0  0  0  0
   63.7648   34.1965   51.6037 H   0  0  0  0  0  0  0  0  0  0  0  0
   64.1930   34.4850   49.5210 H   0  0  0  0  0  0  0  0  0  0  0  0
   65.0381   32.4351   49.4767 H   0  0  0  0  0  0  0  0  0  0  0  0
   63.4669   31.6607   49.7494 H   0  0  0  0  0  0  0  0  0  0  0  0
   64.6400   32.8074   47.1841 H   0  0  0  0  0  0  0  0  0  0  0  0
   63.7274   31.3174   47.3817 H   0  0  0  0  0  0  0  0  0  0  0  0
   62.5817   33.6513   46.4679 H   0  0  0  0  0  0  0  0  0  0  0  0
   61.6352   32.4787   47.3874 H   0  0  0  0  0  0  0  0  0  0  0  0
   62.6063   35.1626   48.1948 H   0  0  0  0  0  0  0  0  0  0  0  0
   61.3945   34.1361   49.0070 H   0  0  0  0  0  0  0  0  0  0  0  0
  1  2  2  0
  2  3  1  0
  3  4  1  0
  4  5  2  0
  5  6  1  0
  6  7  1  0
  7  8  2  0
  8  9  1  0
  9 10  1  0
 10 11  2  0
 11 12  1  0
 12 13  2  0
 13 14  1  0
 14 15  2  0
  5 16  1  0
 16 17  1  0
 17 18  1  0
 18 19  1  0
 19 20  1  0
 20 21  2  0
 21 22  1  0
 22 23  2  0
 23 24  1  0
 24 25  2  0
 18 26  1  0
 26 27  2  0
 26 28  1  0
 28 29  1  0
 29 30  1  0
 30 31  1  0
 31 32  1  0
 32 33  1  0
 33 34  1  0
 34 35  1  0
 28  2  1  0
 35 31  1  0
 17  3  2  0
 25 20  1  0
 15  7  1  0
 15 10  1  0
  6 36  1  0
  6 37  1  0
  8 38  1  0
  9 39  1  0
 11 40  1  0
 12 41  1  0
 13 42  1  0
 14 43  1  0
 19 44  1  0
 19 45  1  0
 21 46  1  0
 22 47  1  0
 23 48  1  0
 24 49  1  0
 25 50  1  0
 29 51  1  0
 29 52  1  0
 30 53  1  0
 30 54  1  0
 31 55  1  0
 32 56  1  0
 32 57  1  0
 33 58  1  0
 33 59  1  0
 34 60  1  0
 34 61  1  0
 35 62  1  0
 35 63  1  0
M  CHG  2  16  -1  31   1
M  END
>  <UniqueID>  (91) 
88

>  <SMILES>  (91) 
O=c1c2nc(Cc3c[nH]c4ccccc34)[n-]c2n(Cc2ccccc2)c(=O)n1CC[NH+]1CCCC1

>  <Energy>  (91) 
145.54958168787647

>  <Genealogy>  (91) 
O=c1c2nc(Cc3c[nH]c4ccccc34)[n-]c2n(Cc2ccccc2)c(=O)n1CC[NH+]1CCCC1 (protonated)
O=c1c2nc(Cc3c[nH]c4ccccc34)[n-]c2n(Cc2ccccc2)c(=O)n1CC[NH+]1CCCC1 (3D coordinates assigned)
O=c1c2nc(Cc3c[nH]c4ccccc34)[n-]c2n(Cc2ccccc2)c(=O)n1CC[NH+]1CCCC1 (nonaromatic ring conformer: 145.54958168787647 kcal/mol)

>  <smiles>  (91) 
O=c1c2nc(Cc3c[nH]c4ccccc34)[nH]c2n(Cc2ccccc2)c(=O)n1CCN1CCCC1

>  <score_type>  (91) 
oracle

>  <origin>  (91) 
adg

>  <m_score__min__energy>  (91) 
-9.6099999999999994

>  <m_primary>  (91) 
energy

$$$$
91:0
     RDKit          3D

 33 35  0  0  0  0  0  0  0  0999 V2000
   57.5896   31.6710   41.9393 H   0  0  0  0  0  0  0  0  0  0  0  0
   57.2510   31.1430   42.8430 C   0  0  0  0  0  0  0  0  0  0  0  0
   56.5860   29.5970   42.8980 S   0  0  0  0  0  0  0  0  0  0  0  0
   56.4000   29.6240   44.5660 C   0  0  0  0  0  0  0  0  0  0  0  0
   55.8870   28.6380   45.2420 N   0  0  0  0  0  0  0  0  0  0  0  0
   56.4940   27.3850   45.6080 C   0  0  0  0  0  0  0  0  0  0  0  0
   55.8490   26.6100   46.3630 O   0  0  0  0  0  0  0  0  0  0  0  0
   57.8650   26.9570   45.1540 C   0  0  0  0  0  0  0  0  0  0  0  0
   58.1758   26.0739   45.7316 H   0  0  0  0  0  0  0  0  0  0  0  0
   57.8205   26.7195   44.0809 H   0  0  0  0  0  0  0  0  0  0  0  0
   58.8400   28.0260   45.3540 N   0  0  0  0  0  0  0  0  0  0  0  0
   59.9330   28.2010   44.6280 N   0  0  0  0  0  0  0  0  0  0  0  0
   60.5770   29.2900   45.0230 N   0  0  0  0  0  0  0  0  0  0  0  0
   59.8570   29.8320   46.0290 C   0  0  0  0  0  0  0  0  0  0  0  0
   60.2360   31.0610   46.7620 C   0  0  0  0  0  0  0  0  0  0  0  0
   61.5420   31.2050   47.2610 C   0  0  0  0  0  0  0  0  0  0  0  0
   62.2843   30.4087   47.1034 H   0  0  0  0  0  0  0  0  0  0  0  0
   61.8930   32.3620   47.9570 C   0  0  0  0  0  0  0  0  0  0  0  0
   62.9135   32.4809   48.3501 H   0  0  0  0  0  0  0  0  0  0  0  0
   60.9470   33.3670   48.1530 C   0  0  0  0  0  0  0  0  0  0  0  0
   61.2143   34.2837   48.6990 H   0  0  0  0  0  0  0  0  0  0  0  0
   59.6580   33.1970   47.6490 C   0  0  0  0  0  0  0  0  0  0  0  0
   58.9036   33.9832   47.7999 H   0  0  0  0  0  0  0  0  0  0  0  0
   59.3280   32.0630   46.9710 N   0  0  0  0  0  0  0  0  0  0  0  0
   58.3500   31.9780   46.6180 H   0  0  0  0  0  0  0  0  0  0  0  0
   58.7440   29.0400   46.2310 C   0  0  0  0  0  0  0  0  0  0  0  0
   57.9399   29.2058   46.9630 H   0  0  0  0  0  0  0  0  0  0  0  0
   56.8330   30.7850   45.1010 N   0  0  0  0  0  0  0  0  0  0  0  0
   57.2960   31.6340   44.1450 C   0  0  0  0  0  0  0  0  0  0  0  0
   57.8500   32.9790   44.4860 C   0  0  0  0  0  0  0  0  0  0  0  0
   57.8958   33.0902   45.5794 H   0  0  0  0  0  0  0  0  0  0  0  0
   58.8615   33.0765   44.0648 H   0  0  0  0  0  0  0  0  0  0  0  0
   57.2006   33.7606   44.0648 H   0  0  0  0  0  0  0  0  0  0  0  0
  1  2  1  0
  2  3  1  0
  3  4  1  0
  4  5  2  0
  5  6  1  0
  6  7  2  0
  6  8  1  0
  8  9  1  0
  8 10  1  0
  8 11  1  0
 11 12  1  0
 12 13  2  0
 13 14  1  0
 14 15  1  0
 15 16  2  0
 16 17  1  0
 16 18  1  0
 18 19  1  0
 18 20  2  0
 20 21  1  0
 20 22  1  0
 22 23  1  0
 22 24  2  0
 24 25  1  0
 14 26  2  0
 26 27  1  0
  4 28  1  0
 28 29  1  0
 29 30  1  0
 30 31  1  0
 30 32  1  0
 30 33  1  0
 29  2  2  0
 26 11  1  0
 24 15  1  0
M  CHG  2  24   1  28  -1
M  END
>  <UniqueID>  (92) 
89

>  <SMILES>  (92) 
Cc1cs/c(=N/C(=O)Cn2cc(-c3cccc[nH+]3)nn2)[n-]1

>  <Energy>  (92) 
101.04171719532953

>  <Genealogy>  (92) 
Cc1csc(=NC(=O)Cn2cc(-c3cccc[nH+]3)nn2)[n-]1 (protonated)
Cc1cs/c(=N/C(=O)Cn2cc(-c3cccc[nH+]3)nn2)[n-]1 (cis-trans isomerization)
Cc1cs/c(=N/C(=O)Cn2cc(-c3cccc[nH+]3)nn2)[n-]1 (3D coordinates assigned)
Cc1cs/c(=N/C(=O)Cn2cc(-c3cccc[nH+]3)nn2)[n-]1 (optimized conformer: 101.04171719532953 kcal/mol)

>  <smiles>  (92) 
Cc1csc(=NC(=O)Cn2cc(-c3ccccn3)nn2)[nH]1

>  <score_type>  (92) 
oracle

>  <origin>  (92) 
adg

>  <m_score__min__energy>  (92) 
-7.5999999999999996

>  <m_primary>  (92) 
energy

$$$$
92:0
     RDKit          3D

 34 37  0  0  0  0  0  0  0  0999 V2000
   54.8430   28.3940   44.3960 H   0  0  0  0  0  0  0  0  0  0  0  0
   55.1480   29.3420   44.0920 N   0  0  0  0  0  0  0  0  0  0  0  0
   56.1170   30.0220   44.6240 C   0  0  0  0  0  0  0  0  0  0  0  0
   56.0960   31.3740   44.4990 N   0  0  0  0  0  0  0  0  0  0  0  0
   57.1020   32.1570   44.9580 C   0  0  0  0  0  0  0  0  0  0  0  0
   57.0432   33.2505   44.8544 H   0  0  0  0  0  0  0  0  0  0  0  0
   58.2170   31.5660   45.5650 C   0  0  0  0  0  0  0  0  0  0  0  0
   59.3470   32.3990   46.0500 C   0  0  0  0  0  0  0  0  0  0  0  0
   59.3230   33.7990   45.9030 C   0  0  0  0  0  0  0  0  0  0  0  0
   58.4607   34.2839   45.4220 H   0  0  0  0  0  0  0  0  0  0  0  0
   60.3890   34.5760   46.3650 C   0  0  0  0  0  0  0  0  0  0  0  0
   60.3623   35.6693   46.2471 H   0  0  0  0  0  0  0  0  0  0  0  0
   61.4880   33.9680   46.9760 C   0  0  0  0  0  0  0  0  0  0  0  0
   62.3251   34.5824   47.3391 H   0  0  0  0  0  0  0  0  0  0  0  0
   61.5240   32.5790   47.1260 C   0  0  0  0  0  0  0  0  0  0  0  0
   63.0300   31.7470   47.9560 Br  0  0  0  0  0  0  0  0  0  0  0  0
   60.4590   31.7970   46.6660 C   0  0  0  0  0  0  0  0  0  0  0  0
   60.4915   30.7041   46.7869 H   0  0  0  0  0  0  0  0  0  0  0  0
   58.2460   30.2080   45.7040 N   0  0  0  0  0  0  0  0  0  0  0  0
   59.0560   29.7660   46.1960 H   0  0  0  0  0  0  0  0  0  0  0  0
   57.2200   29.4130   45.2770 C   0  0  0  0  0  0  0  0  0  0  0  0
   57.3070   27.9600   45.5470 C   0  0  0  0  0  0  0  0  0  0  0  0
   58.4770   27.2750   45.6690 N   0  0  0  0  0  0  0  0  0  0  0  0
   58.0480   26.0160   45.8580 C   0  0  0  0  0  0  0  0  0  0  0  0
   58.8140   24.8690   46.0490 C   0  0  0  0  0  0  0  0  0  0  0  0
   59.9130   24.9138   46.0635 H   0  0  0  0  0  0  0  0  0  0  0  0
   58.1310   23.6490   46.2230 C   0  0  0  0  0  0  0  0  0  0  0  0
   58.7003   22.7204   46.3768 H   0  0  0  0  0  0  0  0  0  0  0  0
   56.7170   23.6120   46.2010 C   0  0  0  0  0  0  0  0  0  0  0  0
   56.1934   22.6545   46.3387 H   0  0  0  0  0  0  0  0  0  0  0  0
   55.9750   24.7930   46.0040 C   0  0  0  0  0  0  0  0  0  0  0  0
   54.8753   24.7801   45.9831 H   0  0  0  0  0  0  0  0  0  0  0  0
   56.6870   25.9760   45.8370 C   0  0  0  0  0  0  0  0  0  0  0  0
   56.2370   27.1850   45.6380 O   0  0  0  0  0  0  0  0  0  0  0  0
  1  2  1  0
  2  3  2  0
  3  4  1  0
  4  5  1  0
  5  6  1  0
  5  7  2  0
  7  8  1  0
  8  9  2  0
  9 10  1  0
  9 11  1  0
 11 12  1  0
 11 13  2  0
 13 14  1  0
 13 15  1  0
 15 16  1  0
 15 17  2  0
 17 18  1  0
  7 19  1  0
 19 20  1  0
 19 21  2  0
 21 22  1  0
 22 23  2  0
 23 24  1  0
 24 25  2  0
 25 26  1  0
 25 27  1  0
 27 28  1  0
 27 29  2  0
 29 30  1  0
 29 31  1  0
 31 32  1  0
 31 33  2  0
 33 34  1  0
 21  3  1  0
 34 22  1  0
 17  8  1  0
 33 24  1  0
M  CHG  2   4  -1  19   1
M  END
>  <UniqueID>  (93) 
90

>  <SMILES>  (93) 
[H]/N=c1/[n-]cc(-c2cccc(Br)c2)[nH+]c1-c1nc2ccccc2o1

>  <Energy>  (93) 
89.2934396436311

>  <Genealogy>  (93) 
N=c1[n-]cc(-c2cccc(Br)c2)[nH+]c1-c1nc2ccccc2o1 (protonated)
[H]/N=c1/[n-]cc(-c2cccc(Br)c2)[nH+]c1-c1nc2ccccc2o1 (cis-trans isomerization)
[H]/N=c1/[n-]cc(-c2cccc(Br)c2)[nH+]c1-c1nc2ccccc2o1 (3D coordinates assigned)
[H]/N=c1/[n-]cc(-c2cccc(Br)c2)[nH+]c1-c1nc2ccccc2o1 (optimized conformer: 89.2934396436311 kcal/mol)

>  <smiles>  (93) 
N=c1[nH]cc(-c2cccc(Br)c2)nc1-c1nc2ccccc2o1

>  <score_type>  (93) 
oracle

>  <origin>  (93) 
adg

>  <m_score__min__energy>  (93) 
-7.9000000000000004

>  <m_primary>  (93) 
energy

$$$$
93:0
     RDKit          3D

 25 26  0  0  1  0  0  0  0  0999 V2000
   57.4510   29.9970   44.7800 C   0  0  0  0  0  0  0  0  0  0  0  0
   58.6760   30.2510   45.3700 C   0  0  0  0  0  0  0  0  0  0  0  0
   59.0490   31.5160   45.7090 N   0  0  0  0  0  0  0  0  0  0  0  0
   58.2390   32.5600   45.4820 C   0  0  0  0  0  0  0  0  0  0  0  0
   58.5460   33.7810   45.7850 N   0  0  0  0  0  0  0  0  0  0  0  0
   59.3380   34.1320   46.9420 C   0  0  0  0  0  0  0  0  0  0  0  0
   60.7000   34.5890   46.4100 C   0  0  0  0  0  0  0  0  0  0  0  0
   61.7420   33.6000   46.7850 C   0  0  0  0  0  0  0  0  0  0  0  0
   63.0900   33.8400   46.6300 C   0  0  0  0  0  0  0  0  0  0  0  0
   63.7610   32.7470   47.0650 N   0  0  0  0  0  0  0  0  0  0  0  0
   62.8650   31.8330   47.4870 C   0  0  0  0  0  0  0  0  0  0  0  0
   61.6330   32.3760   47.3080 N   0  0  0  0  0  0  0  0  0  0  0  0
   57.0220   32.2920   44.8930 C   0  0  0  0  0  0  0  0  0  0  0  0
   56.6470   31.0460   44.5560 N   0  0  0  0  0  0  0  0  0  0  0  0
   57.1488   28.9755   44.5057 H   0  0  0  0  0  0  0  0  0  0  0  0
   59.3623   29.4148   45.5693 H   0  0  0  0  0  0  0  0  0  0  0  0
   59.9760   31.6770   46.1510 H   0  0  0  0  0  0  0  0  0  0  0  0
   58.8548   34.9469   47.5010 H   0  0  0  0  0  0  0  0  0  0  0  0
   59.4432   33.2783   47.6277 H   0  0  0  0  0  0  0  0  0  0  0  0
   60.6545   34.6743   45.3143 H   0  0  0  0  0  0  0  0  0  0  0  0
   60.9520   35.5666   46.8468 H   0  0  0  0  0  0  0  0  0  0  0  0
   63.5414   34.7575   46.2245 H   0  0  0  0  0  0  0  0  0  0  0  0
   64.8050   32.7000   47.0420 H   0  0  0  0  0  0  0  0  0  0  0  0
   63.0887   30.8375   47.8979 H   0  0  0  0  0  0  0  0  0  0  0  0
   56.3341   33.1264   44.6918 H   0  0  0  0  0  0  0  0  0  0  0  0
  1  2  2  0
  2  3  1  0
  3  4  1  0
  4  5  2  0
  5  6  1  0
  6  7  1  0
  7  8  1  0
  8  9  2  0
  9 10  1  0
 10 11  1  0
 11 12  2  0
  4 13  1  0
 13 14  2  0
 14  1  1  0
 12  8  1  0
  1 15  1  0
  2 16  1  0
  3 17  1  0
  6 18  1  0
  6 19  1  0
  7 20  1  0
  7 21  1  0
  9 22  1  0
 10 23  1  0
 11 24  1  0
 13 25  1  0
M  END
>  <smiles>  (94) 
c1c[nH]c(=NCCc2c[nH]cn2)cn1

>  <score_type>  (94) 
oracle

>  <origin>  (94) 
adg

>  <m_score__min__energy>  (94) 
-4.8300000000000001

>  <m_primary>  (94) 
energy

$$$$
94:0
     RDKit          3D

 35 36  0  0  0  0  0  0  0  0999 V2000
   55.7200   29.0900   44.9160 O   0  0  0  0  0  0  0  0  0  0  0  0
   56.6200   29.6990   44.2770 C   0  0  0  0  0  0  0  0  0  0  0  0
   56.5390   31.1900   44.1280 C   0  0  0  0  0  0  0  0  0  0  0  0
   57.9180   31.8040   43.8530 C   0  0  0  0  0  0  0  0  0  0  0  0
   58.3320   32.7570   44.9460 C   0  0  0  0  0  0  0  0  0  0  0  0
   58.9360   33.9850   44.6290 C   0  0  0  0  0  0  0  0  0  0  0  0
   59.2740   34.8870   45.6420 C   0  0  0  0  0  0  0  0  0  0  0  0
   59.0090   34.5710   46.9780 C   0  0  0  0  0  0  0  0  0  0  0  0
   58.4030   33.3550   47.3020 C   0  0  0  0  0  0  0  0  0  0  0  0
   58.0620   32.4510   46.2910 C   0  0  0  0  0  0  0  0  0  0  0  0
   57.7440   28.9830   43.7440 N   0  0  0  0  0  0  0  0  0  0  0  0
   57.9320   27.5460   43.9370 C   0  0  0  0  0  0  0  0  0  0  0  0
   58.4480   27.2560   45.3310 C   0  0  0  0  0  0  0  0  0  0  0  0
   59.6310   27.8620   45.8230 C   0  0  0  0  0  0  0  0  0  0  0  0
   60.6080   28.9620   44.8530 Cl  0  0  0  0  0  0  0  0  0  0  0  0
   60.0710   27.5880   47.1230 C   0  0  0  0  0  0  0  0  0  0  0  0
   59.3540   26.7170   47.9440 C   0  0  0  0  0  0  0  0  0  0  0  0
   58.1930   26.1100   47.4700 C   0  0  0  0  0  0  0  0  0  0  0  0
   57.7350   26.3690   46.1750 C   0  0  0  0  0  0  0  0  0  0  0  0
   56.2670   25.5540   45.6420 Cl  0  0  0  0  0  0  0  0  0  0  0  0
   55.8677   31.4294   43.2901 H   0  0  0  0  0  0  0  0  0  0  0  0
   56.1559   31.6104   45.0695 H   0  0  0  0  0  0  0  0  0  0  0  0
   58.6609   30.9957   43.7845 H   0  0  0  0  0  0  0  0  0  0  0  0
   57.8607   32.3676   42.9101 H   0  0  0  0  0  0  0  0  0  0  0  0
   59.1439   34.2379   43.5789 H   0  0  0  0  0  0  0  0  0  0  0  0
   59.7488   35.8462   45.3879 H   0  0  0  0  0  0  0  0  0  0  0  0
   59.2779   35.2805   47.7744 H   0  0  0  0  0  0  0  0  0  0  0  0
   58.1938   33.1082   48.3533 H   0  0  0  0  0  0  0  0  0  0  0  0
   57.5804   31.4964   46.5495 H   0  0  0  0  0  0  0  0  0  0  0  0
   58.4910   29.5180   43.2470 H   0  0  0  0  0  0  0  0  0  0  0  0
   56.9692   27.0335   43.7945 H   0  0  0  0  0  0  0  0  0  0  0  0
   58.6689   27.1843   43.2048 H   0  0  0  0  0  0  0  0  0  0  0  0
   60.9888   28.0628   47.5003 H   0  0  0  0  0  0  0  0  0  0  0  0
   59.7054   26.5096   48.9655 H   0  0  0  0  0  0  0  0  0  0  0  0
   57.6325   25.4217   48.1198 H   0  0  0  0  0  0  0  0  0  0  0  0
  1  2  2  0
  2  3  1  0
  3  4  1  0
  4  5  1  0
  5  6  2  0
  6  7  1  0
  7  8  2  0
  8  9  1  0
  9 10  2  0
  2 11  1  0
 11 12  1  0
 12 13  1  0
 13 14  2  0
 14 15  1  0
 14 16  1  0
 16 17  2  0
 17 18  1  0
 18 19  2  0
 19 20  1  0
 10  5  1  0
 19 13  1  0
  3 21  1  0
  3 22  1  0
  4 23  1  0
  4 24  1  0
  6 25  1  0
  7 26  1  0
  8 27  1  0
  9 28  1  0
 10 29  1  0
 11 30  1  0
 12 31  1  0
 12 32  1  0
 16 33  1  0
 17 34  1  0
 18 35  1  0
M  END
>  <UniqueID>  (95) 
91

>  <SMILES>  (95) 
O=C(CCc1ccccc1)NCc1c(Cl)cccc1Cl

>  <Energy>  (95) 
31.470811255202346

>  <Genealogy>  (95) 
O=C(CCc1ccccc1)NCc1c(Cl)cccc1Cl (3D coordinates assigned)
O=C(CCc1ccccc1)NCc1c(Cl)cccc1Cl (optimized conformer: 31.470811255202346 kcal/mol)

>  <smiles>  (95) 
O=C(CCc1ccccc1)NCc1c(Cl)cccc1Cl

>  <score_type>  (95) 
oracle

>  <origin>  (95) 
adg

>  <m_score__min__energy>  (95) 
-7.9800000000000004

>  <m_primary>  (95) 
energy

$$$$
95:0
     RDKit          3D

 39 41  0  0  0  0  0  0  0  0999 V2000
   58.4510   34.6350   44.7150 C   0  0  0  0  0  0  0  0  0  0  0  0
   59.1180   33.2450   44.8240 C   0  0  2  0  0  0  0  0  0  0  0  0
   58.4300   32.2590   43.8590 C   0  0  0  0  0  0  0  0  0  0  0  0
   57.1340   31.6770   44.4370 C   0  0  0  0  0  0  0  0  0  0  0  0
   57.3560   30.4270   45.2750 C   0  0  0  0  0  0  0  0  0  0  0  0
   58.5810   30.1520   45.9720 C   0  0  0  0  0  0  0  0  0  0  0  0
   58.8850   28.7910   46.2110 C   0  0  0  0  0  0  0  0  0  0  0  0
   57.9260   27.7950   46.0590 C   0  0  0  0  0  0  0  0  0  0  0  0
   56.6470   28.1190   45.6280 C   0  0  0  0  0  0  0  0  0  0  0  0
   55.6730   27.1290   45.5600 O   0  0  0  0  0  0  0  0  0  0  0  0
   56.3500   29.4250   45.2350 C   0  0  0  0  0  0  0  0  0  0  0  0
   55.0510   29.6960   44.7960 O   0  0  0  0  0  0  0  0  0  0  0  0
   59.6400   31.2170   46.3620 C   0  0  2  0  0  0  0  0  0  0  0  0
   60.2780   30.9290   47.7680 C   0  0  0  0  0  0  0  0  0  0  0  0
   59.6090   31.7280   48.8860 C   0  0  0  0  0  0  0  0  0  0  0  0
   59.8280   33.2330   48.6910 C   0  0  0  0  0  0  0  0  0  0  0  0
   59.9630   33.6300   47.2100 C   0  0  0  0  0  0  0  0  0  0  0  0
   59.1260   32.7060   46.2880 C   0  0  1  0  0  0  0  0  0  0  0  0
   58.2611   35.0307   45.7237 H   0  0  0  0  0  0  0  0  0  0  0  0
   59.1183   35.3203   44.1719 H   0  0  0  0  0  0  0  0  0  0  0  0
   57.4988   34.5432   44.1719 H   0  0  0  0  0  0  0  0  0  0  0  0
   60.1733   33.3487   44.5314 H   0  0  0  0  0  0  0  0  0  0  0  0
   58.1927   32.7882   42.9243 H   0  0  0  0  0  0  0  0  0  0  0  0
   59.1233   31.4227   43.6863 H   0  0  0  0  0  0  0  0  0  0  0  0
   56.6598   32.4417   45.0698 H   0  0  0  0  0  0  0  0  0  0  0  0
   56.4984   31.3899   43.5863 H   0  0  0  0  0  0  0  0  0  0  0  0
   59.9026   28.5143   46.5240 H   0  0  0  0  0  0  0  0  0  0  0  0
   58.1817   26.7484   46.2808 H   0  0  0  0  0  0  0  0  0  0  0  0
   54.3960   28.9740   44.5260 H   0  0  0  0  0  0  0  0  0  0  0  0
   60.4182   31.1207   45.5906 H   0  0  0  0  0  0  0  0  0  0  0  0
   60.1748   29.8565   47.9898 H   0  0  0  0  0  0  0  0  0  0  0  0
   61.3346   31.2319   47.7253 H   0  0  0  0  0  0  0  0  0  0  0  0
   58.5293   31.5179   48.8821 H   0  0  0  0  0  0  0  0  0  0  0  0
   60.0555   31.4299   49.8461 H   0  0  0  0  0  0  0  0  0  0  0  0
   58.9713   33.7715   49.1224 H   0  0  0  0  0  0  0  0  0  0  0  0
   60.7710   33.4977   49.1917 H   0  0  0  0  0  0  0  0  0  0  0  0
   59.6155   34.6663   47.0860 H   0  0  0  0  0  0  0  0  0  0  0  0
   61.0206   33.5311   46.9243 H   0  0  0  0  0  0  0  0  0  0  0  0
   58.0861   32.7094   46.6467 H   0  0  0  0  0  0  0  0  0  0  0  0
  1  2  1  0
  2  3  1  0
  3  4  1  0
  4  5  1  0
  5  6  2  0
  6  7  1  0
  7  8  2  0
  8  9  1  0
  9 10  1  0
  9 11  2  0
 11 12  1  0
  6 13  1  0
 13 14  1  0
 14 15  1  0
 15 16  1  0
 16 17  1  0
 17 18  1  0
 18  2  1  0
 11  5  1  0
 18 13  1  0
  1 19  1  0
  1 20  1  0
  1 21  1  0
  2 22  1  6
  3 23  1  0
  3 24  1  0
  4 25  1  0
  4 26  1  0
  7 27  1  0
  8 28  1  0
 12 29  1  0
 13 30  1  6
 14 31  1  0
 14 32  1  0
 15 33  1  0
 15 34  1  0
 16 35  1  0
 16 36  1  0
 17 37  1  0
 17 38  1  0
 18 39  1  1
M  CHG  1  10  -1
M  END
>  <UniqueID>  (96) 
92

>  <SMILES>  (96) 
C[C@@H]1CCc2c(ccc([O-])c2O)[C@@H]2CCCCC12

>  <Energy>  (96) 
66.88717875652534

>  <Genealogy>  (96) 
CC1CCc2c(ccc([O-])c2O)C2CCCCC12 (protonated)
C[C@@H]1CCc2c(ccc([O-])c2O)[C@@H]2CCCCC12 (chirality)
C[C@@H]1CCc2c(ccc([O-])c2O)[C@@H]2CCCCC12 (3D coordinates assigned)
C[C@@H]1CCc2c(ccc([O-])c2O)[C@@H]2CCCCC12 (nonaromatic ring conformer: 66.88717875652534 kcal/mol)

>  <smiles>  (96) 
CC1CCc2c(ccc(O)c2O)C2CCCCC12

>  <score_type>  (96) 
oracle

>  <origin>  (96) 
adg

>  <m_score__min__energy>  (96) 
-9.6400000000000006

>  <m_primary>  (96) 
energy

$$$$
