0:0
     RDKit          3D

 65 68  0  0  0  0  0  0  0  0999 V2000
   57.3470   31.4840   45.1820 O   0  0  0  0  0  0  0  0  0  0  0  0
   58.0770   30.6370   45.7630 C   0  0  0  0  0  0  0  0  0  0  0  0
   58.6180   29.4720   44.9950 C   0  0  0  0  0  0  0  0  0  0  0  0
   58.0420   28.2200   45.5150 N   0  0  0  0  0  0  0  0  0  0  0  0
   58.8870   27.2770   46.0330 C   0  0  0  0  0  0  0  0  0  0  0  0
   58.3880   26.0950   46.5830 C   0  0  0  0  0  0  0  0  0  0  0  0
   57.0120   25.8770   46.6280 C   0  0  0  0  0  0  0  0  0  0  0  0
   56.5250   24.6610   47.2160 N   0  0  0  0  0  0  0  0  0  0  0  0
   56.8490   23.3370   46.7680 C   0  0  0  0  0  0  0  0  0  0  0  0
   57.2630   22.4750   47.5930 O   0  0  0  0  0  0  0  0  0  0  0  0
   56.7590   22.9890   45.3380 C   0  0  0  0  0  0  0  0  0  0  0  0
   55.9430   23.7210   44.4570 C   0  0  0  0  0  0  0  0  0  0  0  0
   55.8830   23.3530   43.1100 C   0  0  0  0  0  0  0  0  0  0  0  0
   56.6260   22.2650   42.6530 C   0  0  0  0  0  0  0  0  0  0  0  0
   57.4280   21.5600   43.5540 C   0  0  0  0  0  0  0  0  0  0  0  0
   57.4740   21.9320   44.8600 N   0  0  0  0  0  0  0  0  0  0  0  0
   56.1510   26.8310   46.0590 C   0  0  0  0  0  0  0  0  0  0  0  0
   54.7780   26.6050   46.0000 O   0  0  0  0  0  0  0  0  0  0  0  0
   56.6840   28.0100   45.5190 C   0  0  0  0  0  0  0  0  0  0  0  0
   55.8990   28.8690   45.0270 O   0  0  0  0  0  0  0  0  0  0  0  0
   58.3390   30.7470   47.1630 N   0  0  0  0  0  0  0  0  0  0  0  0
   59.6000   30.3270   47.7610 C   0  0  0  0  0  0  0  0  0  0  0  0
   59.6880   30.8500   49.1720 C   0  0  0  0  0  0  0  0  0  0  0  0
   58.4970   31.2320   49.8160 C   0  0  0  0  0  0  0  0  0  0  0  0
   58.5200   31.7600   51.1100 C   0  0  0  0  0  0  0  0  0  0  0  0
   57.0240   32.2460   51.8860 Cl  0  0  0  0  0  0  0  0  0  0  0  0
   59.7340   31.9160   51.7770 C   0  0  0  0  0  0  0  0  0  0  0  0
   60.9240   31.5180   51.1660 C   0  0  0  0  0  0  0  0  0  0  0  0
   60.9210   30.9460   49.8790 C   0  0  0  0  0  0  0  0  0  0  0  0
   62.2450   30.4980   49.2900 C   0  0  0  0  0  0  0  0  0  0  0  0
   62.6960   31.4320   48.2490 N   0  0  0  0  0  0  0  0  0  0  0  0
   63.4800   32.5530   48.8020 C   0  0  0  0  0  0  0  0  0  0  0  0
   63.0800   33.8640   48.1190 C   0  0  0  0  0  0  0  0  0  0  0  0
   61.6300   33.8580   47.7040 C   0  0  0  0  0  0  0  0  0  0  0  0
   61.2710   33.5150   46.3890 C   0  0  0  0  0  0  0  0  0  0  0  0
   59.9250   33.4850   46.0110 C   0  0  0  0  0  0  0  0  0  0  0  0
   58.9240   33.7920   46.9430 C   0  0  0  0  0  0  0  0  0  0  0  0
   57.5810   33.7660   46.5780 O   0  0  0  0  0  0  0  0  0  0  0  0
   59.2770   34.1270   48.2550 C   0  0  0  0  0  0  0  0  0  0  0  0
   60.6220   34.1570   48.6360 C   0  0  0  0  0  0  0  0  0  0  0  0
   58.3549   29.5813   43.9325 H   0  0  0  0  0  0  0  0  0  0  0  0
   59.7121   29.4413   45.1050 H   0  0  0  0  0  0  0  0  0  0  0  0
   59.9728   27.4523   46.0159 H   0  0  0  0  0  0  0  0  0  0  0  0
   59.0793   25.3371   46.9801 H   0  0  0  0  0  0  0  0  0  0  0  0
   55.3569   24.5760   44.8250 H   0  0  0  0  0  0  0  0  0  0  0  0
   55.2507   23.9207   42.4115 H   0  0  0  0  0  0  0  0  0  0  0  0
   56.5812   21.9653   41.5956 H   0  0  0  0  0  0  0  0  0  0  0  0
   58.0229   20.7028   43.2057 H   0  0  0  0  0  0  0  0  0  0  0  0
   59.6514   29.2283   47.7737 H   0  0  0  0  0  0  0  0  0  0  0  0
   60.4366   30.7273   47.1696 H   0  0  0  0  0  0  0  0  0  0  0  0
   57.5356   31.1137   49.2947 H   0  0  0  0  0  0  0  0  0  0  0  0
   59.7541   32.3533   52.7861 H   0  0  0  0  0  0  0  0  0  0  0  0
   61.8778   31.6530   51.6971 H   0  0  0  0  0  0  0  0  0  0  0  0
   62.9997   30.4570   50.0892 H   0  0  0  0  0  0  0  0  0  0  0  0
   62.1114   29.5041   48.8380 H   0  0  0  0  0  0  0  0  0  0  0  0
   63.3030   30.9000   47.5790 H   0  0  0  0  0  0  0  0  0  0  0  0
   63.2885   32.6326   49.8823 H   0  0  0  0  0  0  0  0  0  0  0  0
   64.5493   32.3664   48.6236 H   0  0  0  0  0  0  0  0  0  0  0  0
   63.2468   34.6959   48.8191 H   0  0  0  0  0  0  0  0  0  0  0  0
   63.6947   33.9803   47.2143 H   0  0  0  0  0  0  0  0  0  0  0  0
   62.0519   33.2692   45.6543 H   0  0  0  0  0  0  0  0  0  0  0  0
   59.6509   33.2197   44.9793 H   0  0  0  0  0  0  0  0  0  0  0  0
   57.0870   32.8920   46.4410 H   0  0  0  0  0  0  0  0  0  0  0  0
   58.4938   34.3675   48.9890 H   0  0  0  0  0  0  0  0  0  0  0  0
   60.8922   34.4159   49.6704 H   0  0  0  0  0  0  0  0  0  0  0  0
  1  2  2  0
  2  3  1  0
  3  4  1  0
  4  5  1  0
  5  6  2  0
  6  7  1  0
  7  8  1  0
  8  9  1  0
  9 10  2  0
  9 11  1  0
 11 12  2  0
 12 13  1  0
 13 14  2  0
 14 15  1  0
 15 16  2  0
  7 17  2  0
 17 18  1  0
 17 19  1  0
 19 20  2  0
  2 21  1  0
 21 22  1  0
 22 23  1  0
 23 24  2  0
 24 25  1  0
 25 26  1  0
 25 27  2  0
 27 28  1  0
 28 29  2  0
 29 30  1  0
 30 31  1  0
 31 32  1  0
 32 33  1  0
 33 34  1  0
 34 35  2  0
 35 36  1  0
 36 37  2  0
 37 38  1  0
 37 39  1  0
 39 40  2  0
 19  4  1  0
 29 23  1  0
 40 34  1  0
 16 11  1  0
  3 41  1  0
  3 42  1  0
  5 43  1  0
  6 44  1  0
 12 45  1  0
 13 46  1  0
 14 47  1  0
 15 48  1  0
 22 49  1  0
 22 50  1  0
 24 51  1  0
 27 52  1  0
 28 53  1  0
 30 54  1  0
 30 55  1  0
 31 56  1  0
 32 57  1  0
 32 58  1  0
 33 59  1  0
 33 60  1  0
 35 61  1  0
 36 62  1  0
 38 63  1  0
 39 64  1  0
 40 65  1  0
M  CHG  3   8  -1  18  -1  21  -1
M  END
>  <UniqueID>  (1) 
1

>  <SMILES>  (1) 
O=C(Cn1ccc([N-]C(=O)c2ccccn2)c([O-])c1=O)[N-]Cc1cc(Cl)ccc1CNCCc1ccc(O)cc1

>  <Energy>  (1) 
74.7314032108517

>  <Genealogy>  (1) 
O=C(Cn1ccc([N-]C(=O)c2ccccn2)c([O-])c1=O)[N-]Cc1cc(Cl)ccc1CNCCc1ccc(O)cc1 (protonated)
O=C(Cn1ccc([N-]C(=O)c2ccccn2)c([O-])c1=O)[N-]Cc1cc(Cl)ccc1CNCCc1ccc(O)cc1 (3D coordinates assigned)
O=C(Cn1ccc([N-]C(=O)c2ccccn2)c([O-])c1=O)[N-]Cc1cc(Cl)ccc1CNCCc1ccc(O)cc1 (optimized conformer: 74.7314032108517 kcal/mol)

>  <smiles>  (1) 
O=C(Cn1ccc(NC(=O)c2ccccn2)c(O)c1=O)NCc1cc(Cl)ccc1CNCCc1ccc(O)cc1

>  <score_type>  (1) 
oracle

>  <origin>  (1) 
adg

>  <m_score__min__energy>  (1) 
-16.469999999999999

>  <m_primary>  (1) 
energy

$$$$
1:0
     RDKit          3D

 30 31  0  0  0  0  0  0  0  0999 V2000
   55.5150   28.2000   44.9070 H   0  0  0  0  0  0  0  0  0  0  0  0
   55.2750   29.2160   44.8740 N   0  0  0  0  0  0  0  0  0  0  0  0
   56.6820   30.0460   44.3120 S   0  0  0  0  0  0  0  0  0  0  0  0
   56.7010   31.4380   44.8780 O   0  0  0  0  0  0  0  0  0  0  0  0
   56.6450   30.1370   42.8110 O   0  0  0  0  0  0  0  0  0  0  0  0
   58.1230   29.1750   44.8220 C   0  0  0  0  0  0  0  0  0  0  0  0
   59.3950   29.6630   44.4920 C   0  0  0  0  0  0  0  0  0  0  0  0
   59.4933   30.5986   43.9219 H   0  0  0  0  0  0  0  0  0  0  0  0
   60.5380   28.9630   44.8860 C   0  0  0  0  0  0  0  0  0  0  0  0
   61.5342   29.3500   44.6257 H   0  0  0  0  0  0  0  0  0  0  0  0
   60.4210   27.7740   45.6090 C   0  0  0  0  0  0  0  0  0  0  0  0
   61.3250   27.2265   45.9140 H   0  0  0  0  0  0  0  0  0  0  0  0
   59.1520   27.2750   45.9480 C   0  0  0  0  0  0  0  0  0  0  0  0
   59.0150   25.9900   46.7220 C   0  0  0  0  0  0  0  0  0  0  0  0
   59.7713   25.9675   47.5204 H   0  0  0  0  0  0  0  0  0  0  0  0
   59.1612   25.1456   46.0324 H   0  0  0  0  0  0  0  0  0  0  0  0
   57.6840   25.8830   47.3190 N   0  0  0  0  0  0  0  0  0  0  0  0
   56.5810   25.6820   46.6580 C   0  0  0  0  0  0  0  0  0  0  0  0
   56.0580   24.4660   46.2540 C   0  0  0  0  0  0  0  0  0  0  0  0
   56.4681   23.4576   46.4118 H   0  0  0  0  0  0  0  0  0  0  0  0
   54.8930   24.8300   45.6030 C   0  0  0  0  0  0  0  0  0  0  0  0
   53.9110   23.9000   44.9770 C   0  0  0  0  0  0  0  0  0  0  0  0
   53.3531   23.3717   45.7642 H   0  0  0  0  0  0  0  0  0  0  0  0
   53.2100   24.4731   44.3524 H   0  0  0  0  0  0  0  0  0  0  0  0
   54.4451   23.1688   44.3524 H   0  0  0  0  0  0  0  0  0  0  0  0
   54.7620   26.1390   45.6390 O   0  0  0  0  0  0  0  0  0  0  0  0
   55.7660   26.6770   46.2660 N   0  0  0  0  0  0  0  0  0  0  0  0
   55.8950   27.7010   46.4270 H   0  0  0  0  0  0  0  0  0  0  0  0
   58.0050   27.9770   45.5410 C   0  0  0  0  0  0  0  0  0  0  0  0
   57.0077   27.5841   45.7881 H   0  0  0  0  0  0  0  0  0  0  0  0
  1  2  1  0
  2  3  1  0
  3  4  2  0
  3  5  2  0
  3  6  1  0
  6  7  2  0
  7  8  1  0
  7  9  1  0
  9 10  1  0
  9 11  2  0
 11 12  1  0
 11 13  1  0
 13 14  1  0
 14 15  1  0
 14 16  1  0
 14 17  1  0
 17 18  2  0
 18 19  1  0
 19 20  1  0
 19 21  2  0
 21 22  1  0
 22 23  1  0
 22 24  1  0
 22 25  1  0
 21 26  1  0
 26 27  1  0
 27 28  1  0
 13 29  2  0
 29 30  1  0
 29  6  1  0
 27 18  1  0
M  CHG  1   2  -1
M  END
>  <UniqueID>  (2) 
2

>  <SMILES>  (2) 
Cc1c/c(=N\Cc2cccc(S([NH-])(=O)=O)c2)[nH]o1

>  <Energy>  (2) 
59.9229213959732

>  <Genealogy>  (2) 
Cc1cc(=NCc2cccc(S([NH-])(=O)=O)c2)[nH]o1 (protonated)
Cc1c/c(=N\Cc2cccc(S([NH-])(=O)=O)c2)[nH]o1 (cis-trans isomerization)
Cc1c/c(=N\Cc2cccc(S([NH-])(=O)=O)c2)[nH]o1 (3D coordinates assigned)
Cc1c/c(=N\Cc2cccc(S([NH-])(=O)=O)c2)[nH]o1 (optimized conformer: 59.9229213959732 kcal/mol)

>  <smiles>  (2) 
Cc1cc(=NCc2cccc(S(N)(=O)=O)c2)[nH]o1

>  <score_type>  (2) 
oracle

>  <origin>  (2) 
adg

>  <m_score__min__energy>  (2) 
-10.369999999999999

>  <m_primary>  (2) 
energy

$$$$
2:0
     RDKit          3D

 59 62  0  0  0  0  0  0  0  0999 V2000
   61.7730   33.8790   49.8830 C   0  0  0  0  0  0  0  0  0  0  0  0
   63.0810   33.9400   49.2170 N   0  0  0  0  0  0  0  0  0  0  0  0
   64.1350   33.4730   50.1270 C   0  0  0  0  0  0  0  0  0  0  0  0
   63.0600   32.9520   47.7770 S   0  0  0  0  0  0  0  0  0  0  0  0
   64.0860   33.4630   46.8050 O   0  0  0  0  0  0  0  0  0  0  0  0
   63.4250   31.5400   48.1390 O   0  0  0  0  0  0  0  0  0  0  0  0
   61.4720   32.9630   47.0050 C   0  0  0  0  0  0  0  0  0  0  0  0
   60.8720   34.1720   46.6490 C   0  0  0  0  0  0  0  0  0  0  0  0
   59.6140   34.1880   46.0450 C   0  0  0  0  0  0  0  0  0  0  0  0
   58.9210   32.9830   45.7820 C   0  0  0  0  0  0  0  0  0  0  0  0
   59.5340   31.7550   46.1480 C   0  0  0  0  0  0  0  0  0  0  0  0
   60.8040   31.7600   46.7560 C   0  0  0  0  0  0  0  0  0  0  0  0
   58.8620   30.5470   45.8950 C   0  0  0  0  0  0  0  0  0  0  0  0
   59.3970   29.4440   46.2010 O   0  0  0  0  0  0  0  0  0  0  0  0
   57.5990   30.5640   45.2850 C   0  0  0  0  0  0  0  0  0  0  0  0
   56.8630   29.3050   45.0000 C   0  0  0  0  0  0  0  0  0  0  0  0
   55.6100   29.2770   45.1310 O   0  0  0  0  0  0  0  0  0  0  0  0
   57.5300   28.1290   44.5210 N   0  0  0  0  0  0  0  0  0  0  0  0
   57.6990   26.9120   45.2560 C   0  0  0  0  0  0  0  0  0  0  0  0
   58.7790   26.0380   45.1700 C   0  0  0  0  0  0  0  0  0  0  0  0
   58.6430   24.9280   46.0090 C   0  0  0  0  0  0  0  0  0  0  0  0
   57.4750   24.9560   46.7590 C   0  0  0  0  0  0  0  0  0  0  0  0
   56.9170   23.6630   47.8050 S   0  0  0  0  0  0  0  0  0  0  0  0
   55.4200   23.7190   47.9310 O   0  0  0  0  0  0  0  0  0  0  0  0
   57.5280   23.8350   49.1680 O   0  0  0  0  0  0  0  0  0  0  0  0
   57.3980   22.1300   47.1420 N   0  0  0  0  0  0  0  0  0  0  0  0
   56.2370   21.4560   46.5630 C   0  0  0  0  0  0  0  0  0  0  0  0
   55.9770   21.9890   45.1830 C   0  0  0  0  0  0  0  0  0  0  0  0
   55.2370   23.1680   45.0020 C   0  0  0  0  0  0  0  0  0  0  0  0
   55.0100   23.6570   43.7130 C   0  0  0  0  0  0  0  0  0  0  0  0
   55.5410   22.9740   42.6180 C   0  0  0  0  0  0  0  0  0  0  0  0
   56.2760   21.8450   42.8100 N   0  0  0  0  0  0  0  0  0  0  0  0
   56.5070   21.3440   44.0550 C   0  0  0  0  0  0  0  0  0  0  0  0
   56.5940   26.3380   46.3830 S   0  0  0  0  0  0  0  0  0  0  0  0
   57.0240   31.7990   44.9530 C   0  0  0  0  0  0  0  0  0  0  0  0
   57.6750   32.9790   45.1870 N   0  0  0  0  0  0  0  0  0  0  0  0
   57.0070   34.2300   44.7890 C   0  0  0  0  0  0  0  0  0  0  0  0
   61.9162   33.8857   50.9736 H   0  0  0  0  0  0  0  0  0  0  0  0
   61.1699   34.7500   49.5870 H   0  0  0  0  0  0  0  0  0  0  0  0
   61.2535   32.9557   49.5870 H   0  0  0  0  0  0  0  0  0  0  0  0
   63.8106   33.6167   51.1682 H   0  0  0  0  0  0  0  0  0  0  0  0
   64.3281   32.4051   49.9472 H   0  0  0  0  0  0  0  0  0  0  0  0
   65.0557   34.0474   49.9472 H   0  0  0  0  0  0  0  0  0  0  0  0
   61.3948   35.1195   46.8461 H   0  0  0  0  0  0  0  0  0  0  0  0
   59.1556   35.1494   45.7700 H   0  0  0  0  0  0  0  0  0  0  0  0
   61.2758   30.8072   47.0382 H   0  0  0  0  0  0  0  0  0  0  0  0
   59.6457   26.2029   44.5130 H   0  0  0  0  0  0  0  0  0  0  0  0
   59.3840   24.1172   46.0687 H   0  0  0  0  0  0  0  0  0  0  0  0
   57.7500   21.5510   47.9380 H   0  0  0  0  0  0  0  0  0  0  0  0
   56.4326   20.3750   46.5064 H   0  0  0  0  0  0  0  0  0  0  0  0
   55.3564   21.6399   47.1960 H   0  0  0  0  0  0  0  0  0  0  0  0
   54.8364   23.7062   45.8737 H   0  0  0  0  0  0  0  0  0  0  0  0
   54.4182   24.5719   43.5627 H   0  0  0  0  0  0  0  0  0  0  0  0
   55.3653   23.3486   41.5988 H   0  0  0  0  0  0  0  0  0  0  0  0
   57.1101   20.4321   44.1767 H   0  0  0  0  0  0  0  0  0  0  0  0
   56.0250   31.8194   44.4931 H   0  0  0  0  0  0  0  0  0  0  0  0
   56.7087   34.7886   45.6884 H   0  0  0  0  0  0  0  0  0  0  0  0
   57.6990   34.8409   44.1907 H   0  0  0  0  0  0  0  0  0  0  0  0
   56.1144   33.9948   44.1907 H   0  0  0  0  0  0  0  0  0  0  0  0
  1  2  1  0
  2  3  1  0
  2  4  1  0
  4  5  2  0
  4  6  2  0
  4  7  1  0
  7  8  2  0
  8  9  1  0
  9 10  2  0
 10 11  1  0
 11 12  2  0
 11 13  1  0
 13 14  2  0
 13 15  1  0
 15 16  1  0
 16 17  2  0
 16 18  1  0
 18 19  1  0
 19 20  2  0
 20 21  1  0
 21 22  2  0
 22 23  1  0
 23 24  2  0
 23 25  2  0
 23 26  1  0
 26 27  1  0
 27 28  1  0
 28 29  2  0
 29 30  1  0
 30 31  2  0
 31 32  1  0
 32 33  2  0
 22 34  1  0
 15 35  2  0
 35 36  1  0
 36 37  1  0
 12  7  1  0
 34 19  1  0
 36 10  1  0
 33 28  1  0
  1 38  1  0
  1 39  1  0
  1 40  1  0
  3 41  1  0
  3 42  1  0
  3 43  1  0
  8 44  1  0
  9 45  1  0
 12 46  1  0
 20 47  1  0
 21 48  1  0
 26 49  1  0
 27 50  1  0
 27 51  1  0
 29 52  1  0
 30 53  1  0
 31 54  1  0
 33 55  1  0
 35 56  1  0
 37 57  1  0
 37 58  1  0
 37 59  1  0
M  CHG  1  18  -1
M  END
>  <UniqueID>  (3) 
3

>  <SMILES>  (3) 
CN(C)S(=O)(=O)c1ccc2c(c1)c(=O)c(C(=O)[N-]c1ccc(S(=O)(=O)NCc3cccnc3)s1)cn2C

>  <Energy>  (3) 
99.76946263501853

>  <Genealogy>  (3) 
CN(C)S(=O)(=O)c1ccc2c(c1)c(=O)c(C(=O)[N-]c1ccc(S(=O)(=O)NCc3cccnc3)s1)cn2C (protonated)
CN(C)S(=O)(=O)c1ccc2c(c1)c(=O)c(C(=O)[N-]c1ccc(S(=O)(=O)NCc3cccnc3)s1)cn2C (3D coordinates assigned)
CN(C)S(=O)(=O)c1ccc2c(c1)c(=O)c(C(=O)[N-]c1ccc(S(=O)(=O)NCc3cccnc3)s1)cn2C (optimized conformer: 99.76946263501853 kcal/mol)

>  <smiles>  (3) 
CN(C)S(=O)(=O)c1ccc2c(c1)c(=O)c(C(=O)Nc1ccc(S(=O)(=O)NCc3cccnc3)s1)cn2C

>  <score_type>  (3) 
oracle

>  <origin>  (3) 
adg

>  <m_score__min__energy>  (3) 
-11.57

>  <m_primary>  (3) 
energy

$$$$
3:0
     RDKit          3D

 49 52  0  0  0  0  0  0  0  0999 V2000
   59.6210   35.7620   45.0990 C   0  0  0  0  0  0  0  0  0  0  0  0
   59.0640   34.5980   45.8640 C   0  0  0  0  0  0  0  0  0  0  0  0
   59.4190   34.4000   47.2070 C   0  0  0  0  0  0  0  0  0  0  0  0
   58.9390   33.2890   47.9040 C   0  0  0  0  0  0  0  0  0  0  0  0
   58.1040   32.3660   47.2680 C   0  0  0  0  0  0  0  0  0  0  0  0
   57.7340   32.5560   45.9240 C   0  0  0  0  0  0  0  0  0  0  0  0
   56.9060   31.6170   45.2230 N   0  0  0  0  0  0  0  0  0  0  0  0
   57.3520   30.5530   44.3710 C   0  0  0  0  0  0  0  0  0  0  0  0
   57.0190   30.5370   43.1540 O   0  0  0  0  0  0  0  0  0  0  0  0
   58.2460   29.4990   44.9060 C   0  0  0  0  0  0  0  0  0  0  0  0
   59.6310   29.5460   44.6670 C   0  0  0  0  0  0  0  0  0  0  0  0
   60.4710   28.5510   45.1720 C   0  0  0  0  0  0  0  0  0  0  0  0
   59.9440   27.5000   45.9230 C   0  0  0  0  0  0  0  0  0  0  0  0
   58.5670   27.4390   46.1850 C   0  0  0  0  0  0  0  0  0  0  0  0
   57.9930   26.3070   46.9980 C   0  0  0  0  0  0  0  0  0  0  0  0
   56.7690   25.7170   46.3380 C   0  0  0  0  0  0  0  0  0  0  0  0
   55.5860   26.3660   46.5090 N   0  0  0  0  0  0  0  0  0  0  0  0
   54.4470   25.9100   45.9930 N   0  0  0  0  0  0  0  0  0  0  0  0
   54.4010   24.7620   45.2770 C   0  0  0  0  0  0  0  0  0  0  0  0
   53.3000   24.3770   44.8000 O   0  0  0  0  0  0  0  0  0  0  0  0
   55.5740   24.0170   45.0730 C   0  0  0  0  0  0  0  0  0  0  0  0
   56.7970   24.5180   45.5860 C   0  0  0  0  0  0  0  0  0  0  0  0
   58.0830   23.7230   45.4320 C   0  0  0  0  0  0  0  0  0  0  0  0
   58.0210   22.6890   44.3070 C   0  0  0  0  0  0  0  0  0  0  0  0
   56.7440   21.8630   44.4190 C   0  0  0  0  0  0  0  0  0  0  0  0
   55.5210   22.7600   44.2280 C   0  0  0  0  0  0  0  0  0  0  0  0
   57.7220   28.4340   45.6640 C   0  0  0  0  0  0  0  0  0  0  0  0
   58.2400   33.6590   45.2220 C   0  0  0  0  0  0  0  0  0  0  0  0
   59.9854   36.5236   45.8041 H   0  0  0  0  0  0  0  0  0  0  0  0
   60.4532   35.4203   44.4660 H   0  0  0  0  0  0  0  0  0  0  0  0
   58.8328   36.1957   44.4660 H   0  0  0  0  0  0  0  0  0  0  0  0
   60.0773   35.1220   47.7124 H   0  0  0  0  0  0  0  0  0  0  0  0
   59.2191   33.1398   48.9572 H   0  0  0  0  0  0  0  0  0  0  0  0
   57.7352   31.4888   47.8198 H   0  0  0  0  0  0  0  0  0  0  0  0
   60.0558   30.3723   44.0781 H   0  0  0  0  0  0  0  0  0  0  0  0
   61.5526   28.5962   44.9768 H   0  0  0  0  0  0  0  0  0  0  0  0
   60.6108   26.7160   46.3113 H   0  0  0  0  0  0  0  0  0  0  0  0
   58.7553   25.5212   47.1049 H   0  0  0  0  0  0  0  0  0  0  0  0
   57.6983   26.7028   47.9811 H   0  0  0  0  0  0  0  0  0  0  0  0
   58.9036   24.4236   45.2181 H   0  0  0  0  0  0  0  0  0  0  0  0
   58.2426   23.1743   46.3719 H   0  0  0  0  0  0  0  0  0  0  0  0
   58.0345   23.2069   43.3366 H   0  0  0  0  0  0  0  0  0  0  0  0
   58.8895   22.0189   44.3879 H   0  0  0  0  0  0  0  0  0  0  0  0
   56.7468   21.0816   43.6448 H   0  0  0  0  0  0  0  0  0  0  0  0
   56.6999   21.4009   45.4162 H   0  0  0  0  0  0  0  0  0  0  0  0
   55.4613   23.0512   43.1689 H   0  0  0  0  0  0  0  0  0  0  0  0
   54.6378   22.1860   44.5451 H   0  0  0  0  0  0  0  0  0  0  0  0
   56.6392   28.3803   45.8504 H   0  0  0  0  0  0  0  0  0  0  0  0
   57.9895   33.7902   44.1590 H   0  0  0  0  0  0  0  0  0  0  0  0
  1  2  1  0
  2  3  2  0
  3  4  1  0
  4  5  2  0
  5  6  1  0
  6  7  1  0
  7  8  1  0
  8  9  2  0
  8 10  1  0
 10 11  2  0
 11 12  1  0
 12 13  2  0
 13 14  1  0
 14 15  1  0
 15 16  1  0
 16 17  2  0
 17 18  1  0
 18 19  1  0
 19 20  2  0
 19 21  1  0
 21 22  2  0
 22 23  1  0
 23 24  1  0
 24 25  1  0
 25 26  1  0
 14 27  2  0
  6 28  2  0
 28  2  1  0
 27 10  1  0
 22 16  1  0
 26 21  1  0
  1 29  1  0
  1 30  1  0
  1 31  1  0
  3 32  1  0
  4 33  1  0
  5 34  1  0
 11 35  1  0
 12 36  1  0
 13 37  1  0
 15 38  1  0
 15 39  1  0
 23 40  1  0
 23 41  1  0
 24 42  1  0
 24 43  1  0
 25 44  1  0
 25 45  1  0
 26 46  1  0
 26 47  1  0
 27 48  1  0
 28 49  1  0
M  CHG  2   7  -1  18  -1
M  END
>  <UniqueID>  (4) 
4

>  <SMILES>  (4) 
Cc1cccc([N-]C(=O)c2cccc(Cc3n[n-]c(=O)c4c3CCCC4)c2)c1

>  <Energy>  (4) 
58.05795760441327

>  <Genealogy>  (4) 
Cc1cccc([N-]C(=O)c2cccc(Cc3n[n-]c(=O)c4c3CCCC4)c2)c1 (protonated)
Cc1cccc([N-]C(=O)c2cccc(Cc3n[n-]c(=O)c4c3CCCC4)c2)c1 (3D coordinates assigned)
Cc1cccc([N-]C(=O)c2cccc(Cc3n[n-]c(=O)c4c3CCCC4)c2)c1 (nonaromatic ring conformer: 58.05795760441327 kcal/mol)

>  <smiles>  (4) 
Cc1cccc(NC(=O)c2cccc(Cc3n[nH]c(=O)c4c3CCCC4)c2)c1

>  <score_type>  (4) 
oracle

>  <origin>  (4) 
adg

>  <m_score__min__energy>  (4) 
-14.050000000000001

>  <m_primary>  (4) 
energy

$$$$
4:0
     RDKit          3D

 31 33  0  0  0  0  0  0  0  0999 V2000
   60.7460   31.2660   48.1780 O   0  0  0  0  0  0  0  0  0  0  0  0
   59.5930   31.2420   47.6660 C   0  0  0  0  0  0  0  0  0  0  0  0
   58.7660   30.1230   47.8310 O   0  0  0  0  0  0  0  0  0  0  0  0
   59.0970   28.8010   47.4900 C   0  0  0  0  0  0  0  0  0  0  0  0
   59.9860   28.0420   48.2750 C   0  0  0  0  0  0  0  0  0  0  0  0
   60.3010   26.7300   47.9190 C   0  0  0  0  0  0  0  0  0  0  0  0
   59.7230   26.1550   46.7900 C   0  0  0  0  0  0  0  0  0  0  0  0
   58.8220   26.8860   46.0140 C   0  0  0  0  0  0  0  0  0  0  0  0
   58.4990   28.2130   46.3520 C   0  0  0  0  0  0  0  0  0  0  0  0
   57.5270   28.9830   45.5360 C   0  0  0  0  0  0  0  0  0  0  0  0
   57.7950   30.1240   44.9460 O   0  0  0  0  0  0  0  0  0  0  0  0
   56.7010   30.4960   44.3230 C   0  0  0  0  0  0  0  0  0  0  0  0
   56.6160   31.5580   43.6530 O   0  0  0  0  0  0  0  0  0  0  0  0
   55.6730   29.6330   44.4610 N   0  0  0  0  0  0  0  0  0  0  0  0
   56.2140   28.6730   45.2350 C   0  0  0  0  0  0  0  0  0  0  0  0
   55.5280   27.5290   45.6230 O   0  0  0  0  0  0  0  0  0  0  0  0
   59.1320   32.3740   46.8330 C   0  0  0  0  0  0  0  0  0  0  0  0
   60.0640   33.1800   46.1530 C   0  0  0  0  0  0  0  0  0  0  0  0
   59.6310   34.2520   45.3660 C   0  0  0  0  0  0  0  0  0  0  0  0
   58.2660   34.5290   45.2480 C   0  0  0  0  0  0  0  0  0  0  0  0
   57.3330   33.7350   45.9160 C   0  0  0  0  0  0  0  0  0  0  0  0
   57.7600   32.6620   46.7060 C   0  0  0  0  0  0  0  0  0  0  0  0
   60.4354   28.4864   49.1753 H   0  0  0  0  0  0  0  0  0  0  0  0
   61.0068   26.1492   48.5310 H   0  0  0  0  0  0  0  0  0  0  0  0
   59.9771   25.1223   46.5091 H   0  0  0  0  0  0  0  0  0  0  0  0
   58.3605   26.4206   45.1306 H   0  0  0  0  0  0  0  0  0  0  0  0
   61.1393   32.9656   46.2410 H   0  0  0  0  0  0  0  0  0  0  0  0
   60.3659   34.8782   44.8390 H   0  0  0  0  0  0  0  0  0  0  0  0
   57.9274   35.3727   44.6287 H   0  0  0  0  0  0  0  0  0  0  0  0
   56.2590   33.9532   45.8213 H   0  0  0  0  0  0  0  0  0  0  0  0
   57.0196   32.0402   47.2306 H   0  0  0  0  0  0  0  0  0  0  0  0
  1  2  2  0
  2  3  1  0
  3  4  1  0
  4  5  2  0
  5  6  1  0
  6  7  2  0
  7  8  1  0
  8  9  2  0
  9 10  1  0
 10 11  1  0
 11 12  1  0
 12 13  2  0
 12 14  1  0
 14 15  1  0
 15 16  1  0
  2 17  1  0
 17 18  2  0
 18 19  1  0
 19 20  2  0
 20 21  1  0
 21 22  2  0
  9  4  1  0
 15 10  2  0
 22 17  1  0
  5 23  1  0
  6 24  1  0
  7 25  1  0
  8 26  1  0
 18 27  1  0
 19 28  1  0
 20 29  1  0
 21 30  1  0
 22 31  1  0
M  CHG  2  14  -1  16  -1
M  END
>  <UniqueID>  (5) 
5

>  <SMILES>  (5) 
O=C(Oc1ccccc1-c1oc(=O)[n-]c1[O-])c1ccccc1

>  <Energy>  (5) 
74.26888652068686

>  <Genealogy>  (5) 
O=C(Oc1ccccc1-c1oc(=O)[n-]c1[O-])c1ccccc1 (protonated)
O=C(Oc1ccccc1-c1oc(=O)[n-]c1[O-])c1ccccc1 (3D coordinates assigned)
O=C(Oc1ccccc1-c1oc(=O)[n-]c1[O-])c1ccccc1 (optimized conformer: 74.26888652068686 kcal/mol)

>  <smiles>  (5) 
O=C(Oc1ccccc1-c1oc(=O)[nH]c1O)c1ccccc1

>  <score_type>  (5) 
oracle

>  <origin>  (5) 
adg

>  <m_score__min__energy>  (5) 
-13.93

>  <m_primary>  (5) 
energy

$$$$
5:0
     RDKit          3D

 42 44  0  0  0  0  0  0  0  0999 V2000
   54.9860   24.7430   45.3720 C   0  0  0  0  0  0  0  0  0  0  0  0
   55.1410   26.1350   45.6340 O   0  0  0  0  0  0  0  0  0  0  0  0
   56.3490   26.7430   46.0110 C   0  0  0  0  0  0  0  0  0  0  0  0
   57.3260   26.0620   46.7610 C   0  0  0  0  0  0  0  0  0  0  0  0
   58.5140   26.7010   47.1210 C   0  0  0  0  0  0  0  0  0  0  0  0
   58.7410   28.0350   46.7500 C   0  0  0  0  0  0  0  0  0  0  0  0
   59.9590   28.7180   47.0780 N   0  0  0  0  0  0  0  0  0  0  0  0
   60.6600   29.6570   46.2510 C   0  0  0  0  0  0  0  0  0  0  0  0
   61.1410   29.2950   45.1440 O   0  0  0  0  0  0  0  0  0  0  0  0
   60.9390   31.0200   46.7510 C   0  0  0  0  0  0  0  0  0  0  0  0
   62.1430   31.2570   47.3490 N   0  0  0  0  0  0  0  0  0  0  0  0
   62.4590   32.4420   47.8860 N   0  0  0  0  0  0  0  0  0  0  0  0
   63.7630   32.6120   48.5380 C   0  0  0  0  0  0  0  0  0  0  0  0
   61.5660   33.4790   47.8700 C   0  0  0  0  0  0  0  0  0  0  0  0
   61.8670   34.5800   48.4110 O   0  0  0  0  0  0  0  0  0  0  0  0
   60.3190   33.3180   47.2460 C   0  0  0  0  0  0  0  0  0  0  0  0
   59.3930   34.3780   47.1850 C   0  0  0  0  0  0  0  0  0  0  0  0
   58.1750   34.2140   46.5260 C   0  0  0  0  0  0  0  0  0  0  0  0
   57.8710   33.0020   45.9090 C   0  0  0  0  0  0  0  0  0  0  0  0
   58.7750   31.9390   45.9640 C   0  0  0  0  0  0  0  0  0  0  0  0
   60.0000   32.0730   46.6560 C   0  0  0  0  0  0  0  0  0  0  0  0
   57.7820   28.7050   45.9840 C   0  0  0  0  0  0  0  0  0  0  0  0
   56.5800   28.0700   45.6160 C   0  0  0  0  0  0  0  0  0  0  0  0
   55.5930   28.7210   44.8600 O   0  0  0  0  0  0  0  0  0  0  0  0
   55.8530   29.7470   43.9060 C   0  0  0  0  0  0  0  0  0  0  0  0
   54.9250   24.1953   46.3240 H   0  0  0  0  0  0  0  0  0  0  0  0
   54.0640   24.5790   44.7949 H   0  0  0  0  0  0  0  0  0  0  0  0
   55.8493   24.3802   44.7949 H   0  0  0  0  0  0  0  0  0  0  0  0
   57.1525   25.0194   47.0656 H   0  0  0  0  0  0  0  0  0  0  0  0
   59.2756   26.1561   47.6982 H   0  0  0  0  0  0  0  0  0  0  0  0
   62.8280   30.4690   47.4080 H   0  0  0  0  0  0  0  0  0  0  0  0
   63.6319   32.5949   49.6300 H   0  0  0  0  0  0  0  0  0  0  0  0
   64.4333   31.7936   48.2363 H   0  0  0  0  0  0  0  0  0  0  0  0
   64.2011   33.5749   48.2363 H   0  0  0  0  0  0  0  0  0  0  0  0
   59.6322   35.3408   47.6601 H   0  0  0  0  0  0  0  0  0  0  0  0
   57.4527   35.0430   46.4931 H   0  0  0  0  0  0  0  0  0  0  0  0
   56.9158   32.8822   45.3769 H   0  0  0  0  0  0  0  0  0  0  0  0
   58.5316   30.9896   45.4646 H   0  0  0  0  0  0  0  0  0  0  0  0
   57.9688   29.7410   45.6649 H   0  0  0  0  0  0  0  0  0  0  0  0
   56.0905   30.6841   44.4309 H   0  0  0  0  0  0  0  0  0  0  0  0
   56.7052   29.4539   43.2753 H   0  0  0  0  0  0  0  0  0  0  0  0
   54.9640   29.8951   43.2753 H   0  0  0  0  0  0  0  0  0  0  0  0
  1  2  1  0
  2  3  1  0
  3  4  2  0
  4  5  1  0
  5  6  2  0
  6  7  1  0
  7  8  1  0
  8  9  2  0
  8 10  1  0
 10 11  2  0
 11 12  1  0
 12 13  1  0
 12 14  1  0
 14 15  2  0
 14 16  1  0
 16 17  2  0
 17 18  1  0
 18 19  2  0
 19 20  1  0
 20 21  2  0
  6 22  1  0
 22 23  2  0
 23 24  1  0
 24 25  1  0
 23  3  1  0
 21 10  1  0
 21 16  1  0
  1 26  1  0
  1 27  1  0
  1 28  1  0
  4 29  1  0
  5 30  1  0
 11 31  1  0
 13 32  1  0
 13 33  1  0
 13 34  1  0
 17 35  1  0
 18 36  1  0
 19 37  1  0
 20 38  1  0
 22 39  1  0
 25 40  1  0
 25 41  1  0
 25 42  1  0
M  CHG  2   7  -1  11   1
M  END
>  <UniqueID>  (6) 
6

>  <SMILES>  (6) 
COc1ccc([N-]C(=O)c2[nH+]n(C)c(=O)c3ccccc23)cc1OC

>  <Energy>  (6) 
59.93109582638795

>  <Genealogy>  (6) 
COc1ccc([N-]C(=O)c2[nH+]n(C)c(=O)c3ccccc23)cc1OC (protonated)
COc1ccc([N-]C(=O)c2[nH+]n(C)c(=O)c3ccccc23)cc1OC (3D coordinates assigned)
COc1ccc([N-]C(=O)c2[nH+]n(C)c(=O)c3ccccc23)cc1OC (optimized conformer: 59.93109582638795 kcal/mol)

>  <smiles>  (6) 
COc1ccc(NC(=O)c2nn(C)c(=O)c3ccccc23)cc1OC

>  <score_type>  (6) 
oracle

>  <origin>  (6) 
adg

>  <m_score__min__energy>  (6) 
-7.6600000000000001

>  <m_primary>  (6) 
energy

$$$$
6:0
     RDKit          3D

 68 72  0  0  0  0  0  0  0  0999 V2000
   68.0020   29.1890   53.2440 C   0  0  0  0  0  0  0  0  0  0  0  0
   67.3890   30.5130   52.7770 C   0  0  2  0  0  0  0  0  0  0  0  0
   66.7990   30.3820   51.3510 C   0  0  0  0  0  0  0  0  0  0  0  0
   67.0060   31.6460   50.4920 C   0  0  0  0  0  0  0  0  0  0  0  0
   66.8680   32.8980   51.2650 N   0  0  1  0  0  0  0  0  0  0  0  0
   65.2030   33.1900   51.7430 S   0  0  0  0  0  0  0  0  0  0  0  0
   65.0820   34.4520   52.5550 O   0  0  0  0  0  0  0  0  0  0  0  0
   64.6740   32.0460   52.5650 O   0  0  0  0  0  0  0  0  0  0  0  0
   64.2240   33.3370   50.2840 C   0  0  0  0  0  0  0  0  0  0  0  0
   64.8050   33.1310   49.0250 C   0  0  0  0  0  0  0  0  0  0  0  0
   64.0520   33.3140   47.8620 C   0  0  0  0  0  0  0  0  0  0  0  0
   62.7080   33.7260   47.9470 C   0  0  0  0  0  0  0  0  0  0  0  0
   61.9200   33.9580   46.8060 C   0  0  0  0  0  0  0  0  0  0  0  0
   62.4190   33.7780   45.6600 O   0  0  0  0  0  0  0  0  0  0  0  0
   60.6180   34.3800   46.9370 N   0  0  0  0  0  0  0  0  0  0  0  0
   59.8160   34.6920   45.7360 C   0  0  0  0  0  0  0  0  0  0  0  0
   58.9240   33.5270   45.3830 C   0  0  0  0  0  0  0  0  0  0  0  0
   58.5410   32.6020   46.3680 C   0  0  0  0  0  0  0  0  0  0  0  0
   57.7710   31.4850   46.0300 C   0  0  0  0  0  0  0  0  0  0  0  0
   57.3520   31.2890   44.7070 C   0  0  0  0  0  0  0  0  0  0  0  0
   56.5460   30.1070   44.3620 C   0  0  0  0  0  0  0  0  0  0  0  0
   55.3990   29.9760   44.8650 O   0  0  0  0  0  0  0  0  0  0  0  0
   57.0170   29.1110   43.4420 N   0  0  0  0  0  0  0  0  0  0  0  0
   58.0300   28.1030   43.7360 C   0  0  0  0  0  0  0  0  0  0  0  0
   58.5600   28.2790   45.1350 C   0  0  0  0  0  0  0  0  0  0  0  0
   57.9750   27.5950   46.2160 C   0  0  0  0  0  0  0  0  0  0  0  0
   58.4410   27.8060   47.5170 C   0  0  0  0  0  0  0  0  0  0  0  0
   59.4970   28.6920   47.7490 C   0  0  0  0  0  0  0  0  0  0  0  0
   60.0910   29.3740   46.6770 C   0  0  0  0  0  0  0  0  0  0  0  0
   61.4010   30.5000   46.9740 Cl  0  0  0  0  0  0  0  0  0  0  0  0
   59.6220   29.1690   45.3740 C   0  0  0  0  0  0  0  0  0  0  0  0
   57.7380   32.2070   43.7190 C   0  0  0  0  0  0  0  0  0  0  0  0
   58.5200   33.3190   44.0550 C   0  0  0  0  0  0  0  0  0  0  0  0
   60.0860   34.5630   48.1910 C   0  0  0  0  0  0  0  0  0  0  0  0
   58.8920   34.9390   48.3390 O   0  0  0  0  0  0  0  0  0  0  0  0
   60.8370   34.3360   49.2980 N   0  0  0  0  0  0  0  0  0  0  0  0
   62.1270   33.9310   49.2100 C   0  0  0  0  0  0  0  0  0  0  0  0
   62.8810   33.7310   50.3730 C   0  0  0  0  0  0  0  0  0  0  0  0
   67.8100   32.9960   52.4150 C   0  0  0  0  0  0  0  0  0  0  0  0
   68.4220   31.6480   52.8500 C   0  0  0  0  0  0  0  0  0  0  0  0
   68.0159   29.1590   54.3435 H   0  0  0  0  0  0  0  0  0  0  0  0
   67.4001   28.3513   52.8619 H   0  0  0  0  0  0  0  0  0  0  0  0
   69.0302   29.1060   52.8619 H   0  0  0  0  0  0  0  0  0  0  0  0
   66.5617   30.7644   53.4570 H   0  0  0  0  0  0  0  0  0  0  0  0
   67.2851   29.5332   50.8477 H   0  0  0  0  0  0  0  0  0  0  0  0
   65.7145   30.2318   51.4573 H   0  0  0  0  0  0  0  0  0  0  0  0
   68.0155   31.6124   50.0564 H   0  0  0  0  0  0  0  0  0  0  0  0
   66.2247   31.6494   49.7177 H   0  0  0  0  0  0  0  0  0  0  0  0
   67.1020   33.6760   50.6030 H   0  0  0  0  0  0  0  0  0  0  0  0
   65.8587   32.8238   48.9521 H   0  0  0  0  0  0  0  0  0  0  0  0
   64.5101   33.1358   46.8779 H   0  0  0  0  0  0  0  0  0  0  0  0
   59.1944   35.5774   45.9350 H   0  0  0  0  0  0  0  0  0  0  0  0
   60.4957   34.8895   44.8940 H   0  0  0  0  0  0  0  0  0  0  0  0
   58.8489   32.7574   47.4125 H   0  0  0  0  0  0  0  0  0  0  0  0
   57.4928   30.7567   46.8060 H   0  0  0  0  0  0  0  0  0  0  0  0
   57.5829   27.1024   43.6416 H   0  0  0  0  0  0  0  0  0  0  0  0
   58.8610   28.2161   43.0242 H   0  0  0  0  0  0  0  0  0  0  0  0
   57.1482   26.8918   46.0371 H   0  0  0  0  0  0  0  0  0  0  0  0
   57.9758   27.2738   48.3598 H   0  0  0  0  0  0  0  0  0  0  0  0
   59.8626   28.8545   48.7737 H   0  0  0  0  0  0  0  0  0  0  0  0
   60.0861   29.7063   44.5338 H   0  0  0  0  0  0  0  0  0  0  0  0
   57.4250   32.0527   42.6758 H   0  0  0  0  0  0  0  0  0  0  0  0
   58.8193   34.0334   43.2739 H   0  0  0  0  0  0  0  0  0  0  0  0
   62.4185   33.8834   51.3593 H   0  0  0  0  0  0  0  0  0  0  0  0
   68.6305   33.6717   52.1318 H   0  0  0  0  0  0  0  0  0  0  0  0
   67.2263   33.3679   53.2700 H   0  0  0  0  0  0  0  0  0  0  0  0
   69.2655   31.4073   52.1863 H   0  0  0  0  0  0  0  0  0  0  0  0
   68.7597   31.7418   53.8927 H   0  0  0  0  0  0  0  0  0  0  0  0
  1  2  1  0
  2  3  1  0
  3  4  1  0
  4  5  1  0
  5  6  1  0
  6  7  2  0
  6  8  2  0
  6  9  1  0
  9 10  2  0
 10 11  1  0
 11 12  2  0
 12 13  1  0
 13 14  2  0
 13 15  1  0
 15 16  1  0
 16 17  1  0
 17 18  2  0
 18 19  1  0
 19 20  2  0
 20 21  1  0
 21 22  2  0
 21 23  1  0
 23 24  1  0
 24 25  1  0
 25 26  2  0
 26 27  1  0
 27 28  2  0
 28 29  1  0
 29 30  1  0
 29 31  2  0
 20 32  1  0
 32 33  2  0
 15 34  1  0
 34 35  2  0
 34 36  1  0
 36 37  1  0
 37 38  2  0
  5 39  1  0
 39 40  1  0
 40  2  1  0
 38  9  1  0
 37 12  1  0
 33 17  1  0
 31 25  1  0
  1 41  1  0
  1 42  1  0
  1 43  1  0
  2 44  1  1
  3 45  1  0
  3 46  1  0
  4 47  1  0
  4 48  1  0
  5 49  1  6
 10 50  1  0
 11 51  1  0
 16 52  1  0
 16 53  1  0
 18 54  1  0
 19 55  1  0
 24 56  1  0
 24 57  1  0
 26 58  1  0
 27 59  1  0
 28 60  1  0
 31 61  1  0
 32 62  1  0
 33 63  1  0
 38 64  1  0
 39 65  1  0
 39 66  1  0
 40 67  1  0
 40 68  1  0
M  CHG  3   5   1  23  -1  36  -1
M  END
>  <UniqueID>  (7) 
7

>  <SMILES>  (7) 
CC1CC[NH+](S(=O)(=O)c2ccc3c(=O)n(Cc4ccc(C(=O)[N-]Cc5cccc(Cl)c5)cc4)c(=O)[n-]c3c2)CC1

>  <Energy>  (7) 
90.13948060147241

>  <Genealogy>  (7) 
CC1CC[NH+](S(=O)(=O)c2ccc3c(=O)n(Cc4ccc(C(=O)[N-]Cc5cccc(Cl)c5)cc4)c(=O)[n-]c3c2)CC1 (protonated)
CC1CC[NH+](S(=O)(=O)c2ccc3c(=O)n(Cc4ccc(C(=O)[N-]Cc5cccc(Cl)c5)cc4)c(=O)[n-]c3c2)CC1 (3D coordinates assigned)
CC1CC[NH+](S(=O)(=O)c2ccc3c(=O)n(Cc4ccc(C(=O)[N-]Cc5cccc(Cl)c5)cc4)c(=O)[n-]c3c2)CC1 (nonaromatic ring conformer: 90.13948060147241 kcal/mol)

>  <smiles>  (7) 
CC1CCN(S(=O)(=O)c2ccc3c(=O)n(Cc4ccc(C(=O)NCc5cccc(Cl)c5)cc4)c(=O)[nH]c3c2)CC1

>  <score_type>  (7) 
oracle

>  <origin>  (7) 
adg

>  <m_score__min__energy>  (7) 
-11.58

>  <m_primary>  (7) 
energy

$$$$
7:0
     RDKit          3D

 48 51  0  0  0  0  0  0  0  0999 V2000
   59.5160   29.3620   48.7940 C   0  0  0  0  0  0  0  0  0  0  0  0
   59.3290   30.6850   49.4540 C   0  0  0  0  0  0  0  0  0  0  0  0
   59.1900   30.8390   50.7890 N   0  0  0  0  0  0  0  0  0  0  0  0
   59.0270   32.1690   50.9220 C   0  0  0  0  0  0  0  0  0  0  0  0
   58.8100   32.8740   52.2350 C   0  0  0  0  0  0  0  0  0  0  0  0
   57.5740   32.4540   52.9290 N   0  0  0  0  0  0  0  0  0  0  0  0
   56.4930   31.9910   52.0230 C   0  0  0  0  0  0  0  0  0  0  0  0
   56.3380   30.4610   52.0080 C   0  0  0  0  0  0  0  0  0  0  0  0
   56.2140   29.9340   53.3750 N   0  0  0  0  0  0  0  0  0  0  0  0
   55.5500   28.6780   53.6040 C   0  0  0  0  0  0  0  0  0  0  0  0
   56.2920   27.5920   54.1000 C   0  0  0  0  0  0  0  0  0  0  0  0
   55.6900   26.3460   54.2930 C   0  0  0  0  0  0  0  0  0  0  0  0
   56.6310   25.0020   54.9110 Cl  0  0  0  0  0  0  0  0  0  0  0  0
   54.3410   26.1690   53.9830 C   0  0  0  0  0  0  0  0  0  0  0  0
   53.5910   27.2350   53.4830 C   0  0  0  0  0  0  0  0  0  0  0  0
   54.1790   28.4980   53.2930 C   0  0  0  0  0  0  0  0  0  0  0  0
   53.3430   29.6010   52.7670 C   0  0  0  0  0  0  0  0  0  0  0  0
   52.5570   30.3830   53.6310 C   0  0  0  0  0  0  0  0  0  0  0  0
   51.7850   31.4330   53.1220 C   0  0  0  0  0  0  0  0  0  0  0  0
   51.7840   31.7040   51.7510 C   0  0  0  0  0  0  0  0  0  0  0  0
   51.0180   32.7500   51.2500 O   0  0  0  0  0  0  0  0  0  0  0  0
   52.5530   30.9230   50.8840 C   0  0  0  0  0  0  0  0  0  0  0  0
   53.3250   29.8730   51.3870 C   0  0  0  0  0  0  0  0  0  0  0  0
   56.6090   30.7760   54.5090 C   0  0  0  0  0  0  0  0  0  0  0  0
   57.8340   31.6050   54.1160 C   0  0  0  0  0  0  0  0  0  0  0  0
   59.0670   32.7660   49.6820 C   0  0  0  0  0  0  0  0  0  0  0  0
   59.2520   31.8200   48.7970 O   0  0  0  0  0  0  0  0  0  0  0  0
   59.6263   28.5817   49.5615 H   0  0  0  0  0  0  0  0  0  0  0  0
   58.6406   29.1382   48.1667 H   0  0  0  0  0  0  0  0  0  0  0  0
   60.4192   29.3896   48.1667 H   0  0  0  0  0  0  0  0  0  0  0  0
   59.6674   32.6619   52.8906 H   0  0  0  0  0  0  0  0  0  0  0  0
   58.7106   33.9472   52.0151 H   0  0  0  0  0  0  0  0  0  0  0  0
   55.5432   32.4366   52.3536 H   0  0  0  0  0  0  0  0  0  0  0  0
   56.7601   32.3054   51.0033 H   0  0  0  0  0  0  0  0  0  0  0  0
   55.4364   30.1957   51.4363 H   0  0  0  0  0  0  0  0  0  0  0  0
   57.2316   30.0213   51.5409 H   0  0  0  0  0  0  0  0  0  0  0  0
   57.3576   27.7245   54.3387 H   0  0  0  0  0  0  0  0  0  0  0  0
   53.8676   25.1875   54.1329 H   0  0  0  0  0  0  0  0  0  0  0  0
   52.5297   27.0854   53.2353 H   0  0  0  0  0  0  0  0  0  0  0  0
   52.5488   30.1689   54.7099 H   0  0  0  0  0  0  0  0  0  0  0  0
   51.1771   32.0469   53.8029 H   0  0  0  0  0  0  0  0  0  0  0  0
   52.5504   31.1352   49.8047 H   0  0  0  0  0  0  0  0  0  0  0  0
   53.9222   29.2554   50.7000 H   0  0  0  0  0  0  0  0  0  0  0  0
   55.7797   31.4479   54.7751 H   0  0  0  0  0  0  0  0  0  0  0  0
   56.8534   30.1414   55.3736 H   0  0  0  0  0  0  0  0  0  0  0  0
   58.1107   32.2521   54.9614 H   0  0  0  0  0  0  0  0  0  0  0  0
   58.6477   30.9092   53.8637 H   0  0  0  0  0  0  0  0  0  0  0  0
   58.9626   33.8410   49.4735 H   0  0  0  0  0  0  0  0  0  0  0  0
  1  2  1  0
  2  3  2  0
  3  4  1  0
  4  5  1  0
  5  6  1  0
  6  7  1  0
  7  8  1  0
  8  9  1  0
  9 10  1  0
 10 11  2  0
 11 12  1  0
 12 13  1  0
 12 14  2  0
 14 15  1  0
 15 16  2  0
 16 17  1  0
 17 18  2  0
 18 19  1  0
 19 20  2  0
 20 21  1  0
 20 22  1  0
 22 23  2  0
  9 24  1  0
 24 25  1  0
  4 26  2  0
 26 27  1  0
 27  2  1  0
 25  6  1  0
 16 10  1  0
 23 17  1  0
  1 28  1  0
  1 29  1  0
  1 30  1  0
  5 31  1  0
  5 32  1  0
  7 33  1  0
  7 34  1  0
  8 35  1  0
  8 36  1  0
 11 37  1  0
 14 38  1  0
 15 39  1  0
 18 40  1  0
 19 41  1  0
 22 42  1  0
 23 43  1  0
 24 44  1  0
 24 45  1  0
 25 46  1  0
 25 47  1  0
 26 48  1  0
M  CHG  1  21  -1
M  END
>  <UniqueID>  (8) 
8

>  <SMILES>  (8) 
Cc1nc(CN2CCN(c3cc(Cl)ccc3-c3ccc([O-])cc3)CC2)co1

>  <Energy>  (8) 
96.33379903884915

>  <Genealogy>  (8) 
Cc1nc(CN2CCN(c3cc(Cl)ccc3-c3ccc([O-])cc3)CC2)co1 (protonated)
Cc1nc(CN2CCN(c3cc(Cl)ccc3-c3ccc([O-])cc3)CC2)co1 (3D coordinates assigned)
Cc1nc(CN2CCN(c3cc(Cl)ccc3-c3ccc([O-])cc3)CC2)co1 (nonaromatic ring conformer: 96.33379903884915 kcal/mol)

>  <smiles>  (8) 
Cc1nc(CN2CCN(c3cc(Cl)ccc3-c3ccc(O)cc3)CC2)co1

>  <score_type>  (8) 
oracle

>  <origin>  (8) 
adg

>  <m_score__min__energy>  (8) 
-10.56

>  <m_primary>  (8) 
energy

$$$$
8:0
     RDKit          3D

 41 43  0  0  0  0  0  0  0  0999 V2000
   59.6490   35.5830   44.8840 O   0  0  0  0  0  0  0  0  0  0  0  0
   58.9210   34.9670   45.7090 C   0  0  0  0  0  0  0  0  0  0  0  0
   59.3460   34.8750   47.1390 C   0  0  0  0  0  0  0  0  0  0  0  0
   59.6570   33.4470   47.4910 C   0  0  0  0  0  0  0  0  0  0  0  0
   60.6870   32.7610   46.8260 C   0  0  0  0  0  0  0  0  0  0  0  0
   61.0010   31.4440   47.1800 C   0  0  0  0  0  0  0  0  0  0  0  0
   60.2950   30.8080   48.2070 C   0  0  0  0  0  0  0  0  0  0  0  0
   60.6920   29.1580   48.6510 Cl  0  0  0  0  0  0  0  0  0  0  0  0
   59.2780   31.4890   48.8820 C   0  0  0  0  0  0  0  0  0  0  0  0
   58.9620   32.8060   48.5310 C   0  0  0  0  0  0  0  0  0  0  0  0
   57.7500   34.2630   45.2750 N   0  0  0  0  0  0  0  0  0  0  0  0
   57.7100   32.9290   44.7490 C   0  0  0  0  0  0  0  0  0  0  0  0
   57.8080   32.7480   43.3650 C   0  0  0  0  0  0  0  0  0  0  0  0
   57.7760   31.4640   42.8160 C   0  0  0  0  0  0  0  0  0  0  0  0
   57.6460   30.3490   43.6470 C   0  0  0  0  0  0  0  0  0  0  0  0
   57.5560   30.5080   45.0410 C   0  0  0  0  0  0  0  0  0  0  0  0
   57.4180   29.3180   45.9160 C   0  0  0  0  0  0  0  0  0  0  0  0
   58.0840   29.2550   46.9830 O   0  0  0  0  0  0  0  0  0  0  0  0
   56.5140   28.2470   45.6100 N   0  0  0  0  0  0  0  0  0  0  0  0
   56.7660   26.8450   45.7910 C   0  0  0  0  0  0  0  0  0  0  0  0
   58.0880   26.3880   45.7290 C   0  0  0  0  0  0  0  0  0  0  0  0
   58.3790   25.0350   45.9260 C   0  0  0  0  0  0  0  0  0  0  0  0
   57.3470   24.1250   46.1680 C   0  0  0  0  0  0  0  0  0  0  0  0
   56.0220   24.5650   46.1990 C   0  0  0  0  0  0  0  0  0  0  0  0
   55.7230   25.9180   45.9980 C   0  0  0  0  0  0  0  0  0  0  0  0
   54.3930   26.3210   45.9810 O   0  0  0  0  0  0  0  0  0  0  0  0
   57.6210   31.8020   45.5860 C   0  0  0  0  0  0  0  0  0  0  0  0
   60.2435   35.4921   47.2929 H   0  0  0  0  0  0  0  0  0  0  0  0
   58.5304   35.2366   47.7825 H   0  0  0  0  0  0  0  0  0  0  0  0
   61.2491   33.2612   46.0236 H   0  0  0  0  0  0  0  0  0  0  0  0
   61.8031   30.9087   46.6507 H   0  0  0  0  0  0  0  0  0  0  0  0
   58.7251   30.9886   49.6906 H   0  0  0  0  0  0  0  0  0  0  0  0
   58.1671   33.3415   49.0707 H   0  0  0  0  0  0  0  0  0  0  0  0
   57.9109   33.6222   42.7053 H   0  0  0  0  0  0  0  0  0  0  0  0
   57.8534   31.3307   41.7269 H   0  0  0  0  0  0  0  0  0  0  0  0
   57.6138   29.3408   43.2083 H   0  0  0  0  0  0  0  0  0  0  0  0
   58.9027   27.0981   45.5240 H   0  0  0  0  0  0  0  0  0  0  0  0
   59.4217   24.6865   45.8904 H   0  0  0  0  0  0  0  0  0  0  0  0
   57.5780   23.0624   46.3340 H   0  0  0  0  0  0  0  0  0  0  0  0
   55.2100   23.8458   46.3820 H   0  0  0  0  0  0  0  0  0  0  0  0
   57.6021   31.9347   46.6778 H   0  0  0  0  0  0  0  0  0  0  0  0
  1  2  2  0
  2  3  1  0
  3  4  1  0
  4  5  2  0
  5  6  1  0
  6  7  2  0
  7  8  1  0
  7  9  1  0
  9 10  2  0
  2 11  1  0
 11 12  1  0
 12 13  2  0
 13 14  1  0
 14 15  2  0
 15 16  1  0
 16 17  1  0
 17 18  2  0
 17 19  1  0
 19 20  1  0
 20 21  2  0
 21 22  1  0
 22 23  2  0
 23 24  1  0
 24 25  2  0
 25 26  1  0
 16 27  2  0
 10  4  1  0
 27 12  1  0
 25 20  1  0
  3 28  1  0
  3 29  1  0
  5 30  1  0
  6 31  1  0
  9 32  1  0
 10 33  1  0
 13 34  1  0
 14 35  1  0
 15 36  1  0
 21 37  1  0
 22 38  1  0
 23 39  1  0
 24 40  1  0
 27 41  1  0
M  CHG  3  11  -1  19  -1  26  -1
M  END
>  <UniqueID>  (9) 
9

>  <SMILES>  (9) 
O=C(Cc1ccc(Cl)cc1)[N-]c1cccc(C(=O)[N-]c2ccccc2[O-])c1

>  <Energy>  (9) 
52.61893259393349

>  <Genealogy>  (9) 
O=C(Cc1ccc(Cl)cc1)[N-]c1cccc(C(=O)[N-]c2ccccc2[O-])c1 (protonated)
O=C(Cc1ccc(Cl)cc1)[N-]c1cccc(C(=O)[N-]c2ccccc2[O-])c1 (3D coordinates assigned)
O=C(Cc1ccc(Cl)cc1)[N-]c1cccc(C(=O)[N-]c2ccccc2[O-])c1 (optimized conformer: 52.61893259393349 kcal/mol)

>  <smiles>  (9) 
O=C(Cc1ccc(Cl)cc1)Nc1cccc(C(=O)Nc2ccccc2O)c1

>  <score_type>  (9) 
oracle

>  <origin>  (9) 
adg

>  <m_score__min__energy>  (9) 
-16.32

>  <m_primary>  (9) 
energy

$$$$
9:0
     RDKit          3D

 44 47  0  0  0  0  0  0  0  0999 V2000
   64.8300   34.0090   51.6860 C   0  0  0  0  0  0  0  0  0  0  0  0
   63.7320   33.5230   50.8410 N   0  0  0  0  0  0  0  0  0  0  0  0
   62.4900   33.3500   51.3850 C   0  0  0  0  0  0  0  0  0  0  0  0
   61.4210   32.8640   50.6150 C   0  0  0  0  0  0  0  0  0  0  0  0
   60.1090   32.6400   51.2700 C   0  0  0  0  0  0  0  0  0  0  0  0
   59.6210   31.3340   51.4470 C   0  0  0  0  0  0  0  0  0  0  0  0
   58.3900   31.1200   52.0760 C   0  0  0  0  0  0  0  0  0  0  0  0
   57.6340   32.2060   52.5240 C   0  0  0  0  0  0  0  0  0  0  0  0
   58.1060   33.5090   52.3420 C   0  0  0  0  0  0  0  0  0  0  0  0
   59.3350   33.7280   51.7130 C   0  0  0  0  0  0  0  0  0  0  0  0
   61.6440   32.5650   49.2510 C   0  0  0  0  0  0  0  0  0  0  0  0
   60.5510   32.1220   48.3510 C   0  0  0  0  0  0  0  0  0  0  0  0
   59.4080   32.9220   48.1800 C   0  0  0  0  0  0  0  0  0  0  0  0
   58.3840   32.5190   47.3200 C   0  0  0  0  0  0  0  0  0  0  0  0
   58.4810   31.3070   46.6210 C   0  0  0  0  0  0  0  0  0  0  0  0
   57.4860   30.9110   45.7740 N   0  0  0  0  0  0  0  0  0  0  0  0
   57.5560   29.7350   45.0800 C   0  0  0  0  0  0  0  0  0  0  0  0
   56.4560   29.3380   44.1690 C   0  0  0  0  0  0  0  0  0  0  0  0
   55.1020   29.3410   44.6190 N   0  0  0  0  0  0  0  0  0  0  0  0
   56.7080   28.9920   42.9840 O   0  0  0  0  0  0  0  0  0  0  0  0
   58.6800   28.9060   45.2370 C   0  0  0  0  0  0  0  0  0  0  0  0
   59.7090   29.2870   46.0970 C   0  0  0  0  0  0  0  0  0  0  0  0
   59.6220   30.4930   46.7980 C   0  0  0  0  0  0  0  0  0  0  0  0
   60.6450   30.9000   47.6660 C   0  0  0  0  0  0  0  0  0  0  0  0
   62.9300   32.7260   48.7240 C   0  0  0  0  0  0  0  0  0  0  0  0
   63.9660   33.2020   49.5290 C   0  0  0  0  0  0  0  0  0  0  0  0
   65.1180   33.3350   49.0310 O   0  0  0  0  0  0  0  0  0  0  0  0
   64.5584   33.8888   52.7451 H   0  0  0  0  0  0  0  0  0  0  0  0
   65.7406   33.4299   51.4730 H   0  0  0  0  0  0  0  0  0  0  0  0
   65.0136   35.0724   51.4730 H   0  0  0  0  0  0  0  0  0  0  0  0
   62.3250   33.5958   52.4444 H   0  0  0  0  0  0  0  0  0  0  0  0
   60.2096   30.4763   51.0894 H   0  0  0  0  0  0  0  0  0  0  0  0
   58.0167   30.0951   52.2181 H   0  0  0  0  0  0  0  0  0  0  0  0
   56.6671   32.0357   53.0201 H   0  0  0  0  0  0  0  0  0  0  0  0
   57.5094   34.3634   52.6943 H   0  0  0  0  0  0  0  0  0  0  0  0
   59.6985   34.7554   51.5638 H   0  0  0  0  0  0  0  0  0  0  0  0
   59.3194   33.8721   48.7273 H   0  0  0  0  0  0  0  0  0  0  0  0
   57.4965   33.1557   47.1902 H   0  0  0  0  0  0  0  0  0  0  0  0
   56.6490   31.5280   45.6570 H   0  0  0  0  0  0  0  0  0  0  0  0
   54.8750   29.3010   45.6370 H   0  0  0  0  0  0  0  0  0  0  0  0
   58.7477   27.9584   44.6824 H   0  0  0  0  0  0  0  0  0  0  0  0
   60.5887   28.6389   46.2238 H   0  0  0  0  0  0  0  0  0  0  0  0
   61.5265   30.2582   47.8112 H   0  0  0  0  0  0  0  0  0  0  0  0
   63.1254   32.4764   47.6707 H   0  0  0  0  0  0  0  0  0  0  0  0
  1  2  1  0
  2  3  1  0
  3  4  2  0
  4  5  1  0
  5  6  2  0
  6  7  1  0
  7  8  2  0
  8  9  1  0
  9 10  2  0
  4 11  1  0
 11 12  1  0
 12 13  2  0
 13 14  1  0
 14 15  2  0
 15 16  1  0
 16 17  2  0
 17 18  1  0
 18 19  1  0
 18 20  2  0
 17 21  1  0
 21 22  2  0
 22 23  1  0
 23 24  2  0
 11 25  2  0
 25 26  1  0
 26 27  2  0
 26  2  1  0
 10  5  1  0
 24 12  1  0
 23 15  1  0
  1 28  1  0
  1 29  1  0
  1 30  1  0
  3 31  1  0
  6 32  1  0
  7 33  1  0
  8 34  1  0
  9 35  1  0
 10 36  1  0
 13 37  1  0
 14 38  1  0
 16 39  1  0
 19 40  1  0
 21 41  1  0
 22 42  1  0
 24 43  1  0
 25 44  1  0
M  CHG  2  16   1  19  -1
M  END
>  <UniqueID>  (10) 
10

>  <SMILES>  (10) 
Cn1cc(-c2ccccc2)c(-c2ccc3[nH+]c(C([NH-])=O)ccc3c2)cc1=O

>  <Energy>  (10) 
66.3080436860681

>  <Genealogy>  (10) 
Cn1cc(-c2ccccc2)c(-c2ccc3[nH+]c(C([NH-])=O)ccc3c2)cc1=O (protonated)
Cn1cc(-c2ccccc2)c(-c2ccc3[nH+]c(C([NH-])=O)ccc3c2)cc1=O (3D coordinates assigned)
Cn1cc(-c2ccccc2)c(-c2ccc3[nH+]c(C([NH-])=O)ccc3c2)cc1=O (optimized conformer: 66.3080436860681 kcal/mol)

>  <smiles>  (10) 
Cn1cc(-c2ccccc2)c(-c2ccc3nc(C(N)=O)ccc3c2)cc1=O

>  <score_type>  (10) 
oracle

>  <origin>  (10) 
adg

>  <m_score__min__energy>  (10) 
-9.0099999999999998

>  <m_primary>  (10) 
energy

$$$$
10:0
     RDKit          3D

 40 41  0  0  0  0  0  0  0  0999 V2000
   57.0420   30.5570   43.6750 C   0  0  0  0  0  0  0  0  0  0  0  0
   56.9810   31.2030   44.9430 O   0  0  0  0  0  0  0  0  0  0  0  0
   57.7510   32.3140   45.3200 C   0  0  0  0  0  0  0  0  0  0  0  0
   57.7960   33.4670   44.5100 C   0  0  0  0  0  0  0  0  0  0  0  0
   58.5620   34.5690   44.8820 C   0  0  0  0  0  0  0  0  0  0  0  0
   59.2940   34.5460   46.0640 C   0  0  0  0  0  0  0  0  0  0  0  0
   59.2640   33.4160   46.8920 C   0  0  0  0  0  0  0  0  0  0  0  0
   60.0590   33.4130   48.1410 C   0  0  0  0  0  0  0  0  0  0  0  0
   59.4180   33.6290   49.3660 C   0  0  0  0  0  0  0  0  0  0  0  0
   60.1210   33.6200   50.5360 N   0  0  0  0  0  0  0  0  0  0  0  0
   59.4100   33.8410   51.8030 C   0  0  0  0  0  0  0  0  0  0  0  0
   61.4810   33.4550   50.5330 C   0  0  0  0  0  0  0  0  0  0  0  0
   62.1200   33.4740   51.6240 O   0  0  0  0  0  0  0  0  0  0  0  0
   62.1780   33.2690   49.3220 C   0  0  0  0  0  0  0  0  0  0  0  0
   63.6820   33.1550   49.3250 C   0  0  0  0  0  0  0  0  0  0  0  0
   61.4460   33.1980   48.1170 C   0  0  0  0  0  0  0  0  0  0  0  0
   62.0740   32.9650   46.8870 O   0  0  0  0  0  0  0  0  0  0  0  0
   63.0630   33.8400   46.3510 C   0  0  0  0  0  0  0  0  0  0  0  0
   58.4960   32.2880   46.5300 C   0  0  0  0  0  0  0  0  0  0  0  0
   58.5090   31.1890   47.4110 O   0  0  0  0  0  0  0  0  0  0  0  0
   59.3460   30.0420   47.3280 C   0  0  0  0  0  0  0  0  0  0  0  0
   57.1445   29.4716   43.8210 H   0  0  0  0  0  0  0  0  0  0  0  0
   56.1201   30.7658   43.1124 H   0  0  0  0  0  0  0  0  0  0  0  0
   57.9085   30.9347   43.1124 H   0  0  0  0  0  0  0  0  0  0  0  0
   57.2196   33.4966   43.5736 H   0  0  0  0  0  0  0  0  0  0  0  0
   58.5880   35.4608   44.2385 H   0  0  0  0  0  0  0  0  0  0  0  0
   59.8993   35.4187   46.3503 H   0  0  0  0  0  0  0  0  0  0  0  0
   58.3329   33.8085   49.3864 H   0  0  0  0  0  0  0  0  0  0  0  0
   60.0864   33.6307   52.6446 H   0  0  0  0  0  0  0  0  0  0  0  0
   59.0723   34.8865   51.8564 H   0  0  0  0  0  0  0  0  0  0  0  0
   58.5391   33.1712   51.8564 H   0  0  0  0  0  0  0  0  0  0  0  0
   64.0456   33.1274   50.3628 H   0  0  0  0  0  0  0  0  0  0  0  0
   63.9808   32.2316   48.8072 H   0  0  0  0  0  0  0  0  0  0  0  0
   64.1165   34.0228   48.8072 H   0  0  0  0  0  0  0  0  0  0  0  0
   63.6096   34.3236   47.1740 H   0  0  0  0  0  0  0  0  0  0  0  0
   63.7665   33.2632   45.7326 H   0  0  0  0  0  0  0  0  0  0  0  0
   62.5763   34.6086   45.7326 H   0  0  0  0  0  0  0  0  0  0  0  0
   59.5974   29.6974   48.3419 H   0  0  0  0  0  0  0  0  0  0  0  0
   58.8184   29.2413   46.7889 H   0  0  0  0  0  0  0  0  0  0  0  0
   60.2694   30.3002   46.7889 H   0  0  0  0  0  0  0  0  0  0  0  0
  1  2  1  0
  2  3  1  0
  3  4  2  0
  4  5  1  0
  5  6  2  0
  6  7  1  0
  7  8  1  0
  8  9  2  0
  9 10  1  0
 10 11  1  0
 10 12  1  0
 12 13  2  0
 12 14  1  0
 14 15  1  0
 14 16  2  0
 16 17  1  0
 17 18  1  0
  7 19  2  0
 19 20  1  0
 20 21  1  0
 19  3  1  0
 16  8  1  0
  1 22  1  0
  1 23  1  0
  1 24  1  0
  4 25  1  0
  5 26  1  0
  6 27  1  0
  9 28  1  0
 11 29  1  0
 11 30  1  0
 11 31  1  0
 15 32  1  0
 15 33  1  0
 15 34  1  0
 18 35  1  0
 18 36  1  0
 18 37  1  0
 21 38  1  0
 21 39  1  0
 21 40  1  0
M  END
>  <UniqueID>  (11) 
11

>  <SMILES>  (11) 
COc1cccc(-c2cn(C)c(=O)c(C)c2OC)c1OC

>  <Energy>  (11) 
58.60354427341798

>  <Genealogy>  (11) 
COc1cccc(-c2cn(C)c(=O)c(C)c2OC)c1OC (3D coordinates assigned)
COc1cccc(-c2cn(C)c(=O)c(C)c2OC)c1OC (optimized conformer: 58.60354427341798 kcal/mol)

>  <smiles>  (11) 
COc1cccc(-c2cn(C)c(=O)c(C)c2OC)c1OC

>  <score_type>  (11) 
oracle

>  <origin>  (11) 
adg

>  <m_score__min__energy>  (11) 
-7.0300000000000002

>  <m_primary>  (11) 
energy

$$$$
11:0
     RDKit          3D

 37 39  0  0  0  0  0  0  0  0999 V2000
   59.9710   34.9390   46.1550 C   0  0  0  0  0  0  0  0  0  0  0  0
   59.0520   34.6690   45.1010 O   0  0  0  0  0  0  0  0  0  0  0  0
   58.5210   33.4020   44.8190 C   0  0  0  0  0  0  0  0  0  0  0  0
   58.2920   32.5230   45.8860 C   0  0  0  0  0  0  0  0  0  0  0  0
   57.7640   31.2490   45.6550 C   0  0  0  0  0  0  0  0  0  0  0  0
   57.4590   30.8370   44.3510 C   0  0  0  0  0  0  0  0  0  0  0  0
   56.8120   29.2250   44.0820 S   0  0  0  0  0  0  0  0  0  0  0  0
   56.2190   29.1130   42.7040 O   0  0  0  0  0  0  0  0  0  0  0  0
   55.7380   28.9600   45.1000 O   0  0  0  0  0  0  0  0  0  0  0  0
   58.0980   28.0740   44.2470 N   0  0  0  0  0  0  0  0  0  0  0  0
   58.6580   27.7120   45.5120 C   0  0  0  0  0  0  0  0  0  0  0  0
   59.5910   28.5770   46.0960 C   0  0  0  0  0  0  0  0  0  0  0  0
   60.1050   28.3110   47.3670 C   0  0  0  0  0  0  0  0  0  0  0  0
   59.6940   27.1740   48.0620 C   0  0  0  0  0  0  0  0  0  0  0  0
   58.7840   26.2870   47.4800 C   0  0  0  0  0  0  0  0  0  0  0  0
   58.2740   26.5300   46.1930 C   0  0  0  0  0  0  0  0  0  0  0  0
   57.3900   25.5190   45.5780 C   0  0  0  0  0  0  0  0  0  0  0  0
   57.9160   24.1170   44.8020 S   0  0  0  0  0  0  0  0  0  0  0  0
   56.3520   23.6410   44.4150 C   0  0  0  0  0  0  0  0  0  0  0  0
   56.0650   22.5860   43.7940 O   0  0  0  0  0  0  0  0  0  0  0  0
   55.4210   24.5210   44.8410 N   0  0  0  0  0  0  0  0  0  0  0  0
   55.9980   25.5720   45.4820 C   0  0  0  0  0  0  0  0  0  0  0  0
   55.2420   26.6280   45.9810 O   0  0  0  0  0  0  0  0  0  0  0  0
   57.6850   31.7110   43.2790 C   0  0  0  0  0  0  0  0  0  0  0  0
   58.2140   32.9860   43.5080 C   0  0  0  0  0  0  0  0  0  0  0  0
   59.4712   34.7922   47.1238 H   0  0  0  0  0  0  0  0  0  0  0  0
   60.8290   34.2550   46.0776 H   0  0  0  0  0  0  0  0  0  0  0  0
   60.3226   35.9784   46.0776 H   0  0  0  0  0  0  0  0  0  0  0  0
   58.5294   32.8376   46.9130 H   0  0  0  0  0  0  0  0  0  0  0  0
   57.5874   30.5676   46.5003 H   0  0  0  0  0  0  0  0  0  0  0  0
   59.9217   29.4727   45.5498 H   0  0  0  0  0  0  0  0  0  0  0  0
   60.8343   28.9986   47.8201 H   0  0  0  0  0  0  0  0  0  0  0  0
   60.0867   26.9749   49.0700 H   0  0  0  0  0  0  0  0  0  0  0  0
   58.4645   25.3917   48.0335 H   0  0  0  0  0  0  0  0  0  0  0  0
   55.1280   27.4820   45.4470 H   0  0  0  0  0  0  0  0  0  0  0  0
   57.4456   31.3934   42.2534 H   0  0  0  0  0  0  0  0  0  0  0  0
   58.3909   33.6661   42.6617 H   0  0  0  0  0  0  0  0  0  0  0  0
  1  2  1  0
  2  3  1  0
  3  4  2  0
  4  5  1  0
  5  6  2  0
  6  7  1  0
  7  8  2  0
  7  9  2  0
  7 10  1  0
 10 11  1  0
 11 12  2  0
 12 13  1  0
 13 14  2  0
 14 15  1  0
 15 16  2  0
 16 17  1  0
 17 18  1  0
 18 19  1  0
 19 20  2  0
 19 21  1  0
 21 22  1  0
 22 23  1  0
  6 24  1  0
 24 25  2  0
 25  3  1  0
 16 11  1  0
 22 17  2  0
  1 26  1  0
  1 27  1  0
  1 28  1  0
  4 29  1  0
  5 30  1  0
 12 31  1  0
 13 32  1  0
 14 33  1  0
 15 34  1  0
 23 35  1  0
 24 36  1  0
 25 37  1  0
M  CHG  2  10  -1  21  -1
M  END
>  <UniqueID>  (12) 
12

>  <SMILES>  (12) 
COc1ccc(S(=O)(=O)[N-]c2ccccc2-c2sc(=O)[n-]c2O)cc1

>  <Energy>  (12) 
83.77333915441429

>  <Genealogy>  (12) 
COc1ccc(S(=O)(=O)[N-]c2ccccc2-c2sc(=O)[n-]c2O)cc1 (protonated)
COc1ccc(S(=O)(=O)[N-]c2ccccc2-c2sc(=O)[n-]c2O)cc1 (3D coordinates assigned)
COc1ccc(S(=O)(=O)[N-]c2ccccc2-c2sc(=O)[n-]c2O)cc1 (optimized conformer: 83.77333915441429 kcal/mol)

>  <smiles>  (12) 
COc1ccc(S(=O)(=O)Nc2ccccc2-c2sc(=O)[nH]c2O)cc1

>  <score_type>  (12) 
oracle

>  <origin>  (12) 
adg

>  <m_score__min__energy>  (12) 
-12.470000000000001

>  <m_primary>  (12) 
energy

$$$$
12:0
     RDKit          3D

 50 53  0  0  0  0  0  0  0  0999 V2000
   62.7080   32.2390   46.7490 O   0  0  0  0  0  0  0  0  0  0  0  0
   62.4440   33.4090   47.1400 C   0  0  0  0  0  0  0  0  0  0  0  0
   63.4830   34.1850   47.8880 C   0  0  0  0  0  0  0  0  0  0  0  0
   63.7460   33.5380   49.2140 C   0  0  0  0  0  0  0  0  0  0  0  0
   63.1690   33.9800   50.4140 C   0  0  0  0  0  0  0  0  0  0  0  0
   63.5070   33.2010   51.5120 C   0  0  0  0  0  0  0  0  0  0  0  0
   64.5070   31.9600   50.9820 S   0  0  0  0  0  0  0  0  0  0  0  0
   64.5280   32.3960   49.3590 C   0  0  0  0  0  0  0  0  0  0  0  0
   61.1620   33.9970   46.8740 N   0  0  0  0  0  0  0  0  0  0  0  0
   60.0140   33.2590   46.4250 C   0  0  0  0  0  0  0  0  0  0  0  0
   59.2860   33.6560   45.2910 C   0  0  0  0  0  0  0  0  0  0  0  0
   58.1800   32.9160   44.8700 C   0  0  0  0  0  0  0  0  0  0  0  0
   57.7840   31.7640   45.5700 C   0  0  0  0  0  0  0  0  0  0  0  0
   56.6550   30.9850   45.1480 N   0  0  0  0  0  0  0  0  0  0  0  0
   56.7020   29.7700   44.3870 C   0  0  0  0  0  0  0  0  0  0  0  0
   56.0510   29.7080   43.3110 O   0  0  0  0  0  0  0  0  0  0  0  0
   57.5410   28.6190   44.8000 C   0  0  0  0  0  0  0  0  0  0  0  0
   58.9310   28.6390   44.5800 C   0  0  0  0  0  0  0  0  0  0  0  0
   59.7250   27.5550   44.9660 C   0  0  0  0  0  0  0  0  0  0  0  0
   59.1420   26.4380   45.5650 C   0  0  0  0  0  0  0  0  0  0  0  0
   57.7610   26.4000   45.7780 C   0  0  0  0  0  0  0  0  0  0  0  0
   56.9600   27.4810   45.3950 C   0  0  0  0  0  0  0  0  0  0  0  0
   55.6240   27.4260   45.6300 F   0  0  0  0  0  0  0  0  0  0  0  0
   58.5460   31.3230   46.6640 C   0  0  0  0  0  0  0  0  0  0  0  0
   58.1530   30.1560   47.3370 O   0  0  0  0  0  0  0  0  0  0  0  0
   58.8790   29.5210   48.3550 C   0  0  0  0  0  0  0  0  0  0  0  0
   58.8830   30.0020   49.6780 C   0  0  0  0  0  0  0  0  0  0  0  0
   59.6320   29.3480   50.6620 C   0  0  0  0  0  0  0  0  0  0  0  0
   60.3900   28.2210   50.3320 C   0  0  0  0  0  0  0  0  0  0  0  0
   61.1180   27.5890   51.2860 F   0  0  0  0  0  0  0  0  0  0  0  0
   60.4050   27.7500   49.0150 C   0  0  0  0  0  0  0  0  0  0  0  0
   59.6560   28.4030   48.0300 C   0  0  0  0  0  0  0  0  0  0  0  0
   59.6480   32.0830   47.0940 C   0  0  0  0  0  0  0  0  0  0  0  0
   64.4137   34.2075   47.3021 H   0  0  0  0  0  0  0  0  0  0  0  0
   63.1215   35.2111   48.0508 H   0  0  0  0  0  0  0  0  0  0  0  0
   62.5117   34.8596   50.4785 H   0  0  0  0  0  0  0  0  0  0  0  0
   63.1775   33.3674   52.5482 H   0  0  0  0  0  0  0  0  0  0  0  0
   65.0645   31.8719   48.5544 H   0  0  0  0  0  0  0  0  0  0  0  0
   61.0790   35.0360   46.9520 H   0  0  0  0  0  0  0  0  0  0  0  0
   59.5889   34.5539   44.7325 H   0  0  0  0  0  0  0  0  0  0  0  0
   57.6140   33.2373   43.9832 H   0  0  0  0  0  0  0  0  0  0  0  0
   59.3958   29.5134   44.1011 H   0  0  0  0  0  0  0  0  0  0  0  0
   60.8116   27.5829   44.7971 H   0  0  0  0  0  0  0  0  0  0  0  0
   59.7691   25.5872   45.8697 H   0  0  0  0  0  0  0  0  0  0  0  0
   57.3028   25.5174   46.2482 H   0  0  0  0  0  0  0  0  0  0  0  0
   58.2955   30.8947   49.9388 H   0  0  0  0  0  0  0  0  0  0  0  0
   59.6244   29.7212   51.6967 H   0  0  0  0  0  0  0  0  0  0  0  0
   61.0056   26.8663   48.7537 H   0  0  0  0  0  0  0  0  0  0  0  0
   59.6779   28.0354   46.9935 H   0  0  0  0  0  0  0  0  0  0  0  0
   60.2301   31.7506   47.9662 H   0  0  0  0  0  0  0  0  0  0  0  0
  1  2  2  0
  2  3  1  0
  3  4  1  0
  4  5  1  0
  5  6  2  0
  6  7  1  0
  7  8  1  0
  2  9  1  0
  9 10  1  0
 10 11  2  0
 11 12  1  0
 12 13  2  0
 13 14  1  0
 14 15  1  0
 15 16  2  0
 15 17  1  0
 17 18  2  0
 18 19  1  0
 19 20  2  0
 20 21  1  0
 21 22  2  0
 22 23  1  0
 13 24  1  0
 24 25  1  0
 25 26  1  0
 26 27  2  0
 27 28  1  0
 28 29  2  0
 29 30  1  0
 29 31  1  0
 31 32  2  0
 24 33  2  0
  8  4  2  0
 33 10  1  0
 22 17  1  0
 32 26  1  0
  3 34  1  0
  3 35  1  0
  5 36  1  0
  6 37  1  0
  8 38  1  0
  9 39  1  0
 11 40  1  0
 12 41  1  0
 18 42  1  0
 19 43  1  0
 20 44  1  0
 21 45  1  0
 27 46  1  0
 28 47  1  0
 31 48  1  0
 32 49  1  0
 33 50  1  0
M  CHG  1  14  -1
M  END
>  <UniqueID>  (13) 
13

>  <SMILES>  (13) 
O=C(Cc1ccsc1)Nc1ccc([N-]C(=O)c2ccccc2F)c(Oc2ccc(F)cc2)c1

>  <Energy>  (13) 
95.00336166681785

>  <Genealogy>  (13) 
O=C(Cc1ccsc1)Nc1ccc([N-]C(=O)c2ccccc2F)c(Oc2ccc(F)cc2)c1 (protonated)
O=C(Cc1ccsc1)Nc1ccc([N-]C(=O)c2ccccc2F)c(Oc2ccc(F)cc2)c1 (3D coordinates assigned)
O=C(Cc1ccsc1)Nc1ccc([N-]C(=O)c2ccccc2F)c(Oc2ccc(F)cc2)c1 (optimized conformer: 95.00336166681785 kcal/mol)

>  <smiles>  (13) 
O=C(Cc1ccsc1)Nc1ccc(NC(=O)c2ccccc2F)c(Oc2ccc(F)cc2)c1

>  <score_type>  (13) 
oracle

>  <origin>  (13) 
adg

>  <m_score__min__energy>  (13) 
-11.08

>  <m_primary>  (13) 
energy

$$$$
13:0
     RDKit          3D

 55 58  0  0  0  0  0  0  0  0999 V2000
   60.6400   33.7880   46.4220 C   0  0  0  0  0  0  0  0  0  0  0  0
   59.3280   33.8020   46.1540 C   0  0  0  0  0  0  0  0  0  0  0  0
   58.8180   34.5560   44.9570 C   0  0  0  0  0  0  0  0  0  0  0  0
   58.3660   33.1450   47.0690 C   0  0  0  0  0  0  0  0  0  0  0  0
   57.1290   33.2050   46.8270 O   0  0  0  0  0  0  0  0  0  0  0  0
   58.8260   32.4590   48.1990 O   0  0  0  0  0  0  0  0  0  0  0  0
   59.0310   33.0950   49.4570 C   0  0  0  0  0  0  0  0  0  0  0  0
   58.6890   32.1330   50.5570 C   0  0  0  0  0  0  0  0  0  0  0  0
   58.8510   30.7510   50.3740 C   0  0  0  0  0  0  0  0  0  0  0  0
   58.5660   29.8630   51.4160 C   0  0  0  0  0  0  0  0  0  0  0  0
   58.1400   30.3450   52.6630 C   0  0  0  0  0  0  0  0  0  0  0  0
   57.8370   29.3910   53.7930 C   0  0  0  0  0  0  0  0  0  0  0  0
   56.4790   28.8210   53.6560 N   0  0  0  0  0  0  0  0  0  0  0  0
   55.4660   29.6830   53.3380 C   0  0  0  0  0  0  0  0  0  0  0  0
   54.1400   29.2530   53.2210 C   0  0  0  0  0  0  0  0  0  0  0  0
   53.0750   30.2380   52.8960 C   0  0  0  0  0  0  0  0  0  0  0  0
   53.1090   30.9460   51.6820 C   0  0  0  0  0  0  0  0  0  0  0  0
   52.1180   31.8860   51.3840 C   0  0  0  0  0  0  0  0  0  0  0  0
   51.0890   32.1330   52.2960 C   0  0  0  0  0  0  0  0  0  0  0  0
   50.1050   33.0690   51.9990 O   0  0  0  0  0  0  0  0  0  0  0  0
   51.0490   31.4390   53.5090 C   0  0  0  0  0  0  0  0  0  0  0  0
   52.0380   30.4970   53.8100 C   0  0  0  0  0  0  0  0  0  0  0  0
   53.8460   27.8980   53.4230 C   0  0  0  0  0  0  0  0  0  0  0  0
   52.6630   27.4830   53.2840 O   0  0  0  0  0  0  0  0  0  0  0  0
   54.8760   27.0040   53.7600 C   0  0  0  0  0  0  0  0  0  0  0  0
   54.6000   25.6400   53.9800 C   0  0  0  0  0  0  0  0  0  0  0  0
   55.6240   24.7470   54.3090 C   0  0  0  0  0  0  0  0  0  0  0  0
   55.3480   23.3970   54.5200 O   0  0  0  0  0  0  0  0  0  0  0  0
   56.9350   25.2090   54.4240 C   0  0  0  0  0  0  0  0  0  0  0  0
   57.9580   24.3260   54.7510 O   0  0  0  0  0  0  0  0  0  0  0  0
   57.2280   26.5580   54.2120 C   0  0  0  0  0  0  0  0  0  0  0  0
   56.2100   27.4830   53.8740 C   0  0  0  0  0  0  0  0  0  0  0  0
   57.9710   31.7300   52.8420 C   0  0  0  0  0  0  0  0  0  0  0  0
   58.2560   32.6160   51.8000 C   0  0  0  0  0  0  0  0  0  0  0  0
   61.0168   33.2376   47.2967 H   0  0  0  0  0  0  0  0  0  0  0  0
   61.3408   34.3269   45.7675 H   0  0  0  0  0  0  0  0  0  0  0  0
   58.2312   35.4236   45.2929 H   0  0  0  0  0  0  0  0  0  0  0  0
   59.6688   34.9012   44.3513 H   0  0  0  0  0  0  0  0  0  0  0  0
   58.1810   33.8948   44.3513 H   0  0  0  0  0  0  0  0  0  0  0  0
   60.0841   33.3992   49.5483 H   0  0  0  0  0  0  0  0  0  0  0  0
   58.3884   33.9848   49.5307 H   0  0  0  0  0  0  0  0  0  0  0  0
   59.2038   30.3645   49.4064 H   0  0  0  0  0  0  0  0  0  0  0  0
   58.6764   28.7802   51.2571 H   0  0  0  0  0  0  0  0  0  0  0  0
   58.5731   28.5737   53.7808 H   0  0  0  0  0  0  0  0  0  0  0  0
   57.8907   29.9440   54.7424 H   0  0  0  0  0  0  0  0  0  0  0  0
   55.7005   30.7444   53.1695 H   0  0  0  0  0  0  0  0  0  0  0  0
   53.9199   30.7593   50.9625 H   0  0  0  0  0  0  0  0  0  0  0  0
   52.1486   32.4321   50.4296 H   0  0  0  0  0  0  0  0  0  0  0  0
   50.2390   31.6340   54.2272 H   0  0  0  0  0  0  0  0  0  0  0  0
   52.0046   29.9557   54.7670 H   0  0  0  0  0  0  0  0  0  0  0  0
   53.5666   25.2734   53.8918 H   0  0  0  0  0  0  0  0  0  0  0  0
   56.0750   22.7390   54.7730 H   0  0  0  0  0  0  0  0  0  0  0  0
   58.2664   26.9078   54.3091 H   0  0  0  0  0  0  0  0  0  0  0  0
   57.6127   32.1174   53.8072 H   0  0  0  0  0  0  0  0  0  0  0  0
   58.1400   33.6987   51.9557 H   0  0  0  0  0  0  0  0  0  0  0  0
  1  2  2  0
  2  3  1  0
  2  4  1  0
  4  5  2  0
  4  6  1  0
  6  7  1  0
  7  8  1  0
  8  9  2  0
  9 10  1  0
 10 11  2  0
 11 12  1  0
 12 13  1  0
 13 14  1  0
 14 15  2  0
 15 16  1  0
 16 17  2  0
 17 18  1  0
 18 19  2  0
 19 20  1  0
 19 21  1  0
 21 22  2  0
 15 23  1  0
 23 24  2  0
 23 25  1  0
 25 26  2  0
 26 27  1  0
 27 28  1  0
 27 29  2  0
 29 30  1  0
 29 31  1  0
 31 32  2  0
 11 33  1  0
 33 34  2  0
 34  8  1  0
 32 13  1  0
 22 16  1  0
 32 25  1  0
  1 35  1  0
  1 36  1  0
  3 37  1  0
  3 38  1  0
  3 39  1  0
  7 40  1  0
  7 41  1  0
  9 42  1  0
 10 43  1  0
 12 44  1  0
 12 45  1  0
 14 46  1  0
 17 47  1  0
 18 48  1  0
 21 49  1  0
 22 50  1  0
 26 51  1  0
 28 52  1  0
 31 53  1  0
 33 54  1  0
 34 55  1  0
M  CHG  2  20  -1  30  -1
M  END
>  <UniqueID>  (14) 
14

>  <SMILES>  (14) 
C=C(C)C(=O)OCc1ccc(Cn2cc(-c3ccc([O-])cc3)c(=O)c3cc(O)c([O-])cc32)cc1

>  <Energy>  (14) 
71.08295115643622

>  <Genealogy>  (14) 
C=C(C)C(=O)OCc1ccc(Cn2cc(-c3ccc([O-])cc3)c(=O)c3cc(O)c([O-])cc32)cc1 (protonated)
C=C(C)C(=O)OCc1ccc(Cn2cc(-c3ccc([O-])cc3)c(=O)c3cc(O)c([O-])cc32)cc1 (3D coordinates assigned)
C=C(C)C(=O)OCc1ccc(Cn2cc(-c3ccc([O-])cc3)c(=O)c3cc(O)c([O-])cc32)cc1 (optimized conformer: 71.08295115643622 kcal/mol)

>  <smiles>  (14) 
C=C(C)C(=O)OCc1ccc(Cn2cc(-c3ccc(O)cc3)c(=O)c3cc(O)c(O)cc32)cc1

>  <score_type>  (14) 
oracle

>  <origin>  (14) 
adg

>  <m_score__min__energy>  (14) 
-13.119999999999999

>  <m_primary>  (14) 
energy

$$$$
14:0
     RDKit          3D

 48 50  0  0  0  0  0  0  0  0999 V2000
   56.2480   23.5000   43.2090 C   0  0  0  0  0  0  0  0  0  0  0  0
   56.8340   23.5700   44.6140 C   0  0  0  0  0  0  0  0  0  0  0  0
   55.9640   24.2870   45.4880 O   0  0  0  0  0  0  0  0  0  0  0  0
   56.1490   25.6310   45.8280 C   0  0  0  0  0  0  0  0  0  0  0  0
   55.1540   26.3880   45.9980 O   0  0  0  0  0  0  0  0  0  0  0  0
   57.4820   26.1210   46.0270 N   0  0  0  0  0  0  0  0  0  0  0  0
   57.8200   27.5060   46.2110 C   0  0  0  0  0  0  0  0  0  0  0  0
   58.8180   27.8530   47.1330 C   0  0  0  0  0  0  0  0  0  0  0  0
   59.1830   29.1880   47.3110 C   0  0  0  0  0  0  0  0  0  0  0  0
   58.5550   30.1940   46.5720 C   0  0  0  0  0  0  0  0  0  0  0  0
   57.5510   29.8660   45.6450 C   0  0  0  0  0  0  0  0  0  0  0  0
   56.8710   30.8590   44.8640 N   0  0  0  0  0  0  0  0  0  0  0  0
   57.3920   32.1230   44.4290 C   0  0  0  0  0  0  0  0  0  0  0  0
   57.9490   32.2440   43.3060 O   0  0  0  0  0  0  0  0  0  0  0  0
   57.3550   33.2940   45.3610 C   0  0  0  0  0  0  0  0  0  0  0  0
   58.6830   34.4930   44.9760 S   0  0  0  0  0  0  0  0  0  0  0  0
   59.7290   34.0240   46.3550 C   0  0  0  0  0  0  0  0  0  0  0  0
   59.1700   33.7780   47.5680 N   0  0  0  0  0  0  0  0  0  0  0  0
   59.9210   33.3810   48.6270 C   0  0  0  0  0  0  0  0  0  0  0  0
   59.2410   33.0780   49.9010 C   0  0  0  0  0  0  0  0  0  0  0  0
   58.4450   31.9820   50.1880 C   0  0  0  0  0  0  0  0  0  0  0  0
   58.0310   32.1530   51.4920 C   0  0  0  0  0  0  0  0  0  0  0  0
   58.5960   33.3350   51.9220 C   0  0  0  0  0  0  0  0  0  0  0  0
   59.3100   33.8610   50.9540 O   0  0  0  0  0  0  0  0  0  0  0  0
   61.3080   33.2400   48.4670 C   0  0  0  0  0  0  0  0  0  0  0  0
   61.8710   33.5100   47.2130 C   0  0  0  0  0  0  0  0  0  0  0  0
   63.3490   33.3570   46.9970 C   0  0  0  0  0  0  0  0  0  0  0  0
   64.0310   33.8550   48.0930 F   0  0  0  0  0  0  0  0  0  0  0  0
   63.7290   34.0580   45.8670 F   0  0  0  0  0  0  0  0  0  0  0  0
   63.6810   32.0250   46.8290 F   0  0  0  0  0  0  0  0  0  0  0  0
   61.0680   33.8890   46.1830 N   0  0  0  0  0  0  0  0  0  0  0  0
   57.2130   28.5210   45.4480 C   0  0  0  0  0  0  0  0  0  0  0  0
   55.1576   23.3697   43.2726 H   0  0  0  0  0  0  0  0  0  0  0  0
   56.4752   24.4317   42.6701 H   0  0  0  0  0  0  0  0  0  0  0  0
   56.6882   22.6481   42.6701 H   0  0  0  0  0  0  0  0  0  0  0  0
   56.9715   22.5489   44.9992 H   0  0  0  0  0  0  0  0  0  0  0  0
   57.8001   24.0940   44.5685 H   0  0  0  0  0  0  0  0  0  0  0  0
   58.2400   25.4090   46.1300 H   0  0  0  0  0  0  0  0  0  0  0  0
   59.3165   27.0675   47.7199 H   0  0  0  0  0  0  0  0  0  0  0  0
   59.9681   29.4494   48.0358 H   0  0  0  0  0  0  0  0  0  0  0  0
   58.8471   31.2447   46.7161 H   0  0  0  0  0  0  0  0  0  0  0  0
   56.3808   33.7960   45.2670 H   0  0  0  0  0  0  0  0  0  0  0  0
   57.5061   32.9262   46.3866 H   0  0  0  0  0  0  0  0  0  0  0  0
   58.1949   31.1482   49.5155 H   0  0  0  0  0  0  0  0  0  0  0  0
   57.3809   31.4817   52.0724 H   0  0  0  0  0  0  0  0  0  0  0  0
   58.4680   33.7709   52.9238 H   0  0  0  0  0  0  0  0  0  0  0  0
   61.9406   32.9238   49.3095 H   0  0  0  0  0  0  0  0  0  0  0  0
   56.4640   28.2548   44.6877 H   0  0  0  0  0  0  0  0  0  0  0  0
  1  2  1  0
  2  3  1  0
  3  4  1  0
  4  5  2  0
  4  6  1  0
  6  7  1  0
  7  8  2  0
  8  9  1  0
  9 10  2  0
 10 11  1  0
 11 12  1  0
 12 13  1  0
 13 14  2  0
 13 15  1  0
 15 16  1  0
 16 17  1  0
 17 18  2  0
 18 19  1  0
 19 20  1  0
 20 21  2  0
 21 22  1  0
 22 23  2  0
 23 24  1  0
 19 25  2  0
 25 26  1  0
 26 27  1  0
 27 28  1  0
 27 29  1  0
 27 30  1  0
 26 31  2  0
 11 32  2  0
 32  7  1  0
 31 17  1  0
 24 20  1  0
  1 33  1  0
  1 34  1  0
  1 35  1  0
  2 36  1  0
  2 37  1  0
  6 38  1  0
  8 39  1  0
  9 40  1  0
 10 41  1  0
 15 42  1  0
 15 43  1  0
 21 44  1  0
 22 45  1  0
 23 46  1  0
 25 47  1  0
 32 48  1  0
M  CHG  1  12  -1
M  END
>  <UniqueID>  (15) 
15

>  <SMILES>  (15) 
CCOC(=O)Nc1cccc([N-]C(=O)CSc2nc(-c3ccco3)cc(C(F)(F)F)n2)c1

>  <Energy>  (15) 
72.0758557927849

>  <Genealogy>  (15) 
CCOC(=O)Nc1cccc([N-]C(=O)CSc2nc(-c3ccco3)cc(C(F)(F)F)n2)c1 (protonated)
CCOC(=O)Nc1cccc([N-]C(=O)CSc2nc(-c3ccco3)cc(C(F)(F)F)n2)c1 (3D coordinates assigned)
CCOC(=O)Nc1cccc([N-]C(=O)CSc2nc(-c3ccco3)cc(C(F)(F)F)n2)c1 (optimized conformer: 72.0758557927849 kcal/mol)

>  <smiles>  (15) 
CCOC(=O)Nc1cccc(NC(=O)CSc2nc(-c3ccco3)cc(C(F)(F)F)n2)c1

>  <score_type>  (15) 
oracle

>  <origin>  (15) 
adg

>  <m_score__min__energy>  (15) 
-9.5

>  <m_primary>  (15) 
energy

$$$$
15:0
     RDKit          3D

 43 45  0  0  0  0  0  0  0  0999 V2000
   54.5520   29.3990   45.3190 H   0  0  0  0  0  0  0  0  0  0  0  0
   55.2370   28.9650   44.6600 N   0  0  0  0  0  0  0  0  0  0  0  0
   56.4180   30.1700   44.2900 S   0  0  0  0  0  0  0  0  0  0  0  0
   55.8880   31.5280   44.6510 O   0  0  0  0  0  0  0  0  0  0  0  0
   56.6870   30.1520   42.8100 O   0  0  0  0  0  0  0  0  0  0  0  0
   57.9190   29.8020   45.1580 C   0  0  0  0  0  0  0  0  0  0  0  0
   58.2090   28.4510   45.4080 C   0  0  0  0  0  0  0  0  0  0  0  0
   57.5067   27.6763   45.0665 H   0  0  0  0  0  0  0  0  0  0  0  0
   59.3790   28.0700   46.0860 C   0  0  0  0  0  0  0  0  0  0  0  0
   59.6630   26.6410   46.3570 C   0  0  0  0  0  0  0  0  0  0  0  0
   60.8560   26.2320   46.3780 O   0  0  0  0  0  0  0  0  0  0  0  0
   58.5790   25.7110   46.5090 N   0  0  0  0  0  0  0  0  0  0  0  0
   58.0870   24.8970   45.6150 C   0  0  0  0  0  0  0  0  0  0  0  0
   58.5740   23.5830   45.5720 C   0  0  0  0  0  0  0  0  0  0  0  0
   59.3488   23.2582   46.2821 H   0  0  0  0  0  0  0  0  0  0  0  0
   58.0730   22.6890   44.6260 C   0  0  0  0  0  0  0  0  0  0  0  0
   58.4436   21.6538   44.5947 H   0  0  0  0  0  0  0  0  0  0  0  0
   57.1020   23.1110   43.7210 C   0  0  0  0  0  0  0  0  0  0  0  0
   56.6120   22.2530   42.7920 F   0  0  0  0  0  0  0  0  0  0  0  0
   56.6500   24.4290   43.7710 C   0  0  0  0  0  0  0  0  0  0  0  0
   55.8885   24.7728   43.0555 H   0  0  0  0  0  0  0  0  0  0  0  0
   57.1450   25.2940   44.7000 N   0  0  0  0  0  0  0  0  0  0  0  0
   56.8090   26.2770   44.6540 H   0  0  0  0  0  0  0  0  0  0  0  0
   60.2700   29.0660   46.5110 C   0  0  0  0  0  0  0  0  0  0  0  0
   61.1949   28.7841   47.0355 H   0  0  0  0  0  0  0  0  0  0  0  0
   59.9910   30.4120   46.2730 C   0  0  0  0  0  0  0  0  0  0  0  0
   60.7057   31.1805   46.6026 H   0  0  0  0  0  0  0  0  0  0  0  0
   58.8150   30.7980   45.6210 C   0  0  0  0  0  0  0  0  0  0  0  0
   58.5300   32.5630   45.4010 S   0  0  0  0  0  0  0  0  0  0  0  0
   59.6840   33.0350   46.6910 C   0  0  0  0  0  0  0  0  0  0  0  0
   59.2820   33.0270   48.0300 C   0  0  0  0  0  0  0  0  0  0  0  0
   58.2532   32.7386   48.2913 H   0  0  0  0  0  0  0  0  0  0  0  0
   60.1820   33.3840   49.0380 C   0  0  0  0  0  0  0  0  0  0  0  0
   59.8656   33.3539   50.0911 H   0  0  0  0  0  0  0  0  0  0  0  0
   61.4890   33.7810   48.7110 C   0  0  0  0  0  0  0  0  0  0  0  0
   62.4720   34.1340   49.7860 C   0  0  0  0  0  0  0  0  0  0  0  0
   62.0124   33.9690   50.7717 H   0  0  0  0  0  0  0  0  0  0  0  0
   63.3661   33.5008   49.6876 H   0  0  0  0  0  0  0  0  0  0  0  0
   62.7590   35.1913   49.6876 H   0  0  0  0  0  0  0  0  0  0  0  0
   61.8860   33.8000   47.3650 C   0  0  0  0  0  0  0  0  0  0  0  0
   62.9101   34.1014   47.0997 H   0  0  0  0  0  0  0  0  0  0  0  0
   60.9840   33.4370   46.3600 C   0  0  0  0  0  0  0  0  0  0  0  0
   61.2967   33.4673   45.3058 H   0  0  0  0  0  0  0  0  0  0  0  0
  1  2  1  0
  2  3  1  0
  3  4  2  0
  3  5  2  0
  3  6  1  0
  6  7  2  0
  7  8  1  0
  7  9  1  0
  9 10  1  0
 10 11  2  0
 10 12  1  0
 12 13  2  0
 13 14  1  0
 14 15  1  0
 14 16  2  0
 16 17  1  0
 16 18  1  0
 18 19  1  0
 18 20  2  0
 20 21  1  0
 20 22  1  0
 22 23  1  0
  9 24  2  0
 24 25  1  0
 24 26  1  0
 26 27  1  0
 26 28  2  0
 28 29  1  0
 29 30  1  0
 30 31  2  0
 31 32  1  0
 31 33  1  0
 33 34  1  0
 33 35  2  0
 35 36  1  0
 36 37  1  0
 36 38  1  0
 36 39  1  0
 35 40  1  0
 40 41  1  0
 40 42  2  0
 42 43  1  0
 28  6  1  0
 42 30  1  0
 22 13  1  0
M  CHG  1   2  -1
M  END
>  <UniqueID>  (16) 
16

>  <SMILES>  (16) 
Cc1ccc(Sc2ccc(C(=O)/N=c3/ccc(F)c[nH]3)cc2S([NH-])(=O)=O)cc1

>  <Energy>  (16) 
51.69203970782232

>  <Genealogy>  (16) 
Cc1ccc(Sc2ccc(C(=O)N=c3ccc(F)c[nH]3)cc2S([NH-])(=O)=O)cc1 (protonated)
Cc1ccc(Sc2ccc(C(=O)/N=c3/ccc(F)c[nH]3)cc2S([NH-])(=O)=O)cc1 (cis-trans isomerization)
Cc1ccc(Sc2ccc(C(=O)/N=c3/ccc(F)c[nH]3)cc2S([NH-])(=O)=O)cc1 (3D coordinates assigned)
Cc1ccc(Sc2ccc(C(=O)/N=c3/ccc(F)c[nH]3)cc2S([NH-])(=O)=O)cc1 (optimized conformer: 51.69203970782232 kcal/mol)

>  <smiles>  (16) 
Cc1ccc(Sc2ccc(C(=O)N=c3ccc(F)c[nH]3)cc2S(N)(=O)=O)cc1

>  <score_type>  (16) 
oracle

>  <origin>  (16) 
adg

>  <m_score__min__energy>  (16) 
-11.56

>  <m_primary>  (16) 
energy

$$$$
16:0
     RDKit          3D

 54 57  0  0  0  0  0  0  0  0999 V2000
   55.0980   26.3500   45.9990 N   0  0  0  0  0  0  0  0  0  0  0  0
   56.8150   26.4940   45.8960 S   0  0  0  0  0  0  0  0  0  0  0  0
   57.4280   26.1600   47.2250 O   0  0  0  0  0  0  0  0  0  0  0  0
   57.3220   25.5270   44.8640 O   0  0  0  0  0  0  0  0  0  0  0  0
   57.2430   28.1430   45.4530 C   0  0  0  0  0  0  0  0  0  0  0  0
   58.5420   28.6140   45.6920 C   0  0  0  0  0  0  0  0  0  0  0  0
   58.8860   29.9230   45.3430 C   0  0  0  0  0  0  0  0  0  0  0  0
   57.9450   30.7770   44.7580 C   0  0  0  0  0  0  0  0  0  0  0  0
   58.3480   32.1110   44.4160 N   0  0  0  0  0  0  0  0  0  0  0  0
   58.0290   33.5300   45.3640 S   0  0  0  0  0  0  0  0  0  0  0  0
   56.5840   33.5360   45.7750 O   0  0  0  0  0  0  0  0  0  0  0  0
   58.2960   34.7640   44.5450 O   0  0  0  0  0  0  0  0  0  0  0  0
   59.0300   33.4970   46.8140 C   0  0  0  0  0  0  0  0  0  0  0  0
   59.2520   34.6610   47.5630 C   0  0  0  0  0  0  0  0  0  0  0  0
   60.0910   34.6270   48.6810 C   0  0  0  0  0  0  0  0  0  0  0  0
   60.7100   33.4330   49.0590 C   0  0  0  0  0  0  0  0  0  0  0  0
   60.4930   32.2540   48.3240 C   0  0  0  0  0  0  0  0  0  0  0  0
   61.1380   30.9840   48.7450 C   0  0  0  0  0  0  0  0  0  0  0  0
   62.3910   30.8720   48.6760 O   0  0  0  0  0  0  0  0  0  0  0  0
   60.3490   29.8660   49.1970 N   0  0  0  0  0  0  0  0  0  0  0  0
   60.8560   28.8230   50.0480 C   0  0  0  0  0  0  0  0  0  0  0  0
   61.4150   29.1130   51.3090 C   0  0  0  0  0  0  0  0  0  0  0  0
   61.8660   28.0800   52.1340 C   0  0  0  0  0  0  0  0  0  0  0  0
   61.7600   26.7460   51.7170 C   0  0  0  0  0  0  0  0  0  0  0  0
   62.3110   25.4570   52.7820 S   0  0  0  0  0  0  0  0  0  0  0  0
   61.4170   25.3370   53.9850 O   0  0  0  0  0  0  0  0  0  0  0  0
   62.2820   24.1580   52.0260 O   0  0  0  0  0  0  0  0  0  0  0  0
   63.9350   25.7780   53.3030 N   0  0  0  0  0  0  0  0  0  0  0  0
   64.7290   26.5970   52.6880 C   0  0  0  0  0  0  0  0  0  0  0  0
   64.7440   27.9330   52.8940 N   0  0  0  0  0  0  0  0  0  0  0  0
   65.6640   28.5420   52.1050 C   0  0  0  0  0  0  0  0  0  0  0  0
   66.3800   27.6930   51.2680 C   0  0  0  0  0  0  0  0  0  0  0  0
   65.8430   26.1200   51.5300 S   0  0  0  0  0  0  0  0  0  0  0  0
   61.1870   26.4500   50.4690 C   0  0  0  0  0  0  0  0  0  0  0  0
   60.7320   27.4840   49.6440 C   0  0  0  0  0  0  0  0  0  0  0  0
   59.6440   32.2990   47.2010 C   0  0  0  0  0  0  0  0  0  0  0  0
   56.6390   30.3040   44.5240 C   0  0  0  0  0  0  0  0  0  0  0  0
   56.2900   28.9940   44.8630 C   0  0  0  0  0  0  0  0  0  0  0  0
   54.7690   27.0780   46.6730 H   0  0  0  0  0  0  0  0  0  0  0  0
   59.2903   27.9533   46.1541 H   0  0  0  0  0  0  0  0  0  0  0  0
   59.9075   30.2855   45.5303 H   0  0  0  0  0  0  0  0  0  0  0  0
   58.7651   35.6030   47.2706 H   0  0  0  0  0  0  0  0  0  0  0  0
   60.2642   35.5431   49.2647 H   0  0  0  0  0  0  0  0  0  0  0  0
   61.3716   33.4150   49.9376 H   0  0  0  0  0  0  0  0  0  0  0  0
   59.3750   29.7720   48.8330 H   0  0  0  0  0  0  0  0  0  0  0  0
   61.4964   30.1573   51.6449 H   0  0  0  0  0  0  0  0  0  0  0  0
   62.3060   28.3143   53.1146 H   0  0  0  0  0  0  0  0  0  0  0  0
   65.8317   29.6290   52.1257 H   0  0  0  0  0  0  0  0  0  0  0  0
   67.1624   27.9973   50.5572 H   0  0  0  0  0  0  0  0  0  0  0  0
   61.0960   25.4042   50.1402 H   0  0  0  0  0  0  0  0  0  0  0  0
   60.2741   27.2466   48.6724 H   0  0  0  0  0  0  0  0  0  0  0  0
   59.4610   31.3824   46.6210 H   0  0  0  0  0  0  0  0  0  0  0  0
   55.8893   30.9698   44.0717 H   0  0  0  0  0  0  0  0  0  0  0  0
   55.2709   28.6282   44.6688 H   0  0  0  0  0  0  0  0  0  0  0  0
  1  2  1  0
  2  3  2  0
  2  4  2  0
  2  5  1  0
  5  6  2  0
  6  7  1  0
  7  8  2  0
  8  9  1  0
  9 10  1  0
 10 11  2  0
 10 12  2  0
 10 13  1  0
 13 14  2  0
 14 15  1  0
 15 16  2  0
 16 17  1  0
 17 18  1  0
 18 19  2  0
 18 20  1  0
 20 21  1  0
 21 22  2  0
 22 23  1  0
 23 24  2  0
 24 25  1  0
 25 26  2  0
 25 27  2  0
 25 28  1  0
 28 29  2  3
 29 30  1  0
 30 31  1  0
 31 32  2  0
 32 33  1  0
 24 34  1  0
 34 35  2  0
 17 36  2  0
  8 37  1  0
 37 38  2  0
 38  5  1  0
 36 13  1  0
 35 21  1  0
 33 29  1  0
  1 39  1  0
  6 40  1  0
  7 41  1  0
 14 42  1  0
 15 43  1  0
 16 44  1  0
 20 45  1  0
 22 46  1  0
 23 47  1  0
 31 48  1  0
 32 49  1  0
 34 50  1  0
 35 51  1  0
 36 52  1  0
 37 53  1  0
 38 54  1  0
M  CHG  3   1  -1   9  -1  30  -1
M  END
>  <UniqueID>  (17) 
17

>  <SMILES>  (17) 
[NH-]S(=O)(=O)c1ccc([N-]S(=O)(=O)c2cccc(C(=O)Nc3ccc(S(=O)(=O)N=c4[n-]ccs4)cc3)c2)cc1

>  <Energy>  (17) 
100.3693987852151

>  <Genealogy>  (17) 
[NH-]S(=O)(=O)c1ccc([N-]S(=O)(=O)c2cccc(C(=O)Nc3ccc(S(=O)(=O)N=c4[n-]ccs4)cc3)c2)cc1 (protonated)
[NH-]S(=O)(=O)c1ccc([N-]S(=O)(=O)c2cccc(C(=O)Nc3ccc(S(=O)(=O)N=c4[n-]ccs4)cc3)c2)cc1 (3D coordinates assigned)
[NH-]S(=O)(=O)c1ccc([N-]S(=O)(=O)c2cccc(C(=O)Nc3ccc(S(=O)(=O)N=c4[n-]ccs4)cc3)c2)cc1 (optimized conformer: 100.3693987852151 kcal/mol)

>  <smiles>  (17) 
NS(=O)(=O)c1ccc(NS(=O)(=O)c2cccc(C(=O)Nc3ccc(S(=O)(=O)N=c4[nH]ccs4)cc3)c2)cc1

>  <score_type>  (17) 
oracle

>  <origin>  (17) 
adg

>  <m_score__min__energy>  (17) 
-15.15

>  <m_primary>  (17) 
energy

$$$$
17:0
     RDKit          3D

 43 45  0  0  0  0  0  0  0  0999 V2000
   59.6340   35.6660   45.7070 C   0  0  0  0  0  0  0  0  0  0  0  0
   59.3420   34.7320   44.6720 O   0  0  0  0  0  0  0  0  0  0  0  0
   58.7120   33.4950   44.8740 C   0  0  0  0  0  0  0  0  0  0  0  0
   58.7130   32.9540   46.1610 C   0  0  0  0  0  0  0  0  0  0  0  0
   58.1050   31.7230   46.4150 C   0  0  0  0  0  0  0  0  0  0  0  0
   57.4710   31.0110   45.3840 C   0  0  0  0  0  0  0  0  0  0  0  0
   56.8820   29.7240   45.6500 N   0  0  0  0  0  0  0  0  0  0  0  0
   57.6150   28.4910   45.5530 C   0  0  0  0  0  0  0  0  0  0  0  0
   58.8730   28.5070   45.4820 O   0  0  0  0  0  0  0  0  0  0  0  0
   56.9180   27.1940   45.5670 C   0  0  0  0  0  0  0  0  0  0  0  0
   57.4360   25.9690   45.1960 C   0  0  0  0  0  0  0  0  0  0  0  0
   56.3960   25.0860   45.4130 C   0  0  0  0  0  0  0  0  0  0  0  0
   56.4130   23.6330   45.1230 C   0  0  0  0  0  0  0  0  0  0  0  0
   56.3770   23.2210   43.7780 C   0  0  0  0  0  0  0  0  0  0  0  0
   56.3420   21.8660   43.4460 C   0  0  0  0  0  0  0  0  0  0  0  0
   56.3430   20.9010   44.4510 C   0  0  0  0  0  0  0  0  0  0  0  0
   56.3940   21.2880   45.7910 C   0  0  0  0  0  0  0  0  0  0  0  0
   56.4440   22.6460   46.1460 C   0  0  0  0  0  0  0  0  0  0  0  0
   56.6030   23.0590   47.8630 S   0  0  0  0  0  0  0  0  0  0  0  0
   57.3620   21.7690   48.7280 N   0  0  0  0  0  0  0  0  0  0  0  0
   57.4490   24.2920   48.0190 O   0  0  0  0  0  0  0  0  0  0  0  0
   55.2410   23.3020   48.4500 O   0  0  0  0  0  0  0  0  0  0  0  0
   55.3220   25.7600   45.8710 N   0  0  0  0  0  0  0  0  0  0  0  0
   55.6430   27.0400   45.9730 N   0  0  0  0  0  0  0  0  0  0  0  0
   57.4650   31.5490   44.0750 C   0  0  0  0  0  0  0  0  0  0  0  0
   56.8100   30.8130   42.9370 C   0  0  0  0  0  0  0  0  0  0  0  0
   58.0910   32.7840   43.8300 C   0  0  0  0  0  0  0  0  0  0  0  0
   59.4843   35.1872   46.6859 H   0  0  0  0  0  0  0  0  0  0  0  0
   60.6788   35.9981   45.6172 H   0  0  0  0  0  0  0  0  0  0  0  0
   58.9644   36.5341   45.6172 H   0  0  0  0  0  0  0  0  0  0  0  0
   59.1972   33.5025   46.9824 H   0  0  0  0  0  0  0  0  0  0  0  0
   58.1228   31.3067   47.4330 H   0  0  0  0  0  0  0  0  0  0  0  0
   55.8990   29.6920   45.9970 H   0  0  0  0  0  0  0  0  0  0  0  0
   58.4440   25.7474   44.8155 H   0  0  0  0  0  0  0  0  0  0  0  0
   56.3764   23.9764   42.9784 H   0  0  0  0  0  0  0  0  0  0  0  0
   56.3136   21.5595   42.3899 H   0  0  0  0  0  0  0  0  0  0  0  0
   56.3036   19.8336   44.1882 H   0  0  0  0  0  0  0  0  0  0  0  0
   56.3951   20.5201   46.5786 H   0  0  0  0  0  0  0  0  0  0  0  0
   57.7080   21.0850   48.0170 H   0  0  0  0  0  0  0  0  0  0  0  0
   56.1292   30.0480   43.3386 H   0  0  0  0  0  0  0  0  0  0  0  0
   56.2401   31.5237   42.3204 H   0  0  0  0  0  0  0  0  0  0  0  0
   57.5820   30.3295   42.3204 H   0  0  0  0  0  0  0  0  0  0  0  0
   58.0954   33.1990   42.8113 H   0  0  0  0  0  0  0  0  0  0  0  0
  1  2  1  0
  2  3  1  0
  3  4  2  0
  4  5  1  0
  5  6  2  0
  6  7  1  0
  7  8  1  0
  8  9  2  0
  8 10  1  0
 10 11  1  0
 11 12  2  0
 12 13  1  0
 13 14  2  0
 14 15  1  0
 15 16  2  0
 16 17  1  0
 17 18  2  0
 18 19  1  0
 19 20  1  0
 19 21  2  0
 19 22  2  0
 12 23  1  0
 23 24  1  0
  6 25  1  0
 25 26  1  0
 25 27  2  0
 27  3  1  0
 24 10  2  0
 18 13  1  0
  1 28  1  0
  1 29  1  0
  1 30  1  0
  4 31  1  0
  5 32  1  0
  7 33  1  0
 11 34  1  0
 14 35  1  0
 15 36  1  0
 16 37  1  0
 17 38  1  0
 20 39  1  0
 26 40  1  0
 26 41  1  0
 26 42  1  0
 27 43  1  0
M  CHG  2  20  -1  23  -1
M  END
>  <UniqueID>  (18) 
18

>  <SMILES>  (18) 
COc1ccc(NC(=O)c2cc(-c3ccccc3S([NH-])(=O)=O)[n-]n2)c(C)c1

>  <Energy>  (18) 
84.38897841770441

>  <Genealogy>  (18) 
COc1ccc(NC(=O)c2cc(-c3ccccc3S([NH-])(=O)=O)[n-]n2)c(C)c1 (protonated)
COc1ccc(NC(=O)c2cc(-c3ccccc3S([NH-])(=O)=O)[n-]n2)c(C)c1 (3D coordinates assigned)
COc1ccc(NC(=O)c2cc(-c3ccccc3S([NH-])(=O)=O)[n-]n2)c(C)c1 (optimized conformer: 84.38897841770441 kcal/mol)

>  <smiles>  (18) 
COc1ccc(NC(=O)c2cc(-c3ccccc3S(N)(=O)=O)[nH]n2)c(C)c1

>  <score_type>  (18) 
oracle

>  <origin>  (18) 
adg

>  <m_score__min__energy>  (18) 
-11.73

>  <m_primary>  (18) 
energy

$$$$
18:0
     RDKit          3D

 48 51  0  0  0  0  0  0  0  0999 V2000
   57.0335   31.3077   41.3418 H   0  0  0  0  0  0  0  0  0  0  0  0
   57.0510   31.2070   42.4370 C   0  0  0  0  0  0  0  0  0  0  0  0
   56.5330   30.0980   43.0250 N   0  0  0  0  0  0  0  0  0  0  0  0
   56.5490   29.9470   44.3760 C   0  0  0  0  0  0  0  0  0  0  0  0
   56.0210   28.8800   44.9010 N   0  0  0  0  0  0  0  0  0  0  0  0
   56.7100   27.8420   45.6220 C   0  0  0  0  0  0  0  0  0  0  0  0
   58.0710   27.9470   45.9610 C   0  0  0  0  0  0  0  0  0  0  0  0
   58.6347   28.8537   45.6960 H   0  0  0  0  0  0  0  0  0  0  0  0
   58.7080   26.9010   46.6340 C   0  0  0  0  0  0  0  0  0  0  0  0
   59.7686   26.9937   46.9106 H   0  0  0  0  0  0  0  0  0  0  0  0
   58.0050   25.7390   46.9570 C   0  0  0  0  0  0  0  0  0  0  0  0
   58.5110   24.9234   47.4945 H   0  0  0  0  0  0  0  0  0  0  0  0
   56.6510   25.6080   46.5970 C   0  0  0  0  0  0  0  0  0  0  0  0
   55.8890   24.4300   46.8920 N   0  0  0  0  0  0  0  0  0  0  0  0
   54.5400   23.8380   45.9780 S   0  0  0  0  0  0  0  0  0  0  0  0
   53.6500   24.9970   45.6260 O   0  0  0  0  0  0  0  0  0  0  0  0
   55.0220   23.1960   44.7060 O   0  0  0  0  0  0  0  0  0  0  0  0
   53.6060   22.6730   46.9460 C   0  0  0  0  0  0  0  0  0  0  0  0
   53.7664   22.8731   48.0157 H   0  0  0  0  0  0  0  0  0  0  0  0
   52.5364   22.7747   46.7103 H   0  0  0  0  0  0  0  0  0  0  0  0
   53.9378   21.6511   46.7103 H   0  0  0  0  0  0  0  0  0  0  0  0
   56.0190   26.6600   45.9190 C   0  0  0  0  0  0  0  0  0  0  0  0
   54.9666   26.5559   45.6162 H   0  0  0  0  0  0  0  0  0  0  0  0
   57.0760   30.9320   45.1550 N   0  0  0  0  0  0  0  0  0  0  0  0
   57.6060   32.0570   44.6080 C   0  0  0  0  0  0  0  0  0  0  0  0
   58.1570   33.0620   45.4550 N   0  0  0  0  0  0  0  0  0  0  0  0
   58.3970   34.5150   45.3940 C   0  0  0  0  0  0  0  0  0  0  0  0
   59.0965   34.7967   44.5932 H   0  0  0  0  0  0  0  0  0  0  0  0
   57.5318   35.1572   45.1726 H   0  0  0  0  0  0  0  0  0  0  0  0
   59.0010   34.6320   46.7550 C   0  0  0  0  0  0  0  0  0  0  0  0
   58.6642   35.3359   47.5303 H   0  0  0  0  0  0  0  0  0  0  0  0
   60.3890   34.9560   46.6960 O   0  0  0  0  0  0  0  0  0  0  0  0
   61.4040   34.2110   47.3150 C   0  0  0  0  0  0  0  0  0  0  0  0
   61.3580   33.8600   48.6790 C   0  0  0  0  0  0  0  0  0  0  0  0
   60.5046   34.1742   49.2979 H   0  0  0  0  0  0  0  0  0  0  0  0
   62.3950   33.1130   49.2480 C   0  0  0  0  0  0  0  0  0  0  0  0
   62.3545   32.8406   50.3130 H   0  0  0  0  0  0  0  0  0  0  0  0
   63.4820   32.7120   48.4670 C   0  0  0  0  0  0  0  0  0  0  0  0
   64.4850   31.9880   49.0210 F   0  0  0  0  0  0  0  0  0  0  0  0
   63.5320   33.0570   47.1130 C   0  0  0  0  0  0  0  0  0  0  0  0
   64.3870   32.7411   46.4972 H   0  0  0  0  0  0  0  0  0  0  0  0
   62.4970   33.8030   46.5400 C   0  0  0  0  0  0  0  0  0  0  0  0
   62.5417   34.0710   45.4741 H   0  0  0  0  0  0  0  0  0  0  0  0
   58.7490   33.1580   46.8020 C   0  0  0  0  0  0  0  0  0  0  0  0
   59.6740   32.5714   46.9028 H   0  0  0  0  0  0  0  0  0  0  0  0
   58.1503   32.7770   47.6425 H   0  0  0  0  0  0  0  0  0  0  0  0
   57.6050   32.2180   43.2210 C   0  0  0  0  0  0  0  0  0  0  0  0
   58.0309   33.1205   42.7582 H   0  0  0  0  0  0  0  0  0  0  0  0
  1  2  1  0
  2  3  1  0
  3  4  1  0
  4  5  2  0
  5  6  1  0
  6  7  2  0
  7  8  1  0
  7  9  1  0
  9 10  1  0
  9 11  2  0
 11 12  1  0
 11 13  1  0
 13 14  1  0
 14 15  1  0
 15 16  2  0
 15 17  2  0
 15 18  1  0
 18 19  1  0
 18 20  1  0
 18 21  1  0
 13 22  2  0
 22 23  1  0
  4 24  1  0
 24 25  2  0
 25 26  1  0
 26 27  1  0
 27 28  1  0
 27 29  1  0
 27 30  1  0
 30 31  1  0
 30 32  1  0
 32 33  1  0
 33 34  2  0
 34 35  1  0
 34 36  1  0
 36 37  1  0
 36 38  2  0
 38 39  1  0
 38 40  1  0
 40 41  1  0
 40 42  2  0
 42 43  1  0
 30 44  1  0
 44 45  1  0
 44 46  1  0
 25 47  1  0
 47 48  1  0
 47  2  2  0
 22  6  1  0
 44 26  1  0
 42 33  1  0
M  CHG  2   3  -1  14  -1
M  END
>  <UniqueID>  (19) 
19

>  <SMILES>  (19) 
CS(=O)(=O)[N-]c1cccc(/N=c2\nc(N3CC(Oc4ccc(F)cc4)C3)cc[n-]2)c1

>  <Energy>  (19) 
101.26548488091353

>  <Genealogy>  (19) 
CS(=O)(=O)[N-]c1cccc(N=c2nc(N3CC(Oc4ccc(F)cc4)C3)cc[n-]2)c1 (protonated)
CS(=O)(=O)[N-]c1cccc(/N=c2\nc(N3CC(Oc4ccc(F)cc4)C3)cc[n-]2)c1 (cis-trans isomerization)
CS(=O)(=O)[N-]c1cccc(/N=c2\nc(N3CC(Oc4ccc(F)cc4)C3)cc[n-]2)c1 (3D coordinates assigned)
CS(=O)(=O)[N-]c1cccc(/N=c2\nc(N3CC(Oc4ccc(F)cc4)C3)cc[n-]2)c1 (nonaromatic ring conformer: 101.26548488091353 kcal/mol)

>  <smiles>  (19) 
CS(=O)(=O)Nc1cccc(N=c2nc(N3CC(Oc4ccc(F)cc4)C3)cc[nH]2)c1

>  <score_type>  (19) 
oracle

>  <origin>  (19) 
adg

>  <m_score__min__energy>  (19) 
-12.43

>  <m_primary>  (19) 
energy

$$$$
19:0
     RDKit          3D

 38 41  0  0  0  0  0  0  0  0999 V2000
   57.4030   28.6080   44.5490 C   0  0  0  0  0  0  0  0  0  0  0  0
   57.0540   29.6910   45.4050 O   0  0  0  0  0  0  0  0  0  0  0  0
   57.5070   31.0090   45.2430 C   0  0  0  0  0  0  0  0  0  0  0  0
   57.2630   31.7480   44.0740 C   0  0  0  0  0  0  0  0  0  0  0  0
   57.7330   33.0560   43.9570 C   0  0  0  0  0  0  0  0  0  0  0  0
   58.4550   33.6480   45.0030 C   0  0  0  0  0  0  0  0  0  0  0  0
   58.9220   34.9620   44.8690 C   0  0  0  0  0  0  0  0  0  0  0  0
   59.6460   35.5580   45.8980 C   0  0  0  0  0  0  0  0  0  0  0  0
   59.9110   34.8520   47.0710 C   0  0  0  0  0  0  0  0  0  0  0  0
   59.4510   33.5340   47.2420 C   0  0  0  0  0  0  0  0  0  0  0  0
   59.8070   32.8170   48.5300 C   0  0  0  0  0  0  0  0  0  0  0  0
   61.3000   32.7610   48.7340 C   0  0  0  0  0  0  0  0  0  0  0  0
   62.1320   32.1440   47.7620 C   0  0  0  0  0  0  0  0  0  0  0  0
   63.5260   32.0930   47.9410 C   0  0  0  0  0  0  0  0  0  0  0  0
   64.0550   32.6740   49.0880 C   0  0  0  0  0  0  0  0  0  0  0  0
   63.2700   33.2780   50.0150 C   0  0  0  0  0  0  0  0  0  0  0  0
   61.8870   33.3510   49.8780 C   0  0  0  0  0  0  0  0  0  0  0  0
   64.0590   33.7680   51.0380 O   0  0  0  0  0  0  0  0  0  0  0  0
   65.4250   33.4500   50.7350 C   0  0  0  0  0  0  0  0  0  0  0  0
   65.3770   32.7540   49.4830 O   0  0  0  0  0  0  0  0  0  0  0  0
   58.7130   32.9170   46.1940 C   0  0  0  0  0  0  0  0  0  0  0  0
   58.2250   31.5960   46.2900 C   0  0  0  0  0  0  0  0  0  0  0  0
   57.6841   27.7357   45.1573 H   0  0  0  0  0  0  0  0  0  0  0  0
   56.5424   28.3503   43.9142 H   0  0  0  0  0  0  0  0  0  0  0  0
   58.2521   28.9013   43.9142 H   0  0  0  0  0  0  0  0  0  0  0  0
   56.6985   31.2931   43.2467 H   0  0  0  0  0  0  0  0  0  0  0  0
   57.5359   33.6270   43.0377 H   0  0  0  0  0  0  0  0  0  0  0  0
   58.7158   35.5252   43.9469 H   0  0  0  0  0  0  0  0  0  0  0  0
   60.0104   36.5898   45.7853 H   0  0  0  0  0  0  0  0  0  0  0  0
   60.4883   35.3330   47.8743 H   0  0  0  0  0  0  0  0  0  0  0  0
   59.3501   33.3521   49.3755 H   0  0  0  0  0  0  0  0  0  0  0  0
   59.4271   31.7865   48.4690 H   0  0  0  0  0  0  0  0  0  0  0  0
   61.6818   31.7020   46.8609 H   0  0  0  0  0  0  0  0  0  0  0  0
   64.1767   31.6091   47.1977 H   0  0  0  0  0  0  0  0  0  0  0  0
   61.2685   33.8527   50.6368 H   0  0  0  0  0  0  0  0  0  0  0  0
   66.0242   34.3680   50.6439 H   0  0  0  0  0  0  0  0  0  0  0  0
   65.8926   32.8447   51.5256 H   0  0  0  0  0  0  0  0  0  0  0  0
   58.4130   31.0169   47.2061 H   0  0  0  0  0  0  0  0  0  0  0  0
  1  2  1  0
  2  3  1  0
  3  4  2  0
  4  5  1  0
  5  6  2  0
  6  7  1  0
  7  8  2  0
  8  9  1  0
  9 10  2  0
 10 11  1  0
 11 12  1  0
 12 13  2  0
 13 14  1  0
 14 15  2  0
 15 16  1  0
 16 17  2  0
 16 18  1  0
 18 19  1  0
 19 20  1  0
 10 21  1  0
 21 22  2  0
 22  3  1  0
 21  6  1  0
 17 12  1  0
 20 15  1  0
  1 23  1  0
  1 24  1  0
  1 25  1  0
  4 26  1  0
  5 27  1  0
  7 28  1  0
  8 29  1  0
  9 30  1  0
 11 31  1  0
 11 32  1  0
 13 33  1  0
 14 34  1  0
 17 35  1  0
 19 36  1  0
 19 37  1  0
 22 38  1  0
M  END
>  <UniqueID>  (20) 
20

>  <SMILES>  (20) 
COc1ccc2cccc(Cc3ccc4c(c3)OCO4)c2c1

>  <Energy>  (20) 
74.06633370412672

>  <Genealogy>  (20) 
COc1ccc2cccc(Cc3ccc4c(c3)OCO4)c2c1 (3D coordinates assigned)
COc1ccc2cccc(Cc3ccc4c(c3)OCO4)c2c1 (nonaromatic ring conformer: 74.06633370412672 kcal/mol)

>  <smiles>  (20) 
COc1ccc2cccc(Cc3ccc4c(c3)OCO4)c2c1

>  <score_type>  (20) 
oracle

>  <origin>  (20) 
adg

>  <m_score__min__energy>  (20) 
-7.5999999999999996

>  <m_primary>  (20) 
energy

$$$$
20:0
     RDKit          3D

 52 54  0  0  0  0  0  0  0  0999 V2000
   56.2980   22.6850   43.1450 C   0  0  0  0  0  0  0  0  0  0  0  0
   55.5400   23.1300   44.3240 N   0  0  0  0  0  0  0  0  0  0  0  0
   55.5490   22.1140   45.3870 C   0  0  0  0  0  0  0  0  0  0  0  0
   55.9200   24.4830   44.7940 C   0  0  0  0  0  0  0  0  0  0  0  0
   54.8290   25.2430   45.5800 C   0  0  0  0  0  0  0  0  0  0  0  0
   55.2740   26.5690   46.0050 N   0  0  0  0  0  0  0  0  0  0  0  0
   56.6330   27.0250   46.0620 C   0  0  0  0  0  0  0  0  0  0  0  0
   57.5030   26.2700   46.5720 O   0  0  0  0  0  0  0  0  0  0  0  0
   57.0400   28.3520   45.5660 C   0  0  0  0  0  0  0  0  0  0  0  0
   56.1320   29.1330   44.8370 C   0  0  0  0  0  0  0  0  0  0  0  0
   56.5050   30.3930   44.3620 C   0  0  0  0  0  0  0  0  0  0  0  0
   57.7860   30.9080   44.6370 C   0  0  0  0  0  0  0  0  0  0  0  0
   58.2370   32.2480   44.0990 C   0  0  0  0  0  0  0  0  0  0  0  0
   58.0900   33.3240   45.0910 N   0  0  0  0  0  0  0  0  0  0  0  0
   56.9690   34.2600   44.9480 C   0  0  0  0  0  0  0  0  0  0  0  0
   59.0270   33.4710   46.1870 C   0  0  0  0  0  0  0  0  0  0  0  0
   58.5650   33.6320   47.5090 C   0  0  0  0  0  0  0  0  0  0  0  0
   59.4610   33.7820   48.5690 C   0  0  0  0  0  0  0  0  0  0  0  0
   60.8370   33.7760   48.3310 C   0  0  0  0  0  0  0  0  0  0  0  0
   61.7110   33.9230   49.3640 N   0  0  0  0  0  0  0  0  0  0  0  0
   63.0570   33.9250   49.1670 C   0  0  0  0  0  0  0  0  0  0  0  0
   63.8320   34.0640   50.1500 O   0  0  0  0  0  0  0  0  0  0  0  0
   63.5780   33.7760   47.8780 C   0  0  0  0  0  0  0  0  0  0  0  0
   62.7060   33.6220   46.7980 C   0  0  0  0  0  0  0  0  0  0  0  0
   61.3210   33.6190   47.0160 C   0  0  0  0  0  0  0  0  0  0  0  0
   60.4190   33.4690   45.9530 C   0  0  0  0  0  0  0  0  0  0  0  0
   58.6890   30.1250   45.3740 C   0  0  0  0  0  0  0  0  0  0  0  0
   58.3150   28.8630   45.8450 C   0  0  0  0  0  0  0  0  0  0  0  0
   57.2040   22.1531   43.4709 H   0  0  0  0  0  0  0  0  0  0  0  0
   55.6738   22.0100   42.5411 H   0  0  0  0  0  0  0  0  0  0  0  0
   56.5832   23.5591   42.5411 H   0  0  0  0  0  0  0  0  0  0  0  0
   55.5446   22.6103   46.3686 H   0  0  0  0  0  0  0  0  0  0  0  0
   54.6565   21.4779   45.2938 H   0  0  0  0  0  0  0  0  0  0  0  0
   56.4527   21.4938   45.2938 H   0  0  0  0  0  0  0  0  0  0  0  0
   56.7993   24.3807   45.4469 H   0  0  0  0  0  0  0  0  0  0  0  0
   56.1087   25.0765   43.8873 H   0  0  0  0  0  0  0  0  0  0  0  0
   53.9437   25.3561   44.9370 H   0  0  0  0  0  0  0  0  0  0  0  0
   54.5972   24.6600   46.4836 H   0  0  0  0  0  0  0  0  0  0  0  0
   55.1197   28.7514   44.6378 H   0  0  0  0  0  0  0  0  0  0  0  0
   55.7931   30.9863   43.7694 H   0  0  0  0  0  0  0  0  0  0  0  0
   59.2958   32.1753   43.8098 H   0  0  0  0  0  0  0  0  0  0  0  0
   57.6019   32.4960   43.2358 H   0  0  0  0  0  0  0  0  0  0  0  0
   56.6113   34.5587   45.9444 H   0  0  0  0  0  0  0  0  0  0  0  0
   57.3033   35.1509   44.3962 H   0  0  0  0  0  0  0  0  0  0  0  0
   56.1520   33.7721   44.3962 H   0  0  0  0  0  0  0  0  0  0  0  0
   57.4832   33.6395   47.7082 H   0  0  0  0  0  0  0  0  0  0  0  0
   59.0821   33.9052   49.5943 H   0  0  0  0  0  0  0  0  0  0  0  0
   64.6660   33.7800   47.7159 H   0  0  0  0  0  0  0  0  0  0  0  0
   63.1045   33.5034   45.7796 H   0  0  0  0  0  0  0  0  0  0  0  0
   60.7994   33.3487   44.9279 H   0  0  0  0  0  0  0  0  0  0  0  0
   59.6990   30.5078   45.5825 H   0  0  0  0  0  0  0  0  0  0  0  0
   59.0252   28.2678   46.4378 H   0  0  0  0  0  0  0  0  0  0  0  0
  1  2  1  0
  2  3  1  0
  2  4  1  0
  4  5  1  0
  5  6  1  0
  6  7  1  0
  7  8  2  0
  7  9  1  0
  9 10  2  0
 10 11  1  0
 11 12  2  0
 12 13  1  0
 13 14  1  0
 14 15  1  0
 14 16  1  0
 16 17  2  0
 17 18  1  0
 18 19  2  0
 19 20  1  0
 20 21  1  0
 21 22  2  0
 21 23  1  0
 23 24  2  0
 24 25  1  0
 25 26  2  0
 12 27  1  0
 27 28  2  0
 28  9  1  0
 26 16  1  0
 25 19  1  0
  1 29  1  0
  1 30  1  0
  1 31  1  0
  3 32  1  0
  3 33  1  0
  3 34  1  0
  4 35  1  0
  4 36  1  0
  5 37  1  0
  5 38  1  0
 10 39  1  0
 11 40  1  0
 13 41  1  0
 13 42  1  0
 15 43  1  0
 15 44  1  0
 15 45  1  0
 17 46  1  0
 18 47  1  0
 23 48  1  0
 24 49  1  0
 26 50  1  0
 27 51  1  0
 28 52  1  0
M  CHG  2   6  -1  20  -1
M  END
>  <UniqueID>  (21) 
21

>  <SMILES>  (21) 
CN(C)CC[N-]C(=O)c1ccc(CN(C)c2ccc3[n-]c(=O)ccc3c2)cc1

>  <Energy>  (21) 
67.12592040466917

>  <Genealogy>  (21) 
CN(C)CC[N-]C(=O)c1ccc(CN(C)c2ccc3[n-]c(=O)ccc3c2)cc1 (protonated)
CN(C)CC[N-]C(=O)c1ccc(CN(C)c2ccc3[n-]c(=O)ccc3c2)cc1 (3D coordinates assigned)
CN(C)CC[N-]C(=O)c1ccc(CN(C)c2ccc3[n-]c(=O)ccc3c2)cc1 (optimized conformer: 67.12592040466917 kcal/mol)

>  <smiles>  (21) 
CN(C)CCNC(=O)c1ccc(CN(C)c2ccc3[nH]c(=O)ccc3c2)cc1

>  <score_type>  (21) 
oracle

>  <origin>  (21) 
adg

>  <m_score__min__energy>  (21) 
-11.24

>  <m_primary>  (21) 
energy

$$$$
21:0
     RDKit          3D

 50 52  0  0  0  0  0  0  0  0999 V2000
   61.1190   26.3700   46.5970 C   0  0  0  0  0  0  0  0  0  0  0  0
   60.4770   27.4440   47.3560 N   0  0  0  0  0  0  0  0  0  0  0  0
   60.6980   27.6020   48.7940 C   0  0  0  0  0  0  0  0  0  0  0  0
   59.5700   28.3340   46.6880 C   0  0  0  0  0  0  0  0  0  0  0  0
   58.3620   27.8360   46.1850 C   0  0  0  0  0  0  0  0  0  0  0  0
   57.4740   28.6770   45.5130 C   0  0  0  0  0  0  0  0  0  0  0  0
   57.7730   30.0390   45.3430 C   0  0  0  0  0  0  0  0  0  0  0  0
   56.8260   30.9370   44.6420 C   0  0  0  0  0  0  0  0  0  0  0  0
   55.6220   30.5910   44.4890 O   0  0  0  0  0  0  0  0  0  0  0  0
   57.2700   32.2020   44.1360 N   0  0  0  0  0  0  0  0  0  0  0  0
   57.0270   33.4730   44.8080 C   0  0  0  0  0  0  0  0  0  0  0  0
   58.1140   33.7500   45.8120 C   0  0  0  0  0  0  0  0  0  0  0  0
   59.3470   34.2730   45.3860 C   0  0  0  0  0  0  0  0  0  0  0  0
   60.3700   34.5070   46.3100 C   0  0  0  0  0  0  0  0  0  0  0  0
   60.1690   34.2210   47.6630 C   0  0  0  0  0  0  0  0  0  0  0  0
   58.9460   33.6980   48.0950 C   0  0  0  0  0  0  0  0  0  0  0  0
   57.9220   33.4600   47.1730 C   0  0  0  0  0  0  0  0  0  0  0  0
   58.9840   30.5390   45.8550 C   0  0  0  0  0  0  0  0  0  0  0  0
   59.8930   29.6930   46.5130 C   0  0  0  0  0  0  0  0  0  0  0  0
   61.1060   30.2210   47.0750 N   0  0  0  0  0  0  0  0  0  0  0  0
   61.1460   30.9680   48.3060 C   0  0  0  0  0  0  0  0  0  0  0  0
   60.0870   31.1450   48.9680 O   0  0  0  0  0  0  0  0  0  0  0  0
   62.4140   31.5460   48.8110 C   0  0  0  0  0  0  0  0  0  0  0  0
   62.9890   31.1040   50.0200 C   0  0  0  0  0  0  0  0  0  0  0  0
   64.1880   31.6590   50.4750 C   0  0  0  0  0  0  0  0  0  0  0  0
   64.8310   32.6500   49.7310 C   0  0  0  0  0  0  0  0  0  0  0  0
   64.2790   33.0850   48.5250 C   0  0  0  0  0  0  0  0  0  0  0  0
   63.0790   32.5350   48.0640 C   0  0  0  0  0  0  0  0  0  0  0  0
   61.5558   25.6392   47.2935 H   0  0  0  0  0  0  0  0  0  0  0  0
   60.3710   25.8709   45.9635 H   0  0  0  0  0  0  0  0  0  0  0  0
   61.9128   26.7926   45.9635 H   0  0  0  0  0  0  0  0  0  0  0  0
   59.9244   27.0489   49.3468 H   0  0  0  0  0  0  0  0  0  0  0  0
   61.6902   27.2073   49.0580 H   0  0  0  0  0  0  0  0  0  0  0  0
   60.6455   28.6686   49.0580 H   0  0  0  0  0  0  0  0  0  0  0  0
   58.1110   26.7736   46.3206 H   0  0  0  0  0  0  0  0  0  0  0  0
   56.5332   28.2705   45.1136 H   0  0  0  0  0  0  0  0  0  0  0  0
   57.0086   34.2805   44.0612 H   0  0  0  0  0  0  0  0  0  0  0  0
   56.0611   33.4216   45.3318 H   0  0  0  0  0  0  0  0  0  0  0  0
   59.5078   34.4991   44.3216 H   0  0  0  0  0  0  0  0  0  0  0  0
   61.3333   34.9164   45.9718 H   0  0  0  0  0  0  0  0  0  0  0  0
   60.9738   34.4075   48.3893 H   0  0  0  0  0  0  0  0  0  0  0  0
   58.7895   33.4738   49.1605 H   0  0  0  0  0  0  0  0  0  0  0  0
   56.9627   33.0442   47.5147 H   0  0  0  0  0  0  0  0  0  0  0  0
   59.2227   31.6065   45.7388 H   0  0  0  0  0  0  0  0  0  0  0  0
   61.9810   30.1040   46.5190 H   0  0  0  0  0  0  0  0  0  0  0  0
   62.4915   30.3186   50.6079 H   0  0  0  0  0  0  0  0  0  0  0  0
   64.6268   31.3138   51.4228 H   0  0  0  0  0  0  0  0  0  0  0  0
   65.7722   33.0878   50.0950 H   0  0  0  0  0  0  0  0  0  0  0  0
   64.7889   33.8618   47.9363 H   0  0  0  0  0  0  0  0  0  0  0  0
   62.6519   32.8783   47.1102 H   0  0  0  0  0  0  0  0  0  0  0  0
  1  2  1  0
  2  3  1  0
  2  4  1  0
  4  5  2  0
  5  6  1  0
  6  7  2  0
  7  8  1  0
  8  9  2  0
  8 10  1  0
 10 11  1  0
 11 12  1  0
 12 13  2  0
 13 14  1  0
 14 15  2  0
 15 16  1  0
 16 17  2  0
  7 18  1  0
 18 19  2  0
 19 20  1  0
 20 21  1  0
 21 22  2  0
 21 23  1  0
 23 24  2  0
 24 25  1  0
 25 26  2  0
 26 27  1  0
 27 28  2  0
 19  4  1  0
 28 23  1  0
 17 12  1  0
  1 29  1  0
  1 30  1  0
  1 31  1  0
  3 32  1  0
  3 33  1  0
  3 34  1  0
  5 35  1  0
  6 36  1  0
 11 37  1  0
 11 38  1  0
 13 39  1  0
 14 40  1  0
 15 41  1  0
 16 42  1  0
 17 43  1  0
 18 44  1  0
 20 45  1  0
 24 46  1  0
 25 47  1  0
 26 48  1  0
 27 49  1  0
 28 50  1  0
M  CHG  1  10  -1
M  END
>  <UniqueID>  (22) 
22

>  <SMILES>  (22) 
CN(C)c1ccc(C(=O)[N-]Cc2ccccc2)cc1NC(=O)c1ccccc1

>  <Energy>  (22) 
60.82194059764144

>  <Genealogy>  (22) 
CN(C)c1ccc(C(=O)[N-]Cc2ccccc2)cc1NC(=O)c1ccccc1 (protonated)
CN(C)c1ccc(C(=O)[N-]Cc2ccccc2)cc1NC(=O)c1ccccc1 (3D coordinates assigned)
CN(C)c1ccc(C(=O)[N-]Cc2ccccc2)cc1NC(=O)c1ccccc1 (optimized conformer: 60.82194059764144 kcal/mol)

>  <smiles>  (22) 
CN(C)c1ccc(C(=O)NCc2ccccc2)cc1NC(=O)c1ccccc1

>  <score_type>  (22) 
oracle

>  <origin>  (22) 
adg

>  <m_score__min__energy>  (22) 
-10.09

>  <m_primary>  (22) 
energy

$$$$
22:0
     RDKit          3D

 43 46  0  0  0  0  0  0  0  0999 V2000
   58.6374   20.9157   43.3895 H   0  0  0  0  0  0  0  0  0  0  0  0
   58.1440   21.8140   43.7890 C   0  0  0  0  0  0  0  0  0  0  0  0
   56.9690   22.2800   43.2050 C   0  0  0  0  0  0  0  0  0  0  0  0
   56.5392   21.7533   42.3402 H   0  0  0  0  0  0  0  0  0  0  0  0
   56.3360   23.4140   43.7150 C   0  0  0  0  0  0  0  0  0  0  0  0
   55.4041   23.7706   43.2520 H   0  0  0  0  0  0  0  0  0  0  0  0
   56.8760   24.1080   44.8160 C   0  0  0  0  0  0  0  0  0  0  0  0
   56.1760   25.3150   45.3310 C   0  0  0  0  0  0  0  0  0  0  0  0
   56.6900   26.4570   45.1710 O   0  0  0  0  0  0  0  0  0  0  0  0
   54.9530   25.1970   45.9990 O   0  0  0  0  0  0  0  0  0  0  0  0
   53.9110   24.3360   45.5550 C   0  0  0  0  0  0  0  0  0  0  0  0
   53.3930   23.9080   46.4259 H   0  0  0  0  0  0  0  0  0  0  0  0
   53.1951   24.9095   44.9479 H   0  0  0  0  0  0  0  0  0  0  0  0
   54.3393   23.5248   44.9479 H   0  0  0  0  0  0  0  0  0  0  0  0
   58.0830   23.6420   45.3950 C   0  0  0  0  0  0  0  0  0  0  0  0
   58.6270   24.3060   46.5050 O   0  0  0  0  0  0  0  0  0  0  0  0
   58.8960   25.6790   46.5740 C   0  0  0  0  0  0  0  0  0  0  0  0
   59.7010   26.2890   45.6630 N   0  0  0  0  0  0  0  0  0  0  0  0
   59.9520   27.6220   45.7160 C   0  0  0  0  0  0  0  0  0  0  0  0
   60.6078   28.0925   44.9686 H   0  0  0  0  0  0  0  0  0  0  0  0
   59.3660   28.3990   46.7360 C   0  0  0  0  0  0  0  0  0  0  0  0
   59.5630   29.6850   46.8370 N   0  0  0  0  0  0  0  0  0  0  0  0
   58.9370   30.7120   46.0540 C   0  0  0  0  0  0  0  0  0  0  0  0
   59.2960   32.0610   46.2420 C   0  0  0  0  0  0  0  0  0  0  0  0
   60.0413   32.3255   47.0066 H   0  0  0  0  0  0  0  0  0  0  0  0
   58.7070   33.0770   45.4570 C   0  0  0  0  0  0  0  0  0  0  0  0
   58.9834   34.1281   45.6270 H   0  0  0  0  0  0  0  0  0  0  0  0
   57.7700   32.7540   44.4600 C   0  0  0  0  0  0  0  0  0  0  0  0
   57.3012   33.5377   43.8468 H   0  0  0  0  0  0  0  0  0  0  0  0
   57.4540   31.4110   44.2730 C   0  0  0  0  0  0  0  0  0  0  0  0
   56.6180   30.8070   43.3600 C   0  0  0  0  0  0  0  0  0  0  0  0
   55.9970   31.2974   42.5959 H   0  0  0  0  0  0  0  0  0  0  0  0
   56.7280   29.4440   43.6120 C   0  0  0  0  0  0  0  0  0  0  0  0
   56.1891   28.6611   43.0581 H   0  0  0  0  0  0  0  0  0  0  0  0
   57.5870   29.2110   44.6300 N   0  0  0  0  0  0  0  0  0  0  0  0
   57.8610   28.2770   45.0090 H   0  0  0  0  0  0  0  0  0  0  0  0
   58.0190   30.4190   45.0340 C   0  0  0  0  0  0  0  0  0  0  0  0
   58.5380   27.7850   47.6290 N   0  0  0  0  0  0  0  0  0  0  0  0
   58.0800   28.3460   48.3830 H   0  0  0  0  0  0  0  0  0  0  0  0
   58.2940   26.4490   47.5690 C   0  0  0  0  0  0  0  0  0  0  0  0
   57.6241   25.9768   48.3027 H   0  0  0  0  0  0  0  0  0  0  0  0
   58.6960   22.4850   44.8800 C   0  0  0  0  0  0  0  0  0  0  0  0
   59.6194   22.1060   45.3423 H   0  0  0  0  0  0  0  0  0  0  0  0
  1  2  1  0
  2  3  2  0
  3  4  1  0
  3  5  1  0
  5  6  1  0
  5  7  2  0
  7  8  1  0
  8  9  2  0
  8 10  1  0
 10 11  1  0
 11 12  1  0
 11 13  1  0
 11 14  1  0
  7 15  1  0
 15 16  1  0
 16 17  1  0
 17 18  1  0
 18 19  2  0
 19 20  1  0
 19 21  1  0
 21 22  2  0
 22 23  1  0
 23 24  2  0
 24 25  1  0
 24 26  1  0
 26 27  1  0
 26 28  2  0
 28 29  1  0
 28 30  1  0
 30 31  1  0
 31 32  1  0
 31 33  2  0
 33 34  1  0
 33 35  1  0
 35 36  1  0
 35 37  1  0
 21 38  1  0
 38 39  1  0
 38 40  1  0
 40 41  1  0
 15 42  2  0
 42 43  1  0
 42  2  1  0
 40 17  2  0
 37 23  1  0
 37 30  2  0
M  END
>  <UniqueID>  (23) 
23

>  <SMILES>  (23) 
COC(=O)c1ccccc1Oc1c[nH]/c(=N/c2cccc3cc[nH]c23)cn1

>  <Energy>  (23) 
96.08531190555787

>  <Genealogy>  (23) 
COC(=O)c1ccccc1Oc1c[nH]/c(=N/c2cccc3cc[nH]c23)cn1 (cis-trans isomerization)
COC(=O)c1ccccc1Oc1c[nH]/c(=N/c2cccc3cc[nH]c23)cn1 (3D coordinates assigned)
COC(=O)c1ccccc1Oc1c[nH]/c(=N/c2cccc3cc[nH]c23)cn1 (optimized conformer: 96.08531190555787 kcal/mol)

>  <smiles>  (23) 
COC(=O)c1ccccc1Oc1c[nH]c(=Nc2cccc3cc[nH]c23)cn1

>  <score_type>  (23) 
oracle

>  <origin>  (23) 
adg

>  <m_score__min__energy>  (23) 
-7.7599999999999998

>  <m_primary>  (23) 
energy

$$$$
23:0
     RDKit          3D

 30 31  0  0  0  0  0  0  0  0999 V2000
   55.2740   26.6900   45.9840 N   0  0  0  0  0  0  0  0  0  0  0  0
   56.7140   25.7750   46.2660 S   0  0  0  0  0  0  0  0  0  0  0  0
   56.5170   24.9230   47.4890 O   0  0  0  0  0  0  0  0  0  0  0  0
   56.9830   24.8830   45.0880 O   0  0  0  0  0  0  0  0  0  0  0  0
   58.0760   26.8770   46.4930 C   0  0  0  0  0  0  0  0  0  0  0  0
   58.9270   26.7140   47.5980 C   0  0  0  0  0  0  0  0  0  0  0  0
   59.9990   27.5870   47.7980 C   0  0  0  0  0  0  0  0  0  0  0  0
   60.2300   28.6260   46.8990 C   0  0  0  0  0  0  0  0  0  0  0  0
   59.3940   28.7980   45.7940 C   0  0  0  0  0  0  0  0  0  0  0  0
   58.3080   27.9260   45.5810 C   0  0  0  0  0  0  0  0  0  0  0  0
   57.4310   28.0850   44.4550 N   0  0  0  0  0  0  0  0  0  0  0  0
   56.4580   29.4820   44.1250 S   0  0  0  0  0  0  0  0  0  0  0  0
   56.0170   29.4470   42.6880 O   0  0  0  0  0  0  0  0  0  0  0  0
   55.2460   29.4550   45.0120 O   0  0  0  0  0  0  0  0  0  0  0  0
   57.3760   30.9450   44.4610 C   0  0  0  0  0  0  0  0  0  0  0  0
   57.7740   31.2460   45.7710 C   0  0  0  0  0  0  0  0  0  0  0  0
   58.5010   32.4130   46.0330 C   0  0  0  0  0  0  0  0  0  0  0  0
   58.8340   33.2800   44.9880 C   0  0  0  0  0  0  0  0  0  0  0  0
   58.4420   32.9810   43.6800 C   0  0  0  0  0  0  0  0  0  0  0  0
   57.7180   31.8150   43.4160 C   0  0  0  0  0  0  0  0  0  0  0  0
   55.5160   27.4320   45.2910 H   0  0  0  0  0  0  0  0  0  0  0  0
   58.7485   25.8946   48.3098 H   0  0  0  0  0  0  0  0  0  0  0  0
   60.6614   27.4540   48.6661 H   0  0  0  0  0  0  0  0  0  0  0  0
   61.0738   29.3131   47.0603 H   0  0  0  0  0  0  0  0  0  0  0  0
   59.5842   29.6183   45.0863 H   0  0  0  0  0  0  0  0  0  0  0  0
   57.5146   30.5641   46.5942 H   0  0  0  0  0  0  0  0  0  0  0  0
   58.8106   32.6482   47.0620 H   0  0  0  0  0  0  0  0  0  0  0  0
   59.4045   34.1974   45.1951 H   0  0  0  0  0  0  0  0  0  0  0  0
   58.7035   33.6637   42.8581 H   0  0  0  0  0  0  0  0  0  0  0  0
   57.4155   31.5791   42.3851 H   0  0  0  0  0  0  0  0  0  0  0  0
  1  2  1  0
  2  3  2  0
  2  4  2  0
  2  5  1  0
  5  6  2  0
  6  7  1  0
  7  8  2  0
  8  9  1  0
  9 10  2  0
 10 11  1  0
 11 12  1  0
 12 13  2  0
 12 14  2  0
 12 15  1  0
 15 16  2  0
 16 17  1  0
 17 18  2  0
 18 19  1  0
 19 20  2  0
 10  5  1  0
 20 15  1  0
  1 21  1  0
  6 22  1  0
  7 23  1  0
  8 24  1  0
  9 25  1  0
 16 26  1  0
 17 27  1  0
 18 28  1  0
 19 29  1  0
 20 30  1  0
M  CHG  2   1  -1  11  -1
M  END
>  <UniqueID>  (24) 
24

>  <SMILES>  (24) 
[NH-]S(=O)(=O)c1ccccc1[N-]S(=O)(=O)c1ccccc1

>  <Energy>  (24) 
34.13507705109485

>  <Genealogy>  (24) 
[NH-]S(=O)(=O)c1ccccc1[N-]S(=O)(=O)c1ccccc1 (protonated)
[NH-]S(=O)(=O)c1ccccc1[N-]S(=O)(=O)c1ccccc1 (3D coordinates assigned)
[NH-]S(=O)(=O)c1ccccc1[N-]S(=O)(=O)c1ccccc1 (optimized conformer: 34.13507705109485 kcal/mol)

>  <smiles>  (24) 
NS(=O)(=O)c1ccccc1NS(=O)(=O)c1ccccc1

>  <score_type>  (24) 
oracle

>  <origin>  (24) 
adg

>  <m_score__min__energy>  (24) 
-12.69

>  <m_primary>  (24) 
energy

$$$$
24:0
     RDKit          3D

 35 37  0  0  0  0  0  0  0  0999 V2000
   55.1860   26.6520   45.9970 N   0  0  0  0  0  0  0  0  0  0  0  0
   56.8880   26.8880   45.8210 S   0  0  0  0  0  0  0  0  0  0  0  0
   57.4150   25.9220   44.7970 O   0  0  0  0  0  0  0  0  0  0  0  0
   57.5750   26.6290   47.1320 O   0  0  0  0  0  0  0  0  0  0  0  0
   57.1980   28.5470   45.3110 C   0  0  0  0  0  0  0  0  0  0  0  0
   58.4490   29.1250   45.5560 C   0  0  0  0  0  0  0  0  0  0  0  0
   58.7040   30.4440   45.1640 C   0  0  0  0  0  0  0  0  0  0  0  0
   57.7140   31.1980   44.5220 C   0  0  0  0  0  0  0  0  0  0  0  0
   58.0180   32.5450   44.1370 N   0  0  0  0  0  0  0  0  0  0  0  0
   58.0670   33.9050   45.2120 S   0  0  0  0  0  0  0  0  0  0  0  0
   56.6670   34.2500   45.6340 O   0  0  0  0  0  0  0  0  0  0  0  0
   58.6610   35.0820   44.4930 O   0  0  0  0  0  0  0  0  0  0  0  0
   59.0700   33.5230   46.6080 C   0  0  0  0  0  0  0  0  0  0  0  0
   58.4920   33.0470   47.7960 C   0  0  0  0  0  0  0  0  0  0  0  0
   59.2990   32.7250   48.8920 C   0  0  0  0  0  0  0  0  0  0  0  0
   60.6870   32.8710   48.8050 C   0  0  0  0  0  0  0  0  0  0  0  0
   61.2660   33.3610   47.6250 C   0  0  0  0  0  0  0  0  0  0  0  0
   60.4590   33.6850   46.5290 C   0  0  0  0  0  0  0  0  0  0  0  0
   62.6780   33.5680   47.5710 N   0  0  0  0  0  0  0  0  0  0  0  0
   63.5010   33.1770   48.6710 C   0  0  0  0  0  0  0  0  0  0  0  0
   64.7310   33.4470   48.6590 O   0  0  0  0  0  0  0  0  0  0  0  0
   62.9150   32.3700   49.7960 C   0  0  0  0  0  0  0  0  0  0  0  0
   61.4970   32.5530   49.9010 O   0  0  0  0  0  0  0  0  0  0  0  0
   56.4540   30.6160   44.2820 C   0  0  0  0  0  0  0  0  0  0  0  0
   56.1990   29.3010   44.6790 C   0  0  0  0  0  0  0  0  0  0  0  0
   54.7680   26.7210   45.0420 H   0  0  0  0  0  0  0  0  0  0  0  0
   59.2341   28.5407   46.0582 H   0  0  0  0  0  0  0  0  0  0  0  0
   59.6892   30.8917   45.3616 H   0  0  0  0  0  0  0  0  0  0  0  0
   57.4007   32.9270   47.8648 H   0  0  0  0  0  0  0  0  0  0  0  0
   58.8419   32.3569   49.8224 H   0  0  0  0  0  0  0  0  0  0  0  0
   60.9158   34.0674   45.6043 H   0  0  0  0  0  0  0  0  0  0  0  0
   63.1241   31.3051   49.6167 H   0  0  0  0  0  0  0  0  0  0  0  0
   63.3739   32.7106   50.7359 H   0  0  0  0  0  0  0  0  0  0  0  0
   55.6678   31.1991   43.7801 H   0  0  0  0  0  0  0  0  0  0  0  0
   55.2103   28.8553   44.4950 H   0  0  0  0  0  0  0  0  0  0  0  0
  1  2  1  0
  2  3  2  0
  2  4  2  0
  2  5  1  0
  5  6  2  0
  6  7  1  0
  7  8  2  0
  8  9  1  0
  9 10  1  0
 10 11  2  0
 10 12  2  0
 10 13  1  0
 13 14  2  0
 14 15  1  0
 15 16  2  0
 16 17  1  0
 17 18  2  0
 17 19  1  0
 19 20  1  0
 20 21  2  0
 20 22  1  0
 22 23  1  0
  8 24  1  0
 24 25  2  0
 25  5  1  0
 18 13  1  0
 23 16  1  0
  1 26  1  0
  6 27  1  0
  7 28  1  0
 14 29  1  0
 15 30  1  0
 18 31  1  0
 22 32  1  0
 22 33  1  0
 24 34  1  0
 25 35  1  0
M  CHG  3   1  -1   9  -1  19  -1
M  END
>  <UniqueID>  (25) 
25

>  <SMILES>  (25) 
[NH-]S(=O)(=O)c1ccc([N-]S(=O)(=O)c2ccc3c(c2)[N-]C(=O)CO3)cc1

>  <Energy>  (25) 
41.970801781627934

>  <Genealogy>  (25) 
[NH-]S(=O)(=O)c1ccc([N-]S(=O)(=O)c2ccc3c(c2)[N-]C(=O)CO3)cc1 (protonated)
[NH-]S(=O)(=O)c1ccc([N-]S(=O)(=O)c2ccc3c(c2)[N-]C(=O)CO3)cc1 (3D coordinates assigned)
[NH-]S(=O)(=O)c1ccc([N-]S(=O)(=O)c2ccc3c(c2)[N-]C(=O)CO3)cc1 (nonaromatic ring conformer: 41.970801781627934 kcal/mol)

>  <smiles>  (25) 
NS(=O)(=O)c1ccc(NS(=O)(=O)c2ccc3c(c2)NC(=O)CO3)cc1

>  <score_type>  (25) 
oracle

>  <origin>  (25) 
adg

>  <m_score__min__energy>  (25) 
-12.57

>  <m_primary>  (25) 
energy

$$$$
25:0
     RDKit          3D

 45 46  0  0  0  0  0  0  0  0999 V2000
   56.2850   22.4120   42.6720 C   0  0  0  0  0  0  0  0  0  0  0  0
   57.0500   21.1320   42.9990 C   0  0  0  0  0  0  0  0  0  0  0  0
   56.6460   20.5180   44.3530 C   0  0  0  0  0  0  0  0  0  0  0  0
   57.7780   20.3980   45.2950 N   0  0  0  0  0  0  0  0  0  0  0  0
   57.5890   21.2220   46.4580 C   0  0  0  0  0  0  0  0  0  0  0  0
   57.1500   20.7120   47.5240 O   0  0  0  0  0  0  0  0  0  0  0  0
   57.8740   22.6250   46.3890 N   0  0  0  0  0  0  0  0  0  0  0  0
   59.0010   23.3400   45.2780 S   0  0  0  0  0  0  0  0  0  0  0  0
   59.7090   22.2430   44.5330 O   0  0  0  0  0  0  0  0  0  0  0  0
   60.0220   24.1750   45.9980 O   0  0  0  0  0  0  0  0  0  0  0  0
   58.1400   24.3380   44.1470 N   0  0  0  0  0  0  0  0  0  0  0  0
   57.8510   25.7300   44.3680 C   0  0  0  0  0  0  0  0  0  0  0  0
   57.2590   26.1210   45.5790 C   0  0  0  0  0  0  0  0  0  0  0  0
   56.9670   27.4660   45.8290 C   0  0  0  0  0  0  0  0  0  0  0  0
   57.2590   28.4510   44.8680 C   0  0  0  0  0  0  0  0  0  0  0  0
   56.9510   29.8760   45.1280 C   0  0  0  0  0  0  0  0  0  0  0  0
   55.9900   30.4310   44.5280 O   0  0  0  0  0  0  0  0  0  0  0  0
   57.7780   30.6410   46.0180 N   0  0  0  0  0  0  0  0  0  0  0  0
   58.1890   32.0030   45.8320 C   0  0  0  0  0  0  0  0  0  0  0  0
   57.4410   32.9080   45.0550 C   0  0  0  0  0  0  0  0  0  0  0  0
   57.8640   34.2340   44.9200 C   0  0  0  0  0  0  0  0  0  0  0  0
   59.0250   34.6690   45.5630 C   0  0  0  0  0  0  0  0  0  0  0  0
   59.7580   33.7830   46.3570 C   0  0  0  0  0  0  0  0  0  0  0  0
   60.8790   34.2100   46.9890 F   0  0  0  0  0  0  0  0  0  0  0  0
   59.3370   32.4560   46.4970 C   0  0  0  0  0  0  0  0  0  0  0  0
   57.8420   28.0570   43.6510 C   0  0  0  0  0  0  0  0  0  0  0  0
   58.1340   26.7120   43.4030 C   0  0  0  0  0  0  0  0  0  0  0  0
   55.9873   22.9101   43.6065 H   0  0  0  0  0  0  0  0  0  0  0  0
   56.9292   23.0849   42.0870 H   0  0  0  0  0  0  0  0  0  0  0  0
   55.3873   22.1633   42.0870 H   0  0  0  0  0  0  0  0  0  0  0  0
   56.8535   20.3943   42.2071 H   0  0  0  0  0  0  0  0  0  0  0  0
   58.1167   21.3933   43.0616 H   0  0  0  0  0  0  0  0  0  0  0  0
   55.8755   21.1558   44.8108 H   0  0  0  0  0  0  0  0  0  0  0  0
   56.2745   19.5017   44.1549 H   0  0  0  0  0  0  0  0  0  0  0  0
   57.8440   19.4060   45.6240 H   0  0  0  0  0  0  0  0  0  0  0  0
   58.6870   20.6340   44.8280 H   0  0  0  0  0  0  0  0  0  0  0  0
   57.7560   23.8680   43.2960 H   0  0  0  0  0  0  0  0  0  0  0  0
   57.0222   25.3621   46.3392 H   0  0  0  0  0  0  0  0  0  0  0  0
   56.5054   27.7557   46.7845 H   0  0  0  0  0  0  0  0  0  0  0  0
   56.5219   32.5713   44.5531 H   0  0  0  0  0  0  0  0  0  0  0  0
   57.2810   34.9361   44.3059 H   0  0  0  0  0  0  0  0  0  0  0  0
   59.3625   35.7092   45.4444 H   0  0  0  0  0  0  0  0  0  0  0  0
   59.9099   31.7645   47.1323 H   0  0  0  0  0  0  0  0  0  0  0  0
   58.0707   28.8140   42.8864 H   0  0  0  0  0  0  0  0  0  0  0  0
   58.5889   26.4202   42.4449 H   0  0  0  0  0  0  0  0  0  0  0  0
  1  2  1  0
  2  3  1  0
  3  4  1  0
  4  5  1  0
  5  6  2  0
  5  7  1  0
  7  8  1  0
  8  9  2  0
  8 10  2  0
  8 11  1  0
 11 12  1  0
 12 13  2  0
 13 14  1  0
 14 15  2  0
 15 16  1  0
 16 17  2  0
 16 18  1  0
 18 19  1  0
 19 20  2  0
 20 21  1  0
 21 22  2  0
 22 23  1  0
 23 24  1  0
 23 25  2  0
 15 26  1  0
 26 27  2  0
 27 12  1  0
 25 19  1  0
  1 28  1  0
  1 29  1  0
  1 30  1  0
  2 31  1  0
  2 32  1  0
  3 33  1  0
  3 34  1  0
  4 35  1  0
  4 36  1  0
 11 37  1  0
 13 38  1  0
 14 39  1  0
 20 40  1  0
 21 41  1  0
 22 42  1  0
 25 43  1  0
 26 44  1  0
 27 45  1  0
M  CHG  3   4   1   7  -1  18  -1
M  END
>  <UniqueID>  (26) 
26

>  <SMILES>  (26) 
CCC[NH2+]C(=O)[N-]S(=O)(=O)Nc1ccc(C(=O)[N-]c2cccc(F)c2)cc1

>  <Energy>  (26) 
52.16017969134497

>  <Genealogy>  (26) 
CCC[NH2+]C(=O)[N-]S(=O)(=O)Nc1ccc(C(=O)[N-]c2cccc(F)c2)cc1 (protonated)
CCC[NH2+]C(=O)[N-]S(=O)(=O)Nc1ccc(C(=O)[N-]c2cccc(F)c2)cc1 (3D coordinates assigned)
CCC[NH2+]C(=O)[N-]S(=O)(=O)Nc1ccc(C(=O)[N-]c2cccc(F)c2)cc1 (optimized conformer: 52.16017969134497 kcal/mol)

>  <smiles>  (26) 
CCCNC(=O)NS(=O)(=O)Nc1ccc(C(=O)Nc2cccc(F)c2)cc1

>  <score_type>  (26) 
oracle

>  <origin>  (26) 
adg

>  <m_score__min__energy>  (26) 
-10.17

>  <m_primary>  (26) 
energy

$$$$
26:0
     RDKit          3D

 55 57  0  0  1  0  0  0  0  0999 V2000
   58.1090   27.4490   43.2950 C   0  0  0  0  0  0  0  0  0  0  0  0
   58.0670   28.5150   44.3390 C   0  0  0  0  0  0  0  0  0  0  0  0
   57.4540   29.7310   44.1010 C   0  0  0  0  0  0  0  0  0  0  0  0
   57.4430   30.6870   45.1020 C   0  0  0  0  0  0  0  0  0  0  0  0
   56.8810   31.8380   44.9260 N   0  0  0  0  0  0  0  0  0  0  0  0
   57.7400   33.3270   44.8160 S   0  0  0  0  0  0  0  0  0  0  0  0
   56.6930   34.4300   44.8420 O   0  0  0  0  0  0  0  0  0  0  0  0
   58.4230   33.4700   43.4780 O   0  0  0  0  0  0  0  0  0  0  0  0
   58.8900   33.5310   46.1050 C   0  0  0  0  0  0  0  0  0  0  0  0
   60.2080   33.8170   45.8220 C   0  0  0  0  0  0  0  0  0  0  0  0
   61.1440   33.9850   46.8140 C   0  0  0  0  0  0  0  0  0  0  0  0
   60.8230   33.8760   48.1760 C   0  0  0  0  0  0  0  0  0  0  0  0
   61.8400   34.0620   49.1180 N   0  0  0  0  0  0  0  0  0  0  0  0
   63.0140   33.3080   49.2840 C   0  0  0  0  0  0  0  0  0  0  0  0
   63.2310   32.3520   48.5380 O   0  0  0  0  0  0  0  0  0  0  0  0
   63.9480   33.6240   50.2880 N   0  0  0  0  0  0  0  0  0  0  0  0
   65.1590   32.9570   50.5650 C   0  0  0  0  0  0  0  0  0  0  0  0
   66.4050   33.4960   50.5440 C   0  0  0  0  0  0  0  0  0  0  0  0
   67.5520   32.7430   50.8380 C   0  0  0  0  0  0  0  0  0  0  0  0
   67.4660   31.4100   51.1630 C   0  0  0  0  0  0  0  0  0  0  0  0
   66.2050   30.8530   51.1870 C   0  0  0  0  0  0  0  0  0  0  0  0
   66.0910   29.4750   51.5210 N   0  0  0  0  0  0  0  0  0  0  0  0
   67.2350   28.5830   51.2830 C   0  0  0  0  0  0  0  0  0  0  0  0
   64.8930   28.9160   52.0880 C   0  0  0  0  0  0  0  0  0  0  0  0
   65.0940   31.5930   50.9010 C   0  0  0  0  0  0  0  0  0  0  0  0
   59.5080   33.5890   48.4450 C   0  0  0  0  0  0  0  0  0  0  0  0
   58.5520   33.4180   47.4360 C   0  0  0  0  0  0  0  0  0  0  0  0
   58.0110   30.4740   46.3030 N   0  0  0  0  0  0  0  0  0  0  0  0
   58.6000   29.2830   46.5080 C   0  0  0  0  0  0  0  0  0  0  0  0
   59.2340   29.0220   47.8250 C   0  0  0  0  0  0  0  0  0  0  0  0
   58.6240   28.3370   45.5510 N   0  0  0  0  0  0  0  0  0  0  0  0
   58.1479   26.4623   43.7798 H   0  0  0  0  0  0  0  0  0  0  0  0
   57.2076   27.5142   42.6679 H   0  0  0  0  0  0  0  0  0  0  0  0
   59.0025   27.5849   42.6679 H   0  0  0  0  0  0  0  0  0  0  0  0
   56.9813   29.9361   43.1292 H   0  0  0  0  0  0  0  0  0  0  0  0
   60.5199   33.9136   44.7716 H   0  0  0  0  0  0  0  0  0  0  0  0
   62.1821   34.2131   46.5305 H   0  0  0  0  0  0  0  0  0  0  0  0
   61.7140   34.8750   49.7970 H   0  0  0  0  0  0  0  0  0  0  0  0
   63.7070   34.4580   50.8990 H   0  0  0  0  0  0  0  0  0  0  0  0
   66.5193   34.5596   50.2877 H   0  0  0  0  0  0  0  0  0  0  0  0
   68.5386   33.2285   50.8079 H   0  0  0  0  0  0  0  0  0  0  0  0
   68.3621   30.8151   51.3933 H   0  0  0  0  0  0  0  0  0  0  0  0
   67.6527   28.2573   52.2470 H   0  0  0  0  0  0  0  0  0  0  0  0
   66.9019   27.7038   50.7119 H   0  0  0  0  0  0  0  0  0  0  0  0
   68.0064   29.1204   50.7119 H   0  0  0  0  0  0  0  0  0  0  0  0
   64.9581   28.9464   53.1857 H   0  0  0  0  0  0  0  0  0  0  0  0
   64.0226   29.5010   51.7560 H   0  0  0  0  0  0  0  0  0  0  0  0
   64.7822   27.8732   51.7560 H   0  0  0  0  0  0  0  0  0  0  0  0
   64.1096   31.1032   50.9347 H   0  0  0  0  0  0  0  0  0  0  0  0
   59.1927   33.4894   49.4941 H   0  0  0  0  0  0  0  0  0  0  0  0
   57.5118   33.1892   47.7112 H   0  0  0  0  0  0  0  0  0  0  0  0
   58.5399   29.3077   48.6291 H   0  0  0  0  0  0  0  0  0  0  0  0
   59.4740   27.9519   47.9108 H   0  0  0  0  0  0  0  0  0  0  0  0
   60.1578   29.6130   47.9108 H   0  0  0  0  0  0  0  0  0  0  0  0
   59.0970   27.4400   45.7760 H   0  0  0  0  0  0  0  0  0  0  0  0
  1  2  1  0
  2  3  2  0
  3  4  1  0
  4  5  2  0
  5  6  1  0
  6  7  2  0
  6  8  2  0
  6  9  1  0
  9 10  2  0
 10 11  1  0
 11 12  2  0
 12 13  1  0
 13 14  1  0
 14 15  2  0
 14 16  1  0
 16 17  1  0
 17 18  2  0
 18 19  1  0
 19 20  2  0
 20 21  1  0
 21 22  1  0
 22 23  1  0
 22 24  1  0
 21 25  2  0
 12 26  1  0
 26 27  2  0
  4 28  1  0
 28 29  2  0
 29 30  1  0
 29 31  1  0
 31  2  1  0
 27  9  1  0
 25 17  1  0
  1 32  1  0
  1 33  1  0
  1 34  1  0
  3 35  1  0
 10 36  1  0
 11 37  1  0
 13 38  1  0
 16 39  1  0
 18 40  1  0
 19 41  1  0
 20 42  1  0
 23 43  1  0
 23 44  1  0
 23 45  1  0
 24 46  1  0
 24 47  1  0
 24 48  1  0
 25 49  1  0
 26 50  1  0
 27 51  1  0
 30 52  1  0
 30 53  1  0
 30 54  1  0
 31 55  1  0
M  END
>  <smiles>  (27) 
Cc1cc(=NS(=O)(=O)c2ccc(NC(=O)Nc3cccc(N(C)C)c3)cc2)nc(C)[nH]1

>  <score_type>  (27) 
oracle

>  <origin>  (27) 
adg

>  <m_score__min__energy>  (27) 
-8.6699999999999999

>  <m_primary>  (27) 
energy

$$$$
27:0
     RDKit          3D

 46 49  0  0  0  0  0  0  0  0999 V2000
   60.5130   29.7290   45.9640 C   0  0  0  0  0  0  0  0  0  0  0  0
   60.0750   28.7340   46.8830 O   0  0  0  0  0  0  0  0  0  0  0  0
   59.5380   27.4920   46.5140 C   0  0  0  0  0  0  0  0  0  0  0  0
   60.3120   26.3170   46.4920 C   0  0  0  0  0  0  0  0  0  0  0  0
   59.7370   25.0980   46.1230 C   0  0  0  0  0  0  0  0  0  0  0  0
   58.3810   25.0270   45.7700 C   0  0  0  0  0  0  0  0  0  0  0  0
   57.7730   23.7270   45.3860 C   0  0  0  0  0  0  0  0  0  0  0  0
   57.0780   23.6020   44.1730 C   0  0  0  0  0  0  0  0  0  0  0  0
   56.5000   22.3810   43.8210 C   0  0  0  0  0  0  0  0  0  0  0  0
   55.8770   22.2850   42.7290 O   0  0  0  0  0  0  0  0  0  0  0  0
   56.6180   21.2790   44.6850 C   0  0  0  0  0  0  0  0  0  0  0  0
   56.0530   20.0280   44.3720 C   0  0  0  0  0  0  0  0  0  0  0  0
   56.1920   18.9530   45.2540 C   0  0  0  0  0  0  0  0  0  0  0  0
   56.8910   19.1140   46.4520 C   0  0  0  0  0  0  0  0  0  0  0  0
   57.4560   20.3500   46.7770 C   0  0  0  0  0  0  0  0  0  0  0  0
   57.3250   21.4400   45.9010 C   0  0  0  0  0  0  0  0  0  0  0  0
   57.8770   22.6470   46.2160 N   0  0  0  0  0  0  0  0  0  0  0  0
   57.6090   26.2010   45.7910 C   0  0  0  0  0  0  0  0  0  0  0  0
   58.1810   27.4220   46.1610 C   0  0  0  0  0  0  0  0  0  0  0  0
   57.3680   28.5940   46.2080 N   0  0  0  0  0  0  0  0  0  0  0  0
   56.7580   29.2960   44.7500 S   0  0  0  0  0  0  0  0  0  0  0  0
   57.1290   28.4180   43.5870 O   0  0  0  0  0  0  0  0  0  0  0  0
   55.2600   29.3910   44.8210 O   0  0  0  0  0  0  0  0  0  0  0  0
   57.4550   30.8970   44.5250 C   0  0  0  0  0  0  0  0  0  0  0  0
   57.7670   31.6980   45.6330 C   0  0  0  0  0  0  0  0  0  0  0  0
   58.2660   32.9920   45.4470 C   0  0  0  0  0  0  0  0  0  0  0  0
   58.4500   33.4910   44.1540 C   0  0  0  0  0  0  0  0  0  0  0  0
   58.1360   32.6980   43.0470 C   0  0  0  0  0  0  0  0  0  0  0  0
   57.6390   31.4040   43.2310 C   0  0  0  0  0  0  0  0  0  0  0  0
   60.8956   30.5981   46.5193 H   0  0  0  0  0  0  0  0  0  0  0  0
   61.3130   29.3170   45.3313 H   0  0  0  0  0  0  0  0  0  0  0  0
   59.6689   30.0408   45.3313 H   0  0  0  0  0  0  0  0  0  0  0  0
   61.3763   26.3583   46.7670 H   0  0  0  0  0  0  0  0  0  0  0  0
   60.3526   24.1865   46.1092 H   0  0  0  0  0  0  0  0  0  0  0  0
   56.9887   24.4669   43.4992 H   0  0  0  0  0  0  0  0  0  0  0  0
   55.5003   19.8963   43.4301 H   0  0  0  0  0  0  0  0  0  0  0  0
   55.7496   17.9774   45.0039 H   0  0  0  0  0  0  0  0  0  0  0  0
   56.9973   18.2645   47.1427 H   0  0  0  0  0  0  0  0  0  0  0  0
   58.0054   20.4698   47.7224 H   0  0  0  0  0  0  0  0  0  0  0  0
   58.4140   22.7400   47.1100 H   0  0  0  0  0  0  0  0  0  0  0  0
   56.5453   26.1590   45.5139 H   0  0  0  0  0  0  0  0  0  0  0  0
   57.6191   31.3081   46.6509 H   0  0  0  0  0  0  0  0  0  0  0  0
   58.5135   33.6166   46.3180 H   0  0  0  0  0  0  0  0  0  0  0  0
   58.8421   34.5083   44.0080 H   0  0  0  0  0  0  0  0  0  0  0  0
   58.2799   33.0920   42.0301 H   0  0  0  0  0  0  0  0  0  0  0  0
   57.3917   30.7822   42.3580 H   0  0  0  0  0  0  0  0  0  0  0  0
  1  2  1  0
  2  3  1  0
  3  4  2  0
  4  5  1  0
  5  6  2  0
  6  7  1  0
  7  8  2  0
  8  9  1  0
  9 10  2  0
  9 11  1  0
 11 12  2  0
 12 13  1  0
 13 14  2  0
 14 15  1  0
 15 16  2  0
 16 17  1  0
  6 18  1  0
 18 19  2  0
 19 20  1  0
 20 21  1  0
 21 22  2  0
 21 23  2  0
 21 24  1  0
 24 25  2  0
 25 26  1  0
 26 27  2  0
 27 28  1  0
 28 29  2  0
 19  3  1  0
 29 24  1  0
 17  7  1  0
 16 11  1  0
  1 30  1  0
  1 31  1  0
  1 32  1  0
  4 33  1  0
  5 34  1  0
  8 35  1  0
 12 36  1  0
 13 37  1  0
 14 38  1  0
 15 39  1  0
 17 40  1  0
 18 41  1  0
 25 42  1  0
 26 43  1  0
 27 44  1  0
 28 45  1  0
 29 46  1  0
M  CHG  1  20  -1
M  END
>  <UniqueID>  (28) 
27

>  <SMILES>  (28) 
COc1ccc(-c2cc(=O)c3ccccc3[nH]2)cc1[N-]S(=O)(=O)c1ccccc1

>  <Energy>  (28) 
67.91027629378108

>  <Genealogy>  (28) 
COc1ccc(-c2cc(=O)c3ccccc3[nH]2)cc1[N-]S(=O)(=O)c1ccccc1 (protonated)
COc1ccc(-c2cc(=O)c3ccccc3[nH]2)cc1[N-]S(=O)(=O)c1ccccc1 (3D coordinates assigned)
COc1ccc(-c2cc(=O)c3ccccc3[nH]2)cc1[N-]S(=O)(=O)c1ccccc1 (optimized conformer: 67.91027629378108 kcal/mol)

>  <smiles>  (28) 
COc1ccc(-c2cc(=O)c3ccccc3[nH]2)cc1NS(=O)(=O)c1ccccc1

>  <score_type>  (28) 
oracle

>  <origin>  (28) 
adg

>  <m_score__min__energy>  (28) 
-10.210000000000001

>  <m_primary>  (28) 
energy

$$$$
28:0
     RDKit          3D

 51 53  0  0  0  0  0  0  0  0999 V2000
   61.6130   31.0230   47.7860 C   0  0  0  0  0  0  0  0  0  0  0  0
   62.7840   31.4760   47.1160 O   0  0  0  0  0  0  0  0  0  0  0  0
   63.3960   32.7010   47.4020 C   0  0  0  0  0  0  0  0  0  0  0  0
   63.6320   33.5130   46.4650 O   0  0  0  0  0  0  0  0  0  0  0  0
   63.7660   33.0570   48.8000 C   0  0  0  0  0  0  0  0  0  0  0  0
   64.8970   32.4500   49.3830 C   0  0  0  0  0  0  0  0  0  0  0  0
   65.2800   32.7600   50.6890 C   0  0  0  0  0  0  0  0  0  0  0  0
   64.5480   33.6820   51.4310 C   0  0  0  0  0  0  0  0  0  0  0  0
   63.4230   34.2930   50.8770 C   0  0  0  0  0  0  0  0  0  0  0  0
   63.0060   33.9770   49.5690 C   0  0  0  0  0  0  0  0  0  0  0  0
   61.8510   34.6090   48.9950 N   0  0  0  0  0  0  0  0  0  0  0  0
   60.4790   34.2150   49.1410 C   0  0  0  0  0  0  0  0  0  0  0  0
   59.9460   34.1840   50.2830 O   0  0  0  0  0  0  0  0  0  0  0  0
   59.7040   33.7940   47.9520 C   0  0  0  0  0  0  0  0  0  0  0  0
   58.5490   33.0040   48.0930 C   0  0  0  0  0  0  0  0  0  0  0  0
   57.8350   32.5850   46.9680 C   0  0  0  0  0  0  0  0  0  0  0  0
   58.2710   32.9330   45.6810 C   0  0  0  0  0  0  0  0  0  0  0  0
   57.5540   32.3980   44.4690 C   0  0  0  0  0  0  0  0  0  0  0  0
   56.3690   31.6230   44.8470 N   0  0  0  0  0  0  0  0  0  0  0  0
   56.4030   30.0180   44.1660 S   0  0  0  0  0  0  0  0  0  0  0  0
   55.0860   29.3440   44.4250 O   0  0  0  0  0  0  0  0  0  0  0  0
   56.6220   30.0930   42.6790 O   0  0  0  0  0  0  0  0  0  0  0  0
   57.6830   29.0790   44.9290 C   0  0  0  0  0  0  0  0  0  0  0  0
   59.0210   29.3720   44.6370 C   0  0  0  0  0  0  0  0  0  0  0  0
   60.0470   28.5910   45.1760 C   0  0  0  0  0  0  0  0  0  0  0  0
   59.7450   27.5190   46.0290 C   0  0  0  0  0  0  0  0  0  0  0  0
   60.8400   26.6460   46.5650 C   0  0  0  0  0  0  0  0  0  0  0  0
   58.4040   27.2250   46.3200 C   0  0  0  0  0  0  0  0  0  0  0  0
   57.3780   28.0070   45.7810 C   0  0  0  0  0  0  0  0  0  0  0  0
   59.4100   33.7390   45.5360 C   0  0  0  0  0  0  0  0  0  0  0  0
   60.1200   34.1660   46.6610 C   0  0  0  0  0  0  0  0  0  0  0  0
   61.7667   31.0824   48.8736 H   0  0  0  0  0  0  0  0  0  0  0  0
   60.7596   31.6559   47.5011 H   0  0  0  0  0  0  0  0  0  0  0  0
   61.4077   29.9806   47.5011 H   0  0  0  0  0  0  0  0  0  0  0  0
   65.4844   31.7238   48.8020 H   0  0  0  0  0  0  0  0  0  0  0  0
   66.1619   32.2747   51.1324 H   0  0  0  0  0  0  0  0  0  0  0  0
   64.8573   33.9297   52.4571 H   0  0  0  0  0  0  0  0  0  0  0  0
   62.8562   35.0284   51.4669 H   0  0  0  0  0  0  0  0  0  0  0  0
   58.2053   32.7139   49.0969 H   0  0  0  0  0  0  0  0  0  0  0  0
   56.9256   31.9787   47.0920 H   0  0  0  0  0  0  0  0  0  0  0  0
   57.2426   33.2420   43.8359 H   0  0  0  0  0  0  0  0  0  0  0  0
   58.2422   31.7346   43.9247 H   0  0  0  0  0  0  0  0  0  0  0  0
   59.2654   30.2203   43.9807 H   0  0  0  0  0  0  0  0  0  0  0  0
   61.0950   28.8176   44.9305 H   0  0  0  0  0  0  0  0  0  0  0  0
   60.8179   26.6636   47.6646 H   0  0  0  0  0  0  0  0  0  0  0  0
   60.6928   25.6147   46.2118 H   0  0  0  0  0  0  0  0  0  0  0  0
   61.8126   27.0192   46.2118 H   0  0  0  0  0  0  0  0  0  0  0  0
   58.1591   26.3758   46.9749 H   0  0  0  0  0  0  0  0  0  0  0  0
   56.3295   27.7813   46.0255 H   0  0  0  0  0  0  0  0  0  0  0  0
   59.7458   34.0363   44.5316 H   0  0  0  0  0  0  0  0  0  0  0  0
   61.0115   34.7982   46.5360 H   0  0  0  0  0  0  0  0  0  0  0  0
  1  2  1  0
  2  3  1  0
  3  4  2  0
  3  5  1  0
  5  6  2  0
  6  7  1  0
  7  8  2  0
  8  9  1  0
  9 10  2  0
 10 11  1  0
 11 12  1  0
 12 13  2  0
 12 14  1  0
 14 15  2  0
 15 16  1  0
 16 17  2  0
 17 18  1  0
 18 19  1  0
 19 20  1  0
 20 21  2  0
 20 22  2  0
 20 23  1  0
 23 24  2  0
 24 25  1  0
 25 26  2  0
 26 27  1  0
 26 28  1  0
 28 29  2  0
 17 30  1  0
 30 31  2  0
 10  5  1  0
 31 14  1  0
 29 23  1  0
  1 32  1  0
  1 33  1  0
  1 34  1  0
  6 35  1  0
  7 36  1  0
  8 37  1  0
  9 38  1  0
 15 39  1  0
 16 40  1  0
 18 41  1  0
 18 42  1  0
 24 43  1  0
 25 44  1  0
 27 45  1  0
 27 46  1  0
 27 47  1  0
 28 48  1  0
 29 49  1  0
 30 50  1  0
 31 51  1  0
M  CHG  2  11  -1  19  -1
M  END
>  <UniqueID>  (29) 
28

>  <SMILES>  (29) 
COC(=O)c1ccccc1[N-]C(=O)c1ccc(C[N-]S(=O)(=O)c2ccc(C)cc2)cc1

>  <Energy>  (29) 
51.212229105844585

>  <Genealogy>  (29) 
COC(=O)c1ccccc1[N-]C(=O)c1ccc(C[N-]S(=O)(=O)c2ccc(C)cc2)cc1 (protonated)
COC(=O)c1ccccc1[N-]C(=O)c1ccc(C[N-]S(=O)(=O)c2ccc(C)cc2)cc1 (3D coordinates assigned)
COC(=O)c1ccccc1[N-]C(=O)c1ccc(C[N-]S(=O)(=O)c2ccc(C)cc2)cc1 (optimized conformer: 51.212229105844585 kcal/mol)

>  <smiles>  (29) 
COC(=O)c1ccccc1NC(=O)c1ccc(CNS(=O)(=O)c2ccc(C)cc2)cc1

>  <score_type>  (29) 
oracle

>  <origin>  (29) 
adg

>  <m_score__min__energy>  (29) 
-11.99

>  <m_primary>  (29) 
energy

$$$$
29:0
     RDKit          3D

 33 35  0  0  0  0  0  0  0  0999 V2000
   64.6240   32.1220   48.1680 H   0  0  0  0  0  0  0  0  0  0  0  0
   63.8320   32.4320   48.7750 N   0  0  0  0  0  0  0  0  0  0  0  0
   62.7320   32.8810   48.2630 C   0  0  0  0  0  0  0  0  0  0  0  0
   61.8250   32.1600   47.5290 C   0  0  0  0  0  0  0  0  0  0  0  0
   61.7720   30.8340   47.1160 C   0  0  0  0  0  0  0  0  0  0  0  0
   62.5695   30.1226   47.3767 H   0  0  0  0  0  0  0  0  0  0  0  0
   60.6600   30.4360   46.3520 C   0  0  0  0  0  0  0  0  0  0  0  0
   60.5840   29.3943   46.0071 H   0  0  0  0  0  0  0  0  0  0  0  0
   59.6320   31.3620   46.0190 C   0  0  0  0  0  0  0  0  0  0  0  0
   58.4630   30.9290   45.2110 C   0  0  0  0  0  0  0  0  0  0  0  0
   58.0830   31.6470   44.0640 C   0  0  0  0  0  0  0  0  0  0  0  0
   58.6550   32.5364   43.7612 H   0  0  0  0  0  0  0  0  0  0  0  0
   56.9840   31.2380   43.3070 C   0  0  0  0  0  0  0  0  0  0  0  0
   56.6935   31.8072   42.4117 H   0  0  0  0  0  0  0  0  0  0  0  0
   56.2520   30.1100   43.6810 C   0  0  0  0  0  0  0  0  0  0  0  0
   55.3878   29.7927   43.0790 H   0  0  0  0  0  0  0  0  0  0  0  0
   56.6160   29.3780   44.8250 C   0  0  0  0  0  0  0  0  0  0  0  0
   55.8980   28.2110   45.2490 N   0  0  0  0  0  0  0  0  0  0  0  0
   56.6040   26.7600   45.8860 S   0  0  0  0  0  0  0  0  0  0  0  0
   55.5020   25.7970   46.2250 O   0  0  0  0  0  0  0  0  0  0  0  0
   57.3780   27.0690   47.1360 O   0  0  0  0  0  0  0  0  0  0  0  0
   57.6630   26.0080   44.6690 C   0  0  0  0  0  0  0  0  0  0  0  0
   58.4593   25.4425   45.1751 H   0  0  0  0  0  0  0  0  0  0  0  0
   57.0721   25.3261   44.0399 H   0  0  0  0  0  0  0  0  0  0  0  0
   58.1121   26.7907   44.0399 H   0  0  0  0  0  0  0  0  0  0  0  0
   57.7200   29.7930   45.5810 C   0  0  0  0  0  0  0  0  0  0  0  0
   58.0099   29.2230   46.4760 H   0  0  0  0  0  0  0  0  0  0  0  0
   59.7320   32.7040   46.4640 C   0  0  0  0  0  0  0  0  0  0  0  0
   58.9519   33.4402   46.2203 H   0  0  0  0  0  0  0  0  0  0  0  0
   60.8450   33.0640   47.2180 C   0  0  0  0  0  0  0  0  0  0  0  0
   61.1360   34.2770   47.7320 N   0  0  0  0  0  0  0  0  0  0  0  0
   62.2950   34.1550   48.3730 N   0  0  0  0  0  0  0  0  0  0  0  0
   62.7730   34.9350   48.8740 H   0  0  0  0  0  0  0  0  0  0  0  0
  1  2  1  0
  2  3  2  0
  3  4  1  0
  4  5  2  0
  5  6  1  0
  5  7  1  0
  7  8  1  0
  7  9  2  0
  9 10  1  0
 10 11  2  0
 11 12  1  0
 11 13  1  0
 13 14  1  0
 13 15  2  0
 15 16  1  0
 15 17  1  0
 17 18  1  0
 18 19  1  0
 19 20  2  0
 19 21  2  0
 19 22  1  0
 22 23  1  0
 22 24  1  0
 22 25  1  0
 17 26  2  0
 26 27  1  0
  9 28  1  0
 28 29  1  0
 28 30  2  0
 30 31  1  0
 31 32  1  0
 32 33  1  0
 32  3  1  0
 30  4  1  0
 26 10  1  0
M  CHG  2  18  -1  31  -1
M  END
>  <UniqueID>  (30) 
29

>  <SMILES>  (30) 
[H]/N=c1\[nH][n-]c2cc(-c3cccc([N-]S(C)(=O)=O)c3)ccc12

>  <Energy>  (30) 
79.76950351254682

>  <Genealogy>  (30) 
CS(=O)(=O)[N-]c1cccc(-c2ccc3c(=N)[nH][n-]c3c2)c1 (protonated)
[H]/N=c1\[nH][n-]c2cc(-c3cccc([N-]S(C)(=O)=O)c3)ccc12 (cis-trans isomerization)
[H]/N=c1\[nH][n-]c2cc(-c3cccc([N-]S(C)(=O)=O)c3)ccc12 (3D coordinates assigned)
[H]/N=c1\[nH][n-]c2cc(-c3cccc([N-]S(C)(=O)=O)c3)ccc12 (optimized conformer: 79.76950351254682 kcal/mol)

>  <smiles>  (30) 
CS(=O)(=O)Nc1cccc(-c2ccc3c(=N)[nH][nH]c3c2)c1

>  <score_type>  (30) 
oracle

>  <origin>  (30) 
adg

>  <m_score__min__energy>  (30) 
-10.17

>  <m_primary>  (30) 
energy

$$$$
30:0
     RDKit          3D

 39 42  0  0  0  0  0  0  0  0999 V2000
   55.9270   29.7600   45.9370 H   0  0  0  0  0  0  0  0  0  0  0  0
   55.7800   28.9770   45.3130 O   0  0  0  0  0  0  0  0  0  0  0  0
   56.2740   27.7050   45.5950 C   0  0  0  0  0  0  0  0  0  0  0  0
   55.4460   26.7120   46.0170 N   0  0  0  0  0  0  0  0  0  0  0  0
   56.1140   25.5490   46.1610 C   0  0  0  0  0  0  0  0  0  0  0  0
   55.5610   24.4830   46.5370 O   0  0  0  0  0  0  0  0  0  0  0  0
   57.7440   25.6860   45.7760 S   0  0  0  0  0  0  0  0  0  0  0  0
   57.6120   27.3280   45.4310 C   0  0  0  0  0  0  0  0  0  0  0  0
   58.7350   28.1610   44.9740 C   0  0  0  0  0  0  0  0  0  0  0  0
   59.0899   28.0407   43.9398 H   0  0  0  0  0  0  0  0  0  0  0  0
   59.3450   29.0580   45.7570 C   0  0  0  0  0  0  0  0  0  0  0  0
   60.6560   29.0570   46.2850 C   0  0  0  0  0  0  0  0  0  0  0  0
   61.3737   28.2303   46.1780 H   0  0  0  0  0  0  0  0  0  0  0  0
   60.9080   30.2240   46.9460 N   0  0  0  0  0  0  0  0  0  0  0  0
   59.7780   30.8950   46.8510 N   0  0  0  0  0  0  0  0  0  0  0  0
   59.3510   32.1280   47.1050 C   0  0  0  0  0  0  0  0  0  0  0  0
   60.1430   33.1380   47.7470 N   0  0  0  0  0  0  0  0  0  0  0  0
   59.7790   33.5530   48.6340 H   0  0  0  0  0  0  0  0  0  0  0  0
   61.3530   33.7130   47.1680 C   0  0  0  0  0  0  0  0  0  0  0  0
   60.8607   34.3662   46.4325 H   0  0  0  0  0  0  0  0  0  0  0  0
   62.5250   32.7450   47.1500 C   0  0  0  0  0  0  0  0  0  0  0  0
   62.3865   31.7074   47.4878 H   0  0  0  0  0  0  0  0  0  0  0  0
   63.2381   32.4012   46.3862 H   0  0  0  0  0  0  0  0  0  0  0  0
   62.4950   33.8820   48.1570 C   0  0  0  0  0  0  0  0  0  0  0  0
   62.3348   33.6676   49.2239 H   0  0  0  0  0  0  0  0  0  0  0  0
   63.1773   34.7024   48.4242 H   0  0  0  0  0  0  0  0  0  0  0  0
   58.0690   32.2000   46.5130 C   0  0  0  0  0  0  0  0  0  0  0  0
   57.1830   33.4050   46.3590 C   0  0  0  0  0  0  0  0  0  0  0  0
   57.3230   34.0638   47.2287 H   0  0  0  0  0  0  0  0  0  0  0  0
   56.1414   33.0581   46.2907 H   0  0  0  0  0  0  0  0  0  0  0  0
   57.5100   34.1910   45.0820 C   0  0  0  0  0  0  0  0  0  0  0  0
   57.9341   35.1651   45.3671 H   0  0  0  0  0  0  0  0  0  0  0  0
   56.5753   34.3052   44.5134 H   0  0  0  0  0  0  0  0  0  0  0  0
   58.5110   33.4660   44.1840 C   0  0  0  0  0  0  0  0  0  0  0  0
   59.2449   32.9344   44.8075 H   0  0  0  0  0  0  0  0  0  0  0  0
   57.9776   32.7434   43.5490 H   0  0  0  0  0  0  0  0  0  0  0  0
   59.0312   34.1982   43.5490 H   0  0  0  0  0  0  0  0  0  0  0  0
   57.7720   31.0110   45.8940 N   0  0  0  0  0  0  0  0  0  0  0  0
   58.8660   30.2740   46.1680 C   0  0  0  0  0  0  0  0  0  0  0  0
  1  2  1  0
  2  3  1  0
  3  4  1  0
  4  5  1  0
  5  6  2  0
  5  7  1  0
  7  8  1  0
  8  9  1  0
  9 10  1  0
  9 11  2  0
 11 12  1  0
 12 13  1  0
 12 14  2  0
 14 15  1  0
 15 16  1  0
 16 17  1  0
 17 18  1  0
 17 19  1  0
 19 20  1  0
 19 21  1  0
 21 22  1  0
 21 23  1  0
 21 24  1  0
 24 25  1  0
 24 26  1  0
 16 27  2  0
 27 28  1  0
 28 29  1  0
 28 30  1  0
 28 31  1  0
 31 32  1  0
 31 33  1  0
 31 34  1  0
 34 35  1  0
 34 36  1  0
 34 37  1  0
 27 38  1  0
 38 39  2  0
  8  3  2  0
 39 11  1  0
 39 15  1  0
 24 19  1  0
M  CHG  1   4  -1
M  END
>  <UniqueID>  (31) 
30

>  <SMILES>  (31) 
CCCc1nc2/c(=C/c3sc(=O)[n-]c3O)cnn2c1NC1CC1

>  <Energy>  (31) 
430.20100596153287

>  <Genealogy>  (31) 
CCCc1nc2c(=Cc3sc(=O)[n-]c3O)cnn2c1NC1CC1 (protonated)
CCCc1nc2/c(=C/c3sc(=O)[n-]c3O)cnn2c1NC1CC1 (cis-trans isomerization)
CCCc1nc2/c(=C/c3sc(=O)[n-]c3O)cnn2c1NC1CC1 (3D coordinates assigned)
CCCc1nc2/c(=C/c3sc(=O)[n-]c3O)cnn2c1NC1CC1 (nonaromatic ring conformer: 430.20100596153287 kcal/mol)

>  <smiles>  (31) 
CCCc1nc2c(=Cc3sc(=O)[nH]c3O)cnn2c1NC1CC1

>  <score_type>  (31) 
oracle

>  <origin>  (31) 
adg

>  <m_score__min__energy>  (31) 
-10.85

>  <m_primary>  (31) 
energy

$$$$
31:0
     RDKit          3D

 47 49  0  0  0  0  0  0  0  0999 V2000
   60.3340   26.3430   46.9660 C   0  0  0  0  0  0  0  0  0  0  0  0
   59.4330   27.2810   47.5450 O   0  0  0  0  0  0  0  0  0  0  0  0
   59.2100   28.5820   47.0590 C   0  0  0  0  0  0  0  0  0  0  0  0
   60.1200   29.6310   47.2950 C   0  0  0  0  0  0  0  0  0  0  0  0
   59.8890   30.9040   46.7640 C   0  0  0  0  0  0  0  0  0  0  0  0
   58.7540   31.1520   45.9860 C   0  0  0  0  0  0  0  0  0  0  0  0
   58.6100   32.4330   45.3610 N   0  0  0  0  0  0  0  0  0  0  0  0
   58.8680   33.9600   46.1470 S   0  0  0  0  0  0  0  0  0  0  0  0
   57.7410   34.2320   47.1030 O   0  0  0  0  0  0  0  0  0  0  0  0
   58.8960   35.0440   45.1040 O   0  0  0  0  0  0  0  0  0  0  0  0
   60.3830   33.9200   47.0500 C   0  0  0  0  0  0  0  0  0  0  0  0
   61.6100   33.7940   46.3820 C   0  0  0  0  0  0  0  0  0  0  0  0
   62.7930   33.6490   47.1130 C   0  0  0  0  0  0  0  0  0  0  0  0
   62.7570   33.6370   48.5150 C   0  0  0  0  0  0  0  0  0  0  0  0
   64.2380   33.4400   49.4330 Cl  0  0  0  0  0  0  0  0  0  0  0  0
   61.5380   33.7760   49.1840 C   0  0  0  0  0  0  0  0  0  0  0  0
   60.3540   33.9170   48.4540 C   0  0  0  0  0  0  0  0  0  0  0  0
   57.8140   30.1280   45.8000 C   0  0  0  0  0  0  0  0  0  0  0  0
   58.0380   28.8400   46.3200 C   0  0  0  0  0  0  0  0  0  0  0  0
   57.1290   27.7660   46.0180 N   0  0  0  0  0  0  0  0  0  0  0  0
   57.4010   26.7620   45.0250 C   0  0  0  0  0  0  0  0  0  0  0  0
   58.2060   27.0060   44.0840 O   0  0  0  0  0  0  0  0  0  0  0  0
   56.7810   25.4240   45.1120 C   0  0  0  0  0  0  0  0  0  0  0  0
   57.5100   24.3090   44.6630 C   0  0  0  0  0  0  0  0  0  0  0  0
   56.9650   23.0280   44.7490 C   0  0  0  0  0  0  0  0  0  0  0  0
   55.6860   22.8450   45.2720 C   0  0  0  0  0  0  0  0  0  0  0  0
   54.9340   23.9450   45.7130 C   0  0  0  0  0  0  0  0  0  0  0  0
   53.5360   23.7410   46.2190 C   0  0  0  0  0  0  0  0  0  0  0  0
   55.4780   25.2400   45.6190 C   0  0  0  0  0  0  0  0  0  0  0  0
   54.7110   26.3390   46.0000 O   0  0  0  0  0  0  0  0  0  0  0  0
   60.8582   25.7972   47.7643 H   0  0  0  0  0  0  0  0  0  0  0  0
   59.7722   25.6313   46.3432 H   0  0  0  0  0  0  0  0  0  0  0  0
   61.0677   26.8757   46.3432 H   0  0  0  0  0  0  0  0  0  0  0  0
   61.0191   29.4475   47.9015 H   0  0  0  0  0  0  0  0  0  0  0  0
   60.6051   31.7157   46.9597 H   0  0  0  0  0  0  0  0  0  0  0  0
   61.6415   33.8093   45.2826 H   0  0  0  0  0  0  0  0  0  0  0  0
   63.7537   33.5441   46.5876 H   0  0  0  0  0  0  0  0  0  0  0  0
   61.5101   33.7745   50.2836 H   0  0  0  0  0  0  0  0  0  0  0  0
   59.3952   34.0261   48.9819 H   0  0  0  0  0  0  0  0  0  0  0  0
   56.8898   30.3345   45.2404 H   0  0  0  0  0  0  0  0  0  0  0  0
   56.2860   27.6660   46.6240 H   0  0  0  0  0  0  0  0  0  0  0  0
   58.5164   24.4477   44.2412 H   0  0  0  0  0  0  0  0  0  0  0  0
   57.5458   22.1602   44.4033 H   0  0  0  0  0  0  0  0  0  0  0  0
   55.2632   21.8318   45.3396 H   0  0  0  0  0  0  0  0  0  0  0  0
   53.5404   23.7416   47.3190 H   0  0  0  0  0  0  0  0  0  0  0  0
   52.8917   24.5546   45.8545 H   0  0  0  0  0  0  0  0  0  0  0  0
   53.1511   22.7772   45.8545 H   0  0  0  0  0  0  0  0  0  0  0  0
  1  2  1  0
  2  3  1  0
  3  4  2  0
  4  5  1  0
  5  6  2  0
  6  7  1  0
  7  8  1  0
  8  9  2  0
  8 10  2  0
  8 11  1  0
 11 12  2  0
 12 13  1  0
 13 14  2  0
 14 15  1  0
 14 16  1  0
 16 17  2  0
  6 18  1  0
 18 19  2  0
 19 20  1  0
 20 21  1  0
 21 22  2  0
 21 23  1  0
 23 24  2  0
 24 25  1  0
 25 26  2  0
 26 27  1  0
 27 28  1  0
 27 29  2  0
 29 30  1  0
 19  3  1  0
 29 23  1  0
 17 11  1  0
  1 31  1  0
  1 32  1  0
  1 33  1  0
  4 34  1  0
  5 35  1  0
 12 36  1  0
 13 37  1  0
 16 38  1  0
 17 39  1  0
 18 40  1  0
 20 41  1  0
 24 42  1  0
 25 43  1  0
 26 44  1  0
 28 45  1  0
 28 46  1  0
 28 47  1  0
M  CHG  2   7  -1  30  -1
M  END
>  <UniqueID>  (32) 
31

>  <SMILES>  (32) 
COc1ccc([N-]S(=O)(=O)c2ccc(Cl)cc2)cc1NC(=O)c1cccc(C)c1[O-]

>  <Energy>  (32) 
61.09597412981075

>  <Genealogy>  (32) 
COc1ccc([N-]S(=O)(=O)c2ccc(Cl)cc2)cc1NC(=O)c1cccc(C)c1[O-] (protonated)
COc1ccc([N-]S(=O)(=O)c2ccc(Cl)cc2)cc1NC(=O)c1cccc(C)c1[O-] (3D coordinates assigned)
COc1ccc([N-]S(=O)(=O)c2ccc(Cl)cc2)cc1NC(=O)c1cccc(C)c1[O-] (optimized conformer: 61.09597412981075 kcal/mol)

>  <smiles>  (32) 
COc1ccc(NS(=O)(=O)c2ccc(Cl)cc2)cc1NC(=O)c1cccc(C)c1O

>  <score_type>  (32) 
oracle

>  <origin>  (32) 
adg

>  <m_score__min__energy>  (32) 
-14.029999999999999

>  <m_primary>  (32) 
energy

$$$$
32:0
     RDKit          3D

 51 55  0  0  0  0  0  0  0  0999 V2000
   65.0880   32.7760   49.7280 C   0  0  0  0  0  0  0  0  0  0  0  0
   63.9560   33.1510   48.8380 C   0  0  0  0  0  0  0  0  0  0  0  0
   64.1430   33.3410   47.4700 C   0  0  0  0  0  0  0  0  0  0  0  0
   63.0650   33.6890   46.6720 C   0  0  0  0  0  0  0  0  0  0  0  0
   61.7940   33.8620   47.1810 C   0  0  0  0  0  0  0  0  0  0  0  0
   61.6250   33.6690   48.5430 C   0  0  0  0  0  0  0  0  0  0  0  0
   60.3820   33.8230   49.1310 C   0  0  0  0  0  0  0  0  0  0  0  0
   59.2720   34.1810   48.3180 N   0  0  0  0  0  0  0  0  0  0  0  0
   58.7490   33.3400   47.3110 C   0  0  0  0  0  0  0  0  0  0  0  0
   59.2560   32.0640   47.1010 C   0  0  0  0  0  0  0  0  0  0  0  0
   58.7020   31.2890   46.1010 C   0  0  0  0  0  0  0  0  0  0  0  0
   57.6680   31.7590   45.3250 C   0  0  0  0  0  0  0  0  0  0  0  0
   57.0360   30.6950   44.0820 S   0  0  0  0  0  0  0  0  0  0  0  0
   55.6540   30.2300   44.5010 O   0  0  0  0  0  0  0  0  0  0  0  0
   56.9120   31.3670   42.7580 O   0  0  0  0  0  0  0  0  0  0  0  0
   58.0180   29.2850   43.9310 N   0  0  0  0  0  0  0  0  0  0  0  0
   57.6760   28.1450   44.4310 C   0  0  0  0  0  0  0  0  0  0  0  0
   58.1160   27.0390   43.7900 N   0  0  0  0  0  0  0  0  0  0  0  0
   57.8060   25.8000   44.2420 C   0  0  0  0  0  0  0  0  0  0  0  0
   57.0290   25.7450   45.3830 C   0  0  0  0  0  0  0  0  0  0  0  0
   56.5960   26.8940   46.0160 C   0  0  0  0  0  0  0  0  0  0  0  0
   56.9270   28.1180   45.5300 N   0  0  0  0  0  0  0  0  0  0  0  0
   57.1660   33.0190   45.5310 C   0  0  0  0  0  0  0  0  0  0  0  0
   57.7040   33.8280   46.5340 C   0  0  0  0  0  0  0  0  0  0  0  0
   60.1970   33.6340   50.4950 C   0  0  0  0  0  0  0  0  0  0  0  0
   58.9560   33.7890   51.0630 C   0  0  0  0  0  0  0  0  0  0  0  0
   58.7630   33.6030   52.4260 C   0  0  0  0  0  0  0  0  0  0  0  0
   59.8660   33.2520   53.2030 C   0  0  0  0  0  0  0  0  0  0  0  0
   61.1070   33.1020   52.5990 C   0  0  0  0  0  0  0  0  0  0  0  0
   61.2960   33.2880   51.2430 C   0  0  0  0  0  0  0  0  0  0  0  0
   62.5130   33.1360   50.6870 N   0  0  0  0  0  0  0  0  0  0  0  0
   62.6790   33.3210   49.3640 C   0  0  0  0  0  0  0  0  0  0  0  0
   64.7781   32.8787   50.7784 H   0  0  0  0  0  0  0  0  0  0  0  0
   65.3789   31.7335   49.5317 H   0  0  0  0  0  0  0  0  0  0  0  0
   65.9438   33.4386   49.5317 H   0  0  0  0  0  0  0  0  0  0  0  0
   65.1415   33.2153   47.0260 H   0  0  0  0  0  0  0  0  0  0  0  0
   63.2282   33.8326   45.5937 H   0  0  0  0  0  0  0  0  0  0  0  0
   60.9503   34.1414   46.5328 H   0  0  0  0  0  0  0  0  0  0  0  0
   58.8410   35.1190   48.4950 H   0  0  0  0  0  0  0  0  0  0  0  0
   60.0812   31.6789   47.7180 H   0  0  0  0  0  0  0  0  0  0  0  0
   59.0948   30.2773   45.9218 H   0  0  0  0  0  0  0  0  0  0  0  0
   58.1529   24.8903   43.7300 H   0  0  0  0  0  0  0  0  0  0  0  0
   56.7490   24.7649   45.7965 H   0  0  0  0  0  0  0  0  0  0  0  0
   55.9773   26.8167   46.9222 H   0  0  0  0  0  0  0  0  0  0  0  0
   56.6050   28.9940   46.0010 H   0  0  0  0  0  0  0  0  0  0  0  0
   56.3405   33.3916   44.9067 H   0  0  0  0  0  0  0  0  0  0  0  0
   57.3061   34.8388   46.7074 H   0  0  0  0  0  0  0  0  0  0  0  0
   58.1011   34.0649   50.4282 H   0  0  0  0  0  0  0  0  0  0  0  0
   57.7686   33.7290   52.8791 H   0  0  0  0  0  0  0  0  0  0  0  0
   59.7539   33.0952   54.2860 H   0  0  0  0  0  0  0  0  0  0  0  0
   61.9703   32.8253   53.2220 H   0  0  0  0  0  0  0  0  0  0  0  0
  1  2  1  0
  2  3  2  0
  3  4  1  0
  4  5  2  0
  5  6  1  0
  6  7  2  0
  7  8  1  0
  8  9  1  0
  9 10  2  0
 10 11  1  0
 11 12  2  0
 12 13  1  0
 13 14  2  0
 13 15  2  0
 13 16  1  0
 16 17  2  3
 17 18  1  0
 18 19  2  0
 19 20  1  0
 20 21  2  0
 21 22  1  0
 12 23  1  0
 23 24  2  0
  7 25  1  0
 25 26  2  0
 26 27  1  0
 27 28  2  0
 28 29  1  0
 29 30  2  0
 30 31  1  0
 31 32  2  0
 32  2  1  0
 32  6  1  0
 24  9  1  0
 30 25  1  0
 22 17  1  0
  1 33  1  0
  1 34  1  0
  1 35  1  0
  3 36  1  0
  4 37  1  0
  5 38  1  0
  8 39  1  0
 10 40  1  0
 11 41  1  0
 19 42  1  0
 20 43  1  0
 21 44  1  0
 22 45  1  0
 23 46  1  0
 24 47  1  0
 26 48  1  0
 27 49  1  0
 28 50  1  0
 29 51  1  0
M  END
>  <smiles>  (33) 
Cc1cccc2c(Nc3ccc(S(=O)(=O)N=c4nccc[nH]4)cc3)c3ccccc3nc12

>  <score_type>  (33) 
oracle

>  <origin>  (33) 
adg

>  <m_score__min__energy>  (33) 
-10.18

>  <m_primary>  (33) 
energy

$$$$
33:0
     RDKit          3D

 20 20  0  0  0  0  0  0  0  0999 V2000
   54.3910   28.9350   44.5030 H   0  0  0  0  0  0  0  0  0  0  0  0
   55.1850   29.3510   44.9730 O   0  0  0  0  0  0  0  0  0  0  0  0
   55.7810   30.4750   44.4500 N   0  0  0  0  0  0  0  0  0  0  0  0
   56.8970   30.3870   43.8030 C   0  0  0  0  0  0  0  0  0  0  0  0
   56.9336   30.7020   42.7497 H   0  0  0  0  0  0  0  0  0  0  0  0
   58.1270   29.8720   44.4470 C   0  0  0  0  0  0  0  0  0  0  0  0
   58.6320   28.6210   44.3010 N   0  0  0  0  0  0  0  0  0  0  0  0
   58.1120   27.5120   43.5050 C   0  0  0  0  0  0  0  0  0  0  0  0
   57.7416   26.7220   44.1748 H   0  0  0  0  0  0  0  0  0  0  0  0
   57.2882   27.8708   42.8704 H   0  0  0  0  0  0  0  0  0  0  0  0
   58.9146   27.1082   42.8704 H   0  0  0  0  0  0  0  0  0  0  0  0
   59.7490   28.5850   45.0570 C   0  0  0  0  0  0  0  0  0  0  0  0
   60.4158   27.7183   45.1760 H   0  0  0  0  0  0  0  0  0  0  0  0
   59.9150   29.8150   45.6550 C   0  0  0  0  0  0  0  0  0  0  0  0
   60.7364   30.0968   46.3302 H   0  0  0  0  0  0  0  0  0  0  0  0
   58.9000   30.6140   45.2720 N   0  0  0  0  0  0  0  0  0  0  0  0
   58.6970   32.0020   45.6800 C   0  0  0  0  0  0  0  0  0  0  0  0
   58.6880   32.0638   46.7782 H   0  0  0  0  0  0  0  0  0  0  0  0
   59.5138   32.6236   45.2845 H   0  0  0  0  0  0  0  0  0  0  0  0
   57.7364   32.3637   45.2845 H   0  0  0  0  0  0  0  0  0  0  0  0
  1  2  1  0
  2  3  1  0
  3  4  2  0
  4  5  1  0
  4  6  1  0
  6  7  1  0
  7  8  1  0
  8  9  1  0
  8 10  1  0
  8 11  1  0
  7 12  1  0
 12 13  1  0
 12 14  2  0
 14 15  1  0
 14 16  1  0
 16 17  1  0
 17 18  1  0
 17 19  1  0
 17 20  1  0
 16  6  2  0
M  CHG  1  16   1
M  END
>  <UniqueID>  (34) 
32

>  <SMILES>  (34) 
Cn1cc[n+](C)c1/C=N/O

>  <Energy>  (34) 
47.115205799686464

>  <Genealogy>  (34) 
Cn1cc[n+](C)c1/C=N/O (cis-trans isomerization)
Cn1cc[n+](C)c1/C=N/O (3D coordinates assigned)
Cn1cc[n+](C)c1/C=N/O (optimized conformer: 47.115205799686464 kcal/mol)

>  <smiles>  (34) 
Cn1cc[n+](C)c1C=NO

>  <score_type>  (34) 
oracle

>  <origin>  (34) 
adg

>  <m_score__min__energy>  (34) 
-3.7400000000000002

>  <m_primary>  (34) 
energy

$$$$
34:0
     RDKit          3D

 31 32  0  0  0  0  0  0  0  0999 V2000
   59.5020   34.6090   46.4700 C   0  0  0  0  0  0  0  0  0  0  0  0
   58.3290   34.3600   45.5310 C   0  0  0  0  0  0  0  0  0  0  0  0
   58.1260   32.8930   45.3150 C   0  0  0  0  0  0  0  0  0  0  0  0
   57.0230   32.3080   44.7030 C   0  0  0  0  0  0  0  0  0  0  0  0
   57.1270   30.9110   44.5810 C   0  0  0  0  0  0  0  0  0  0  0  0
   56.0630   30.0780   43.9850 C   0  0  0  0  0  0  0  0  0  0  0  0
   55.1450   29.3790   44.8250 N   0  0  0  0  0  0  0  0  0  0  0  0
   55.9540   29.9750   42.7340 O   0  0  0  0  0  0  0  0  0  0  0  0
   58.3390   30.4200   45.0700 C   0  0  0  0  0  0  0  0  0  0  0  0
   58.6860   29.0310   45.1560 N   0  0  0  0  0  0  0  0  0  0  0  0
   57.8060   27.9560   45.5070 C   0  0  0  0  0  0  0  0  0  0  0  0
   57.0780   28.0820   46.5280 O   0  0  0  0  0  0  0  0  0  0  0  0
   57.7230   26.6970   44.6870 C   0  0  0  0  0  0  0  0  0  0  0  0
   57.1140   25.5750   45.4740 C   0  0  0  0  0  0  0  0  0  0  0  0
   57.8920   24.1260   45.8430 S   0  0  0  0  0  0  0  0  0  0  0  0
   56.5830   23.5500   46.7220 C   0  0  0  0  0  0  0  0  0  0  0  0
   56.5490   22.4280   47.2900 O   0  0  0  0  0  0  0  0  0  0  0  0
   55.5560   24.4250   46.7620 N   0  0  0  0  0  0  0  0  0  0  0  0
   55.8510   25.5570   46.0710 C   0  0  0  0  0  0  0  0  0  0  0  0
   54.9400   26.6080   45.9890 O   0  0  0  0  0  0  0  0  0  0  0  0
   59.2490   31.6980   45.6860 S   0  0  0  0  0  0  0  0  0  0  0  0
   59.1589   34.5362   47.5126 H   0  0  0  0  0  0  0  0  0  0  0  0
   60.2836   33.8568   46.2878 H   0  0  0  0  0  0  0  0  0  0  0  0
   59.9106   35.6139   46.2878 H   0  0  0  0  0  0  0  0  0  0  0  0
   57.4169   34.7898   45.9708 H   0  0  0  0  0  0  0  0  0  0  0  0
   58.5453   34.8334   44.5619 H   0  0  0  0  0  0  0  0  0  0  0  0
   56.1540   32.8819   44.3489 H   0  0  0  0  0  0  0  0  0  0  0  0
   55.4810   28.6810   45.5240 H   0  0  0  0  0  0  0  0  0  0  0  0
   57.1044   26.8883   43.7978 H   0  0  0  0  0  0  0  0  0  0  0  0
   58.7424   26.4040   44.3953 H   0  0  0  0  0  0  0  0  0  0  0  0
   55.1560   27.4660   45.4960 H   0  0  0  0  0  0  0  0  0  0  0  0
  1  2  1  0
  2  3  1  0
  3  4  2  0
  4  5  1  0
  5  6  1  0
  6  7  1  0
  6  8  2  0
  5  9  2  0
  9 10  1  0
 10 11  1  0
 11 12  2  0
 11 13  1  0
 13 14  1  0
 14 15  1  0
 15 16  1  0
 16 17  2  0
 16 18  1  0
 18 19  1  0
 19 20  1  0
  9 21  1  0
 21  3  1  0
 19 14  2  0
  1 22  1  0
  1 23  1  0
  1 24  1  0
  2 25  1  0
  2 26  1  0
  4 27  1  0
  7 28  1  0
 13 29  1  0
 13 30  1  0
 20 31  1  0
M  CHG  3   7  -1  10  -1  18  -1
M  END
>  <UniqueID>  (35) 
33

>  <SMILES>  (35) 
CCc1cc(C([NH-])=O)c([N-]C(=O)Cc2sc(=O)[n-]c2O)s1

>  <Energy>  (35) 
86.11004032873812

>  <Genealogy>  (35) 
CCc1cc(C([NH-])=O)c([N-]C(=O)Cc2sc(=O)[n-]c2O)s1 (protonated)
CCc1cc(C([NH-])=O)c([N-]C(=O)Cc2sc(=O)[n-]c2O)s1 (3D coordinates assigned)
CCc1cc(C([NH-])=O)c([N-]C(=O)Cc2sc(=O)[n-]c2O)s1 (optimized conformer: 86.11004032873812 kcal/mol)

>  <smiles>  (35) 
CCc1cc(C(N)=O)c(NC(=O)Cc2sc(=O)[nH]c2O)s1

>  <score_type>  (35) 
oracle

>  <origin>  (35) 
adg

>  <m_score__min__energy>  (35) 
-15.050000000000001

>  <m_primary>  (35) 
energy

$$$$
35:0
     RDKit          3D

 68 71  0  0  0  0  0  0  0  0999 V2000
   59.5590   34.8010   44.9790 C   0  0  0  0  0  0  0  0  0  0  0  0
   59.1860   34.0510   46.2320 C   0  0  0  0  0  0  0  0  0  0  0  0
   59.9600   34.2410   47.3900 C   0  0  0  0  0  0  0  0  0  0  0  0
   59.6350   33.5810   48.5810 C   0  0  0  0  0  0  0  0  0  0  0  0
   58.5340   32.7180   48.6260 C   0  0  0  0  0  0  0  0  0  0  0  0
   57.7720   32.5030   47.4720 C   0  0  0  0  0  0  0  0  0  0  0  0
   58.0850   33.1570   46.2680 C   0  0  0  0  0  0  0  0  0  0  0  0
   57.2240   32.8660   45.0580 C   0  0  0  0  0  0  0  0  0  0  0  0
   57.9160   31.9710   44.1290 N   0  0  0  0  0  0  0  0  0  0  0  0
   56.9930   30.5230   43.8530 S   0  0  0  0  0  0  0  0  0  0  0  0
   56.4940   30.4940   42.4340 O   0  0  0  0  0  0  0  0  0  0  0  0
   55.8250   30.4690   44.7990 O   0  0  0  0  0  0  0  0  0  0  0  0
   58.0490   29.1130   44.1320 C   0  0  0  0  0  0  0  0  0  0  0  0
   58.7000   29.2030   45.4860 C   0  0  0  0  0  0  0  0  0  0  0  0
   59.8360   30.0120   45.6650 C   0  0  0  0  0  0  0  0  0  0  0  0
   60.4660   30.0770   46.9110 C   0  0  0  0  0  0  0  0  0  0  0  0
   59.9730   29.3330   47.9850 C   0  0  0  0  0  0  0  0  0  0  0  0
   58.8510   28.5160   47.8140 C   0  0  0  0  0  0  0  0  0  0  0  0
   58.2160   28.4460   46.5700 C   0  0  0  0  0  0  0  0  0  0  0  0
   57.1370   27.6370   46.4240 F   0  0  0  0  0  0  0  0  0  0  0  0
   58.2190   31.9920   49.9070 C   0  0  0  0  0  0  0  0  0  0  0  0
   58.5200   32.8280   51.0820 N   0  0  0  0  0  0  0  0  0  0  0  0
   57.8810   32.5120   52.3330 C   0  0  0  0  0  0  0  0  0  0  0  0
   58.1330   33.2080   53.3540 O   0  0  0  0  0  0  0  0  0  0  0  0
   56.9250   31.3900   52.4470 C   0  0  0  0  0  0  0  0  0  0  0  0
   55.6040   31.5660   52.0010 C   0  0  0  0  0  0  0  0  0  0  0  0
   54.6830   30.5140   52.0720 C   0  0  0  0  0  0  0  0  0  0  0  0
   53.0440   30.7420   51.4740 S   0  0  0  0  0  0  0  0  0  0  0  0
   51.8900   30.0440   52.6320 C   0  0  0  0  0  0  0  0  0  0  0  0
   52.7580   32.2090   51.3050 O   0  0  0  0  0  0  0  0  0  0  0  0
   52.8930   30.0650   50.1400 O   0  0  0  0  0  0  0  0  0  0  0  0
   55.0830   29.2780   52.5900 C   0  0  0  0  0  0  0  0  0  0  0  0
   56.3850   29.0990   53.0580 C   0  0  0  0  0  0  0  0  0  0  0  0
   57.3160   30.1560   53.0060 C   0  0  0  0  0  0  0  0  0  0  0  0
   58.6190   30.0180   53.5130 O   0  0  0  0  0  0  0  0  0  0  0  0
   59.6510   29.2530   52.8950 C   0  0  0  0  0  0  0  0  0  0  0  0
   59.6620   29.5190   51.4260 C   0  0  0  0  0  0  0  0  0  0  0  0
   60.6910   29.9890   50.8730 O   0  0  0  0  0  0  0  0  0  0  0  0
   58.5100   29.3140   50.6750 O   0  0  0  0  0  0  0  0  0  0  0  0
   59.5850   33.8520   51.0570 C   0  0  0  0  0  0  0  0  0  0  0  0
   60.4750   33.7420   49.8140 C   0  0  0  0  0  0  0  0  0  0  0  0
   60.0337   35.7554   45.2505 H   0  0  0  0  0  0  0  0  0  0  0  0
   60.2620   34.1975   44.3860 H   0  0  0  0  0  0  0  0  0  0  0  0
   58.6536   34.9974   44.3860 H   0  0  0  0  0  0  0  0  0  0  0  0
   60.8291   34.9146   47.3600 H   0  0  0  0  0  0  0  0  0  0  0  0
   56.9163   31.8127   47.5078 H   0  0  0  0  0  0  0  0  0  0  0  0
   56.2885   32.3902   45.3874 H   0  0  0  0  0  0  0  0  0  0  0  0
   57.0112   33.8135   44.5413 H   0  0  0  0  0  0  0  0  0  0  0  0
   57.4471   28.1938   44.0799 H   0  0  0  0  0  0  0  0  0  0  0  0
   58.8327   29.0967   43.3603 H   0  0  0  0  0  0  0  0  0  0  0  0
   60.2307   30.5963   44.8207 H   0  0  0  0  0  0  0  0  0  0  0  0
   61.3517   30.7153   47.0458 H   0  0  0  0  0  0  0  0  0  0  0  0
   60.4674   29.3896   48.9660 H   0  0  0  0  0  0  0  0  0  0  0  0
   58.4670   27.9270   48.6600 H   0  0  0  0  0  0  0  0  0  0  0  0
   57.1507   31.7300   49.9174 H   0  0  0  0  0  0  0  0  0  0  0  0
   58.8414   31.0863   49.9557 H   0  0  0  0  0  0  0  0  0  0  0  0
   55.2911   32.5383   51.5928 H   0  0  0  0  0  0  0  0  0  0  0  0
   52.2300   30.2497   53.6577 H   0  0  0  0  0  0  0  0  0  0  0  0
   50.8981   30.4937   52.4774 H   0  0  0  0  0  0  0  0  0  0  0  0
   51.8278   28.9567   52.4774 H   0  0  0  0  0  0  0  0  0  0  0  0
   54.3677   28.4432   52.6286 H   0  0  0  0  0  0  0  0  0  0  0  0
   56.6874   28.1253   53.4708 H   0  0  0  0  0  0  0  0  0  0  0  0
   60.6232   29.5353   53.3252 H   0  0  0  0  0  0  0  0  0  0  0  0
   59.4667   28.1829   53.0706 H   0  0  0  0  0  0  0  0  0  0  0  0
   59.1176   34.8477   51.0693 H   0  0  0  0  0  0  0  0  0  0  0  0
   60.2221   33.6937   51.9397 H   0  0  0  0  0  0  0  0  0  0  0  0
   61.0829   34.6541   49.7217 H   0  0  0  0  0  0  0  0  0  0  0  0
   61.1267   32.8621   49.9188 H   0  0  0  0  0  0  0  0  0  0  0  0
  1  2  1  0
  2  3  2  0
  3  4  1  0
  4  5  2  0
  5  6  1  0
  6  7  2  0
  7  8  1  0
  8  9  1  0
  9 10  1  0
 10 11  2  0
 10 12  2  0
 10 13  1  0
 13 14  1  0
 14 15  2  0
 15 16  1  0
 16 17  2  0
 17 18  1  0
 18 19  2  0
 19 20  1  0
  5 21  1  0
 21 22  1  0
 22 23  1  0
 23 24  2  0
 23 25  1  0
 25 26  2  0
 26 27  1  0
 27 28  1  0
 28 29  1  0
 28 30  2  0
 28 31  2  0
 27 32  2  0
 32 33  1  0
 33 34  2  0
 34 35  1  0
 35 36  1  0
 36 37  1  0
 37 38  2  0
 37 39  1  0
 22 40  1  0
 40 41  1  0
  7  2  1  0
 19 14  1  0
 34 25  1  0
 41  4  1  0
  1 42  1  0
  1 43  1  0
  1 44  1  0
  3 45  1  0
  6 46  1  0
  8 47  1  0
  8 48  1  0
 13 49  1  0
 13 50  1  0
 15 51  1  0
 16 52  1  0
 17 53  1  0
 18 54  1  0
 21 55  1  0
 21 56  1  0
 26 57  1  0
 29 58  1  0
 29 59  1  0
 29 60  1  0
 32 61  1  0
 33 62  1  0
 36 63  1  0
 36 64  1  0
 40 65  1  0
 40 66  1  0
 41 67  1  0
 41 68  1  0
M  CHG  2   9  -1  39  -1
M  END
>  <UniqueID>  (36) 
34

>  <SMILES>  (36) 
Cc1cc2c(cc1C[N-]S(=O)(=O)Cc1ccccc1F)CN(C(=O)c1cc(S(C)(=O)=O)ccc1OCC(=O)[O-])CC2

>  <Energy>  (36) 
69.09142928230216

>  <Genealogy>  (36) 
Cc1cc2c(cc1C[N-]S(=O)(=O)Cc1ccccc1F)CN(C(=O)c1cc(S(C)(=O)=O)ccc1OCC(=O)[O-])CC2 (protonated)
Cc1cc2c(cc1C[N-]S(=O)(=O)Cc1ccccc1F)CN(C(=O)c1cc(S(C)(=O)=O)ccc1OCC(=O)[O-])CC2 (3D coordinates assigned)
Cc1cc2c(cc1C[N-]S(=O)(=O)Cc1ccccc1F)CN(C(=O)c1cc(S(C)(=O)=O)ccc1OCC(=O)[O-])CC2 (nonaromatic ring conformer: 69.09142928230216 kcal/mol)

>  <smiles>  (36) 
Cc1cc2c(cc1CNS(=O)(=O)Cc1ccccc1F)CN(C(=O)c1cc(S(C)(=O)=O)ccc1OCC(=O)O)CC2

>  <score_type>  (36) 
oracle

>  <origin>  (36) 
adg

>  <m_score__min__energy>  (36) 
-14.199999999999999

>  <m_primary>  (36) 
energy

$$$$
36:0
     RDKit          3D

 51 53  0  0  0  0  0  0  0  0999 V2000
   62.8090   31.6310   47.5390 C   0  0  0  0  0  0  0  0  0  0  0  0
   63.6150   32.8500   47.7210 N   0  0  0  0  0  0  0  0  0  0  0  0
   63.2990   33.8150   46.6560 C   0  0  0  0  0  0  0  0  0  0  0  0
   63.3840   33.4450   49.0550 C   0  0  0  0  0  0  0  0  0  0  0  0
   62.2560   34.4800   48.9950 C   0  0  0  0  0  0  0  0  0  0  0  0
   60.9680   33.8580   49.3150 N   0  0  0  0  0  0  0  0  0  0  0  0
   59.9310   33.5450   48.4980 C   0  0  0  0  0  0  0  0  0  0  0  0
   59.8450   33.8750   47.0310 C   0  0  0  0  0  0  0  0  0  0  0  0
   59.0730   32.8220   46.2810 C   0  0  0  0  0  0  0  0  0  0  0  0
   59.5560   31.5050   46.2140 C   0  0  0  0  0  0  0  0  0  0  0  0
   58.8260   30.5190   45.5460 C   0  0  0  0  0  0  0  0  0  0  0  0
   57.6000   30.8340   44.9460 C   0  0  0  0  0  0  0  0  0  0  0  0
   56.6880   29.5910   44.0950 S   0  0  0  0  0  0  0  0  0  0  0  0
   55.1690   29.3490   44.8820 N   0  0  0  0  0  0  0  0  0  0  0  0
   57.4600   28.3020   44.0930 O   0  0  0  0  0  0  0  0  0  0  0  0
   56.4550   30.0140   42.6710 O   0  0  0  0  0  0  0  0  0  0  0  0
   57.1140   32.1460   45.0110 C   0  0  0  0  0  0  0  0  0  0  0  0
   57.8440   33.1340   45.6780 C   0  0  0  0  0  0  0  0  0  0  0  0
   58.9240   32.9780   49.2000 N   0  0  0  0  0  0  0  0  0  0  0  0
   59.3180   32.8870   50.4610 N   0  0  0  0  0  0  0  0  0  0  0  0
   58.5300   32.3290   51.5300 C   0  0  0  0  0  0  0  0  0  0  0  0
   57.6430   31.2680   51.2750 C   0  0  0  0  0  0  0  0  0  0  0  0
   56.8810   30.7170   52.3090 C   0  0  0  0  0  0  0  0  0  0  0  0
   57.0020   31.2150   53.6090 C   0  0  0  0  0  0  0  0  0  0  0  0
   57.8850   32.2630   53.8760 C   0  0  0  0  0  0  0  0  0  0  0  0
   58.6480   32.8180   52.8440 C   0  0  0  0  0  0  0  0  0  0  0  0
   60.5530   33.4230   50.5230 C   0  0  0  0  0  0  0  0  0  0  0  0
   61.2280   33.5390   51.5820 O   0  0  0  0  0  0  0  0  0  0  0  0
   62.5376   31.2206   48.5228 H   0  0  0  0  0  0  0  0  0  0  0  0
   61.8945   31.8763   46.9791 H   0  0  0  0  0  0  0  0  0  0  0  0
   63.3928   30.8856   46.9791 H   0  0  0  0  0  0  0  0  0  0  0  0
   62.9867   34.7688   47.1063 H   0  0  0  0  0  0  0  0  0  0  0  0
   64.1906   33.9783   46.0328 H   0  0  0  0  0  0  0  0  0  0  0  0
   62.4835   33.4193   46.0328 H   0  0  0  0  0  0  0  0  0  0  0  0
   63.1077   32.6496   49.7628 H   0  0  0  0  0  0  0  0  0  0  0  0
   64.3067   33.9444   49.3855 H   0  0  0  0  0  0  0  0  0  0  0  0
   62.4611   35.2808   49.7208 H   0  0  0  0  0  0  0  0  0  0  0  0
   62.2073   34.8930   47.9766 H   0  0  0  0  0  0  0  0  0  0  0  0
   59.3398   34.8446   46.9102 H   0  0  0  0  0  0  0  0  0  0  0  0
   60.8655   33.9162   46.6226 H   0  0  0  0  0  0  0  0  0  0  0  0
   60.5140   31.2486   46.6899 H   0  0  0  0  0  0  0  0  0  0  0  0
   59.2152   29.4916   45.4909 H   0  0  0  0  0  0  0  0  0  0  0  0
   55.3210   28.6290   45.6230 H   0  0  0  0  0  0  0  0  0  0  0  0
   56.1550   32.3997   44.5357 H   0  0  0  0  0  0  0  0  0  0  0  0
   57.4537   34.1611   45.7307 H   0  0  0  0  0  0  0  0  0  0  0  0
   58.0050   32.6520   48.8280 H   0  0  0  0  0  0  0  0  0  0  0  0
   57.5482   30.8688   50.2544 H   0  0  0  0  0  0  0  0  0  0  0  0
   56.1856   29.8909   52.0993 H   0  0  0  0  0  0  0  0  0  0  0  0
   56.4014   30.7813   54.4221 H   0  0  0  0  0  0  0  0  0  0  0  0
   57.9806   32.6528   54.9002 H   0  0  0  0  0  0  0  0  0  0  0  0
   59.3444   33.6415   53.0607 H   0  0  0  0  0  0  0  0  0  0  0  0
  1  2  1  0
  2  3  1  0
  2  4  1  0
  4  5  1  0
  5  6  1  0
  6  7  1  0
  7  8  1  0
  8  9  1  0
  9 10  2  0
 10 11  1  0
 11 12  2  0
 12 13  1  0
 13 14  1  0
 13 15  2  0
 13 16  2  0
 12 17  1  0
 17 18  2  0
  7 19  2  0
 19 20  1  0
 20 21  1  0
 21 22  2  0
 22 23  1  0
 23 24  2  0
 24 25  1  0
 25 26  2  0
 20 27  1  0
 27 28  2  0
 27  6  1  0
 18  9  1  0
 26 21  1  0
  1 29  1  0
  1 30  1  0
  1 31  1  0
  3 32  1  0
  3 33  1  0
  3 34  1  0
  4 35  1  0
  4 36  1  0
  5 37  1  0
  5 38  1  0
  8 39  1  0
  8 40  1  0
 10 41  1  0
 11 42  1  0
 14 43  1  0
 17 44  1  0
 18 45  1  0
 19 46  1  0
 22 47  1  0
 23 48  1  0
 24 49  1  0
 25 50  1  0
 26 51  1  0
M  CHG  2  14  -1  19   1
M  END
>  <UniqueID>  (37) 
35

>  <SMILES>  (37) 
CN(C)CCn1c(Cc2ccc(S([NH-])(=O)=O)cc2)[nH+]n(-c2ccccc2)c1=O

>  <Energy>  (37) 
91.32413580257611

>  <Genealogy>  (37) 
CN(C)CCn1c(Cc2ccc(S([NH-])(=O)=O)cc2)[nH+]n(-c2ccccc2)c1=O (protonated)
CN(C)CCn1c(Cc2ccc(S([NH-])(=O)=O)cc2)[nH+]n(-c2ccccc2)c1=O (3D coordinates assigned)
CN(C)CCn1c(Cc2ccc(S([NH-])(=O)=O)cc2)[nH+]n(-c2ccccc2)c1=O (optimized conformer: 91.32413580257611 kcal/mol)

>  <smiles>  (37) 
CN(C)CCn1c(Cc2ccc(S(N)(=O)=O)cc2)nn(-c2ccccc2)c1=O

>  <score_type>  (37) 
oracle

>  <origin>  (37) 
adg

>  <m_score__min__energy>  (37) 
-9.6999999999999993

>  <m_primary>  (37) 
energy

$$$$
37:0
     RDKit          3D

 54 56  0  0  0  0  0  0  0  0999 V2000
   58.5520   23.5210   45.4650 C   0  0  0  0  0  0  0  0  0  0  0  0
   58.7020   24.6870   46.2690 O   0  0  0  0  0  0  0  0  0  0  0  0
   58.3250   25.9770   45.8720 C   0  0  0  0  0  0  0  0  0  0  0  0
   57.0160   26.4680   46.0370 C   0  0  0  0  0  0  0  0  0  0  0  0
   56.6900   27.7620   45.6210 C   0  0  0  0  0  0  0  0  0  0  0  0
   57.6680   28.5880   45.0500 C   0  0  0  0  0  0  0  0  0  0  0  0
   57.2730   30.2370   44.5760 S   0  0  0  0  0  0  0  0  0  0  0  0
   57.5260   30.4240   43.1060 O   0  0  0  0  0  0  0  0  0  0  0  0
   55.8130   30.4880   44.8320 O   0  0  0  0  0  0  0  0  0  0  0  0
   58.2410   31.3710   45.4720 N   0  0  0  0  0  0  0  0  0  0  0  0
   58.0940   32.8060   45.2030 C   0  0  0  0  0  0  0  0  0  0  0  0
   58.1400   33.5870   46.4900 C   0  0  0  0  0  0  0  0  0  0  0  0
   57.2500   33.3900   47.3590 O   0  0  0  0  0  0  0  0  0  0  0  0
   59.2270   34.4650   46.8050 N   0  0  0  0  0  0  0  0  0  0  0  0
   60.5320   34.0740   47.2570 C   0  0  0  0  0  0  0  0  0  0  0  0
   61.6490   34.1810   46.4080 C   0  0  0  0  0  0  0  0  0  0  0  0
   62.9210   33.8370   46.8680 C   0  0  0  0  0  0  0  0  0  0  0  0
   63.0940   33.4010   48.1810 C   0  0  0  0  0  0  0  0  0  0  0  0
   61.9980   33.3220   49.0440 C   0  0  0  0  0  0  0  0  0  0  0  0
   60.7110   33.6790   48.5980 C   0  0  0  0  0  0  0  0  0  0  0  0
   59.5700   33.5600   49.4690 N   0  0  0  0  0  0  0  0  0  0  0  0
   59.6540   33.4810   50.9000 C   0  0  0  0  0  0  0  0  0  0  0  0
   58.4460   33.1200   51.7000 C   0  0  0  0  0  0  0  0  0  0  0  0
   60.7170   33.7980   51.4990 O   0  0  0  0  0  0  0  0  0  0  0  0
   59.0930   30.9010   46.5300 C   0  0  0  0  0  0  0  0  0  0  0  0
   60.4870   30.9150   46.3720 C   0  0  0  0  0  0  0  0  0  0  0  0
   61.3190   30.4700   47.4050 C   0  0  0  0  0  0  0  0  0  0  0  0
   60.7660   30.0090   48.6020 C   0  0  0  0  0  0  0  0  0  0  0  0
   59.3780   29.9930   48.7680 C   0  0  0  0  0  0  0  0  0  0  0  0
   58.5420   30.4380   47.7380 C   0  0  0  0  0  0  0  0  0  0  0  0
   58.9700   28.0980   44.8810 C   0  0  0  0  0  0  0  0  0  0  0  0
   59.2930   26.8020   45.2870 C   0  0  0  0  0  0  0  0  0  0  0  0
   58.4387   22.6402   46.1141 H   0  0  0  0  0  0  0  0  0  0  0  0
   57.6599   23.6257   44.8300 H   0  0  0  0  0  0  0  0  0  0  0  0
   59.4415   23.3965   44.8300 H   0  0  0  0  0  0  0  0  0  0  0  0
   56.2460   25.8302   46.4955 H   0  0  0  0  0  0  0  0  0  0  0  0
   55.6618   28.1336   45.7422 H   0  0  0  0  0  0  0  0  0  0  0  0
   58.9128   33.1380   44.5477 H   0  0  0  0  0  0  0  0  0  0  0  0
   57.1246   32.9806   44.7132 H   0  0  0  0  0  0  0  0  0  0  0  0
   61.5189   34.5379   45.3757 H   0  0  0  0  0  0  0  0  0  0  0  0
   63.7875   33.9099   46.1943 H   0  0  0  0  0  0  0  0  0  0  0  0
   64.0954   33.1187   48.5382 H   0  0  0  0  0  0  0  0  0  0  0  0
   62.1416   32.9785   50.0791 H   0  0  0  0  0  0  0  0  0  0  0  0
   58.6160   33.5660   49.0420 H   0  0  0  0  0  0  0  0  0  0  0  0
   58.6817   33.1904   52.7721 H   0  0  0  0  0  0  0  0  0  0  0  0
   57.6260   33.8123   51.4586 H   0  0  0  0  0  0  0  0  0  0  0  0
   58.1403   32.0913   51.4586 H   0  0  0  0  0  0  0  0  0  0  0  0
   60.9278   31.2775   45.4316 H   0  0  0  0  0  0  0  0  0  0  0  0
   62.4111   30.4832   47.2743 H   0  0  0  0  0  0  0  0  0  0  0  0
   61.4217   29.6590   49.4129 H   0  0  0  0  0  0  0  0  0  0  0  0
   58.9421   29.6298   49.7104 H   0  0  0  0  0  0  0  0  0  0  0  0
   57.4505   30.4256   47.8737 H   0  0  0  0  0  0  0  0  0  0  0  0
   59.7410   28.7375   44.4264 H   0  0  0  0  0  0  0  0  0  0  0  0
   60.3170   26.4258   45.1460 H   0  0  0  0  0  0  0  0  0  0  0  0
  1  2  1  0
  2  3  1  0
  3  4  2  0
  4  5  1  0
  5  6  2  0
  6  7  1  0
  7  8  2  0
  7  9  2  0
  7 10  1  0
 10 11  1  0
 11 12  1  0
 12 13  2  0
 12 14  1  0
 14 15  1  0
 15 16  2  0
 16 17  1  0
 17 18  2  0
 18 19  1  0
 19 20  2  0
 20 21  1  0
 21 22  1  0
 22 23  1  0
 22 24  2  0
 10 25  1  0
 25 26  2  0
 26 27  1  0
 27 28  2  0
 28 29  1  0
 29 30  2  0
  6 31  1  0
 31 32  2  0
 32  3  1  0
 20 15  1  0
 30 25  1  0
  1 33  1  0
  1 34  1  0
  1 35  1  0
  4 36  1  0
  5 37  1  0
 11 38  1  0
 11 39  1  0
 16 40  1  0
 17 41  1  0
 18 42  1  0
 19 43  1  0
 21 44  1  0
 23 45  1  0
 23 46  1  0
 23 47  1  0
 26 48  1  0
 27 49  1  0
 28 50  1  0
 29 51  1  0
 30 52  1  0
 31 53  1  0
 32 54  1  0
M  CHG  1  14  -1
M  END
>  <UniqueID>  (38) 
36

>  <SMILES>  (38) 
COc1ccc(S(=O)(=O)N(CC(=O)[N-]c2ccccc2NC(C)=O)c2ccccc2)cc1

>  <Energy>  (38) 
61.28983538001402

>  <Genealogy>  (38) 
COc1ccc(S(=O)(=O)N(CC(=O)[N-]c2ccccc2NC(C)=O)c2ccccc2)cc1 (protonated)
COc1ccc(S(=O)(=O)N(CC(=O)[N-]c2ccccc2NC(C)=O)c2ccccc2)cc1 (3D coordinates assigned)
COc1ccc(S(=O)(=O)N(CC(=O)[N-]c2ccccc2NC(C)=O)c2ccccc2)cc1 (optimized conformer: 61.28983538001402 kcal/mol)

>  <smiles>  (38) 
COc1ccc(S(=O)(=O)N(CC(=O)Nc2ccccc2NC(C)=O)c2ccccc2)cc1

>  <score_type>  (38) 
oracle

>  <origin>  (38) 
adg

>  <m_score__min__energy>  (38) 
-10.050000000000001

>  <m_primary>  (38) 
energy

$$$$
38:0
     RDKit          3D

 76 80  0  0  0  0  0  0  0  0999 V2000
   59.1760   30.5060   50.7520 C   0  0  0  0  0  0  0  0  0  0  0  0
   59.2970   29.6400   49.5330 C   0  0  0  0  0  0  0  0  0  0  0  0
   58.5560   29.8930   48.3660 C   0  0  0  0  0  0  0  0  0  0  0  0
   58.7830   28.9680   47.3540 C   0  0  0  0  0  0  0  0  0  0  0  0
   58.1800   28.9890   46.0130 C   0  0  0  0  0  0  0  0  0  0  0  0
   58.3390   28.0130   45.2350 O   0  0  0  0  0  0  0  0  0  0  0  0
   57.3660   30.0920   45.5960 N   0  0  0  0  0  0  0  0  0  0  0  0
   57.7780   31.3160   45.4240 C   0  0  0  0  0  0  0  0  0  0  0  0
   57.4640   32.0630   44.2710 C   0  0  0  0  0  0  0  0  0  0  0  0
   57.9090   33.3820   44.1680 C   0  0  0  0  0  0  0  0  0  0  0  0
   58.6590   33.9510   45.1980 C   0  0  0  0  0  0  0  0  0  0  0  0
   59.0790   35.2370   45.0890 F   0  0  0  0  0  0  0  0  0  0  0  0
   58.9630   33.1830   46.3330 C   0  0  0  0  0  0  0  0  0  0  0  0
   59.7960   33.7460   47.4630 C   0  0  0  0  0  0  0  0  0  0  0  0
   61.1890   33.2530   47.4790 N   0  0  0  0  0  0  0  0  0  0  0  0
   61.2940   31.7790   47.5260 C   0  0  0  0  0  0  0  0  0  0  0  0
   62.7280   31.2940   47.2150 C   0  0  0  0  0  0  0  0  0  0  0  0
   63.7570   32.3170   47.5010 N   0  0  0  0  0  0  0  0  0  0  0  0
   63.9610   32.5830   49.2240 S   0  0  0  0  0  0  0  0  0  0  0  0
   63.0290   34.0050   49.7650 C   0  0  0  0  0  0  0  0  0  0  0  0
   65.4090   32.7880   49.5710 O   0  0  0  0  0  0  0  0  0  0  0  0
   63.4490   31.3820   49.9700 O   0  0  0  0  0  0  0  0  0  0  0  0
   63.5160   33.5940   46.7740 C   0  0  0  0  0  0  0  0  0  0  0  0
   62.0350   33.8310   46.4270 C   0  0  0  0  0  0  0  0  0  0  0  0
   58.5160   31.8980   46.4080 N   0  0  0  0  0  0  0  0  0  0  0  0
   59.9130   27.8460   47.8980 S   0  0  0  0  0  0  0  0  0  0  0  0
   60.1370   28.5230   49.4230 C   0  0  0  0  0  0  0  0  0  0  0  0
   61.1030   28.0100   50.4180 C   0  0  0  0  0  0  0  0  0  0  0  0
   62.0230   28.8710   51.0370 C   0  0  0  0  0  0  0  0  0  0  0  0
   62.9540   28.3700   51.9500 C   0  0  0  0  0  0  0  0  0  0  0  0
   62.9870   27.0010   52.2600 C   0  0  0  0  0  0  0  0  0  0  0  0
   63.9680   26.4810   53.1790 N   0  0  0  0  0  0  0  0  0  0  0  0
   63.8360   25.1040   53.6650 C   0  0  0  0  0  0  0  0  0  0  0  0
   65.1830   27.2490   53.4860 C   0  0  0  0  0  0  0  0  0  0  0  0
   66.0940   27.3150   52.2880 C   0  0  0  0  0  0  0  0  0  0  0  0
   66.7050   28.5300   51.9350 C   0  0  0  0  0  0  0  0  0  0  0  0
   67.5540   28.5950   50.8260 C   0  0  0  0  0  0  0  0  0  0  0  0
   67.7940   27.4500   50.0590 C   0  0  0  0  0  0  0  0  0  0  0  0
   67.1880   26.2400   50.4020 C   0  0  0  0  0  0  0  0  0  0  0  0
   66.3420   26.1690   51.5140 C   0  0  0  0  0  0  0  0  0  0  0  0
   62.0730   26.1400   51.6300 C   0  0  0  0  0  0  0  0  0  0  0  0
   61.1400   26.6400   50.7180 C   0  0  0  0  0  0  0  0  0  0  0  0
   59.2630   29.8831   51.6544 H   0  0  0  0  0  0  0  0  0  0  0  0
   59.9776   31.2592   50.7477 H   0  0  0  0  0  0  0  0  0  0  0  0
   58.1986   31.0107   50.7477 H   0  0  0  0  0  0  0  0  0  0  0  0
   57.8632   30.7413   48.2635 H   0  0  0  0  0  0  0  0  0  0  0  0
   56.8740   31.6110   43.4601 H   0  0  0  0  0  0  0  0  0  0  0  0
   57.6679   33.9742   43.2729 H   0  0  0  0  0  0  0  0  0  0  0  0
   59.8168   34.8415   47.3663 H   0  0  0  0  0  0  0  0  0  0  0  0
   59.3280   33.4155   48.4020 H   0  0  0  0  0  0  0  0  0  0  0  0
   61.0121   31.4341   48.5318 H   0  0  0  0  0  0  0  0  0  0  0  0
   60.6203   31.3644   46.7617 H   0  0  0  0  0  0  0  0  0  0  0  0
   62.9380   30.4045   47.8271 H   0  0  0  0  0  0  0  0  0  0  0  0
   62.7746   31.0712   46.1388 H   0  0  0  0  0  0  0  0  0  0  0  0
   64.6720   31.9330   47.1680 H   0  0  0  0  0  0  0  0  0  0  0  0
   63.0098   34.0342   50.8644 H   0  0  0  0  0  0  0  0  0  0  0  0
   63.5025   34.9211   49.3820 H   0  0  0  0  0  0  0  0  0  0  0  0
   62.0001   33.9364   49.3820 H   0  0  0  0  0  0  0  0  0  0  0  0
   63.8634   34.4252   47.4051 H   0  0  0  0  0  0  0  0  0  0  0  0
   64.0664   33.5349   45.8234 H   0  0  0  0  0  0  0  0  0  0  0  0
   61.8435   34.9118   46.3545 H   0  0  0  0  0  0  0  0  0  0  0  0
   61.8022   33.3528   45.4641 H   0  0  0  0  0  0  0  0  0  0  0  0
   62.0107   29.9455   50.8019 H   0  0  0  0  0  0  0  0  0  0  0  0
   63.6682   29.0547   52.4308 H   0  0  0  0  0  0  0  0  0  0  0  0
   63.8358   25.1018   54.7650 H   0  0  0  0  0  0  0  0  0  0  0  0
   62.8925   24.6742   53.2973 H   0  0  0  0  0  0  0  0  0  0  0  0
   64.6806   24.5028   53.2973 H   0  0  0  0  0  0  0  0  0  0  0  0
   64.8990   28.2704   53.7792 H   0  0  0  0  0  0  0  0  0  0  0  0
   65.7174   26.7483   54.3068 H   0  0  0  0  0  0  0  0  0  0  0  0
   66.5147   29.4333   52.5332 H   0  0  0  0  0  0  0  0  0  0  0  0
   68.0337   29.5475   50.5564 H   0  0  0  0  0  0  0  0  0  0  0  0
   68.4604   27.5031   49.1854 H   0  0  0  0  0  0  0  0  0  0  0  0
   67.3760   25.3408   49.7969 H   0  0  0  0  0  0  0  0  0  0  0  0
   65.8695   25.2128   51.7832 H   0  0  0  0  0  0  0  0  0  0  0  0
   62.0920   25.0637   51.8565 H   0  0  0  0  0  0  0  0  0  0  0  0
   60.4298   25.9549   50.2320 H   0  0  0  0  0  0  0  0  0  0  0  0
  1  2  1  0
  2  3  1  0
  3  4  2  0
  4  5  1  0
  5  6  2  0
  5  7  1  0
  7  8  2  3
  8  9  1  0
  9 10  2  0
 10 11  1  0
 11 12  1  0
 11 13  2  0
 13 14  1  0
 14 15  1  0
 15 16  1  0
 16 17  1  0
 17 18  1  0
 18 19  1  0
 19 20  1  0
 19 21  2  0
 19 22  2  0
 18 23  1  0
 23 24  1  0
 13 25  1  0
  4 26  1  0
 26 27  1  0
 27 28  1  0
 28 29  2  0
 29 30  1  0
 30 31  2  0
 31 32  1  0
 32 33  1  0
 32 34  1  0
 34 35  1  0
 35 36  2  0
 36 37  1  0
 37 38  2  0
 38 39  1  0
 39 40  2  0
 31 41  1  0
 41 42  2  0
 27  2  2  0
 42 28  1  0
 25  8  1  0
 40 35  1  0
 24 15  1  0
  1 43  1  0
  1 44  1  0
  1 45  1  0
  3 46  1  0
  9 47  1  0
 10 48  1  0
 14 49  1  0
 14 50  1  0
 16 51  1  0
 16 52  1  0
 17 53  1  0
 17 54  1  0
 18 55  1  0
 20 56  1  0
 20 57  1  0
 20 58  1  0
 23 59  1  0
 23 60  1  0
 24 61  1  0
 24 62  1  0
 29 63  1  0
 30 64  1  0
 33 65  1  0
 33 66  1  0
 33 67  1  0
 34 68  1  0
 34 69  1  0
 36 70  1  0
 37 71  1  0
 38 72  1  0
 39 73  1  0
 40 74  1  0
 41 75  1  0
 42 76  1  0
M  CHG  2  18   1  25  -1
M  END
>  <UniqueID>  (39) 
37

>  <SMILES>  (39) 
Cc1cc(C(=O)N=c2ccc(F)c(CN3CC[NH+](S(C)(=O)=O)CC3)[n-]2)sc1-c1ccc(N(C)Cc2ccccc2)cc1

>  <Energy>  (39) 
131.95232949371592

>  <Genealogy>  (39) 
Cc1cc(C(=O)N=c2ccc(F)c(CN3CC[NH+](S(C)(=O)=O)CC3)[n-]2)sc1-c1ccc(N(C)Cc2ccccc2)cc1 (protonated)
Cc1cc(C(=O)N=c2ccc(F)c(CN3CC[NH+](S(C)(=O)=O)CC3)[n-]2)sc1-c1ccc(N(C)Cc2ccccc2)cc1 (3D coordinates assigned)
Cc1cc(C(=O)N=c2ccc(F)c(CN3CC[NH+](S(C)(=O)=O)CC3)[n-]2)sc1-c1ccc(N(C)Cc2ccccc2)cc1 (nonaromatic ring conformer: 131.95232949371592 kcal/mol)

>  <smiles>  (39) 
Cc1cc(C(=O)N=c2ccc(F)c(CN3CCN(S(C)(=O)=O)CC3)[nH]2)sc1-c1ccc(N(C)Cc2ccccc2)cc1

>  <score_type>  (39) 
oracle

>  <origin>  (39) 
adg

>  <m_score__min__energy>  (39) 
-10.609999999999999

>  <m_primary>  (39) 
energy

$$$$
39:0
     RDKit          3D

 24 25  0  0  0  0  0  0  0  0999 V2000
   59.5570   29.2150   44.5470 C   0  0  0  0  0  0  0  0  0  0  0  0
   59.0700   29.1250   45.9380 N   0  0  2  0  0  0  0  0  0  0  0  0
   57.6790   28.6620   46.0520 C   0  0  0  0  0  0  0  0  0  0  0  0
   56.6840   29.4590   45.2540 C   0  0  0  0  0  0  0  0  0  0  0  0
   55.6040   28.8950   44.9350 O   0  0  0  0  0  0  0  0  0  0  0  0
   56.8450   30.8390   44.9010 N   0  0  0  0  0  0  0  0  0  0  0  0
   57.7480   31.8750   45.3210 C   0  0  0  0  0  0  0  0  0  0  0  0
   57.4360   33.1720   44.8860 C   0  0  0  0  0  0  0  0  0  0  0  0
   58.2490   34.2550   45.2070 C   0  0  0  0  0  0  0  0  0  0  0  0
   59.3970   34.0600   45.9670 C   0  0  0  0  0  0  0  0  0  0  0  0
   59.7320   32.7840   46.4240 C   0  0  0  0  0  0  0  0  0  0  0  0
   61.2370   32.6190   47.3270 Cl  0  0  0  0  0  0  0  0  0  0  0  0
   58.9050   31.6720   46.1190 C   0  0  0  0  0  0  0  0  0  0  0  0
   59.2480   30.3470   46.6780 C   0  0  0  0  0  0  0  0  0  0  0  0
   59.6600   30.2820   47.8700 O   0  0  0  0  0  0  0  0  0  0  0  0
   60.6387   29.4149   44.5494 H   0  0  0  0  0  0  0  0  0  0  0  0
   59.3608   28.2654   44.0276 H   0  0  0  0  0  0  0  0  0  0  0  0
   59.0343   30.0318   44.0276 H   0  0  0  0  0  0  0  0  0  0  0  0
   59.6650   28.3960   46.4010 H   0  0  0  0  0  0  0  0  0  0  0  0
   57.6362   27.6179   45.7084 H   0  0  0  0  0  0  0  0  0  0  0  0
   57.3973   28.7818   47.1085 H   0  0  0  0  0  0  0  0  0  0  0  0
   56.5325   33.3358   44.2803 H   0  0  0  0  0  0  0  0  0  0  0  0
   57.9836   35.2645   44.8598 H   0  0  0  0  0  0  0  0  0  0  0  0
   60.0446   34.9155   46.2094 H   0  0  0  0  0  0  0  0  0  0  0  0
  1  2  1  0
  2  3  1  0
  3  4  1  0
  4  5  2  0
  4  6  1  0
  6  7  1  0
  7  8  2  0
  8  9  1  0
  9 10  2  0
 10 11  1  0
 11 12  1  0
 11 13  2  0
 13 14  1  0
 14 15  2  0
 14  2  1  0
 13  7  1  0
  1 16  1  0
  1 17  1  0
  1 18  1  0
  2 19  1  1
  3 20  1  0
  3 21  1  0
  8 22  1  0
  9 23  1  0
 10 24  1  0
M  CHG  2   2   1   6  -1
M  END
>  <UniqueID>  (40) 
38

>  <SMILES>  (40) 
C[N@@H+]1CC(=O)[N-]c2cccc(Cl)c2C1=O

>  <Energy>  (40) 
45.461649368366864

>  <Genealogy>  (40) 
C[NH+]1CC(=O)[N-]c2cccc(Cl)c2C1=O (protonated)
C[N@@H+]1CC(=O)[N-]c2cccc(Cl)c2C1=O (chirality)
C[N@@H+]1CC(=O)[N-]c2cccc(Cl)c2C1=O (3D coordinates assigned)
C[N@@H+]1CC(=O)[N-]c2cccc(Cl)c2C1=O (nonaromatic ring conformer: 45.461649368366864 kcal/mol)

>  <smiles>  (40) 
CN1CC(=O)Nc2cccc(Cl)c2C1=O

>  <score_type>  (40) 
oracle

>  <origin>  (40) 
adg

>  <m_score__min__energy>  (40) 
-4.4500000000000002

>  <m_primary>  (40) 
energy

$$$$
40:0
     RDKit          3D

 40 42  0  0  0  0  0  0  0  0999 V2000
   58.9320   30.4080   44.1050 O   0  0  0  0  0  0  0  0  0  0  0  0
   57.8320   30.1530   44.6680 C   0  0  0  0  0  0  0  0  0  0  0  0
   56.8690   31.2000   44.8660 N   0  0  0  0  0  0  0  0  0  0  0  0
   57.1360   32.5880   44.4960 C   0  0  0  0  0  0  0  0  0  0  0  0
   58.0020   33.2470   45.5360 C   0  0  0  0  0  0  0  0  0  0  0  0
   58.8100   34.3390   45.1880 C   0  0  0  0  0  0  0  0  0  0  0  0
   59.6240   34.9290   46.1580 C   0  0  0  0  0  0  0  0  0  0  0  0
   59.6350   34.4430   47.4280 N   0  0  0  0  0  0  0  0  0  0  0  0
   58.8650   33.3830   47.7910 C   0  0  0  0  0  0  0  0  0  0  0  0
   58.0360   32.7630   46.8520 C   0  0  0  0  0  0  0  0  0  0  0  0
   57.5410   28.7640   45.0980 C   0  0  0  0  0  0  0  0  0  0  0  0
   56.2090   28.3290   45.2440 C   0  0  0  0  0  0  0  0  0  0  0  0
   55.1480   29.1950   45.0050 O   0  0  0  0  0  0  0  0  0  0  0  0
   55.9450   27.0550   45.6380 N   0  0  0  0  0  0  0  0  0  0  0  0
   56.9320   26.1570   45.8960 C   0  0  0  0  0  0  0  0  0  0  0  0
   56.5730   24.7790   46.3700 C   0  0  0  0  0  0  0  0  0  0  0  0
   56.7360   23.7890   45.2490 C   0  0  0  0  0  0  0  0  0  0  0  0
   55.9960   23.9350   44.0630 C   0  0  0  0  0  0  0  0  0  0  0  0
   56.1210   22.9950   43.0350 C   0  0  0  0  0  0  0  0  0  0  0  0
   56.9750   21.9000   43.1880 C   0  0  0  0  0  0  0  0  0  0  0  0
   57.7030   21.7410   44.3690 C   0  0  0  0  0  0  0  0  0  0  0  0
   57.5830   22.6780   45.4000 C   0  0  0  0  0  0  0  0  0  0  0  0
   58.2700   26.5440   45.7690 C   0  0  0  0  0  0  0  0  0  0  0  0
   58.5770   27.8440   45.3580 C   0  0  0  0  0  0  0  0  0  0  0  0
   59.7860   28.1700   45.2060 O   0  0  0  0  0  0  0  0  0  0  0  0
   55.9200   30.9640   45.2320 H   0  0  0  0  0  0  0  0  0  0  0  0
   57.6525   32.6121   43.5251 H   0  0  0  0  0  0  0  0  0  0  0  0
   56.1817   33.1308   44.4279 H   0  0  0  0  0  0  0  0  0  0  0  0
   58.8029   34.7280   44.1591 H   0  0  0  0  0  0  0  0  0  0  0  0
   60.2575   35.7886   45.8939 H   0  0  0  0  0  0  0  0  0  0  0  0
   58.8945   33.0124   48.8263 H   0  0  0  0  0  0  0  0  0  0  0  0
   57.4153   31.9026   47.1426 H   0  0  0  0  0  0  0  0  0  0  0  0
   57.2333   24.4972   47.2034 H   0  0  0  0  0  0  0  0  0  0  0  0
   55.5253   24.7747   46.7053 H   0  0  0  0  0  0  0  0  0  0  0  0
   55.3163   24.7915   43.9429 H   0  0  0  0  0  0  0  0  0  0  0  0
   55.5464   23.1180   42.1051 H   0  0  0  0  0  0  0  0  0  0  0  0
   57.0740   21.1627   42.3777 H   0  0  0  0  0  0  0  0  0  0  0  0
   58.3726   20.8765   44.4886 H   0  0  0  0  0  0  0  0  0  0  0  0
   58.1530   22.5451   46.3314 H   0  0  0  0  0  0  0  0  0  0  0  0
   59.0761   25.8293   45.9913 H   0  0  0  0  0  0  0  0  0  0  0  0
  1  2  2  0
  2  3  1  0
  3  4  1  0
  4  5  1  0
  5  6  2  0
  6  7  1  0
  7  8  2  0
  8  9  1  0
  9 10  2  0
  2 11  1  0
 11 12  2  0
 12 13  1  0
 12 14  1  0
 14 15  1  0
 15 16  1  0
 16 17  1  0
 17 18  2  0
 18 19  1  0
 19 20  2  0
 20 21  1  0
 21 22  2  0
 15 23  2  0
 23 24  1  0
 24 25  2  0
 10  5  1  0
 24 11  1  0
 22 17  1  0
  3 26  1  0
  4 27  1  0
  4 28  1  0
  6 29  1  0
  7 30  1  0
  9 31  1  0
 10 32  1  0
 16 33  1  0
 16 34  1  0
 18 35  1  0
 19 36  1  0
 20 37  1  0
 21 38  1  0
 22 39  1  0
 23 40  1  0
M  CHG  2  13  -1  14  -1
M  END
>  <UniqueID>  (41) 
39

>  <SMILES>  (41) 
O=C(NCc1ccncc1)c1c([O-])[n-]c(Cc2ccccc2)cc1=O

>  <Energy>  (41) 
46.18267697339585

>  <Genealogy>  (41) 
O=C(NCc1ccncc1)c1c([O-])[n-]c(Cc2ccccc2)cc1=O (protonated)
O=C(NCc1ccncc1)c1c([O-])[n-]c(Cc2ccccc2)cc1=O (3D coordinates assigned)
O=C(NCc1ccncc1)c1c([O-])[n-]c(Cc2ccccc2)cc1=O (optimized conformer: 46.18267697339585 kcal/mol)

>  <smiles>  (41) 
O=C(NCc1ccncc1)c1c(O)[nH]c(Cc2ccccc2)cc1=O

>  <score_type>  (41) 
oracle

>  <origin>  (41) 
adg

>  <m_score__min__energy>  (41) 
-13.91

>  <m_primary>  (41) 
energy

$$$$
41:0
     RDKit          3D

 45 47  0  0  0  0  0  0  0  0999 V2000
   58.7900   30.5090   52.9280 C   0  0  0  0  0  0  0  0  0  0  0  0
   57.6890   30.4810   51.5310 S   0  0  0  0  0  0  0  0  0  0  0  0
   58.2160   29.4960   50.5270 O   0  0  0  0  0  0  0  0  0  0  0  0
   56.3140   30.0500   51.9570 O   0  0  0  0  0  0  0  0  0  0  0  0
   57.6220   32.0510   50.7950 N   0  0  0  0  0  0  0  0  0  0  0  0
   58.5290   32.4940   49.7700 C   0  0  0  0  0  0  0  0  0  0  0  0
   59.7750   33.0640   50.0810 C   0  0  0  0  0  0  0  0  0  0  0  0
   60.6290   33.4880   49.0630 C   0  0  0  0  0  0  0  0  0  0  0  0
   60.2570   33.3490   47.7260 C   0  0  0  0  0  0  0  0  0  0  0  0
   59.0150   32.7780   47.3890 C   0  0  0  0  0  0  0  0  0  0  0  0
   58.5960   32.6170   45.9710 C   0  0  0  0  0  0  0  0  0  0  0  0
   58.6320   33.6830   45.0620 C   0  0  0  0  0  0  0  0  0  0  0  0
   58.2490   33.4660   43.7430 C   0  0  0  0  0  0  0  0  0  0  0  0
   57.8400   32.1930   43.3470 C   0  0  0  0  0  0  0  0  0  0  0  0
   57.5050   31.9950   42.1480 O   0  0  0  0  0  0  0  0  0  0  0  0
   57.8150   31.1750   44.2640 N   0  0  0  0  0  0  0  0  0  0  0  0
   57.4350   29.8100   43.8860 C   0  0  0  0  0  0  0  0  0  0  0  0
   56.1020   29.4700   44.4770 C   0  0  0  0  0  0  0  0  0  0  0  0
   55.1450   30.2810   44.3620 O   0  0  0  0  0  0  0  0  0  0  0  0
   55.9570   28.2640   45.2380 N   0  0  0  0  0  0  0  0  0  0  0  0
   57.0050   27.5440   45.9030 C   0  0  0  0  0  0  0  0  0  0  0  0
   58.0240   28.1990   46.6200 C   0  0  0  0  0  0  0  0  0  0  0  0
   59.0160   27.4570   47.2710 C   0  0  0  0  0  0  0  0  0  0  0  0
   58.9910   26.0610   47.2210 C   0  0  0  0  0  0  0  0  0  0  0  0
   57.9690   25.4040   46.5300 C   0  0  0  0  0  0  0  0  0  0  0  0
   56.9760   26.1430   45.8800 C   0  0  0  0  0  0  0  0  0  0  0  0
   58.1940   31.3950   45.5270 N   0  0  0  0  0  0  0  0  0  0  0  0
   58.1540   32.3700   48.4230 C   0  0  0  0  0  0  0  0  0  0  0  0
   58.2028   30.4941   53.8580 H   0  0  0  0  0  0  0  0  0  0  0  0
   59.4469   29.6273   52.8949 H   0  0  0  0  0  0  0  0  0  0  0  0
   59.4012   31.4230   52.8949 H   0  0  0  0  0  0  0  0  0  0  0  0
   56.7800   32.6310   51.0080 H   0  0  0  0  0  0  0  0  0  0  0  0
   60.0784   33.1764   51.1323 H   0  0  0  0  0  0  0  0  0  0  0  0
   61.6018   33.9347   49.3162 H   0  0  0  0  0  0  0  0  0  0  0  0
   60.9375   33.6873   46.9307 H   0  0  0  0  0  0  0  0  0  0  0  0
   58.9598   34.6810   45.3885 H   0  0  0  0  0  0  0  0  0  0  0  0
   58.2685   34.2924   43.0173 H   0  0  0  0  0  0  0  0  0  0  0  0
   57.3771   29.7378   42.7899 H   0  0  0  0  0  0  0  0  0  0  0  0
   58.1898   29.1056   44.2657 H   0  0  0  0  0  0  0  0  0  0  0  0
   58.0406   29.2978   46.6688 H   0  0  0  0  0  0  0  0  0  0  0  0
   59.8158   27.9731   47.8223 H   0  0  0  0  0  0  0  0  0  0  0  0
   59.7760   25.4787   47.7257 H   0  0  0  0  0  0  0  0  0  0  0  0
   57.9460   24.3047   46.4976 H   0  0  0  0  0  0  0  0  0  0  0  0
   56.1670   25.6216   45.3473 H   0  0  0  0  0  0  0  0  0  0  0  0
   57.1702   31.9466   48.1722 H   0  0  0  0  0  0  0  0  0  0  0  0
  1  2  1  0
  2  3  2  0
  2  4  2  0
  2  5  1  0
  5  6  1  0
  6  7  2  0
  7  8  1  0
  8  9  2  0
  9 10  1  0
 10 11  1  0
 11 12  1  0
 12 13  2  0
 13 14  1  0
 14 15  2  0
 14 16  1  0
 16 17  1  0
 17 18  1  0
 18 19  2  0
 18 20  1  0
 20 21  1  0
 21 22  2  0
 22 23  1  0
 23 24  2  0
 24 25  1  0
 25 26  2  0
 16 27  1  0
 10 28  2  0
 28  6  1  0
 27 11  2  0
 26 21  1  0
  1 29  1  0
  1 30  1  0
  1 31  1  0
  5 32  1  0
  7 33  1  0
  8 34  1  0
  9 35  1  0
 12 36  1  0
 13 37  1  0
 17 38  1  0
 17 39  1  0
 22 40  1  0
 23 41  1  0
 24 42  1  0
 25 43  1  0
 26 44  1  0
 28 45  1  0
M  CHG  1  20  -1
M  END
>  <UniqueID>  (42) 
40

>  <SMILES>  (42) 
CS(=O)(=O)Nc1cccc(-c2ccc(=O)n(CC(=O)[N-]c3ccccc3)n2)c1

>  <Energy>  (42) 
53.96045801074698

>  <Genealogy>  (42) 
CS(=O)(=O)Nc1cccc(-c2ccc(=O)n(CC(=O)[N-]c3ccccc3)n2)c1 (protonated)
CS(=O)(=O)Nc1cccc(-c2ccc(=O)n(CC(=O)[N-]c3ccccc3)n2)c1 (3D coordinates assigned)
CS(=O)(=O)Nc1cccc(-c2ccc(=O)n(CC(=O)[N-]c3ccccc3)n2)c1 (optimized conformer: 53.96045801074698 kcal/mol)

>  <smiles>  (42) 
CS(=O)(=O)Nc1cccc(-c2ccc(=O)n(CC(=O)Nc3ccccc3)n2)c1

>  <score_type>  (42) 
oracle

>  <origin>  (42) 
adg

>  <m_score__min__energy>  (42) 
-10.85

>  <m_primary>  (42) 
energy

$$$$
42:0
     RDKit          3D

 59 62  0  0  0  0  0  0  0  0999 V2000
   56.0150   21.9640   42.9740 N   0  0  0  0  0  0  0  0  0  0  0  0
   55.7490   23.4000   43.0700 C   0  0  0  0  0  0  0  0  0  0  0  0
   54.4870   23.7110   43.8950 C   0  0  0  0  0  0  0  0  0  0  0  0
   54.7580   23.7430   45.4050 C   0  0  0  0  0  0  0  0  0  0  0  0
   56.1220   24.2430   45.6710 N   0  0  0  0  0  0  0  0  0  0  0  0
   57.1850   23.3770   45.5950 C   0  0  0  0  0  0  0  0  0  0  0  0
   56.9910   22.0360   45.2670 O   0  0  0  0  0  0  0  0  0  0  0  0
   58.4840   23.8190   45.8440 C   0  0  0  0  0  0  0  0  0  0  0  0
   58.7110   25.1530   46.1870 C   0  0  0  0  0  0  0  0  0  0  0  0
   60.0130   25.6180   46.4170 C   0  0  0  0  0  0  0  0  0  0  0  0
   60.2360   26.9540   46.7550 C   0  0  0  0  0  0  0  0  0  0  0  0
   59.1560   27.8420   46.8950 C   0  0  0  0  0  0  0  0  0  0  0  0
   59.3600   29.2290   47.2200 N   0  0  0  0  0  0  0  0  0  0  0  0
   60.3150   30.0850   46.5700 C   0  0  0  0  0  0  0  0  0  0  0  0
   61.2270   29.5970   45.8500 O   0  0  0  0  0  0  0  0  0  0  0  0
   60.2570   31.5730   46.7720 C   0  0  0  0  0  0  0  0  0  0  0  0
   59.0220   32.1830   46.1330 C   0  0  0  0  0  0  0  0  0  0  0  0
   58.1620   31.3540   45.3870 C   0  0  0  0  0  0  0  0  0  0  0  0
   56.9840   31.8590   44.8360 C   0  0  0  0  0  0  0  0  0  0  0  0
   56.6500   33.2000   45.0090 C   0  0  0  0  0  0  0  0  0  0  0  0
   57.5070   34.0500   45.7070 C   0  0  0  0  0  0  0  0  0  0  0  0
   58.7130   33.5670   46.2490 C   0  0  0  0  0  0  0  0  0  0  0  0
   59.6340   34.5370   46.8740 C   0  0  0  0  0  0  0  0  0  0  0  0
   59.9660   35.5780   46.2460 O   0  0  0  0  0  0  0  0  0  0  0  0
   60.2320   34.2330   48.1410 N   0  0  0  0  0  0  0  0  0  0  0  0
   61.5950   33.8440   48.3650 C   0  0  0  0  0  0  0  0  0  0  0  0
   62.0580   33.4510   49.6360 C   0  0  0  0  0  0  0  0  0  0  0  0
   63.3860   33.0460   49.8050 C   0  0  0  0  0  0  0  0  0  0  0  0
   64.2550   33.0170   48.7110 C   0  0  0  0  0  0  0  0  0  0  0  0
   63.7950   33.3870   47.4440 C   0  0  0  0  0  0  0  0  0  0  0  0
   62.4670   33.7890   47.2710 C   0  0  0  0  0  0  0  0  0  0  0  0
   57.8530   27.3820   46.6470 C   0  0  0  0  0  0  0  0  0  0  0  0
   57.6190   26.0380   46.2920 C   0  0  0  0  0  0  0  0  0  0  0  0
   56.3190   25.5550   46.0340 C   0  0  0  0  0  0  0  0  0  0  0  0
   55.3310   26.3390   46.1390 O   0  0  0  0  0  0  0  0  0  0  0  0
   57.0400   21.7940   43.0880 H   0  0  0  0  0  0  0  0  0  0  0  0
   55.5110   21.4660   43.7440 H   0  0  0  0  0  0  0  0  0  0  0  0
   56.6118   23.8876   43.5474 H   0  0  0  0  0  0  0  0  0  0  0  0
   55.5840   23.7787   42.0505 H   0  0  0  0  0  0  0  0  0  0  0  0
   54.0983   24.6927   43.5866 H   0  0  0  0  0  0  0  0  0  0  0  0
   53.7604   22.9072   43.7054 H   0  0  0  0  0  0  0  0  0  0  0  0
   54.0273   24.4064   45.8907 H   0  0  0  0  0  0  0  0  0  0  0  0
   54.6664   22.7230   45.8064 H   0  0  0  0  0  0  0  0  0  0  0  0
   59.3283   23.1177   45.7703 H   0  0  0  0  0  0  0  0  0  0  0  0
   60.8640   24.9263   46.3307 H   0  0  0  0  0  0  0  0  0  0  0  0
   61.2635   27.3138   46.9127 H   0  0  0  0  0  0  0  0  0  0  0  0
   58.8250   29.6270   48.0230 H   0  0  0  0  0  0  0  0  0  0  0  0
   60.2407   31.7851   47.8512 H   0  0  0  0  0  0  0  0  0  0  0  0
   61.1428   32.0169   46.2942 H   0  0  0  0  0  0  0  0  0  0  0  0
   58.4222   30.2958   45.2370 H   0  0  0  0  0  0  0  0  0  0  0  0
   56.3177   31.1968   44.2638 H   0  0  0  0  0  0  0  0  0  0  0  0
   55.7085   33.5892   44.5942 H   0  0  0  0  0  0  0  0  0  0  0  0
   57.2379   35.1088   45.8354 H   0  0  0  0  0  0  0  0  0  0  0  0
   61.3738   33.4627   50.4972 H   0  0  0  0  0  0  0  0  0  0  0  0
   63.7471   32.7498   50.8009 H   0  0  0  0  0  0  0  0  0  0  0  0
   65.3005   32.7032   48.8469 H   0  0  0  0  0  0  0  0  0  0  0  0
   64.4783   33.3619   46.5823 H   0  0  0  0  0  0  0  0  0  0  0  0
   62.1051   34.0637   46.2692 H   0  0  0  0  0  0  0  0  0  0  0  0
   57.0053   28.0780   46.7306 H   0  0  0  0  0  0  0  0  0  0  0  0
  1  2  1  0
  2  3  1  0
  3  4  1  0
  4  5  1  0
  5  6  1  0
  6  7  1  0
  6  8  2  0
  8  9  1  0
  9 10  2  0
 10 11  1  0
 11 12  2  0
 12 13  1  0
 13 14  1  0
 14 15  2  0
 14 16  1  0
 16 17  1  0
 17 18  2  0
 18 19  1  0
 19 20  2  0
 20 21  1  0
 21 22  2  0
 22 23  1  0
 23 24  2  0
 23 25  1  0
 25 26  1  0
 26 27  2  0
 27 28  1  0
 28 29  2  0
 29 30  1  0
 30 31  2  0
 12 32  1  0
 32 33  2  0
 33 34  1  0
 34 35  2  0
 34  5  1  0
 33  9  1  0
 22 17  1  0
 31 26  1  0
  1 36  1  0
  1 37  1  0
  2 38  1  0
  2 39  1  0
  3 40  1  0
  3 41  1  0
  4 42  1  0
  4 43  1  0
  8 44  1  0
 10 45  1  0
 11 46  1  0
 13 47  1  0
 16 48  1  0
 16 49  1  0
 18 50  1  0
 19 51  1  0
 20 52  1  0
 21 53  1  0
 27 54  1  0
 28 55  1  0
 29 56  1  0
 30 57  1  0
 31 58  1  0
 32 59  1  0
M  CHG  2   7  -1  25  -1
M  END
>  <UniqueID>  (43) 
41

>  <SMILES>  (43) 
NCCCn1c([O-])cc2ccc(NC(=O)Cc3ccccc3C(=O)[N-]c3ccccc3)cc2c1=O

>  <Energy>  (43) 
80.90770780815002

>  <Genealogy>  (43) 
NCCCn1c([O-])cc2ccc(NC(=O)Cc3ccccc3C(=O)[N-]c3ccccc3)cc2c1=O (protonated)
NCCCn1c([O-])cc2ccc(NC(=O)Cc3ccccc3C(=O)[N-]c3ccccc3)cc2c1=O (3D coordinates assigned)
NCCCn1c([O-])cc2ccc(NC(=O)Cc3ccccc3C(=O)[N-]c3ccccc3)cc2c1=O (optimized conformer: 80.90770780815002 kcal/mol)

>  <smiles>  (43) 
NCCCn1c(O)cc2ccc(NC(=O)Cc3ccccc3C(=O)Nc3ccccc3)cc2c1=O

>  <score_type>  (43) 
oracle

>  <origin>  (43) 
adg

>  <m_score__min__energy>  (43) 
-11.800000000000001

>  <m_primary>  (43) 
energy

$$$$
43:0
     RDKit          3D

 58 60  0  0  0  0  0  0  0  0999 V2000
   61.5290   30.5960   47.9630 C   0  0  0  0  0  0  0  0  0  0  0  0
   60.4620   29.8750   47.1940 C   0  0  0  0  0  0  0  0  0  0  0  0
   59.2760   29.4790   47.8310 C   0  0  0  0  0  0  0  0  0  0  0  0
   58.2880   28.7920   47.1190 C   0  0  0  0  0  0  0  0  0  0  0  0
   58.4760   28.4860   45.7630 C   0  0  0  0  0  0  0  0  0  0  0  0
   57.3820   27.8120   44.9810 C   0  0  0  0  0  0  0  0  0  0  0  0
   56.0760   28.4120   45.2490 N   0  0  0  0  0  0  0  0  0  0  0  0
   55.6920   29.6660   44.1040 S   0  0  0  0  0  0  0  0  0  0  0  0
   55.5410   30.9610   44.8500 O   0  0  0  0  0  0  0  0  0  0  0  0
   54.3840   29.3480   43.4340 O   0  0  0  0  0  0  0  0  0  0  0  0
   56.9500   29.8820   42.8450 C   0  0  0  0  0  0  0  0  0  0  0  0
   57.4950   31.3180   42.8150 C   0  0  0  0  0  0  0  0  0  0  0  0
   58.4520   31.6310   43.9860 C   0  0  0  0  0  0  0  0  0  0  0  0
   58.1330   32.8570   44.7510 N   0  0  0  0  0  0  0  0  0  0  0  0
   57.6120   32.6730   46.1140 C   0  0  0  0  0  0  0  0  0  0  0  0
   58.7030   32.7470   47.1330 C   0  0  0  0  0  0  0  0  0  0  0  0
   59.7130   33.6210   47.0030 C   0  0  0  0  0  0  0  0  0  0  0  0
   60.7660   33.7650   48.0670 C   0  0  0  0  0  0  0  0  0  0  0  0
   62.1310   33.8180   47.7170 C   0  0  0  0  0  0  0  0  0  0  0  0
   63.1270   33.8450   48.6970 C   0  0  0  0  0  0  0  0  0  0  0  0
   62.7890   33.8360   50.0580 C   0  0  0  0  0  0  0  0  0  0  0  0
   63.8350   33.8090   51.1080 C   0  0  0  0  0  0  0  0  0  0  0  0
   64.4160   32.5790   51.5490 N   0  0  0  0  0  0  0  0  0  0  0  0
   64.2070   34.8870   51.6460 O   0  0  0  0  0  0  0  0  0  0  0  0
   61.4340   33.8500   50.4170 C   0  0  0  0  0  0  0  0  0  0  0  0
   60.4370   33.8150   49.4390 C   0  0  0  0  0  0  0  0  0  0  0  0
   59.7070   34.5630   45.8130 C   0  0  0  0  0  0  0  0  0  0  0  0
   59.0100   34.0270   44.5370 C   0  0  0  0  0  0  0  0  0  0  0  0
   59.6810   28.8480   45.1370 C   0  0  0  0  0  0  0  0  0  0  0  0
   60.6670   29.5350   45.8480 C   0  0  0  0  0  0  0  0  0  0  0  0
   61.3493   30.4746   49.0414 H   0  0  0  0  0  0  0  0  0  0  0  0
   62.5130   30.1769   47.7058 H   0  0  0  0  0  0  0  0  0  0  0  0
   61.5073   31.6653   47.7058 H   0  0  0  0  0  0  0  0  0  0  0  0
   59.1229   29.7101   48.8955 H   0  0  0  0  0  0  0  0  0  0  0  0
   57.3589   28.4901   47.6246 H   0  0  0  0  0  0  0  0  0  0  0  0
   57.6028   27.9041   43.9073 H   0  0  0  0  0  0  0  0  0  0  0  0
   57.3430   26.7561   45.2868 H   0  0  0  0  0  0  0  0  0  0  0  0
   57.7809   29.1912   43.0512 H   0  0  0  0  0  0  0  0  0  0  0  0
   56.4912   29.6727   41.8674 H   0  0  0  0  0  0  0  0  0  0  0  0
   58.0387   31.4657   41.8703 H   0  0  0  0  0  0  0  0  0  0  0  0
   56.6338   31.9961   42.9070 H   0  0  0  0  0  0  0  0  0  0  0  0
   58.4275   30.7797   44.6822 H   0  0  0  0  0  0  0  0  0  0  0  0
   59.4405   31.8018   43.5346 H   0  0  0  0  0  0  0  0  0  0  0  0
   56.8734   33.4607   46.3235 H   0  0  0  0  0  0  0  0  0  0  0  0
   57.1503   31.6765   46.1750 H   0  0  0  0  0  0  0  0  0  0  0  0
   58.6776   32.0745   48.0031 H   0  0  0  0  0  0  0  0  0  0  0  0
   62.4166   33.8384   46.6549 H   0  0  0  0  0  0  0  0  0  0  0  0
   64.1853   33.8736   48.3982 H   0  0  0  0  0  0  0  0  0  0  0  0
   64.0330   31.6550   51.2510 H   0  0  0  0  0  0  0  0  0  0  0  0
   65.1850   32.5900   52.2550 H   0  0  0  0  0  0  0  0  0  0  0  0
   61.1528   33.8889   51.4797 H   0  0  0  0  0  0  0  0  0  0  0  0
   59.3798   33.8266   49.7425 H   0  0  0  0  0  0  0  0  0  0  0  0
   59.1935   35.4874   46.1160 H   0  0  0  0  0  0  0  0  0  0  0  0
   60.7625   34.7089   45.5400 H   0  0  0  0  0  0  0  0  0  0  0  0
   58.3995   34.8388   44.1147 H   0  0  0  0  0  0  0  0  0  0  0  0
   59.8135   33.6910   43.8650 H   0  0  0  0  0  0  0  0  0  0  0  0
   59.8483   28.5887   44.0812 H   0  0  0  0  0  0  0  0  0  0  0  0
   61.6086   29.8109   45.3508 H   0  0  0  0  0  0  0  0  0  0  0  0
  1  2  1  0
  2  3  2  0
  3  4  1  0
  4  5  2  0
  5  6  1  0
  6  7  1  0
  7  8  1  0
  8  9  2  0
  8 10  2  0
  8 11  1  0
 11 12  1  0
 12 13  1  0
 13 14  1  0
 14 15  1  0
 15 16  1  0
 16 17  2  0
 17 18  1  0
 18 19  2  0
 19 20  1  0
 20 21  2  0
 21 22  1  0
 22 23  1  0
 22 24  2  0
 21 25  1  0
 25 26  2  0
 17 27  1  0
 27 28  1  0
  5 29  1  0
 29 30  2  0
 30  2  1  0
 28 14  1  0
 26 18  1  0
  1 31  1  0
  1 32  1  0
  1 33  1  0
  3 34  1  0
  4 35  1  0
  6 36  1  0
  6 37  1  0
 11 38  1  0
 11 39  1  0
 12 40  1  0
 12 41  1  0
 13 42  1  0
 13 43  1  0
 15 44  1  0
 15 45  1  0
 16 46  1  0
 19 47  1  0
 20 48  1  0
 23 49  1  0
 23 50  1  0
 25 51  1  0
 26 52  1  0
 27 53  1  0
 27 54  1  0
 28 55  1  0
 28 56  1  0
 29 57  1  0
 30 58  1  0
M  CHG  1   7  -1
M  END
>  <UniqueID>  (44) 
42

>  <SMILES>  (44) 
Cc1ccc(C[N-]S(=O)(=O)CCCN2CC=C(c3ccc(C(N)=O)cc3)CC2)cc1

>  <Energy>  (44) 
65.3575633110976

>  <Genealogy>  (44) 
Cc1ccc(C[N-]S(=O)(=O)CCCN2CC=C(c3ccc(C(N)=O)cc3)CC2)cc1 (protonated)
Cc1ccc(C[N-]S(=O)(=O)CCCN2CC=C(c3ccc(C(N)=O)cc3)CC2)cc1 (3D coordinates assigned)
Cc1ccc(C[N-]S(=O)(=O)CCCN2CC=C(c3ccc(C(N)=O)cc3)CC2)cc1 (nonaromatic ring conformer: 65.3575633110976 kcal/mol)

>  <smiles>  (44) 
Cc1ccc(CNS(=O)(=O)CCCN2CC=C(c3ccc(C(N)=O)cc3)CC2)cc1

>  <score_type>  (44) 
oracle

>  <origin>  (44) 
adg

>  <m_score__min__energy>  (44) 
-11.58

>  <m_primary>  (44) 
energy

$$$$
44:0
     RDKit          3D

 48 52  0  0  0  0  0  0  0  0999 V2000
   62.8900   33.5540   46.0930 F   0  0  0  0  0  0  0  0  0  0  0  0
   62.8470   33.3880   47.4400 C   0  0  0  0  0  0  0  0  0  0  0  0
   64.0530   33.3470   48.1460 C   0  0  0  0  0  0  0  0  0  0  0  0
   64.0640   33.1490   49.5350 C   0  0  0  0  0  0  0  0  0  0  0  0
   65.3530   33.0970   50.2680 C   0  0  0  0  0  0  0  0  0  0  0  0
   66.1270   31.9790   50.1820 N   0  0  0  0  0  0  0  0  0  0  0  0
   67.3130   31.8870   50.8350 C   0  0  0  0  0  0  0  0  0  0  0  0
   67.7610   32.9520   51.6110 C   0  0  0  0  0  0  0  0  0  0  0  0
   66.9700   34.0970   51.6860 C   0  0  0  0  0  0  0  0  0  0  0  0
   65.7880   34.1560   51.0170 N   0  0  0  0  0  0  0  0  0  0  0  0
   62.8410   32.9630   50.2000 C   0  0  0  0  0  0  0  0  0  0  0  0
   61.6350   33.0040   49.4980 C   0  0  0  0  0  0  0  0  0  0  0  0
   61.6130   33.2470   48.1100 C   0  0  0  0  0  0  0  0  0  0  0  0
   60.3140   33.2370   47.2990 C   0  0  0  0  0  0  0  0  0  0  0  0
   60.0580   31.8630   46.6980 C   0  0  0  0  0  0  0  0  0  0  0  0
   60.5010   30.7190   47.2590 N   0  0  0  0  0  0  0  0  0  0  0  0
   60.0130   29.7120   46.5520 N   0  0  0  0  0  0  0  0  0  0  0  0
   59.2580   30.2480   45.5760 C   0  0  0  0  0  0  0  0  0  0  0  0
   59.2630   31.5970   45.6350 N   0  0  0  0  0  0  0  0  0  0  0  0
   58.5440   32.5090   44.7440 C   0  0  0  0  0  0  0  0  0  0  0  0
   57.0210   32.2890   44.8380 C   0  0  0  0  0  0  0  0  0  0  0  0
   56.6490   30.9350   45.0420 O   0  0  0  0  0  0  0  0  0  0  0  0
   57.2130   30.0900   44.0540 C   0  0  0  0  0  0  0  0  0  0  0  0
   58.4980   29.4180   44.5730 C   0  0  0  0  0  0  0  0  0  0  0  0
   60.2680   34.3760   46.2540 C   0  0  0  0  0  0  0  0  0  0  0  0
   59.0130   34.9390   46.8950 C   0  0  0  0  0  0  0  0  0  0  0  0
   59.0590   33.8530   47.9560 C   0  0  0  0  0  0  0  0  0  0  0  0
   65.0036   33.4713   47.6067 H   0  0  0  0  0  0  0  0  0  0  0  0
   67.9189   30.9728   50.7512 H   0  0  0  0  0  0  0  0  0  0  0  0
   68.7167   32.8914   52.1523 H   0  0  0  0  0  0  0  0  0  0  0  0
   67.3030   34.9553   52.2881 H   0  0  0  0  0  0  0  0  0  0  0  0
   65.2360   35.0400   51.0690 H   0  0  0  0  0  0  0  0  0  0  0  0
   62.8333   32.7832   51.2852 H   0  0  0  0  0  0  0  0  0  0  0  0
   60.6888   32.8444   50.0357 H   0  0  0  0  0  0  0  0  0  0  0  0
   58.7756   33.5461   45.0281 H   0  0  0  0  0  0  0  0  0  0  0  0
   58.8629   32.3117   43.7099 H   0  0  0  0  0  0  0  0  0  0  0  0
   56.6359   32.8848   45.6787 H   0  0  0  0  0  0  0  0  0  0  0  0
   56.5929   32.5967   43.8726 H   0  0  0  0  0  0  0  0  0  0  0  0
   56.4829   29.3121   43.7861 H   0  0  0  0  0  0  0  0  0  0  0  0
   57.4662   30.6992   43.1738 H   0  0  0  0  0  0  0  0  0  0  0  0
   58.2228   28.4653   45.0491 H   0  0  0  0  0  0  0  0  0  0  0  0
   59.1597   29.2803   43.7051 H   0  0  0  0  0  0  0  0  0  0  0  0
   61.1329   35.0544   46.2950 H   0  0  0  0  0  0  0  0  0  0  0  0
   60.2784   34.1384   45.1800 H   0  0  0  0  0  0  0  0  0  0  0  0
   59.1311   35.9582   47.2917 H   0  0  0  0  0  0  0  0  0  0  0  0
   58.1036   35.0893   46.2947 H   0  0  0  0  0  0  0  0  0  0  0  0
   59.2288   34.2314   48.9748 H   0  0  0  0  0  0  0  0  0  0  0  0
   58.1730   33.2285   48.1430 H   0  0  0  0  0  0  0  0  0  0  0  0
  1  2  1  0
  2  3  2  0
  3  4  1  0
  4  5  1  0
  5  6  2  0
  6  7  1  0
  7  8  2  0
  8  9  1  0
  9 10  2  0
  4 11  2  0
 11 12  1  0
 12 13  2  0
 13 14  1  0
 14 15  1  0
 15 16  2  0
 16 17  1  0
 17 18  2  0
 18 19  1  0
 19 20  1  0
 20 21  1  0
 21 22  1  0
 22 23  1  0
 23 24  1  0
 14 25  1  0
 25 26  1  0
 26 27  1  0
 13  2  1  0
 27 14  1  0
 10  5  1  0
 19 15  1  0
 24 18  1  0
  3 28  1  0
  7 29  1  0
  8 30  1  0
  9 31  1  0
 10 32  1  0
 11 33  1  0
 12 34  1  0
 20 35  1  0
 20 36  1  0
 21 37  1  0
 21 38  1  0
 23 39  1  0
 23 40  1  0
 24 41  1  0
 24 42  1  0
 25 43  1  0
 25 44  1  0
 26 45  1  0
 26 46  1  0
 27 47  1  0
 27 48  1  0
M  CHG  1  10   1
M  END
>  <UniqueID>  (45) 
43

>  <SMILES>  (45) 
Fc1cc(-c2nccc[nH+]2)ccc1C1(c2nnc3n2CCOCC3)CCC1

>  <Energy>  (45) 
165.58281787325592

>  <Genealogy>  (45) 
Fc1cc(-c2nccc[nH+]2)ccc1C1(c2nnc3n2CCOCC3)CCC1 (protonated)
Fc1cc(-c2nccc[nH+]2)ccc1C1(c2nnc3n2CCOCC3)CCC1 (3D coordinates assigned)
Fc1cc(-c2nccc[nH+]2)ccc1C1(c2nnc3n2CCOCC3)CCC1 (nonaromatic ring conformer: 165.58281787325592 kcal/mol)

>  <smiles>  (45) 
Fc1cc(-c2ncccn2)ccc1C1(c2nnc3n2CCOCC3)CCC1

>  <score_type>  (45) 
oracle

>  <origin>  (45) 
adg

>  <m_score__min__energy>  (45) 
-5.9800000000000004

>  <m_primary>  (45) 
energy

$$$$
45:0
     RDKit          3D

 37 39  0  0  0  0  0  0  0  0999 V2000
   62.9621   34.0052   50.5900 H   0  0  0  0  0  0  0  0  0  0  0  0
   62.8460   33.9130   49.5000 C   0  0  0  0  0  0  0  0  0  0  0  0
   61.6740   34.2690   48.9090 N   0  0  0  0  0  0  0  0  0  0  0  0
   61.4760   34.1670   47.5660 C   0  0  0  0  0  0  0  0  0  0  0  0
   60.3260   34.5440   47.0800 N   0  0  0  0  0  0  0  0  0  0  0  0
   59.3310   33.7240   46.4450 C   0  0  0  0  0  0  0  0  0  0  0  0
   58.7120   34.1240   45.2490 C   0  0  0  0  0  0  0  0  0  0  0  0
   58.9565   35.1003   44.8050 H   0  0  0  0  0  0  0  0  0  0  0  0
   57.7860   33.2850   44.6210 C   0  0  0  0  0  0  0  0  0  0  0  0
   57.2781   33.6198   43.7045 H   0  0  0  0  0  0  0  0  0  0  0  0
   57.5020   32.0220   45.1520 C   0  0  0  0  0  0  0  0  0  0  0  0
   56.5240   31.1990   44.5020 N   0  0  0  0  0  0  0  0  0  0  0  0
   56.3460   29.7920   44.7010 C   0  0  0  0  0  0  0  0  0  0  0  0
   55.1780   29.3470   44.8600 O   0  0  0  0  0  0  0  0  0  0  0  0
   57.4730   28.8960   44.6860 N   0  0  0  0  0  0  0  0  0  0  0  0
   58.4300   29.3000   44.5790 H   0  0  0  0  0  0  0  0  0  0  0  0
   57.3800   27.4790   44.9080 C   0  0  0  0  0  0  0  0  0  0  0  0
   57.8120   26.5520   43.9410 C   0  0  0  0  0  0  0  0  0  0  0  0
   58.2124   26.9084   42.9805 H   0  0  0  0  0  0  0  0  0  0  0  0
   57.7340   25.1800   44.1970 C   0  0  0  0  0  0  0  0  0  0  0  0
   58.0649   24.4599   43.4341 H   0  0  0  0  0  0  0  0  0  0  0  0
   57.2370   24.7210   45.4190 C   0  0  0  0  0  0  0  0  0  0  0  0
   57.1667   23.6407   45.6140 H   0  0  0  0  0  0  0  0  0  0  0  0
   56.8290   25.6360   46.3940 C   0  0  0  0  0  0  0  0  0  0  0  0
   56.4461   25.2752   47.3600 H   0  0  0  0  0  0  0  0  0  0  0  0
   56.9070   27.0080   46.1430 C   0  0  0  0  0  0  0  0  0  0  0  0
   56.5958   27.7239   46.9180 H   0  0  0  0  0  0  0  0  0  0  0  0
   58.1270   31.6180   46.3450 C   0  0  0  0  0  0  0  0  0  0  0  0
   57.8879   30.6386   46.7850 H   0  0  0  0  0  0  0  0  0  0  0  0
   59.0520   32.4580   46.9740 C   0  0  0  0  0  0  0  0  0  0  0  0
   59.5626   32.1223   47.8886 H   0  0  0  0  0  0  0  0  0  0  0  0
   62.5310   33.7010   46.7530 C   0  0  0  0  0  0  0  0  0  0  0  0
   62.4018   33.6312   45.6628 H   0  0  0  0  0  0  0  0  0  0  0  0
   63.7410   33.3290   47.3440 C   0  0  0  0  0  0  0  0  0  0  0  0
   64.5667   32.9560   46.7202 H   0  0  0  0  0  0  0  0  0  0  0  0
   63.9010   33.4310   48.7250 C   0  0  0  0  0  0  0  0  0  0  0  0
   64.8487   33.1347   49.1984 H   0  0  0  0  0  0  0  0  0  0  0  0
  1  2  1  0
  2  3  1  0
  3  4  1  0
  4  5  2  0
  5  6  1  0
  6  7  2  0
  7  8  1  0
  7  9  1  0
  9 10  1  0
  9 11  2  0
 11 12  1  0
 12 13  1  0
 13 14  2  0
 13 15  1  0
 15 16  1  0
 15 17  1  0
 17 18  2  0
 18 19  1  0
 18 20  1  0
 20 21  1  0
 20 22  2  0
 22 23  1  0
 22 24  1  0
 24 25  1  0
 24 26  2  0
 26 27  1  0
 11 28  1  0
 28 29  1  0
 28 30  2  0
 30 31  1  0
  4 32  1  0
 32 33  1  0
 32 34  2  0
 34 35  1  0
 34 36  1  0
 36 37  1  0
 36  2  2  0
 30  6  1  0
 26 17  1  0
M  CHG  2   3  -1  12  -1
M  END
>  <UniqueID>  (46) 
44

>  <SMILES>  (46) 
O=C([N-]c1ccc(/N=c2\cccc[n-]2)cc1)Nc1ccccc1

>  <Energy>  (46) 
58.56995347471004

>  <Genealogy>  (46) 
O=C([N-]c1ccc(N=c2cccc[n-]2)cc1)Nc1ccccc1 (protonated)
O=C([N-]c1ccc(/N=c2\cccc[n-]2)cc1)Nc1ccccc1 (cis-trans isomerization)
O=C([N-]c1ccc(/N=c2\cccc[n-]2)cc1)Nc1ccccc1 (3D coordinates assigned)
O=C([N-]c1ccc(/N=c2\cccc[n-]2)cc1)Nc1ccccc1 (optimized conformer: 58.56995347471004 kcal/mol)

>  <smiles>  (46) 
O=C(Nc1ccccc1)Nc1ccc(N=c2cccc[nH]2)cc1

>  <score_type>  (46) 
oracle

>  <origin>  (46) 
adg

>  <m_score__min__energy>  (46) 
-10.41

>  <m_primary>  (46) 
energy

$$$$
46:0
     RDKit          3D

 58 61  0  0  0  0  0  0  0  0999 V2000
   60.2600   33.7850   51.2240 O   0  0  0  0  0  0  0  0  0  0  0  0
   60.7810   33.5410   50.1010 C   0  0  0  0  0  0  0  0  0  0  0  0
   61.6370   32.3230   49.9260 C   0  0  0  0  0  0  0  0  0  0  0  0
   60.8250   31.0310   50.0700 C   0  0  0  0  0  0  0  0  0  0  0  0
   59.9850   30.7660   48.8570 C   0  0  0  0  0  0  0  0  0  0  0  0
   60.1580   29.7540   47.9380 C   0  0  0  0  0  0  0  0  0  0  0  0
   59.1540   29.8850   47.0540 N   0  0  0  0  0  0  0  0  0  0  0  0
   58.9590   29.1110   45.8340 C   0  0  0  0  0  0  0  0  0  0  0  0
   58.2280   27.8370   46.1510 C   0  0  0  0  0  0  0  0  0  0  0  0
   58.9200   26.7530   46.7110 C   0  0  0  0  0  0  0  0  0  0  0  0
   58.2400   25.5820   47.0540 C   0  0  0  0  0  0  0  0  0  0  0  0
   56.8520   25.4800   46.8470 C   0  0  0  0  0  0  0  0  0  0  0  0
   56.1220   24.2900   47.1840 N   0  0  0  0  0  0  0  0  0  0  0  0
   55.6640   23.2840   46.2660 C   0  0  0  0  0  0  0  0  0  0  0  0
   56.3780   22.2690   46.0310 O   0  0  0  0  0  0  0  0  0  0  0  0
   54.3350   23.4140   45.6230 C   0  0  0  0  0  0  0  0  0  0  0  0
   53.1560   23.3610   46.3890 C   0  0  0  0  0  0  0  0  0  0  0  0
   51.9040   23.4960   45.7790 C   0  0  0  0  0  0  0  0  0  0  0  0
   51.8010   23.6810   44.3900 C   0  0  0  0  0  0  0  0  0  0  0  0
   50.5140   23.8260   43.7600 N   0  0  0  0  0  0  0  0  0  0  0  0
   49.9060   24.9170   43.7910 O   0  0  0  0  0  0  0  0  0  0  0  0
   49.9210   22.7570   43.1290 O   0  0  0  0  0  0  0  0  0  0  0  0
   52.9810   23.7320   43.6220 C   0  0  0  0  0  0  0  0  0  0  0  0
   54.2310   23.5980   44.2330 C   0  0  0  0  0  0  0  0  0  0  0  0
   56.1680   26.5530   46.2560 C   0  0  0  0  0  0  0  0  0  0  0  0
   54.8030   26.4580   46.0070 O   0  0  0  0  0  0  0  0  0  0  0  0
   56.8510   27.7260   45.9200 C   0  0  0  0  0  0  0  0  0  0  0  0
   58.4100   30.9220   47.4100 N   0  0  0  0  0  0  0  0  0  0  0  0
   58.8880   31.4730   48.5180 N   0  0  0  0  0  0  0  0  0  0  0  0
   60.5300   34.3990   48.9820 N   0  0  0  0  0  0  0  0  0  0  0  0
   60.9690   34.1000   47.6240 C   0  0  0  0  0  0  0  0  0  0  0  0
   59.7850   34.0010   46.7060 C   0  0  0  0  0  0  0  0  0  0  0  0
   58.4850   33.9560   47.2380 C   0  0  0  0  0  0  0  0  0  0  0  0
   57.3790   33.8390   46.3890 C   0  0  0  0  0  0  0  0  0  0  0  0
   57.5630   33.7580   45.0050 C   0  0  0  0  0  0  0  0  0  0  0  0
   58.8540   33.7940   44.4690 C   0  0  0  0  0  0  0  0  0  0  0  0
   59.9630   33.9120   45.3150 C   0  0  0  0  0  0  0  0  0  0  0  0
   62.0915   32.3481   48.9246 H   0  0  0  0  0  0  0  0  0  0  0  0
   62.4080   32.3314   50.7105 H   0  0  0  0  0  0  0  0  0  0  0  0
   61.5177   30.1889   50.2148 H   0  0  0  0  0  0  0  0  0  0  0  0
   60.1537   31.1424   50.9343 H   0  0  0  0  0  0  0  0  0  0  0  0
   60.9541   28.9950   47.9295 H   0  0  0  0  0  0  0  0  0  0  0  0
   58.3696   29.7015   45.1171 H   0  0  0  0  0  0  0  0  0  0  0  0
   59.9390   28.8685   45.3972 H   0  0  0  0  0  0  0  0  0  0  0  0
   60.0044   26.8255   46.8810 H   0  0  0  0  0  0  0  0  0  0  0  0
   58.7923   24.7355   47.4880 H   0  0  0  0  0  0  0  0  0  0  0  0
   53.2191   23.2121   47.4771 H   0  0  0  0  0  0  0  0  0  0  0  0
   50.9919   23.4569   46.3926 H   0  0  0  0  0  0  0  0  0  0  0  0
   52.9182   23.8783   42.5336 H   0  0  0  0  0  0  0  0  0  0  0  0
   55.1433   23.6369   43.6196 H   0  0  0  0  0  0  0  0  0  0  0  0
   56.3030   28.5675   45.4711 H   0  0  0  0  0  0  0  0  0  0  0  0
   61.6351   34.9018   47.2727 H   0  0  0  0  0  0  0  0  0  0  0  0
   61.5048   33.1393   47.6234 H   0  0  0  0  0  0  0  0  0  0  0  0
   58.3364   34.0130   48.3264 H   0  0  0  0  0  0  0  0  0  0  0  0
   56.3634   33.8107   46.8107 H   0  0  0  0  0  0  0  0  0  0  0  0
   56.6927   33.6660   44.3385 H   0  0  0  0  0  0  0  0  0  0  0  0
   58.9984   33.7295   43.3804 H   0  0  0  0  0  0  0  0  0  0  0  0
   60.9771   33.9351   44.8895 H   0  0  0  0  0  0  0  0  0  0  0  0
  1  2  2  0
  2  3  1  0
  3  4  1  0
  4  5  1  0
  5  6  2  0
  6  7  1  0
  7  8  1  0
  8  9  1  0
  9 10  2  0
 10 11  1  0
 11 12  2  0
 12 13  1  0
 13 14  1  0
 14 15  2  0
 14 16  1  0
 16 17  2  0
 17 18  1  0
 18 19  2  0
 19 20  1  0
 20 21  2  0
 20 22  1  0
 19 23  1  0
 23 24  2  0
 12 25  1  0
 25 26  1  0
 25 27  2  0
  7 28  1  0
 28 29  2  0
  2 30  1  0
 30 31  1  0
 31 32  1  0
 32 33  2  0
 33 34  1  0
 34 35  2  0
 35 36  1  0
 36 37  2  0
 29  5  1  0
 37 32  1  0
 27  9  1  0
 24 16  1  0
  3 38  1  0
  3 39  1  0
  4 40  1  0
  4 41  1  0
  6 42  1  0
  8 43  1  0
  8 44  1  0
 10 45  1  0
 11 46  1  0
 17 47  1  0
 18 48  1  0
 23 49  1  0
 24 50  1  0
 27 51  1  0
 31 52  1  0
 31 53  1  0
 33 54  1  0
 34 55  1  0
 35 56  1  0
 36 57  1  0
 37 58  1  0
M  CHG  5  13  -1  20   1  22  -1  26  -1  30  -1
M  END
>  <UniqueID>  (47) 
45

>  <SMILES>  (47) 
O=C(CCc1cn(Cc2ccc([N-]C(=O)c3ccc([N+](=O)[O-])cc3)c([O-])c2)nn1)[N-]Cc1ccccc1

>  <Energy>  (47) 
95.66183424959883

>  <Genealogy>  (47) 
O=C(CCc1cn(Cc2ccc([N-]C(=O)c3ccc([N+](=O)[O-])cc3)c([O-])c2)nn1)[N-]Cc1ccccc1 (protonated)
O=C(CCc1cn(Cc2ccc([N-]C(=O)c3ccc([N+](=O)[O-])cc3)c([O-])c2)nn1)[N-]Cc1ccccc1 (3D coordinates assigned)
O=C(CCc1cn(Cc2ccc([N-]C(=O)c3ccc([N+](=O)[O-])cc3)c([O-])c2)nn1)[N-]Cc1ccccc1 (optimized conformer: 95.66183424959883 kcal/mol)

>  <smiles>  (47) 
O=C(CCc1cn(Cc2ccc(NC(=O)c3ccc([N+](=O)[O-])cc3)c(O)c2)nn1)NCc1ccccc1

>  <score_type>  (47) 
oracle

>  <origin>  (47) 
adg

>  <m_score__min__energy>  (47) 
-15.880000000000001

>  <m_primary>  (47) 
energy

$$$$
47:0
     RDKit          3D

 40 42  0  0  0  0  0  0  0  0999 V2000
   57.3740   32.3480   41.0900 C   0  0  0  0  0  0  0  0  0  0  0  0
   58.1480   31.9850   42.3460 C   0  0  0  0  0  0  0  0  0  0  0  0
   57.2870   32.0770   43.4780 O   0  0  0  0  0  0  0  0  0  0  0  0
   57.7670   31.9920   44.7900 C   0  0  0  0  0  0  0  0  0  0  0  0
   58.0010   33.1790   45.5110 C   0  0  0  0  0  0  0  0  0  0  0  0
   57.7540   34.5160   44.8700 C   0  0  0  0  0  0  0  0  0  0  0  0
   58.5190   33.1090   46.8130 C   0  0  0  0  0  0  0  0  0  0  0  0
   58.7690   31.8720   47.4070 C   0  0  0  0  0  0  0  0  0  0  0  0
   58.5050   30.6940   46.7080 C   0  0  0  0  0  0  0  0  0  0  0  0
   58.0090   30.7400   45.3950 C   0  0  0  0  0  0  0  0  0  0  0  0
   57.6490   29.5270   44.7130 N   0  0  0  0  0  0  0  0  0  0  0  0
   58.1120   28.2220   45.0960 C   0  0  0  0  0  0  0  0  0  0  0  0
   59.5910   28.0510   45.8000 S   0  0  0  0  0  0  0  0  0  0  0  0
   57.4390   27.0680   44.5660 N   0  0  0  0  0  0  0  0  0  0  0  0
   57.4690   25.7630   45.1670 C   0  0  0  0  0  0  0  0  0  0  0  0
   57.7070   24.6280   44.3490 C   0  0  0  0  0  0  0  0  0  0  0  0
   57.7180   23.3310   44.8970 C   0  0  0  0  0  0  0  0  0  0  0  0
   57.4740   23.2050   46.2610 C   0  0  0  0  0  0  0  0  0  0  0  0
   57.4250   22.0780   46.9910 N   0  0  0  0  0  0  0  0  0  0  0  0
   57.1480   22.4340   48.2430 N   0  0  0  0  0  0  0  0  0  0  0  0
   57.0200   23.7810   48.3080 C   0  0  0  0  0  0  0  0  0  0  0  0
   57.2270   24.2880   47.0490 C   0  0  0  0  0  0  0  0  0  0  0  0
   57.2060   25.5860   46.5470 C   0  0  0  0  0  0  0  0  0  0  0  0
   56.4110   32.7996   41.3704 H   0  0  0  0  0  0  0  0  0  0  0  0
   57.9567   33.0667   40.4951 H   0  0  0  0  0  0  0  0  0  0  0  0
   57.1940   31.4404   40.4951 H   0  0  0  0  0  0  0  0  0  0  0  0
   58.5289   30.9568   42.2576 H   0  0  0  0  0  0  0  0  0  0  0  0
   58.9921   32.6794   42.4700 H   0  0  0  0  0  0  0  0  0  0  0  0
   57.6134   35.2770   45.6517 H   0  0  0  0  0  0  0  0  0  0  0  0
   58.6171   34.7879   44.2446 H   0  0  0  0  0  0  0  0  0  0  0  0
   56.8507   34.4615   44.2446 H   0  0  0  0  0  0  0  0  0  0  0  0
   58.7292   34.0349   47.3685 H   0  0  0  0  0  0  0  0  0  0  0  0
   59.1750   31.8253   48.4283 H   0  0  0  0  0  0  0  0  0  0  0  0
   58.6867   29.7216   47.1890 H   0  0  0  0  0  0  0  0  0  0  0  0
   57.0050   29.5980   43.8940 H   0  0  0  0  0  0  0  0  0  0  0  0
   56.8880   27.1890   43.6860 H   0  0  0  0  0  0  0  0  0  0  0  0
   57.8853   24.7634   43.2720 H   0  0  0  0  0  0  0  0  0  0  0  0
   57.9125   22.4489   44.2692 H   0  0  0  0  0  0  0  0  0  0  0  0
   56.7905   24.3659   49.2109 H   0  0  0  0  0  0  0  0  0  0  0  0
   56.9924   26.4450   47.2001 H   0  0  0  0  0  0  0  0  0  0  0  0
  1  2  1  0
  2  3  1  0
  3  4  1  0
  4  5  2  0
  5  6  1  0
  5  7  1  0
  7  8  2  0
  8  9  1  0
  9 10  2  0
 10 11  1  0
 11 12  1  0
 12 13  2  0
 12 14  1  0
 14 15  1  0
 15 16  2  0
 16 17  1  0
 17 18  2  0
 18 19  1  0
 19 20  1  0
 20 21  2  0
 21 22  1  0
 22 23  2  0
 10  4  1  0
 23 15  1  0
 22 18  1  0
  1 24  1  0
  1 25  1  0
  1 26  1  0
  2 27  1  0
  2 28  1  0
  6 29  1  0
  6 30  1  0
  6 31  1  0
  7 32  1  0
  8 33  1  0
  9 34  1  0
 11 35  1  0
 14 36  1  0
 16 37  1  0
 17 38  1  0
 21 39  1  0
 23 40  1  0
M  CHG  1  19  -1
M  END
>  <UniqueID>  (48) 
46

>  <SMILES>  (48) 
CCOc1c(C)cccc1NC(=S)Nc1ccc2[n-]ncc2c1

>  <Energy>  (48) 
91.7693384157127

>  <Genealogy>  (48) 
CCOc1c(C)cccc1NC(=S)Nc1ccc2[n-]ncc2c1 (protonated)
CCOc1c(C)cccc1NC(=S)Nc1ccc2[n-]ncc2c1 (3D coordinates assigned)
CCOc1c(C)cccc1NC(=S)Nc1ccc2[n-]ncc2c1 (optimized conformer: 91.7693384157127 kcal/mol)

>  <smiles>  (48) 
CCOc1c(C)cccc1NC(=S)Nc1ccc2[nH]ncc2c1

>  <score_type>  (48) 
oracle

>  <origin>  (48) 
adg

>  <m_score__min__energy>  (48) 
-9.25

>  <m_primary>  (48) 
energy

$$$$
48:0
     RDKit          3D

 49 51  0  0  0  0  0  0  0  0999 V2000
   64.1940   30.9290   51.1520 C   0  0  0  0  0  0  0  0  0  0  0  0
   63.0500   31.6410   50.6950 O   0  0  0  0  0  0  0  0  0  0  0  0
   62.8740   32.1120   49.3820 C   0  0  0  0  0  0  0  0  0  0  0  0
   63.4380   33.3290   48.9500 C   0  0  0  0  0  0  0  0  0  0  0  0
   63.2350   33.7770   47.6430 C   0  0  0  0  0  0  0  0  0  0  0  0
   62.4670   33.0240   46.7550 C   0  0  0  0  0  0  0  0  0  0  0  0
   61.9020   31.8170   47.1700 C   0  0  0  0  0  0  0  0  0  0  0  0
   62.1100   31.3450   48.4770 C   0  0  0  0  0  0  0  0  0  0  0  0
   61.4670   30.0490   48.9130 C   0  0  0  0  0  0  0  0  0  0  0  0
   60.0090   30.2660   49.3330 C   0  0  0  0  0  0  0  0  0  0  0  0
   59.2070   30.7360   48.2050 N   0  0  0  0  0  0  0  0  0  0  0  0
   58.5210   31.9940   48.1480 C   0  0  0  0  0  0  0  0  0  0  0  0
   57.8050   32.3410   49.1240 O   0  0  0  0  0  0  0  0  0  0  0  0
   58.6100   32.8830   46.9630 C   0  0  0  0  0  0  0  0  0  0  0  0
   58.0270   32.4850   45.7350 C   0  0  0  0  0  0  0  0  0  0  0  0
   57.3100   31.2870   45.6020 O   0  0  0  0  0  0  0  0  0  0  0  0
   57.8790   30.0410   45.3010 C   0  0  0  0  0  0  0  0  0  0  0  0
   59.2730   29.8630   45.2130 C   0  0  0  0  0  0  0  0  0  0  0  0
   59.8030   28.6040   44.9130 C   0  0  0  0  0  0  0  0  0  0  0  0
   58.9500   27.5150   44.7110 C   0  0  0  0  0  0  0  0  0  0  0  0
   57.5660   27.6840   44.8120 C   0  0  0  0  0  0  0  0  0  0  0  0
   57.0330   28.9410   45.1110 C   0  0  0  0  0  0  0  0  0  0  0  0
   55.6890   29.0950   45.2040 F   0  0  0  0  0  0  0  0  0  0  0  0
   58.1780   33.2860   44.6010 C   0  0  0  0  0  0  0  0  0  0  0  0
   58.8410   34.5070   44.6810 C   0  0  0  0  0  0  0  0  0  0  0  0
   59.3770   34.9390   45.8940 C   0  0  0  0  0  0  0  0  0  0  0  0
   59.9950   36.1460   45.9410 F   0  0  0  0  0  0  0  0  0  0  0  0
   59.2820   34.1300   47.0430 C   0  0  0  0  0  0  0  0  0  0  0  0
   59.8740   34.6180   48.3430 C   0  0  0  0  0  0  0  0  0  0  0  0
   64.2060   30.9215   52.2519 H   0  0  0  0  0  0  0  0  0  0  0  0
   64.1556   29.8950   50.7787 H   0  0  0  0  0  0  0  0  0  0  0  0
   65.1048   31.4200   50.7787 H   0  0  0  0  0  0  0  0  0  0  0  0
   64.0417   33.9296   49.6463 H   0  0  0  0  0  0  0  0  0  0  0  0
   63.6820   34.7263   47.3129 H   0  0  0  0  0  0  0  0  0  0  0  0
   62.3065   33.3815   45.7272 H   0  0  0  0  0  0  0  0  0  0  0  0
   61.2895   31.2311   46.4688 H   0  0  0  0  0  0  0  0  0  0  0  0
   61.4968   29.3349   48.0769 H   0  0  0  0  0  0  0  0  0  0  0  0
   62.0235   29.6583   49.7776 H   0  0  0  0  0  0  0  0  0  0  0  0
   59.5940   29.3152   49.6989 H   0  0  0  0  0  0  0  0  0  0  0  0
   59.9808   31.0274   50.1264 H   0  0  0  0  0  0  0  0  0  0  0  0
   59.9468   30.7162   45.3806 H   0  0  0  0  0  0  0  0  0  0  0  0
   60.8921   28.4705   44.8359 H   0  0  0  0  0  0  0  0  0  0  0  0
   59.3676   26.5257   44.4727 H   0  0  0  0  0  0  0  0  0  0  0  0
   56.8953   26.8262   44.6559 H   0  0  0  0  0  0  0  0  0  0  0  0
   57.7696   32.9491   43.6368 H   0  0  0  0  0  0  0  0  0  0  0  0
   58.9428   35.1344   43.7832 H   0  0  0  0  0  0  0  0  0  0  0  0
   59.3286   34.1684   49.1859 H   0  0  0  0  0  0  0  0  0  0  0  0
   60.9337   34.3276   48.3952 H   0  0  0  0  0  0  0  0  0  0  0  0
   59.7911   35.7136   48.3952 H   0  0  0  0  0  0  0  0  0  0  0  0
  1  2  1  0
  2  3  1  0
  3  4  2  0
  4  5  1  0
  5  6  2  0
  6  7  1  0
  7  8  2  0
  8  9  1  0
  9 10  1  0
 10 11  1  0
 11 12  1  0
 12 13  2  0
 12 14  1  0
 14 15  1  0
 15 16  1  0
 16 17  1  0
 17 18  2  0
 18 19  1  0
 19 20  2  0
 20 21  1  0
 21 22  2  0
 22 23  1  0
 15 24  2  0
 24 25  1  0
 25 26  2  0
 26 27  1  0
 26 28  1  0
 28 29  1  0
  8  3  1  0
 28 14  2  0
 22 17  1  0
  1 30  1  0
  1 31  1  0
  1 32  1  0
  4 33  1  0
  5 34  1  0
  6 35  1  0
  7 36  1  0
  9 37  1  0
  9 38  1  0
 10 39  1  0
 10 40  1  0
 18 41  1  0
 19 42  1  0
 20 43  1  0
 21 44  1  0
 24 45  1  0
 25 46  1  0
 29 47  1  0
 29 48  1  0
 29 49  1  0
M  CHG  1  11  -1
M  END
>  <UniqueID>  (49) 
47

>  <SMILES>  (49) 
COc1ccccc1CC[N-]C(=O)c1c(Oc2ccccc2F)ccc(F)c1C

>  <Energy>  (49) 
62.406635893445916

>  <Genealogy>  (49) 
COc1ccccc1CC[N-]C(=O)c1c(Oc2ccccc2F)ccc(F)c1C (protonated)
COc1ccccc1CC[N-]C(=O)c1c(Oc2ccccc2F)ccc(F)c1C (3D coordinates assigned)
COc1ccccc1CC[N-]C(=O)c1c(Oc2ccccc2F)ccc(F)c1C (optimized conformer: 62.406635893445916 kcal/mol)

>  <smiles>  (49) 
COc1ccccc1CCNC(=O)c1c(Oc2ccccc2F)ccc(F)c1C

>  <score_type>  (49) 
oracle

>  <origin>  (49) 
adg

>  <m_score__min__energy>  (49) 
-10.19

>  <m_primary>  (49) 
energy

$$$$
49:0
     RDKit          3D

 41 43  0  0  0  0  0  0  0  0999 V2000
   62.3300   32.8370   49.7070 N   0  0  0  0  0  0  0  0  0  0  0  0
   61.5210   32.9360   48.8840 C   0  0  0  0  0  0  0  0  0  0  0  0
   60.5110   33.0590   47.8580 C   0  0  0  0  0  0  0  0  0  0  0  0
   59.2140   32.5220   48.0170 C   0  0  0  0  0  0  0  0  0  0  0  0
   58.8070   31.7620   49.2590 C   0  0  0  0  0  0  0  0  0  0  0  0
   59.3650   30.3650   49.2380 C   0  0  0  0  0  0  0  0  0  0  0  0
   59.9300   29.8080   50.3980 C   0  0  0  0  0  0  0  0  0  0  0  0
   60.4170   28.4970   50.3820 C   0  0  0  0  0  0  0  0  0  0  0  0
   60.3640   27.7440   49.2060 C   0  0  0  0  0  0  0  0  0  0  0  0
   59.8270   28.3000   48.0440 C   0  0  0  0  0  0  0  0  0  0  0  0
   59.3280   29.6060   48.0570 C   0  0  0  0  0  0  0  0  0  0  0  0
   58.2960   32.6920   47.0230 N   0  0  0  0  0  0  0  0  0  0  0  0
   58.6180   33.3340   45.8680 C   0  0  0  0  0  0  0  0  0  0  0  0
   57.4040   33.5080   44.5620 S   0  0  0  0  0  0  0  0  0  0  0  0
   58.0600   32.1260   43.5650 C   0  0  0  0  0  0  0  0  0  0  0  0
   57.6500   30.7980   44.1380 C   0  0  0  0  0  0  0  0  0  0  0  0
   58.6170   29.8860   44.5890 C   0  0  0  0  0  0  0  0  0  0  0  0
   58.2280   28.6810   45.1810 C   0  0  0  0  0  0  0  0  0  0  0  0
   56.8670   28.3610   45.3180 C   0  0  0  0  0  0  0  0  0  0  0  0
   56.4560   27.1080   45.9890 C   0  0  0  0  0  0  0  0  0  0  0  0
   57.3090   26.3750   46.5570 O   0  0  0  0  0  0  0  0  0  0  0  0
   55.1230   26.7160   45.9910 O   0  0  0  0  0  0  0  0  0  0  0  0
   55.9030   29.2570   44.8260 C   0  0  0  0  0  0  0  0  0  0  0  0
   56.2920   30.4670   44.2440 C   0  0  0  0  0  0  0  0  0  0  0  0
   59.8660   33.8340   45.6920 N   0  0  0  0  0  0  0  0  0  0  0  0
   60.8120   33.7190   46.6560 C   0  0  0  0  0  0  0  0  0  0  0  0
   61.9570   34.2080   46.4590 O   0  0  0  0  0  0  0  0  0  0  0  0
   59.1887   32.2894   50.1457 H   0  0  0  0  0  0  0  0  0  0  0  0
   57.7091   31.7024   49.2917 H   0  0  0  0  0  0  0  0  0  0  0  0
   59.9893   30.4043   51.3204 H   0  0  0  0  0  0  0  0  0  0  0  0
   60.8424   28.0580   51.2965 H   0  0  0  0  0  0  0  0  0  0  0  0
   60.7458   26.7124   49.1962 H   0  0  0  0  0  0  0  0  0  0  0  0
   59.7963   27.7097   47.1163 H   0  0  0  0  0  0  0  0  0  0  0  0
   58.9050   30.0404   47.1392 H   0  0  0  0  0  0  0  0  0  0  0  0
   57.3290   32.3110   47.1360 H   0  0  0  0  0  0  0  0  0  0  0  0
   57.6726   32.2087   42.5388 H   0  0  0  0  0  0  0  0  0  0  0  0
   59.1585   32.1833   43.5714 H   0  0  0  0  0  0  0  0  0  0  0  0
   59.6857   30.1206   44.4761 H   0  0  0  0  0  0  0  0  0  0  0  0
   58.9932   27.9781   45.5422 H   0  0  0  0  0  0  0  0  0  0  0  0
   54.8349   29.0046   44.8993 H   0  0  0  0  0  0  0  0  0  0  0  0
   55.5283   31.1632   43.8671 H   0  0  0  0  0  0  0  0  0  0  0  0
  1  2  3  0
  2  3  1  0
  3  4  2  0
  4  5  1  0
  5  6  1  0
  6  7  2  0
  7  8  1  0
  8  9  2  0
  9 10  1  0
 10 11  2  0
  4 12  1  0
 12 13  1  0
 13 14  1  0
 14 15  1  0
 15 16  1  0
 16 17  2  0
 17 18  1  0
 18 19  2  0
 19 20  1  0
 20 21  2  0
 20 22  1  0
 19 23  1  0
 23 24  2  0
 13 25  2  0
 25 26  1  0
 26 27  2  0
 26  3  1  0
 11  6  1  0
 24 16  1  0
  5 28  1  0
  5 29  1  0
  7 30  1  0
  8 31  1  0
  9 32  1  0
 10 33  1  0
 11 34  1  0
 12 35  1  0
 15 36  1  0
 15 37  1  0
 17 38  1  0
 18 39  1  0
 23 40  1  0
 24 41  1  0
M  CHG  1  22  -1
M  END
>  <UniqueID>  (50) 
48

>  <SMILES>  (50) 
N#Cc1c(Cc2ccccc2)[nH]c(SCc2ccc(C(=O)[O-])cc2)nc1=O

>  <Energy>  (50) 
36.78428309127811

>  <Genealogy>  (50) 
N#Cc1c(Cc2ccccc2)[nH]c(SCc2ccc(C(=O)[O-])cc2)nc1=O (protonated)
N#Cc1c(Cc2ccccc2)[nH]c(SCc2ccc(C(=O)[O-])cc2)nc1=O (3D coordinates assigned)
N#Cc1c(Cc2ccccc2)[nH]c(SCc2ccc(C(=O)[O-])cc2)nc1=O (optimized conformer: 36.78428309127811 kcal/mol)

>  <smiles>  (50) 
N#Cc1c(Cc2ccccc2)[nH]c(SCc2ccc(C(=O)O)cc2)nc1=O

>  <score_type>  (50) 
oracle

>  <origin>  (50) 
adg

>  <m_score__min__energy>  (50) 
-10.949999999999999

>  <m_primary>  (50) 
energy

$$$$
50:0
     RDKit          3D

 45 47  0  0  0  0  0  0  0  0999 V2000
   59.6360   30.8327   47.7004 H   0  0  0  0  0  0  0  0  0  0  0  0
   59.7410   29.7740   47.4210 C   0  0  0  0  0  0  0  0  0  0  0  0
   59.1620   28.7830   48.2160 C   0  0  0  0  0  0  0  0  0  0  0  0
   58.6028   29.0614   49.1214 H   0  0  0  0  0  0  0  0  0  0  0  0
   59.2930   27.4350   47.8610 C   0  0  0  0  0  0  0  0  0  0  0  0
   58.8279   26.6567   48.4839 H   0  0  0  0  0  0  0  0  0  0  0  0
   60.0170   27.0720   46.7110 C   0  0  0  0  0  0  0  0  0  0  0  0
   60.2060   25.6240   46.3440 C   0  0  0  0  0  0  0  0  0  0  0  0
   60.6288   25.0840   47.2040 H   0  0  0  0  0  0  0  0  0  0  0  0
   60.8898   25.5593   45.4848 H   0  0  0  0  0  0  0  0  0  0  0  0
   58.9270   25.0220   45.9790 N   0  0  0  0  0  0  0  0  0  0  0  0
   58.0860   25.4760   44.9090 C   0  0  0  0  0  0  0  0  0  0  0  0
   57.6980   24.6470   44.0480 O   0  0  0  0  0  0  0  0  0  0  0  0
   57.6560   26.8840   44.7960 C   0  0  0  0  0  0  0  0  0  0  0  0
   58.2670   27.7400   43.8730 C   0  0  0  0  0  0  0  0  0  0  0  0
   59.0668   27.3606   43.2201 H   0  0  0  0  0  0  0  0  0  0  0  0
   57.8760   29.0390   43.7800 N   0  0  0  0  0  0  0  0  0  0  0  0
   58.3560   29.6620   43.0880 H   0  0  0  0  0  0  0  0  0  0  0  0
   56.8910   29.5330   44.5750 C   0  0  0  0  0  0  0  0  0  0  0  0
   56.5570   30.7880   44.4810 N   0  0  0  0  0  0  0  0  0  0  0  0
   57.3930   31.8350   43.8960 C   0  0  0  0  0  0  0  0  0  0  0  0
   56.7751   32.4696   43.2437 H   0  0  0  0  0  0  0  0  0  0  0  0
   58.1983   31.3638   43.3134 H   0  0  0  0  0  0  0  0  0  0  0  0
   58.0060   32.6840   44.9770 C   0  0  0  0  0  0  0  0  0  0  0  0
   58.7030   33.8590   44.6550 C   0  0  0  0  0  0  0  0  0  0  0  0
   58.7939   34.1729   43.6047 H   0  0  0  0  0  0  0  0  0  0  0  0
   59.2810   34.6300   45.6650 C   0  0  0  0  0  0  0  0  0  0  0  0
   59.8322   35.5465   45.4075 H   0  0  0  0  0  0  0  0  0  0  0  0
   59.1620   34.2420   47.0010 C   0  0  0  0  0  0  0  0  0  0  0  0
   59.6179   34.8566   47.7912 H   0  0  0  0  0  0  0  0  0  0  0  0
   58.4670   33.0770   47.3410 C   0  0  0  0  0  0  0  0  0  0  0  0
   58.3670   32.7320   48.6980 O   0  0  0  0  0  0  0  0  0  0  0  0
   59.4240   32.8680   49.6430 C   0  0  0  0  0  0  0  0  0  0  0  0
   59.0137   32.8152   50.6622 H   0  0  0  0  0  0  0  0  0  0  0  0
   60.1519   32.0561   49.4983 H   0  0  0  0  0  0  0  0  0  0  0  0
   59.9227   33.8377   49.4983 H   0  0  0  0  0  0  0  0  0  0  0  0
   57.8940   32.2930   46.3190 C   0  0  0  0  0  0  0  0  0  0  0  0
   57.3557   31.3688   46.5759 H   0  0  0  0  0  0  0  0  0  0  0  0
   56.2690   28.7110   45.4650 N   0  0  0  0  0  0  0  0  0  0  0  0
   56.6200   27.4040   45.5870 C   0  0  0  0  0  0  0  0  0  0  0  0
   56.0180   26.6780   46.4220 O   0  0  0  0  0  0  0  0  0  0  0  0
   60.5980   28.0760   45.9190 C   0  0  0  0  0  0  0  0  0  0  0  0
   61.1685   27.8031   45.0190 H   0  0  0  0  0  0  0  0  0  0  0  0
   60.4530   29.4240   46.2720 C   0  0  0  0  0  0  0  0  0  0  0  0
   60.9006   30.2077   45.6432 H   0  0  0  0  0  0  0  0  0  0  0  0
  1  2  1  0
  2  3  2  0
  3  4  1  0
  3  5  1  0
  5  6  1  0
  5  7  2  0
  7  8  1  0
  8  9  1  0
  8 10  1  0
  8 11  1  0
 11 12  1  0
 12 13  2  0
 12 14  1  0
 14 15  2  0
 15 16  1  0
 15 17  1  0
 17 18  1  0
 17 19  1  0
 19 20  2  0
 20 21  1  0
 21 22  1  0
 21 23  1  0
 21 24  1  0
 24 25  2  0
 25 26  1  0
 25 27  1  0
 27 28  1  0
 27 29  2  0
 29 30  1  0
 29 31  1  0
 31 32  1  0
 32 33  1  0
 33 34  1  0
 33 35  1  0
 33 36  1  0
 31 37  2  0
 37 38  1  0
 19 39  1  0
 39 40  1  0
 40 41  2  0
  7 42  1  0
 42 43  1  0
 42 44  2  0
 44 45  1  0
 44  2  1  0
 40 14  1  0
 37 24  1  0
M  CHG  2  11  -1  39  -1
M  END
>  <UniqueID>  (51) 
49

>  <SMILES>  (51) 
COc1cccc(C/N=c2\[n-]c(=O)c(C(=O)[N-]Cc3ccccc3)c[nH]2)c1

>  <Energy>  (51) 
49.991294759268534

>  <Genealogy>  (51) 
COc1cccc(CN=c2[n-]c(=O)c(C(=O)[N-]Cc3ccccc3)c[nH]2)c1 (protonated)
COc1cccc(C/N=c2\[n-]c(=O)c(C(=O)[N-]Cc3ccccc3)c[nH]2)c1 (cis-trans isomerization)
COc1cccc(C/N=c2\[n-]c(=O)c(C(=O)[N-]Cc3ccccc3)c[nH]2)c1 (3D coordinates assigned)
COc1cccc(C/N=c2\[n-]c(=O)c(C(=O)[N-]Cc3ccccc3)c[nH]2)c1 (optimized conformer: 49.991294759268534 kcal/mol)

>  <smiles>  (51) 
COc1cccc(CN=c2[nH]cc(C(=O)NCc3ccccc3)c(=O)[nH]2)c1

>  <score_type>  (51) 
oracle

>  <origin>  (51) 
adg

>  <m_score__min__energy>  (51) 
-11.18

>  <m_primary>  (51) 
energy

$$$$
51:0
     RDKit          3D

 38 40  0  0  0  0  0  0  0  0999 V2000
   57.2060   27.9930   45.9440 O   0  0  0  0  0  0  0  0  0  0  0  0
   57.3880   29.2290   45.7870 C   0  0  0  0  0  0  0  0  0  0  0  0
   56.4260   29.9830   45.0360 N   0  0  0  0  0  0  0  0  0  0  0  0
   56.7340   30.8930   43.9340 C   0  0  0  0  0  0  0  0  0  0  0  0
   57.4120   32.1410   44.4380 C   0  0  0  0  0  0  0  0  0  0  0  0
   58.4840   32.6990   43.7220 C   0  0  0  0  0  0  0  0  0  0  0  0
   59.1400   33.8350   44.2080 C   0  0  0  0  0  0  0  0  0  0  0  0
   58.7290   34.4230   45.4080 C   0  0  0  0  0  0  0  0  0  0  0  0
   57.6560   33.8800   46.1200 C   0  0  0  0  0  0  0  0  0  0  0  0
   56.9950   32.7480   45.6360 C   0  0  0  0  0  0  0  0  0  0  0  0
   58.6060   29.8520   46.3400 C   0  0  0  0  0  0  0  0  0  0  0  0
   58.5200   30.6940   47.4540 C   0  0  0  0  0  0  0  0  0  0  0  0
   59.6620   31.3250   47.9430 C   0  0  0  0  0  0  0  0  0  0  0  0
   60.9000   31.1050   47.3180 C   0  0  0  0  0  0  0  0  0  0  0  0
   62.1230   31.7840   47.8160 C   0  0  0  0  0  0  0  0  0  0  0  0
   62.6630   32.8770   47.1160 C   0  0  0  0  0  0  0  0  0  0  0  0
   63.8110   33.5200   47.5870 C   0  0  0  0  0  0  0  0  0  0  0  0
   64.4300   33.0820   48.7600 C   0  0  0  0  0  0  0  0  0  0  0  0
   63.9010   31.9970   49.4660 C   0  0  0  0  0  0  0  0  0  0  0  0
   64.6750   31.4510   50.9420 Cl  0  0  0  0  0  0  0  0  0  0  0  0
   62.7530   31.3500   48.9970 C   0  0  0  0  0  0  0  0  0  0  0  0
   60.9680   30.2610   46.2460 N   0  0  0  0  0  0  0  0  0  0  0  0
   59.8630   29.6380   45.7490 C   0  0  0  0  0  0  0  0  0  0  0  0
   59.9720   28.8840   44.7430 O   0  0  0  0  0  0  0  0  0  0  0  0
   57.4006   30.3837   43.2225 H   0  0  0  0  0  0  0  0  0  0  0  0
   55.7926   31.1796   43.4424 H   0  0  0  0  0  0  0  0  0  0  0  0
   58.8087   32.2412   42.7760 H   0  0  0  0  0  0  0  0  0  0  0  0
   59.9807   34.2664   43.6450 H   0  0  0  0  0  0  0  0  0  0  0  0
   59.2500   35.3126   45.7916 H   0  0  0  0  0  0  0  0  0  0  0  0
   57.3313   34.3444   47.0628 H   0  0  0  0  0  0  0  0  0  0  0  0
   56.1447   32.3298   46.1946 H   0  0  0  0  0  0  0  0  0  0  0  0
   57.5493   30.8581   47.9446 H   0  0  0  0  0  0  0  0  0  0  0  0
   59.5940   31.9925   48.8147 H   0  0  0  0  0  0  0  0  0  0  0  0
   62.1793   33.2281   46.1925 H   0  0  0  0  0  0  0  0  0  0  0  0
   64.2282   34.3734   47.0324 H   0  0  0  0  0  0  0  0  0  0  0  0
   65.3333   33.5904   49.1283 H   0  0  0  0  0  0  0  0  0  0  0  0
   62.3401   30.4966   49.5549 H   0  0  0  0  0  0  0  0  0  0  0  0
   61.8830   30.1070   45.7650 H   0  0  0  0  0  0  0  0  0  0  0  0
  1  2  2  0
  2  3  1  0
  3  4  1  0
  4  5  1  0
  5  6  2  0
  6  7  1  0
  7  8  2  0
  8  9  1  0
  9 10  2  0
  2 11  1  0
 11 12  2  0
 12 13  1  0
 13 14  2  0
 14 15  1  0
 15 16  2  0
 16 17  1  0
 17 18  2  0
 18 19  1  0
 19 20  1  0
 19 21  2  0
 14 22  1  0
 22 23  1  0
 23 24  2  0
 10  5  1  0
 23 11  1  0
 21 15  1  0
  4 25  1  0
  4 26  1  0
  6 27  1  0
  7 28  1  0
  8 29  1  0
  9 30  1  0
 10 31  1  0
 12 32  1  0
 13 33  1  0
 16 34  1  0
 17 35  1  0
 18 36  1  0
 21 37  1  0
 22 38  1  0
M  CHG  1   3  -1
M  END
>  <UniqueID>  (52) 
50

>  <SMILES>  (52) 
O=C([N-]Cc1ccccc1)c1ccc(-c2cccc(Cl)c2)[nH]c1=O

>  <Energy>  (52) 
48.92393981485005

>  <Genealogy>  (52) 
O=C([N-]Cc1ccccc1)c1ccc(-c2cccc(Cl)c2)[nH]c1=O (protonated)
O=C([N-]Cc1ccccc1)c1ccc(-c2cccc(Cl)c2)[nH]c1=O (3D coordinates assigned)
O=C([N-]Cc1ccccc1)c1ccc(-c2cccc(Cl)c2)[nH]c1=O (optimized conformer: 48.92393981485005 kcal/mol)

>  <smiles>  (52) 
O=C(NCc1ccccc1)c1ccc(-c2cccc(Cl)c2)[nH]c1=O

>  <score_type>  (52) 
oracle

>  <origin>  (52) 
adg

>  <m_score__min__energy>  (52) 
-10.289999999999999

>  <m_primary>  (52) 
energy

$$$$
52:0
     RDKit          3D

 60 62  0  0  0  0  0  0  0  0999 V2000
   64.2010   31.5030   50.5320 C   0  0  0  0  0  0  0  0  0  0  0  0
   64.7530   33.0830   49.9230 S   0  0  0  0  0  0  0  0  0  0  0  0
   66.2470   33.0450   49.7810 O   0  0  0  0  0  0  0  0  0  0  0  0
   64.3840   34.1780   50.8850 O   0  0  0  0  0  0  0  0  0  0  0  0
   64.0590   33.4100   48.3680 N   0  0  0  0  0  0  0  0  0  0  0  0
   62.6660   33.6220   48.0950 C   0  0  0  0  0  0  0  0  0  0  0  0
   61.7020   33.6650   49.1170 C   0  0  0  0  0  0  0  0  0  0  0  0
   60.3500   33.8280   48.8060 C   0  0  0  0  0  0  0  0  0  0  0  0
   59.9400   33.9820   47.4710 C   0  0  0  0  0  0  0  0  0  0  0  0
   58.4730   34.0840   47.1120 C   0  0  2  0  0  0  0  0  0  0  0  0
   57.7670   32.9450   47.5310 O   0  0  0  0  0  0  0  0  0  0  0  0
   58.3430   34.2410   45.6270 C   0  0  0  0  0  0  0  0  0  0  0  0
   59.0260   35.1150   45.0290 O   0  0  0  0  0  0  0  0  0  0  0  0
   57.5070   33.3470   44.8860 N   0  0  0  0  0  0  0  0  0  0  0  0
   58.0460   32.3100   44.0160 C   0  0  0  0  0  0  0  0  0  0  0  0
   57.6940   30.9500   44.5570 C   0  0  0  0  0  0  0  0  0  0  0  0
   56.6180   30.2360   44.0050 C   0  0  0  0  0  0  0  0  0  0  0  0
   56.2800   28.9720   44.4930 C   0  0  0  0  0  0  0  0  0  0  0  0
   57.0150   28.3990   45.5390 C   0  0  0  0  0  0  0  0  0  0  0  0
   56.6310   27.0680   46.0570 C   0  0  0  0  0  0  0  0  0  0  0  0
   55.4210   26.7230   46.0110 O   0  0  0  0  0  0  0  0  0  0  0  0
   57.5750   26.1840   46.6830 N   0  0  0  0  0  0  0  0  0  0  0  0
   58.9780   26.0210   46.3170 C   0  0  0  0  0  0  0  0  0  0  0  0
   59.8480   26.6050   47.3440 C   0  0  0  0  0  0  0  0  0  0  0  0
   60.5370   27.0610   48.1540 N   0  0  0  0  0  0  0  0  0  0  0  0
   58.1160   29.0880   46.0660 C   0  0  0  0  0  0  0  0  0  0  0  0
   58.4460   30.3790   45.6050 C   0  0  0  0  0  0  0  0  0  0  0  0
   59.4940   31.1290   46.1690 O   0  0  0  0  0  0  0  0  0  0  0  0
   60.6330   30.5940   46.8420 C   0  0  0  0  0  0  0  0  0  0  0  0
   60.3430   30.4140   48.3060 C   0  0  0  0  0  0  0  0  0  0  0  0
   59.0380   30.5520   48.8030 C   0  0  0  0  0  0  0  0  0  0  0  0
   58.7870   30.3940   50.1710 C   0  0  0  0  0  0  0  0  0  0  0  0
   59.8370   30.1110   51.0490 C   0  0  0  0  0  0  0  0  0  0  0  0
   59.5910   29.9610   52.3750 F   0  0  0  0  0  0  0  0  0  0  0  0
   61.1400   29.9830   50.5600 C   0  0  0  0  0  0  0  0  0  0  0  0
   61.3940   30.1340   49.1940 C   0  0  0  0  0  0  0  0  0  0  0  0
   60.9080   33.9500   46.4550 C   0  0  0  0  0  0  0  0  0  0  0  0
   62.2590   33.7750   46.7630 C   0  0  0  0  0  0  0  0  0  0  0  0
   63.1740   33.7320   45.7630 F   0  0  0  0  0  0  0  0  0  0  0  0
   64.2043   31.5125   51.6320 H   0  0  0  0  0  0  0  0  0  0  0  0
   63.1810   31.3065   50.1701 H   0  0  0  0  0  0  0  0  0  0  0  0
   64.8768   30.7141   50.1701 H   0  0  0  0  0  0  0  0  0  0  0  0
   62.0140   33.5698   50.1675 H   0  0  0  0  0  0  0  0  0  0  0  0
   59.6012   33.8358   49.6118 H   0  0  0  0  0  0  0  0  0  0  0  0
   58.0447   34.9573   47.6256 H   0  0  0  0  0  0  0  0  0  0  0  0
   57.7740   32.3100   46.7680 H   0  0  0  0  0  0  0  0  0  0  0  0
   57.6202   32.4225   43.0080 H   0  0  0  0  0  0  0  0  0  0  0  0
   59.1407   32.4088   43.9716 H   0  0  0  0  0  0  0  0  0  0  0  0
   56.0366   30.6761   43.1814 H   0  0  0  0  0  0  0  0  0  0  0  0
   55.4331   28.4240   44.0543 H   0  0  0  0  0  0  0  0  0  0  0  0
   59.2041   24.9491   46.2178 H   0  0  0  0  0  0  0  0  0  0  0  0
   59.1589   26.5365   45.3623 H   0  0  0  0  0  0  0  0  0  0  0  0
   58.7294   28.6163   46.8479 H   0  0  0  0  0  0  0  0  0  0  0  0
   60.8892   29.6193   46.4012 H   0  0  0  0  0  0  0  0  0  0  0  0
   61.4741   31.2939   46.7293 H   0  0  0  0  0  0  0  0  0  0  0  0
   58.2108   30.7848   48.1163 H   0  0  0  0  0  0  0  0  0  0  0  0
   57.7612   30.4928   50.5558 H   0  0  0  0  0  0  0  0  0  0  0  0
   61.9669   29.7631   51.2513 H   0  0  0  0  0  0  0  0  0  0  0  0
   62.4210   30.0331   48.8131 H   0  0  0  0  0  0  0  0  0  0  0  0
   60.5994   34.0639   45.4054 H   0  0  0  0  0  0  0  0  0  0  0  0
  1  2  1  0
  2  3  2  0
  2  4  2  0
  2  5  1  0
  5  6  1  0
  6  7  2  0
  7  8  1  0
  8  9  2  0
  9 10  1  0
 10 11  1  0
 10 12  1  0
 12 13  2  0
 12 14  1  0
 14 15  1  0
 15 16  1  0
 16 17  2  0
 17 18  1  0
 18 19  2  0
 19 20  1  0
 20 21  2  0
 20 22  1  0
 22 23  1  0
 23 24  1  0
 24 25  3  0
 19 26  1  0
 26 27  2  0
 27 28  1  0
 28 29  1  0
 29 30  1  0
 30 31  2  0
 31 32  1  0
 32 33  2  0
 33 34  1  0
 33 35  1  0
 35 36  2  0
  9 37  1  0
 37 38  2  0
 38 39  1  0
 38  6  1  0
 27 16  1  0
 36 30  1  0
  1 40  1  0
  1 41  1  0
  1 42  1  0
  7 43  1  0
  8 44  1  0
 10 45  1  1
 11 46  1  0
 15 47  1  0
 15 48  1  0
 17 49  1  0
 18 50  1  0
 23 51  1  0
 23 52  1  0
 26 53  1  0
 29 54  1  0
 29 55  1  0
 31 56  1  0
 32 57  1  0
 35 58  1  0
 36 59  1  0
 37 60  1  0
M  CHG  3   5  -1  14  -1  22  -1
M  END
>  <UniqueID>  (53) 
51

>  <SMILES>  (53) 
CS(=O)(=O)[N-]c1ccc([C@H](O)C(=O)[N-]Cc2ccc(C(=O)[N-]CC#N)cc2OCc2ccc(F)cc2)cc1F

>  <Energy>  (53) 
58.31149301741055

>  <Genealogy>  (53) 
CS(=O)(=O)[N-]c1ccc(C(O)C(=O)[N-]Cc2ccc(C(=O)[N-]CC#N)cc2OCc2ccc(F)cc2)cc1F (protonated)
CS(=O)(=O)[N-]c1ccc([C@H](O)C(=O)[N-]Cc2ccc(C(=O)[N-]CC#N)cc2OCc2ccc(F)cc2)cc1F (chirality)
CS(=O)(=O)[N-]c1ccc([C@H](O)C(=O)[N-]Cc2ccc(C(=O)[N-]CC#N)cc2OCc2ccc(F)cc2)cc1F (3D coordinates assigned)
CS(=O)(=O)[N-]c1ccc([C@H](O)C(=O)[N-]Cc2ccc(C(=O)[N-]CC#N)cc2OCc2ccc(F)cc2)cc1F (optimized conformer: 58.31149301741055 kcal/mol)

>  <smiles>  (53) 
CS(=O)(=O)Nc1ccc(C(O)C(=O)NCc2ccc(C(=O)NCC#N)cc2OCc2ccc(F)cc2)cc1F

>  <score_type>  (53) 
oracle

>  <origin>  (53) 
adg

>  <m_score__min__energy>  (53) 
-12.5

>  <m_primary>  (53) 
energy

$$$$
53:0
     RDKit          3D

 51 53  0  0  0  0  0  0  0  0999 V2000
   53.8150   23.8340   44.7230 C   0  0  0  0  0  0  0  0  0  0  0  0
   54.5750   24.7330   45.6390 C   0  0  0  0  0  0  0  0  0  0  0  0
   54.3210   25.9670   45.6580 O   0  0  0  0  0  0  0  0  0  0  0  0
   55.6220   24.1950   46.4490 N   0  0  0  0  0  0  0  0  0  0  0  0
   57.2960   24.4730   46.1070 S   0  0  0  0  0  0  0  0  0  0  0  0
   58.1380   23.7190   47.0990 O   0  0  0  0  0  0  0  0  0  0  0  0
   57.6110   23.9680   44.7270 O   0  0  0  0  0  0  0  0  0  0  0  0
   57.6350   26.1990   46.1790 C   0  0  0  0  0  0  0  0  0  0  0  0
   58.4890   26.7180   47.1580 C   0  0  0  0  0  0  0  0  0  0  0  0
   58.7420   28.0890   47.2110 C   0  0  0  0  0  0  0  0  0  0  0  0
   58.1410   28.9620   46.2940 C   0  0  0  0  0  0  0  0  0  0  0  0
   58.4910   30.3540   46.3220 N   0  0  0  0  0  0  0  0  0  0  0  0
   58.9670   30.9690   47.5640 C   0  0  0  0  0  0  0  0  0  0  0  0
   58.3350   32.3590   47.7140 C   0  0  0  0  0  0  0  0  0  0  0  0
   58.5580   33.2410   46.5330 N   0  0  0  0  0  0  0  0  0  0  0  0
   59.7170   34.4930   46.9110 S   0  0  0  0  0  0  0  0  0  0  0  0
   59.2170   35.3230   48.0620 O   0  0  0  0  0  0  0  0  0  0  0  0
   59.9010   35.3910   45.7190 O   0  0  0  0  0  0  0  0  0  0  0  0
   61.2730   33.7750   47.3220 C   0  0  0  0  0  0  0  0  0  0  0  0
   61.4410   33.1350   48.5580 C   0  0  0  0  0  0  0  0  0  0  0  0
   62.6780   32.5820   48.9010 C   0  0  0  0  0  0  0  0  0  0  0  0
   63.7550   32.6720   48.0150 C   0  0  0  0  0  0  0  0  0  0  0  0
   63.5950   33.3150   46.7840 C   0  0  0  0  0  0  0  0  0  0  0  0
   62.3580   33.8680   46.4380 C   0  0  0  0  0  0  0  0  0  0  0  0
   58.9820   32.5340   45.3000 C   0  0  0  0  0  0  0  0  0  0  0  0
   58.2690   31.1870   45.1380 C   0  0  0  0  0  0  0  0  0  0  0  0
   57.2530   28.4500   45.3180 C   0  0  0  0  0  0  0  0  0  0  0  0
   56.5610   29.3220   44.4090 N   0  0  0  0  0  0  0  0  0  0  0  0
   56.8660   29.3400   43.1980 O   0  0  0  0  0  0  0  0  0  0  0  0
   55.4480   30.0190   44.8220 O   0  0  0  0  0  0  0  0  0  0  0  0
   57.0210   27.0640   45.2660 C   0  0  0  0  0  0  0  0  0  0  0  0
   53.2170   23.1266   45.3163 H   0  0  0  0  0  0  0  0  0  0  0  0
   53.1479   24.4360   44.0886 H   0  0  0  0  0  0  0  0  0  0  0  0
   54.5197   23.2763   44.0886 H   0  0  0  0  0  0  0  0  0  0  0  0
   58.9619   26.0439   47.8873 H   0  0  0  0  0  0  0  0  0  0  0  0
   59.4197   28.4886   47.9798 H   0  0  0  0  0  0  0  0  0  0  0  0
   58.6796   30.3401   48.4195 H   0  0  0  0  0  0  0  0  0  0  0  0
   60.0626   31.0628   47.5333 H   0  0  0  0  0  0  0  0  0  0  0  0
   57.2514   32.2358   47.8576 H   0  0  0  0  0  0  0  0  0  0  0  0
   58.8161   32.8433   48.5766 H   0  0  0  0  0  0  0  0  0  0  0  0
   57.6560   33.7300   46.3220 H   0  0  0  0  0  0  0  0  0  0  0  0
   60.5968   33.0678   49.2600 H   0  0  0  0  0  0  0  0  0  0  0  0
   62.8039   32.0755   49.8693 H   0  0  0  0  0  0  0  0  0  0  0  0
   64.7283   32.2370   48.2861 H   0  0  0  0  0  0  0  0  0  0  0  0
   64.4429   33.3860   46.0869 H   0  0  0  0  0  0  0  0  0  0  0  0
   62.2357   34.3770   45.4705 H   0  0  0  0  0  0  0  0  0  0  0  0
   58.7495   33.1660   44.4302 H   0  0  0  0  0  0  0  0  0  0  0  0
   60.0624   32.3405   45.3731 H   0  0  0  0  0  0  0  0  0  0  0  0
   57.1900   31.3595   45.0117 H   0  0  0  0  0  0  0  0  0  0  0  0
   58.6717   30.6707   44.2541 H   0  0  0  0  0  0  0  0  0  0  0  0
   56.3484   26.6545   44.4980 H   0  0  0  0  0  0  0  0  0  0  0  0
  1  2  1  0
  2  3  2  0
  2  4  1  0
  4  5  1  0
  5  6  2  0
  5  7  2  0
  5  8  1  0
  8  9  2  0
  9 10  1  0
 10 11  2  0
 11 12  1  0
 12 13  1  0
 13 14  1  0
 14 15  1  0
 15 16  1  0
 16 17  2  0
 16 18  2  0
 16 19  1  0
 19 20  2  0
 20 21  1  0
 21 22  2  0
 22 23  1  0
 23 24  2  0
 15 25  1  0
 25 26  1  0
 11 27  1  0
 27 28  1  0
 28 29  2  0
 28 30  1  0
 27 31  2  0
 31  8  1  0
 26 12  1  0
 24 19  1  0
  1 32  1  0
  1 33  1  0
  1 34  1  0
  9 35  1  0
 10 36  1  0
 13 37  1  0
 13 38  1  0
 14 39  1  0
 14 40  1  0
 15 41  1  0
 20 42  1  0
 21 43  1  0
 22 44  1  0
 23 45  1  0
 24 46  1  0
 25 47  1  0
 25 48  1  0
 26 49  1  0
 26 50  1  0
 31 51  1  0
M  CHG  4   4  -1  15   1  28   1  30  -1
M  END
>  <UniqueID>  (54) 
52

>  <SMILES>  (54) 
CC(=O)[N-]S(=O)(=O)c1ccc(N2CC[NH+](S(=O)(=O)c3ccccc3)CC2)c([N+](=O)[O-])c1

>  <Energy>  (54) 
66.40075801252024

>  <Genealogy>  (54) 
CC(=O)[N-]S(=O)(=O)c1ccc(N2CC[NH+](S(=O)(=O)c3ccccc3)CC2)c([N+](=O)[O-])c1 (protonated)
CC(=O)[N-]S(=O)(=O)c1ccc(N2CC[NH+](S(=O)(=O)c3ccccc3)CC2)c([N+](=O)[O-])c1 (3D coordinates assigned)
CC(=O)[N-]S(=O)(=O)c1ccc(N2CC[NH+](S(=O)(=O)c3ccccc3)CC2)c([N+](=O)[O-])c1 (nonaromatic ring conformer: 66.40075801252024 kcal/mol)

>  <smiles>  (54) 
CC(=O)NS(=O)(=O)c1ccc(N2CCN(S(=O)(=O)c3ccccc3)CC2)c([N+](=O)[O-])c1

>  <score_type>  (54) 
oracle

>  <origin>  (54) 
adg

>  <m_score__min__energy>  (54) 
-10.130000000000001

>  <m_primary>  (54) 
energy

$$$$
54:0
     RDKit          3D

 35 37  0  0  0  0  0  0  0  0999 V2000
   61.5960   34.1430   48.7520 C   0  0  0  0  0  0  0  0  0  0  0  0
   60.3730   33.5110   49.3490 C   0  0  0  0  0  0  0  0  0  0  0  0
   59.6440   32.5650   48.6210 C   0  0  0  0  0  0  0  0  0  0  0  0
   58.5360   31.9400   49.1920 C   0  0  0  0  0  0  0  0  0  0  0  0
   58.1300   32.2500   50.5020 C   0  0  0  0  0  0  0  0  0  0  0  0
   57.0140   31.5540   51.0850 N   0  0  0  0  0  0  0  0  0  0  0  0
   57.1050   30.2290   51.6260 C   0  0  0  0  0  0  0  0  0  0  0  0
   58.1380   29.5330   51.4330 O   0  0  0  0  0  0  0  0  0  0  0  0
   55.9760   29.6780   52.3140 N   0  0  0  0  0  0  0  0  0  0  0  0
   54.6770   30.2730   52.4370 C   0  0  0  0  0  0  0  0  0  0  0  0
   54.0310   30.2310   53.6980 C   0  0  0  0  0  0  0  0  0  0  0  0
   52.7460   30.7790   53.8710 C   0  0  0  0  0  0  0  0  0  0  0  0
   52.1370   31.3480   52.7570 C   0  0  0  0  0  0  0  0  0  0  0  0
   50.9150   31.9440   52.5770 C   0  0  0  0  0  0  0  0  0  0  0  0
   50.8150   32.3080   51.2760 N   0  0  0  0  0  0  0  0  0  0  0  0
   51.9290   31.9620   50.6350 N   0  0  0  0  0  0  0  0  0  0  0  0
   52.7390   31.3780   51.5350 C   0  0  0  0  0  0  0  0  0  0  0  0
   54.0070   30.8450   51.3260 C   0  0  0  0  0  0  0  0  0  0  0  0
   58.8680   33.2010   51.2520 C   0  0  0  0  0  0  0  0  0  0  0  0
   58.4770   33.5470   52.6740 C   0  0  0  0  0  0  0  0  0  0  0  0
   58.7270   32.4970   53.5420 F   0  0  0  0  0  0  0  0  0  0  0  0
   57.1280   33.8440   52.7220 F   0  0  0  0  0  0  0  0  0  0  0  0
   59.2030   34.6410   53.1140 F   0  0  0  0  0  0  0  0  0  0  0  0
   59.9970   33.8070   50.6660 C   0  0  0  0  0  0  0  0  0  0  0  0
   62.2614   34.4869   49.5576 H   0  0  0  0  0  0  0  0  0  0  0  0
   62.1239   33.4048   48.1304 H   0  0  0  0  0  0  0  0  0  0  0  0
   61.2992   35.0006   48.1304 H   0  0  0  0  0  0  0  0  0  0  0  0
   59.9460   32.3130   47.5937 H   0  0  0  0  0  0  0  0  0  0  0  0
   57.9727   31.1953   48.6105 H   0  0  0  0  0  0  0  0  0  0  0  0
   56.0760   32.0130   51.0890 H   0  0  0  0  0  0  0  0  0  0  0  0
   54.5409   29.7637   54.5533 H   0  0  0  0  0  0  0  0  0  0  0  0
   52.2429   30.7582   54.8490 H   0  0  0  0  0  0  0  0  0  0  0  0
   50.1506   32.0992   53.3526 H   0  0  0  0  0  0  0  0  0  0  0  0
   54.4748   30.8666   50.3307 H   0  0  0  0  0  0  0  0  0  0  0  0
   60.5923   34.5233   51.2513 H   0  0  0  0  0  0  0  0  0  0  0  0
  1  2  1  0
  2  3  2  0
  3  4  1  0
  4  5  2  0
  5  6  1  0
  6  7  1  0
  7  8  2  0
  7  9  1  0
  9 10  1  0
 10 11  1  0
 11 12  2  0
 12 13  1  0
 13 14  2  0
 14 15  1  0
 15 16  1  0
 16 17  2  0
 17 18  1  0
  5 19  1  0
 19 20  1  0
 20 21  1  0
 20 22  1  0
 20 23  1  0
 19 24  2  0
 24  2  1  0
 18 10  2  0
 17 13  1  0
  1 25  1  0
  1 26  1  0
  1 27  1  0
  3 28  1  0
  4 29  1  0
  6 30  1  0
 11 31  1  0
 12 32  1  0
 14 33  1  0
 18 34  1  0
 24 35  1  0
M  CHG  2   9  -1  15  -1
M  END
>  <UniqueID>  (55) 
53

>  <SMILES>  (55) 
Cc1ccc(NC(=O)[N-]c2ccc3c[n-]nc3c2)c(C(F)(F)F)c1

>  <Energy>  (55) 
83.84748876192052

>  <Genealogy>  (55) 
Cc1ccc(NC(=O)[N-]c2ccc3c[n-]nc3c2)c(C(F)(F)F)c1 (protonated)
Cc1ccc(NC(=O)[N-]c2ccc3c[n-]nc3c2)c(C(F)(F)F)c1 (3D coordinates assigned)
Cc1ccc(NC(=O)[N-]c2ccc3c[n-]nc3c2)c(C(F)(F)F)c1 (optimized conformer: 83.84748876192052 kcal/mol)

>  <smiles>  (55) 
Cc1ccc(NC(=O)Nc2ccc3c[nH]nc3c2)c(C(F)(F)F)c1

>  <score_type>  (55) 
oracle

>  <origin>  (55) 
adg

>  <m_score__min__energy>  (55) 
-10.800000000000001

>  <m_primary>  (55) 
energy

$$$$
55:0
     RDKit          3D

 59 61  0  0  0  0  0  0  0  0999 V2000
   55.9070   21.9150   42.6280 O   0  0  0  0  0  0  0  0  0  0  0  0
   55.9190   22.8530   43.4690 C   0  0  0  0  0  0  0  0  0  0  0  0
   57.0640   23.6240   43.6430 C   0  0  0  0  0  0  0  0  0  0  0  0
   57.0380   24.6500   44.5860 C   0  0  0  0  0  0  0  0  0  0  0  0
   55.9120   24.8870   45.3260 N   0  0  0  0  0  0  0  0  0  0  0  0
   55.9110   25.9880   46.3040 C   0  0  0  0  0  0  0  0  0  0  0  0
   56.7730   27.1600   45.8190 C   0  0  0  0  0  0  0  0  0  0  0  0
   55.9470   28.2300   45.2540 N   0  0  0  0  0  0  0  0  0  0  0  0
   56.9200   29.5540   44.6810 S   0  0  0  0  0  0  0  0  0  0  0  0
   56.0980   30.8120   44.7000 O   0  0  0  0  0  0  0  0  0  0  0  0
   57.3610   29.2940   43.2670 O   0  0  0  0  0  0  0  0  0  0  0  0
   58.3200   29.7760   45.7270 C   0  0  0  0  0  0  0  0  0  0  0  0
   58.1730   29.8400   47.1180 C   0  0  0  0  0  0  0  0  0  0  0  0
   59.2910   30.0250   47.9370 C   0  0  0  0  0  0  0  0  0  0  0  0
   60.5760   30.1460   47.3690 C   0  0  0  0  0  0  0  0  0  0  0  0
   61.7350   30.3300   48.1410 O   0  0  0  0  0  0  0  0  0  0  0  0
   62.3450   31.5870   48.4410 C   0  0  0  0  0  0  0  0  0  0  0  0
   62.8190   32.2960   47.1650 C   0  0  0  0  0  0  0  0  0  0  0  0
   62.4140   33.7780   47.1530 C   0  0  0  0  0  0  0  0  0  0  0  0
   61.0010   34.0080   47.7470 C   0  0  0  0  0  0  0  0  0  0  0  0
   59.8870   33.7420   46.8110 N   0  0  0  0  0  0  0  0  0  0  0  0
   59.7210   34.7760   45.7740 C   0  0  0  0  0  0  0  0  0  0  0  0
   58.8350   34.2490   44.6310 C   0  0  0  0  0  0  0  0  0  0  0  0
   57.8160   33.1980   45.1070 C   0  0  0  0  0  0  0  0  0  0  0  0
   57.4000   33.4460   46.5590 C   0  0  0  0  0  0  0  0  0  0  0  0
   58.6200   33.3990   47.5020 C   0  0  0  0  0  0  0  0  0  0  0  0
   60.7130   30.0910   45.9780 C   0  0  0  0  0  0  0  0  0  0  0  0
   59.5940   29.9070   45.1590 C   0  0  0  0  0  0  0  0  0  0  0  0
   54.7940   24.1180   45.1230 C   0  0  0  0  0  0  0  0  0  0  0  0
   53.7390   24.3280   45.7800 O   0  0  0  0  0  0  0  0  0  0  0  0
   54.8110   23.1150   44.2060 N   0  0  0  0  0  0  0  0  0  0  0  0
   57.9694   23.4282   43.0497 H   0  0  0  0  0  0  0  0  0  0  0  0
   57.9308   25.2747   44.7366 H   0  0  0  0  0  0  0  0  0  0  0  0
   54.8784   26.3380   46.4495 H   0  0  0  0  0  0  0  0  0  0  0  0
   56.3304   25.6146   47.2499 H   0  0  0  0  0  0  0  0  0  0  0  0
   57.3451   27.5599   46.6691 H   0  0  0  0  0  0  0  0  0  0  0  0
   57.4494   26.7919   45.0335 H   0  0  0  0  0  0  0  0  0  0  0  0
   57.1739   29.7443   47.5682 H   0  0  0  0  0  0  0  0  0  0  0  0
   59.1677   30.0764   49.0289 H   0  0  0  0  0  0  0  0  0  0  0  0
   61.6129   32.2268   48.9554 H   0  0  0  0  0  0  0  0  0  0  0  0
   63.2202   31.4039   49.0817 H   0  0  0  0  0  0  0  0  0  0  0  0
   63.9151   32.2257   47.1046 H   0  0  0  0  0  0  0  0  0  0  0  0
   62.3438   31.8042   46.3034 H   0  0  0  0  0  0  0  0  0  0  0  0
   63.1439   34.3487   47.7459 H   0  0  0  0  0  0  0  0  0  0  0  0
   62.3966   34.1130   46.1054 H   0  0  0  0  0  0  0  0  0  0  0  0
   60.8830   33.3457   48.6173 H   0  0  0  0  0  0  0  0  0  0  0  0
   60.9421   35.0757   48.0051 H   0  0  0  0  0  0  0  0  0  0  0  0
   59.2487   35.6640   46.2193 H   0  0  0  0  0  0  0  0  0  0  0  0
   60.7094   35.0382   45.3687 H   0  0  0  0  0  0  0  0  0  0  0  0
   58.2880   35.0956   44.1905 H   0  0  0  0  0  0  0  0  0  0  0  0
   59.4940   33.7643   43.8956 H   0  0  0  0  0  0  0  0  0  0  0  0
   56.9240   33.2470   44.4651 H   0  0  0  0  0  0  0  0  0  0  0  0
   58.2856   32.2052   45.0446 H   0  0  0  0  0  0  0  0  0  0  0  0
   56.9267   34.4362   46.6330 H   0  0  0  0  0  0  0  0  0  0  0  0
   56.6951   32.6571   46.8601 H   0  0  0  0  0  0  0  0  0  0  0  0
   58.4601   34.1154   48.3213 H   0  0  0  0  0  0  0  0  0  0  0  0
   58.7126   32.3690   47.8769 H   0  0  0  0  0  0  0  0  0  0  0  0
   61.7097   30.1934   45.5241 H   0  0  0  0  0  0  0  0  0  0  0  0
   59.7146   29.8651   44.0664 H   0  0  0  0  0  0  0  0  0  0  0  0
  1  2  2  0
  2  3  1  0
  3  4  2  0
  4  5  1  0
  5  6  1  0
  6  7  1  0
  7  8  1  0
  8  9  1  0
  9 10  2  0
  9 11  2  0
  9 12  1  0
 12 13  2  0
 13 14  1  0
 14 15  2  0
 15 16  1  0
 16 17  1  0
 17 18  1  0
 18 19  1  0
 19 20  1  0
 20 21  1  0
 21 22  1  0
 22 23  1  0
 23 24  1  0
 24 25  1  0
 25 26  1  0
 15 27  1  0
 27 28  2  0
  5 29  1  0
 29 30  2  0
 29 31  1  0
 31  2  1  0
 28 12  1  0
 26 21  1  0
  3 32  1  0
  4 33  1  0
  6 34  1  0
  6 35  1  0
  7 36  1  0
  7 37  1  0
 13 38  1  0
 14 39  1  0
 17 40  1  0
 17 41  1  0
 18 42  1  0
 18 43  1  0
 19 44  1  0
 19 45  1  0
 20 46  1  0
 20 47  1  0
 22 48  1  0
 22 49  1  0
 23 50  1  0
 23 51  1  0
 24 52  1  0
 24 53  1  0
 25 54  1  0
 25 55  1  0
 26 56  1  0
 26 57  1  0
 27 58  1  0
 28 59  1  0
M  CHG  2   8  -1  31  -1
M  END
>  <UniqueID>  (56) 
54

>  <SMILES>  (56) 
O=c1ccn(CC[N-]S(=O)(=O)c2ccc(OCCCCN3CCCCC3)cc2)c(=O)[n-]1

>  <Energy>  (56) 
65.67643658447375

>  <Genealogy>  (56) 
O=c1ccn(CC[N-]S(=O)(=O)c2ccc(OCCCCN3CCCCC3)cc2)c(=O)[n-]1 (protonated)
O=c1ccn(CC[N-]S(=O)(=O)c2ccc(OCCCCN3CCCCC3)cc2)c(=O)[n-]1 (3D coordinates assigned)
O=c1ccn(CC[N-]S(=O)(=O)c2ccc(OCCCCN3CCCCC3)cc2)c(=O)[n-]1 (nonaromatic ring conformer: 65.67643658447375 kcal/mol)

>  <smiles>  (56) 
O=c1ccn(CCNS(=O)(=O)c2ccc(OCCCCN3CCCCC3)cc2)c(=O)[nH]1

>  <score_type>  (56) 
oracle

>  <origin>  (56) 
adg

>  <m_score__min__energy>  (56) 
-13.109999999999999

>  <m_primary>  (56) 
energy

$$$$
56:0
     RDKit          3D

 56 59  0  0  0  0  0  0  0  0999 V2000
   54.5120   26.0930   45.9450 N   0  0  0  0  0  0  0  0  0  0  0  0
   56.1830   25.6560   46.0710 S   0  0  0  0  0  0  0  0  0  0  0  0
   56.5100   24.6440   45.0100 O   0  0  0  0  0  0  0  0  0  0  0  0
   56.4290   25.0600   47.4290 O   0  0  0  0  0  0  0  0  0  0  0  0
   57.2070   27.0730   45.8580 C   0  0  0  0  0  0  0  0  0  0  0  0
   58.5250   27.0590   46.3330 C   0  0  0  0  0  0  0  0  0  0  0  0
   59.3400   28.1820   46.1730 C   0  0  0  0  0  0  0  0  0  0  0  0
   58.8410   29.3300   45.5510 C   0  0  0  0  0  0  0  0  0  0  0  0
   57.5160   29.3650   45.0840 C   0  0  0  0  0  0  0  0  0  0  0  0
   56.9730   30.5990   44.4690 C   0  0  0  0  0  0  0  0  0  0  0  0
   56.6680   30.6000   43.2460 O   0  0  0  0  0  0  0  0  0  0  0  0
   56.7490   31.7910   45.2360 N   0  0  0  0  0  0  0  0  0  0  0  0
   57.7430   32.7810   45.5400 C   0  0  0  0  0  0  0  0  0  0  0  0
   58.1000   33.7110   44.5580 C   0  0  0  0  0  0  0  0  0  0  0  0
   59.0280   34.7150   44.8450 C   0  0  0  0  0  0  0  0  0  0  0  0
   59.6140   34.7880   46.1100 C   0  0  0  0  0  0  0  0  0  0  0  0
   59.2880   33.8460   47.0980 C   0  0  0  0  0  0  0  0  0  0  0  0
   59.9260   33.9040   48.4320 C   0  0  0  0  0  0  0  0  0  0  0  0
   60.6960   34.8650   48.7080 O   0  0  0  0  0  0  0  0  0  0  0  0
   59.6730   32.8930   49.4220 N   0  0  0  0  0  0  0  0  0  0  0  0
   59.4470   33.2990   50.8150 C   0  0  0  0  0  0  0  0  0  0  0  0
   59.2660   32.0830   51.7330 C   0  0  0  0  0  0  0  0  0  0  0  0
   58.3970   31.0930   51.0840 N   0  0  0  0  0  0  0  0  0  0  0  0
   57.2500   30.5640   51.7740 C   0  0  0  0  0  0  0  0  0  0  0  0
   57.3680   29.4090   52.5660 C   0  0  0  0  0  0  0  0  0  0  0  0
   56.2570   28.9040   53.2500 C   0  0  0  0  0  0  0  0  0  0  0  0
   55.0220   29.5500   53.1530 C   0  0  0  0  0  0  0  0  0  0  0  0
   54.8960   30.7020   52.3710 C   0  0  0  0  0  0  0  0  0  0  0  0
   56.0040   31.2090   51.6860 C   0  0  0  0  0  0  0  0  0  0  0  0
   58.6820   30.6580   49.7080 C   0  0  0  0  0  0  0  0  0  0  0  0
   59.8190   31.4720   49.0810 C   0  0  0  0  0  0  0  0  0  0  0  0
   58.3650   32.8310   46.8000 C   0  0  0  0  0  0  0  0  0  0  0  0
   56.7150   28.2160   45.2150 C   0  0  0  0  0  0  0  0  0  0  0  0
   54.4100   26.6790   45.0880 H   0  0  0  0  0  0  0  0  0  0  0  0
   54.2940   26.7090   46.7600 H   0  0  0  0  0  0  0  0  0  0  0  0
   58.9188   26.1618   46.8330 H   0  0  0  0  0  0  0  0  0  0  0  0
   60.3776   28.1629   46.5376 H   0  0  0  0  0  0  0  0  0  0  0  0
   59.4886   30.2104   45.4264 H   0  0  0  0  0  0  0  0  0  0  0  0
   57.6486   33.6516   43.5566 H   0  0  0  0  0  0  0  0  0  0  0  0
   59.2977   35.4499   44.0723 H   0  0  0  0  0  0  0  0  0  0  0  0
   60.3351   35.5881   46.3336 H   0  0  0  0  0  0  0  0  0  0  0  0
   60.3122   33.8831   51.1619 H   0  0  0  0  0  0  0  0  0  0  0  0
   58.5271   33.9008   50.8541 H   0  0  0  0  0  0  0  0  0  0  0  0
   60.2475   31.6297   51.9360 H   0  0  0  0  0  0  0  0  0  0  0  0
   58.8042   32.4071   52.6773 H   0  0  0  0  0  0  0  0  0  0  0  0
   58.3393   28.8993   52.6485 H   0  0  0  0  0  0  0  0  0  0  0  0
   56.3559   27.9973   53.8649 H   0  0  0  0  0  0  0  0  0  0  0  0
   54.1492   29.1524   53.6917 H   0  0  0  0  0  0  0  0  0  0  0  0
   53.9234   31.2102   52.2946 H   0  0  0  0  0  0  0  0  0  0  0  0
   55.9004   32.1176   51.0748 H   0  0  0  0  0  0  0  0  0  0  0  0
   58.9692   29.5962   49.7219 H   0  0  0  0  0  0  0  0  0  0  0  0
   57.7756   30.8130   49.1044 H   0  0  0  0  0  0  0  0  0  0  0  0
   60.7828   31.1039   49.4626 H   0  0  0  0  0  0  0  0  0  0  0  0
   59.7805   31.3594   47.9875 H   0  0  0  0  0  0  0  0  0  0  0  0
   58.1268   32.0697   47.5574 H   0  0  0  0  0  0  0  0  0  0  0  0
   55.6928   28.2152   44.8087 H   0  0  0  0  0  0  0  0  0  0  0  0
  1  2  1  0
  2  3  2  0
  2  4  2  0
  2  5  1  0
  5  6  2  0
  6  7  1  0
  7  8  2  0
  8  9  1  0
  9 10  1  0
 10 11  2  0
 10 12  1  0
 12 13  1  0
 13 14  2  0
 14 15  1  0
 15 16  2  0
 16 17  1  0
 17 18  1  0
 18 19  2  0
 18 20  1  0
 20 21  1  0
 21 22  1  0
 22 23  1  0
 23 24  1  0
 24 25  2  0
 25 26  1  0
 26 27  2  0
 27 28  1  0
 28 29  2  0
 23 30  1  0
 30 31  1  0
 17 32  2  0
  9 33  2  0
 33  5  1  0
 32 13  1  0
 31 20  1  0
 29 24  1  0
  1 34  1  0
  1 35  1  0
  6 36  1  0
  7 37  1  0
  8 38  1  0
 14 39  1  0
 15 40  1  0
 16 41  1  0
 21 42  1  0
 21 43  1  0
 22 44  1  0
 22 45  1  0
 25 46  1  0
 26 47  1  0
 27 48  1  0
 28 49  1  0
 29 50  1  0
 30 51  1  0
 30 52  1  0
 31 53  1  0
 31 54  1  0
 32 55  1  0
 33 56  1  0
M  CHG  1  12  -1
M  END
>  <UniqueID>  (57) 
55

>  <SMILES>  (57) 
NS(=O)(=O)c1cccc(C(=O)[N-]c2cccc(C(=O)N3CCN(c4ccccc4)CC3)c2)c1

>  <Energy>  (57) 
72.63084679742599

>  <Genealogy>  (57) 
NS(=O)(=O)c1cccc(C(=O)[N-]c2cccc(C(=O)N3CCN(c4ccccc4)CC3)c2)c1 (protonated)
NS(=O)(=O)c1cccc(C(=O)[N-]c2cccc(C(=O)N3CCN(c4ccccc4)CC3)c2)c1 (3D coordinates assigned)
NS(=O)(=O)c1cccc(C(=O)[N-]c2cccc(C(=O)N3CCN(c4ccccc4)CC3)c2)c1 (nonaromatic ring conformer: 72.63084679742599 kcal/mol)

>  <smiles>  (57) 
NS(=O)(=O)c1cccc(C(=O)Nc2cccc(C(=O)N3CCN(c4ccccc4)CC3)c2)c1

>  <score_type>  (57) 
oracle

>  <origin>  (57) 
adg

>  <m_score__min__energy>  (57) 
-11.76

>  <m_primary>  (57) 
energy

$$$$
57:0
     RDKit          3D

 38 40  0  0  0  0  0  0  0  0999 V2000
   60.7120   28.0100   45.2980 C   0  0  0  0  0  0  0  0  0  0  0  0
   59.4100   28.7250   45.0710 C   0  0  0  0  0  0  0  0  0  0  0  0
   59.2960   30.0970   45.3170 C   0  0  0  0  0  0  0  0  0  0  0  0
   58.1070   30.7420   45.1380 N   0  0  0  0  0  0  0  0  0  0  0  0
   58.0390   32.1600   45.3990 C   0  0  0  0  0  0  0  0  0  0  0  0
   58.4700   33.0510   44.5010 C   0  0  0  0  0  0  0  0  0  0  0  0
   58.3000   34.5160   44.7860 C   0  0  0  0  0  0  0  0  0  0  0  0
   58.6400   34.8470   46.1910 N   0  0  0  0  0  0  0  0  0  0  0  0
   60.0170   35.3560   46.3700 C   0  0  0  0  0  0  0  0  0  0  0  0
   60.9380   34.3650   47.0320 C   0  0  0  0  0  0  0  0  0  0  0  0
   61.8350   33.5240   46.3820 C   0  0  0  0  0  0  0  0  0  0  0  0
   62.5790   32.7260   47.2580 C   0  0  0  0  0  0  0  0  0  0  0  0
   62.2800   32.9360   48.5970 C   0  0  0  0  0  0  0  0  0  0  0  0
   61.0860   34.1160   48.6910 S   0  0  0  0  0  0  0  0  0  0  0  0
   58.2340   33.8500   47.2210 C   0  0  0  0  0  0  0  0  0  0  0  0
   57.4050   32.6800   46.6600 C   0  0  0  0  0  0  0  0  0  0  0  0
   57.0090   30.0430   44.7050 C   0  0  0  0  0  0  0  0  0  0  0  0
   55.9120   30.6300   44.5020 O   0  0  0  0  0  0  0  0  0  0  0  0
   57.0970   28.7040   44.4760 N   0  0  0  0  0  0  0  0  0  0  0  0
   58.2660   28.0330   44.6520 C   0  0  0  0  0  0  0  0  0  0  0  0
   58.3120   26.7910   44.4380 O   0  0  0  0  0  0  0  0  0  0  0  0
   60.8924   27.9109   46.3786 H   0  0  0  0  0  0  0  0  0  0  0  0
   60.6661   27.0106   44.8408 H   0  0  0  0  0  0  0  0  0  0  0  0
   61.5307   28.5851   44.8408 H   0  0  0  0  0  0  0  0  0  0  0  0
   60.1752   30.6628   45.6588 H   0  0  0  0  0  0  0  0  0  0  0  0
   58.9428   32.7161   43.5659 H   0  0  0  0  0  0  0  0  0  0  0  0
   58.9589   35.0878   44.1161 H   0  0  0  0  0  0  0  0  0  0  0  0
   57.2443   34.7764   44.6193 H   0  0  0  0  0  0  0  0  0  0  0  0
   60.4275   35.6072   45.3809 H   0  0  0  0  0  0  0  0  0  0  0  0
   59.9561   36.2344   47.0293 H   0  0  0  0  0  0  0  0  0  0  0  0
   61.9482   33.4896   45.2884 H   0  0  0  0  0  0  0  0  0  0  0  0
   63.3312   31.9995   46.9170 H   0  0  0  0  0  0  0  0  0  0  0  0
   62.7443   32.4193   49.4499 H   0  0  0  0  0  0  0  0  0  0  0  0
   59.1435   33.4399   47.6843 H   0  0  0  0  0  0  0  0  0  0  0  0
   57.5949   34.3781   47.9439 H   0  0  0  0  0  0  0  0  0  0  0  0
   57.3622   31.8729   47.4061 H   0  0  0  0  0  0  0  0  0  0  0  0
   56.3879   33.0330   46.4344 H   0  0  0  0  0  0  0  0  0  0  0  0
   56.2510   28.1820   44.1520 H   0  0  0  0  0  0  0  0  0  0  0  0
  1  2  1  0
  2  3  2  0
  3  4  1  0
  4  5  1  0
  5  6  2  0
  6  7  1  0
  7  8  1  0
  8  9  1  0
  9 10  1  0
 10 11  2  0
 11 12  1  0
 12 13  2  0
 13 14  1  0
  8 15  1  0
 15 16  1  0
  4 17  1  0
 17 18  2  0
 17 19  1  0
 19 20  1  0
 20 21  2  0
 20  2  1  0
 16  5  1  0
 14 10  1  0
  1 22  1  0
  1 23  1  0
  1 24  1  0
  3 25  1  0
  6 26  1  0
  7 27  1  0
  7 28  1  0
  9 29  1  0
  9 30  1  0
 11 31  1  0
 12 32  1  0
 13 33  1  0
 15 34  1  0
 15 35  1  0
 16 36  1  0
 16 37  1  0
 19 38  1  0
M  END
>  <UniqueID>  (58) 
56

>  <SMILES>  (58) 
Cc1cn(C2=CCN(Cc3cccs3)CC2)c(=O)[nH]c1=O

>  <Energy>  (58) 
81.92025896988437

>  <Genealogy>  (58) 
Cc1cn(C2=CCN(Cc3cccs3)CC2)c(=O)[nH]c1=O (3D coordinates assigned)
Cc1cn(C2=CCN(Cc3cccs3)CC2)c(=O)[nH]c1=O (nonaromatic ring conformer: 81.92025896988437 kcal/mol)

>  <smiles>  (58) 
Cc1cn(C2=CCN(Cc3cccs3)CC2)c(=O)[nH]c1=O

>  <score_type>  (58) 
oracle

>  <origin>  (58) 
adg

>  <m_score__min__energy>  (58) 
-7.6500000000000004

>  <m_primary>  (58) 
energy

$$$$
58:0
     RDKit          3D

 41 45  0  0  0  0  0  0  0  0999 V2000
   52.9472   31.9162   53.1804 H   0  0  0  0  0  0  0  0  0  0  0  0
   53.1570   31.2060   52.3670 C   0  0  0  0  0  0  0  0  0  0  0  0
   52.2350   31.1770   51.2270 C   0  0  0  0  0  0  0  0  0  0  0  0
   52.3070   30.2750   50.2320 N   0  0  0  0  0  0  0  0  0  0  0  0
   51.3930   30.7210   49.3430 C   0  0  0  0  0  0  0  0  0  0  0  0
   51.1480   30.1210   48.2640 O   0  0  0  0  0  0  0  0  0  0  0  0
   50.7730   31.8670   49.6930 N   0  0  0  0  0  0  0  0  0  0  0  0
   51.3240   32.1480   50.8850 C   0  0  0  0  0  0  0  0  0  0  0  0
   51.0330   33.2880   51.6230 O   0  0  0  0  0  0  0  0  0  0  0  0
   54.2390   30.4230   52.4820 C   0  0  0  0  0  0  0  0  0  0  0  0
   54.2440   29.1280   52.9820 C   0  0  0  0  0  0  0  0  0  0  0  0
   53.3544   28.5659   53.3025 H   0  0  0  0  0  0  0  0  0  0  0  0
   55.5130   28.6670   53.0130 N   0  0  0  0  0  0  0  0  0  0  0  0
   55.7760   27.7450   53.4110 H   0  0  0  0  0  0  0  0  0  0  0  0
   56.3210   29.6180   52.5580 N   0  0  0  0  0  0  0  0  0  0  0  0
   57.6900   29.6700   52.4990 C   0  0  0  0  0  0  0  0  0  0  0  0
   58.4790   28.6550   52.7180 N   0  0  0  0  0  0  0  0  0  0  0  0
   59.9350   28.6000   52.7040 C   0  0  0  0  0  0  0  0  0  0  0  0
   60.1123   28.9327   53.7374 H   0  0  0  0  0  0  0  0  0  0  0  0
   60.4460   27.4890   51.8050 C   0  0  0  0  0  0  0  0  0  0  0  0
   61.3496   26.9273   52.0843 H   0  0  0  0  0  0  0  0  0  0  0  0
   60.0110   26.5751   51.3741 H   0  0  0  0  0  0  0  0  0  0  0  0
   60.5590   28.9370   51.3610 C   0  0  0  0  0  0  0  0  0  0  0  0
   61.5443   29.4242   51.3190 H   0  0  0  0  0  0  0  0  0  0  0  0
   60.2398   29.5065   50.4757 H   0  0  0  0  0  0  0  0  0  0  0  0
   58.2620   30.8580   52.1660 N   0  0  0  0  0  0  0  0  0  0  0  0
   57.5110   31.9580   51.8740 C   0  0  0  0  0  0  0  0  0  0  0  0
   58.1170   33.0810   51.6270 N   0  0  0  0  0  0  0  0  0  0  0  0
   59.3380   33.2400   50.8920 C   0  0  0  0  0  0  0  0  0  0  0  0
   60.5730   33.3360   51.5500 C   0  0  0  0  0  0  0  0  0  0  0  0
   60.6221   33.2304   52.6438 H   0  0  0  0  0  0  0  0  0  0  0  0
   61.7430   33.5660   50.8170 C   0  0  0  0  0  0  0  0  0  0  0  0
   62.7102   33.6390   51.3358 H   0  0  0  0  0  0  0  0  0  0  0  0
   61.6850   33.7030   49.4280 C   0  0  0  0  0  0  0  0  0  0  0  0
   62.8220   33.9200   48.7210 F   0  0  0  0  0  0  0  0  0  0  0  0
   60.4520   33.6330   48.7710 C   0  0  0  0  0  0  0  0  0  0  0  0
   60.3890   33.7830   47.4240 F   0  0  0  0  0  0  0  0  0  0  0  0
   59.2800   33.4160   49.5030 C   0  0  0  0  0  0  0  0  0  0  0  0
   58.3094   33.3834   48.9865 H   0  0  0  0  0  0  0  0  0  0  0  0
   56.1480   31.8790   51.9100 N   0  0  0  0  0  0  0  0  0  0  0  0
   55.5780   30.6930   52.2380 C   0  0  0  0  0  0  0  0  0  0  0  0
  1  2  1  0
  2  3  1  0
  3  4  1  0
  4  5  1  0
  5  6  2  0
  5  7  1  0
  7  8  1  0
  8  9  1  0
  2 10  2  3
 10 11  1  0
 11 12  1  0
 11 13  2  0
 13 14  1  0
 13 15  1  0
 15 16  1  0
 16 17  2  0
 17 18  1  0
 18 19  1  0
 18 20  1  0
 20 21  1  0
 20 22  1  0
 20 23  1  0
 23 24  1  0
 23 25  1  0
 16 26  1  0
 26 27  1  0
 27 28  2  3
 28 29  1  0
 29 30  2  0
 30 31  1  0
 30 32  1  0
 32 33  1  0
 32 34  2  0
 34 35  1  0
 34 36  1  0
 36 37  1  0
 36 38  2  0
 38 39  1  0
 27 40  1  0
 40 41  2  0
  8  3  2  0
 41 10  1  0
 41 15  1  0
 23 18  1  0
 38 29  1  0
M  CHG  5   4  -1   7  -1   9  -1  13   1  26  -1
M  END
>  <UniqueID>  (59) 
57

>  <SMILES>  (59) 
O=c1[n-]c([O-])c(C=c2c[nH+]n3/c(=N\C4CC4)[n-]c(=Nc4ccc(F)c(F)c4)nc23)[n-]1

>  <Energy>  (59) 
400.08541594375356

>  <Genealogy>  (59) 
O=c1[n-]c([O-])c(C=c2c[nH+]n3c(=NC4CC4)[n-]c(=Nc4ccc(F)c(F)c4)nc23)[n-]1 (protonated)
O=c1[n-]c([O-])c(C=c2c[nH+]n3/c(=N\C4CC4)[n-]c(=Nc4ccc(F)c(F)c4)nc23)[n-]1 (cis-trans isomerization)
O=c1[n-]c([O-])c(C=c2c[nH+]n3/c(=N\C4CC4)[n-]c(=Nc4ccc(F)c(F)c4)nc23)[n-]1 (3D coordinates assigned)
O=c1[n-]c([O-])c(C=c2c[nH+]n3/c(=N\C4CC4)[n-]c(=Nc4ccc(F)c(F)c4)nc23)[n-]1 (nonaromatic ring conformer: 400.08541594375356 kcal/mol)

>  <smiles>  (59) 
O=c1[nH]c(O)c(C=c2cnn3c(=NC4CC4)[nH]c(=Nc4ccc(F)c(F)c4)nc23)[nH]1

>  <score_type>  (59) 
oracle

>  <origin>  (59) 
adg

>  <m_score__min__energy>  (59) 
-15.890000000000001

>  <m_primary>  (59) 
energy

$$$$
59:0
     RDKit          3D

 37 39  0  0  0  0  0  0  0  0999 V2000
   58.5750   28.5870   47.3600 C   0  0  0  0  0  0  0  0  0  0  0  0
   57.4920   28.0800   46.5900 O   0  0  0  0  0  0  0  0  0  0  0  0
   57.6240   27.3900   45.3730 C   0  0  0  0  0  0  0  0  0  0  0  0
   57.3950   26.0030   45.2780 C   0  0  0  0  0  0  0  0  0  0  0  0
   57.4780   25.3410   44.0400 C   0  0  0  0  0  0  0  0  0  0  0  0
   57.2380   23.9220   43.9490 N   0  0  0  0  0  0  0  0  0  0  0  0
   56.5220   23.2720   43.0120 C   0  0  0  0  0  0  0  0  0  0  0  0
   56.5540   21.9280   43.3040 C   0  0  0  0  0  0  0  0  0  0  0  0
   57.2820   21.7240   44.4200 N   0  0  0  0  0  0  0  0  0  0  0  0
   57.6840   22.9590   44.7850 C   0  0  0  0  0  0  0  0  0  0  0  0
   57.7880   26.0870   42.8910 C   0  0  0  0  0  0  0  0  0  0  0  0
   58.0230   27.4600   42.9780 C   0  0  0  0  0  0  0  0  0  0  0  0
   57.9700   28.1130   44.2150 C   0  0  0  0  0  0  0  0  0  0  0  0
   58.2080   29.5280   44.2670 N   0  0  0  0  0  0  0  0  0  0  0  0
   57.1480   30.4930   44.2980 C   0  0  0  0  0  0  0  0  0  0  0  0
   55.9940   30.1590   44.6770 O   0  0  0  0  0  0  0  0  0  0  0  0
   57.3920   31.8870   43.8170 C   0  0  0  0  0  0  0  0  0  0  0  0
   57.8550   32.7290   44.9620 C   0  0  0  0  0  0  0  0  0  0  0  0
   58.2600   34.0560   44.8830 C   0  0  0  0  0  0  0  0  0  0  0  0
   58.7620   34.5510   46.0920 C   0  0  0  0  0  0  0  0  0  0  0  0
   58.7690   33.6150   47.1180 C   0  0  0  0  0  0  0  0  0  0  0  0
   58.1570   32.1670   46.5190 S   0  0  0  0  0  0  0  0  0  0  0  0
   58.3457   28.4797   48.4305 H   0  0  0  0  0  0  0  0  0  0  0  0
   59.4893   28.0233   47.1225 H   0  0  0  0  0  0  0  0  0  0  0  0
   58.7277   29.6502   47.1225 H   0  0  0  0  0  0  0  0  0  0  0  0
   57.1480   25.4304   46.1842 H   0  0  0  0  0  0  0  0  0  0  0  0
   56.0017   23.7353   42.1607 H   0  0  0  0  0  0  0  0  0  0  0  0
   56.0606   21.1399   42.7163 H   0  0  0  0  0  0  0  0  0  0  0  0
   58.3079   23.1602   45.6683 H   0  0  0  0  0  0  0  0  0  0  0  0
   57.8461   25.5847   41.9141 H   0  0  0  0  0  0  0  0  0  0  0  0
   58.2516   28.0334   42.0675 H   0  0  0  0  0  0  0  0  0  0  0  0
   59.1950   29.8650   44.3440 H   0  0  0  0  0  0  0  0  0  0  0  0
   58.1636   31.8758   43.0331 H   0  0  0  0  0  0  0  0  0  0  0  0
   56.4610   32.3037   43.4051 H   0  0  0  0  0  0  0  0  0  0  0  0
   58.1928   34.6563   43.9637 H   0  0  0  0  0  0  0  0  0  0  0  0
   59.1176   35.5843   46.2178 H   0  0  0  0  0  0  0  0  0  0  0  0
   59.1157   33.7906   48.1471 H   0  0  0  0  0  0  0  0  0  0  0  0
  1  2  1  0
  2  3  1  0
  3  4  2  0
  4  5  1  0
  5  6  1  0
  6  7  1  0
  7  8  2  0
  8  9  1  0
  9 10  2  0
  5 11  2  0
 11 12  1  0
 12 13  2  0
 13 14  1  0
 14 15  1  0
 15 16  2  0
 15 17  1  0
 17 18  1  0
 18 19  2  0
 19 20  1  0
 20 21  2  0
 21 22  1  0
 13  3  1  0
 22 18  1  0
 10  6  1  0
  1 23  1  0
  1 24  1  0
  1 25  1  0
  4 26  1  0
  7 27  1  0
  8 28  1  0
 10 29  1  0
 11 30  1  0
 12 31  1  0
 14 32  1  0
 17 33  1  0
 17 34  1  0
 19 35  1  0
 20 36  1  0
 21 37  1  0
M  END
>  <UniqueID>  (60) 
58

>  <SMILES>  (60) 
COc1cc(-n2ccnc2)ccc1NC(=O)Cc1cccs1

>  <Energy>  (60) 
98.31897288388869

>  <Genealogy>  (60) 
COc1cc(-n2ccnc2)ccc1NC(=O)Cc1cccs1 (3D coordinates assigned)
COc1cc(-n2ccnc2)ccc1NC(=O)Cc1cccs1 (optimized conformer: 98.31897288388869 kcal/mol)

>  <smiles>  (60) 
COc1cc(-n2ccnc2)ccc1NC(=O)Cc1cccs1

>  <score_type>  (60) 
oracle

>  <origin>  (60) 
adg

>  <m_score__min__energy>  (60) 
-7.6399999999999997

>  <m_primary>  (60) 
energy

$$$$
60:0
     RDKit          3D

 43 45  0  0  0  0  0  0  0  0999 V2000
   59.9840   34.5500   46.6810 C   0  0  0  0  0  0  0  0  0  0  0  0
   61.0020   33.8430   47.5700 C   0  0  0  0  0  0  0  0  0  0  0  0
   60.3320   32.8240   48.4470 C   0  0  0  0  0  0  0  0  0  0  0  0
   59.3070   33.2030   49.7260 S   0  0  0  0  0  0  0  0  0  0  0  0
   58.9600   31.5910   50.0850 C   0  0  0  0  0  0  0  0  0  0  0  0
   58.0700   31.1190   51.1690 C   0  0  0  0  0  0  0  0  0  0  0  0
   58.2390   29.8440   51.7420 C   0  0  0  0  0  0  0  0  0  0  0  0
   57.3870   29.4070   52.7610 C   0  0  0  0  0  0  0  0  0  0  0  0
   56.3600   30.2360   53.2200 C   0  0  0  0  0  0  0  0  0  0  0  0
   55.2900   29.6840   54.4960 Cl  0  0  0  0  0  0  0  0  0  0  0  0
   56.1830   31.5030   52.6590 C   0  0  0  0  0  0  0  0  0  0  0  0
   57.0310   31.9440   51.6390 C   0  0  0  0  0  0  0  0  0  0  0  0
   59.6090   30.7610   49.2370 N   0  0  0  0  0  0  0  0  0  0  0  0
   60.3740   31.4290   48.3290 C   0  0  0  0  0  0  0  0  0  0  0  0
   61.1530   30.6880   47.2800 C   0  0  0  0  0  0  0  0  0  0  0  0
   60.2890   30.3140   46.1600 N   0  0  0  0  0  0  0  0  0  0  0  0
   59.3620   29.2130   46.2120 C   0  0  0  0  0  0  0  0  0  0  0  0
   59.3380   28.3150   47.2960 C   0  0  0  0  0  0  0  0  0  0  0  0
   58.4290   27.2540   47.3130 C   0  0  0  0  0  0  0  0  0  0  0  0
   57.5270   27.0770   46.2570 C   0  0  0  0  0  0  0  0  0  0  0  0
   56.3980   25.7270   46.2660 S   0  0  0  0  0  0  0  0  0  0  0  0
   54.7950   26.3130   46.0030 N   0  0  0  0  0  0  0  0  0  0  0  0
   56.4640   25.0170   47.5890 O   0  0  0  0  0  0  0  0  0  0  0  0
   56.7560   24.7530   45.1780 O   0  0  0  0  0  0  0  0  0  0  0  0
   57.5460   27.9650   45.1760 C   0  0  0  0  0  0  0  0  0  0  0  0
   58.4550   29.0280   45.1560 C   0  0  0  0  0  0  0  0  0  0  0  0
   59.2428   35.0648   47.3100 H   0  0  0  0  0  0  0  0  0  0  0  0
   60.4998   35.2852   46.0459 H   0  0  0  0  0  0  0  0  0  0  0  0
   59.4752   33.8099   46.0459 H   0  0  0  0  0  0  0  0  0  0  0  0
   61.7455   33.3387   46.9353 H   0  0  0  0  0  0  0  0  0  0  0  0
   61.4890   34.5925   48.2112 H   0  0  0  0  0  0  0  0  0  0  0  0
   59.0465   29.1875   51.3857 H   0  0  0  0  0  0  0  0  0  0  0  0
   57.5255   28.4089   53.2021 H   0  0  0  0  0  0  0  0  0  0  0  0
   55.3744   32.1552   53.0207 H   0  0  0  0  0  0  0  0  0  0  0  0
   56.8853   32.9424   51.2008 H   0  0  0  0  0  0  0  0  0  0  0  0
   61.9641   31.3325   46.9104 H   0  0  0  0  0  0  0  0  0  0  0  0
   61.5662   29.7724   47.7282 H   0  0  0  0  0  0  0  0  0  0  0  0
   60.3470   30.8670   45.2730 H   0  0  0  0  0  0  0  0  0  0  0  0
   60.0383   28.4493   48.1336 H   0  0  0  0  0  0  0  0  0  0  0  0
   58.4220   26.5536   48.1612 H   0  0  0  0  0  0  0  0  0  0  0  0
   54.7710   26.7150   45.0400 H   0  0  0  0  0  0  0  0  0  0  0  0
   56.8446   27.8269   44.3400 H   0  0  0  0  0  0  0  0  0  0  0  0
   58.4594   29.7254   44.3053 H   0  0  0  0  0  0  0  0  0  0  0  0
  1  2  1  0
  2  3  1  0
  3  4  1  0
  4  5  1  0
  5  6  1  0
  6  7  2  0
  7  8  1  0
  8  9  2  0
  9 10  1  0
  9 11  1  0
 11 12  2  0
  5 13  2  0
 13 14  1  0
 14 15  1  0
 15 16  1  0
 16 17  1  0
 17 18  2  0
 18 19  1  0
 19 20  2  0
 20 21  1  0
 21 22  1  0
 21 23  2  0
 21 24  2  0
 20 25  1  0
 25 26  2  0
 14  3  2  0
 26 17  1  0
 12  6  1  0
  1 27  1  0
  1 28  1  0
  1 29  1  0
  2 30  1  0
  2 31  1  0
  7 32  1  0
  8 33  1  0
 11 34  1  0
 12 35  1  0
 15 36  1  0
 15 37  1  0
 16 38  1  0
 18 39  1  0
 19 40  1  0
 22 41  1  0
 25 42  1  0
 26 43  1  0
M  CHG  1  22  -1
M  END
>  <UniqueID>  (61) 
59

>  <SMILES>  (61) 
CCc1sc(-c2ccc(Cl)cc2)nc1CNc1ccc(S([NH-])(=O)=O)cc1

>  <Energy>  (61) 
70.76760573250068

>  <Genealogy>  (61) 
CCc1sc(-c2ccc(Cl)cc2)nc1CNc1ccc(S([NH-])(=O)=O)cc1 (protonated)
CCc1sc(-c2ccc(Cl)cc2)nc1CNc1ccc(S([NH-])(=O)=O)cc1 (3D coordinates assigned)
CCc1sc(-c2ccc(Cl)cc2)nc1CNc1ccc(S([NH-])(=O)=O)cc1 (optimized conformer: 70.76760573250068 kcal/mol)

>  <smiles>  (61) 
CCc1sc(-c2ccc(Cl)cc2)nc1CNc1ccc(S(N)(=O)=O)cc1

>  <score_type>  (61) 
oracle

>  <origin>  (61) 
adg

>  <m_score__min__energy>  (61) 
-11.41

>  <m_primary>  (61) 
energy

$$$$
61:0
     RDKit          3D

 48 50  0  0  0  0  0  0  0  0999 V2000
   55.2840   25.1610   45.6750 C   0  0  0  0  0  0  0  0  0  0  0  0
   55.4140   26.5630   45.8930 O   0  0  0  0  0  0  0  0  0  0  0  0
   56.6390   27.2420   45.9800 C   0  0  0  0  0  0  0  0  0  0  0  0
   57.7870   26.6450   46.5340 C   0  0  0  0  0  0  0  0  0  0  0  0
   58.9890   27.3510   46.5970 C   0  0  0  0  0  0  0  0  0  0  0  0
   59.0630   28.6680   46.1240 C   0  0  0  0  0  0  0  0  0  0  0  0
   60.3740   29.4050   46.1550 C   0  0  0  0  0  0  0  0  0  0  0  0
   60.6010   29.9610   47.4870 N   0  0  0  0  0  0  0  0  0  0  0  0
   61.0600   31.3060   47.6910 C   0  0  0  0  0  0  0  0  0  0  0  0
   61.3890   32.0120   46.7000 O   0  0  0  0  0  0  0  0  0  0  0  0
   61.1880   31.8800   49.0450 C   0  0  0  0  0  0  0  0  0  0  0  0
   61.6670   31.0020   50.3990 S   0  0  0  0  0  0  0  0  0  0  0  0
   61.5990   32.2710   51.4970 C   0  0  0  0  0  0  0  0  0  0  0  0
   61.2070   33.4140   50.8140 C   0  0  0  0  0  0  0  0  0  0  0  0
   60.9860   33.2050   49.4390 C   0  0  0  0  0  0  0  0  0  0  0  0
   60.6240   34.2150   48.5360 O   0  0  0  0  0  0  0  0  0  0  0  0
   59.2810   34.5690   48.2120 C   0  0  0  0  0  0  0  0  0  0  0  0
   58.8890   34.0060   46.8710 C   0  0  0  0  0  0  0  0  0  0  0  0
   57.8990   33.0150   46.7750 C   0  0  0  0  0  0  0  0  0  0  0  0
   57.5510   32.4840   45.5290 C   0  0  0  0  0  0  0  0  0  0  0  0
   58.1960   32.9330   44.3710 C   0  0  0  0  0  0  0  0  0  0  0  0
   57.7590   32.2640   42.8080 Cl  0  0  0  0  0  0  0  0  0  0  0  0
   59.1910   33.9120   44.4600 C   0  0  0  0  0  0  0  0  0  0  0  0
   59.5400   34.4440   45.7050 C   0  0  0  0  0  0  0  0  0  0  0  0
   57.9250   29.2650   45.5640 C   0  0  0  0  0  0  0  0  0  0  0  0
   56.7080   28.5570   45.4920 C   0  0  0  0  0  0  0  0  0  0  0  0
   55.5480   29.1230   44.9380 O   0  0  0  0  0  0  0  0  0  0  0  0
   55.4860   29.7520   43.6620 C   0  0  0  0  0  0  0  0  0  0  0  0
   55.2359   24.6422   46.6438 H   0  0  0  0  0  0  0  0  0  0  0  0
   54.3636   24.9621   45.1065 H   0  0  0  0  0  0  0  0  0  0  0  0
   56.1522   24.7963   45.1065 H   0  0  0  0  0  0  0  0  0  0  0  0
   57.7363   25.6160   46.9195 H   0  0  0  0  0  0  0  0  0  0  0  0
   59.8836   26.8710   47.0204 H   0  0  0  0  0  0  0  0  0  0  0  0
   61.1892   28.7096   45.9063 H   0  0  0  0  0  0  0  0  0  0  0  0
   60.3464   30.2237   45.4209 H   0  0  0  0  0  0  0  0  0  0  0  0
   60.5880   29.2940   48.2880 H   0  0  0  0  0  0  0  0  0  0  0  0
   61.8259   32.2074   52.5715 H   0  0  0  0  0  0  0  0  0  0  0  0
   61.0807   34.3920   51.3014 H   0  0  0  0  0  0  0  0  0  0  0  0
   58.6063   34.1682   48.9828 H   0  0  0  0  0  0  0  0  0  0  0  0
   59.2053   35.6656   48.1702 H   0  0  0  0  0  0  0  0  0  0  0  0
   57.3949   32.6547   47.6839 H   0  0  0  0  0  0  0  0  0  0  0  0
   56.7697   31.7128   45.4590 H   0  0  0  0  0  0  0  0  0  0  0  0
   59.6992   34.2636   43.5500 H   0  0  0  0  0  0  0  0  0  0  0  0
   60.3277   35.2089   45.7722 H   0  0  0  0  0  0  0  0  0  0  0  0
   57.9820   30.2934   45.1779 H   0  0  0  0  0  0  0  0  0  0  0  0
   55.3789   30.8388   43.7938 H   0  0  0  0  0  0  0  0  0  0  0  0
   56.4094   29.5396   43.1033 H   0  0  0  0  0  0  0  0  0  0  0  0
   54.6218   29.3634   43.1033 H   0  0  0  0  0  0  0  0  0  0  0  0
  1  2  1  0
  2  3  1  0
  3  4  2  0
  4  5  1  0
  5  6  2  0
  6  7  1  0
  7  8  1  0
  8  9  1  0
  9 10  2  0
  9 11  1  0
 11 12  1  0
 12 13  1  0
 13 14  2  0
 14 15  1  0
 15 16  1  0
 16 17  1  0
 17 18  1  0
 18 19  2  0
 19 20  1  0
 20 21  2  0
 21 22  1  0
 21 23  1  0
 23 24  2  0
  6 25  1  0
 25 26  2  0
 26 27  1  0
 27 28  1  0
 26  3  1  0
 15 11  2  0
 24 18  1  0
  1 29  1  0
  1 30  1  0
  1 31  1  0
  4 32  1  0
  5 33  1  0
  7 34  1  0
  7 35  1  0
  8 36  1  0
 13 37  1  0
 14 38  1  0
 17 39  1  0
 17 40  1  0
 19 41  1  0
 20 42  1  0
 23 43  1  0
 24 44  1  0
 25 45  1  0
 28 46  1  0
 28 47  1  0
 28 48  1  0
M  END
>  <UniqueID>  (62) 
60

>  <SMILES>  (62) 
COc1ccc(CNC(=O)c2sccc2OCc2ccc(Cl)cc2)cc1OC

>  <Energy>  (62) 
73.01355320208346

>  <Genealogy>  (62) 
COc1ccc(CNC(=O)c2sccc2OCc2ccc(Cl)cc2)cc1OC (3D coordinates assigned)
COc1ccc(CNC(=O)c2sccc2OCc2ccc(Cl)cc2)cc1OC (optimized conformer: 73.01355320208346 kcal/mol)

>  <smiles>  (62) 
COc1ccc(CNC(=O)c2sccc2OCc2ccc(Cl)cc2)cc1OC

>  <score_type>  (62) 
oracle

>  <origin>  (62) 
adg

>  <m_score__min__energy>  (62) 
-8.1999999999999993

>  <m_primary>  (62) 
energy

$$$$
62:0
     RDKit          3D

 33 34  0  0  0  0  0  0  0  0999 V2000
   55.1420   26.6970   46.1410 N   0  0  0  0  0  0  0  0  0  0  0  0
   56.2580   25.3770   46.2020 S   0  0  0  0  0  0  0  0  0  0  0  0
   55.8600   24.4640   47.3290 O   0  0  0  0  0  0  0  0  0  0  0  0
   56.2020   24.6240   44.9040 O   0  0  0  0  0  0  0  0  0  0  0  0
   57.8990   25.9670   46.4650 C   0  0  0  0  0  0  0  0  0  0  0  0
   58.1160   27.1590   47.1740 C   0  0  0  0  0  0  0  0  0  0  0  0
   59.4210   27.6430   47.3840 C   0  0  0  0  0  0  0  0  0  0  0  0
   59.6450   28.9010   48.1350 C   0  0  0  0  0  0  0  0  0  0  0  0
   59.7240   28.8760   49.3940 O   0  0  0  0  0  0  0  0  0  0  0  0
   59.8260   30.1360   47.4280 N   0  0  0  0  0  0  0  0  0  0  0  0
   58.8960   30.7460   46.5200 C   0  0  0  0  0  0  0  0  0  0  0  0
   58.9860   32.1240   46.2960 C   0  0  0  0  0  0  0  0  0  0  0  0
   58.1130   32.7680   45.4040 C   0  0  0  0  0  0  0  0  0  0  0  0
   58.2040   34.2290   45.1840 C   0  0  0  0  0  0  0  0  0  0  0  0
   57.1850   34.8930   44.8580 O   0  0  0  0  0  0  0  0  0  0  0  0
   59.4180   34.8900   45.3330 O   0  0  0  0  0  0  0  0  0  0  0  0
   57.1510   32.0060   44.7210 C   0  0  0  0  0  0  0  0  0  0  0  0
   57.0650   30.6150   44.9120 C   0  0  0  0  0  0  0  0  0  0  0  0
   56.0630   29.8140   44.1730 C   0  0  0  0  0  0  0  0  0  0  0  0
   55.1380   29.2190   44.7870 O   0  0  0  0  0  0  0  0  0  0  0  0
   56.1300   29.7040   42.7880 O   0  0  0  0  0  0  0  0  0  0  0  0
   57.9480   29.9910   45.8090 C   0  0  0  0  0  0  0  0  0  0  0  0
   60.5080   26.9150   46.8670 C   0  0  0  0  0  0  0  0  0  0  0  0
   60.2930   25.7340   46.1530 C   0  0  0  0  0  0  0  0  0  0  0  0
   58.9960   25.2590   45.9500 C   0  0  0  0  0  0  0  0  0  0  0  0
   58.8120   24.1150   45.2430 F   0  0  0  0  0  0  0  0  0  0  0  0
   55.1890   27.0920   45.1760 H   0  0  0  0  0  0  0  0  0  0  0  0
   57.2571   27.7208   47.5697 H   0  0  0  0  0  0  0  0  0  0  0  0
   59.7508   32.7110   46.8256 H   0  0  0  0  0  0  0  0  0  0  0  0
   56.4562   32.5031   44.0281 H   0  0  0  0  0  0  0  0  0  0  0  0
   57.8968   28.9021   45.9560 H   0  0  0  0  0  0  0  0  0  0  0  0
   61.5340   27.2782   47.0261 H   0  0  0  0  0  0  0  0  0  0  0  0
   61.1499   25.1753   45.7486 H   0  0  0  0  0  0  0  0  0  0  0  0
  1  2  1  0
  2  3  2  0
  2  4  2  0
  2  5  1  0
  5  6  2  0
  6  7  1  0
  7  8  1  0
  8  9  2  0
  8 10  1  0
 10 11  1  0
 11 12  2  0
 12 13  1  0
 13 14  1  0
 14 15  2  0
 14 16  1  0
 13 17  2  0
 17 18  1  0
 18 19  1  0
 19 20  2  0
 19 21  1  0
 18 22  2  0
  7 23  2  0
 23 24  1  0
 24 25  2  0
 25 26  1  0
 25  5  1  0
 22 11  1  0
  1 27  1  0
  6 28  1  0
 12 29  1  0
 17 30  1  0
 22 31  1  0
 23 32  1  0
 24 33  1  0
M  CHG  4   1  -1  10  -1  16  -1  21  -1
M  END
>  <UniqueID>  (63) 
61

>  <SMILES>  (63) 
[NH-]S(=O)(=O)c1cc(C(=O)[N-]c2cc(C(=O)[O-])cc(C(=O)[O-])c2)ccc1F

>  <Energy>  (63) 
40.2285416011587

>  <Genealogy>  (63) 
[NH-]S(=O)(=O)c1cc(C(=O)[N-]c2cc(C(=O)[O-])cc(C(=O)[O-])c2)ccc1F (protonated)
[NH-]S(=O)(=O)c1cc(C(=O)[N-]c2cc(C(=O)[O-])cc(C(=O)[O-])c2)ccc1F (3D coordinates assigned)
[NH-]S(=O)(=O)c1cc(C(=O)[N-]c2cc(C(=O)[O-])cc(C(=O)[O-])c2)ccc1F (optimized conformer: 40.2285416011587 kcal/mol)

>  <smiles>  (63) 
NS(=O)(=O)c1cc(C(=O)Nc2cc(C(=O)O)cc(C(=O)O)c2)ccc1F

>  <score_type>  (63) 
oracle

>  <origin>  (63) 
adg

>  <m_score__min__energy>  (63) 
-15.16

>  <m_primary>  (63) 
energy

$$$$
63:0
     RDKit          3D

 45 47  0  0  0  0  0  0  0  0999 V2000
   55.4840   29.3040   44.9590 O   0  0  0  0  0  0  0  0  0  0  0  0
   56.4740   30.0160   44.6400 C   0  0  0  0  0  0  0  0  0  0  0  0
   56.3720   31.4450   44.6300 N   0  0  0  0  0  0  0  0  0  0  0  0
   57.3910   32.3780   45.0180 C   0  0  0  0  0  0  0  0  0  0  0  0
   57.8670   33.3720   44.1450 C   0  0  0  0  0  0  0  0  0  0  0  0
   58.8470   34.2720   44.5720 C   0  0  0  0  0  0  0  0  0  0  0  0
   59.3500   34.1980   45.8720 C   0  0  0  0  0  0  0  0  0  0  0  0
   58.8680   33.2270   46.7600 C   0  0  0  0  0  0  0  0  0  0  0  0
   59.4980   33.1390   48.4070 S   0  0  0  0  0  0  0  0  0  0  0  0
   59.4310   34.5020   49.0360 O   0  0  0  0  0  0  0  0  0  0  0  0
   60.9410   32.7200   48.3580 O   0  0  0  0  0  0  0  0  0  0  0  0
   58.6010   32.0040   49.3860 N   0  0  0  0  0  0  0  0  0  0  0  0
   58.5420   32.4610   50.7820 C   0  0  0  0  0  0  0  0  0  0  0  0
   57.7310   31.4580   51.6290 C   0  0  0  0  0  0  0  0  0  0  0  0
   57.3940   30.2900   50.9010 O   0  0  0  0  0  0  0  0  0  0  0  0
   58.5620   29.7170   50.3450 C   0  0  0  0  0  0  0  0  0  0  0  0
   59.2100   30.6660   49.3150 C   0  0  0  0  0  0  0  0  0  0  0  0
   57.8810   32.3270   46.3300 C   0  0  0  0  0  0  0  0  0  0  0  0
   57.6990   29.3990   44.2300 N   0  0  0  0  0  0  0  0  0  0  0  0
   57.8520   27.9460   44.2000 C   0  0  0  0  0  0  0  0  0  0  0  0
   58.4810   27.4500   45.4780 C   0  0  0  0  0  0  0  0  0  0  0  0
   59.7940   27.8260   45.8020 C   0  0  0  0  0  0  0  0  0  0  0  0
   60.3940   27.3490   46.9680 C   0  0  0  0  0  0  0  0  0  0  0  0
   59.6790   26.4890   47.8010 C   0  0  0  0  0  0  0  0  0  0  0  0
   58.4140   26.1160   47.4700 N   0  0  0  0  0  0  0  0  0  0  0  0
   57.8030   26.5640   46.3420 C   0  0  0  0  0  0  0  0  0  0  0  0
   56.1720   26.0030   45.9960 Cl  0  0  0  0  0  0  0  0  0  0  0  0
   57.4668   33.4414   43.1228 H   0  0  0  0  0  0  0  0  0  0  0  0
   59.2232   35.0412   43.8815 H   0  0  0  0  0  0  0  0  0  0  0  0
   60.1270   34.9040   46.2004 H   0  0  0  0  0  0  0  0  0  0  0  0
   59.5629   32.5366   51.1845 H   0  0  0  0  0  0  0  0  0  0  0  0
   58.0534   33.4458   50.8204 H   0  0  0  0  0  0  0  0  0  0  0  0
   58.3302   31.1686   52.5049 H   0  0  0  0  0  0  0  0  0  0  0  0
   56.7941   31.9503   51.9288 H   0  0  0  0  0  0  0  0  0  0  0  0
   59.2826   29.5161   51.1515 H   0  0  0  0  0  0  0  0  0  0  0  0
   58.2840   28.7836   49.8337 H   0  0  0  0  0  0  0  0  0  0  0  0
   60.2865   30.7475   49.5261 H   0  0  0  0  0  0  0  0  0  0  0  0
   59.0490   30.2570   48.3066 H   0  0  0  0  0  0  0  0  0  0  0  0
   57.4882   31.5743   47.0294 H   0  0  0  0  0  0  0  0  0  0  0  0
   58.4950   30.0170   43.9540 H   0  0  0  0  0  0  0  0  0  0  0  0
   56.8623   27.4810   44.0804 H   0  0  0  0  0  0  0  0  0  0  0  0
   58.5046   27.6763   43.3566 H   0  0  0  0  0  0  0  0  0  0  0  0
   60.3519   28.4991   45.1344 H   0  0  0  0  0  0  0  0  0  0  0  0
   61.4202   27.6482   47.2274 H   0  0  0  0  0  0  0  0  0  0  0  0
   60.1387   26.1121   48.7265 H   0  0  0  0  0  0  0  0  0  0  0  0
  1  2  2  0
  2  3  1  0
  3  4  1  0
  4  5  2  0
  5  6  1  0
  6  7  2  0
  7  8  1  0
  8  9  1  0
  9 10  2  0
  9 11  2  0
  9 12  1  0
 12 13  1  0
 13 14  1  0
 14 15  1  0
 15 16  1  0
 16 17  1  0
  8 18  2  0
  2 19  1  0
 19 20  1  0
 20 21  1  0
 21 22  2  0
 22 23  1  0
 23 24  2  0
 24 25  1  0
 25 26  2  0
 26 27  1  0
 18  4  1  0
 26 21  1  0
 17 12  1  0
  5 28  1  0
  6 29  1  0
  7 30  1  0
 13 31  1  0
 13 32  1  0
 14 33  1  0
 14 34  1  0
 16 35  1  0
 16 36  1  0
 17 37  1  0
 17 38  1  0
 18 39  1  0
 19 40  1  0
 20 41  1  0
 20 42  1  0
 22 43  1  0
 23 44  1  0
 24 45  1  0
M  CHG  1   3  -1
M  END
>  <UniqueID>  (64) 
62

>  <SMILES>  (64) 
O=C([N-]c1cccc(S(=O)(=O)N2CCOCC2)c1)NCc1cccnc1Cl

>  <Energy>  (64) 
56.10715687399525

>  <Genealogy>  (64) 
O=C([N-]c1cccc(S(=O)(=O)N2CCOCC2)c1)NCc1cccnc1Cl (protonated)
O=C([N-]c1cccc(S(=O)(=O)N2CCOCC2)c1)NCc1cccnc1Cl (3D coordinates assigned)
O=C([N-]c1cccc(S(=O)(=O)N2CCOCC2)c1)NCc1cccnc1Cl (nonaromatic ring conformer: 56.10715687399525 kcal/mol)

>  <smiles>  (64) 
O=C(NCc1cccnc1Cl)Nc1cccc(S(=O)(=O)N2CCOCC2)c1

>  <score_type>  (64) 
oracle

>  <origin>  (64) 
adg

>  <m_score__min__energy>  (64) 
-11.02

>  <m_primary>  (64) 
energy

$$$$
64:0
     RDKit          3D

 44 47  0  0  0  0  0  0  0  0999 V2000
   66.3650   32.8100   50.4750 C   0  0  0  0  0  0  0  0  0  0  0  0
   65.0200   33.2620   50.3610 O   0  0  0  0  0  0  0  0  0  0  0  0
   64.0760   32.7200   49.4760 C   0  0  0  0  0  0  0  0  0  0  0  0
   64.1240   33.1190   48.1190 C   0  0  0  0  0  0  0  0  0  0  0  0
   63.2040   32.6130   47.1840 C   0  0  0  0  0  0  0  0  0  0  0  0
   62.2510   31.7030   47.6350 C   0  0  0  0  0  0  0  0  0  0  0  0
   61.2810   31.1140   46.9180 N   0  0  0  0  0  0  0  0  0  0  0  0
   60.6070   30.3300   47.7910 C   0  0  0  0  0  0  0  0  0  0  0  0
   59.3830   29.5500   47.4280 C   0  0  0  0  0  0  0  0  0  0  0  0
   58.5740   30.3130   46.4270 C   0  0  0  0  0  0  0  0  0  0  0  0
   57.9990   29.7970   45.2700 C   0  0  0  0  0  0  0  0  0  0  0  0
   57.4450   30.7920   44.5380 N   0  0  0  0  0  0  0  0  0  0  0  0
   56.8180   30.6310   43.2250 C   0  0  0  0  0  0  0  0  0  0  0  0
   55.6270   29.6730   43.3040 C   0  0  0  0  0  0  0  0  0  0  0  0
   55.1450   29.5890   44.6180 O   0  0  0  0  0  0  0  0  0  0  0  0
   57.6890   31.9400   45.2080 C   0  0  0  0  0  0  0  0  0  0  0  0
   57.3640   33.2470   44.8340 C   0  0  0  0  0  0  0  0  0  0  0  0
   57.7590   34.2950   45.6850 C   0  0  0  0  0  0  0  0  0  0  0  0
   58.4680   34.0230   46.8740 C   0  0  0  0  0  0  0  0  0  0  0  0
   58.7910   32.7010   47.2250 C   0  0  0  0  0  0  0  0  0  0  0  0
   58.3800   31.6810   46.3680 C   0  0  0  0  0  0  0  0  0  0  0  0
   61.1440   30.4300   49.0730 C   0  0  0  0  0  0  0  0  0  0  0  0
   62.1960   31.3100   48.9460 C   0  0  0  0  0  0  0  0  0  0  0  0
   63.0890   31.7960   49.8990 C   0  0  0  0  0  0  0  0  0  0  0  0
   66.6327   32.7200   51.5381 H   0  0  0  0  0  0  0  0  0  0  0  0
   66.4647   31.8290   49.9875 H   0  0  0  0  0  0  0  0  0  0  0  0
   67.0369   33.5317   49.9875 H   0  0  0  0  0  0  0  0  0  0  0  0
   64.8919   33.8351   47.7912 H   0  0  0  0  0  0  0  0  0  0  0  0
   63.2359   32.9258   46.1299 H   0  0  0  0  0  0  0  0  0  0  0  0
   61.0770   31.2490   45.9020 H   0  0  0  0  0  0  0  0  0  0  0  0
   59.6809   28.5832   46.9961 H   0  0  0  0  0  0  0  0  0  0  0  0
   58.7783   29.3819   48.3314 H   0  0  0  0  0  0  0  0  0  0  0  0
   57.9951   28.7332   44.9901 H   0  0  0  0  0  0  0  0  0  0  0  0
   56.4688   31.6117   42.8697 H   0  0  0  0  0  0  0  0  0  0  0  0
   57.5604   30.2132   42.5291 H   0  0  0  0  0  0  0  0  0  0  0  0
   54.8242   30.0400   42.6476 H   0  0  0  0  0  0  0  0  0  0  0  0
   55.9552   28.6734   42.9831 H   0  0  0  0  0  0  0  0  0  0  0  0
   54.3730   28.9650   44.6020 H   0  0  0  0  0  0  0  0  0  0  0  0
   56.8158   33.4499   43.9022 H   0  0  0  0  0  0  0  0  0  0  0  0
   57.5133   35.3343   45.4215 H   0  0  0  0  0  0  0  0  0  0  0  0
   58.7702   34.8517   47.5312 H   0  0  0  0  0  0  0  0  0  0  0  0
   59.3499   32.4783   48.1459 H   0  0  0  0  0  0  0  0  0  0  0  0
   60.8029   29.9188   49.9853 H   0  0  0  0  0  0  0  0  0  0  0  0
   63.0293   31.4718   50.9484 H   0  0  0  0  0  0  0  0  0  0  0  0
  1  2  1  0
  2  3  1  0
  3  4  2  0
  4  5  1  0
  5  6  2  0
  6  7  1  0
  7  8  1  0
  8  9  1  0
  9 10  1  0
 10 11  2  0
 11 12  1  0
 12 13  1  0
 13 14  1  0
 14 15  1  0
 12 16  1  0
 16 17  2  0
 17 18  1  0
 18 19  2  0
 19 20  1  0
 20 21  2  0
  8 22  2  0
 22 23  1  0
 23 24  2  0
 24  3  1  0
 23  6  1  0
 21 10  1  0
 21 16  1  0
  1 25  1  0
  1 26  1  0
  1 27  1  0
  4 28  1  0
  5 29  1  0
  7 30  1  0
  9 31  1  0
  9 32  1  0
 11 33  1  0
 13 34  1  0
 13 35  1  0
 14 36  1  0
 14 37  1  0
 15 38  1  0
 17 39  1  0
 18 40  1  0
 19 41  1  0
 20 42  1  0
 22 43  1  0
 24 44  1  0
M  END
>  <UniqueID>  (65) 
63

>  <SMILES>  (65) 
COc1ccc2[nH]c(Cc3cn(CCO)c4ccccc34)cc2c1

>  <Energy>  (65) 
107.33670593330018

>  <Genealogy>  (65) 
COc1ccc2[nH]c(Cc3cn(CCO)c4ccccc34)cc2c1 (3D coordinates assigned)
COc1ccc2[nH]c(Cc3cn(CCO)c4ccccc34)cc2c1 (optimized conformer: 107.33670593330018 kcal/mol)

>  <smiles>  (65) 
COc1ccc2[nH]c(Cc3cn(CCO)c4ccccc34)cc2c1

>  <score_type>  (65) 
oracle

>  <origin>  (65) 
adg

>  <m_score__min__energy>  (65) 
-8.3300000000000001

>  <m_primary>  (65) 
energy

$$$$
65:0
     RDKit          3D

 43 45  0  0  0  0  0  0  0  0999 V2000
   55.1460   29.5020   44.8560 O   0  0  0  0  0  0  0  0  0  0  0  0
   56.2560   29.9200   44.4280 C   0  0  0  0  0  0  0  0  0  0  0  0
   57.2050   28.9650   43.7780 C   0  0  0  0  0  0  0  0  0  0  0  0
   57.9610   28.1940   44.8280 C   0  0  0  0  0  0  0  0  0  0  0  0
   59.3630   28.2860   44.8890 C   0  0  0  0  0  0  0  0  0  0  0  0
   60.0780   27.5500   45.8380 C   0  0  0  0  0  0  0  0  0  0  0  0
   59.4020   26.7160   46.7340 C   0  0  0  0  0  0  0  0  0  0  0  0
   58.0100   26.6090   46.6740 C   0  0  0  0  0  0  0  0  0  0  0  0
   57.2880   27.3350   45.7190 C   0  0  0  0  0  0  0  0  0  0  0  0
   55.9390   27.2030   45.6680 F   0  0  0  0  0  0  0  0  0  0  0  0
   56.6110   31.3050   44.5370 N   0  0  0  0  0  0  0  0  0  0  0  0
   57.5120   31.8800   45.4930 C   0  0  0  0  0  0  0  0  0  0  0  0
   57.7230   33.2690   45.5790 C   0  0  0  0  0  0  0  0  0  0  0  0
   58.5960   33.7900   46.5380 C   0  0  0  0  0  0  0  0  0  0  0  0
   59.2610   32.9340   47.4280 C   0  0  0  0  0  0  0  0  0  0  0  0
   60.3610   33.5730   48.6460 S   0  0  0  0  0  0  0  0  0  0  0  0
   60.7420   32.4910   49.6190 O   0  0  0  0  0  0  0  0  0  0  0  0
   59.6550   34.6680   49.3960 O   0  0  0  0  0  0  0  0  0  0  0  0
   61.7900   34.2150   47.8660 N   0  0  0  0  0  0  0  0  0  0  0  0
   62.1540   33.3990   46.7030 C   0  0  0  0  0  0  0  0  0  0  0  0
   63.1670   32.3570   47.1530 C   0  0  0  0  0  0  0  0  0  0  0  0
   63.6910   32.8490   48.4880 C   0  0  0  0  0  0  0  0  0  0  0  0
   62.9440   34.1450   48.7700 C   0  0  0  0  0  0  0  0  0  0  0  0
   59.0300   31.5550   47.3630 C   0  0  0  0  0  0  0  0  0  0  0  0
   58.1550   31.0330   46.4060 C   0  0  0  0  0  0  0  0  0  0  0  0
   56.6401   28.2631   43.1470 H   0  0  0  0  0  0  0  0  0  0  0  0
   57.9193   29.5300   43.1611 H   0  0  0  0  0  0  0  0  0  0  0  0
   59.8996   28.9405   44.1863 H   0  0  0  0  0  0  0  0  0  0  0  0
   61.1745   27.6270   45.8801 H   0  0  0  0  0  0  0  0  0  0  0  0
   59.9658   26.1443   47.4859 H   0  0  0  0  0  0  0  0  0  0  0  0
   57.4797   25.9523   47.3794 H   0  0  0  0  0  0  0  0  0  0  0  0
   57.1990   33.9468   44.8890 H   0  0  0  0  0  0  0  0  0  0  0  0
   58.7622   34.8759   46.5950 H   0  0  0  0  0  0  0  0  0  0  0  0
   61.2589   32.9001   46.3031 H   0  0  0  0  0  0  0  0  0  0  0  0
   62.5850   34.0325   45.9137 H   0  0  0  0  0  0  0  0  0  0  0  0
   62.6834   31.3757   47.2682 H   0  0  0  0  0  0  0  0  0  0  0  0
   63.9764   32.2320   46.4187 H   0  0  0  0  0  0  0  0  0  0  0  0
   63.4874   32.1094   49.2763 H   0  0  0  0  0  0  0  0  0  0  0  0
   64.7798   33.0041   48.4651 H   0  0  0  0  0  0  0  0  0  0  0  0
   62.5999   34.1567   49.8147 H   0  0  0  0  0  0  0  0  0  0  0  0
   63.6063   35.0083   48.6083 H   0  0  0  0  0  0  0  0  0  0  0  0
   59.5386   30.8800   48.0671 H   0  0  0  0  0  0  0  0  0  0  0  0
   57.9697   29.9493   46.3692 H   0  0  0  0  0  0  0  0  0  0  0  0
  1  2  2  0
  2  3  1  0
  3  4  1  0
  4  5  2  0
  5  6  1  0
  6  7  2  0
  7  8  1  0
  8  9  2  0
  9 10  1  0
  2 11  1  0
 11 12  1  0
 12 13  2  0
 13 14  1  0
 14 15  2  0
 15 16  1  0
 16 17  2  0
 16 18  2  0
 16 19  1  0
 19 20  1  0
 20 21  1  0
 21 22  1  0
 22 23  1  0
 15 24  1  0
 24 25  2  0
  9  4  1  0
 25 12  1  0
 23 19  1  0
  3 26  1  0
  3 27  1  0
  5 28  1  0
  6 29  1  0
  7 30  1  0
  8 31  1  0
 13 32  1  0
 14 33  1  0
 20 34  1  0
 20 35  1  0
 21 36  1  0
 21 37  1  0
 22 38  1  0
 22 39  1  0
 23 40  1  0
 23 41  1  0
 24 42  1  0
 25 43  1  0
M  CHG  1  11  -1
M  END
>  <UniqueID>  (66) 
64

>  <SMILES>  (66) 
O=C(Cc1ccccc1F)[N-]c1ccc(S(=O)(=O)N2CCCC2)cc1

>  <Energy>  (66) 
47.17157877170482

>  <Genealogy>  (66) 
O=C(Cc1ccccc1F)[N-]c1ccc(S(=O)(=O)N2CCCC2)cc1 (protonated)
O=C(Cc1ccccc1F)[N-]c1ccc(S(=O)(=O)N2CCCC2)cc1 (3D coordinates assigned)
O=C(Cc1ccccc1F)[N-]c1ccc(S(=O)(=O)N2CCCC2)cc1 (nonaromatic ring conformer: 47.17157877170482 kcal/mol)

>  <smiles>  (66) 
O=C(Cc1ccccc1F)Nc1ccc(S(=O)(=O)N2CCCC2)cc1

>  <score_type>  (66) 
oracle

>  <origin>  (66) 
adg

>  <m_score__min__energy>  (66) 
-10.550000000000001

>  <m_primary>  (66) 
energy

$$$$
66:0
     RDKit          3D

 46 48  0  0  0  0  0  0  0  0999 V2000
   55.5160   28.9760   44.8880 N   0  0  0  0  0  0  0  0  0  0  0  0
   56.7070   30.1400   44.4300 S   0  0  0  0  0  0  0  0  0  0  0  0
   56.1820   31.5250   44.6800 O   0  0  0  0  0  0  0  0  0  0  0  0
   57.0050   29.9960   42.9640 O   0  0  0  0  0  0  0  0  0  0  0  0
   58.1740   29.8820   45.3680 C   0  0  0  0  0  0  0  0  0  0  0  0
   59.1700   29.0150   44.9020 C   0  0  0  0  0  0  0  0  0  0  0  0
   60.3170   28.7900   45.6650 C   0  0  0  0  0  0  0  0  0  0  0  0
   60.4790   29.4320   46.8960 C   0  0  0  0  0  0  0  0  0  0  0  0
   59.4980   30.3160   47.3700 C   0  0  0  0  0  0  0  0  0  0  0  0
   59.6730   30.9410   48.6510 N   0  0  0  0  0  0  0  0  0  0  0  0
   60.4810   30.3950   49.7060 C   0  0  0  0  0  0  0  0  0  0  0  0
   60.8390   29.1870   49.6800 O   0  0  0  0  0  0  0  0  0  0  0  0
   60.8960   31.2560   50.8630 C   0  0  0  0  0  0  0  0  0  0  0  0
   62.2410   31.8180   50.6200 N   0  0  0  0  0  0  0  0  0  0  0  0
   62.2270   33.2950   50.6030 C   0  0  0  0  0  0  0  0  0  0  0  0
   61.4780   33.8340   49.3760 C   0  0  0  0  0  0  0  0  0  0  0  0
   61.8560   33.0960   48.1650 N   0  0  0  0  0  0  0  0  0  0  0  0
   61.3780   33.5560   46.8900 C   0  0  0  0  0  0  0  0  0  0  0  0
   62.2040   33.8400   45.9810 O   0  0  0  0  0  0  0  0  0  0  0  0
   59.9400   33.6950   46.6120 C   0  0  0  0  0  0  0  0  0  0  0  0
   59.3650   34.0690   45.4120 C   0  0  0  0  0  0  0  0  0  0  0  0
   58.0060   34.0840   45.6390 C   0  0  0  0  0  0  0  0  0  0  0  0
   57.8350   33.7230   46.9600 C   0  0  0  0  0  0  0  0  0  0  0  0
   59.0050   33.5020   47.5140 O   0  0  0  0  0  0  0  0  0  0  0  0
   62.9990   32.1820   48.2130 C   0  0  0  0  0  0  0  0  0  0  0  0
   62.8960   31.2270   49.4190 C   0  0  0  0  0  0  0  0  0  0  0  0
   58.3340   30.5210   46.6060 C   0  0  0  0  0  0  0  0  0  0  0  0
   54.8640   29.4530   45.5510 H   0  0  0  0  0  0  0  0  0  0  0  0
   59.0482   28.5100   43.9324 H   0  0  0  0  0  0  0  0  0  0  0  0
   61.0954   28.1057   45.2966 H   0  0  0  0  0  0  0  0  0  0  0  0
   61.3809   29.2430   47.4967 H   0  0  0  0  0  0  0  0  0  0  0  0
   59.1350   31.8150   48.8480 H   0  0  0  0  0  0  0  0  0  0  0  0
   60.1744   32.0776   50.9825 H   0  0  0  0  0  0  0  0  0  0  0  0
   60.9208   30.6442   51.7768 H   0  0  0  0  0  0  0  0  0  0  0  0
   61.7296   33.6587   51.5142 H   0  0  0  0  0  0  0  0  0  0  0  0
   63.2670   33.6506   50.5575 H   0  0  0  0  0  0  0  0  0  0  0  0
   60.3955   33.7273   49.5395 H   0  0  0  0  0  0  0  0  0  0  0  0
   61.7438   34.8926   49.2394 H   0  0  0  0  0  0  0  0  0  0  0  0
   59.8842   34.3055   44.4715 H   0  0  0  0  0  0  0  0  0  0  0  0
   57.2171   34.3333   44.9141 H   0  0  0  0  0  0  0  0  0  0  0  0
   56.8653   33.6338   47.4716 H   0  0  0  0  0  0  0  0  0  0  0  0
   63.0242   31.5894   47.2866 H   0  0  0  0  0  0  0  0  0  0  0  0
   63.9182   32.7773   48.3164 H   0  0  0  0  0  0  0  0  0  0  0  0
   62.3160   30.3448   49.1103 H   0  0  0  0  0  0  0  0  0  0  0  0
   63.9271   30.9818   49.7134 H   0  0  0  0  0  0  0  0  0  0  0  0
   57.5440   31.1873   46.9827 H   0  0  0  0  0  0  0  0  0  0  0  0
  1  2  1  0
  2  3  2  0
  2  4  2  0
  2  5  1  0
  5  6  2  0
  6  7  1  0
  7  8  2  0
  8  9  1  0
  9 10  1  0
 10 11  1  0
 11 12  2  0
 11 13  1  0
 13 14  1  0
 14 15  1  0
 15 16  1  0
 16 17  1  0
 17 18  1  0
 18 19  2  0
 18 20  1  0
 20 21  2  0
 21 22  1  0
 22 23  2  0
 23 24  1  0
 17 25  1  0
 25 26  1  0
  9 27  2  0
 27  5  1  0
 26 14  1  0
 24 20  1  0
  1 28  1  0
  6 29  1  0
  7 30  1  0
  8 31  1  0
 10 32  1  0
 13 33  1  0
 13 34  1  0
 15 35  1  0
 15 36  1  0
 16 37  1  0
 16 38  1  0
 21 39  1  0
 22 40  1  0
 23 41  1  0
 25 42  1  0
 25 43  1  0
 26 44  1  0
 26 45  1  0
 27 46  1  0
M  CHG  1   1  -1
M  END
>  <UniqueID>  (67) 
65

>  <SMILES>  (67) 
[NH-]S(=O)(=O)c1cccc(NC(=O)CN2CCN(C(=O)c3ccco3)CC2)c1

>  <Energy>  (67) 
86.01244020219879

>  <Genealogy>  (67) 
[NH-]S(=O)(=O)c1cccc(NC(=O)CN2CCN(C(=O)c3ccco3)CC2)c1 (protonated)
[NH-]S(=O)(=O)c1cccc(NC(=O)CN2CCN(C(=O)c3ccco3)CC2)c1 (3D coordinates assigned)
[NH-]S(=O)(=O)c1cccc(NC(=O)CN2CCN(C(=O)c3ccco3)CC2)c1 (nonaromatic ring conformer: 86.01244020219879 kcal/mol)

>  <smiles>  (67) 
NS(=O)(=O)c1cccc(NC(=O)CN2CCN(C(=O)c3ccco3)CC2)c1

>  <score_type>  (67) 
oracle

>  <origin>  (67) 
adg

>  <m_score__min__energy>  (67) 
-10.619999999999999

>  <m_primary>  (67) 
energy

$$$$
67:0
     RDKit          3D

 46 48  0  0  0  0  0  0  0  0999 V2000
   60.1960   33.4430   51.4420 C   0  0  0  0  0  0  0  0  0  0  0  0
   61.5560   33.8440   51.3120 O   0  0  0  0  0  0  0  0  0  0  0  0
   62.3520   33.6310   50.1770 C   0  0  0  0  0  0  0  0  0  0  0  0
   63.5670   32.9200   50.2660 C   0  0  0  0  0  0  0  0  0  0  0  0
   64.3340   32.6740   49.1270 C   0  0  0  0  0  0  0  0  0  0  0  0
   63.9020   33.1270   47.8830 C   0  0  0  0  0  0  0  0  0  0  0  0
   62.7070   33.8400   47.7770 C   0  0  0  0  0  0  0  0  0  0  0  0
   61.9290   34.1140   48.9100 C   0  0  0  0  0  0  0  0  0  0  0  0
   60.7520   34.8570   48.6970 O   0  0  0  0  0  0  0  0  0  0  0  0
   59.6320   34.4960   47.8850 C   0  0  1  0  0  0  0  0  0  0  0  0
   59.8270   34.9240   46.4230 C   0  0  0  0  0  0  0  0  0  0  0  0
   59.2620   33.7920   45.5760 C   0  0  0  0  0  0  0  0  0  0  0  0
   59.1390   32.6610   46.4750 N   0  0  0  0  0  0  0  0  0  0  0  0
   58.9090   31.3210   46.0180 C   0  0  0  0  0  0  0  0  0  0  0  0
   57.7640   31.0450   45.2570 C   0  0  0  0  0  0  0  0  0  0  0  0
   57.5110   29.7460   44.7810 C   0  0  0  0  0  0  0  0  0  0  0  0
   56.2970   29.4780   43.9710 C   0  0  0  0  0  0  0  0  0  0  0  0
   56.3620   29.3500   42.5490 N   0  0  0  0  0  0  0  0  0  0  0  0
   55.1820   29.3440   44.5450 O   0  0  0  0  0  0  0  0  0  0  0  0
   58.4390   28.7280   45.0610 C   0  0  0  0  0  0  0  0  0  0  0  0
   59.5780   28.9970   45.8230 C   0  0  0  0  0  0  0  0  0  0  0  0
   59.8160   30.2850   46.3250 C   0  0  0  0  0  0  0  0  0  0  0  0
   61.0550   30.5420   47.1370 C   0  0  0  0  0  0  0  0  0  0  0  0
   59.4890   32.9780   47.8450 C   0  0  0  0  0  0  0  0  0  0  0  0
   59.9366   33.3665   52.5082 H   0  0  0  0  0  0  0  0  0  0  0  0
   59.5463   34.1878   50.9591 H   0  0  0  0  0  0  0  0  0  0  0  0
   60.0544   32.4649   50.9591 H   0  0  0  0  0  0  0  0  0  0  0  0
   63.9135   32.5555   51.2443 H   0  0  0  0  0  0  0  0  0  0  0  0
   65.2814   32.1214   49.2116 H   0  0  0  0  0  0  0  0  0  0  0  0
   64.5025   32.9229   46.9842 H   0  0  0  0  0  0  0  0  0  0  0  0
   62.3711   34.1918   46.7904 H   0  0  0  0  0  0  0  0  0  0  0  0
   58.7556   34.9941   48.3253 H   0  0  0  0  0  0  0  0  0  0  0  0
   59.2837   35.8592   46.2227 H   0  0  0  0  0  0  0  0  0  0  0  0
   60.8872   35.1078   46.1947 H   0  0  0  0  0  0  0  0  0  0  0  0
   58.2780   34.0695   45.1702 H   0  0  0  0  0  0  0  0  0  0  0  0
   59.9093   33.5624   44.7168 H   0  0  0  0  0  0  0  0  0  0  0  0
   57.0549   31.8546   45.0295 H   0  0  0  0  0  0  0  0  0  0  0  0
   57.2720   29.2950   42.0410 H   0  0  0  0  0  0  0  0  0  0  0  0
   55.4840   29.2190   41.9990 H   0  0  0  0  0  0  0  0  0  0  0  0
   58.2667   27.7117   44.6770 H   0  0  0  0  0  0  0  0  0  0  0  0
   60.2961   28.1903   46.0317 H   0  0  0  0  0  0  0  0  0  0  0  0
   60.8087   30.4909   48.2079 H   0  0  0  0  0  0  0  0  0  0  0  0
   61.8138   29.7821   46.8986 H   0  0  0  0  0  0  0  0  0  0  0  0
   61.4490   31.5410   46.8986 H   0  0  0  0  0  0  0  0  0  0  0  0
   58.6953   32.6479   48.5313 H   0  0  0  0  0  0  0  0  0  0  0  0
   60.4135   32.4714   48.1590 H   0  0  0  0  0  0  0  0  0  0  0  0
  1  2  1  0
  2  3  1  0
  3  4  2  0
  4  5  1  0
  5  6  2  0
  6  7  1  0
  7  8  2  0
  8  9  1  0
  9 10  1  0
 10 11  1  0
 11 12  1  0
 12 13  1  0
 13 14  1  0
 14 15  2  0
 15 16  1  0
 16 17  1  0
 17 18  1  0
 17 19  2  0
 16 20  2  0
 20 21  1  0
 21 22  2  0
 22 23  1  0
 13 24  1  0
  8  3  1  0
 24 10  1  0
 22 14  1  0
  1 25  1  0
  1 26  1  0
  1 27  1  0
  4 28  1  0
  5 29  1  0
  6 30  1  0
  7 31  1  0
 10 32  1  1
 11 33  1  0
 11 34  1  0
 12 35  1  0
 12 36  1  0
 15 37  1  0
 18 38  1  0
 18 39  1  0
 20 40  1  0
 21 41  1  0
 23 42  1  0
 23 43  1  0
 23 44  1  0
 24 45  1  0
 24 46  1  0
M  END
>  <UniqueID>  (68) 
66

>  <SMILES>  (68) 
COc1ccccc1O[C@H]1CCN(c2cc(C(N)=O)ccc2C)C1

>  <Energy>  (68) 
57.707777298359034

>  <Genealogy>  (68) 
COc1ccccc1O[C@H]1CCN(c2cc(C(N)=O)ccc2C)C1 (chirality)
COc1ccccc1O[C@H]1CCN(c2cc(C(N)=O)ccc2C)C1 (3D coordinates assigned)
COc1ccccc1O[C@H]1CCN(c2cc(C(N)=O)ccc2C)C1 (nonaromatic ring conformer: 57.707777298359034 kcal/mol)

>  <smiles>  (68) 
COc1ccccc1OC1CCN(c2cc(C(N)=O)ccc2C)C1

>  <score_type>  (68) 
oracle

>  <origin>  (68) 
adg

>  <m_score__min__energy>  (68) 
-8.5399999999999991

>  <m_primary>  (68) 
energy

$$$$
68:0
     RDKit          3D

 42 44  0  0  0  0  0  0  0  0999 V2000
   57.7260   35.0470   44.6980 H   0  0  0  0  0  0  0  0  0  0  0  0
   58.7260   34.8420   44.9180 N   0  0  0  0  0  0  0  0  0  0  0  0
   58.7350   33.5350   46.0480 S   0  0  0  0  0  0  0  0  0  0  0  0
   57.8220   33.8580   47.1970 O   0  0  0  0  0  0  0  0  0  0  0  0
   60.1290   33.3420   46.5790 O   0  0  0  0  0  0  0  0  0  0  0  0
   58.1840   32.0670   45.2500 C   0  0  0  0  0  0  0  0  0  0  0  0
   56.9610   32.0460   44.5640 C   0  0  0  0  0  0  0  0  0  0  0  0
   56.3435   32.9549   44.5140 H   0  0  0  0  0  0  0  0  0  0  0  0
   56.5260   30.8720   43.9440 C   0  0  0  0  0  0  0  0  0  0  0  0
   55.5756   30.8642   43.3902 H   0  0  0  0  0  0  0  0  0  0  0  0
   57.2940   29.7080   44.0250 C   0  0  0  0  0  0  0  0  0  0  0  0
   56.9540   28.7908   43.5219 H   0  0  0  0  0  0  0  0  0  0  0  0
   58.4960   29.7050   44.7450 C   0  0  0  0  0  0  0  0  0  0  0  0
   59.2550   28.4880   44.8270 N   0  0  0  0  0  0  0  0  0  0  0  0
   58.8880   27.3720   45.3960 C   0  0  0  0  0  0  0  0  0  0  0  0
   59.5520   26.8530   46.5630 N   0  0  0  0  0  0  0  0  0  0  0  0
   59.7810   25.8340   46.5760 H   0  0  0  0  0  0  0  0  0  0  0  0
   59.8170   27.6230   47.7490 C   0  0  0  0  0  0  0  0  0  0  0  0
   60.5510   27.0870   48.8220 C   0  0  0  0  0  0  0  0  0  0  0  0
   60.9565   26.0668   48.7534 H   0  0  0  0  0  0  0  0  0  0  0  0
   60.7670   27.8460   49.9750 C   0  0  0  0  0  0  0  0  0  0  0  0
   61.3321   27.4159   50.8150 H   0  0  0  0  0  0  0  0  0  0  0  0
   60.2690   29.1490   50.0670 C   0  0  0  0  0  0  0  0  0  0  0  0
   60.5560   30.0700   51.5370 Cl  0  0  0  0  0  0  0  0  0  0  0  0
   59.5560   29.7000   48.9900 C   0  0  0  0  0  0  0  0  0  0  0  0
   58.9210   31.3390   49.0600 Cl  0  0  0  0  0  0  0  0  0  0  0  0
   59.3370   28.9380   47.8370 C   0  0  0  0  0  0  0  0  0  0  0  0
   58.7836   29.3741   46.9923 H   0  0  0  0  0  0  0  0  0  0  0  0
   57.7800   26.5770   44.7760 C   0  0  0  0  0  0  0  0  0  0  0  0
   56.9582   27.2539   44.4995 H   0  0  0  0  0  0  0  0  0  0  0  0
   58.1637   26.0655   43.8810 H   0  0  0  0  0  0  0  0  0  0  0  0
   57.2680   25.5440   45.7510 C   0  0  0  0  0  0  0  0  0  0  0  0
   55.9760   25.6460   46.2980 C   0  0  0  0  0  0  0  0  0  0  0  0
   55.1520   26.7190   45.9770 O   0  0  0  0  0  0  0  0  0  0  0  0
   55.5190   24.6900   47.1460 N   0  0  0  0  0  0  0  0  0  0  0  0
   56.2870   23.6230   47.4810 C   0  0  0  0  0  0  0  0  0  0  0  0
   55.7090   22.4910   48.5040 S   0  0  0  0  0  0  0  0  0  0  0  0
   57.5350   23.4940   46.9610 N   0  0  0  0  0  0  0  0  0  0  0  0
   58.0390   24.4210   46.1070 C   0  0  0  0  0  0  0  0  0  0  0  0
   59.2000   24.2620   45.6440 O   0  0  0  0  0  0  0  0  0  0  0  0
   58.9550   30.9000   45.3280 C   0  0  0  0  0  0  0  0  0  0  0  0
   59.9243   30.9182   45.8478 H   0  0  0  0  0  0  0  0  0  0  0  0
  1  2  1  0
  2  3  1  0
  3  4  2  0
  3  5  2  0
  3  6  1  0
  6  7  2  0
  7  8  1  0
  7  9  1  0
  9 10  1  0
  9 11  2  0
 11 12  1  0
 11 13  1  0
 13 14  1  0
 14 15  2  0
 15 16  1  0
 16 17  1  0
 16 18  1  0
 18 19  2  0
 19 20  1  0
 19 21  1  0
 21 22  1  0
 21 23  2  0
 23 24  1  0
 23 25  1  0
 25 26  1  0
 25 27  2  0
 27 28  1  0
 15 29  1  0
 29 30  1  0
 29 31  1  0
 29 32  1  0
 32 33  2  0
 33 34  1  0
 33 35  1  0
 35 36  1  0
 36 37  2  0
 36 38  1  0
 38 39  1  0
 39 40  2  0
 13 41  2  0
 41 42  1  0
 41  6  1  0
 27 18  1  0
 39 32  1  0
M  CHG  4   2  -1  34  -1  35  -1  38  -1
M  END
>  <UniqueID>  (69) 
67

>  <SMILES>  (69) 
[NH-]S(=O)(=O)c1cccc(/N=C(/Cc2c([O-])[n-]c(=S)[n-]c2=O)Nc2ccc(Cl)c(Cl)c2)c1

>  <Energy>  (69) 
54.722637216684134

>  <Genealogy>  (69) 
[NH-]S(=O)(=O)c1cccc(N=C(Cc2c([O-])[n-]c(=S)[n-]c2=O)Nc2ccc(Cl)c(Cl)c2)c1 (protonated)
[NH-]S(=O)(=O)c1cccc(/N=C(/Cc2c([O-])[n-]c(=S)[n-]c2=O)Nc2ccc(Cl)c(Cl)c2)c1 (cis-trans isomerization)
[NH-]S(=O)(=O)c1cccc(/N=C(/Cc2c([O-])[n-]c(=S)[n-]c2=O)Nc2ccc(Cl)c(Cl)c2)c1 (3D coordinates assigned)
[NH-]S(=O)(=O)c1cccc(/N=C(/Cc2c([O-])[n-]c(=S)[n-]c2=O)Nc2ccc(Cl)c(Cl)c2)c1 (optimized conformer: 54.722637216684134 kcal/mol)

>  <smiles>  (69) 
NS(=O)(=O)c1cccc(N=C(Cc2c(O)[nH]c(=S)[nH]c2=O)Nc2ccc(Cl)c(Cl)c2)c1

>  <score_type>  (69) 
oracle

>  <origin>  (69) 
adg

>  <m_score__min__energy>  (69) 
-16.510000000000002

>  <m_primary>  (69) 
energy

$$$$
69:0
     RDKit          3D

 32 34  0  0  0  0  0  0  0  0999 V2000
   64.9420   32.3920   49.8850 C   0  0  0  0  0  0  0  0  0  0  0  0
   64.0510   32.7470   48.7420 C   0  0  0  0  0  0  0  0  0  0  0  0
   62.7170   32.4100   48.6130 C   0  0  0  0  0  0  0  0  0  0  0  0
   62.3530   32.9890   47.4140 C   0  0  0  0  0  0  0  0  0  0  0  0
   60.9960   32.9470   46.7840 C   0  0  0  0  0  0  0  0  0  0  0  0
   60.4060   34.6350   46.4020 S   0  0  0  0  0  0  0  0  0  0  0  0
   58.6150   34.2860   46.5320 C   0  0  0  0  0  0  0  0  0  0  0  0
   58.1670   33.3420   45.4520 C   0  0  0  0  0  0  0  0  0  0  0  0
   58.5230   33.5900   44.1010 C   0  0  0  0  0  0  0  0  0  0  0  0
   58.1190   32.7070   43.0830 C   0  0  0  0  0  0  0  0  0  0  0  0
   57.3630   31.5980   43.4470 C   0  0  0  0  0  0  0  0  0  0  0  0
   57.0170   31.3560   44.7360 C   0  0  0  0  0  0  0  0  0  0  0  0
   57.3950   32.2020   45.7740 C   0  0  0  0  0  0  0  0  0  0  0  0
   56.2740   30.1930   44.8020 O   0  0  0  0  0  0  0  0  0  0  0  0
   56.1460   29.6720   43.4720 C   0  0  0  0  0  0  0  0  0  0  0  0
   56.8560   30.5990   42.6380 O   0  0  0  0  0  0  0  0  0  0  0  0
   63.4190   33.6210   46.8900 N   0  0  0  0  0  0  0  0  0  0  0  0
   64.4190   33.4640   47.7050 O   0  0  0  0  0  0  0  0  0  0  0  0
   64.4229   32.5988   50.8325 H   0  0  0  0  0  0  0  0  0  0  0  0
   65.1975   31.3234   49.8326 H   0  0  0  0  0  0  0  0  0  0  0  0
   65.8624   32.9921   49.8326 H   0  0  0  0  0  0  0  0  0  0  0  0
   62.0937   31.8207   49.3017 H   0  0  0  0  0  0  0  0  0  0  0  0
   61.0484   32.3638   45.8528 H   0  0  0  0  0  0  0  0  0  0  0  0
   60.2937   32.4789   47.4895 H   0  0  0  0  0  0  0  0  0  0  0  0
   58.4076   33.8337   47.5130 H   0  0  0  0  0  0  0  0  0  0  0  0
   58.0659   35.2323   46.4182 H   0  0  0  0  0  0  0  0  0  0  0  0
   59.1192   34.4791   43.8478 H   0  0  0  0  0  0  0  0  0  0  0  0
   58.3923   32.8880   42.0330 H   0  0  0  0  0  0  0  0  0  0  0  0
   57.1023   31.9905   46.8130 H   0  0  0  0  0  0  0  0  0  0  0  0
   56.5948   28.6700   43.4048 H   0  0  0  0  0  0  0  0  0  0  0  0
   55.0936   29.5676   43.1695 H   0  0  0  0  0  0  0  0  0  0  0  0
   63.4560   34.1540   45.9920 H   0  0  0  0  0  0  0  0  0  0  0  0
  1  2  1  0
  2  3  2  0
  3  4  1  0
  4  5  1  0
  5  6  1  0
  6  7  1  0
  7  8  1  0
  8  9  2  0
  9 10  1  0
 10 11  2  0
 11 12  1  0
 12 13  2  0
 12 14  1  0
 14 15  1  0
 15 16  1  0
  4 17  2  0
 17 18  1  0
 18  2  1  0
 13  8  1  0
 16 11  1  0
  1 19  1  0
  1 20  1  0
  1 21  1  0
  3 22  1  0
  5 23  1  0
  5 24  1  0
  7 25  1  0
  7 26  1  0
  9 27  1  0
 10 28  1  0
 13 29  1  0
 15 30  1  0
 15 31  1  0
 17 32  1  0
M  CHG  1  17   1
M  END
>  <UniqueID>  (70) 
68

>  <SMILES>  (70) 
Cc1cc(CSCc2ccc3c(c2)OCO3)[nH+]o1

>  <Energy>  (70) 
85.71434064436582

>  <Genealogy>  (70) 
Cc1cc(CSCc2ccc3c(c2)OCO3)[nH+]o1 (protonated)
Cc1cc(CSCc2ccc3c(c2)OCO3)[nH+]o1 (3D coordinates assigned)
Cc1cc(CSCc2ccc3c(c2)OCO3)[nH+]o1 (nonaromatic ring conformer: 85.71434064436582 kcal/mol)

>  <smiles>  (70) 
Cc1cc(CSCc2ccc3c(c2)OCO3)no1

>  <score_type>  (70) 
oracle

>  <origin>  (70) 
adg

>  <m_score__min__energy>  (70) 
-5.4299999999999997

>  <m_primary>  (70) 
energy

$$$$
70:0
     RDKit          3D

 49 52  0  0  0  0  0  0  0  0999 V2000
   55.1480   29.4130   44.2550 O   0  0  0  0  0  0  0  0  0  0  0  0
   56.5150   29.4720   43.6370 S   0  0  0  0  0  0  0  0  0  0  0  0
   56.4310   28.8880   42.2530 O   0  0  0  0  0  0  0  0  0  0  0  0
   57.0210   31.1310   43.5450 N   0  0  0  0  0  0  0  0  0  0  0  0
   57.1070   31.7020   44.8880 C   0  0  0  0  0  0  0  0  0  0  0  0
   58.1870   32.7880   44.9270 C   0  0  0  0  0  0  0  0  0  0  0  0
   57.9790   33.7440   46.0410 N   0  0  0  0  0  0  0  0  0  0  0  0
   58.1690   33.0980   47.3560 C   0  0  0  0  0  0  0  0  0  0  0  0
   59.6220   32.8610   47.6780 C   0  0  0  0  0  0  0  0  0  0  0  0
   60.5970   33.6460   47.1930 C   0  0  0  0  0  0  0  0  0  0  0  0
   62.0040   33.4220   47.5960 C   0  0  0  0  0  0  0  0  0  0  0  0
   63.0890   33.2760   46.7350 C   0  0  0  0  0  0  0  0  0  0  0  0
   64.2320   33.0940   47.4350 N   0  0  0  0  0  0  0  0  0  0  0  0
   63.8840   33.1380   48.7320 C   0  0  0  0  0  0  0  0  0  0  0  0
   64.7340   33.0340   49.8330 C   0  0  0  0  0  0  0  0  0  0  0  0
   64.1680   33.1540   51.1150 C   0  0  0  0  0  0  0  0  0  0  0  0
   62.7840   33.3880   51.2650 C   0  0  0  0  0  0  0  0  0  0  0  0
   61.9510   33.4930   50.1370 C   0  0  0  0  0  0  0  0  0  0  0  0
   62.5340   33.3430   48.8760 C   0  0  0  0  0  0  0  0  0  0  0  0
   60.3110   34.6620   46.1120 C   0  0  0  0  0  0  0  0  0  0  0  0
   58.8120   34.9640   45.9570 C   0  0  0  0  0  0  0  0  0  0  0  0
   57.6370   28.5380   44.6310 C   0  0  0  0  0  0  0  0  0  0  0  0
   59.0170   28.7690   44.5170 C   0  0  0  0  0  0  0  0  0  0  0  0
   59.9220   28.0310   45.2850 C   0  0  0  0  0  0  0  0  0  0  0  0
   59.4560   27.0540   46.1680 C   0  0  0  0  0  0  0  0  0  0  0  0
   58.0850   26.8110   46.2810 C   0  0  0  0  0  0  0  0  0  0  0  0
   57.1740   27.5470   45.5160 C   0  0  0  0  0  0  0  0  0  0  0  0
   55.8490   27.2800   45.6310 F   0  0  0  0  0  0  0  0  0  0  0  0
   56.1366   32.1433   45.1591 H   0  0  0  0  0  0  0  0  0  0  0  0
   57.3678   30.9073   45.6024 H   0  0  0  0  0  0  0  0  0  0  0  0
   59.1686   32.3073   45.0511 H   0  0  0  0  0  0  0  0  0  0  0  0
   58.1340   33.3514   43.9837 H   0  0  0  0  0  0  0  0  0  0  0  0
   57.7366   33.7456   48.1329 H   0  0  0  0  0  0  0  0  0  0  0  0
   57.6700   32.1183   47.3223 H   0  0  0  0  0  0  0  0  0  0  0  0
   59.8922   32.0181   48.3311 H   0  0  0  0  0  0  0  0  0  0  0  0
   63.0252   33.3047   45.6372 H   0  0  0  0  0  0  0  0  0  0  0  0
   65.1900   32.9600   47.0430 H   0  0  0  0  0  0  0  0  0  0  0  0
   65.8129   32.8635   49.7028 H   0  0  0  0  0  0  0  0  0  0  0  0
   64.8074   33.0650   52.0057 H   0  0  0  0  0  0  0  0  0  0  0  0
   62.3537   33.4890   52.2723 H   0  0  0  0  0  0  0  0  0  0  0  0
   60.8736   33.6872   50.2440 H   0  0  0  0  0  0  0  0  0  0  0  0
   60.8335   35.5971   46.3620 H   0  0  0  0  0  0  0  0  0  0  0  0
   60.6628   34.2388   45.1596 H   0  0  0  0  0  0  0  0  0  0  0  0
   58.5066   35.6559   46.7558 H   0  0  0  0  0  0  0  0  0  0  0  0
   58.6602   35.4058   44.9611 H   0  0  0  0  0  0  0  0  0  0  0  0
   59.3879   29.5347   43.8197 H   0  0  0  0  0  0  0  0  0  0  0  0
   61.0019   28.2196   45.1941 H   0  0  0  0  0  0  0  0  0  0  0  0
   60.1688   26.4759   46.7745 H   0  0  0  0  0  0  0  0  0  0  0  0
   57.7206   26.0383   46.9739 H   0  0  0  0  0  0  0  0  0  0  0  0
  1  2  2  0
  2  3  2  0
  2  4  1  0
  4  5  1  0
  5  6  1  0
  6  7  1  0
  7  8  1  0
  8  9  1  0
  9 10  2  0
 10 11  1  0
 11 12  2  0
 12 13  1  0
 13 14  1  0
 14 15  2  0
 15 16  1  0
 16 17  2  0
 17 18  1  0
 18 19  2  0
 10 20  1  0
 20 21  1  0
  2 22  1  0
 22 23  2  0
 23 24  1  0
 24 25  2  0
 25 26  1  0
 26 27  2  0
 27 28  1  0
 21  7  1  0
 27 22  1  0
 19 11  1  0
 19 14  1  0
  5 29  1  0
  5 30  1  0
  6 31  1  0
  6 32  1  0
  8 33  1  0
  8 34  1  0
  9 35  1  0
 12 36  1  0
 13 37  1  0
 15 38  1  0
 16 39  1  0
 17 40  1  0
 18 41  1  0
 20 42  1  0
 20 43  1  0
 21 44  1  0
 21 45  1  0
 23 46  1  0
 24 47  1  0
 25 48  1  0
 26 49  1  0
M  CHG  1   4  -1
M  END
>  <UniqueID>  (71) 
69

>  <SMILES>  (71) 
O=S(=O)([N-]CCN1CC=C(c2c[nH]c3ccccc23)CC1)c1ccccc1F

>  <Energy>  (71) 
92.74802122619653

>  <Genealogy>  (71) 
O=S(=O)([N-]CCN1CC=C(c2c[nH]c3ccccc23)CC1)c1ccccc1F (protonated)
O=S(=O)([N-]CCN1CC=C(c2c[nH]c3ccccc23)CC1)c1ccccc1F (3D coordinates assigned)
O=S(=O)([N-]CCN1CC=C(c2c[nH]c3ccccc23)CC1)c1ccccc1F (nonaromatic ring conformer: 92.74802122619653 kcal/mol)

>  <smiles>  (71) 
O=S(=O)(NCCN1CC=C(c2c[nH]c3ccccc23)CC1)c1ccccc1F

>  <score_type>  (71) 
oracle

>  <origin>  (71) 
adg

>  <m_score__min__energy>  (71) 
-11.66

>  <m_primary>  (71) 
energy

$$$$
71:0
     RDKit          3D

 36 37  0  0  0  0  0  0  0  0999 V2000
   55.8970   20.9940   43.6930 N   0  0  0  0  0  0  0  0  0  0  0  0
   55.9920   22.6270   43.1370 S   0  0  0  0  0  0  0  0  0  0  0  0
   54.6440   23.0630   42.6350 O   0  0  0  0  0  0  0  0  0  0  0  0
   56.9790   22.7180   42.0080 O   0  0  0  0  0  0  0  0  0  0  0  0
   56.5020   23.6700   44.4620 C   0  0  0  0  0  0  0  0  0  0  0  0
   57.7210   23.4430   45.1070 C   0  0  0  0  0  0  0  0  0  0  0  0
   58.1300   24.2750   46.1520 C   0  0  0  0  0  0  0  0  0  0  0  0
   57.3320   25.3610   46.5540 C   0  0  0  0  0  0  0  0  0  0  0  0
   57.7430   26.1870   47.6560 N   0  0  0  0  0  0  0  0  0  0  0  0
   58.0490   27.5820   47.5200 C   0  0  0  0  0  0  0  0  0  0  0  0
   58.9560   28.3100   48.6790 S   0  0  0  0  0  0  0  0  0  0  0  0
   57.4730   28.3510   46.4490 N   0  0  0  0  0  0  0  0  0  0  0  0
   57.9510   29.6860   46.0880 C   0  0  0  0  0  0  0  0  0  0  0  0
   57.4770   30.0610   44.7080 C   0  0  0  0  0  0  0  0  0  0  0  0
   58.2970   30.8380   43.8710 C   0  0  0  0  0  0  0  0  0  0  0  0
   57.8490   31.2200   42.6020 C   0  0  0  0  0  0  0  0  0  0  0  0
   56.5800   30.8390   42.1630 C   0  0  0  0  0  0  0  0  0  0  0  0
   55.7510   30.0810   42.9940 C   0  0  0  0  0  0  0  0  0  0  0  0
   56.1910   29.6950   44.2650 C   0  0  0  0  0  0  0  0  0  0  0  0
   55.3460   28.9520   45.0830 O   0  0  0  0  0  0  0  0  0  0  0  0
   56.1030   25.5930   45.8970 C   0  0  0  0  0  0  0  0  0  0  0  0
   55.2790   26.6660   46.2400 O   0  0  0  0  0  0  0  0  0  0  0  0
   55.6990   24.7470   44.8590 C   0  0  0  0  0  0  0  0  0  0  0  0
   55.2850   20.9940   44.5390 H   0  0  0  0  0  0  0  0  0  0  0  0
   58.3608   22.6060   44.7906 H   0  0  0  0  0  0  0  0  0  0  0  0
   59.0835   24.0792   46.6643 H   0  0  0  0  0  0  0  0  0  0  0  0
   57.8850   25.7360   48.5890 H   0  0  0  0  0  0  0  0  0  0  0  0
   56.6970   27.9220   45.8950 H   0  0  0  0  0  0  0  0  0  0  0  0
   57.5658   30.4170   46.8141 H   0  0  0  0  0  0  0  0  0  0  0  0
   59.0510   29.6848   46.0982 H   0  0  0  0  0  0  0  0  0  0  0  0
   59.2950   31.1468   44.2154 H   0  0  0  0  0  0  0  0  0  0  0  0
   58.4981   31.8218   41.9489 H   0  0  0  0  0  0  0  0  0  0  0  0
   56.2324   31.1356   41.1624 H   0  0  0  0  0  0  0  0  0  0  0  0
   54.7492   29.7867   42.6479 H   0  0  0  0  0  0  0  0  0  0  0  0
   55.1400   27.4670   45.6390 H   0  0  0  0  0  0  0  0  0  0  0  0
   54.7413   24.9292   44.3494 H   0  0  0  0  0  0  0  0  0  0  0  0
  1  2  1  0
  2  3  2  0
  2  4  2  0
  2  5  1  0
  5  6  2  0
  6  7  1  0
  7  8  2  0
  8  9  1  0
  9 10  1  0
 10 11  2  0
 10 12  1  0
 12 13  1  0
 13 14  1  0
 14 15  2  0
 15 16  1  0
 16 17  2  0
 17 18  1  0
 18 19  2  0
 19 20  1  0
  8 21  1  0
 21 22  1  0
 21 23  2  0
 23  5  1  0
 19 14  1  0
  1 24  1  0
  6 25  1  0
  7 26  1  0
  9 27  1  0
 12 28  1  0
 13 29  1  0
 13 30  1  0
 15 31  1  0
 16 32  1  0
 17 33  1  0
 18 34  1  0
 22 35  1  0
 23 36  1  0
M  CHG  2   1  -1  20  -1
M  END
>  <UniqueID>  (72) 
70

>  <SMILES>  (72) 
[NH-]S(=O)(=O)c1ccc(NC(=S)NCc2ccccc2[O-])c(O)c1

>  <Energy>  (72) 
40.179347616594676

>  <Genealogy>  (72) 
[NH-]S(=O)(=O)c1ccc(NC(=S)NCc2ccccc2[O-])c(O)c1 (protonated)
[NH-]S(=O)(=O)c1ccc(NC(=S)NCc2ccccc2[O-])c(O)c1 (3D coordinates assigned)
[NH-]S(=O)(=O)c1ccc(NC(=S)NCc2ccccc2[O-])c(O)c1 (optimized conformer: 40.179347616594676 kcal/mol)

>  <smiles>  (72) 
NS(=O)(=O)c1ccc(NC(=S)NCc2ccccc2O)c(O)c1

>  <score_type>  (72) 
oracle

>  <origin>  (72) 
adg

>  <m_score__min__energy>  (72) 
-12.01

>  <m_primary>  (72) 
energy

$$$$
72:0
     RDKit          3D

 46 48  0  0  0  0  0  0  0  0999 V2000
   55.2780   29.2250   44.9030 N   0  0  0  0  0  0  0  0  0  0  0  0
   56.5050   29.9400   45.0330 C   0  0  0  0  0  0  0  0  0  0  0  0
   57.2110   29.7680   46.0610 O   0  0  0  0  0  0  0  0  0  0  0  0
   56.9500   30.8460   43.9510 C   0  0  0  0  0  0  0  0  0  0  0  0
   56.5460   30.6720   42.6150 C   0  0  0  0  0  0  0  0  0  0  0  0
   57.0950   31.5920   41.7320 C   0  0  0  0  0  0  0  0  0  0  0  0
   58.0820   32.6360   42.6010 S   0  0  0  0  0  0  0  0  0  0  0  0
   57.8330   31.9210   44.1050 C   0  0  0  0  0  0  0  0  0  0  0  0
   58.3300   32.4340   45.3510 N   0  0  0  0  0  0  0  0  0  0  0  0
   58.7210   33.8000   45.5490 C   0  0  0  0  0  0  0  0  0  0  0  0
   58.7920   34.5980   44.5740 O   0  0  0  0  0  0  0  0  0  0  0  0
   59.0950   34.2780   46.9200 C   0  0  0  0  0  0  0  0  0  0  0  0
   59.7250   33.1810   47.6820 N   0  0  0  0  0  0  0  0  0  0  0  0
   61.1150   33.4670   48.1230 C   0  0  0  0  0  0  0  0  0  0  0  0
   62.0320   32.2470   48.3180 C   0  0  0  0  0  0  0  0  0  0  0  0
   61.3500   31.0840   49.0420 C   0  0  0  0  0  0  0  0  0  0  0  0
   60.2750   30.5250   48.2010 N   0  0  0  0  0  0  0  0  0  0  0  0
   60.3570   29.0490   48.0930 C   0  0  0  0  0  0  0  0  0  0  0  0
   59.9430   28.5230   46.7430 C   0  0  0  0  0  0  0  0  0  0  0  0
   60.3400   29.0270   45.5110 C   0  0  0  0  0  0  0  0  0  0  0  0
   59.8060   28.3200   44.4280 C   0  0  0  0  0  0  0  0  0  0  0  0
   58.9870   27.2620   44.8010 C   0  0  0  0  0  0  0  0  0  0  0  0
   58.9290   27.2050   46.4810 S   0  0  0  0  0  0  0  0  0  0  0  0
   58.9350   30.9720   48.6300 C   0  0  0  0  0  0  0  0  0  0  0  0
   58.8220   32.5100   48.6430 C   0  0  0  0  0  0  0  0  0  0  0  0
   54.4920   29.3820   45.5730 H   0  0  0  0  0  0  0  0  0  0  0  0
   55.8556   29.8767   42.2976 H   0  0  0  0  0  0  0  0  0  0  0  0
   56.9142   31.6304   40.6476 H   0  0  0  0  0  0  0  0  0  0  0  0
   58.3890   31.7900   46.1720 H   0  0  0  0  0  0  0  0  0  0  0  0
   59.8032   35.1152   46.8335 H   0  0  0  0  0  0  0  0  0  0  0  0
   58.1883   34.6099   47.4469 H   0  0  0  0  0  0  0  0  0  0  0  0
   61.5792   34.1180   47.3676 H   0  0  0  0  0  0  0  0  0  0  0  0
   61.0190   33.9244   49.1188 H   0  0  0  0  0  0  0  0  0  0  0  0
   62.3615   31.8968   47.3287 H   0  0  0  0  0  0  0  0  0  0  0  0
   62.8748   32.5712   48.9461 H   0  0  0  0  0  0  0  0  0  0  0  0
   62.0927   30.3002   49.2519 H   0  0  0  0  0  0  0  0  0  0  0  0
   60.9167   31.4505   49.9843 H   0  0  0  0  0  0  0  0  0  0  0  0
   61.3964   28.7429   48.2825 H   0  0  0  0  0  0  0  0  0  0  0  0
   59.6584   28.6304   48.8324 H   0  0  0  0  0  0  0  0  0  0  0  0
   61.0069   29.8944   45.3981 H   0  0  0  0  0  0  0  0  0  0  0  0
   60.0152   28.5779   43.3793 H   0  0  0  0  0  0  0  0  0  0  0  0
   58.4655   26.5783   44.1150 H   0  0  0  0  0  0  0  0  0  0  0  0
   58.1848   30.5656   47.9358 H   0  0  0  0  0  0  0  0  0  0  0  0
   58.7642   30.6077   49.6538 H   0  0  0  0  0  0  0  0  0  0  0  0
   57.7859   32.7842   48.3955 H   0  0  0  0  0  0  0  0  0  0  0  0
   59.1162   32.8454   49.6485 H   0  0  0  0  0  0  0  0  0  0  0  0
  1  2  1  0
  2  3  2  0
  2  4  1  0
  4  5  1  0
  5  6  2  0
  6  7  1  0
  7  8  1  0
  8  9  1  0
  9 10  1  0
 10 11  2  0
 10 12  1  0
 12 13  1  0
 13 14  1  0
 14 15  1  0
 15 16  1  0
 16 17  1  0
 17 18  1  0
 18 19  1  0
 19 20  2  0
 20 21  1  0
 21 22  2  0
 22 23  1  0
 17 24  1  0
 24 25  1  0
  8  4  2  0
 25 13  1  0
 23 19  1  0
  1 26  1  0
  5 27  1  0
  6 28  1  0
  9 29  1  0
 12 30  1  0
 12 31  1  0
 14 32  1  0
 14 33  1  0
 15 34  1  0
 15 35  1  0
 16 36  1  0
 16 37  1  0
 18 38  1  0
 18 39  1  0
 20 40  1  0
 21 41  1  0
 22 42  1  0
 24 43  1  0
 24 44  1  0
 25 45  1  0
 25 46  1  0
M  CHG  1   1  -1
M  END
>  <UniqueID>  (73) 
71

>  <SMILES>  (73) 
[NH-]C(=O)c1ccsc1NC(=O)CN1CCCN(Cc2cccs2)CC1

>  <Energy>  (73) 
116.76557451751631

>  <Genealogy>  (73) 
[NH-]C(=O)c1ccsc1NC(=O)CN1CCCN(Cc2cccs2)CC1 (protonated)
[NH-]C(=O)c1ccsc1NC(=O)CN1CCCN(Cc2cccs2)CC1 (3D coordinates assigned)
[NH-]C(=O)c1ccsc1NC(=O)CN1CCCN(Cc2cccs2)CC1 (nonaromatic ring conformer: 116.76557451751631 kcal/mol)

>  <smiles>  (73) 
NC(=O)c1ccsc1NC(=O)CN1CCCN(Cc2cccs2)CC1

>  <score_type>  (73) 
oracle

>  <origin>  (73) 
adg

>  <m_score__min__energy>  (73) 
-9.0500000000000007

>  <m_primary>  (73) 
energy

$$$$
73:0
     RDKit          3D

 52 54  0  0  0  0  0  0  0  0999 V2000
   62.6410   33.7140   49.3690 C   0  0  0  0  0  0  0  0  0  0  0  0
   61.4910   33.8430   48.4040 C   0  0  0  0  0  0  0  0  0  0  0  0
   60.1770   33.8790   48.9010 C   0  0  0  0  0  0  0  0  0  0  0  0
   59.0910   33.9820   48.0310 C   0  0  0  0  0  0  0  0  0  0  0  0
   59.2920   34.0620   46.6490 C   0  0  0  0  0  0  0  0  0  0  0  0
   58.1530   34.1240   45.7720 N   0  0  0  0  0  0  0  0  0  0  0  0
   57.8530   33.1230   44.7910 C   0  0  0  0  0  0  0  0  0  0  0  0
   57.1770   31.9580   45.1700 C   0  0  0  0  0  0  0  0  0  0  0  0
   56.9670   30.9370   44.2300 C   0  0  0  0  0  0  0  0  0  0  0  0
   56.3940   29.6370   44.6470 C   0  0  0  0  0  0  0  0  0  0  0  0
   55.1550   29.5270   44.8530 O   0  0  0  0  0  0  0  0  0  0  0  0
   57.2260   28.4840   44.8060 N   0  0  0  0  0  0  0  0  0  0  0  0
   57.4320   27.8450   46.1020 C   0  0  0  0  0  0  0  0  0  0  0  0
   57.1800   26.3600   46.0090 C   0  0  0  0  0  0  0  0  0  0  0  0
   58.2770   25.4890   45.9380 C   0  0  0  0  0  0  0  0  0  0  0  0
   58.0790   24.1200   45.7740 C   0  0  0  0  0  0  0  0  0  0  0  0
   56.7890   23.6050   45.6820 C   0  0  0  0  0  0  0  0  0  0  0  0
   55.6710   24.4460   45.7530 C   0  0  0  0  0  0  0  0  0  0  0  0
   54.3800   23.8180   45.6590 N   0  0  0  0  0  0  0  0  0  0  0  0
   53.8070   22.3560   46.3960 S   0  0  0  0  0  0  0  0  0  0  0  0
   55.0610   21.0920   46.3430 C   0  0  0  0  0  0  0  0  0  0  0  0
   53.4980   22.6450   47.8370 O   0  0  0  0  0  0  0  0  0  0  0  0
   52.5450   21.8910   45.7260 O   0  0  0  0  0  0  0  0  0  0  0  0
   55.8700   25.8400   45.9150 C   0  0  0  0  0  0  0  0  0  0  0  0
   54.7950   26.7150   45.9820 O   0  0  0  0  0  0  0  0  0  0  0  0
   57.3510   31.1540   42.8970 C   0  0  0  0  0  0  0  0  0  0  0  0
   57.9770   32.3530   42.5460 C   0  0  0  0  0  0  0  0  0  0  0  0
   58.3300   32.5570   41.3550 O   0  0  0  0  0  0  0  0  0  0  0  0
   58.2220   33.2960   43.4920 N   0  0  0  0  0  0  0  0  0  0  0  0
   60.6020   34.0010   46.1430 C   0  0  0  0  0  0  0  0  0  0  0  0
   61.7040   33.8910   47.0060 C   0  0  0  0  0  0  0  0  0  0  0  0
   63.0930   33.8230   46.4250 C   0  0  0  0  0  0  0  0  0  0  0  0
   62.2608   33.7567   50.4003 H   0  0  0  0  0  0  0  0  0  0  0  0
   63.1508   32.7530   49.2056 H   0  0  0  0  0  0  0  0  0  0  0  0
   63.3510   34.5381   49.2056 H   0  0  0  0  0  0  0  0  0  0  0  0
   60.0030   33.8255   49.9858 H   0  0  0  0  0  0  0  0  0  0  0  0
   58.0682   34.0004   48.4353 H   0  0  0  0  0  0  0  0  0  0  0  0
   57.4780   34.9120   45.8940 H   0  0  0  0  0  0  0  0  0  0  0  0
   56.8114   31.8427   46.2010 H   0  0  0  0  0  0  0  0  0  0  0  0
   58.4684   28.0159   46.4285 H   0  0  0  0  0  0  0  0  0  0  0  0
   56.7278   28.2791   46.8270 H   0  0  0  0  0  0  0  0  0  0  0  0
   59.2990   25.8890   46.0122 H   0  0  0  0  0  0  0  0  0  0  0  0
   58.9447   23.4437   45.7170 H   0  0  0  0  0  0  0  0  0  0  0  0
   56.6455   22.5222   45.5517 H   0  0  0  0  0  0  0  0  0  0  0  0
   55.3409   20.8099   47.3687 H   0  0  0  0  0  0  0  0  0  0  0  0
   54.6707   20.2102   45.8138 H   0  0  0  0  0  0  0  0  0  0  0  0
   55.9459   21.4753   45.8138 H   0  0  0  0  0  0  0  0  0  0  0  0
   57.1603   30.3851   42.1339 H   0  0  0  0  0  0  0  0  0  0  0  0
   60.7660   34.0400   45.0560 H   0  0  0  0  0  0  0  0  0  0  0  0
   63.8302   33.7869   47.2406 H   0  0  0  0  0  0  0  0  0  0  0  0
   63.1873   32.9192   45.8052 H   0  0  0  0  0  0  0  0  0  0  0  0
   63.2752   34.7133   45.8052 H   0  0  0  0  0  0  0  0  0  0  0  0
  1  2  1  0
  2  3  2  0
  3  4  1  0
  4  5  2  0
  5  6  1  0
  6  7  1  0
  7  8  2  0
  8  9  1  0
  9 10  1  0
 10 11  2  0
 10 12  1  0
 12 13  1  0
 13 14  1  0
 14 15  2  0
 15 16  1  0
 16 17  2  0
 17 18  1  0
 18 19  1  0
 19 20  1  0
 20 21  1  0
 20 22  2  0
 20 23  2  0
 18 24  2  0
 24 25  1  0
  9 26  2  0
 26 27  1  0
 27 28  2  0
 27 29  1  0
  5 30  1  0
 30 31  2  0
 31 32  1  0
 31  2  1  0
 29  7  1  0
 24 14  1  0
  1 33  1  0
  1 34  1  0
  1 35  1  0
  3 36  1  0
  4 37  1  0
  6 38  1  0
  8 39  1  0
 13 40  1  0
 13 41  1  0
 15 42  1  0
 16 43  1  0
 17 44  1  0
 21 45  1  0
 21 46  1  0
 21 47  1  0
 26 48  1  0
 30 49  1  0
 32 50  1  0
 32 51  1  0
 32 52  1  0
M  CHG  4  12  -1  19  -1  25  -1  29  -1
M  END
>  <UniqueID>  (74) 
72

>  <SMILES>  (74) 
Cc1ccc(Nc2cc(C(=O)[N-]Cc3cccc([N-]S(C)(=O)=O)c3[O-])cc(=O)[n-]2)cc1C

>  <Energy>  (74) 
63.337945191666265

>  <Genealogy>  (74) 
Cc1ccc(Nc2cc(C(=O)[N-]Cc3cccc([N-]S(C)(=O)=O)c3[O-])cc(=O)[n-]2)cc1C (protonated)
Cc1ccc(Nc2cc(C(=O)[N-]Cc3cccc([N-]S(C)(=O)=O)c3[O-])cc(=O)[n-]2)cc1C (3D coordinates assigned)
Cc1ccc(Nc2cc(C(=O)[N-]Cc3cccc([N-]S(C)(=O)=O)c3[O-])cc(=O)[n-]2)cc1C (optimized conformer: 63.337945191666265 kcal/mol)

>  <smiles>  (74) 
Cc1ccc(Nc2cc(C(=O)NCc3cccc(NS(C)(=O)=O)c3O)cc(=O)[nH]2)cc1C

>  <score_type>  (74) 
oracle

>  <origin>  (74) 
adg

>  <m_score__min__energy>  (74) 
-18.07

>  <m_primary>  (74) 
energy

$$$$
74:0
     RDKit          3D

 48 50  0  0  1  0  0  0  0  0999 V2000
   63.3710   33.8680   46.3720 C   0  0  0  0  0  0  0  0  0  0  0  0
   63.5070   32.7450   47.3780 C   0  0  0  0  0  0  0  0  0  0  0  0
   62.5200   32.8660   48.4320 N   0  0  0  0  0  0  0  0  0  0  0  0
   61.1850   32.6200   48.2040 C   0  0  0  0  0  0  0  0  0  0  0  0
   61.0040   32.3060   47.0430 O   0  0  0  0  0  0  0  0  0  0  0  0
   60.3620   32.7660   49.2660 C   0  0  0  0  0  0  0  0  0  0  0  0
   59.0110   32.5410   49.1350 C   0  0  0  0  0  0  0  0  0  0  0  0
   58.5240   32.1930   48.0990 N   0  0  0  0  0  0  0  0  0  0  0  0
   58.3730   32.5310   46.8340 C   0  0  0  0  0  0  0  0  0  0  0  0
   58.1150   33.8790   46.4310 C   0  0  0  0  0  0  0  0  0  0  0  0
   57.8100   34.1550   45.1160 C   0  0  0  0  0  0  0  0  0  0  0  0
   57.7360   33.1840   44.1400 C   0  0  0  0  0  0  0  0  0  0  0  0
   57.9860   31.8700   44.5280 C   0  0  0  0  0  0  0  0  0  0  0  0
   57.9020   30.8920   43.4980 N   0  0  0  0  0  0  0  0  0  0  0  0
   56.8500   29.5390   43.6960 S   0  0  0  0  0  0  0  0  0  0  0  0
   57.7840   28.0640   44.0140 C   0  0  0  0  0  0  0  0  0  0  0  0
   55.9990   29.3390   42.4770 O   0  0  0  0  0  0  0  0  0  0  0  0
   55.9150   29.7250   44.8450 O   0  0  0  0  0  0  0  0  0  0  0  0
   58.2950   31.5300   45.8190 C   0  0  0  0  0  0  0  0  0  0  0  0
   58.2080   32.7020   50.2320 N   0  0  0  0  0  0  0  0  0  0  0  0
   58.6580   33.0670   51.4370 C   0  0  0  0  0  0  0  0  0  0  0  0
   57.7260   33.2230   52.5870 C   0  0  0  0  0  0  0  0  0  0  0  0
   59.9740   33.2870   51.5730 N   0  0  0  0  0  0  0  0  0  0  0  0
   60.7870   33.1370   50.5110 C   0  0  0  0  0  0  0  0  0  0  0  0
   62.0830   33.3660   50.6920 N   0  0  0  0  0  0  0  0  0  0  0  0
   62.5680   33.7530   51.9700 C   0  0  0  0  0  0  0  0  0  0  0  0
   62.8930   33.2210   49.6450 C   0  0  0  0  0  0  0  0  0  0  0  0
   64.1160   33.4410   49.8300 O   0  0  0  0  0  0  0  0  0  0  0  0
   63.2552   34.8242   46.9033 H   0  0  0  0  0  0  0  0  0  0  0  0
   64.2711   33.9059   45.7409 H   0  0  0  0  0  0  0  0  0  0  0  0
   62.4879   33.6899   45.7409 H   0  0  0  0  0  0  0  0  0  0  0  0
   63.3669   31.7829   46.8635 H   0  0  0  0  0  0  0  0  0  0  0  0
   64.5086   32.8000   47.8295 H   0  0  0  0  0  0  0  0  0  0  0  0
   58.1600   34.6933   47.1691 H   0  0  0  0  0  0  0  0  0  0  0  0
   57.6163   35.1997   44.8313 H   0  0  0  0  0  0  0  0  0  0  0  0
   57.4897   33.4366   43.0981 H   0  0  0  0  0  0  0  0  0  0  0  0
   58.4630   30.9690   42.6170 H   0  0  0  0  0  0  0  0  0  0  0  0
   57.8776   27.9162   45.1000 H   0  0  0  0  0  0  0  0  0  0  0  0
   57.2679   27.2002   43.5696 H   0  0  0  0  0  0  0  0  0  0  0  0
   58.7855   28.1612   43.5696 H   0  0  0  0  0  0  0  0  0  0  0  0
   58.4845   30.4772   46.0754 H   0  0  0  0  0  0  0  0  0  0  0  0
   57.1740   32.5380   50.1640 H   0  0  0  0  0  0  0  0  0  0  0  0
   58.2867   33.1292   53.5287 H   0  0  0  0  0  0  0  0  0  0  0  0
   57.2495   34.2134   52.5411 H   0  0  0  0  0  0  0  0  0  0  0  0
   56.9530   32.4417   52.5411 H   0  0  0  0  0  0  0  0  0  0  0  0
   61.9639   33.2710   52.7528 H   0  0  0  0  0  0  0  0  0  0  0  0
   63.6180   33.4418   52.0734 H   0  0  0  0  0  0  0  0  0  0  0  0
   62.4976   34.8459   52.0734 H   0  0  0  0  0  0  0  0  0  0  0  0
  1  2  1  0
  2  3  1  0
  3  4  1  0
  4  5  2  0
  4  6  1  0
  6  7  1  0
  7  8  2  0
  8  9  1  0
  9 10  2  0
 10 11  1  0
 11 12  2  0
 12 13  1  0
 13 14  1  0
 14 15  1  0
 15 16  1  0
 15 17  2  0
 15 18  2  0
 13 19  2  0
  7 20  1  0
 20 21  1  0
 21 22  1  0
 21 23  2  0
 23 24  1  0
 24 25  1  0
 25 26  1  0
 25 27  1  0
 27 28  2  0
 27  3  1  0
 24  6  2  0
 19  9  1  0
  1 29  1  0
  1 30  1  0
  1 31  1  0
  2 32  1  0
  2 33  1  0
 10 34  1  0
 11 35  1  0
 12 36  1  0
 14 37  1  0
 16 38  1  0
 16 39  1  0
 16 40  1  0
 19 41  1  0
 20 42  1  0
 22 43  1  0
 22 44  1  0
 22 45  1  0
 26 46  1  0
 26 47  1  0
 26 48  1  0
M  END
>  <smiles>  (75) 
CCn1c(=O)c2c(=Nc3cccc(NS(C)(=O)=O)c3)[nH]c(C)nc2n(C)c1=O

>  <score_type>  (75) 
oracle

>  <origin>  (75) 
adg

>  <m_score__min__energy>  (75) 
-8.6600000000000001

>  <m_primary>  (75) 
energy

$$$$
75:0
     RDKit          3D

 36 38  0  0  0  0  0  0  0  0999 V2000
   63.0720   32.4900   46.9210 O   0  0  0  0  0  0  0  0  0  0  0  0
   62.1230   32.5480   47.7510 C   0  0  0  0  0  0  0  0  0  0  0  0
   61.8470   31.4400   48.6130 N   0  0  0  0  0  0  0  0  0  0  0  0
   61.0510   30.2870   48.2090 C   0  0  0  0  0  0  0  0  0  0  0  0
   60.8060   30.3100   46.6980 C   0  0  0  0  0  0  0  0  0  0  0  0
   59.4460   29.7710   46.3770 C   0  0  0  0  0  0  0  0  0  0  0  0
   58.7890   28.7320   47.0300 C   0  0  0  0  0  0  0  0  0  0  0  0
   57.5480   28.5640   46.5190 N   0  0  0  0  0  0  0  0  0  0  0  0
   57.4110   29.4950   45.5580 C   0  0  0  0  0  0  0  0  0  0  0  0
   56.2940   29.7330   44.7560 C   0  0  0  0  0  0  0  0  0  0  0  0
   55.1460   28.9600   44.8770 O   0  0  0  0  0  0  0  0  0  0  0  0
   56.3630   30.7820   43.8200 C   0  0  0  0  0  0  0  0  0  0  0  0
   57.5340   31.5660   43.7110 C   0  0  0  0  0  0  0  0  0  0  0  0
   58.6450   31.3060   44.5340 C   0  0  0  0  0  0  0  0  0  0  0  0
   58.5480   30.2550   45.4470 C   0  0  0  0  0  0  0  0  0  0  0  0
   61.2880   33.7070   47.8130 N   0  0  0  0  0  0  0  0  0  0  0  0
   60.0270   33.8340   47.1460 C   0  0  0  0  0  0  0  0  0  0  0  0
   59.9990   34.4180   45.8720 C   0  0  0  0  0  0  0  0  0  0  0  0
   58.7900   34.5630   45.1860 C   0  0  0  0  0  0  0  0  0  0  0  0
   57.6010   34.1070   45.7600 C   0  0  0  0  0  0  0  0  0  0  0  0
   57.6220   33.4930   47.0140 C   0  0  0  0  0  0  0  0  0  0  0  0
   58.8290   33.3430   47.7100 C   0  0  0  0  0  0  0  0  0  0  0  0
   58.8090   32.4540   49.2300 Cl  0  0  0  0  0  0  0  0  0  0  0  0
   61.5882   29.3647   48.4750 H   0  0  0  0  0  0  0  0  0  0  0  0
   60.0818   30.3233   48.7280 H   0  0  0  0  0  0  0  0  0  0  0  0
   60.8793   31.3460   46.3355 H   0  0  0  0  0  0  0  0  0  0  0  0
   61.5624   29.6807   46.2061 H   0  0  0  0  0  0  0  0  0  0  0  0
   59.2183   28.1324   47.8462 H   0  0  0  0  0  0  0  0  0  0  0  0
   56.8390   27.8600   46.8230 H   0  0  0  0  0  0  0  0  0  0  0  0
   55.5010   30.9927   43.1699 H   0  0  0  0  0  0  0  0  0  0  0  0
   57.5769   32.3849   42.9778 H   0  0  0  0  0  0  0  0  0  0  0  0
   59.5604   31.9115   44.4602 H   0  0  0  0  0  0  0  0  0  0  0  0
   60.9348   34.7645   45.4091 H   0  0  0  0  0  0  0  0  0  0  0  0
   58.7748   35.0366   44.1933 H   0  0  0  0  0  0  0  0  0  0  0  0
   56.6484   34.2315   45.2243 H   0  0  0  0  0  0  0  0  0  0  0  0
   56.6854   33.1248   47.4582 H   0  0  0  0  0  0  0  0  0  0  0  0
  1  2  2  0
  2  3  1  0
  3  4  1  0
  4  5  1  0
  5  6  1  0
  6  7  2  0
  7  8  1  0
  8  9  1  0
  9 10  2  0
 10 11  1  0
 10 12  1  0
 12 13  2  0
 13 14  1  0
 14 15  2  0
  2 16  1  0
 16 17  1  0
 17 18  2  0
 18 19  1  0
 19 20  2  0
 20 21  1  0
 21 22  2  0
 22 23  1  0
 15  6  1  0
 22 17  1  0
 15  9  1  0
  4 24  1  0
  4 25  1  0
  5 26  1  0
  5 27  1  0
  7 28  1  0
  8 29  1  0
 12 30  1  0
 13 31  1  0
 14 32  1  0
 18 33  1  0
 19 34  1  0
 20 35  1  0
 21 36  1  0
M  CHG  3   3  -1  11  -1  16  -1
M  END
>  <UniqueID>  (76) 
73

>  <SMILES>  (76) 
O=C([N-]CCc1c[nH]c2c([O-])cccc12)[N-]c1ccccc1Cl

>  <Energy>  (76) 
73.16150318242894

>  <Genealogy>  (76) 
O=C([N-]CCc1c[nH]c2c([O-])cccc12)[N-]c1ccccc1Cl (protonated)
O=C([N-]CCc1c[nH]c2c([O-])cccc12)[N-]c1ccccc1Cl (3D coordinates assigned)
O=C([N-]CCc1c[nH]c2c([O-])cccc12)[N-]c1ccccc1Cl (optimized conformer: 73.16150318242894 kcal/mol)

>  <smiles>  (76) 
O=C(NCCc1c[nH]c2c(O)cccc12)Nc1ccccc1Cl

>  <score_type>  (76) 
oracle

>  <origin>  (76) 
adg

>  <m_score__min__energy>  (76) 
-13.720000000000001

>  <m_primary>  (76) 
energy

$$$$
76:0
     RDKit          3D

 36 37  0  0  0  0  0  0  0  0999 V2000
   64.0960   32.8730   46.7170 N   0  0  0  0  0  0  0  0  0  0  0  0
   63.3070   32.8220   47.9490 C   0  0  0  0  0  0  0  0  0  0  0  0
   63.6590   31.6240   48.7110 N   0  0  0  0  0  0  0  0  0  0  0  0
   61.8240   32.8340   47.6360 C   0  0  0  0  0  0  0  0  0  0  0  0
   61.1660   34.0470   47.3740 C   0  0  0  0  0  0  0  0  0  0  0  0
   59.8020   34.0610   47.0670 C   0  0  0  0  0  0  0  0  0  0  0  0
   59.0730   32.8650   47.0280 C   0  0  0  0  0  0  0  0  0  0  0  0
   57.6370   32.9040   46.6780 C   0  0  0  0  0  0  0  0  0  0  0  0
   57.1670   32.6530   45.4880 N   0  0  0  0  0  0  0  0  0  0  0  0
   57.9160   32.5080   44.2730 C   0  0  0  0  0  0  0  0  0  0  0  0
   58.6640   33.4530   43.9060 O   0  0  0  0  0  0  0  0  0  0  0  0
   57.6850   31.3290   43.3580 C   0  0  0  0  0  0  0  0  0  0  0  0
   57.4240   30.0980   44.1240 N   0  0  0  0  0  0  0  0  0  0  0  0
   58.4750   29.3020   44.4860 C   0  0  0  0  0  0  0  0  0  0  0  0
   58.2640   28.1430   45.2290 C   0  0  0  0  0  0  0  0  0  0  0  0
   56.9610   27.8210   45.6020 C   0  0  0  0  0  0  0  0  0  0  0  0
   56.7320   26.7810   46.2730 O   0  0  0  0  0  0  0  0  0  0  0  0
   55.9370   28.6340   45.2430 N   0  0  0  0  0  0  0  0  0  0  0  0
   56.1530   29.7620   44.5170 C   0  0  0  0  0  0  0  0  0  0  0  0
   55.1700   30.4920   44.2140 O   0  0  0  0  0  0  0  0  0  0  0  0
   59.7370   31.6460   47.2430 C   0  0  0  0  0  0  0  0  0  0  0  0
   61.1000   31.6320   47.5480 C   0  0  0  0  0  0  0  0  0  0  0  0
   64.4200   31.9040   46.4870 H   0  0  0  0  0  0  0  0  0  0  0  0
   64.9470   33.4600   46.8730 H   0  0  0  0  0  0  0  0  0  0  0  0
   63.5350   33.7122   48.5536 H   0  0  0  0  0  0  0  0  0  0  0  0
   63.8800   31.9120   49.6920 H   0  0  0  0  0  0  0  0  0  0  0  0
   64.5450   31.2340   48.3140 H   0  0  0  0  0  0  0  0  0  0  0  0
   61.7275   34.9922   47.4106 H   0  0  0  0  0  0  0  0  0  0  0  0
   59.2986   35.0158   46.8550 H   0  0  0  0  0  0  0  0  0  0  0  0
   56.9200   33.1610   47.4716 H   0  0  0  0  0  0  0  0  0  0  0  0
   56.8188   31.5402   42.7137 H   0  0  0  0  0  0  0  0  0  0  0  0
   58.5918   31.1759   42.7545 H   0  0  0  0  0  0  0  0  0  0  0  0
   59.4968   29.5795   44.1877 H   0  0  0  0  0  0  0  0  0  0  0  0
   59.1070   27.4967   45.5147 H   0  0  0  0  0  0  0  0  0  0  0  0
   59.1817   30.6992   47.1709 H   0  0  0  0  0  0  0  0  0  0  0  0
   61.6108   30.6732   47.7207 H   0  0  0  0  0  0  0  0  0  0  0  0
  1  2  1  0
  2  3  1  0
  2  4  1  0
  4  5  2  0
  5  6  1  0
  6  7  2  0
  7  8  1  0
  8  9  2  3
  9 10  1  0
 10 11  2  0
 10 12  1  0
 12 13  1  0
 13 14  1  0
 14 15  2  0
 15 16  1  0
 16 17  2  0
 16 18  1  0
 18 19  1  0
 19 20  2  0
  7 21  1  0
 21 22  2  0
 22  4  1  0
 19 13  1  0
  1 23  1  0
  1 24  1  0
  2 25  1  0
  3 26  1  0
  3 27  1  0
  5 28  1  0
  6 29  1  0
  8 30  1  0
 12 31  1  0
 12 32  1  0
 14 33  1  0
 15 34  1  0
 21 35  1  0
 22 36  1  0
M  CHG  1  18  -1
M  END
>  <UniqueID>  (77) 
74

>  <SMILES>  (77) 
NC(N)c1ccc(C=NC(=O)Cn2ccc(=O)[n-]c2=O)cc1

>  <Energy>  (77) 
49.4904262907213

>  <Genealogy>  (77) 
NC(N)c1ccc(C=NC(=O)Cn2ccc(=O)[n-]c2=O)cc1 (protonated)
NC(N)c1ccc(C=NC(=O)Cn2ccc(=O)[n-]c2=O)cc1 (3D coordinates assigned)
NC(N)c1ccc(C=NC(=O)Cn2ccc(=O)[n-]c2=O)cc1 (optimized conformer: 49.4904262907213 kcal/mol)

>  <smiles>  (77) 
NC(N)c1ccc(C=NC(=O)Cn2ccc(=O)[nH]c2=O)cc1

>  <score_type>  (77) 
oracle

>  <origin>  (77) 
adg

>  <m_score__min__energy>  (77) 
-9.5399999999999991

>  <m_primary>  (77) 
energy

$$$$
77:0
     RDKit          3D

 29 29  0  0  0  0  0  0  0  0999 V2000
   51.8160   23.7940   44.7650 C   0  0  0  0  0  0  0  0  0  0  0  0
   53.1370   23.3450   45.0520 O   0  0  0  0  0  0  0  0  0  0  0  0
   54.1910   24.1840   45.4510 C   0  0  0  0  0  0  0  0  0  0  0  0
   54.0280   25.5700   45.6220 C   0  0  0  0  0  0  0  0  0  0  0  0
   55.0790   26.3390   46.0100 N   0  0  0  0  0  0  0  0  0  0  0  0
   56.3130   25.8160   46.2470 C   0  0  0  0  0  0  0  0  0  0  0  0
   57.4070   26.7090   46.6690 C   0  0  0  0  0  0  0  0  0  0  0  0
   58.1950   26.3600   47.5900 O   0  0  0  0  0  0  0  0  0  0  0  0
   57.5720   27.9760   46.0230 N   0  0  0  0  0  0  0  0  0  0  0  0
   58.3650   28.1720   44.8140 C   0  0  0  0  0  0  0  0  0  0  0  0
   58.2390   29.6070   44.2920 C   0  0  0  0  0  0  0  0  0  0  0  0
   56.5310   30.1050   44.1150 S   0  0  0  0  0  0  0  0  0  0  0  0
   55.5220   28.9670   44.9360 N   0  0  0  0  0  0  0  0  0  0  0  0
   56.1550   30.1430   42.6590 O   0  0  0  0  0  0  0  0  0  0  0  0
   56.3310   31.4670   44.7180 O   0  0  0  0  0  0  0  0  0  0  0  0
   56.5170   24.4370   46.0880 C   0  0  0  0  0  0  0  0  0  0  0  0
   55.4530   23.6240   45.6890 C   0  0  0  0  0  0  0  0  0  0  0  0
   55.6320   22.3850   45.5450 O   0  0  0  0  0  0  0  0  0  0  0  0
   51.2781   23.9768   45.7069 H   0  0  0  0  0  0  0  0  0  0  0  0
   51.8639   24.7263   44.1832 H   0  0  0  0  0  0  0  0  0  0  0  0
   51.2858   23.0256   44.1832 H   0  0  0  0  0  0  0  0  0  0  0  0
   53.0468   26.0332   45.4412 H   0  0  0  0  0  0  0  0  0  0  0  0
   59.4212   27.9647   45.0408 H   0  0  0  0  0  0  0  0  0  0  0  0
   57.9915   27.4866   44.0389 H   0  0  0  0  0  0  0  0  0  0  0  0
   58.7363   30.2874   44.9989 H   0  0  0  0  0  0  0  0  0  0  0  0
   58.7114   29.6513   43.2996 H   0  0  0  0  0  0  0  0  0  0  0  0
   55.8640   28.0140   44.6810 H   0  0  0  0  0  0  0  0  0  0  0  0
   55.6980   29.0870   45.9590 H   0  0  0  0  0  0  0  0  0  0  0  0
   57.5082   23.9987   46.2763 H   0  0  0  0  0  0  0  0  0  0  0  0
  1  2  1  0
  2  3  1  0
  3  4  2  0
  4  5  1  0
  5  6  1  0
  6  7  1  0
  7  8  2  0
  7  9  1  0
  9 10  1  0
 10 11  1  0
 11 12  1  0
 12 13  1  0
 12 14  2  0
 12 15  2  0
  6 16  2  0
 16 17  1  0
 17 18  2  0
 17  3  1  0
  1 19  1  0
  1 20  1  0
  1 21  1  0
  4 22  1  0
 10 23  1  0
 10 24  1  0
 11 25  1  0
 11 26  1  0
 13 27  1  0
 13 28  1  0
 16 29  1  0
M  CHG  2   5  -1   9  -1
M  END
>  <UniqueID>  (78) 
75

>  <SMILES>  (78) 
COc1c[n-]c(C(=O)[N-]CCS(N)(=O)=O)cc1=O

>  <Energy>  (78) 
17.918371469093003

>  <Genealogy>  (78) 
COc1c[n-]c(C(=O)[N-]CCS(N)(=O)=O)cc1=O (protonated)
COc1c[n-]c(C(=O)[N-]CCS(N)(=O)=O)cc1=O (3D coordinates assigned)
COc1c[n-]c(C(=O)[N-]CCS(N)(=O)=O)cc1=O (optimized conformer: 17.918371469093003 kcal/mol)

>  <smiles>  (78) 
COc1c[nH]c(C(=O)NCCS(N)(=O)=O)cc1=O

>  <score_type>  (78) 
oracle

>  <origin>  (78) 
adg

>  <m_score__min__energy>  (78) 
-10.07

>  <m_primary>  (78) 
energy

$$$$
78:0
     RDKit          3D

 56 60  0  0  0  0  0  0  0  0999 V2000
   57.8310   29.3030   44.1870 O   0  0  0  0  0  0  0  0  0  0  0  0
   58.2710   28.3000   44.8140 C   0  0  0  0  0  0  0  0  0  0  0  0
   59.3840   28.4660   45.7080 N   0  0  0  0  0  0  0  0  0  0  0  0
   59.6410   29.6900   46.4200 C   0  0  0  0  0  0  0  0  0  0  0  0
   60.2300   29.6420   47.6920 C   0  0  0  0  0  0  0  0  0  0  0  0
   60.4770   30.8210   48.4030 C   0  0  0  0  0  0  0  0  0  0  0  0
   60.1250   32.0610   47.8550 C   0  0  0  0  0  0  0  0  0  0  0  0
   60.4460   33.5630   48.7180 S   0  0  0  0  0  0  0  0  0  0  0  0
   59.3350   34.5300   48.4150 O   0  0  0  0  0  0  0  0  0  0  0  0
   60.4750   33.3090   50.2000 O   0  0  0  0  0  0  0  0  0  0  0  0
   61.9850   34.1960   48.1710 N   0  0  0  0  0  0  0  0  0  0  0  0
   62.4260   33.5570   46.9130 C   0  0  0  0  0  0  0  0  0  0  0  0
   63.4270   32.4100   47.1490 C   0  0  0  0  0  0  0  0  0  0  0  0
   63.1840   31.7920   48.3930 O   0  0  0  0  0  0  0  0  0  0  0  0
   63.5120   32.6760   49.4510 C   0  0  0  0  0  0  0  0  0  0  0  0
   63.0150   34.1210   49.2210 C   0  0  0  0  0  0  0  0  0  0  0  0
   59.5210   32.1130   46.5960 C   0  0  0  0  0  0  0  0  0  0  0  0
   59.2730   30.9370   45.8830 C   0  0  0  0  0  0  0  0  0  0  0  0
   57.6380   26.9710   44.6030 C   0  0  0  0  0  0  0  0  0  0  0  0
   57.9580   26.1790   43.4900 C   0  0  0  0  0  0  0  0  0  0  0  0
   57.3950   24.9130   43.3360 C   0  0  0  0  0  0  0  0  0  0  0  0
   56.5180   24.3850   44.3020 C   0  0  0  0  0  0  0  0  0  0  0  0
   56.1730   25.1870   45.4270 C   0  0  0  0  0  0  0  0  0  0  0  0
   56.7370   26.4640   45.5540 C   0  0  0  0  0  0  0  0  0  0  0  0
   55.2440   24.8000   46.4530 N   0  0  0  0  0  0  0  0  0  0  0  0
   54.4280   23.2890   46.6310 S   0  0  0  0  0  0  0  0  0  0  0  0
   53.2790   23.2060   45.6640 O   0  0  0  0  0  0  0  0  0  0  0  0
   53.8970   23.1910   48.0350 O   0  0  0  0  0  0  0  0  0  0  0  0
   55.5750   21.9990   46.3300 C   0  0  0  0  0  0  0  0  0  0  0  0
   55.8260   21.0180   47.3010 C   0  0  0  0  0  0  0  0  0  0  0  0
   56.7310   19.9890   47.0370 C   0  0  0  0  0  0  0  0  0  0  0  0
   57.3790   19.9240   45.8020 C   0  0  0  0  0  0  0  0  0  0  0  0
   57.1340   20.8970   44.8330 C   0  0  0  0  0  0  0  0  0  0  0  0
   56.2500   21.9550   45.1010 C   0  0  0  0  0  0  0  0  0  0  0  0
   56.0430   23.0000   44.0860 C   0  0  0  0  0  0  0  0  0  0  0  0
   55.5770   22.6730   42.9610 O   0  0  0  0  0  0  0  0  0  0  0  0
   60.0910   27.6990   45.7730 H   0  0  0  0  0  0  0  0  0  0  0  0
   60.4994   28.6711   48.1333 H   0  0  0  0  0  0  0  0  0  0  0  0
   60.9491   30.7742   49.3954 H   0  0  0  0  0  0  0  0  0  0  0  0
   61.5436   33.1532   46.3950 H   0  0  0  0  0  0  0  0  0  0  0  0
   62.9349   34.3241   46.3109 H   0  0  0  0  0  0  0  0  0  0  0  0
   63.3195   31.6647   46.3472 H   0  0  0  0  0  0  0  0  0  0  0  0
   64.4470   32.8217   47.1490 H   0  0  0  0  0  0  0  0  0  0  0  0
   63.0578   32.2945   50.3774 H   0  0  0  0  0  0  0  0  0  0  0  0
   64.6096   32.7163   49.5115 H   0  0  0  0  0  0  0  0  0  0  0  0
   62.5906   34.5032   50.1611 H   0  0  0  0  0  0  0  0  0  0  0  0
   63.8743   34.7250   48.8940 H   0  0  0  0  0  0  0  0  0  0  0  0
   59.2393   33.0846   46.1639 H   0  0  0  0  0  0  0  0  0  0  0  0
   58.7877   30.9867   44.8971 H   0  0  0  0  0  0  0  0  0  0  0  0
   58.6589   26.5601   42.7327 H   0  0  0  0  0  0  0  0  0  0  0  0
   57.6402   24.3168   42.4447 H   0  0  0  0  0  0  0  0  0  0  0  0
   56.4671   27.0851   46.4208 H   0  0  0  0  0  0  0  0  0  0  0  0
   55.3091   21.0599   48.2711 H   0  0  0  0  0  0  0  0  0  0  0  0
   56.9343   19.2271   47.8039 H   0  0  0  0  0  0  0  0  0  0  0  0
   58.0831   19.1051   45.5930 H   0  0  0  0  0  0  0  0  0  0  0  0
   57.6349   20.8355   43.8556 H   0  0  0  0  0  0  0  0  0  0  0  0
  1  2  2  0
  2  3  1  0
  3  4  1  0
  4  5  2  0
  5  6  1  0
  6  7  2  0
  7  8  1  0
  8  9  2  0
  8 10  2  0
  8 11  1  0
 11 12  1  0
 12 13  1  0
 13 14  1  0
 14 15  1  0
 15 16  1  0
  7 17  1  0
 17 18  2  0
  2 19  1  0
 19 20  2  0
 20 21  1  0
 21 22  2  0
 22 23  1  0
 23 24  2  0
 23 25  1  0
 25 26  1  0
 26 27  2  0
 26 28  2  0
 26 29  1  0
 29 30  2  0
 30 31  1  0
 31 32  2  0
 32 33  1  0
 33 34  2  0
 34 35  1  0
 35 36  2  0
 18  4  1  0
 24 19  1  0
 34 29  1  0
 16 11  1  0
 35 22  1  0
  3 37  1  0
  5 38  1  0
  6 39  1  0
 12 40  1  0
 12 41  1  0
 13 42  1  0
 13 43  1  0
 15 44  1  0
 15 45  1  0
 16 46  1  0
 16 47  1  0
 17 48  1  0
 18 49  1  0
 20 50  1  0
 21 51  1  0
 24 52  1  0
 30 53  1  0
 31 54  1  0
 32 55  1  0
 33 56  1  0
M  CHG  1  25  -1
M  END
>  <UniqueID>  (79) 
76

>  <SMILES>  (79) 
O=C(Nc1ccc(S(=O)(=O)N2CCOCC2)cc1)c1ccc2c(c1)[N-]S(=O)(=O)c1ccccc1C2=O

>  <Energy>  (79) 
102.432164149182

>  <Genealogy>  (79) 
O=C(Nc1ccc(S(=O)(=O)N2CCOCC2)cc1)c1ccc2c(c1)[N-]S(=O)(=O)c1ccccc1C2=O (protonated)
O=C(Nc1ccc(S(=O)(=O)N2CCOCC2)cc1)c1ccc2c(c1)[N-]S(=O)(=O)c1ccccc1C2=O (3D coordinates assigned)
O=C(Nc1ccc(S(=O)(=O)N2CCOCC2)cc1)c1ccc2c(c1)[N-]S(=O)(=O)c1ccccc1C2=O (nonaromatic ring conformer: 102.432164149182 kcal/mol)

>  <smiles>  (79) 
O=C(Nc1ccc(S(=O)(=O)N2CCOCC2)cc1)c1ccc2c(c1)NS(=O)(=O)c1ccccc1C2=O

>  <score_type>  (79) 
oracle

>  <origin>  (79) 
adg

>  <m_score__min__energy>  (79) 
-11.449999999999999

>  <m_primary>  (79) 
energy

$$$$
79:0
     RDKit          3D

 30 31  0  0  0  0  0  0  0  0999 V2000
   62.8150   33.8350   46.3780 C   0  0  0  0  0  0  0  0  0  0  0  0
   63.0340   33.4090   47.8060 C   0  0  0  0  0  0  0  0  0  0  0  0
   64.1450   32.6780   48.1210 N   0  0  0  0  0  0  0  0  0  0  0  0
   64.3810   32.2610   49.3920 C   0  0  0  0  0  0  0  0  0  0  0  0
   63.4760   32.5780   50.4000 C   0  0  0  0  0  0  0  0  0  0  0  0
   62.3700   33.3010   50.0990 N   0  0  0  0  0  0  0  0  0  0  0  0
   62.1120   33.7280   48.8330 C   0  0  0  0  0  0  0  0  0  0  0  0
   60.8720   34.5600   48.6050 C   0  0  0  0  0  0  0  0  0  0  0  0
   59.6120   33.6870   48.5160 C   0  0  0  0  0  0  0  0  0  0  0  0
   58.9400   33.8060   47.1740 C   0  0  0  0  0  0  0  0  0  0  0  0
   59.5080   34.5990   46.1630 C   0  0  0  0  0  0  0  0  0  0  0  0
   58.9080   34.6700   44.9020 C   0  0  0  0  0  0  0  0  0  0  0  0
   57.7390   33.9490   44.6410 C   0  0  0  0  0  0  0  0  0  0  0  0
   57.1700   33.1540   45.6410 C   0  0  0  0  0  0  0  0  0  0  0  0
   57.7680   33.0790   46.9020 C   0  0  0  0  0  0  0  0  0  0  0  0
   62.3121   34.8132   46.3602 H   0  0  0  0  0  0  0  0  0  0  0  0
   63.7852   33.9121   45.8655 H   0  0  0  0  0  0  0  0  0  0  0  0
   62.1877   33.0908   45.8655 H   0  0  0  0  0  0  0  0  0  0  0  0
   64.8370   32.4250   47.3810 H   0  0  0  0  0  0  0  0  0  0  0  0
   65.2831   31.6756   49.6231 H   0  0  0  0  0  0  0  0  0  0  0  0
   63.6567   32.2446   51.4326 H   0  0  0  0  0  0  0  0  0  0  0  0
   60.7581   35.2666   49.4403 H   0  0  0  0  0  0  0  0  0  0  0  0
   60.9877   35.0942   47.6504 H   0  0  0  0  0  0  0  0  0  0  0  0
   59.8948   32.6367   48.6802 H   0  0  0  0  0  0  0  0  0  0  0  0
   58.9036   34.0317   49.2837 H   0  0  0  0  0  0  0  0  0  0  0  0
   60.4286   35.1664   46.3642 H   0  0  0  0  0  0  0  0  0  0  0  0
   59.3562   35.2938   44.1146 H   0  0  0  0  0  0  0  0  0  0  0  0
   57.2668   34.0070   43.6492 H   0  0  0  0  0  0  0  0  0  0  0  0
   56.2503   32.5868   45.4348 H   0  0  0  0  0  0  0  0  0  0  0  0
   57.3200   32.4488   47.6844 H   0  0  0  0  0  0  0  0  0  0  0  0
  1  2  1  0
  2  3  2  0
  3  4  1  0
  4  5  2  0
  5  6  1  0
  6  7  2  0
  7  8  1  0
  8  9  1  0
  9 10  1  0
 10 11  2  0
 11 12  1  0
 12 13  2  0
 13 14  1  0
 14 15  2  0
  7  2  1  0
 15 10  1  0
  1 16  1  0
  1 17  1  0
  1 18  1  0
  3 19  1  0
  4 20  1  0
  5 21  1  0
  8 22  1  0
  8 23  1  0
  9 24  1  0
  9 25  1  0
 11 26  1  0
 12 27  1  0
 13 28  1  0
 14 29  1  0
 15 30  1  0
M  CHG  1   3   1
M  END
>  <UniqueID>  (80) 
77

>  <SMILES>  (80) 
Cc1[nH+]ccnc1CCc1ccccc1

>  <Energy>  (80) 
28.12728031543328

>  <Genealogy>  (80) 
Cc1[nH+]ccnc1CCc1ccccc1 (protonated)
Cc1[nH+]ccnc1CCc1ccccc1 (3D coordinates assigned)
Cc1[nH+]ccnc1CCc1ccccc1 (optimized conformer: 28.12728031543328 kcal/mol)

>  <smiles>  (80) 
Cc1nccnc1CCc1ccccc1

>  <score_type>  (80) 
oracle

>  <origin>  (80) 
adg

>  <m_score__min__energy>  (80) 
-4.9100000000000001

>  <m_primary>  (80) 
energy

$$$$
80:0
     RDKit          3D

 30 31  0  0  0  0  0  0  0  0999 V2000
   52.2300   26.8990   53.5300 C   0  0  0  0  0  0  0  0  0  0  0  0
   53.3520   27.0110   54.5730 C   0  0  0  0  0  0  0  0  0  0  0  0
   54.5470   26.1280   54.1790 C   0  0  0  0  0  0  0  0  0  0  0  0
   53.7460   28.4150   54.8540 N   0  0  0  0  0  0  0  0  0  0  0  0
   53.5450   29.3300   53.7410 C   0  0  0  0  0  0  0  0  0  0  0  0
   54.5230   29.3730   52.7280 C   0  0  0  0  0  0  0  0  0  0  0  0
   54.3820   30.2020   51.6210 C   0  0  0  0  0  0  0  0  0  0  0  0
   53.2690   31.0250   51.4970 C   0  0  0  0  0  0  0  0  0  0  0  0
   52.2830   31.0430   52.4950 C   0  0  0  0  0  0  0  0  0  0  0  0
   51.1680   31.8970   52.3700 C   0  0  0  0  0  0  0  0  0  0  0  0
   51.0160   32.7190   51.2570 O   0  0  0  0  0  0  0  0  0  0  0  0
   50.1960   31.9320   53.3690 C   0  0  0  0  0  0  0  0  0  0  0  0
   50.3230   31.1290   54.4980 C   0  0  0  0  0  0  0  0  0  0  0  0
   51.4180   30.2770   54.6400 C   0  0  0  0  0  0  0  0  0  0  0  0
   52.4150   30.2030   53.6400 C   0  0  0  0  0  0  0  0  0  0  0  0
   51.2614   26.8023   54.0424 H   0  0  0  0  0  0  0  0  0  0  0  0
   52.2233   27.8009   52.9004 H   0  0  0  0  0  0  0  0  0  0  0  0
   52.4017   26.0135   52.9004 H   0  0  0  0  0  0  0  0  0  0  0  0
   52.9536   26.6306   55.5251 H   0  0  0  0  0  0  0  0  0  0  0  0
   55.0458   25.7594   55.0875 H   0  0  0  0  0  0  0  0  0  0  0  0
   54.1914   25.2740   53.5838 H   0  0  0  0  0  0  0  0  0  0  0  0
   55.2589   26.7187   53.5838 H   0  0  0  0  0  0  0  0  0  0  0  0
   53.2700   28.7510   55.7190 H   0  0  0  0  0  0  0  0  0  0  0  0
   54.7610   28.4190   55.1110 H   0  0  0  0  0  0  0  0  0  0  0  0
   55.4167   28.7375   52.8147 H   0  0  0  0  0  0  0  0  0  0  0  0
   55.1556   30.2066   50.8390 H   0  0  0  0  0  0  0  0  0  0  0  0
   53.1603   31.6668   50.6102 H   0  0  0  0  0  0  0  0  0  0  0  0
   49.3258   32.5967   53.2642 H   0  0  0  0  0  0  0  0  0  0  0  0
   49.5545   31.1664   55.2841 H   0  0  0  0  0  0  0  0  0  0  0  0
   51.5073   29.6541   55.5422 H   0  0  0  0  0  0  0  0  0  0  0  0
  1  2  1  0
  2  3  1  0
  2  4  1  0
  4  5  1  0
  5  6  2  0
  6  7  1  0
  7  8  2  0
  8  9  1  0
  9 10  2  0
 10 11  1  0
 10 12  1  0
 12 13  2  0
 13 14  1  0
 14 15  2  0
 15  5  1  0
 15  9  1  0
  1 16  1  0
  1 17  1  0
  1 18  1  0
  2 19  1  0
  3 20  1  0
  3 21  1  0
  3 22  1  0
  4 23  1  0
  4 24  1  0
  6 25  1  0
  7 26  1  0
  8 27  1  0
 12 28  1  0
 13 29  1  0
 14 30  1  0
M  CHG  2   4   1  11  -1
M  END
>  <UniqueID>  (81) 
78

>  <SMILES>  (81) 
CC(C)[NH2+]c1cccc2c([O-])cccc12

>  <Energy>  (81) 
39.02292701085068

>  <Genealogy>  (81) 
CC(C)[NH2+]c1cccc2c([O-])cccc12 (protonated)
CC(C)[NH2+]c1cccc2c([O-])cccc12 (3D coordinates assigned)
CC(C)[NH2+]c1cccc2c([O-])cccc12 (optimized conformer: 39.02292701085068 kcal/mol)

>  <smiles>  (81) 
CC(C)Nc1cccc2c(O)cccc12

>  <score_type>  (81) 
oracle

>  <origin>  (81) 
adg

>  <m_score__min__energy>  (81) 
-8.2599999999999998

>  <m_primary>  (81) 
energy

$$$$
81:0
     RDKit          3D

 56 59  0  0  0  0  0  0  0  0999 V2000
   58.7480   29.2070   48.1540 C   0  0  0  0  0  0  0  0  0  0  0  0
   58.1430   30.0710   47.2050 O   0  0  0  0  0  0  0  0  0  0  0  0
   58.5840   31.3700   46.9100 C   0  0  0  0  0  0  0  0  0  0  0  0
   59.3220   32.1250   47.8440 C   0  0  0  0  0  0  0  0  0  0  0  0
   59.7600   33.4170   47.5370 C   0  0  0  0  0  0  0  0  0  0  0  0
   60.5010   34.1210   48.4990 O   0  0  0  0  0  0  0  0  0  0  0  0
   61.7850   33.7650   48.9380 C   0  0  0  0  0  0  0  0  0  0  0  0
   62.8360   33.8080   48.0160 C   0  0  0  0  0  0  0  0  0  0  0  0
   64.1290   33.4460   48.3910 C   0  0  0  0  0  0  0  0  0  0  0  0
   64.3950   33.0510   49.7070 C   0  0  0  0  0  0  0  0  0  0  0  0
   65.7820   32.6420   50.0980 C   0  0  0  0  0  0  0  0  0  0  0  0
   63.3510   33.0090   50.6410 C   0  0  0  0  0  0  0  0  0  0  0  0
   62.0470   33.3870   50.2770 C   0  0  0  0  0  0  0  0  0  0  0  0
   60.9960   33.4550   51.3190 C   0  0  0  0  0  0  0  0  0  0  0  0
   61.3080   33.1680   52.6570 C   0  0  0  0  0  0  0  0  0  0  0  0
   60.3050   33.2380   53.6250 C   0  0  0  0  0  0  0  0  0  0  0  0
   59.0110   33.6030   53.2590 C   0  0  0  0  0  0  0  0  0  0  0  0
   58.7310   33.8750   51.9200 C   0  0  0  0  0  0  0  0  0  0  0  0
   59.7170   33.8000   50.9860 N   0  0  0  0  0  0  0  0  0  0  0  0
   59.4260   33.9780   46.2970 C   0  0  0  0  0  0  0  0  0  0  0  0
   58.7060   33.2380   45.3600 C   0  0  0  0  0  0  0  0  0  0  0  0
   58.2850   31.9350   45.6510 C   0  0  0  0  0  0  0  0  0  0  0  0
   57.4180   31.0430   44.3920 S   0  0  0  0  0  0  0  0  0  0  0  0
   57.3380   31.9050   43.1650 O   0  0  0  0  0  0  0  0  0  0  0  0
   56.0190   30.6830   44.8070 O   0  0  0  0  0  0  0  0  0  0  0  0
   58.2930   29.6000   44.0070 N   0  0  0  0  0  0  0  0  0  0  0  0
   58.3280   28.4130   44.8090 C   0  0  0  0  0  0  0  0  0  0  0  0
   59.5680   27.9100   45.2100 C   0  0  0  0  0  0  0  0  0  0  0  0
   59.6460   26.7550   45.9890 C   0  0  0  0  0  0  0  0  0  0  0  0
   58.4840   26.0850   46.3680 C   0  0  0  0  0  0  0  0  0  0  0  0
   57.2270   26.5720   45.9760 C   0  0  0  0  0  0  0  0  0  0  0  0
   55.9900   25.8670   46.3800 C   0  0  0  0  0  0  0  0  0  0  0  0
   56.0440   24.8410   47.1090 O   0  0  0  0  0  0  0  0  0  0  0  0
   54.7440   26.3350   45.9710 O   0  0  0  0  0  0  0  0  0  0  0  0
   57.1610   27.7330   45.1840 C   0  0  0  0  0  0  0  0  0  0  0  0
   58.5065   29.5519   49.1702 H   0  0  0  0  0  0  0  0  0  0  0  0
   58.3676   28.1844   48.0138 H   0  0  0  0  0  0  0  0  0  0  0  0
   59.8390   29.2148   48.0138 H   0  0  0  0  0  0  0  0  0  0  0  0
   59.5565   31.6920   48.8276 H   0  0  0  0  0  0  0  0  0  0  0  0
   62.6400   34.1312   46.9830 H   0  0  0  0  0  0  0  0  0  0  0  0
   64.9422   33.4709   47.6507 H   0  0  0  0  0  0  0  0  0  0  0  0
   65.8619   32.6185   51.1948 H   0  0  0  0  0  0  0  0  0  0  0  0
   65.9973   31.6421   49.6931 H   0  0  0  0  0  0  0  0  0  0  0  0
   66.5054   33.3651   49.6931 H   0  0  0  0  0  0  0  0  0  0  0  0
   63.5542   32.6767   51.6697 H   0  0  0  0  0  0  0  0  0  0  0  0
   62.3340   32.8903   52.9402 H   0  0  0  0  0  0  0  0  0  0  0  0
   60.5356   33.0054   54.6751 H   0  0  0  0  0  0  0  0  0  0  0  0
   58.2185   33.6759   54.0183 H   0  0  0  0  0  0  0  0  0  0  0  0
   57.7098   34.1510   51.6184 H   0  0  0  0  0  0  0  0  0  0  0  0
   59.4780   34.0300   49.9960 H   0  0  0  0  0  0  0  0  0  0  0  0
   59.7335   35.0076   46.0617 H   0  0  0  0  0  0  0  0  0  0  0  0
   58.4665   33.6823   44.3827 H   0  0  0  0  0  0  0  0  0  0  0  0
   60.4903   28.4286   44.9092 H   0  0  0  0  0  0  0  0  0  0  0  0
   60.6276   26.3720   46.3050 H   0  0  0  0  0  0  0  0  0  0  0  0
   58.5521   25.1712   46.9766 H   0  0  0  0  0  0  0  0  0  0  0  0
   56.1820   28.1116   44.8551 H   0  0  0  0  0  0  0  0  0  0  0  0
  1  2  1  0
  2  3  1  0
  3  4  2  0
  4  5  1  0
  5  6  1  0
  6  7  1  0
  7  8  2  0
  8  9  1  0
  9 10  2  0
 10 11  1  0
 10 12  1  0
 12 13  2  0
 13 14  1  0
 14 15  2  0
 15 16  1  0
 16 17  2  0
 17 18  1  0
 18 19  2  0
  5 20  2  0
 20 21  1  0
 21 22  2  0
 22 23  1  0
 23 24  2  0
 23 25  2  0
 23 26  1  0
 26 27  1  0
 27 28  2  0
 28 29  1  0
 29 30  2  0
 30 31  1  0
 31 32  1  0
 32 33  2  0
 32 34  1  0
 31 35  2  0
 22  3  1  0
 35 27  1  0
 13  7  1  0
 19 14  1  0
  1 36  1  0
  1 37  1  0
  1 38  1  0
  4 39  1  0
  8 40  1  0
  9 41  1  0
 11 42  1  0
 11 43  1  0
 11 44  1  0
 12 45  1  0
 15 46  1  0
 16 47  1  0
 17 48  1  0
 18 49  1  0
 19 50  1  0
 20 51  1  0
 21 52  1  0
 28 53  1  0
 29 54  1  0
 30 55  1  0
 35 56  1  0
M  CHG  3  19   1  26  -1  34  -1
M  END
>  <UniqueID>  (82) 
79

>  <SMILES>  (82) 
COc1cc(Oc2ccc(C)cc2-c2cccc[nH+]2)ccc1S(=O)(=O)[N-]c1cccc(C(=O)[O-])c1

>  <Energy>  (82) 
73.11309692659609

>  <Genealogy>  (82) 
COc1cc(Oc2ccc(C)cc2-c2cccc[nH+]2)ccc1S(=O)(=O)[N-]c1cccc(C(=O)[O-])c1 (protonated)
COc1cc(Oc2ccc(C)cc2-c2cccc[nH+]2)ccc1S(=O)(=O)[N-]c1cccc(C(=O)[O-])c1 (3D coordinates assigned)
COc1cc(Oc2ccc(C)cc2-c2cccc[nH+]2)ccc1S(=O)(=O)[N-]c1cccc(C(=O)[O-])c1 (optimized conformer: 73.11309692659609 kcal/mol)

>  <smiles>  (82) 
COc1cc(Oc2ccc(C)cc2-c2ccccn2)ccc1S(=O)(=O)Nc1cccc(C(=O)O)c1

>  <score_type>  (82) 
oracle

>  <origin>  (82) 
adg

>  <m_score__min__energy>  (82) 
-12.699999999999999

>  <m_primary>  (82) 
energy

$$$$
82:0
     RDKit          3D

 44 47  0  0  0  0  0  0  0  0999 V2000
   54.5790   30.3800   44.9360 H   0  0  0  0  0  0  0  0  0  0  0  0
   55.4270   30.1040   44.4010 N   0  0  0  0  0  0  0  0  0  0  0  0
   56.6020   29.8370   44.8860 C   0  0  0  0  0  0  0  0  0  0  0  0
   56.8100   28.5840   45.3640 N   0  0  0  0  0  0  0  0  0  0  0  0
   57.9820   28.2110   45.9320 C   0  0  0  0  0  0  0  0  0  0  0  0
   58.1300   26.8300   46.4940 C   0  0  0  0  0  0  0  0  0  0  0  0
   58.6702   26.2004   45.7717 H   0  0  0  0  0  0  0  0  0  0  0  0
   58.6909   26.8865   47.4385 H   0  0  0  0  0  0  0  0  0  0  0  0
   56.4890   26.0990   46.8210 S   0  0  0  0  0  0  0  0  0  0  0  0
   56.7190   24.7200   45.6990 C   0  0  0  0  0  0  0  0  0  0  0  0
   57.7640   23.8590   45.8020 N   0  0  0  0  0  0  0  0  0  0  0  0
   57.5250   23.0020   44.7980 C   0  0  0  0  0  0  0  0  0  0  0  0
   58.2770   21.8900   44.4300 C   0  0  0  0  0  0  0  0  0  0  0  0
   59.1927   21.6162   44.9745 H   0  0  0  0  0  0  0  0  0  0  0  0
   57.8240   21.1280   43.3360 C   0  0  0  0  0  0  0  0  0  0  0  0
   58.3918   20.2426   43.0140 H   0  0  0  0  0  0  0  0  0  0  0  0
   56.6440   21.4940   42.6490 C   0  0  0  0  0  0  0  0  0  0  0  0
   56.2981   20.8916   41.7961 H   0  0  0  0  0  0  0  0  0  0  0  0
   55.9090   22.6260   43.0510 C   0  0  0  0  0  0  0  0  0  0  0  0
   54.9891   22.9239   42.5265 H   0  0  0  0  0  0  0  0  0  0  0  0
   56.3890   23.3550   44.1370 C   0  0  0  0  0  0  0  0  0  0  0  0
   55.8510   24.4510   44.6900 N   0  0  0  0  0  0  0  0  0  0  0  0
   59.0070   29.1440   46.0480 C   0  0  0  0  0  0  0  0  0  0  0  0
   59.9586   28.8721   46.5282 H   0  0  0  0  0  0  0  0  0  0  0  0
   58.8090   30.4290   45.5460 C   0  0  0  0  0  0  0  0  0  0  0  0
   59.7490   31.2640   45.6510 O   0  0  0  0  0  0  0  0  0  0  0  0
   57.6160   30.7790   44.9530 N   0  0  0  0  0  0  0  0  0  0  0  0
   57.4650   32.1610   44.4410 C   0  0  0  0  0  0  0  0  0  0  0  0
   58.4400   32.5137   44.0735 H   0  0  0  0  0  0  0  0  0  0  0  0
   56.7204   32.1477   43.6315 H   0  0  0  0  0  0  0  0  0  0  0  0
   56.9680   33.1200   45.5340 C   0  0  0  0  0  0  0  0  0  0  0  0
   56.5024   33.9931   45.0535 H   0  0  0  0  0  0  0  0  0  0  0  0
   56.2467   32.5730   46.1589 H   0  0  0  0  0  0  0  0  0  0  0  0
   58.0830   33.5960   46.4270 C   0  0  0  0  0  0  0  0  0  0  0  0
   58.2520   33.0410   47.7060 C   0  0  0  0  0  0  0  0  0  0  0  0
   57.5566   32.2675   48.0640 H   0  0  0  0  0  0  0  0  0  0  0  0
   59.3010   33.4680   48.5260 C   0  0  0  0  0  0  0  0  0  0  0  0
   59.4286   33.0309   49.5273 H   0  0  0  0  0  0  0  0  0  0  0  0
   60.1870   34.4490   48.0750 C   0  0  0  0  0  0  0  0  0  0  0  0
   61.0075   34.7889   48.7241 H   0  0  0  0  0  0  0  0  0  0  0  0
   60.0320   34.9990   46.8000 C   0  0  0  0  0  0  0  0  0  0  0  0
   60.7343   35.7669   46.4436 H   0  0  0  0  0  0  0  0  0  0  0  0
   58.9850   34.5740   45.9770 C   0  0  0  0  0  0  0  0  0  0  0  0
   58.8671   35.0073   44.9728 H   0  0  0  0  0  0  0  0  0  0  0  0
  1  2  1  0
  2  3  2  0
  3  4  1  0
  4  5  1  0
  5  6  1  0
  6  7  1  0
  6  8  1  0
  6  9  1  0
  9 10  1  0
 10 11  2  0
 11 12  1  0
 12 13  2  0
 13 14  1  0
 13 15  1  0
 15 16  1  0
 15 17  2  0
 17 18  1  0
 17 19  1  0
 19 20  1  0
 19 21  2  0
 21 22  1  0
  5 23  2  0
 23 24  1  0
 23 25  1  0
 25 26  2  0
 25 27  1  0
 27 28  1  0
 28 29  1  0
 28 30  1  0
 28 31  1  0
 31 32  1  0
 31 33  1  0
 31 34  1  0
 34 35  2  0
 35 36  1  0
 35 37  1  0
 37 38  1  0
 37 39  2  0
 39 40  1  0
 39 41  1  0
 41 42  1  0
 41 43  2  0
 43 44  1  0
 27  3  1  0
 43 34  1  0
 22 10  1  0
 21 12  1  0
M  CHG  2   4  -1  22  -1
M  END
>  <UniqueID>  (83) 
80

>  <SMILES>  (83) 
[H]/N=c1/[n-]c(CSc2nc3ccccc3[n-]2)cc(=O)n1CCc1ccccc1

>  <Energy>  (83) 
81.36059736177667

>  <Genealogy>  (83) 
N=c1[n-]c(CSc2nc3ccccc3[n-]2)cc(=O)n1CCc1ccccc1 (protonated)
[H]/N=c1/[n-]c(CSc2nc3ccccc3[n-]2)cc(=O)n1CCc1ccccc1 (cis-trans isomerization)
[H]/N=c1/[n-]c(CSc2nc3ccccc3[n-]2)cc(=O)n1CCc1ccccc1 (3D coordinates assigned)
[H]/N=c1/[n-]c(CSc2nc3ccccc3[n-]2)cc(=O)n1CCc1ccccc1 (optimized conformer: 81.36059736177667 kcal/mol)

>  <smiles>  (83) 
N=c1[nH]c(CSc2nc3ccccc3[nH]2)cc(=O)n1CCc1ccccc1

>  <score_type>  (83) 
oracle

>  <origin>  (83) 
adg

>  <m_score__min__energy>  (83) 
-12.08

>  <m_primary>  (83) 
energy

$$$$
83:0
     RDKit          3D

 53 55  0  0  0  0  0  0  0  0999 V2000
   63.0040   33.5320   46.7580 C   0  0  0  0  0  0  0  0  0  0  0  0
   63.2270   32.2450   47.5480 C   0  0  0  0  0  0  0  0  0  0  0  0
   62.2180   31.1560   47.1250 C   0  0  0  0  0  0  0  0  0  0  0  0
   61.1060   30.9600   48.0940 N   0  0  0  0  0  0  0  0  0  0  0  0
   61.0360   32.0910   49.0580 C   0  0  0  0  0  0  0  0  0  0  0  0
   59.5840   32.5550   49.2360 C   0  0  0  0  0  0  0  0  0  0  0  0
   59.4130   34.0400   48.8940 C   0  0  0  0  0  0  0  0  0  0  0  0
   58.9460   34.2040   47.4720 C   0  0  0  0  0  0  0  0  0  0  0  0
   57.6980   33.6990   47.0720 C   0  0  0  0  0  0  0  0  0  0  0  0
   57.2520   33.8820   45.7600 C   0  0  0  0  0  0  0  0  0  0  0  0
   58.0420   34.5800   44.8420 C   0  0  0  0  0  0  0  0  0  0  0  0
   59.2790   35.0980   45.2360 C   0  0  0  0  0  0  0  0  0  0  0  0
   59.7290   34.9160   46.5480 C   0  0  0  0  0  0  0  0  0  0  0  0
   59.7880   30.6020   47.4800 C   0  0  2  0  0  0  0  0  0  0  0  0
   59.5990   29.0690   47.4290 C   0  0  0  0  0  0  0  0  0  0  0  0
   58.1980   28.6990   46.9360 C   0  0  0  0  0  0  0  0  0  0  0  0
   57.7940   29.4270   45.6750 C   0  0  0  0  0  0  0  0  0  0  0  0
   56.6700   28.9890   44.9290 C   0  0  0  0  0  0  0  0  0  0  0  0
   55.8890   27.9000   45.3260 O   0  0  0  0  0  0  0  0  0  0  0  0
   56.3050   29.6590   43.7600 C   0  0  0  0  0  0  0  0  0  0  0  0
   57.0190   30.7750   43.3310 C   0  0  0  0  0  0  0  0  0  0  0  0
   58.0990   31.2450   44.0760 C   0  0  0  0  0  0  0  0  0  0  0  0
   58.7770   32.3350   43.6360 F   0  0  0  0  0  0  0  0  0  0  0  0
   58.4820   30.5960   45.2640 C   0  0  0  0  0  0  0  0  0  0  0  0
   59.6780   31.1250   46.0260 C   0  0  0  0  0  0  0  0  0  0  0  0
   62.8588   34.3700   47.4556 H   0  0  0  0  0  0  0  0  0  0  0  0
   63.8812   33.7301   46.1245 H   0  0  0  0  0  0  0  0  0  0  0  0
   62.1113   33.4234   46.1245 H   0  0  0  0  0  0  0  0  0  0  0  0
   64.2483   31.8811   47.3624 H   0  0  0  0  0  0  0  0  0  0  0  0
   63.0836   32.4601   48.6172 H   0  0  0  0  0  0  0  0  0  0  0  0
   61.7862   31.4413   46.1543 H   0  0  0  0  0  0  0  0  0  0  0  0
   62.7720   30.2069   47.0762 H   0  0  0  0  0  0  0  0  0  0  0  0
   61.4333   31.7635   50.0300 H   0  0  0  0  0  0  0  0  0  0  0  0
   61.6325   32.9289   48.6680 H   0  0  0  0  0  0  0  0  0  0  0  0
   58.9369   31.9607   48.5741 H   0  0  0  0  0  0  0  0  0  0  0  0
   59.3076   32.4139   50.2913 H   0  0  0  0  0  0  0  0  0  0  0  0
   58.6699   34.4843   49.5725 H   0  0  0  0  0  0  0  0  0  0  0  0
   60.3831   34.5455   49.0101 H   0  0  0  0  0  0  0  0  0  0  0  0
   57.0692   33.1574   47.7940 H   0  0  0  0  0  0  0  0  0  0  0  0
   56.2779   33.4762   45.4494 H   0  0  0  0  0  0  0  0  0  0  0  0
   57.6901   34.7216   43.8095 H   0  0  0  0  0  0  0  0  0  0  0  0
   59.8992   35.6492   44.5138 H   0  0  0  0  0  0  0  0  0  0  0  0
   60.6993   35.3318   46.8573 H   0  0  0  0  0  0  0  0  0  0  0  0
   59.0167   31.0683   48.1106 H   0  0  0  0  0  0  0  0  0  0  0  0
   60.3452   28.6382   46.7451 H   0  0  0  0  0  0  0  0  0  0  0  0
   59.7270   28.6687   48.4456 H   0  0  0  0  0  0  0  0  0  0  0  0
   58.1725   27.6173   46.7376 H   0  0  0  0  0  0  0  0  0  0  0  0
   57.4883   28.9941   47.7229 H   0  0  0  0  0  0  0  0  0  0  0  0
   55.9350   26.9890   44.8870 H   0  0  0  0  0  0  0  0  0  0  0  0
   55.4460   29.3024   43.1727 H   0  0  0  0  0  0  0  0  0  0  0  0
   56.7297   31.2871   42.4014 H   0  0  0  0  0  0  0  0  0  0  0  0
   60.5893   30.8316   45.4842 H   0  0  0  0  0  0  0  0  0  0  0  0
   59.5531   32.2159   46.0916 H   0  0  0  0  0  0  0  0  0  0  0  0
  1  2  1  0
  2  3  1  0
  3  4  1  0
  4  5  1  0
  5  6  1  0
  6  7  1  0
  7  8  1  0
  8  9  2  0
  9 10  1  0
 10 11  2  0
 11 12  1  0
 12 13  2  0
  4 14  1  0
 14 15  1  0
 15 16  1  0
 16 17  1  0
 17 18  2  0
 18 19  1  0
 18 20  1  0
 20 21  2  0
 21 22  1  0
 22 23  1  0
 22 24  2  0
 24 25  1  0
 13  8  1  0
 25 14  1  0
 24 17  1  0
  1 26  1  0
  1 27  1  0
  1 28  1  0
  2 29  1  0
  2 30  1  0
  3 31  1  0
  3 32  1  0
  5 33  1  0
  5 34  1  0
  6 35  1  0
  6 36  1  0
  7 37  1  0
  7 38  1  0
  9 39  1  0
 10 40  1  0
 11 41  1  0
 12 42  1  0
 13 43  1  0
 14 44  1  1
 15 45  1  0
 15 46  1  0
 16 47  1  0
 16 48  1  0
 19 49  1  0
 20 50  1  0
 21 51  1  0
 25 52  1  0
 25 53  1  0
M  END
>  <UniqueID>  (84) 
81

>  <SMILES>  (84) 
CCCN(CCCc1ccccc1)[C@@H]1CCc2c(O)ccc(F)c2C1

>  <Energy>  (84) 
59.174295113206085

>  <Genealogy>  (84) 
CCCN(CCCc1ccccc1)[C@@H]1CCc2c(O)ccc(F)c2C1 (chirality)
CCCN(CCCc1ccccc1)[C@@H]1CCc2c(O)ccc(F)c2C1 (3D coordinates assigned)
CCCN(CCCc1ccccc1)[C@@H]1CCc2c(O)ccc(F)c2C1 (nonaromatic ring conformer: 59.174295113206085 kcal/mol)

>  <smiles>  (84) 
CCCN(CCCc1ccccc1)C1CCc2c(O)ccc(F)c2C1

>  <score_type>  (84) 
oracle

>  <origin>  (84) 
adg

>  <m_score__min__energy>  (84) 
-9.0299999999999994

>  <m_primary>  (84) 
energy

$$$$
84:0
     RDKit          3D

 40 41  0  0  0  0  0  0  0  0999 V2000
   60.2020   30.7880   47.3140 C   0  0  0  0  0  0  0  0  0  0  0  0
   59.4560   31.2490   46.1930 O   0  0  0  0  0  0  0  0  0  0  0  0
   58.2420   30.7110   45.7230 C   0  0  0  0  0  0  0  0  0  0  0  0
   57.4120   31.5180   44.9190 C   0  0  0  0  0  0  0  0  0  0  0  0
   57.8160   32.9140   44.5200 C   0  0  0  0  0  0  0  0  0  0  0  0
   57.5380   33.9250   45.6400 C   0  0  0  0  0  0  0  0  0  0  0  0
   58.4830   33.7470   46.7430 N   0  0  0  0  0  0  0  0  0  0  0  0
   59.6330   34.5950   46.9050 C   0  0  0  0  0  0  0  0  0  0  0  0
   59.6800   35.7070   46.3110 O   0  0  0  0  0  0  0  0  0  0  0  0
   60.8030   34.1530   47.7000 C   0  0  0  0  0  0  0  0  0  0  0  0
   61.9980   33.7460   47.0800 C   0  0  0  0  0  0  0  0  0  0  0  0
   63.1070   33.3870   47.8500 C   0  0  0  0  0  0  0  0  0  0  0  0
   63.0370   33.4180   49.2480 C   0  0  0  0  0  0  0  0  0  0  0  0
   64.4490   33.0120   50.2150 S   0  0  0  0  0  0  0  0  0  0  0  0
   64.5720   34.1490   51.5770 C   0  0  0  0  0  0  0  0  0  0  0  0
   64.3230   31.6090   50.7400 O   0  0  0  0  0  0  0  0  0  0  0  0
   65.6900   33.1010   49.3710 O   0  0  0  0  0  0  0  0  0  0  0  0
   61.8460   33.8110   49.8720 C   0  0  0  0  0  0  0  0  0  0  0  0
   60.7350   34.1680   49.1040 C   0  0  0  0  0  0  0  0  0  0  0  0
   56.2480   31.0130   44.4290 N   0  0  0  0  0  0  0  0  0  0  0  0
   55.8540   29.7480   44.7100 C   0  0  0  0  0  0  0  0  0  0  0  0
   54.7700   29.3100   44.2470 O   0  0  0  0  0  0  0  0  0  0  0  0
   56.6280   28.9520   45.4870 N   0  0  0  0  0  0  0  0  0  0  0  0
   57.8070   29.3940   45.9980 C   0  0  0  0  0  0  0  0  0  0  0  0
   58.4880   28.6120   46.7100 O   0  0  0  0  0  0  0  0  0  0  0  0
   59.6993   31.0986   48.2418 H   0  0  0  0  0  0  0  0  0  0  0  0
   60.2695   29.6905   47.2833 H   0  0  0  0  0  0  0  0  0  0  0  0
   61.2138   31.2186   47.2833 H   0  0  0  0  0  0  0  0  0  0  0  0
   58.8918   32.9224   44.2907 H   0  0  0  0  0  0  0  0  0  0  0  0
   57.2240   33.2048   43.6397 H   0  0  0  0  0  0  0  0  0  0  0  0
   57.6383   34.9445   45.2394 H   0  0  0  0  0  0  0  0  0  0  0  0
   56.5179   33.7625   46.0182 H   0  0  0  0  0  0  0  0  0  0  0  0
   58.4400   32.8360   47.2480 H   0  0  0  0  0  0  0  0  0  0  0  0
   62.0598   33.7101   45.9823 H   0  0  0  0  0  0  0  0  0  0  0  0
   64.0399   33.0784   47.3555 H   0  0  0  0  0  0  0  0  0  0  0  0
   64.5119   33.5938   52.5247 H   0  0  0  0  0  0  0  0  0  0  0  0
   65.5330   34.6816   51.5244 H   0  0  0  0  0  0  0  0  0  0  0  0
   63.7471   34.8748   51.5244 H   0  0  0  0  0  0  0  0  0  0  0  0
   61.7854   33.8386   50.9700 H   0  0  0  0  0  0  0  0  0  0  0  0
   59.7996   34.4632   49.6019 H   0  0  0  0  0  0  0  0  0  0  0  0
  1  2  1  0
  2  3  1  0
  3  4  2  0
  4  5  1  0
  5  6  1  0
  6  7  1  0
  7  8  1  0
  8  9  2  0
  8 10  1  0
 10 11  2  0
 11 12  1  0
 12 13  2  0
 13 14  1  0
 14 15  1  0
 14 16  2  0
 14 17  2  0
 13 18  1  0
 18 19  2  0
  4 20  1  0
 20 21  1  0
 21 22  2  0
 21 23  1  0
 23 24  1  0
 24 25  2  0
 24  3  1  0
 19 10  1  0
  1 26  1  0
  1 27  1  0
  1 28  1  0
  5 29  1  0
  5 30  1  0
  6 31  1  0
  6 32  1  0
  7 33  1  0
 11 34  1  0
 12 35  1  0
 15 36  1  0
 15 37  1  0
 15 38  1  0
 18 39  1  0
 19 40  1  0
M  CHG  2  20  -1  23  -1
M  END
>  <UniqueID>  (85) 
82

>  <SMILES>  (85) 
COc1c(CCNC(=O)c2ccc(S(C)(=O)=O)cc2)[n-]c(=O)[n-]c1=O

>  <Energy>  (85) 
36.709389031880406

>  <Genealogy>  (85) 
COc1c(CCNC(=O)c2ccc(S(C)(=O)=O)cc2)[n-]c(=O)[n-]c1=O (protonated)
COc1c(CCNC(=O)c2ccc(S(C)(=O)=O)cc2)[n-]c(=O)[n-]c1=O (3D coordinates assigned)
COc1c(CCNC(=O)c2ccc(S(C)(=O)=O)cc2)[n-]c(=O)[n-]c1=O (optimized conformer: 36.709389031880406 kcal/mol)

>  <smiles>  (85) 
COc1c(CCNC(=O)c2ccc(S(C)(=O)=O)cc2)[nH]c(=O)[nH]c1=O

>  <score_type>  (85) 
oracle

>  <origin>  (85) 
adg

>  <m_score__min__energy>  (85) 
-11.35

>  <m_primary>  (85) 
energy

$$$$
85:0
     RDKit          3D

 36 37  0  0  0  0  0  0  0  0999 V2000
   58.1470   27.6190   43.4980 C   0  0  0  0  0  0  0  0  0  0  0  0
   57.8580   28.3590   44.7330 N   0  0  0  0  0  0  0  0  0  0  0  0
   57.0670   27.5260   45.6460 C   0  0  0  0  0  0  0  0  0  0  0  0
   56.9990   29.8340   44.3520 S   0  0  0  0  0  0  0  0  0  0  0  0
   55.5910   29.7080   44.8650 O   0  0  0  0  0  0  0  0  0  0  0  0
   56.9100   30.0070   42.8620 O   0  0  0  0  0  0  0  0  0  0  0  0
   57.7490   31.2560   45.1140 C   0  0  0  0  0  0  0  0  0  0  0  0
   57.5230   32.5060   44.5180 C   0  0  0  0  0  0  0  0  0  0  0  0
   58.0960   33.6580   45.0470 C   0  0  0  0  0  0  0  0  0  0  0  0
   58.9030   33.5620   46.1770 C   0  0  0  0  0  0  0  0  0  0  0  0
   59.6330   35.0410   46.8810 S   0  0  0  0  0  0  0  0  0  0  0  0
   61.1310   34.1780   47.3560 C   0  0  0  0  0  0  0  0  0  0  0  0
   61.3530   33.8440   48.6980 C   0  0  0  0  0  0  0  0  0  0  0  0
   62.5260   33.1790   49.0680 C   0  0  0  0  0  0  0  0  0  0  0  0
   63.4770   32.8450   48.0990 C   0  0  0  0  0  0  0  0  0  0  0  0
   63.2550   33.1750   46.7590 C   0  0  0  0  0  0  0  0  0  0  0  0
   62.0830   33.8400   46.3860 C   0  0  0  0  0  0  0  0  0  0  0  0
   59.1260   32.3510   46.7540 N   0  0  0  0  0  0  0  0  0  0  0  0
   58.5710   31.2000   46.2710 C   0  0  0  0  0  0  0  0  0  0  0  0
   58.8360   29.9730   46.9640 N   0  0  0  0  0  0  0  0  0  0  0  0
   58.5365   26.6218   43.7507 H   0  0  0  0  0  0  0  0  0  0  0  0
   57.2239   27.5137   42.9091 H   0  0  0  0  0  0  0  0  0  0  0  0
   58.8971   28.1672   42.9091 H   0  0  0  0  0  0  0  0  0  0  0  0
   57.3137   27.7858   46.6860 H   0  0  0  0  0  0  0  0  0  0  0  0
   55.9959   27.7023   45.4682 H   0  0  0  0  0  0  0  0  0  0  0  0
   57.2985   26.4654   45.4682 H   0  0  0  0  0  0  0  0  0  0  0  0
   56.8864   32.5757   43.6236 H   0  0  0  0  0  0  0  0  0  0  0  0
   57.9131   34.6354   44.5768 H   0  0  0  0  0  0  0  0  0  0  0  0
   60.6046   34.1048   49.4608 H   0  0  0  0  0  0  0  0  0  0  0  0
   62.7008   32.9184   50.1223 H   0  0  0  0  0  0  0  0  0  0  0  0
   64.3999   32.3226   48.3912 H   0  0  0  0  0  0  0  0  0  0  0  0
   64.0032   32.9112   45.9970 H   0  0  0  0  0  0  0  0  0  0  0  0
   61.9087   34.0977   45.3309 H   0  0  0  0  0  0  0  0  0  0  0  0
   59.7310   32.3080   47.6050 H   0  0  0  0  0  0  0  0  0  0  0  0
   58.9060   29.0520   46.4870 H   0  0  0  0  0  0  0  0  0  0  0  0
   58.8760   29.9640   48.0060 H   0  0  0  0  0  0  0  0  0  0  0  0
  1  2  1  0
  2  3  1  0
  2  4  1  0
  4  5  2  0
  4  6  2  0
  4  7  1  0
  7  8  2  0
  8  9  1  0
  9 10  2  0
 10 11  1  0
 11 12  1  0
 12 13  2  0
 13 14  1  0
 14 15  2  0
 15 16  1  0
 16 17  2  0
 10 18  1  0
 18 19  2  0
 19 20  1  0
 19  7  1  0
 17 12  1  0
  1 21  1  0
  1 22  1  0
  1 23  1  0
  3 24  1  0
  3 25  1  0
  3 26  1  0
  8 27  1  0
  9 28  1  0
 13 29  1  0
 14 30  1  0
 15 31  1  0
 16 32  1  0
 17 33  1  0
 18 34  1  0
 20 35  1  0
 20 36  1  0
M  CHG  1  18   1
M  END
>  <UniqueID>  (86) 
83

>  <SMILES>  (86) 
CN(C)S(=O)(=O)c1ccc(Sc2ccccc2)[nH+]c1N

>  <Energy>  (86) 
32.49200548572845

>  <Genealogy>  (86) 
CN(C)S(=O)(=O)c1ccc(Sc2ccccc2)[nH+]c1N (protonated)
CN(C)S(=O)(=O)c1ccc(Sc2ccccc2)[nH+]c1N (3D coordinates assigned)
CN(C)S(=O)(=O)c1ccc(Sc2ccccc2)[nH+]c1N (optimized conformer: 32.49200548572845 kcal/mol)

>  <smiles>  (86) 
CN(C)S(=O)(=O)c1ccc(Sc2ccccc2)nc1N

>  <score_type>  (86) 
oracle

>  <origin>  (86) 
adg

>  <m_score__min__energy>  (86) 
-6.21

>  <m_primary>  (86) 
energy

$$$$
86:0
     RDKit          3D

 64 68  0  0  0  0  0  0  0  0999 V2000
   55.2990   26.3790   46.0550 O   0  0  0  0  0  0  0  0  0  0  0  0
   56.4070   25.9870   45.5970 C   0  0  0  0  0  0  0  0  0  0  0  0
   56.5160   24.6150   45.0590 C   0  0  0  0  0  0  0  0  0  0  0  0
   56.6050   24.4390   43.6700 C   0  0  0  0  0  0  0  0  0  0  0  0
   56.6740   23.1590   43.1250 C   0  0  0  0  0  0  0  0  0  0  0  0
   56.6610   22.0400   43.9560 C   0  0  0  0  0  0  0  0  0  0  0  0
   56.5880   22.1840   45.3570 C   0  0  0  0  0  0  0  0  0  0  0  0
   56.5910   20.9590   46.2490 C   0  0  0  0  0  0  0  0  0  0  0  0
   56.5160   19.8190   45.4690 F   0  0  0  0  0  0  0  0  0  0  0  0
   55.5210   20.9570   47.1270 F   0  0  0  0  0  0  0  0  0  0  0  0
   57.7550   20.9250   46.9950 F   0  0  0  0  0  0  0  0  0  0  0  0
   56.5330   23.4860   45.9120 C   0  0  0  0  0  0  0  0  0  0  0  0
   56.5560   23.7110   47.6680 Cl  0  0  0  0  0  0  0  0  0  0  0  0
   57.5530   26.8620   45.6430 N   0  0  0  0  0  0  0  0  0  0  0  0
   57.6220   28.0000   44.7060 C   0  0  0  0  0  0  0  0  0  0  0  0
   59.0210   28.6250   44.6390 C   0  0  0  0  0  0  0  0  0  0  0  0
   59.5830   28.7930   46.0210 C   0  0  0  0  0  0  0  0  0  0  0  0
   60.2770   29.9520   46.3880 C   0  0  0  0  0  0  0  0  0  0  0  0
   60.8250   30.0810   47.6770 C   0  0  0  0  0  0  0  0  0  0  0  0
   61.4660   31.3110   48.0780 N   0  0  0  0  0  0  0  0  0  0  0  0
   61.9130   31.5450   49.4480 C   0  0  0  0  0  0  0  0  0  0  0  0
   61.2400   32.8050   50.0050 C   0  0  0  0  0  0  0  0  0  0  0  0
   61.0370   33.8860   48.9940 N   0  0  0  0  0  0  0  0  0  0  0  0
   59.6110   34.2500   48.7600 C   0  0  0  0  0  0  0  0  0  0  0  0
   59.0860   33.9810   47.3630 C   0  0  0  0  0  0  0  0  0  0  0  0
   58.4260   32.7740   47.0690 C   0  0  0  0  0  0  0  0  0  0  0  0
   57.9790   32.5080   45.7710 C   0  0  0  0  0  0  0  0  0  0  0  0
   58.2190   33.4250   44.7460 C   0  0  0  0  0  0  0  0  0  0  0  0
   58.9300   34.5980   45.0120 C   0  0  0  0  0  0  0  0  0  0  0  0
   59.3710   34.8710   46.3100 C   0  0  0  0  0  0  0  0  0  0  0  0
   61.8390   33.7440   47.7500 C   0  0  0  0  0  0  0  0  0  0  0  0
   61.7540   32.3550   47.0930 C   0  0  0  0  0  0  0  0  0  0  0  0
   60.6910   29.0110   48.5820 C   0  0  0  0  0  0  0  0  0  0  0  0
   60.0030   27.8530   48.2140 C   0  0  0  0  0  0  0  0  0  0  0  0
   59.4320   27.7460   46.9390 C   0  0  0  0  0  0  0  0  0  0  0  0
   58.6850   26.5100   46.5180 C   0  0  0  0  0  0  0  0  0  0  0  0
   56.6204   25.3170   43.0075 H   0  0  0  0  0  0  0  0  0  0  0  0
   56.7390   23.0307   42.0344 H   0  0  0  0  0  0  0  0  0  0  0  0
   56.7082   21.0337   43.5142 H   0  0  0  0  0  0  0  0  0  0  0  0
   57.3456   27.6466   43.7017 H   0  0  0  0  0  0  0  0  0  0  0  0
   56.9288   28.7731   45.0692 H   0  0  0  0  0  0  0  0  0  0  0  0
   59.6837   27.9696   44.0549 H   0  0  0  0  0  0  0  0  0  0  0  0
   58.9494   29.6123   44.1592 H   0  0  0  0  0  0  0  0  0  0  0  0
   60.3949   30.7695   45.6615 H   0  0  0  0  0  0  0  0  0  0  0  0
   61.6439   30.6806   50.0728 H   0  0  0  0  0  0  0  0  0  0  0  0
   63.0044   31.6821   49.4559 H   0  0  0  0  0  0  0  0  0  0  0  0
   60.2572   32.5215   50.4096 H   0  0  0  0  0  0  0  0  0  0  0  0
   61.9145   33.2116   50.7729 H   0  0  0  0  0  0  0  0  0  0  0  0
   61.4300   34.7510   49.4410 H   0  0  0  0  0  0  0  0  0  0  0  0
   58.9950   33.6774   49.4689 H   0  0  0  0  0  0  0  0  0  0  0  0
   59.5524   35.3397   48.8984 H   0  0  0  0  0  0  0  0  0  0  0  0
   58.2603   32.0341   47.8659 H   0  0  0  0  0  0  0  0  0  0  0  0
   57.4374   31.5747   45.5572 H   0  0  0  0  0  0  0  0  0  0  0  0
   57.8487   33.2242   43.7299 H   0  0  0  0  0  0  0  0  0  0  0  0
   59.1430   35.3076   44.1989 H   0  0  0  0  0  0  0  0  0  0  0  0
   59.9449   35.7878   46.5102 H   0  0  0  0  0  0  0  0  0  0  0  0
   61.4830   34.4901   47.0243 H   0  0  0  0  0  0  0  0  0  0  0  0
   62.8908   33.8916   48.0364 H   0  0  0  0  0  0  0  0  0  0  0  0
   60.9534   32.3650   46.3387 H   0  0  0  0  0  0  0  0  0  0  0  0
   62.7266   32.1328   46.6297 H   0  0  0  0  0  0  0  0  0  0  0  0
   61.1317   29.0878   49.5869 H   0  0  0  0  0  0  0  0  0  0  0  0
   59.9089   27.0215   48.9279 H   0  0  0  0  0  0  0  0  0  0  0  0
   59.3687   25.8420   45.9737 H   0  0  0  0  0  0  0  0  0  0  0  0
   58.2966   26.0069   47.4158 H   0  0  0  0  0  0  0  0  0  0  0  0
  1  2  2  0
  2  3  1  0
  3  4  2  0
  4  5  1  0
  5  6  2  0
  6  7  1  0
  7  8  1  0
  8  9  1  0
  8 10  1  0
  8 11  1  0
  7 12  2  0
 12 13  1  0
  2 14  1  0
 14 15  1  0
 15 16  1  0
 16 17  1  0
 17 18  2  0
 18 19  1  0
 19 20  1  0
 20 21  1  0
 21 22  1  0
 22 23  1  0
 23 24  1  0
 24 25  1  0
 25 26  2  0
 26 27  1  0
 27 28  2  0
 28 29  1  0
 29 30  2  0
 23 31  1  0
 31 32  1  0
 19 33  2  0
 33 34  1  0
 34 35  2  0
 35 36  1  0
 12  3  1  0
 36 14  1  0
 35 17  1  0
 32 20  1  0
 30 25  1  0
  4 37  1  0
  5 38  1  0
  6 39  1  0
 15 40  1  0
 15 41  1  0
 16 42  1  0
 16 43  1  0
 18 44  1  0
 21 45  1  0
 21 46  1  0
 22 47  1  0
 22 48  1  0
 23 49  1  0
 24 50  1  0
 24 51  1  0
 26 52  1  0
 27 53  1  0
 28 54  1  0
 29 55  1  0
 30 56  1  0
 31 57  1  0
 31 58  1  0
 32 59  1  0
 32 60  1  0
 33 61  1  0
 34 62  1  0
 36 63  1  0
 36 64  1  0
M  CHG  1  23   1
M  END
>  <UniqueID>  (87) 
84

>  <SMILES>  (87) 
O=C(c1cccc(C(F)(F)F)c1Cl)N1CCc2cc(N3CC[NH+](Cc4ccccc4)CC3)ccc2C1

>  <Energy>  (87) 
96.28021166601194

>  <Genealogy>  (87) 
O=C(c1cccc(C(F)(F)F)c1Cl)N1CCc2cc(N3CC[NH+](Cc4ccccc4)CC3)ccc2C1 (protonated)
O=C(c1cccc(C(F)(F)F)c1Cl)N1CCc2cc(N3CC[NH+](Cc4ccccc4)CC3)ccc2C1 (3D coordinates assigned)
O=C(c1cccc(C(F)(F)F)c1Cl)N1CCc2cc(N3CC[NH+](Cc4ccccc4)CC3)ccc2C1 (nonaromatic ring conformer: 96.28021166601194 kcal/mol)

>  <smiles>  (87) 
O=C(c1cccc(C(F)(F)F)c1Cl)N1CCc2cc(N3CCN(Cc4ccccc4)CC3)ccc2C1

>  <score_type>  (87) 
oracle

>  <origin>  (87) 
adg

>  <m_score__min__energy>  (87) 
-8.5899999999999999

>  <m_primary>  (87) 
energy

$$$$
87:0
     RDKit          3D

 51 53  0  0  0  0  0  0  0  0999 V2000
   55.1410   29.3320   44.7680 N   0  0  0  0  0  0  0  0  0  0  0  0
   56.8410   29.6050   44.9380 S   0  0  0  0  0  0  0  0  0  0  0  0
   57.4340   29.6450   43.5610 O   0  0  0  0  0  0  0  0  0  0  0  0
   57.0470   30.9300   45.6140 O   0  0  0  0  0  0  0  0  0  0  0  0
   57.5570   28.3180   45.9330 C   0  0  0  0  0  0  0  0  0  0  0  0
   56.9000   27.0750   45.9390 C   0  0  0  0  0  0  0  0  0  0  0  0
   57.3740   26.0150   46.7090 C   0  0  0  0  0  0  0  0  0  0  0  0
   58.5090   26.1790   47.4980 C   0  0  0  0  0  0  0  0  0  0  0  0
   59.1710   27.4050   47.5200 C   0  0  0  0  0  0  0  0  0  0  0  0
   58.7110   28.4910   46.7510 C   0  0  0  0  0  0  0  0  0  0  0  0
   59.6130   30.0170   46.8620 S   0  0  0  0  0  0  0  0  0  0  0  0
   61.0710   29.7370   47.1040 O   0  0  0  0  0  0  0  0  0  0  0  0
   59.4940   30.7490   45.5550 O   0  0  0  0  0  0  0  0  0  0  0  0
   59.0210   30.9890   48.1830 N   0  0  0  0  0  0  0  0  0  0  0  0
   58.5300   32.3420   47.8940 C   0  0  0  0  0  0  0  0  0  0  0  0
   59.6700   33.3090   47.7630 C   0  0  0  0  0  0  0  0  0  0  0  0
   59.5400   34.4850   48.2030 O   0  0  0  0  0  0  0  0  0  0  0  0
   60.8990   32.8970   47.1500 N   0  0  0  0  0  0  0  0  0  0  0  0
   62.0370   33.7990   46.9900 C   0  0  0  0  0  0  0  0  0  0  0  0
   62.9030   33.7670   48.2190 C   0  0  0  0  0  0  0  0  0  0  0  0
   62.5100   34.4600   49.3760 C   0  0  0  0  0  0  0  0  0  0  0  0
   63.3180   34.4470   50.5170 C   0  0  0  0  0  0  0  0  0  0  0  0
   64.5270   33.7450   50.5110 C   0  0  0  0  0  0  0  0  0  0  0  0
   65.3110   33.7330   51.6180 F   0  0  0  0  0  0  0  0  0  0  0  0
   64.9270   33.0560   49.3620 C   0  0  0  0  0  0  0  0  0  0  0  0
   64.1220   33.0680   48.2180 C   0  0  0  0  0  0  0  0  0  0  0  0
   58.9140   30.4310   49.5090 C   0  0  0  0  0  0  0  0  0  0  0  0
   59.7470   29.3710   49.9080 C   0  0  0  0  0  0  0  0  0  0  0  0
   59.6570   28.8480   51.2020 C   0  0  0  0  0  0  0  0  0  0  0  0
   58.7460   29.3860   52.1130 C   0  0  0  0  0  0  0  0  0  0  0  0
   57.9290   30.4530   51.7350 C   0  0  0  0  0  0  0  0  0  0  0  0
   58.0150   30.9780   50.4420 C   0  0  0  0  0  0  0  0  0  0  0  0
   54.7310   29.3550   45.7300 H   0  0  0  0  0  0  0  0  0  0  0  0
   55.9972   26.9372   45.3259 H   0  0  0  0  0  0  0  0  0  0  0  0
   56.8508   25.0475   46.6934 H   0  0  0  0  0  0  0  0  0  0  0  0
   58.8833   25.3408   48.1041 H   0  0  0  0  0  0  0  0  0  0  0  0
   60.0663   27.5261   48.1475 H   0  0  0  0  0  0  0  0  0  0  0  0
   57.9619   32.3254   46.9522 H   0  0  0  0  0  0  0  0  0  0  0  0
   57.8870   32.6674   48.7251 H   0  0  0  0  0  0  0  0  0  0  0  0
   60.9840   31.9230   46.7840 H   0  0  0  0  0  0  0  0  0  0  0  0
   62.6306   33.4839   46.1192 H   0  0  0  0  0  0  0  0  0  0  0  0
   61.6645   34.8231   46.8404 H   0  0  0  0  0  0  0  0  0  0  0  0
   61.5610   35.0162   49.3844 H   0  0  0  0  0  0  0  0  0  0  0  0
   63.0021   34.9896   51.4202 H   0  0  0  0  0  0  0  0  0  0  0  0
   65.8777   32.5027   49.3576 H   0  0  0  0  0  0  0  0  0  0  0  0
   64.4442   32.5287   47.3150 H   0  0  0  0  0  0  0  0  0  0  0  0
   60.4742   28.9503   49.1979 H   0  0  0  0  0  0  0  0  0  0  0  0
   60.3050   28.0114   51.5025 H   0  0  0  0  0  0  0  0  0  0  0  0
   58.6720   28.9692   53.1283 H   0  0  0  0  0  0  0  0  0  0  0  0
   57.2166   30.8813   52.4554 H   0  0  0  0  0  0  0  0  0  0  0  0
   57.3752   31.8246   50.1525 H   0  0  0  0  0  0  0  0  0  0  0  0
  1  2  1  0
  2  3  2  0
  2  4  2  0
  2  5  1  0
  5  6  2  0
  6  7  1  0
  7  8  2  0
  8  9  1  0
  9 10  2  0
 10 11  1  0
 11 12  2  0
 11 13  2  0
 11 14  1  0
 14 15  1  0
 15 16  1  0
 16 17  2  0
 16 18  1  0
 18 19  1  0
 19 20  1  0
 20 21  2  0
 21 22  1  0
 22 23  2  0
 23 24  1  0
 23 25  1  0
 25 26  2  0
 14 27  1  0
 27 28  2  0
 28 29  1  0
 29 30  2  0
 30 31  1  0
 31 32  2  0
 10  5  1  0
 26 20  1  0
 32 27  1  0
  1 33  1  0
  6 34  1  0
  7 35  1  0
  8 36  1  0
  9 37  1  0
 15 38  1  0
 15 39  1  0
 18 40  1  0
 19 41  1  0
 19 42  1  0
 21 43  1  0
 22 44  1  0
 25 45  1  0
 26 46  1  0
 28 47  1  0
 29 48  1  0
 30 49  1  0
 31 50  1  0
 32 51  1  0
M  CHG  1   1  -1
M  END
>  <UniqueID>  (88) 
85

>  <SMILES>  (88) 
[NH-]S(=O)(=O)c1ccccc1S(=O)(=O)N(CC(=O)NCc1ccc(F)cc1)c1ccccc1

>  <Energy>  (88) 
57.914850551847415

>  <Genealogy>  (88) 
[NH-]S(=O)(=O)c1ccccc1S(=O)(=O)N(CC(=O)NCc1ccc(F)cc1)c1ccccc1 (protonated)
[NH-]S(=O)(=O)c1ccccc1S(=O)(=O)N(CC(=O)NCc1ccc(F)cc1)c1ccccc1 (3D coordinates assigned)
[NH-]S(=O)(=O)c1ccccc1S(=O)(=O)N(CC(=O)NCc1ccc(F)cc1)c1ccccc1 (optimized conformer: 57.914850551847415 kcal/mol)

>  <smiles>  (88) 
NS(=O)(=O)c1ccccc1S(=O)(=O)N(CC(=O)NCc1ccc(F)cc1)c1ccccc1

>  <score_type>  (88) 
oracle

>  <origin>  (88) 
adg

>  <m_score__min__energy>  (88) 
-11.949999999999999

>  <m_primary>  (88) 
energy

$$$$
88:0
     RDKit          3D

 56 58  0  0  0  0  0  0  0  0999 V2000
   50.7690   32.6450   51.7350 N   0  0  0  0  0  0  0  0  0  0  0  0
   51.1650   31.7010   52.7260 C   0  0  0  0  0  0  0  0  0  0  0  0
   50.3240   31.3300   53.5930 O   0  0  0  0  0  0  0  0  0  0  0  0
   52.5420   31.1580   52.7380 C   0  0  0  0  0  0  0  0  0  0  0  0
   53.3680   31.2710   51.6050 C   0  0  0  0  0  0  0  0  0  0  0  0
   54.6670   30.7410   51.6140 C   0  0  0  0  0  0  0  0  0  0  0  0
   55.1630   30.0850   52.7560 C   0  0  0  0  0  0  0  0  0  0  0  0
   56.5180   29.4870   52.7780 C   0  0  0  0  0  0  0  0  0  0  0  0
   56.6620   28.3160   53.2220 O   0  0  0  0  0  0  0  0  0  0  0  0
   57.6550   30.1910   52.2420 N   0  0  0  0  0  0  0  0  0  0  0  0
   58.8390   29.4790   51.7560 C   0  0  0  0  0  0  0  0  0  0  0  0
   59.6740   30.3740   50.8280 C   0  0  0  0  0  0  0  0  0  0  0  0
   59.2490   30.2240   49.3890 C   0  0  0  0  0  0  0  0  0  0  0  0
   59.0480   28.9470   48.8380 C   0  0  0  0  0  0  0  0  0  0  0  0
   58.5120   28.8090   47.5520 C   0  0  0  0  0  0  0  0  0  0  0  0
   58.1660   29.9450   46.8070 C   0  0  0  0  0  0  0  0  0  0  0  0
   57.5230   29.7980   45.1750 S   0  0  0  0  0  0  0  0  0  0  0  0
   58.6220   29.5410   44.1800 O   0  0  0  0  0  0  0  0  0  0  0  0
   56.5430   28.6610   45.1270 O   0  0  0  0  0  0  0  0  0  0  0  0
   56.7170   31.2770   44.7830 N   0  0  0  0  0  0  0  0  0  0  0  0
   57.4600   32.4570   44.4800 C   0  0  0  0  0  0  0  0  0  0  0  0
   58.1880   32.4950   43.4500 O   0  0  0  0  0  0  0  0  0  0  0  0
   57.4120   33.5760   45.3730 N   0  0  0  0  0  0  0  0  0  0  0  0
   58.4530   34.6050   45.3770 C   0  0  0  0  0  0  0  0  0  0  0  0
   59.4760   34.2960   46.4460 C   0  0  0  0  0  0  0  0  0  0  0  0
   60.7300   33.7680   46.0920 C   0  0  0  0  0  0  0  0  0  0  0  0
   61.7050   33.5420   47.0730 C   0  0  0  0  0  0  0  0  0  0  0  0
   61.4400   33.8570   48.4110 C   0  0  0  0  0  0  0  0  0  0  0  0
   60.1980   34.3920   48.7690 C   0  0  0  0  0  0  0  0  0  0  0  0
   59.2180   34.6110   47.7930 C   0  0  0  0  0  0  0  0  0  0  0  0
   58.3900   31.2200   47.3450 C   0  0  0  0  0  0  0  0  0  0  0  0
   58.9220   31.3590   48.6290 C   0  0  0  0  0  0  0  0  0  0  0  0
   54.3390   29.9860   53.8920 C   0  0  0  0  0  0  0  0  0  0  0  0
   53.0420   30.5160   53.8830 C   0  0  0  0  0  0  0  0  0  0  0  0
   50.2590   32.3350   50.8780 H   0  0  0  0  0  0  0  0  0  0  0  0
   52.9924   31.7791   50.7046 H   0  0  0  0  0  0  0  0  0  0  0  0
   55.3026   30.8390   50.7216 H   0  0  0  0  0  0  0  0  0  0  0  0
   57.5540   31.1850   51.9390 H   0  0  0  0  0  0  0  0  0  0  0  0
   59.4555   29.1767   52.6154 H   0  0  0  0  0  0  0  0  0  0  0  0
   58.5100   28.5953   51.1896 H   0  0  0  0  0  0  0  0  0  0  0  0
   59.5448   31.4233   51.1317 H   0  0  0  0  0  0  0  0  0  0  0  0
   60.7280   30.0702   50.9108 H   0  0  0  0  0  0  0  0  0  0  0  0
   59.3130   28.0518   49.4197 H   0  0  0  0  0  0  0  0  0  0  0  0
   58.3620   27.8064   47.1250 H   0  0  0  0  0  0  0  0  0  0  0  0
   56.6940   33.5840   46.1340 H   0  0  0  0  0  0  0  0  0  0  0  0
   58.9473   34.6279   44.3946 H   0  0  0  0  0  0  0  0  0  0  0  0
   57.9951   35.5833   45.5851 H   0  0  0  0  0  0  0  0  0  0  0  0
   60.9469   33.5311   45.0399 H   0  0  0  0  0  0  0  0  0  0  0  0
   62.6795   33.1166   46.7913 H   0  0  0  0  0  0  0  0  0  0  0  0
   62.2074   33.6841   49.1799 H   0  0  0  0  0  0  0  0  0  0  0  0
   59.9906   34.6413   49.8201 H   0  0  0  0  0  0  0  0  0  0  0  0
   58.2427   35.0309   48.0804 H   0  0  0  0  0  0  0  0  0  0  0  0
   58.1458   32.1147   46.7535 H   0  0  0  0  0  0  0  0  0  0  0  0
   59.0858   32.3631   49.0474 H   0  0  0  0  0  0  0  0  0  0  0  0
   54.7169   29.4873   54.7967 H   0  0  0  0  0  0  0  0  0  0  0  0
   52.4105   30.4287   54.7794 H   0  0  0  0  0  0  0  0  0  0  0  0
  1  2  1  0
  2  3  2  0
  2  4  1  0
  4  5  2  0
  5  6  1  0
  6  7  2  0
  7  8  1  0
  8  9  2  0
  8 10  1  0
 10 11  1  0
 11 12  1  0
 12 13  1  0
 13 14  2  0
 14 15  1  0
 15 16  2  0
 16 17  1  0
 17 18  2  0
 17 19  2  0
 17 20  1  0
 20 21  1  0
 21 22  2  0
 21 23  1  0
 23 24  1  0
 24 25  1  0
 25 26  2  0
 26 27  1  0
 27 28  2  0
 28 29  1  0
 29 30  2  0
 16 31  1  0
 31 32  2  0
  7 33  1  0
 33 34  2  0
 34  4  1  0
 32 13  1  0
 30 25  1  0
  1 35  1  0
  5 36  1  0
  6 37  1  0
 10 38  1  0
 11 39  1  0
 11 40  1  0
 12 41  1  0
 12 42  1  0
 14 43  1  0
 15 44  1  0
 23 45  1  0
 24 46  1  0
 24 47  1  0
 26 48  1  0
 27 49  1  0
 28 50  1  0
 29 51  1  0
 30 52  1  0
 31 53  1  0
 32 54  1  0
 33 55  1  0
 34 56  1  0
M  CHG  2   1  -1  20  -1
M  END
>  <UniqueID>  (89) 
86

>  <SMILES>  (89) 
[NH-]C(=O)c1ccc(C(=O)NCCc2ccc(S(=O)(=O)[N-]C(=O)NCc3ccccc3)cc2)cc1

>  <Energy>  (89) 
53.348270086689084

>  <Genealogy>  (89) 
[NH-]C(=O)c1ccc(C(=O)NCCc2ccc(S(=O)(=O)[N-]C(=O)NCc3ccccc3)cc2)cc1 (protonated)
[NH-]C(=O)c1ccc(C(=O)NCCc2ccc(S(=O)(=O)[N-]C(=O)NCc3ccccc3)cc2)cc1 (3D coordinates assigned)
[NH-]C(=O)c1ccc(C(=O)NCCc2ccc(S(=O)(=O)[N-]C(=O)NCc3ccccc3)cc2)cc1 (optimized conformer: 53.348270086689084 kcal/mol)

>  <smiles>  (89) 
NC(=O)c1ccc(C(=O)NCCc2ccc(S(=O)(=O)NC(=O)NCc3ccccc3)cc2)cc1

>  <score_type>  (89) 
oracle

>  <origin>  (89) 
adg

>  <m_score__min__energy>  (89) 
-13.85

>  <m_primary>  (89) 
energy

$$$$
89:0
     RDKit          3D

 44 46  0  0  0  0  0  0  0  0999 V2000
   55.1520   29.3350   44.7710 O   0  0  0  0  0  0  0  0  0  0  0  0
   56.3670   29.6690   44.7250 C   0  0  0  0  0  0  0  0  0  0  0  0
   57.3740   28.7460   44.1100 C   0  0  0  0  0  0  0  0  0  0  0  0
   58.8100   29.1330   44.4860 C   0  0  0  0  0  0  0  0  0  0  0  0
   59.1720   28.6980   45.8870 C   0  0  0  0  0  0  0  0  0  0  0  0
   59.4360   29.6580   46.8760 C   0  0  0  0  0  0  0  0  0  0  0  0
   59.7620   29.2600   48.1710 C   0  0  0  0  0  0  0  0  0  0  0  0
   59.7980   27.9010   48.4790 C   0  0  0  0  0  0  0  0  0  0  0  0
   59.5310   26.9790   47.5180 N   0  0  0  0  0  0  0  0  0  0  0  0
   59.2320   27.3350   46.2360 C   0  0  0  0  0  0  0  0  0  0  0  0
   58.9420   26.3590   45.2720 O   0  0  0  0  0  0  0  0  0  0  0  0
   57.7350   25.6520   45.1680 C   0  0  0  0  0  0  0  0  0  0  0  0
   56.7010   25.7900   46.1140 C   0  0  0  0  0  0  0  0  0  0  0  0
   55.5190   25.0550   45.9760 C   0  0  0  0  0  0  0  0  0  0  0  0
   55.3640   24.1710   44.9050 C   0  0  0  0  0  0  0  0  0  0  0  0
   56.3950   24.0150   43.9730 C   0  0  0  0  0  0  0  0  0  0  0  0
   57.5790   24.7490   44.1100 C   0  0  0  0  0  0  0  0  0  0  0  0
   56.7940   30.9310   45.2470 N   0  0  0  0  0  0  0  0  0  0  0  0
   57.3660   31.9920   44.4260 C   0  0  0  0  0  0  0  0  0  0  0  0
   58.0810   32.9900   45.2940 C   0  0  0  0  0  0  0  0  0  0  0  0
   58.7930   34.0490   44.7080 C   0  0  0  0  0  0  0  0  0  0  0  0
   59.4560   34.9810   45.5130 C   0  0  0  0  0  0  0  0  0  0  0  0
   59.4010   34.8710   46.9040 C   0  0  0  0  0  0  0  0  0  0  0  0
   58.6760   33.8320   47.4950 C   0  0  0  0  0  0  0  0  0  0  0  0
   58.0150   32.8950   46.6950 C   0  0  0  0  0  0  0  0  0  0  0  0
   57.1784   27.7219   44.4606 H   0  0  0  0  0  0  0  0  0  0  0  0
   57.2774   28.8163   43.0165 H   0  0  0  0  0  0  0  0  0  0  0  0
   59.5024   28.6554   43.7771 H   0  0  0  0  0  0  0  0  0  0  0  0
   58.8855   30.2296   44.4436 H   0  0  0  0  0  0  0  0  0  0  0  0
   59.3854   30.7285   46.6280 H   0  0  0  0  0  0  0  0  0  0  0  0
   59.9887   30.0107   48.9424 H   0  0  0  0  0  0  0  0  0  0  0  0
   60.0427   27.5751   49.5007 H   0  0  0  0  0  0  0  0  0  0  0  0
   56.8232   26.4777   46.9638 H   0  0  0  0  0  0  0  0  0  0  0  0
   54.7100   25.1731   46.7119 H   0  0  0  0  0  0  0  0  0  0  0  0
   54.4315   23.5980   44.7950 H   0  0  0  0  0  0  0  0  0  0  0  0
   56.2755   23.3156   43.1324 H   0  0  0  0  0  0  0  0  0  0  0  0
   58.3922   24.6153   43.3814 H   0  0  0  0  0  0  0  0  0  0  0  0
   58.0791   31.5546   43.7117 H   0  0  0  0  0  0  0  0  0  0  0  0
   56.5568   32.5023   43.8831 H   0  0  0  0  0  0  0  0  0  0  0  0
   58.8294   34.1458   43.6129 H   0  0  0  0  0  0  0  0  0  0  0  0
   60.0220   35.8024   45.0494 H   0  0  0  0  0  0  0  0  0  0  0  0
   59.9282   35.6019   47.5348 H   0  0  0  0  0  0  0  0  0  0  0  0
   58.6255   33.7515   48.5909 H   0  0  0  0  0  0  0  0  0  0  0  0
   57.4417   32.0812   47.1632 H   0  0  0  0  0  0  0  0  0  0  0  0
  1  2  2  0
  2  3  1  0
  3  4  1  0
  4  5  1  0
  5  6  2  0
  6  7  1  0
  7  8  2  0
  8  9  1  0
  9 10  2  0
 10 11  1  0
 11 12  1  0
 12 13  2  0
 13 14  1  0
 14 15  2  0
 15 16  1  0
 16 17  2  0
  2 18  1  0
 18 19  1  0
 19 20  1  0
 20 21  2  0
 21 22  1  0
 22 23  2  0
 23 24  1  0
 24 25  2  0
 10  5  1  0
 17 12  1  0
 25 20  1  0
  3 26  1  0
  3 27  1  0
  4 28  1  0
  4 29  1  0
  6 30  1  0
  7 31  1  0
  8 32  1  0
 13 33  1  0
 14 34  1  0
 15 35  1  0
 16 36  1  0
 17 37  1  0
 19 38  1  0
 19 39  1  0
 21 40  1  0
 22 41  1  0
 23 42  1  0
 24 43  1  0
 25 44  1  0
M  CHG  1  18  -1
M  END
>  <UniqueID>  (90) 
87

>  <SMILES>  (90) 
O=C(CCc1cccnc1Oc1ccccc1)[N-]Cc1ccccc1

>  <Energy>  (90) 
42.96362586068087

>  <Genealogy>  (90) 
O=C(CCc1cccnc1Oc1ccccc1)[N-]Cc1ccccc1 (protonated)
O=C(CCc1cccnc1Oc1ccccc1)[N-]Cc1ccccc1 (3D coordinates assigned)
O=C(CCc1cccnc1Oc1ccccc1)[N-]Cc1ccccc1 (optimized conformer: 42.96362586068087 kcal/mol)

>  <smiles>  (90) 
O=C(CCc1cccnc1Oc1ccccc1)NCc1ccccc1

>  <score_type>  (90) 
oracle

>  <origin>  (90) 
adg

>  <m_score__min__energy>  (90) 
-10.18

>  <m_primary>  (90) 
energy

$$$$
90:0
     RDKit          3D

 47 49  0  0  0  0  0  0  0  0999 V2000
   57.3940   31.5790   42.6920 C   0  0  0  0  0  0  0  0  0  0  0  0
   57.1130   31.5090   44.1920 C   0  0  1  0  0  0  0  0  0  0  0  0
   57.6020   30.2380   44.7190 N   0  0  0  0  0  0  0  0  0  0  0  0
   56.7400   29.1740   45.1450 C   0  0  0  0  0  0  0  0  0  0  0  0
   55.5100   29.2200   44.8680 O   0  0  0  0  0  0  0  0  0  0  0  0
   57.2930   28.0470   45.9350 C   0  0  0  0  0  0  0  0  0  0  0  0
   56.6760   26.7840   45.8470 C   0  0  0  0  0  0  0  0  0  0  0  0
   57.1930   25.6870   46.5390 C   0  0  0  0  0  0  0  0  0  0  0  0
   58.3270   25.8320   47.3330 C   0  0  0  0  0  0  0  0  0  0  0  0
   58.9500   27.0760   47.4430 C   0  0  0  0  0  0  0  0  0  0  0  0
   58.4490   28.1910   46.7470 C   0  0  0  0  0  0  0  0  0  0  0  0
   59.0570   29.4780   46.9440 N   0  0  0  0  0  0  0  0  0  0  0  0
   59.3990   29.9910   48.2430 C   0  0  0  0  0  0  0  0  0  0  0  0
   59.1210   29.3200   49.2750 O   0  0  0  0  0  0  0  0  0  0  0  0
   60.0810   31.2990   48.3950 C   0  0  0  0  0  0  0  0  0  0  0  0
   59.6120   32.2620   49.3060 C   0  0  0  0  0  0  0  0  0  0  0  0
   60.2610   33.4910   49.4300 C   0  0  0  0  0  0  0  0  0  0  0  0
   61.3780   33.7800   48.6460 C   0  0  0  0  0  0  0  0  0  0  0  0
   61.8590   32.8400   47.7180 C   0  0  0  0  0  0  0  0  0  0  0  0
   63.0070   33.1370   46.9020 N   0  0  0  0  0  0  0  0  0  0  0  0
   63.0860   34.2170   46.2810 O   0  0  0  0  0  0  0  0  0  0  0  0
   64.0370   32.2310   46.7870 O   0  0  0  0  0  0  0  0  0  0  0  0
   61.2000   31.6040   47.5970 C   0  0  0  0  0  0  0  0  0  0  0  0
   57.7720   32.6690   44.9070 C   0  0  0  0  0  0  0  0  0  0  0  0
   57.5040   32.9260   46.2640 C   0  0  0  0  0  0  0  0  0  0  0  0
   58.1270   33.9920   46.9180 C   0  0  0  0  0  0  0  0  0  0  0  0
   59.0280   34.8060   46.2300 C   0  0  0  0  0  0  0  0  0  0  0  0
   59.3110   34.5540   44.8850 C   0  0  0  0  0  0  0  0  0  0  0  0
   58.6900   33.4890   44.2250 C   0  0  0  0  0  0  0  0  0  0  0  0
   58.4495   31.8419   42.5286 H   0  0  0  0  0  0  0  0  0  0  0  0
   57.1845   30.6012   42.2337 H   0  0  0  0  0  0  0  0  0  0  0  0
   56.7503   32.3442   42.2337 H   0  0  0  0  0  0  0  0  0  0  0  0
   56.0281   31.5752   44.3610 H   0  0  0  0  0  0  0  0  0  0  0  0
   55.7765   26.6604   45.2260 H   0  0  0  0  0  0  0  0  0  0  0  0
   56.7029   24.7057   46.4565 H   0  0  0  0  0  0  0  0  0  0  0  0
   58.7328   24.9648   47.8746 H   0  0  0  0  0  0  0  0  0  0  0  0
   59.8405   27.1855   48.0794 H   0  0  0  0  0  0  0  0  0  0  0  0
   59.2530   30.0510   46.0930 H   0  0  0  0  0  0  0  0  0  0  0  0
   58.7285   32.0453   49.9244 H   0  0  0  0  0  0  0  0  0  0  0  0
   59.8900   34.2357   50.1496 H   0  0  0  0  0  0  0  0  0  0  0  0
   61.8857   34.7497   48.7546 H   0  0  0  0  0  0  0  0  0  0  0  0
   61.5639   30.8647   46.8684 H   0  0  0  0  0  0  0  0  0  0  0  0
   56.7998   32.2839   46.8134 H   0  0  0  0  0  0  0  0  0  0  0  0
   57.9069   34.1901   47.9774 H   0  0  0  0  0  0  0  0  0  0  0  0
   59.5154   35.6460   46.7465 H   0  0  0  0  0  0  0  0  0  0  0  0
   60.0235   35.1945   44.3445 H   0  0  0  0  0  0  0  0  0  0  0  0
   58.9202   33.2913   43.1677 H   0  0  0  0  0  0  0  0  0  0  0  0
  1  2  1  0
  2  3  1  0
  3  4  1  0
  4  5  2  0
  4  6  1  0
  6  7  2  0
  7  8  1  0
  8  9  2  0
  9 10  1  0
 10 11  2  0
 11 12  1  0
 12 13  1  0
 13 14  2  0
 13 15  1  0
 15 16  2  0
 16 17  1  0
 17 18  2  0
 18 19  1  0
 19 20  1  0
 20 21  2  0
 20 22  1  0
 19 23  2  0
  2 24  1  0
 24 25  2  0
 25 26  1  0
 26 27  2  0
 27 28  1  0
 28 29  2  0
 11  6  1  0
 23 15  1  0
 29 24  1  0
  1 30  1  0
  1 31  1  0
  1 32  1  0
  2 33  1  6
  7 34  1  0
  8 35  1  0
  9 36  1  0
 10 37  1  0
 12 38  1  0
 16 39  1  0
 17 40  1  0
 18 41  1  0
 23 42  1  0
 25 43  1  0
 26 44  1  0
 27 45  1  0
 28 46  1  0
 29 47  1  0
M  CHG  3   3  -1  20   1  22  -1
M  END
>  <UniqueID>  (91) 
88

>  <SMILES>  (91) 
C[C@@H]([N-]C(=O)c1ccccc1NC(=O)c1cccc([N+](=O)[O-])c1)c1ccccc1

>  <Energy>  (91) 
57.47269215474344

>  <Genealogy>  (91) 
CC([N-]C(=O)c1ccccc1NC(=O)c1cccc([N+](=O)[O-])c1)c1ccccc1 (protonated)
C[C@@H]([N-]C(=O)c1ccccc1NC(=O)c1cccc([N+](=O)[O-])c1)c1ccccc1 (chirality)
C[C@@H]([N-]C(=O)c1ccccc1NC(=O)c1cccc([N+](=O)[O-])c1)c1ccccc1 (3D coordinates assigned)
C[C@@H]([N-]C(=O)c1ccccc1NC(=O)c1cccc([N+](=O)[O-])c1)c1ccccc1 (optimized conformer: 57.47269215474344 kcal/mol)

>  <smiles>  (91) 
CC(NC(=O)c1ccccc1NC(=O)c1cccc([N+](=O)[O-])c1)c1ccccc1

>  <score_type>  (91) 
oracle

>  <origin>  (91) 
adg

>  <m_score__min__energy>  (91) 
-10.77

>  <m_primary>  (91) 
energy

$$$$
91:0
     RDKit          3D

 50 53  0  0  0  0  0  0  0  0999 V2000
   63.4320   34.1670   49.7270 O   0  0  0  0  0  0  0  0  0  0  0  0
   63.9550   33.1040   49.2970 C   0  0  0  0  0  0  0  0  0  0  0  0
   63.5150   32.5450   48.0480 N   0  0  0  0  0  0  0  0  0  0  0  0
   62.2180   32.7780   47.4680 C   0  0  0  0  0  0  0  0  0  0  0  0
   61.9860   33.8410   46.5830 C   0  0  0  0  0  0  0  0  0  0  0  0
   60.6980   34.0600   46.0860 C   0  0  0  0  0  0  0  0  0  0  0  0
   59.6560   33.2620   46.4730 N   0  0  0  0  0  0  0  0  0  0  0  0
   58.3120   33.4990   45.9260 C   0  0  0  0  0  0  0  0  0  0  0  0
   58.1420   32.8230   44.5600 C   0  0  0  0  0  0  0  0  0  0  0  0
   57.6540   31.4160   44.7130 C   0  0  0  0  0  0  0  0  0  0  0  0
   58.4290   30.3000   44.9410 C   0  0  0  0  0  0  0  0  0  0  0  0
   57.5010   29.2800   45.0630 C   0  0  0  0  0  0  0  0  0  0  0  0
   57.7740   27.8490   45.3260 C   0  0  0  0  0  0  0  0  0  0  0  0
   57.9720   27.4000   46.6430 C   0  0  0  0  0  0  0  0  0  0  0  0
   58.2170   26.0480   46.9040 C   0  0  0  0  0  0  0  0  0  0  0  0
   58.2620   25.1120   45.8550 C   0  0  0  0  0  0  0  0  0  0  0  0
   58.4960   23.7180   46.1290 N   0  0  0  0  0  0  0  0  0  0  0  0
   57.7030   23.0620   46.8410 O   0  0  0  0  0  0  0  0  0  0  0  0
   59.6160   23.0890   45.6310 O   0  0  0  0  0  0  0  0  0  0  0  0
   58.0670   25.5600   44.5360 C   0  0  0  0  0  0  0  0  0  0  0  0
   57.8310   26.9140   44.2740 C   0  0  0  0  0  0  0  0  0  0  0  0
   56.2590   29.7870   44.9110 N   0  0  0  0  0  0  0  0  0  0  0  0
   56.3910   31.0650   44.7040 O   0  0  0  0  0  0  0  0  0  0  0  0
   59.8650   32.2290   47.3420 C   0  0  0  0  0  0  0  0  0  0  0  0
   61.1410   31.9730   47.8510 C   0  0  0  0  0  0  0  0  0  0  0  0
   65.0580   32.4700   50.0570 C   0  0  0  0  0  0  0  0  0  0  0  0
   64.8430   31.2580   50.7440 C   0  0  0  0  0  0  0  0  0  0  0  0
   65.8840   30.6560   51.4600 C   0  0  0  0  0  0  0  0  0  0  0  0
   67.1480   31.2490   51.4920 C   0  0  0  0  0  0  0  0  0  0  0  0
   67.3750   32.4440   50.8050 C   0  0  0  0  0  0  0  0  0  0  0  0
   66.3390   33.0540   50.0900 C   0  0  0  0  0  0  0  0  0  0  0  0
   64.1950   31.9710   47.4990 H   0  0  0  0  0  0  0  0  0  0  0  0
   62.8139   34.4994   46.2813 H   0  0  0  0  0  0  0  0  0  0  0  0
   60.5203   34.8819   45.3768 H   0  0  0  0  0  0  0  0  0  0  0  0
   57.5642   33.0927   46.6229 H   0  0  0  0  0  0  0  0  0  0  0  0
   58.1743   34.5828   45.7978 H   0  0  0  0  0  0  0  0  0  0  0  0
   57.4136   33.3934   43.9649 H   0  0  0  0  0  0  0  0  0  0  0  0
   59.1197   32.8013   44.0564 H   0  0  0  0  0  0  0  0  0  0  0  0
   59.5249   30.2349   45.0098 H   0  0  0  0  0  0  0  0  0  0  0  0
   57.9340   28.1180   47.4755 H   0  0  0  0  0  0  0  0  0  0  0  0
   58.3761   25.7134   47.9397 H   0  0  0  0  0  0  0  0  0  0  0  0
   58.1003   24.8407   43.7045 H   0  0  0  0  0  0  0  0  0  0  0  0
   57.6886   27.2515   43.2368 H   0  0  0  0  0  0  0  0  0  0  0  0
   59.0204   31.5923   47.6441 H   0  0  0  0  0  0  0  0  0  0  0  0
   61.2978   31.1397   48.5517 H   0  0  0  0  0  0  0  0  0  0  0  0
   63.8514   30.7827   50.7172 H   0  0  0  0  0  0  0  0  0  0  0  0
   65.7062   29.7136   51.9988 H   0  0  0  0  0  0  0  0  0  0  0  0
   67.9641   30.7756   52.0576 H   0  0  0  0  0  0  0  0  0  0  0  0
   68.3725   32.9072   50.8264 H   0  0  0  0  0  0  0  0  0  0  0  0
   66.5258   33.9945   49.5509 H   0  0  0  0  0  0  0  0  0  0  0  0
  1  2  2  0
  2  3  1  0
  3  4  1  0
  4  5  2  0
  5  6  1  0
  6  7  2  0
  7  8  1  0
  8  9  1  0
  9 10  1  0
 10 11  2  0
 11 12  1  0
 12 13  1  0
 13 14  2  0
 14 15  1  0
 15 16  2  0
 16 17  1  0
 17 18  2  0
 17 19  1  0
 16 20  1  0
 20 21  2  0
 12 22  2  0
 22 23  1  0
  7 24  1  0
 24 25  2  0
  2 26  1  0
 26 27  2  0
 27 28  1  0
 28 29  2  0
 29 30  1  0
 30 31  2  0
 25  4  1  0
 31 26  1  0
 23 10  1  0
 21 13  1  0
  3 32  1  0
  5 33  1  0
  6 34  1  0
  8 35  1  0
  8 36  1  0
  9 37  1  0
  9 38  1  0
 11 39  1  0
 14 40  1  0
 15 41  1  0
 20 42  1  0
 21 43  1  0
 24 44  1  0
 25 45  1  0
 27 46  1  0
 28 47  1  0
 29 48  1  0
 30 49  1  0
 31 50  1  0
M  CHG  3   7   1  17   1  19  -1
M  END
>  <UniqueID>  (92) 
89

>  <SMILES>  (92) 
O=C(Nc1cc[n+](CCc2cc(-c3ccc([N+](=O)[O-])cc3)no2)cc1)c1ccccc1

>  <Energy>  (92) 
89.77446698342146

>  <Genealogy>  (92) 
O=C(Nc1cc[n+](CCc2cc(-c3ccc([N+](=O)[O-])cc3)no2)cc1)c1ccccc1 (3D coordinates assigned)
O=C(Nc1cc[n+](CCc2cc(-c3ccc([N+](=O)[O-])cc3)no2)cc1)c1ccccc1 (optimized conformer: 89.77446698342146 kcal/mol)

>  <smiles>  (92) 
O=C(Nc1cc[n+](CCc2cc(-c3ccc([N+](=O)[O-])cc3)no2)cc1)c1ccccc1

>  <score_type>  (92) 
oracle

>  <origin>  (92) 
adg

>  <m_score__min__energy>  (92) 
-8.4700000000000006

>  <m_primary>  (92) 
energy

$$$$
92:0
     RDKit          3D

 42 44  0  0  0  0  0  0  0  0999 V2000
   57.6115   33.1083   41.9684 H   0  0  0  0  0  0  0  0  0  0  0  0
   57.6400   32.3620   42.7760 C   0  0  0  0  0  0  0  0  0  0  0  0
   57.9350   32.6190   44.0350 C   0  0  0  0  0  0  0  0  0  0  0  0
   58.2850   33.8640   44.5490 C   0  0  0  0  0  0  0  0  0  0  0  0
   58.3163   34.7520   43.9005 H   0  0  0  0  0  0  0  0  0  0  0  0
   58.5960   33.9600   45.9090 C   0  0  0  0  0  0  0  0  0  0  0  0
   58.8726   34.9354   46.3358 H   0  0  0  0  0  0  0  0  0  0  0  0
   58.5590   32.8140   46.7450 C   0  0  0  0  0  0  0  0  0  0  0  0
   58.8630   32.8790   48.0630 C   0  0  0  0  0  0  0  0  0  0  0  0
   58.0250   32.8778   48.7756 H   0  0  0  0  0  0  0  0  0  0  0  0
   60.2590   32.9530   48.6340 C   0  0  0  0  0  0  0  0  0  0  0  0
   60.7542   31.9822   48.4845 H   0  0  0  0  0  0  0  0  0  0  0  0
   60.1728   33.1998   49.7025 H   0  0  0  0  0  0  0  0  0  0  0  0
   61.1050   34.0470   47.9660 C   0  0  0  0  0  0  0  0  0  0  0  0
   61.6086   34.6327   48.7491 H   0  0  0  0  0  0  0  0  0  0  0  0
   60.4305   34.6758   47.3663 H   0  0  0  0  0  0  0  0  0  0  0  0
   62.1630   33.4680   47.0280 C   0  0  0  0  0  0  0  0  0  0  0  0
   62.9754   33.0234   47.6215 H   0  0  0  0  0  0  0  0  0  0  0  0
   61.7065   32.6940   46.3936 H   0  0  0  0  0  0  0  0  0  0  0  0
   62.5688   34.2698   46.3936 H   0  0  0  0  0  0  0  0  0  0  0  0
   58.1960   31.5740   46.1530 C   0  0  0  0  0  0  0  0  0  0  0  0
   58.1590   30.5130   46.8370 O   0  0  0  0  0  0  0  0  0  0  0  0
   57.8820   31.5330   44.8250 N   0  0  0  0  0  0  0  0  0  0  0  0
   57.4970   30.3580   44.0490 C   0  0  1  0  0  0  0  0  0  0  0  0
   58.2263   29.5368   44.1107 H   0  0  0  0  0  0  0  0  0  0  0  0
   56.1960   29.7830   44.5640 C   0  0  0  0  0  0  0  0  0  0  0  0
   55.1470   30.4780   44.5010 O   0  0  0  0  0  0  0  0  0  0  0  0
   56.1350   28.4990   45.1990 N   0  0  0  0  0  0  0  0  0  0  0  0
   57.2450   27.7390   45.6960 C   0  0  0  0  0  0  0  0  0  0  0  0
   57.0110   26.7330   46.6410 C   0  0  0  0  0  0  0  0  0  0  0  0
   55.9893   26.5520   47.0062 H   0  0  0  0  0  0  0  0  0  0  0  0
   58.0700   25.9570   47.1230 C   0  0  0  0  0  0  0  0  0  0  0  0
   57.8819   25.1782   47.8767 H   0  0  0  0  0  0  0  0  0  0  0  0
   59.3670   26.1700   46.6480 C   0  0  0  0  0  0  0  0  0  0  0  0
   60.2007   25.5645   47.0333 H   0  0  0  0  0  0  0  0  0  0  0  0
   59.6040   27.1530   45.6830 C   0  0  0  0  0  0  0  0  0  0  0  0
   60.6234   27.3157   45.3031 H   0  0  0  0  0  0  0  0  0  0  0  0
   58.5460   27.9300   45.2000 C   0  0  0  0  0  0  0  0  0  0  0  0
   58.7328   28.6927   44.4297 H   0  0  0  0  0  0  0  0  0  0  0  0
   57.3500   30.9050   42.6100 C   0  0  0  0  0  0  0  0  0  0  0  0
   58.0746   30.4320   41.9308 H   0  0  0  0  0  0  0  0  0  0  0  0
   56.3625   30.7060   42.1681 H   0  0  0  0  0  0  0  0  0  0  0  0
  1  2  1  0
  2  3  2  0
  3  4  1  0
  4  5  1  0
  4  6  2  0
  6  7  1  0
  6  8  1  0
  8  9  2  0
  9 10  1  0
  9 11  1  0
 11 12  1  0
 11 13  1  0
 11 14  1  0
 14 15  1  0
 14 16  1  0
 14 17  1  0
 17 18  1  0
 17 19  1  0
 17 20  1  0
  8 21  1  0
 21 22  2  0
 21 23  1  0
 23 24  1  0
 24 25  1  6
 24 26  1  0
 26 27  2  0
 26 28  1  0
 28 29  1  0
 29 30  2  0
 30 31  1  0
 30 32  1  0
 32 33  1  0
 32 34  2  0
 34 35  1  0
 34 36  1  0
 36 37  1  0
 36 38  2  0
 38 39  1  0
 24 40  1  0
 40 41  1  0
 40 42  1  0
 40  2  1  0
 23  3  1  0
 38 29  1  0
M  CHG  1  28  -1
M  END
>  <UniqueID>  (93) 
90

>  <SMILES>  (93) 
CCC/C=c1\ccc2n(c1=O)[C@@H](C(=O)[N-]c1ccccc1)CC=2

>  <Energy>  (93) 
61.44335932014515

>  <Genealogy>  (93) 
CCCC=c1ccc2n(c1=O)C(C(=O)[N-]c1ccccc1)CC=2 (protonated)
CCCC=c1ccc2n(c1=O)[C@@H](C(=O)[N-]c1ccccc1)CC=2 (chirality)
CCC/C=c1\ccc2n(c1=O)[C@@H](C(=O)[N-]c1ccccc1)CC=2 (cis-trans isomerization)
CCC/C=c1\ccc2n(c1=O)[C@@H](C(=O)[N-]c1ccccc1)CC=2 (3D coordinates assigned)
CCC/C=c1\ccc2n(c1=O)[C@@H](C(=O)[N-]c1ccccc1)CC=2 (nonaromatic ring conformer: 61.44335932014515 kcal/mol)

>  <smiles>  (93) 
CCCC=c1ccc2n(c1=O)C(C(=O)Nc1ccccc1)CC=2

>  <score_type>  (93) 
oracle

>  <origin>  (93) 
adg

>  <m_score__min__energy>  (93) 
-9.9700000000000006

>  <m_primary>  (93) 
energy

$$$$
93:0
     RDKit          3D

 62 64  0  0  0  0  0  0  0  0999 V2000
   59.6480   34.4040   49.1570 C   0  0  0  0  0  0  0  0  0  0  0  0
   59.2940   34.0160   47.7520 C   0  0  0  0  0  0  0  0  0  0  0  0
   60.1920   34.2510   46.7000 C   0  0  0  0  0  0  0  0  0  0  0  0
   59.8440   33.9160   45.3870 C   0  0  0  0  0  0  0  0  0  0  0  0
   58.5890   33.3580   45.1150 C   0  0  0  0  0  0  0  0  0  0  0  0
   58.1420   32.9240   43.4340 S   0  0  0  0  0  0  0  0  0  0  0  0
   57.9550   31.1850   43.8370 C   0  0  0  0  0  0  0  0  0  0  0  0
   58.7170   30.6290   44.8680 C   0  0  0  0  0  0  0  0  0  0  0  0
   58.5900   29.2710   45.2100 C   0  0  0  0  0  0  0  0  0  0  0  0
   59.3610   28.7510   46.3650 C   0  0  0  0  0  0  0  0  0  0  0  0
   59.7930   27.5650   46.3450 O   0  0  0  0  0  0  0  0  0  0  0  0
   59.5740   29.5680   47.5270 N   0  0  0  0  0  0  0  0  0  0  0  0
   60.4350   29.1410   48.6300 C   0  0  0  0  0  0  0  0  0  0  0  0
   59.8810   29.6070   49.9860 C   0  0  0  0  0  0  0  0  0  0  0  0
   60.1690   31.0420   50.2370 N   0  0  0  0  0  0  0  0  0  0  0  0
   61.6120   31.3020   50.4880 C   0  0  0  0  0  0  0  0  0  0  0  0
   62.2220   32.1450   49.3930 C   0  0  0  0  0  0  0  0  0  0  0  0
   62.6550   33.4610   49.6380 C   0  0  0  0  0  0  0  0  0  0  0  0
   63.2420   34.2130   48.6140 C   0  0  0  0  0  0  0  0  0  0  0  0
   63.4250   33.6520   47.3490 C   0  0  0  0  0  0  0  0  0  0  0  0
   63.0400   32.3310   47.1100 C   0  0  0  0  0  0  0  0  0  0  0  0
   62.4550   31.5760   48.1300 C   0  0  0  0  0  0  0  0  0  0  0  0
   59.2590   31.6150   51.2690 C   0  0  0  0  0  0  0  0  0  0  0  0
   57.8770   31.9280   50.6790 C   0  0  0  0  0  0  0  0  0  0  0  0
   59.8510   32.8380   51.9970 C   0  0  0  0  0  0  0  0  0  0  0  0
   57.6910   28.4590   44.4720 C   0  0  0  0  0  0  0  0  0  0  0  0
   57.5850   27.0470   44.7000 N   0  0  0  0  0  0  0  0  0  0  0  0
   56.9180   29.0350   43.4520 C   0  0  0  0  0  0  0  0  0  0  0  0
   57.0470   30.3870   43.1350 C   0  0  0  0  0  0  0  0  0  0  0  0
   56.2950   30.9170   42.1380 F   0  0  0  0  0  0  0  0  0  0  0  0
   57.6800   33.1440   46.1590 C   0  0  0  0  0  0  0  0  0  0  0  0
   58.0280   33.4750   47.4710 C   0  0  0  0  0  0  0  0  0  0  0  0
   59.0798   33.7812   49.8636 H   0  0  0  0  0  0  0  0  0  0  0  0
   60.7254   34.2523   49.3189 H   0  0  0  0  0  0  0  0  0  0  0  0
   59.3984   35.4630   49.3189 H   0  0  0  0  0  0  0  0  0  0  0  0
   61.1740   34.7006   46.9085 H   0  0  0  0  0  0  0  0  0  0  0  0
   60.5569   34.0911   44.5678 H   0  0  0  0  0  0  0  0  0  0  0  0
   59.4265   31.2629   45.4201 H   0  0  0  0  0  0  0  0  0  0  0  0
   59.3410   30.5840   47.4630 H   0  0  0  0  0  0  0  0  0  0  0  0
   60.5008   28.0430   48.6284 H   0  0  0  0  0  0  0  0  0  0  0  0
   61.4285   29.5915   48.4884 H   0  0  0  0  0  0  0  0  0  0  0  0
   58.7915   29.4556   49.9963 H   0  0  0  0  0  0  0  0  0  0  0  0
   60.3701   29.0175   50.7754 H   0  0  0  0  0  0  0  0  0  0  0  0
   61.7183   31.8304   51.4469 H   0  0  0  0  0  0  0  0  0  0  0  0
   62.1373   30.3358   50.5125 H   0  0  0  0  0  0  0  0  0  0  0  0
   62.5316   33.9008   50.6387 H   0  0  0  0  0  0  0  0  0  0  0  0
   63.5598   35.2484   48.8064 H   0  0  0  0  0  0  0  0  0  0  0  0
   63.8721   34.2499   46.5411 H   0  0  0  0  0  0  0  0  0  0  0  0
   63.1975   31.8842   46.1173 H   0  0  0  0  0  0  0  0  0  0  0  0
   62.1750   30.5289   47.9426 H   0  0  0  0  0  0  0  0  0  0  0  0
   59.1393   30.8365   52.0369 H   0  0  0  0  0  0  0  0  0  0  0  0
   57.1581   32.0908   51.4955 H   0  0  0  0  0  0  0  0  0  0  0  0
   57.9396   32.8347   50.0594 H   0  0  0  0  0  0  0  0  0  0  0  0
   57.5429   31.0828   50.0594 H   0  0  0  0  0  0  0  0  0  0  0  0
   59.7784   32.6881   53.0843 H   0  0  0  0  0  0  0  0  0  0  0  0
   60.9069   32.9580   51.7131 H   0  0  0  0  0  0  0  0  0  0  0  0
   59.2901   33.7407   51.7131 H   0  0  0  0  0  0  0  0  0  0  0  0
   58.0330   26.6120   45.5370 H   0  0  0  0  0  0  0  0  0  0  0  0
   56.9610   26.4400   44.1260 H   0  0  0  0  0  0  0  0  0  0  0  0
   56.2017   28.4125   42.8958 H   0  0  0  0  0  0  0  0  0  0  0  0
   56.6901   32.7145   45.9455 H   0  0  0  0  0  0  0  0  0  0  0  0
   57.3084   33.3115   48.2868 H   0  0  0  0  0  0  0  0  0  0  0  0
  1  2  1  0
  2  3  2  0
  3  4  1  0
  4  5  2  0
  5  6  1  0
  6  7  1  0
  7  8  2  0
  8  9  1  0
  9 10  1  0
 10 11  2  0
 10 12  1  0
 12 13  1  0
 13 14  1  0
 14 15  1  0
 15 16  1  0
 16 17  1  0
 17 18  2  0
 18 19  1  0
 19 20  2  0
 20 21  1  0
 21 22  2  0
 15 23  1  0
 23 24  1  0
 23 25  1  0
  9 26  2  0
 26 27  1  0
 26 28  1  0
 28 29  2  0
 29 30  1  0
  5 31  1  0
 31 32  2  0
 32  2  1  0
 29  7  1  0
 22 17  1  0
  1 33  1  0
  1 34  1  0
  1 35  1  0
  3 36  1  0
  4 37  1  0
  8 38  1  0
 12 39  1  0
 13 40  1  0
 13 41  1  0
 14 42  1  0
 14 43  1  0
 16 44  1  0
 16 45  1  0
 18 46  1  0
 19 47  1  0
 20 48  1  0
 21 49  1  0
 22 50  1  0
 23 51  1  0
 24 52  1  0
 24 53  1  0
 24 54  1  0
 25 55  1  0
 25 56  1  0
 25 57  1  0
 27 58  1  0
 27 59  1  0
 28 60  1  0
 31 61  1  0
 32 62  1  0
M  END
>  <UniqueID>  (94) 
91

>  <SMILES>  (94) 
Cc1ccc(Sc2cc(C(=O)NCCN(Cc3ccccc3)C(C)C)c(N)cc2F)cc1

>  <Energy>  (94) 
63.42319135117094

>  <Genealogy>  (94) 
Cc1ccc(Sc2cc(C(=O)NCCN(Cc3ccccc3)C(C)C)c(N)cc2F)cc1 (3D coordinates assigned)
Cc1ccc(Sc2cc(C(=O)NCCN(Cc3ccccc3)C(C)C)c(N)cc2F)cc1 (optimized conformer: 63.42319135117094 kcal/mol)

>  <smiles>  (94) 
Cc1ccc(Sc2cc(C(=O)NCCN(Cc3ccccc3)C(C)C)c(N)cc2F)cc1

>  <score_type>  (94) 
oracle

>  <origin>  (94) 
adg

>  <m_score__min__energy>  (94) 
-8.2899999999999991

>  <m_primary>  (94) 
energy

$$$$
94:0
     RDKit          3D

 61 63  0  0  0  0  0  0  0  0999 V2000
   63.7160   33.3900   46.3970 C   0  0  0  0  0  0  0  0  0  0  0  0
   63.0260   33.1140   47.7350 C   0  0  0  0  0  0  0  0  0  0  0  0
   64.0610   32.9950   48.8530 C   0  0  0  0  0  0  0  0  0  0  0  0
   62.1250   34.1750   48.0530 O   0  0  0  0  0  0  0  0  0  0  0  0
   60.8170   33.9720   48.5160 C   0  0  0  0  0  0  0  0  0  0  0  0
   60.5460   34.1230   49.7410 O   0  0  0  0  0  0  0  0  0  0  0  0
   59.7530   33.5800   47.5650 C   0  0  0  0  0  0  0  0  0  0  0  0
   58.7220   32.7080   47.9560 C   0  0  0  0  0  0  0  0  0  0  0  0
   57.7380   32.3210   47.0410 C   0  0  0  0  0  0  0  0  0  0  0  0
   57.7560   32.8140   45.7250 C   0  0  0  0  0  0  0  0  0  0  0  0
   56.7950   32.4000   44.7410 N   0  0  0  0  0  0  0  0  0  0  0  0
   56.3420   31.0650   44.4730 C   0  0  0  0  0  0  0  0  0  0  0  0
   55.1020   30.8540   44.4160 O   0  0  0  0  0  0  0  0  0  0  0  0
   57.2740   29.9210   44.3300 C   0  0  0  0  0  0  0  0  0  0  0  0
   56.9960   28.8670   43.4430 C   0  0  0  0  0  0  0  0  0  0  0  0
   57.8990   27.8110   43.2950 C   0  0  0  0  0  0  0  0  0  0  0  0
   59.0930   27.8010   44.0210 C   0  0  0  0  0  0  0  0  0  0  0  0
   59.3890   28.8470   44.9040 C   0  0  0  0  0  0  0  0  0  0  0  0
   60.9230   28.8530   45.7820 S   0  0  0  0  0  0  0  0  0  0  0  0
   61.1820   30.2240   46.3400 O   0  0  0  0  0  0  0  0  0  0  0  0
   62.0220   28.5260   44.8100 O   0  0  0  0  0  0  0  0  0  0  0  0
   60.9710   27.7030   47.0930 N   0  0  0  0  0  0  0  0  0  0  0  0
   59.6790   27.5580   47.7680 C   0  0  0  0  0  0  0  0  0  0  0  0
   58.7330   26.6640   47.0060 C   0  0  0  0  0  0  0  0  0  0  0  0
   59.1820   25.4610   46.4420 C   0  0  0  0  0  0  0  0  0  0  0  0
   58.2860   24.6180   45.7770 C   0  0  0  0  0  0  0  0  0  0  0  0
   56.9320   24.9600   45.6730 C   0  0  0  0  0  0  0  0  0  0  0  0
   56.0400   24.0390   45.0300 N   0  0  0  0  0  0  0  0  0  0  0  0
   56.3890   23.2030   43.5500 S   0  0  0  0  0  0  0  0  0  0  0  0
   57.5410   21.8810   43.8600 C   0  0  0  0  0  0  0  0  0  0  0  0
   57.0200   24.1670   42.5870 O   0  0  0  0  0  0  0  0  0  0  0  0
   55.1250   22.6620   42.9420 O   0  0  0  0  0  0  0  0  0  0  0  0
   56.4930   26.1960   46.1850 C   0  0  0  0  0  0  0  0  0  0  0  0
   55.2160   26.6130   46.0190 F   0  0  0  0  0  0  0  0  0  0  0  0
   57.3920   27.0400   46.8420 C   0  0  0  0  0  0  0  0  0  0  0  0
   58.4800   29.9060   45.0520 C   0  0  0  0  0  0  0  0  0  0  0  0
   58.7890   33.6720   45.3310 C   0  0  0  0  0  0  0  0  0  0  0  0
   59.7770   34.0580   46.2420 C   0  0  0  0  0  0  0  0  0  0  0  0
   64.7231   33.7928   46.5800 H   0  0  0  0  0  0  0  0  0  0  0  0
   63.7940   32.4539   45.8247 H   0  0  0  0  0  0  0  0  0  0  0  0
   63.1268   34.1217   45.8247 H   0  0  0  0  0  0  0  0  0  0  0  0
   62.4704   32.1689   47.6455 H   0  0  0  0  0  0  0  0  0  0  0  0
   63.5556   33.0531   49.8283 H   0  0  0  0  0  0  0  0  0  0  0  0
   64.5836   32.0308   48.7677 H   0  0  0  0  0  0  0  0  0  0  0  0
   64.7888   33.8154   48.7677 H   0  0  0  0  0  0  0  0  0  0  0  0
   58.6892   32.3279   48.9877 H   0  0  0  0  0  0  0  0  0  0  0  0
   56.9446   31.6261   47.3533 H   0  0  0  0  0  0  0  0  0  0  0  0
   56.0621   28.8734   42.8618 H   0  0  0  0  0  0  0  0  0  0  0  0
   57.6694   26.9854   42.6052 H   0  0  0  0  0  0  0  0  0  0  0  0
   59.8024   26.9692   43.8986 H   0  0  0  0  0  0  0  0  0  0  0  0
   59.8474   27.1264   48.7657 H   0  0  0  0  0  0  0  0  0  0  0  0
   59.2199   28.5554   47.8345 H   0  0  0  0  0  0  0  0  0  0  0  0
   60.2423   25.1796   46.5230 H   0  0  0  0  0  0  0  0  0  0  0  0
   58.6475   23.6791   45.3322 H   0  0  0  0  0  0  0  0  0  0  0  0
   57.6596   21.7449   44.9451 H   0  0  0  0  0  0  0  0  0  0  0  0
   57.1604   20.9507   43.4132 H   0  0  0  0  0  0  0  0  0  0  0  0
   58.5146   22.1308   43.4132 H   0  0  0  0  0  0  0  0  0  0  0  0
   57.0450   28.0075   47.2339 H   0  0  0  0  0  0  0  0  0  0  0  0
   58.7135   30.7322   45.7396 H   0  0  0  0  0  0  0  0  0  0  0  0
   58.8240   34.0455   44.2969 H   0  0  0  0  0  0  0  0  0  0  0  0
   60.5785   34.7401   45.9221 H   0  0  0  0  0  0  0  0  0  0  0  0
  1  2  1  0
  2  3  1  0
  2  4  1  0
  4  5  1  0
  5  6  2  0
  5  7  1  0
  7  8  2  0
  8  9  1  0
  9 10  2  0
 10 11  1  0
 11 12  1  0
 12 13  2  0
 12 14  1  0
 14 15  2  0
 15 16  1  0
 16 17  2  0
 17 18  1  0
 18 19  1  0
 19 20  2  0
 19 21  2  0
 19 22  1  0
 22 23  1  0
 23 24  1  0
 24 25  2  0
 25 26  1  0
 26 27  2  0
 27 28  1  0
 28 29  1  0
 29 30  1  0
 29 31  2  0
 29 32  2  0
 27 33  1  0
 33 34  1  0
 33 35  2  0
 18 36  2  0
 10 37  1  0
 37 38  2  0
 38  7  1  0
 36 14  1  0
 35 24  1  0
  1 39  1  0
  1 40  1  0
  1 41  1  0
  2 42  1  0
  3 43  1  0
  3 44  1  0
  3 45  1  0
  8 46  1  0
  9 47  1  0
 15 48  1  0
 16 49  1  0
 17 50  1  0
 23 51  1  0
 23 52  1  0
 25 53  1  0
 26 54  1  0
 30 55  1  0
 30 56  1  0
 30 57  1  0
 35 58  1  0
 36 59  1  0
 37 60  1  0
 38 61  1  0
M  CHG  3  11  -1  22  -1  28  -1
M  END
>  <UniqueID>  (95) 
92

>  <SMILES>  (95) 
CC(C)OC(=O)c1ccc([N-]C(=O)c2cccc(S(=O)(=O)[N-]Cc3ccc([N-]S(C)(=O)=O)c(F)c3)c2)cc1

>  <Energy>  (95) 
63.400263802566386

>  <Genealogy>  (95) 
CC(C)OC(=O)c1ccc([N-]C(=O)c2cccc(S(=O)(=O)[N-]Cc3ccc([N-]S(C)(=O)=O)c(F)c3)c2)cc1 (protonated)
CC(C)OC(=O)c1ccc([N-]C(=O)c2cccc(S(=O)(=O)[N-]Cc3ccc([N-]S(C)(=O)=O)c(F)c3)c2)cc1 (3D coordinates assigned)
CC(C)OC(=O)c1ccc([N-]C(=O)c2cccc(S(=O)(=O)[N-]Cc3ccc([N-]S(C)(=O)=O)c(F)c3)c2)cc1 (optimized conformer: 63.400263802566386 kcal/mol)

>  <smiles>  (95) 
CC(C)OC(=O)c1ccc(NC(=O)c2cccc(S(=O)(=O)NCc3ccc(NS(C)(=O)=O)c(F)c3)c2)cc1

>  <score_type>  (95) 
oracle

>  <origin>  (95) 
adg

>  <m_score__min__energy>  (95) 
-13.789999999999999

>  <m_primary>  (95) 
energy

$$$$
95:0
     RDKit          3D

 50 52  0  0  0  0  0  0  0  0999 V2000
   55.0960   23.3520   43.0100 C   0  0  0  0  0  0  0  0  0  0  0  0
   54.1250   23.7080   44.0510 N   0  0  0  0  0  0  0  0  0  0  0  0
   52.6910   23.7160   43.7550 C   0  0  0  0  0  0  0  0  0  0  0  0
   54.5620   23.9330   45.4050 C   0  0  0  0  0  0  0  0  0  0  0  0
   53.8210   23.5820   46.3640 O   0  0  0  0  0  0  0  0  0  0  0  0
   55.8640   24.5740   45.7000 C   0  0  0  0  0  0  0  0  0  0  0  0
   57.0400   23.8070   45.6650 C   0  0  0  0  0  0  0  0  0  0  0  0
   58.2760   24.3980   45.9290 C   0  0  0  0  0  0  0  0  0  0  0  0
   58.3550   25.7630   46.2050 C   0  0  0  0  0  0  0  0  0  0  0  0
   57.1990   26.5560   46.2050 C   0  0  0  0  0  0  0  0  0  0  0  0
   57.3160   27.9590   46.4950 N   0  0  0  0  0  0  0  0  0  0  0  0
   57.3290   28.9950   45.4920 C   0  0  0  0  0  0  0  0  0  0  0  0
   56.3910   28.9930   44.4410 C   0  0  0  0  0  0  0  0  0  0  0  0
   56.4320   29.9760   43.4510 C   0  0  0  0  0  0  0  0  0  0  0  0
   57.4260   30.9540   43.4780 C   0  0  0  0  0  0  0  0  0  0  0  0
   58.3750   30.9610   44.5010 C   0  0  0  0  0  0  0  0  0  0  0  0
   58.3270   29.9960   45.5270 C   0  0  0  0  0  0  0  0  0  0  0  0
   59.2960   29.9760   46.5880 N   0  0  0  0  0  0  0  0  0  0  0  0
   59.0640   30.1920   47.9870 C   0  0  0  0  0  0  0  0  0  0  0  0
   58.7540   29.2380   48.7500 O   0  0  0  0  0  0  0  0  0  0  0  0
   59.2730   31.5580   48.5610 C   0  0  0  0  0  0  0  0  0  0  0  0
   59.1970   32.5980   47.4770 C   0  0  0  0  0  0  0  0  0  0  0  0
   60.3660   33.2270   47.0090 C   0  0  0  0  0  0  0  0  0  0  0  0
   60.2880   34.2170   46.0230 C   0  0  0  0  0  0  0  0  0  0  0  0
   59.0430   34.5960   45.5070 C   0  0  0  0  0  0  0  0  0  0  0  0
   57.8740   33.9850   45.9800 C   0  0  0  0  0  0  0  0  0  0  0  0
   56.6630   34.3750   45.5040 F   0  0  0  0  0  0  0  0  0  0  0  0
   57.9500   32.9910   46.9610 C   0  0  0  0  0  0  0  0  0  0  0  0
   55.9440   25.9520   45.9810 C   0  0  0  0  0  0  0  0  0  0  0  0
   54.7810   26.7130   46.0710 O   0  0  0  0  0  0  0  0  0  0  0  0
   56.0294   23.0098   43.4808 H   0  0  0  0  0  0  0  0  0  0  0  0
   54.6841   22.5464   42.3844 H   0  0  0  0  0  0  0  0  0  0  0  0
   55.3024   24.2329   42.3844 H   0  0  0  0  0  0  0  0  0  0  0  0
   52.1223   23.7192   44.6966 H   0  0  0  0  0  0  0  0  0  0  0  0
   52.4417   24.6155   43.1730 H   0  0  0  0  0  0  0  0  0  0  0  0
   52.4317   22.8193   43.1730 H   0  0  0  0  0  0  0  0  0  0  0  0
   56.9863   22.7342   45.4281 H   0  0  0  0  0  0  0  0  0  0  0  0
   59.1901   23.7862   45.9195 H   0  0  0  0  0  0  0  0  0  0  0  0
   59.3311   26.2204   46.4242 H   0  0  0  0  0  0  0  0  0  0  0  0
   57.5150   28.2280   47.4830 H   0  0  0  0  0  0  0  0  0  0  0  0
   55.6195   28.2099   44.4002 H   0  0  0  0  0  0  0  0  0  0  0  0
   55.6796   29.9794   42.6486 H   0  0  0  0  0  0  0  0  0  0  0  0
   57.4619   31.7217   42.6910 H   0  0  0  0  0  0  0  0  0  0  0  0
   59.1662   31.7252   44.5067 H   0  0  0  0  0  0  0  0  0  0  0  0
   58.4945   31.7590   49.3117 H   0  0  0  0  0  0  0  0  0  0  0  0
   60.2679   31.6009   49.0284 H   0  0  0  0  0  0  0  0  0  0  0  0
   61.3449   32.9392   47.4200 H   0  0  0  0  0  0  0  0  0  0  0  0
   61.2056   34.6978   45.6531 H   0  0  0  0  0  0  0  0  0  0  0  0
   58.9825   35.3730   44.7307 H   0  0  0  0  0  0  0  0  0  0  0  0
   57.0298   32.5147   47.3304 H   0  0  0  0  0  0  0  0  0  0  0  0
  1  2  1  0
  2  3  1  0
  2  4  1  0
  4  5  2  0
  4  6  1  0
  6  7  2  0
  7  8  1  0
  8  9  2  0
  9 10  1  0
 10 11  1  0
 11 12  1  0
 12 13  2  0
 13 14  1  0
 14 15  2  0
 15 16  1  0
 16 17  2  0
 17 18  1  0
 18 19  1  0
 19 20  2  0
 19 21  1  0
 21 22  1  0
 22 23  2  0
 23 24  1  0
 24 25  2  0
 25 26  1  0
 26 27  1  0
 26 28  2  0
 10 29  2  0
 29 30  1  0
 29  6  1  0
 17 12  1  0
 28 22  1  0
  1 31  1  0
  1 32  1  0
  1 33  1  0
  3 34  1  0
  3 35  1  0
  3 36  1  0
  7 37  1  0
  8 38  1  0
  9 39  1  0
 11 40  1  0
 13 41  1  0
 14 42  1  0
 15 43  1  0
 16 44  1  0
 21 45  1  0
 21 46  1  0
 23 47  1  0
 24 48  1  0
 25 49  1  0
 28 50  1  0
M  CHG  2  18  -1  30  -1
M  END
>  <UniqueID>  (96) 
93

>  <SMILES>  (96) 
CN(C)C(=O)c1cccc(Nc2ccccc2[N-]C(=O)Cc2cccc(F)c2)c1[O-]

>  <Energy>  (96) 
65.74684689285269

>  <Genealogy>  (96) 
CN(C)C(=O)c1cccc(Nc2ccccc2[N-]C(=O)Cc2cccc(F)c2)c1[O-] (protonated)
CN(C)C(=O)c1cccc(Nc2ccccc2[N-]C(=O)Cc2cccc(F)c2)c1[O-] (3D coordinates assigned)
CN(C)C(=O)c1cccc(Nc2ccccc2[N-]C(=O)Cc2cccc(F)c2)c1[O-] (optimized conformer: 65.74684689285269 kcal/mol)

>  <smiles>  (96) 
CN(C)C(=O)c1cccc(Nc2ccccc2NC(=O)Cc2cccc(F)c2)c1O

>  <score_type>  (96) 
oracle

>  <origin>  (96) 
adg

>  <m_score__min__energy>  (96) 
-14.51

>  <m_primary>  (96) 
energy

$$$$
96:0
     RDKit          3D

 46 48  0  0  0  0  0  0  0  0999 V2000
   57.9860   32.4200   42.5750 C   0  0  0  0  0  0  0  0  0  0  0  0
   57.7980   32.6820   44.0440 C   0  0  0  0  0  0  0  0  0  0  0  0
   57.4210   33.9660   44.4740 C   0  0  0  0  0  0  0  0  0  0  0  0
   57.2390   34.2330   45.8330 C   0  0  0  0  0  0  0  0  0  0  0  0
   57.4210   33.2210   46.7750 C   0  0  0  0  0  0  0  0  0  0  0  0
   57.7850   31.9380   46.3620 C   0  0  0  0  0  0  0  0  0  0  0  0
   57.9850   31.6540   44.9990 C   0  0  0  0  0  0  0  0  0  0  0  0
   58.3230   30.3200   44.5800 N   0  0  0  0  0  0  0  0  0  0  0  0
   57.3550   29.2750   44.4030 C   0  0  0  0  0  0  0  0  0  0  0  0
   56.1620   29.4350   44.7800 O   0  0  0  0  0  0  0  0  0  0  0  0
   57.7770   27.9540   43.8470 C   0  0  0  0  0  0  0  0  0  0  0  0
   58.3430   26.8820   45.2060 S   0  0  0  0  0  0  0  0  0  0  0  0
   59.3690   28.1630   45.9410 C   0  0  0  0  0  0  0  0  0  0  0  0
   60.3420   28.7160   45.1740 N   0  0  0  0  0  0  0  0  0  0  0  0
   61.1430   29.6670   45.6510 N   0  0  0  0  0  0  0  0  0  0  0  0
   61.0200   30.1150   46.9240 C   0  0  0  0  0  0  0  0  0  0  0  0
   61.9250   31.2170   47.4050 C   0  0  0  0  0  0  0  0  0  0  0  0
   61.1680   32.5150   47.4880 C   0  0  0  0  0  0  0  0  0  0  0  0
   61.1010   33.3730   46.3780 C   0  0  0  0  0  0  0  0  0  0  0  0
   60.4230   34.5930   46.4710 C   0  0  0  0  0  0  0  0  0  0  0  0
   59.8140   34.9660   47.6720 C   0  0  0  0  0  0  0  0  0  0  0  0
   59.8830   34.1220   48.7830 C   0  0  0  0  0  0  0  0  0  0  0  0
   60.5610   32.9010   48.6950 C   0  0  0  0  0  0  0  0  0  0  0  0
   60.0130   29.5680   47.7320 C   0  0  0  0  0  0  0  0  0  0  0  0
   59.8640   29.9800   48.9160 O   0  0  0  0  0  0  0  0  0  0  0  0
   59.1940   28.5910   47.2320 N   0  0  0  0  0  0  0  0  0  0  0  0
   58.1820   28.0390   48.0470 N   0  0  0  0  0  0  0  0  0  0  0  0
   58.6224   31.5331   42.4392 H   0  0  0  0  0  0  0  0  0  0  0  0
   57.0068   32.2440   42.1057 H   0  0  0  0  0  0  0  0  0  0  0  0
   58.4663   33.2912   42.1057 H   0  0  0  0  0  0  0  0  0  0  0  0
   57.2682   34.7664   43.7350 H   0  0  0  0  0  0  0  0  0  0  0  0
   56.9517   35.2430   46.1606 H   0  0  0  0  0  0  0  0  0  0  0  0
   57.2776   33.4338   47.8446 H   0  0  0  0  0  0  0  0  0  0  0  0
   57.9166   31.1418   47.1095 H   0  0  0  0  0  0  0  0  0  0  0  0
   59.3320   30.0730   44.4600 H   0  0  0  0  0  0  0  0  0  0  0  0
   56.9251   27.4812   43.3365 H   0  0  0  0  0  0  0  0  0  0  0  0
   58.5966   28.1016   43.1283 H   0  0  0  0  0  0  0  0  0  0  0  0
   62.3133   30.9589   48.4013 H   0  0  0  0  0  0  0  0  0  0  0  0
   62.7571   31.3326   46.6949 H   0  0  0  0  0  0  0  0  0  0  0  0
   61.5833   33.0846   45.4324 H   0  0  0  0  0  0  0  0  0  0  0  0
   60.3692   35.2595   45.5976 H   0  0  0  0  0  0  0  0  0  0  0  0
   59.2798   35.9250   47.7427 H   0  0  0  0  0  0  0  0  0  0  0  0
   59.4039   34.4175   49.7280 H   0  0  0  0  0  0  0  0  0  0  0  0
   60.6189   32.2414   49.5734 H   0  0  0  0  0  0  0  0  0  0  0  0
   58.0430   28.3580   49.0320 H   0  0  0  0  0  0  0  0  0  0  0  0
   57.5340   27.2970   47.7040 H   0  0  0  0  0  0  0  0  0  0  0  0
  1  2  1  0
  2  3  2  0
  3  4  1  0
  4  5  2  0
  5  6  1  0
  6  7  2  0
  7  8  1  0
  8  9  1  0
  9 10  2  0
  9 11  1  0
 11 12  1  0
 12 13  1  0
 13 14  2  0
 14 15  1  0
 15 16  2  0
 16 17  1  0
 17 18  1  0
 18 19  2  0
 19 20  1  0
 20 21  2  0
 21 22  1  0
 22 23  2  0
 16 24  1  0
 24 25  2  0
 24 26  1  0
 26 27  1  0
  7  2  1  0
 26 13  1  0
 23 18  1  0
  1 28  1  0
  1 29  1  0
  1 30  1  0
  3 31  1  0
  4 32  1  0
  5 33  1  0
  6 34  1  0
  8 35  1  0
 11 36  1  0
 11 37  1  0
 17 38  1  0
 17 39  1  0
 19 40  1  0
 20 41  1  0
 21 42  1  0
 22 43  1  0
 23 44  1  0
 27 45  1  0
 27 46  1  0
M  END
>  <UniqueID>  (97) 
94

>  <SMILES>  (97) 
Cc1ccccc1NC(=O)CSc1nnc(Cc2ccccc2)c(=O)n1N

>  <Energy>  (97) 
50.65421122998333

>  <Genealogy>  (97) 
Cc1ccccc1NC(=O)CSc1nnc(Cc2ccccc2)c(=O)n1N (3D coordinates assigned)
Cc1ccccc1NC(=O)CSc1nnc(Cc2ccccc2)c(=O)n1N (optimized conformer: 50.65421122998333 kcal/mol)

>  <smiles>  (97) 
Cc1ccccc1NC(=O)CSc1nnc(Cc2ccccc2)c(=O)n1N

>  <score_type>  (97) 
oracle

>  <origin>  (97) 
adg

>  <m_score__min__energy>  (97) 
-8.6099999999999994

>  <m_primary>  (97) 
energy

$$$$
