0:0
     RDKit          3D

 48 51  0  0  0  0  0  0  0  0999 V2000
   57.8898   25.4304   46.7108 H   0  0  0  0  0  0  0  0  0  0  0  0
   57.9960   26.5250   46.7340 C   0  0  0  0  0  0  0  0  0  0  0  0
   58.8880   27.1030   47.5780 N   0  0  0  0  0  0  0  0  0  0  0  0
   59.0400   28.4560   47.6230 C   0  0  0  0  0  0  0  0  0  0  0  0
   59.8720   29.0170   48.4520 N   0  0  0  0  0  0  0  0  0  0  0  0
   59.6050   30.1300   49.3230 C   0  0  0  0  0  0  0  0  0  0  0  0
   60.1720   30.2250   50.6080 C   0  0  0  0  0  0  0  0  0  0  0  0
   60.8192   29.4180   50.9821 H   0  0  0  0  0  0  0  0  0  0  0  0
   59.9160   31.3410   51.4110 C   0  0  0  0  0  0  0  0  0  0  0  0
   60.3492   31.4026   52.4202 H   0  0  0  0  0  0  0  0  0  0  0  0
   59.1090   32.3800   50.9320 C   0  0  0  0  0  0  0  0  0  0  0  0
   58.8460   33.5300   51.7580 C   0  0  0  0  0  0  0  0  0  0  0  0
   58.6360   34.4550   52.4210 N   0  0  0  0  0  0  0  0  0  0  0  0
   58.5680   32.3040   49.6420 C   0  0  0  0  0  0  0  0  0  0  0  0
   57.9399   33.1223   49.2602 H   0  0  0  0  0  0  0  0  0  0  0  0
   58.8260   31.1890   48.8400 C   0  0  0  0  0  0  0  0  0  0  0  0
   58.4139   31.1427   47.8212 H   0  0  0  0  0  0  0  0  0  0  0  0
   58.2780   29.2420   46.8180 N   0  0  0  0  0  0  0  0  0  0  0  0
   57.3820   28.7110   45.9450 C   0  0  0  0  0  0  0  0  0  0  0  0
   56.6150   29.5770   45.1540 O   0  0  0  0  0  0  0  0  0  0  0  0
   57.0870   30.7410   44.5280 C   0  0  0  0  0  0  0  0  0  0  0  0
   57.2740   30.8120   43.1360 C   0  0  0  0  0  0  0  0  0  0  0  0
   57.0443   29.9401   42.5060 H   0  0  0  0  0  0  0  0  0  0  0  0
   57.7510   31.9880   42.5520 C   0  0  0  0  0  0  0  0  0  0  0  0
   57.8813   32.0445   41.4612 H   0  0  0  0  0  0  0  0  0  0  0  0
   58.0630   33.0920   43.3480 C   0  0  0  0  0  0  0  0  0  0  0  0
   58.4176   34.0226   42.8808 H   0  0  0  0  0  0  0  0  0  0  0  0
   57.9250   33.0170   44.7460 C   0  0  0  0  0  0  0  0  0  0  0  0
   58.2190   34.1350   45.5940 N   0  0  0  0  0  0  0  0  0  0  0  0
   59.2390   34.1800   46.5990 C   0  0  0  0  0  0  0  0  0  0  0  0
   59.2420   35.1350   47.4200 O   0  0  0  0  0  0  0  0  0  0  0  0
   60.1840   33.1070   46.7360 N   0  0  0  0  0  0  0  0  0  0  0  0
   59.9090   32.1680   46.3670 H   0  0  0  0  0  0  0  0  0  0  0  0
   61.4260   33.2150   47.4540 C   0  0  0  0  0  0  0  0  0  0  0  0
   62.6370   33.1420   46.7480 C   0  0  0  0  0  0  0  0  0  0  0  0
   62.6266   32.9856   45.6592 H   0  0  0  0  0  0  0  0  0  0  0  0
   63.8570   33.2670   47.4210 C   0  0  0  0  0  0  0  0  0  0  0  0
   64.8022   33.1982   46.8626 H   0  0  0  0  0  0  0  0  0  0  0  0
   63.8760   33.4790   48.8010 C   0  0  0  0  0  0  0  0  0  0  0  0
   64.8363   33.5698   49.3298 H   0  0  0  0  0  0  0  0  0  0  0  0
   62.6760   33.5760   49.5110 C   0  0  0  0  0  0  0  0  0  0  0  0
   62.7040   33.8660   51.2420 Cl  0  0  0  0  0  0  0  0  0  0  0  0
   61.4540   33.4510   48.8410 C   0  0  0  0  0  0  0  0  0  0  0  0
   60.5111   33.5376   49.4009 H   0  0  0  0  0  0  0  0  0  0  0  0
   57.4220   31.8440   45.3230 C   0  0  0  0  0  0  0  0  0  0  0  0
   57.2886   31.7886   46.4135 H   0  0  0  0  0  0  0  0  0  0  0  0
   57.2150   27.3190   45.8970 C   0  0  0  0  0  0  0  0  0  0  0  0
   56.4832   26.8642   45.2132 H   0  0  0  0  0  0  0  0  0  0  0  0
  1  2  1  0
  2  3  1  0
  3  4  1  0
  4  5  2  0
  5  6  1  0
  6  7  2  0
  7  8  1  0
  7  9  1  0
  9 10  1  0
  9 11  2  0
 11 12  1  0
 12 13  3  0
 11 14  1  0
 14 15  1  0
 14 16  2  0
 16 17  1  0
  4 18  1  0
 18 19  2  0
 19 20  1  0
 20 21  1  0
 21 22  2  0
 22 23  1  0
 22 24  1  0
 24 25  1  0
 24 26  2  0
 26 27  1  0
 26 28  1  0
 28 29  1  0
 29 30  1  0
 30 31  2  0
 30 32  1  0
 32 33  1  0
 32 34  1  0
 34 35  2  0
 35 36  1  0
 35 37  1  0
 37 38  1  0
 37 39  2  0
 39 40  1  0
 39 41  1  0
 41 42  1  0
 41 43  2  0
 43 44  1  0
 28 45  2  0
 45 46  1  0
 19 47  1  0
 47 48  1  0
 47  2  2  0
 16  6  1  0
 45 21  1  0
 43 34  1  0
M  CHG  2   3  -1  29  -1
M  END
>  <UniqueID>  (1) 
1

>  <SMILES>  (1) 
N#Cc1ccc(/N=c2/nc(Oc3cccc([N-]C(=O)Nc4cccc(Cl)c4)c3)cc[n-]2)cc1

>  <Energy>  (1) 
73.12659103250799

>  <Genealogy>  (1) 
N#Cc1ccc(N=c2nc(Oc3cccc([N-]C(=O)Nc4cccc(Cl)c4)c3)cc[n-]2)cc1 (protonated)
N#Cc1ccc(/N=c2/nc(Oc3cccc([N-]C(=O)Nc4cccc(Cl)c4)c3)cc[n-]2)cc1 (cis-trans isomerization)
N#Cc1ccc(/N=c2/nc(Oc3cccc([N-]C(=O)Nc4cccc(Cl)c4)c3)cc[n-]2)cc1 (3D coordinates assigned)
N#Cc1ccc(/N=c2/nc(Oc3cccc([N-]C(=O)Nc4cccc(Cl)c4)c3)cc[n-]2)cc1 (optimized conformer: 73.12659103250799 kcal/mol)

>  <smiles>  (1) 
N#Cc1ccc(N=c2nc(Oc3cccc(NC(=O)Nc4cccc(Cl)c4)c3)cc[nH]2)cc1

>  <score_type>  (1) 
oracle

>  <origin>  (1) 
adg

>  <m_score__min__energy>  (1) 
-11.77

>  <m_primary>  (1) 
energy

$$$$
1:0
     RDKit          3D

 45 48  0  0  0  0  0  0  0  0999 V2000
   55.7130   29.0440   45.0910 N   0  0  0  0  0  0  0  0  0  0  0  0
   56.9850   29.0150   45.3460 C   0  0  0  0  0  0  0  0  0  0  0  0
   57.6400   27.7470   45.5180 N   0  0  0  0  0  0  0  0  0  0  0  0
   57.0740   26.5450   45.1310 O   0  0  0  0  0  0  0  0  0  0  0  0
   56.1050   25.8770   45.8870 C   0  0  0  0  0  0  0  0  0  0  0  0
   54.9350   26.3360   45.9840 O   0  0  0  0  0  0  0  0  0  0  0  0
   56.4330   24.5620   46.5150 C   0  0  0  0  0  0  0  0  0  0  0  0
   57.8810   24.1230   46.3510 C   0  0  0  0  0  0  0  0  0  0  0  0
   57.3940   24.6460   47.6910 C   0  0  0  0  0  0  0  0  0  0  0  0
   57.7660   30.2720   45.4980 C   0  0  0  0  0  0  0  0  0  0  0  0
   57.4700   31.4170   44.7340 C   0  0  0  0  0  0  0  0  0  0  0  0
   58.2130   32.5900   44.8960 C   0  0  0  0  0  0  0  0  0  0  0  0
   59.2570   32.6460   45.8320 C   0  0  0  0  0  0  0  0  0  0  0  0
   60.0380   33.9200   46.0200 C   0  0  0  0  0  0  0  0  0  0  0  0
   60.8550   33.8420   47.2280 N   0  0  0  0  0  0  0  0  0  0  0  0
   60.3980   34.0850   48.5630 C   0  0  0  0  0  0  0  0  0  0  0  0
   59.2700   34.5840   48.8220 O   0  0  0  0  0  0  0  0  0  0  0  0
   61.3690   33.6910   49.5910 C   0  0  0  0  0  0  0  0  0  0  0  0
   61.2320   33.8090   50.9760 C   0  0  0  0  0  0  0  0  0  0  0  0
   62.2810   33.3660   51.7980 C   0  0  0  0  0  0  0  0  0  0  0  0
   63.4460   32.8140   51.2300 C   0  0  0  0  0  0  0  0  0  0  0  0
   63.5690   32.7000   49.8370 C   0  0  0  0  0  0  0  0  0  0  0  0
   62.5180   33.1460   49.0380 C   0  0  0  0  0  0  0  0  0  0  0  0
   62.4200   33.1120   47.3010 S   0  0  0  0  0  0  0  0  0  0  0  0
   63.4630   33.9710   46.6450 O   0  0  0  0  0  0  0  0  0  0  0  0
   62.4100   31.7100   46.7610 O   0  0  0  0  0  0  0  0  0  0  0  0
   59.5480   31.5120   46.6030 C   0  0  0  0  0  0  0  0  0  0  0  0
   58.8120   30.3370   46.4350 C   0  0  0  0  0  0  0  0  0  0  0  0
   55.1440   28.1920   44.8990 H   0  0  0  0  0  0  0  0  0  0  0  0
   58.4880   27.7070   46.1250 H   0  0  0  0  0  0  0  0  0  0  0  0
   55.4521   24.0965   46.3388 H   0  0  0  0  0  0  0  0  0  0  0  0
   58.1221   23.0564   46.2317 H   0  0  0  0  0  0  0  0  0  0  0  0
   58.7001   24.3850   45.6651 H   0  0  0  0  0  0  0  0  0  0  0  0
   57.2827   23.9581   48.5421 H   0  0  0  0  0  0  0  0  0  0  0  0
   57.7148   25.4436   48.3772 H   0  0  0  0  0  0  0  0  0  0  0  0
   56.6477   31.3883   44.0039 H   0  0  0  0  0  0  0  0  0  0  0  0
   57.9778   33.4746   44.2860 H   0  0  0  0  0  0  0  0  0  0  0  0
   60.6920   34.0762   45.1494 H   0  0  0  0  0  0  0  0  0  0  0  0
   59.3338   34.7593   46.1187 H   0  0  0  0  0  0  0  0  0  0  0  0
   60.3201   34.2406   51.4144 H   0  0  0  0  0  0  0  0  0  0  0  0
   62.1925   33.4505   52.8912 H   0  0  0  0  0  0  0  0  0  0  0  0
   64.2630   32.4708   51.8816 H   0  0  0  0  0  0  0  0  0  0  0  0
   64.4746   32.2683   49.3858 H   0  0  0  0  0  0  0  0  0  0  0  0
   60.3601   31.5478   47.3441 H   0  0  0  0  0  0  0  0  0  0  0  0
   59.0535   29.4525   47.0427 H   0  0  0  0  0  0  0  0  0  0  0  0
  1  2  2  3
  2  3  1  0
  3  4  1  0
  4  5  1  0
  5  6  2  0
  5  7  1  0
  7  8  1  0
  8  9  1  0
  2 10  1  0
 10 11  2  0
 11 12  1  0
 12 13  2  0
 13 14  1  0
 14 15  1  0
 15 16  1  0
 16 17  2  0
 16 18  1  0
 18 19  2  0
 19 20  1  0
 20 21  2  0
 21 22  1  0
 22 23  2  0
 23 24  1  0
 24 25  2  0
 24 26  2  0
 13 27  1  0
 27 28  2  0
  9  7  1  0
 28 10  1  0
 24 15  1  0
 23 18  1  0
  1 29  1  0
  3 30  1  0
  7 31  1  0
  8 32  1  0
  8 33  1  0
  9 34  1  0
  9 35  1  0
 11 36  1  0
 12 37  1  0
 14 38  1  0
 14 39  1  0
 19 40  1  0
 20 41  1  0
 21 42  1  0
 22 43  1  0
 27 44  1  0
 28 45  1  0
M  END
>  <UniqueID>  (2) 
2

>  <SMILES>  (2) 
N=C(NOC(=O)C1CC1)c1ccc(CN2C(=O)c3ccccc3S2(=O)=O)cc1

>  <Energy>  (2) 
339.7074150575953

>  <Genealogy>  (2) 
N=C(NOC(=O)C1CC1)c1ccc(CN2C(=O)c3ccccc3S2(=O)=O)cc1 (3D coordinates assigned)
N=C(NOC(=O)C1CC1)c1ccc(CN2C(=O)c3ccccc3S2(=O)=O)cc1 (nonaromatic ring conformer: 339.7074150575953 kcal/mol)

>  <smiles>  (2) 
N=C(NOC(=O)C1CC1)c1ccc(CN2C(=O)c3ccccc3S2(=O)=O)cc1

>  <score_type>  (2) 
oracle

>  <origin>  (2) 
adg

>  <m_score__min__energy>  (2) 
-9.1699999999999999

>  <m_primary>  (2) 
energy

$$$$
2:0
     RDKit          3D

 41 43  0  0  0  0  0  0  0  0999 V2000
   56.8070   30.2040   42.4920 O   0  0  0  0  0  0  0  0  0  0  0  0
   57.0510   30.3410   43.9690 S   0  0  0  0  0  0  0  0  0  0  0  0
   55.7600   30.7330   44.6340 O   0  0  0  0  0  0  0  0  0  0  0  0
   57.5840   28.7990   44.6360 C   0  0  0  0  0  0  0  0  0  0  0  0
   56.7620   28.1070   45.5330 C   0  0  0  0  0  0  0  0  0  0  0  0
   57.1860   26.8940   46.0840 C   0  0  0  0  0  0  0  0  0  0  0  0
   58.4350   26.3590   45.7500 C   0  0  0  0  0  0  0  0  0  0  0  0
   58.8300   25.1120   46.3420 N   0  0  0  0  0  0  0  0  0  0  0  0
   58.8880   24.0100   45.7040 C   0  0  0  0  0  0  0  0  0  0  0  0
   58.9600   22.6160   44.8990 S   0  0  0  0  0  0  0  0  0  0  0  0
   59.2650   27.0620   44.8520 C   0  0  0  0  0  0  0  0  0  0  0  0
   58.8400   28.2740   44.3020 C   0  0  0  0  0  0  0  0  0  0  0  0
   58.2610   31.5660   44.2650 N   0  0  0  0  0  0  0  0  0  0  0  0
   57.6830   32.9110   44.0630 C   0  0  0  0  0  0  0  0  0  0  0  0
   58.4830   33.9730   44.8190 C   0  0  0  0  0  0  0  0  0  0  0  0
   58.4020   33.7490   46.2770 N   0  0  0  0  0  0  0  0  0  0  0  0
   59.7130   34.5680   47.0930 S   0  0  0  0  0  0  0  0  0  0  0  0
   59.2910   34.9070   48.4950 O   0  0  0  0  0  0  0  0  0  0  0  0
   60.0370   35.8490   46.3750 O   0  0  0  0  0  0  0  0  0  0  0  0
   61.1550   33.5660   47.1560 C   0  0  0  0  0  0  0  0  0  0  0  0
   62.3880   33.8800   46.6030 C   0  0  0  0  0  0  0  0  0  0  0  0
   63.3460   32.8790   46.8040 C   0  0  0  0  0  0  0  0  0  0  0  0
   62.8690   31.7840   47.5150 C   0  0  0  0  0  0  0  0  0  0  0  0
   61.2540   32.0610   47.8950 S   0  0  0  0  0  0  0  0  0  0  0  0
   58.3230   32.3220   46.6650 C   0  0  0  0  0  0  0  0  0  0  0  0
   58.8970   31.3790   45.5910 C   0  0  0  0  0  0  0  0  0  0  0  0
   55.7791   28.5189   45.8054 H   0  0  0  0  0  0  0  0  0  0  0  0
   56.5322   26.3557   46.7860 H   0  0  0  0  0  0  0  0  0  0  0  0
   60.2508   26.6544   44.5836 H   0  0  0  0  0  0  0  0  0  0  0  0
   59.4935   28.8182   43.6043 H   0  0  0  0  0  0  0  0  0  0  0  0
   57.6943   33.1494   42.9892 H   0  0  0  0  0  0  0  0  0  0  0  0
   56.6525   32.9100   44.4478 H   0  0  0  0  0  0  0  0  0  0  0  0
   59.5358   33.9239   44.5042 H   0  0  0  0  0  0  0  0  0  0  0  0
   58.0615   34.9628   44.5896 H   0  0  0  0  0  0  0  0  0  0  0  0
   62.5915   34.8167   46.0635 H   0  0  0  0  0  0  0  0  0  0  0  0
   64.3793   32.9522   46.4340 H   0  0  0  0  0  0  0  0  0  0  0  0
   63.4489   30.8887   47.7835 H   0  0  0  0  0  0  0  0  0  0  0  0
   58.8894   32.1793   47.5971 H   0  0  0  0  0  0  0  0  0  0  0  0
   57.2594   32.0715   46.7916 H   0  0  0  0  0  0  0  0  0  0  0  0
   59.9757   31.5716   45.4940 H   0  0  0  0  0  0  0  0  0  0  0  0
   58.6949   30.3469   45.9134 H   0  0  0  0  0  0  0  0  0  0  0  0
  1  2  2  0
  2  3  2  0
  2  4  1  0
  4  5  2  0
  5  6  1  0
  6  7  2  0
  7  8  1  0
  8  9  2  0
  9 10  2  0
  7 11  1  0
 11 12  2  0
  2 13  1  0
 13 14  1  0
 14 15  1  0
 15 16  1  0
 16 17  1  0
 17 18  2  0
 17 19  2  0
 17 20  1  0
 20 21  2  0
 21 22  1  0
 22 23  2  0
 23 24  1  0
 16 25  1  0
 25 26  1  0
 12  4  1  0
 26 13  1  0
 24 20  1  0
  5 27  1  0
  6 28  1  0
 11 29  1  0
 12 30  1  0
 14 31  1  0
 14 32  1  0
 15 33  1  0
 15 34  1  0
 21 35  1  0
 22 36  1  0
 23 37  1  0
 25 38  1  0
 25 39  1  0
 26 40  1  0
 26 41  1  0
M  END
>  <UniqueID>  (3) 
3

>  <SMILES>  (3) 
O=S(=O)(c1ccc(N=C=S)cc1)N1CCN(S(=O)(=O)c2cccs2)CC1

>  <Energy>  (3) 
77.7301454863019

>  <Genealogy>  (3) 
O=S(=O)(c1ccc(N=C=S)cc1)N1CCN(S(=O)(=O)c2cccs2)CC1 (3D coordinates assigned)
O=S(=O)(c1ccc(N=C=S)cc1)N1CCN(S(=O)(=O)c2cccs2)CC1 (nonaromatic ring conformer: 77.7301454863019 kcal/mol)

>  <smiles>  (3) 
O=S(=O)(c1ccc(N=C=S)cc1)N1CCN(S(=O)(=O)c2cccs2)CC1

>  <score_type>  (3) 
oracle

>  <origin>  (3) 
adg

>  <m_score__min__energy>  (3) 
-9.3599999999999994

>  <m_primary>  (3) 
energy

$$$$
3:0
     RDKit          3D

 59 61  0  0  0  0  0  0  0  0999 V2000
   56.2900   29.8300   43.2830 C   0  0  0  0  0  0  0  0  0  0  0  0
   56.2610   30.5430   44.5140 O   0  0  0  0  0  0  0  0  0  0  0  0
   57.3850   31.1190   45.1230 C   0  0  0  0  0  0  0  0  0  0  0  0
   57.5530   32.5110   45.2360 C   0  0  0  0  0  0  0  0  0  0  0  0
   58.6900   33.0390   45.8550 C   0  0  0  0  0  0  0  0  0  0  0  0
   59.6800   32.1830   46.3760 C   0  0  0  0  0  0  0  0  0  0  0  0
   60.8680   32.6880   47.0180 N   0  0  0  0  0  0  0  0  0  0  0  0
   61.9650   31.8580   47.5170 C   0  0  0  0  0  0  0  0  0  0  0  0
   62.3870   32.3060   48.9180 C   0  0  0  0  0  0  0  0  0  0  0  0
   61.9060   33.6590   49.1820 N   0  0  0  0  0  0  0  0  0  0  0  0
   60.5340   34.0280   49.3810 C   0  0  0  0  0  0  0  0  0  0  0  0
   60.0490   34.9570   48.6820 O   0  0  0  0  0  0  0  0  0  0  0  0
   59.6450   33.2990   50.3420 C   0  0  0  0  0  0  0  0  0  0  0  0
   58.6170   32.5840   49.5980 N   0  0  0  0  0  0  0  0  0  0  0  0
   58.5770   31.2890   49.5310 C   0  0  0  0  0  0  0  0  0  0  0  0
   58.4750   30.4530   50.7540 C   0  0  0  0  0  0  0  0  0  0  0  0
   59.4890   29.5560   51.1350 C   0  0  0  0  0  0  0  0  0  0  0  0
   60.6540   29.4200   50.3830 O   0  0  0  0  0  0  0  0  0  0  0  0
   59.3420   28.8100   52.2560 N   0  0  0  0  0  0  0  0  0  0  0  0
   58.2410   28.9050   53.0400 C   0  0  0  0  0  0  0  0  0  0  0  0
   58.1620   28.1750   54.0650 O   0  0  0  0  0  0  0  0  0  0  0  0
   57.2330   29.7770   52.7150 N   0  0  0  0  0  0  0  0  0  0  0  0
   56.0140   29.8550   53.5490 C   0  0  0  0  0  0  0  0  0  0  0  0
   54.8450   29.0970   52.9070 C   0  0  0  0  0  0  0  0  0  0  0  0
   53.7070   30.0190   52.5580 C   0  0  0  0  0  0  0  0  0  0  0  0
   52.7980   30.4300   53.5470 C   0  0  0  0  0  0  0  0  0  0  0  0
   51.7730   31.3280   53.2320 C   0  0  0  0  0  0  0  0  0  0  0  0
   51.6500   31.8240   51.9300 C   0  0  0  0  0  0  0  0  0  0  0  0
   50.6310   32.7150   51.6200 O   0  0  0  0  0  0  0  0  0  0  0  0
   52.5530   31.4230   50.9420 C   0  0  0  0  0  0  0  0  0  0  0  0
   53.5820   30.5280   51.2540 C   0  0  0  0  0  0  0  0  0  0  0  0
   57.3400   30.5480   51.5830 C   0  0  0  0  0  0  0  0  0  0  0  0
   56.4120   31.3450   51.2730 O   0  0  0  0  0  0  0  0  0  0  0  0
   59.5080   30.7960   46.2540 C   0  0  0  0  0  0  0  0  0  0  0  0
   58.3720   30.2700   45.6350 C   0  0  0  0  0  0  0  0  0  0  0  0
   56.3339   28.7498   43.4859 H   0  0  0  0  0  0  0  0  0  0  0  0
   55.3818   30.0580   42.7057 H   0  0  0  0  0  0  0  0  0  0  0  0
   57.1766   30.1310   42.7057 H   0  0  0  0  0  0  0  0  0  0  0  0
   56.7849   33.1885   44.8348 H   0  0  0  0  0  0  0  0  0  0  0  0
   58.8122   34.1292   45.9356 H   0  0  0  0  0  0  0  0  0  0  0  0
   60.9600   33.7210   47.1520 H   0  0  0  0  0  0  0  0  0  0  0  0
   61.6352   30.8094   47.5571 H   0  0  0  0  0  0  0  0  0  0  0  0
   62.8244   31.9617   46.8383 H   0  0  0  0  0  0  0  0  0  0  0  0
   61.9616   31.6175   49.6630 H   0  0  0  0  0  0  0  0  0  0  0  0
   63.4851   32.2971   48.9816 H   0  0  0  0  0  0  0  0  0  0  0  0
   60.2427   32.5824   50.9245 H   0  0  0  0  0  0  0  0  0  0  0  0
   59.1719   34.0192   51.0257 H   0  0  0  0  0  0  0  0  0  0  0  0
   58.6196   30.7996   48.5468 H   0  0  0  0  0  0  0  0  0  0  0  0
   61.4680   29.9910   50.5730 H   0  0  0  0  0  0  0  0  0  0  0  0
   56.2266   29.4158   54.5349 H   0  0  0  0  0  0  0  0  0  0  0  0
   55.7284   30.9129   53.6453 H   0  0  0  0  0  0  0  0  0  0  0  0
   55.2000   28.6058   51.9890 H   0  0  0  0  0  0  0  0  0  0  0  0
   54.4763   28.3574   53.6330 H   0  0  0  0  0  0  0  0  0  0  0  0
   52.8927   30.0442   54.5728 H   0  0  0  0  0  0  0  0  0  0  0  0
   51.0623   31.6447   54.0096 H   0  0  0  0  0  0  0  0  0  0  0  0
   52.4547   31.8115   49.9176 H   0  0  0  0  0  0  0  0  0  0  0  0
   54.2961   30.2214   50.4755 H   0  0  0  0  0  0  0  0  0  0  0  0
   60.2761   30.1155   46.6501 H   0  0  0  0  0  0  0  0  0  0  0  0
   58.2524   29.1799   45.5494 H   0  0  0  0  0  0  0  0  0  0  0  0
  1  2  1  0
  2  3  1  0
  3  4  2  0
  4  5  1  0
  5  6  2  0
  6  7  1  0
  7  8  1  0
  8  9  1  0
  9 10  1  0
 10 11  1  0
 11 12  2  0
 11 13  1  0
 13 14  1  0
 14 15  2  3
 15 16  1  0
 16 17  2  0
 17 18  1  0
 17 19  1  0
 19 20  1  0
 20 21  2  0
 20 22  1  0
 22 23  1  0
 23 24  1  0
 24 25  1  0
 25 26  2  0
 26 27  1  0
 27 28  2  0
 28 29  1  0
 28 30  1  0
 30 31  2  0
 22 32  1  0
 32 33  2  0
  6 34  1  0
 34 35  2  0
 35  3  1  0
 32 16  1  0
 31 25  1  0
  1 36  1  0
  1 37  1  0
  1 38  1  0
  4 39  1  0
  5 40  1  0
  7 41  1  0
  8 42  1  0
  8 43  1  0
  9 44  1  0
  9 45  1  0
 13 46  1  0
 13 47  1  0
 15 48  1  0
 18 49  1  0
 23 50  1  0
 23 51  1  0
 24 52  1  0
 24 53  1  0
 26 54  1  0
 27 55  1  0
 30 56  1  0
 31 57  1  0
 34 58  1  0
 35 59  1  0
M  CHG  3  10  -1  19  -1  29  -1
M  END
>  <UniqueID>  (4) 
4

>  <SMILES>  (4) 
COc1ccc(NCC[N-]C(=O)CN=Cc2c(O)[n-]c(=O)n(CCc3ccc([O-])cc3)c2=O)cc1

>  <Energy>  (4) 
56.95466256680188

>  <Genealogy>  (4) 
COc1ccc(NCC[N-]C(=O)CN=Cc2c(O)[n-]c(=O)n(CCc3ccc([O-])cc3)c2=O)cc1 (protonated)
COc1ccc(NCC[N-]C(=O)CN=Cc2c(O)[n-]c(=O)n(CCc3ccc([O-])cc3)c2=O)cc1 (3D coordinates assigned)
COc1ccc(NCC[N-]C(=O)CN=Cc2c(O)[n-]c(=O)n(CCc3ccc([O-])cc3)c2=O)cc1 (optimized conformer: 56.95466256680188 kcal/mol)

>  <smiles>  (4) 
COc1ccc(NCCNC(=O)CN=Cc2c(O)[nH]c(=O)n(CCc3ccc(O)cc3)c2=O)cc1

>  <score_type>  (4) 
oracle

>  <origin>  (4) 
adg

>  <m_score__min__energy>  (4) 
-12.640000000000001

>  <m_primary>  (4) 
energy

$$$$
4:0
     RDKit          3D

 60 63  0  0  0  0  0  0  0  0999 V2000
   58.6610   28.8970   48.7050 C   0  0  0  0  0  0  0  0  0  0  0  0
   58.8390   29.6150   47.5860 C   0  0  0  0  0  0  0  0  0  0  0  0
   58.6140   29.1970   46.2670 C   0  0  0  0  0  0  0  0  0  0  0  0
   58.4450   27.9630   45.7570 C   0  0  0  0  0  0  0  0  0  0  0  0
   57.2700   27.1070   45.9930 C   0  0  0  0  0  0  0  0  0  0  0  0
   57.3260   25.8260   46.4040 N   0  0  0  0  0  0  0  0  0  0  0  0
   56.0370   25.4240   46.3470 C   0  0  0  0  0  0  0  0  0  0  0  0
   55.6740   24.2640   46.6760 O   0  0  0  0  0  0  0  0  0  0  0  0
   55.1710   26.3590   45.9020 N   0  0  0  0  0  0  0  0  0  0  0  0
   55.9700   27.4130   45.6700 C   0  0  0  0  0  0  0  0  0  0  0  0
   55.5220   28.6270   45.1670 O   0  0  0  0  0  0  0  0  0  0  0  0
   58.6330   30.3430   45.4880 C   0  0  0  0  0  0  0  0  0  0  0  0
   58.9610   31.3880   46.3270 C   0  0  0  0  0  0  0  0  0  0  0  0
   59.0490   32.8250   45.9120 C   0  0  0  0  0  0  0  0  0  0  0  0
   59.1100   30.9440   47.5920 N   0  0  0  0  0  0  0  0  0  0  0  0
   59.3700   31.7660   48.7410 C   0  0  0  0  0  0  0  0  0  0  0  0
   58.3540   31.9540   49.6840 C   0  0  0  0  0  0  0  0  0  0  0  0
   58.5770   32.7260   50.8240 C   0  0  0  0  0  0  0  0  0  0  0  0
   59.8260   33.3270   51.0420 C   0  0  0  0  0  0  0  0  0  0  0  0
   60.0620   34.1540   52.2930 C   0  0  0  0  0  0  0  0  0  0  0  0
   58.7350   34.5270   52.9650 C   0  0  0  0  0  0  0  0  0  0  0  0
   60.9900   33.4250   53.2700 C   0  0  0  0  0  0  0  0  0  0  0  0
   60.8460   33.1450   50.0900 C   0  0  0  0  0  0  0  0  0  0  0  0
   60.6310   32.3720   48.9380 C   0  0  0  0  0  0  0  0  0  0  0  0
   61.9540   32.1810   47.7710 S   0  0  0  0  0  0  0  0  0  0  0  0
   61.7390   30.9260   46.9730 O   0  0  0  0  0  0  0  0  0  0  0  0
   61.9520   33.3450   46.8170 O   0  0  0  0  0  0  0  0  0  0  0  0
   63.4980   32.1030   48.5880 N   0  0  0  0  0  0  0  0  0  0  0  0
   63.9470   33.4680   48.9400 C   0  0  0  0  0  0  0  0  0  0  0  0
   65.0140   33.4280   50.0420 C   0  0  0  0  0  0  0  0  0  0  0  0
   64.4950   32.8380   51.2910 N   0  0  0  0  0  0  0  0  0  0  0  0
   63.3590   31.9170   51.0920 C   0  0  0  0  0  0  0  0  0  0  0  0
   63.4480   31.1750   49.7480 C   0  0  0  0  0  0  0  0  0  0  0  0
   58.8757   29.3455   49.6862 H   0  0  0  0  0  0  0  0  0  0  0  0
   58.3004   27.8597   48.6414 H   0  0  0  0  0  0  0  0  0  0  0  0
   59.2446   27.5638   45.1157 H   0  0  0  0  0  0  0  0  0  0  0  0
   58.4265   30.4071   44.4095 H   0  0  0  0  0  0  0  0  0  0  0  0
   59.0881   33.4634   46.8070 H   0  0  0  0  0  0  0  0  0  0  0  0
   59.9582   32.9784   45.3122 H   0  0  0  0  0  0  0  0  0  0  0  0
   58.1653   33.0882   45.3122 H   0  0  0  0  0  0  0  0  0  0  0  0
   57.3701   31.4887   49.5250 H   0  0  0  0  0  0  0  0  0  0  0  0
   57.7685   32.8646   51.5569 H   0  0  0  0  0  0  0  0  0  0  0  0
   60.5602   35.0870   51.9907 H   0  0  0  0  0  0  0  0  0  0  0  0
   58.8552   34.4932   54.0579 H   0  0  0  0  0  0  0  0  0  0  0  0
   58.4420   35.5423   52.6596 H   0  0  0  0  0  0  0  0  0  0  0  0
   57.9559   33.8130   52.6596 H   0  0  0  0  0  0  0  0  0  0  0  0
   60.6920   33.6591   54.3027 H   0  0  0  0  0  0  0  0  0  0  0  0
   60.9173   32.3400   53.1044 H   0  0  0  0  0  0  0  0  0  0  0  0
   62.0270   33.7525   53.1044 H   0  0  0  0  0  0  0  0  0  0  0  0
   61.8271   33.6157   50.2509 H   0  0  0  0  0  0  0  0  0  0  0  0
   64.1850   31.7190   47.9020 H   0  0  0  0  0  0  0  0  0  0  0  0
   64.3707   33.9492   48.0461 H   0  0  0  0  0  0  0  0  0  0  0  0
   63.0817   34.0374   49.3101 H   0  0  0  0  0  0  0  0  0  0  0  0
   65.8649   32.8256   49.6911 H   0  0  0  0  0  0  0  0  0  0  0  0
   65.3211   34.4623   50.2561 H   0  0  0  0  0  0  0  0  0  0  0  0
   65.2740   32.3090   51.7490 H   0  0  0  0  0  0  0  0  0  0  0  0
   63.3544   31.1775   51.9064 H   0  0  0  0  0  0  0  0  0  0  0  0
   62.4344   32.5130   51.0907 H   0  0  0  0  0  0  0  0  0  0  0  0
   64.3584   30.5576   49.7454 H   0  0  0  0  0  0  0  0  0  0  0  0
   62.5420   30.5597   49.6451 H   0  0  0  0  0  0  0  0  0  0  0  0
  1  2  2  0
  2  3  1  0
  3  4  2  3
  4  5  1  0
  5  6  1  0
  6  7  1  0
  7  8  2  0
  7  9  1  0
  9 10  1  0
 10 11  1  0
  3 12  1  0
 12 13  2  0
 13 14  1  0
 13 15  1  0
 15 16  1  0
 16 17  2  0
 17 18  1  0
 18 19  2  0
 19 20  1  0
 20 21  1  0
 20 22  1  0
 19 23  1  0
 23 24  2  0
 24 25  1  0
 25 26  2  0
 25 27  2  0
 25 28  1  0
 28 29  1  0
 29 30  1  0
 30 31  1  0
 31 32  1  0
 32 33  1  0
 15  2  1  0
 24 16  1  0
 33 28  1  0
 10  5  2  0
  1 34  1  0
  1 35  1  0
  4 36  1  0
 12 37  1  0
 14 38  1  0
 14 39  1  0
 14 40  1  0
 17 41  1  0
 18 42  1  0
 20 43  1  0
 21 44  1  0
 21 45  1  0
 21 46  1  0
 22 47  1  0
 22 48  1  0
 22 49  1  0
 23 50  1  0
 28 51  1  0
 29 52  1  0
 29 53  1  0
 30 54  1  0
 30 55  1  0
 31 56  1  0
 32 57  1  0
 32 58  1  0
 33 59  1  0
 33 60  1  0
M  CHG  4   6  -1   9  -1  11  -1  28   1
M  END
>  <UniqueID>  (5) 
5

>  <SMILES>  (5) 
C=c1c(=Cc2[n-]c(=O)[n-]c2[O-])cc(C)n1-c1ccc(C(C)C)cc1S(=O)(=O)[NH+]1CCNCC1

>  <Energy>  (5) 
140.2942254740479

>  <Genealogy>  (5) 
C=c1c(=Cc2[n-]c(=O)[n-]c2[O-])cc(C)n1-c1ccc(C(C)C)cc1S(=O)(=O)[NH+]1CCNCC1 (protonated)
C=c1c(=Cc2[n-]c(=O)[n-]c2[O-])cc(C)n1-c1ccc(C(C)C)cc1S(=O)(=O)[NH+]1CCNCC1 (3D coordinates assigned)
C=c1c(=Cc2[n-]c(=O)[n-]c2[O-])cc(C)n1-c1ccc(C(C)C)cc1S(=O)(=O)[NH+]1CCNCC1 (nonaromatic ring conformer: 140.2942254740479 kcal/mol)

>  <smiles>  (5) 
C=c1c(=Cc2[nH]c(=O)[nH]c2O)cc(C)n1-c1ccc(C(C)C)cc1S(=O)(=O)N1CCNCC1

>  <score_type>  (5) 
oracle

>  <origin>  (5) 
adg

>  <m_score__min__energy>  (5) 
-14.81

>  <m_primary>  (5) 
energy

$$$$
5:0
     RDKit          3D

 57 60  0  0  0  0  0  0  0  0999 V2000
   63.7020   25.2760   51.9460 C   0  0  0  0  0  0  0  0  0  0  0  0
   63.2740   26.3120   52.9010 N   0  0  0  0  0  0  0  0  0  0  0  0
   63.6420   27.6740   52.4330 C   0  0  0  0  0  0  0  0  0  0  0  0
   62.4700   28.4860   51.8380 C   0  0  0  0  0  0  0  0  0  0  0  0
   61.4650   27.6050   51.2390 N   0  0  0  0  0  0  0  0  0  0  0  0
   60.7480   28.0150   50.0560 C   0  0  0  0  0  0  0  0  0  0  0  0
   60.0490   29.2300   50.0260 C   0  0  0  0  0  0  0  0  0  0  0  0
   59.3290   29.6050   48.8910 C   0  0  0  0  0  0  0  0  0  0  0  0
   59.2500   28.7470   47.7910 C   0  0  0  0  0  0  0  0  0  0  0  0
   58.4770   29.1300   46.6440 N   0  0  0  0  0  0  0  0  0  0  0  0
   57.7230   28.1630   45.8890 C   0  0  0  0  0  0  0  0  0  0  0  0
   57.7210   26.9550   46.2430 O   0  0  0  0  0  0  0  0  0  0  0  0
   56.9430   28.5400   44.7430 N   0  0  0  0  0  0  0  0  0  0  0  0
   56.3880   29.8450   44.5410 C   0  0  0  0  0  0  0  0  0  0  0  0
   55.1340   29.9590   44.5460 O   0  0  0  0  0  0  0  0  0  0  0  0
   57.2260   31.0370   44.2510 C   0  0  0  0  0  0  0  0  0  0  0  0
   57.7600   31.7770   45.3220 C   0  0  0  0  0  0  0  0  0  0  0  0
   58.5100   32.9460   45.0790 C   0  0  0  0  0  0  0  0  0  0  0  0
   59.0400   33.8100   46.2110 C   0  0  0  0  0  0  0  0  0  0  0  0
   59.1840   35.1630   45.8170 O   0  0  0  0  0  0  0  0  0  0  0  0
   60.2520   33.2430   46.9740 C   0  0  0  0  0  0  0  0  0  0  0  0
   59.3960   33.1140   48.2290 C   0  0  0  0  0  0  0  0  0  0  0  0
   58.1990   33.6940   47.4850 C   0  0  0  0  0  0  0  0  0  0  0  0
   58.6870   33.3590   43.7960 N   0  0  0  0  0  0  0  0  0  0  0  0
   58.1800   32.6770   42.7360 C   0  0  0  0  0  0  0  0  0  0  0  0
   57.4350   31.5090   42.9360 C   0  0  0  0  0  0  0  0  0  0  0  0
   56.8900   30.8930   41.8590 F   0  0  0  0  0  0  0  0  0  0  0  0
   59.9310   27.5170   47.8220 C   0  0  0  0  0  0  0  0  0  0  0  0
   60.6990   27.1720   48.9320 C   0  0  0  0  0  0  0  0  0  0  0  0
   60.9580   26.4640   52.0130 C   0  0  0  0  0  0  0  0  0  0  0  0
   61.8400   26.1940   53.2370 C   0  0  0  0  0  0  0  0  0  0  0  0
   64.0654   24.3964   52.4976 H   0  0  0  0  0  0  0  0  0  0  0  0
   62.8501   24.9859   51.3135 H   0  0  0  0  0  0  0  0  0  0  0  0
   64.5103   25.6718   51.3135 H   0  0  0  0  0  0  0  0  0  0  0  0
   64.0478   28.2333   53.2889 H   0  0  0  0  0  0  0  0  0  0  0  0
   64.3725   27.5390   51.6217 H   0  0  0  0  0  0  0  0  0  0  0  0
   61.9990   29.0753   52.6385 H   0  0  0  0  0  0  0  0  0  0  0  0
   62.8670   29.1459   51.0526 H   0  0  0  0  0  0  0  0  0  0  0  0
   60.0683   29.8926   50.9038 H   0  0  0  0  0  0  0  0  0  0  0  0
   58.8214   30.5804   48.8621 H   0  0  0  0  0  0  0  0  0  0  0  0
   58.2330   30.1370   46.5480 H   0  0  0  0  0  0  0  0  0  0  0  0
   56.5010   27.7560   44.2150 H   0  0  0  0  0  0  0  0  0  0  0  0
   57.5912   31.4413   46.3558 H   0  0  0  0  0  0  0  0  0  0  0  0
   59.1470   35.1970   44.8300 H   0  0  0  0  0  0  0  0  0  0  0  0
   60.6221   32.2843   46.5816 H   0  0  0  0  0  0  0  0  0  0  0  0
   61.2028   33.7955   47.0012 H   0  0  0  0  0  0  0  0  0  0  0  0
   59.2527   32.0775   48.5683 H   0  0  0  0  0  0  0  0  0  0  0  0
   59.7303   33.5642   49.1753 H   0  0  0  0  0  0  0  0  0  0  0  0
   57.3473   33.0033   47.3985 H   0  0  0  0  0  0  0  0  0  0  0  0
   57.6709   34.5729   47.8832 H   0  0  0  0  0  0  0  0  0  0  0  0
   58.3560   33.0449   41.7144 H   0  0  0  0  0  0  0  0  0  0  0  0
   59.8572   26.8265   46.9689 H   0  0  0  0  0  0  0  0  0  0  0  0
   61.2715   26.2327   48.9289 H   0  0  0  0  0  0  0  0  0  0  0  0
   59.9340   26.6842   52.3492 H   0  0  0  0  0  0  0  0  0  0  0  0
   60.9694   25.5718   51.3697 H   0  0  0  0  0  0  0  0  0  0  0  0
   61.5949   26.9231   54.0233 H   0  0  0  0  0  0  0  0  0  0  0  0
   61.6477   25.1682   53.5844 H   0  0  0  0  0  0  0  0  0  0  0  0
  1  2  1  0
  2  3  1  0
  3  4  1  0
  4  5  1  0
  5  6  1  0
  6  7  2  0
  7  8  1  0
  8  9  2  0
  9 10  1  0
 10 11  1  0
 11 12  2  0
 11 13  1  0
 13 14  1  0
 14 15  2  0
 14 16  1  0
 16 17  2  0
 17 18  1  0
 18 19  1  0
 19 20  1  0
 19 21  1  0
 21 22  1  0
 22 23  1  0
 18 24  2  0
 24 25  1  0
 25 26  2  0
 26 27  1  0
  9 28  1  0
 28 29  2  0
  5 30  1  0
 30 31  1  0
 31  2  1  0
 29  6  1  0
 26 16  1  0
 23 19  1  0
  1 32  1  0
  1 33  1  0
  1 34  1  0
  3 35  1  0
  3 36  1  0
  4 37  1  0
  4 38  1  0
  7 39  1  0
  8 40  1  0
 10 41  1  0
 13 42  1  0
 17 43  1  0
 20 44  1  0
 21 45  1  0
 21 46  1  0
 22 47  1  0
 22 48  1  0
 23 49  1  0
 23 50  1  0
 25 51  1  0
 28 52  1  0
 29 53  1  0
 30 54  1  0
 30 55  1  0
 31 56  1  0
 31 57  1  0
M  END
>  <UniqueID>  (6) 
6

>  <SMILES>  (6) 
CN1CCN(c2ccc(NC(=O)NC(=O)c3cc(C4(O)CCC4)ncc3F)cc2)CC1

>  <Energy>  (6) 
151.46020099515061

>  <Genealogy>  (6) 
CN1CCN(c2ccc(NC(=O)NC(=O)c3cc(C4(O)CCC4)ncc3F)cc2)CC1 (3D coordinates assigned)
CN1CCN(c2ccc(NC(=O)NC(=O)c3cc(C4(O)CCC4)ncc3F)cc2)CC1 (nonaromatic ring conformer: 151.46020099515061 kcal/mol)

>  <smiles>  (6) 
CN1CCN(c2ccc(NC(=O)NC(=O)c3cc(C4(O)CCC4)ncc3F)cc2)CC1

>  <score_type>  (6) 
oracle

>  <origin>  (6) 
adg

>  <m_score__min__energy>  (6) 
-8.5

>  <m_primary>  (6) 
energy

$$$$
6:0
     RDKit          3D

 56 59  0  0  0  0  0  0  0  0999 V2000
   54.9770   29.7980   52.8550 C   0  0  0  0  0  0  0  0  0  0  0  0
   56.2190   29.5830   52.1920 O   0  0  0  0  0  0  0  0  0  0  0  0
   57.2730   30.5080   52.1670 C   0  0  0  0  0  0  0  0  0  0  0  0
   58.6200   30.1220   52.3090 C   0  0  0  0  0  0  0  0  0  0  0  0
   59.6360   31.0810   52.2680 C   0  0  0  0  0  0  0  0  0  0  0  0
   59.3230   32.4330   52.0680 C   0  0  0  0  0  0  0  0  0  0  0  0
   60.3820   33.4550   52.0460 C   0  0  0  0  0  0  0  0  0  0  0  0
   61.2470   33.6350   51.0380 C   0  0  0  0  0  0  0  0  0  0  0  0
   60.8440   33.5960   49.3130 S   0  0  0  0  0  0  0  0  0  0  0  0
   59.6580   34.4630   48.9980 O   0  0  0  0  0  0  0  0  0  0  0  0
   62.0220   34.1350   48.5500 O   0  0  0  0  0  0  0  0  0  0  0  0
   60.5100   31.9670   48.7800 N   0  0  0  0  0  0  0  0  0  0  0  0
   59.0810   31.6540   48.9460 C   0  0  0  0  0  0  0  0  0  0  0  0
   58.7850   30.1550   48.7040 C   0  0  0  0  0  0  0  0  0  0  0  0
   59.9280   29.4290   48.1070 N   0  0  0  0  0  0  0  0  0  0  0  0
   60.1330   29.8100   46.6820 C   0  0  0  0  0  0  0  0  0  0  0  0
   58.8590   30.3230   46.0280 C   0  0  0  0  0  0  0  0  0  0  0  0
   57.8720   29.3770   45.7030 C   0  0  0  0  0  0  0  0  0  0  0  0
   56.6690   29.7850   45.1280 C   0  0  0  0  0  0  0  0  0  0  0  0
   55.7830   28.9360   44.8520 O   0  0  0  0  0  0  0  0  0  0  0  0
   56.4470   31.0970   44.8710 N   0  0  0  0  0  0  0  0  0  0  0  0
   57.3720   32.0510   45.1510 C   0  0  0  0  0  0  0  0  0  0  0  0
   57.0840   33.3890   44.8570 C   0  0  0  0  0  0  0  0  0  0  0  0
   58.0220   34.3850   45.1290 C   0  0  0  0  0  0  0  0  0  0  0  0
   59.2530   34.0500   45.6920 C   0  0  0  0  0  0  0  0  0  0  0  0
   59.5560   32.7200   45.9930 C   0  0  0  0  0  0  0  0  0  0  0  0
   58.6160   31.6940   45.7360 C   0  0  0  0  0  0  0  0  0  0  0  0
   61.1440   29.5770   48.9520 C   0  0  0  0  0  0  0  0  0  0  0  0
   61.3400   31.0030   49.5100 C   0  0  0  0  0  0  0  0  0  0  0  0
   57.9820   32.8230   51.9560 C   0  0  0  0  0  0  0  0  0  0  0  0
   56.9660   31.8640   51.9950 C   0  0  0  0  0  0  0  0  0  0  0  0
   55.1330   29.7710   53.9436 H   0  0  0  0  0  0  0  0  0  0  0  0
   54.5726   30.7795   52.5668 H   0  0  0  0  0  0  0  0  0  0  0  0
   54.2662   29.0095   52.5668 H   0  0  0  0  0  0  0  0  0  0  0  0
   58.8735   29.0613   52.4528 H   0  0  0  0  0  0  0  0  0  0  0  0
   60.6848   30.7739   52.3931 H   0  0  0  0  0  0  0  0  0  0  0  0
   60.4698   34.1184   52.9190 H   0  0  0  0  0  0  0  0  0  0  0  0
   62.2975   33.8231   51.3046 H   0  0  0  0  0  0  0  0  0  0  0  0
   58.7767   31.9154   49.9702 H   0  0  0  0  0  0  0  0  0  0  0  0
   58.5167   32.2364   48.2028 H   0  0  0  0  0  0  0  0  0  0  0  0
   58.5371   29.6866   49.6679 H   0  0  0  0  0  0  0  0  0  0  0  0
   57.9490   30.0955   47.9915 H   0  0  0  0  0  0  0  0  0  0  0  0
   59.6680   28.4140   48.1190 H   0  0  0  0  0  0  0  0  0  0  0  0
   60.8970   30.6000   46.6343 H   0  0  0  0  0  0  0  0  0  0  0  0
   60.4494   28.9085   46.1368 H   0  0  0  0  0  0  0  0  0  0  0  0
   58.0492   28.3100   45.9031 H   0  0  0  0  0  0  0  0  0  0  0  0
   56.1149   33.6558   44.4101 H   0  0  0  0  0  0  0  0  0  0  0  0
   57.7904   35.4355   44.8992 H   0  0  0  0  0  0  0  0  0  0  0  0
   59.9908   34.8388   45.9006 H   0  0  0  0  0  0  0  0  0  0  0  0
   60.5323   32.4685   46.4330 H   0  0  0  0  0  0  0  0  0  0  0  0
   61.0655   28.8799   49.7993 H   0  0  0  0  0  0  0  0  0  0  0  0
   62.0107   29.3601   48.3103 H   0  0  0  0  0  0  0  0  0  0  0  0
   61.0575   31.0162   50.5730 H   0  0  0  0  0  0  0  0  0  0  0  0
   62.3963   31.2860   49.3908 H   0  0  0  0  0  0  0  0  0  0  0  0
   57.7281   33.8867   51.8371 H   0  0  0  0  0  0  0  0  0  0  0  0
   55.9166   32.1766   51.8898 H   0  0  0  0  0  0  0  0  0  0  0  0
  1  2  1  0
  2  3  1  0
  3  4  2  0
  4  5  1  0
  5  6  2  0
  6  7  1  0
  7  8  2  3
  8  9  1  0
  9 10  2  0
  9 11  2  0
  9 12  1  0
 12 13  1  0
 13 14  1  0
 14 15  1  0
 15 16  1  0
 16 17  1  0
 17 18  2  0
 18 19  1  0
 19 20  2  0
 19 21  1  0
 21 22  1  0
 22 23  2  0
 23 24  1  0
 24 25  2  0
 25 26  1  0
 26 27  2  0
 15 28  1  0
 28 29  1  0
  6 30  1  0
 30 31  2  0
 31  3  1  0
 29 12  1  0
 27 17  1  0
 27 22  1  0
  1 32  1  0
  1 33  1  0
  1 34  1  0
  4 35  1  0
  5 36  1  0
  7 37  1  0
  8 38  1  0
 13 39  1  0
 13 40  1  0
 14 41  1  0
 14 42  1  0
 15 43  1  0
 16 44  1  0
 16 45  1  0
 18 46  1  0
 23 47  1  0
 24 48  1  0
 25 49  1  0
 26 50  1  0
 28 51  1  0
 28 52  1  0
 29 53  1  0
 29 54  1  0
 30 55  1  0
 31 56  1  0
M  CHG  2  15   1  21  -1
M  END
>  <UniqueID>  (7) 
7

>  <SMILES>  (7) 
COc1ccc(C=CS(=O)(=O)N2CC[NH+](Cc3cc(=O)[n-]c4ccccc34)CC2)cc1

>  <Energy>  (7) 
84.93337912819472

>  <Genealogy>  (7) 
COc1ccc(C=CS(=O)(=O)N2CC[NH+](Cc3cc(=O)[n-]c4ccccc34)CC2)cc1 (protonated)
COc1ccc(C=CS(=O)(=O)N2CC[NH+](Cc3cc(=O)[n-]c4ccccc34)CC2)cc1 (3D coordinates assigned)
COc1ccc(C=CS(=O)(=O)N2CC[NH+](Cc3cc(=O)[n-]c4ccccc34)CC2)cc1 (nonaromatic ring conformer: 84.93337912819472 kcal/mol)

>  <smiles>  (7) 
COc1ccc(C=CS(=O)(=O)N2CCN(Cc3cc(=O)[nH]c4ccccc34)CC2)cc1

>  <score_type>  (7) 
oracle

>  <origin>  (7) 
adg

>  <m_score__min__energy>  (7) 
-9.6199999999999992

>  <m_primary>  (7) 
energy

$$$$
7:0
     RDKit          3D

 41 43  0  0  0  0  0  0  0  0999 V2000
   55.6900   26.6290   45.9810 N   0  0  0  0  0  0  0  0  0  0  0  0
   57.3400   26.8640   45.5210 S   0  0  0  0  0  0  0  0  0  0  0  0
   57.3830   27.3990   44.1160 O   0  0  0  0  0  0  0  0  0  0  0  0
   58.0720   25.5510   45.5660 O   0  0  0  0  0  0  0  0  0  0  0  0
   58.1060   27.9980   46.6300 C   0  0  0  0  0  0  0  0  0  0  0  0
   58.3290   27.6520   47.9700 C   0  0  0  0  0  0  0  0  0  0  0  0
   58.9360   28.5630   48.8400 C   0  0  0  0  0  0  0  0  0  0  0  0
   59.3330   29.8270   48.3780 C   0  0  0  0  0  0  0  0  0  0  0  0
   59.9670   30.8090   49.3250 C   0  0  0  0  0  0  0  0  0  0  0  0
   59.5600   30.5240   50.6960 N   0  0  0  0  0  0  0  0  0  0  0  0
   58.4980   31.2120   51.3700 C   0  0  0  0  0  0  0  0  0  0  0  0
   58.5000   32.4720   51.4290 O   0  0  0  0  0  0  0  0  0  0  0  0
   57.3980   30.4580   51.9980 C   0  0  0  0  0  0  0  0  0  0  0  0
   57.6260   29.2330   52.6400 C   0  0  0  0  0  0  0  0  0  0  0  0
   56.5510   28.5490   53.2130 C   0  0  0  0  0  0  0  0  0  0  0  0
   56.7410   27.4440   53.7860 O   0  0  0  0  0  0  0  0  0  0  0  0
   55.2640   29.0900   53.1470 C   0  0  0  0  0  0  0  0  0  0  0  0
   55.0640   30.3260   52.5070 C   0  0  0  0  0  0  0  0  0  0  0  0
   53.7170   30.9430   52.3990 C   0  0  0  0  0  0  0  0  0  0  0  0
   52.8610   31.0360   53.5150 C   0  0  0  0  0  0  0  0  0  0  0  0
   51.5980   31.6250   53.3920 C   0  0  0  0  0  0  0  0  0  0  0  0
   51.1760   32.1310   52.1600 C   0  0  0  0  0  0  0  0  0  0  0  0
   49.9190   32.7110   52.0400 O   0  0  0  0  0  0  0  0  0  0  0  0
   52.0210   32.0560   51.0490 C   0  0  0  0  0  0  0  0  0  0  0  0
   53.2850   31.4700   51.1680 C   0  0  0  0  0  0  0  0  0  0  0  0
   56.1330   30.9620   51.9500 N   0  0  0  0  0  0  0  0  0  0  0  0
   59.1010   30.1740   47.0370 C   0  0  0  0  0  0  0  0  0  0  0  0
   58.4930   29.2630   46.1690 C   0  0  0  0  0  0  0  0  0  0  0  0
   55.1000   27.1190   45.2710 H   0  0  0  0  0  0  0  0  0  0  0  0
   58.0256   26.6609   48.3382 H   0  0  0  0  0  0  0  0  0  0  0  0
   59.1031   28.2874   49.8917 H   0  0  0  0  0  0  0  0  0  0  0  0
   61.0616   30.7326   49.2480 H   0  0  0  0  0  0  0  0  0  0  0  0
   59.6408   31.8252   49.0585 H   0  0  0  0  0  0  0  0  0  0  0  0
   58.6418   28.8142   52.6922 H   0  0  0  0  0  0  0  0  0  0  0  0
   54.4137   28.5528   53.5925 H   0  0  0  0  0  0  0  0  0  0  0  0
   53.1882   30.6429   54.4889 H   0  0  0  0  0  0  0  0  0  0  0  0
   50.9354   31.6899   54.2676 H   0  0  0  0  0  0  0  0  0  0  0  0
   51.6912   32.4585   50.0799 H   0  0  0  0  0  0  0  0  0  0  0  0
   53.9476   31.4206   50.2913 H   0  0  0  0  0  0  0  0  0  0  0  0
   59.3990   31.1667   46.6685 H   0  0  0  0  0  0  0  0  0  0  0  0
   58.3175   29.5405   45.1191 H   0  0  0  0  0  0  0  0  0  0  0  0
  1  2  1  0
  2  3  2  0
  2  4  2  0
  2  5  1  0
  5  6  2  0
  6  7  1  0
  7  8  2  0
  8  9  1  0
  9 10  1  0
 10 11  1  0
 11 12  2  0
 11 13  1  0
 13 14  2  0
 14 15  1  0
 15 16  2  0
 15 17  1  0
 17 18  2  0
 18 19  1  0
 19 20  2  0
 20 21  1  0
 21 22  2  0
 22 23  1  0
 22 24  1  0
 24 25  2  0
 18 26  1  0
  8 27  1  0
 27 28  2  0
 28  5  1  0
 26 13  1  0
 25 19  1  0
  1 29  1  0
  6 30  1  0
  7 31  1  0
  9 32  1  0
  9 33  1  0
 14 34  1  0
 17 35  1  0
 20 36  1  0
 21 37  1  0
 24 38  1  0
 25 39  1  0
 27 40  1  0
 28 41  1  0
M  CHG  4   1  -1  10  -1  23  -1  26  -1
M  END
>  <UniqueID>  (8) 
8

>  <SMILES>  (8) 
[NH-]S(=O)(=O)c1ccc(C[N-]C(=O)c2cc(=O)cc(-c3ccc([O-])cc3)[n-]2)cc1

>  <Energy>  (8) 
46.09031562241288

>  <Genealogy>  (8) 
[NH-]S(=O)(=O)c1ccc(C[N-]C(=O)c2cc(=O)cc(-c3ccc([O-])cc3)[n-]2)cc1 (protonated)
[NH-]S(=O)(=O)c1ccc(C[N-]C(=O)c2cc(=O)cc(-c3ccc([O-])cc3)[n-]2)cc1 (3D coordinates assigned)
[NH-]S(=O)(=O)c1ccc(C[N-]C(=O)c2cc(=O)cc(-c3ccc([O-])cc3)[n-]2)cc1 (optimized conformer: 46.09031562241288 kcal/mol)

>  <smiles>  (8) 
NS(=O)(=O)c1ccc(CNC(=O)c2cc(=O)cc(-c3ccc(O)cc3)[nH]2)cc1

>  <score_type>  (8) 
oracle

>  <origin>  (8) 
adg

>  <m_score__min__energy>  (8) 
-16.82

>  <m_primary>  (8) 
energy

$$$$
8:0
     RDKit          3D

 60 64  0  0  0  0  0  0  0  0999 V2000
   51.0860   32.3270   50.3540 N   0  0  0  0  0  0  0  0  0  0  0  0
   51.0700   32.3500   51.7810 C   0  0  0  0  0  0  0  0  0  0  0  0
   50.3040   33.1570   52.3750 O   0  0  0  0  0  0  0  0  0  0  0  0
   51.9470   31.4390   52.5550 C   0  0  0  0  0  0  0  0  0  0  0  0
   51.6140   31.0760   53.8750 C   0  0  0  0  0  0  0  0  0  0  0  0
   52.4440   30.2210   54.6040 C   0  0  0  0  0  0  0  0  0  0  0  0
   53.6130   29.7170   54.0310 C   0  0  0  0  0  0  0  0  0  0  0  0
   53.9610   30.0640   52.7160 C   0  0  0  0  0  0  0  0  0  0  0  0
   55.2360   29.5480   52.1100 C   0  0  0  0  0  0  0  0  0  0  0  0
   56.0310   30.6460   51.5780 N   0  0  0  0  0  0  0  0  0  0  0  0
   57.0580   31.3410   52.2990 C   0  0  0  0  0  0  0  0  0  0  0  0
   57.1460   31.2150   53.5510 O   0  0  0  0  0  0  0  0  0  0  0  0
   57.9950   32.2270   51.5660 C   0  0  0  0  0  0  0  0  0  0  0  0
   58.8100   33.1500   52.2420 C   0  0  0  0  0  0  0  0  0  0  0  0
   59.6570   34.0040   51.5240 C   0  0  0  0  0  0  0  0  0  0  0  0
   59.6970   33.9510   50.1270 C   0  0  0  0  0  0  0  0  0  0  0  0
   58.8930   33.0310   49.4370 C   0  0  0  0  0  0  0  0  0  0  0  0
   58.8780   32.9360   47.9610 C   0  0  0  0  0  0  0  0  0  0  0  0
   59.2710   33.8800   47.0260 C   0  0  0  0  0  0  0  0  0  0  0  0
   59.0290   33.3090   45.7870 C   0  0  0  0  0  0  0  0  0  0  0  0
   58.5100   32.0530   46.0460 C   0  0  0  0  0  0  0  0  0  0  0  0
   58.0700   31.0550   45.0490 C   0  0  0  0  0  0  0  0  0  0  0  0
   57.8420   29.7630   45.3720 C   0  0  0  0  0  0  0  0  0  0  0  0
   58.8680   28.9780   45.8050 N   0  0  0  0  0  0  0  0  0  0  0  0
   58.7070   27.6760   46.1490 C   0  0  0  0  0  0  0  0  0  0  0  0
   59.7240   27.0120   46.4850 O   0  0  0  0  0  0  0  0  0  0  0  0
   57.4160   27.1000   46.0830 C   0  0  0  0  0  0  0  0  0  0  0  0
   57.1330   25.8250   46.4200 C   0  0  0  0  0  0  0  0  0  0  0  0
   56.2990   24.8880   45.6410 C   0  0  0  0  0  0  0  0  0  0  0  0
   56.8170   23.8910   44.8920 N   0  0  0  0  0  0  0  0  0  0  0  0
   55.7600   23.3400   44.2560 C   0  0  0  0  0  0  0  0  0  0  0  0
   55.8740   22.2660   43.3790 O   0  0  0  0  0  0  0  0  0  0  0  0
   54.5740   23.9850   44.5660 C   0  0  0  0  0  0  0  0  0  0  0  0
   53.2310   23.6960   44.0380 C   0  0  0  0  0  0  0  0  0  0  0  0
   52.2820   23.4280   44.8230 O   0  0  0  0  0  0  0  0  0  0  0  0
   52.9960   23.7260   42.6690 O   0  0  0  0  0  0  0  0  0  0  0  0
   54.9330   24.9860   45.4390 C   0  0  0  0  0  0  0  0  0  0  0  0
   54.0850   25.9430   45.9890 O   0  0  0  0  0  0  0  0  0  0  0  0
   56.3960   27.8770   45.6230 N   0  0  0  0  0  0  0  0  0  0  0  0
   56.5650   29.1780   45.2660 C   0  0  0  0  0  0  0  0  0  0  0  0
   55.5720   29.8400   44.8530 O   0  0  0  0  0  0  0  0  0  0  0  0
   58.4370   31.8700   47.3390 O   0  0  0  0  0  0  0  0  0  0  0  0
   58.0550   32.1720   50.1660 C   0  0  0  0  0  0  0  0  0  0  0  0
   53.1270   30.9260   51.9850 C   0  0  0  0  0  0  0  0  0  0  0  0
   50.1990   32.3320   49.8010 H   0  0  0  0  0  0  0  0  0  0  0  0
   50.6947   31.4683   54.3344 H   0  0  0  0  0  0  0  0  0  0  0  0
   52.1753   29.9437   55.6340 H   0  0  0  0  0  0  0  0  0  0  0  0
   54.2633   29.0461   54.6115 H   0  0  0  0  0  0  0  0  0  0  0  0
   55.8166   29.0222   52.8823 H   0  0  0  0  0  0  0  0  0  0  0  0
   54.9857   28.8605   51.2886 H   0  0  0  0  0  0  0  0  0  0  0  0
   58.7830   33.2024   53.3404 H   0  0  0  0  0  0  0  0  0  0  0  0
   60.2946   34.7207   52.0623 H   0  0  0  0  0  0  0  0  0  0  0  0
   60.3585   34.6303   49.5694 H   0  0  0  0  0  0  0  0  0  0  0  0
   59.6891   34.8776   47.2262 H   0  0  0  0  0  0  0  0  0  0  0  0
   59.2118   33.7610   44.8010 H   0  0  0  0  0  0  0  0  0  0  0  0
   57.9229   31.3753   44.0070 H   0  0  0  0  0  0  0  0  0  0  0  0
   57.5624   25.4491   47.3604 H   0  0  0  0  0  0  0  0  0  0  0  0
   55.1550   22.0920   42.6850 H   0  0  0  0  0  0  0  0  0  0  0  0
   57.4331   31.4413   49.6282 H   0  0  0  0  0  0  0  0  0  0  0  0
   53.3992   31.2031   50.9558 H   0  0  0  0  0  0  0  0  0  0  0  0
  1  2  1  0
  2  3  2  0
  2  4  1  0
  4  5  2  0
  5  6  1  0
  6  7  2  0
  7  8  1  0
  8  9  1  0
  9 10  1  0
 10 11  1  0
 11 12  2  0
 11 13  1  0
 13 14  2  0
 14 15  1  0
 15 16  2  0
 16 17  1  0
 17 18  1  0
 18 19  2  0
 19 20  1  0
 20 21  2  0
 21 22  1  0
 22 23  2  3
 23 24  1  0
 24 25  1  0
 25 26  2  0
 25 27  1  0
 27 28  2  3
 28 29  1  0
 29 30  1  0
 30 31  1  0
 31 32  1  0
 31 33  2  0
 33 34  1  0
 34 35  2  0
 34 36  1  0
 33 37  1  0
 37 38  1  0
 27 39  1  0
 39 40  1  0
 40 41  2  0
 21 42  1  0
 17 43  2  0
  8 44  2  0
 44  4  1  0
 43 13  1  0
 42 18  1  0
 40 23  1  0
 37 29  2  0
  1 45  1  0
  5 46  1  0
  6 47  1  0
  7 48  1  0
  9 49  1  0
  9 50  1  0
 14 51  1  0
 15 52  1  0
 16 53  1  0
 19 54  1  0
 20 55  1  0
 22 56  1  0
 28 57  1  0
 32 58  1  0
 43 59  1  0
 44 60  1  0
M  CHG  7   1  -1  10  -1  24  -1  30  -1  36  -1  38  -1  39  -1
M  END
>  <UniqueID>  (9) 
9

>  <SMILES>  (9) 
[NH-]C(=O)c1cccc(C[N-]C(=O)c2cccc(-c3ccc(C=c4[n-]c(=O)c(=Cc5[n-]c(O)c(C(=O)[O-])c5[O-])[n-]c4=O)o3)c2)c1

>  <Energy>  (9) 
133.472477000442

>  <Genealogy>  (9) 
[NH-]C(=O)c1cccc(C[N-]C(=O)c2cccc(-c3ccc(C=c4[n-]c(=O)c(=Cc5[n-]c(O)c(C(=O)[O-])c5[O-])[n-]c4=O)o3)c2)c1 (protonated)
[NH-]C(=O)c1cccc(C[N-]C(=O)c2cccc(-c3ccc(C=c4[n-]c(=O)c(=Cc5[n-]c(O)c(C(=O)[O-])c5[O-])[n-]c4=O)o3)c2)c1 (3D coordinates assigned)
[NH-]C(=O)c1cccc(C[N-]C(=O)c2cccc(-c3ccc(C=c4[n-]c(=O)c(=Cc5[n-]c(O)c(C(=O)[O-])c5[O-])[n-]c4=O)o3)c2)c1 (optimized conformer: 133.472477000442 kcal/mol)

>  <smiles>  (9) 
NC(=O)c1cccc(CNC(=O)c2cccc(-c3ccc(C=c4[nH]c(=O)c(=Cc5[nH]c(O)c(C(=O)O)c5O)[nH]c4=O)o3)c2)c1

>  <score_type>  (9) 
oracle

>  <origin>  (9) 
adg

>  <m_score__min__energy>  (9) 
-26.550000000000001

>  <m_primary>  (9) 
energy

$$$$
9:0
     RDKit          3D

 69 73  0  0  0  0  0  0  0  0999 V2000
   60.7940   28.3900   49.2110 O   0  0  0  0  0  0  0  0  0  0  0  0
   59.9340   28.7170   48.3510 C   0  0  0  0  0  0  0  0  0  0  0  0
   60.1610   29.9640   47.5390 C   0  0  0  0  0  0  0  0  0  0  0  0
   59.1260   30.9220   47.7580 O   0  0  0  0  0  0  0  0  0  0  0  0
   59.1700   32.2700   47.3620 C   0  0  0  0  0  0  0  0  0  0  0  0
   58.1280   32.8550   46.6130 C   0  0  0  0  0  0  0  0  0  0  0  0
   58.1920   34.1970   46.2340 C   0  0  0  0  0  0  0  0  0  0  0  0
   59.2960   34.9710   46.5930 C   0  0  0  0  0  0  0  0  0  0  0  0
   60.3350   34.4090   47.3310 C   0  0  0  0  0  0  0  0  0  0  0  0
   60.2870   33.0570   47.7320 C   0  0  0  0  0  0  0  0  0  0  0  0
   61.4480   32.4170   48.4800 C   0  0  1  0  0  0  0  0  0  0  0  0
   62.5530   32.0770   47.5120 C   0  0  0  0  0  0  0  0  0  0  0  0
   63.6100   32.8780   47.3180 C   0  0  0  0  0  0  0  0  0  0  0  0
   63.7630   34.1860   48.0460 C   0  0  0  0  0  0  0  0  0  0  0  0
   63.0480   34.1680   49.3650 C   0  0  0  0  0  0  0  0  0  0  0  0
   63.3830   34.9920   50.2600 O   0  0  0  0  0  0  0  0  0  0  0  0
   61.9520   33.2560   49.5830 N   0  0  0  0  0  0  0  0  0  0  0  0
   61.3420   33.1400   50.8830 C   0  0  0  0  0  0  0  0  0  0  0  0
   61.8630   33.7400   51.8670 O   0  0  0  0  0  0  0  0  0  0  0  0
   60.0810   32.3810   51.0730 C   0  0  0  0  0  0  0  0  0  0  0  0
   58.8700   33.0550   51.3250 C   0  0  0  0  0  0  0  0  0  0  0  0
   57.6880   32.3350   51.5290 C   0  0  0  0  0  0  0  0  0  0  0  0
   57.7020   30.9380   51.4910 C   0  0  0  0  0  0  0  0  0  0  0  0
   56.5560   30.2420   51.7000 F   0  0  0  0  0  0  0  0  0  0  0  0
   58.9010   30.2580   51.2480 C   0  0  0  0  0  0  0  0  0  0  0  0
   60.0840   30.9740   51.0430 C   0  0  0  0  0  0  0  0  0  0  0  0
   58.7580   27.9020   48.2070 N   0  0  0  0  0  0  0  0  0  0  0  0
   58.3110   27.2400   47.0160 C   0  0  0  0  0  0  0  0  0  0  0  0
   58.9150   27.5600   45.7940 C   0  0  0  0  0  0  0  0  0  0  0  0
   58.5280   26.9050   44.6230 C   0  0  0  0  0  0  0  0  0  0  0  0
   57.5210   25.9340   44.6640 C   0  0  0  0  0  0  0  0  0  0  0  0
   56.8520   25.6570   45.8660 C   0  0  0  0  0  0  0  0  0  0  0  0
   55.5950   24.4040   45.9580 S   0  0  0  0  0  0  0  0  0  0  0  0
   55.5270   23.9010   47.3750 O   0  0  0  0  0  0  0  0  0  0  0  0
   54.2700   25.0360   45.6200 O   0  0  0  0  0  0  0  0  0  0  0  0
   55.8120   23.0630   44.8540 N   0  0  0  0  0  0  0  0  0  0  0  0
   56.7620   22.0620   45.3760 C   0  0  0  0  0  0  0  0  0  0  0  0
   57.2240   21.1090   44.2600 C   0  0  0  0  0  0  0  0  0  0  0  0
   56.2620   21.0720   43.2280 O   0  0  0  0  0  0  0  0  0  0  0  0
   56.2550   22.3150   42.5390 C   0  0  0  0  0  0  0  0  0  0  0  0
   56.1610   23.5230   43.5020 C   0  0  0  0  0  0  0  0  0  0  0  0
   57.2460   26.3240   47.0370 C   0  0  0  0  0  0  0  0  0  0  0  0
   61.1260   30.4074   47.8258 H   0  0  0  0  0  0  0  0  0  0  0  0
   60.1596   29.6893   46.4739 H   0  0  0  0  0  0  0  0  0  0  0  0
   57.2569   32.2483   46.3248 H   0  0  0  0  0  0  0  0  0  0  0  0
   57.3723   34.6441   45.6525 H   0  0  0  0  0  0  0  0  0  0  0  0
   59.3460   36.0279   46.2924 H   0  0  0  0  0  0  0  0  0  0  0  0
   61.2033   35.0265   47.6045 H   0  0  0  0  0  0  0  0  0  0  0  0
   61.0713   31.4943   48.9455 H   0  0  0  0  0  0  0  0  0  0  0  0
   62.4893   31.1370   46.9442 H   0  0  0  0  0  0  0  0  0  0  0  0
   64.3891   32.5699   46.6052 H   0  0  0  0  0  0  0  0  0  0  0  0
   64.8324   34.3744   48.2217 H   0  0  0  0  0  0  0  0  0  0  0  0
   63.3223   34.9801   47.4253 H   0  0  0  0  0  0  0  0  0  0  0  0
   58.8536   34.1543   51.3616 H   0  0  0  0  0  0  0  0  0  0  0  0
   56.7457   32.8695   51.7197 H   0  0  0  0  0  0  0  0  0  0  0  0
   58.9124   29.1585   51.2183 H   0  0  0  0  0  0  0  0  0  0  0  0
   61.0240   30.4338   50.8569 H   0  0  0  0  0  0  0  0  0  0  0  0
   59.6984   28.3313   45.7562 H   0  0  0  0  0  0  0  0  0  0  0  0
   59.0148   27.1523   43.6681 H   0  0  0  0  0  0  0  0  0  0  0  0
   57.2526   25.3851   43.7493 H   0  0  0  0  0  0  0  0  0  0  0  0
   57.6383   22.5801   45.7927 H   0  0  0  0  0  0  0  0  0  0  0  0
   56.2577   21.4720   46.1555 H   0  0  0  0  0  0  0  0  0  0  0  0
   58.1823   21.4630   43.8522 H   0  0  0  0  0  0  0  0  0  0  0  0
   57.3463   20.0981   44.6761 H   0  0  0  0  0  0  0  0  0  0  0  0
   57.1832   22.4003   41.9549 H   0  0  0  0  0  0  0  0  0  0  0  0
   55.3671   22.3337   41.8900 H   0  0  0  0  0  0  0  0  0  0  0  0
   57.1311   24.0407   43.5326 H   0  0  0  0  0  0  0  0  0  0  0  0
   55.3817   24.2112   43.1426 H   0  0  0  0  0  0  0  0  0  0  0  0
   56.7155   26.1274   47.9803 H   0  0  0  0  0  0  0  0  0  0  0  0
  1  2  2  0
  2  3  1  0
  3  4  1  0
  4  5  1  0
  5  6  2  0
  6  7  1  0
  7  8  2  0
  8  9  1  0
  9 10  2  0
 10 11  1  0
 11 12  1  0
 12 13  2  0
 13 14  1  0
 14 15  1  0
 15 16  2  0
 15 17  1  0
 17 18  1  0
 18 19  2  0
 18 20  1  0
 20 21  2  0
 21 22  1  0
 22 23  2  0
 23 24  1  0
 23 25  1  0
 25 26  2  0
  2 27  1  0
 27 28  1  0
 28 29  2  0
 29 30  1  0
 30 31  2  0
 31 32  1  0
 32 33  1  0
 33 34  2  0
 33 35  2  0
 33 36  1  0
 36 37  1  0
 37 38  1  0
 38 39  1  0
 39 40  1  0
 40 41  1  0
 32 42  2  0
 10  5  1  0
 17 11  1  0
 26 20  1  0
 42 28  1  0
 41 36  1  0
  3 43  1  0
  3 44  1  0
  6 45  1  0
  7 46  1  0
  8 47  1  0
  9 48  1  0
 11 49  1  1
 12 50  1  0
 13 51  1  0
 14 52  1  0
 14 53  1  0
 21 54  1  0
 22 55  1  0
 25 56  1  0
 26 57  1  0
 29 58  1  0
 30 59  1  0
 31 60  1  0
 37 61  1  0
 37 62  1  0
 38 63  1  0
 38 64  1  0
 40 65  1  0
 40 66  1  0
 41 67  1  0
 41 68  1  0
 42 69  1  0
M  CHG  1  27  -1
M  END
>  <UniqueID>  (10) 
10

>  <SMILES>  (10) 
O=C(COc1ccccc1[C@H]1C=CCC(=O)N1C(=O)c1ccc(F)cc1)[N-]c1cccc(S(=O)(=O)N2CCOCC2)c1

>  <Energy>  (10) 
96.21736059983742

>  <Genealogy>  (10) 
O=C(COc1ccccc1C1C=CCC(=O)N1C(=O)c1ccc(F)cc1)[N-]c1cccc(S(=O)(=O)N2CCOCC2)c1 (protonated)
O=C(COc1ccccc1[C@H]1C=CCC(=O)N1C(=O)c1ccc(F)cc1)[N-]c1cccc(S(=O)(=O)N2CCOCC2)c1 (chirality)
O=C(COc1ccccc1[C@H]1C=CCC(=O)N1C(=O)c1ccc(F)cc1)[N-]c1cccc(S(=O)(=O)N2CCOCC2)c1 (3D coordinates assigned)
O=C(COc1ccccc1[C@H]1C=CCC(=O)N1C(=O)c1ccc(F)cc1)[N-]c1cccc(S(=O)(=O)N2CCOCC2)c1 (nonaromatic ring conformer: 96.21736059983742 kcal/mol)

>  <smiles>  (10) 
O=C(COc1ccccc1C1C=CCC(=O)N1C(=O)c1ccc(F)cc1)Nc1cccc(S(=O)(=O)N2CCOCC2)c1

>  <score_type>  (10) 
oracle

>  <origin>  (10) 
adg

>  <m_score__min__energy>  (10) 
-13.710000000000001

>  <m_primary>  (10) 
energy

$$$$
10:0
     RDKit          3D

 48 50  0  0  0  0  0  0  0  0999 V2000
   56.4360   22.3770   43.3250 C   0  0  0  0  0  0  0  0  0  0  0  0
   55.4430   23.5070   43.5720 C   0  0  0  0  0  0  0  0  0  0  0  0
   55.9850   24.4660   44.5570 N   0  0  0  0  0  0  0  0  0  0  0  0
   55.3700   24.6350   45.7670 C   0  0  0  0  0  0  0  0  0  0  0  0
   54.3270   23.9920   46.0570 O   0  0  0  0  0  0  0  0  0  0  0  0
   55.8800   25.5000   46.6720 N   0  0  0  0  0  0  0  0  0  0  0  0
   57.0030   26.2030   46.4060 C   0  0  0  0  0  0  0  0  0  0  0  0
   57.4410   27.0040   47.2740 O   0  0  0  0  0  0  0  0  0  0  0  0
   57.6520   26.0390   45.2120 N   0  0  0  0  0  0  0  0  0  0  0  0
   58.8640   26.8320   44.9120 C   0  0  0  0  0  0  0  0  0  0  0  0
   58.5660   28.3080   45.0170 C   0  0  0  0  0  0  0  0  0  0  0  0
   57.3680   28.8260   44.5070 C   0  0  0  0  0  0  0  0  0  0  0  0
   57.0820   30.1860   44.6210 C   0  0  0  0  0  0  0  0  0  0  0  0
   57.9950   31.0650   45.2360 C   0  0  0  0  0  0  0  0  0  0  0  0
   57.6760   32.5210   45.3020 C   0  0  0  0  0  0  0  0  0  0  0  0
   57.0190   32.9430   46.2950 O   0  0  0  0  0  0  0  0  0  0  0  0
   58.0120   33.4290   44.2150 N   0  0  2  0  0  0  0  0  0  0  0  0
   58.1240   32.7290   42.9190 C   0  0  0  0  0  0  0  0  0  0  0  0
   59.2370   34.2120   44.5200 C   0  0  0  0  0  0  0  0  0  0  0  0
   59.6470   34.1500   45.9720 C   0  0  0  0  0  0  0  0  0  0  0  0
   59.0660   34.8580   47.0170 C   0  0  0  0  0  0  0  0  0  0  0  0
   59.6390   34.5760   48.2610 C   0  0  0  0  0  0  0  0  0  0  0  0
   60.6800   33.6590   48.2020 C   0  0  0  0  0  0  0  0  0  0  0  0
   60.8800   33.1940   46.5990 S   0  0  0  0  0  0  0  0  0  0  0  0
   59.1940   30.5380   45.7530 C   0  0  0  0  0  0  0  0  0  0  0  0
   59.4720   29.1730   45.6490 C   0  0  0  0  0  0  0  0  0  0  0  0
   57.1370   25.1610   44.2890 C   0  0  0  0  0  0  0  0  0  0  0  0
   57.7300   24.9900   43.1850 O   0  0  0  0  0  0  0  0  0  0  0  0
   56.7858   21.9790   44.2890 H   0  0  0  0  0  0  0  0  0  0  0  0
   55.9447   21.5755   42.7539 H   0  0  0  0  0  0  0  0  0  0  0  0
   57.2940   22.7612   42.7539 H   0  0  0  0  0  0  0  0  0  0  0  0
   55.2488   24.0317   42.6249 H   0  0  0  0  0  0  0  0  0  0  0  0
   54.5094   23.0802   43.9674 H   0  0  0  0  0  0  0  0  0  0  0  0
   59.6554   26.5700   45.6296 H   0  0  0  0  0  0  0  0  0  0  0  0
   59.1935   26.6064   43.8871 H   0  0  0  0  0  0  0  0  0  0  0  0
   56.6488   28.1557   44.0137 H   0  0  0  0  0  0  0  0  0  0  0  0
   56.1326   30.5769   44.2262 H   0  0  0  0  0  0  0  0  0  0  0  0
   57.2270   34.1080   44.0940 H   0  0  0  0  0  0  0  0  0  0  0  0
   58.2956   31.6568   43.0950 H   0  0  0  0  0  0  0  0  0  0  0  0
   57.1931   32.8626   42.3485 H   0  0  0  0  0  0  0  0  0  0  0  0
   58.9668   33.1464   42.3485 H   0  0  0  0  0  0  0  0  0  0  0  0
   60.0624   33.8190   43.9083 H   0  0  0  0  0  0  0  0  0  0  0  0
   59.0126   35.2645   44.2924 H   0  0  0  0  0  0  0  0  0  0  0  0
   58.2382   35.5692   46.8794 H   0  0  0  0  0  0  0  0  0  0  0  0
   59.2969   35.0376   49.1990 H   0  0  0  0  0  0  0  0  0  0  0  0
   61.2716   33.2990   49.0566 H   0  0  0  0  0  0  0  0  0  0  0  0
   59.9175   31.2065   46.2426 H   0  0  0  0  0  0  0  0  0  0  0  0
   60.4083   28.7733   46.0657 H   0  0  0  0  0  0  0  0  0  0  0  0
  1  2  1  0
  2  3  1  0
  3  4  1  0
  4  5  2  0
  4  6  1  0
  6  7  1  0
  7  8  2  0
  7  9  1  0
  9 10  1  0
 10 11  1  0
 11 12  2  0
 12 13  1  0
 13 14  2  0
 14 15  1  0
 15 16  2  0
 15 17  1  0
 17 18  1  0
 17 19  1  0
 19 20  1  0
 20 21  2  0
 21 22  1  0
 22 23  2  0
 23 24  1  0
 14 25  1  0
 25 26  2  0
  9 27  1  0
 27 28  2  0
 27  3  1  0
 26 11  1  0
 24 20  1  0
  1 29  1  0
  1 30  1  0
  1 31  1  0
  2 32  1  0
  2 33  1  0
 10 34  1  0
 10 35  1  0
 12 36  1  0
 13 37  1  0
 17 38  1  6
 18 39  1  0
 18 40  1  0
 18 41  1  0
 19 42  1  0
 19 43  1  0
 21 44  1  0
 22 45  1  0
 23 46  1  0
 25 47  1  0
 26 48  1  0
M  CHG  2   6  -1  17   1
M  END
>  <UniqueID>  (11) 
11

>  <SMILES>  (11) 
CCn1c(=O)[n-]c(=O)n(Cc2ccc(C(=O)[N@H+](C)Cc3cccs3)cc2)c1=O

>  <Energy>  (11) 
86.77951963522983

>  <Genealogy>  (11) 
CCn1c(=O)[n-]c(=O)n(Cc2ccc(C(=O)[NH+](C)Cc3cccs3)cc2)c1=O (protonated)
CCn1c(=O)[n-]c(=O)n(Cc2ccc(C(=O)[N@H+](C)Cc3cccs3)cc2)c1=O (chirality)
CCn1c(=O)[n-]c(=O)n(Cc2ccc(C(=O)[N@H+](C)Cc3cccs3)cc2)c1=O (3D coordinates assigned)
CCn1c(=O)[n-]c(=O)n(Cc2ccc(C(=O)[N@H+](C)Cc3cccs3)cc2)c1=O (optimized conformer: 86.77951963522983 kcal/mol)

>  <smiles>  (11) 
CCn1c(=O)[nH]c(=O)n(Cc2ccc(C(=O)N(C)Cc3cccs3)cc2)c1=O

>  <score_type>  (11) 
oracle

>  <origin>  (11) 
adg

>  <m_score__min__energy>  (11) 
-7.9400000000000004

>  <m_primary>  (11) 
energy

$$$$
11:0
     RDKit          3D

 56 58  0  0  1  0  0  0  0  0999 V2000
   57.0040   27.8960   45.5520 C   0  0  0  0  0  0  0  0  0  0  0  0
   57.1700   28.7400   44.5160 C   0  0  0  0  0  0  0  0  0  0  0  0
   56.1060   29.7190   44.1300 C   0  0  0  0  0  0  0  0  0  0  0  0
   56.4240   31.0490   44.5530 N   0  0  0  0  0  0  0  0  0  0  0  0
   57.3790   31.7280   43.7010 C   0  0  0  0  0  0  0  0  0  0  0  0
   57.9860   32.9230   44.4030 C   0  0  0  0  0  0  0  0  0  0  0  0
   57.5330   32.8460   45.7830 N   0  0  0  0  0  0  0  0  0  0  0  0
   58.2640   32.3580   46.7290 C   0  0  0  0  0  0  0  0  0  0  0  0
   58.7930   31.0770   46.6060 C   0  0  0  0  0  0  0  0  0  0  0  0
   59.5910   30.5170   47.6140 C   0  0  0  0  0  0  0  0  0  0  0  0
   60.0180   29.1600   47.4190 C   0  0  0  0  0  0  0  0  0  0  0  0
   60.1030   28.6880   46.1060 C   0  0  0  0  0  0  0  0  0  0  0  0
   60.4060   27.3970   45.7690 C   0  0  0  0  0  0  0  0  0  0  0  0
   60.6500   26.4770   46.7470 C   0  0  0  0  0  0  0  0  0  0  0  0
   60.5780   26.9030   48.0520 C   0  0  0  0  0  0  0  0  0  0  0  0
   60.2660   28.2270   48.4030 C   0  0  0  0  0  0  0  0  0  0  0  0
   60.2450   28.5270   49.8420 C   0  0  0  0  0  0  0  0  0  0  0  0
   61.2630   29.4490   50.1130 O   0  0  0  0  0  0  0  0  0  0  0  0
   59.7820   31.3150   48.6630 N   0  0  0  0  0  0  0  0  0  0  0  0
   59.2590   32.5660   48.7730 C   0  0  0  0  0  0  0  0  0  0  0  0
   59.5090   33.2390   49.8280 N   0  0  0  0  0  0  0  0  0  0  0  0
   60.7770   33.8640   50.1010 C   0  0  0  0  0  0  0  0  0  0  0  0
   61.8160   33.4680   49.0830 C   0  0  0  0  0  0  0  0  0  0  0  0
   62.7880   32.5350   49.3520 C   0  0  0  0  0  0  0  0  0  0  0  0
   63.7030   32.2320   48.3640 C   0  0  0  0  0  0  0  0  0  0  0  0
   63.6920   32.8180   47.1150 C   0  0  0  0  0  0  0  0  0  0  0  0
   62.7000   33.7530   46.8750 C   0  0  0  0  0  0  0  0  0  0  0  0
   61.7650   34.0890   47.8300 C   0  0  0  0  0  0  0  0  0  0  0  0
   58.4990   33.0980   47.8120 N   0  0  0  0  0  0  0  0  0  0  0  0
   57.8013   27.1855   45.8158 H   0  0  0  0  0  0  0  0  0  0  0  0
   56.0711   27.9170   46.1345 H   0  0  0  0  0  0  0  0  0  0  0  0
   58.1074   28.7092   43.9413 H   0  0  0  0  0  0  0  0  0  0  0  0
   55.9957   29.7109   43.0356 H   0  0  0  0  0  0  0  0  0  0  0  0
   55.1710   29.4186   44.6256 H   0  0  0  0  0  0  0  0  0  0  0  0
   56.6530   31.1220   45.5560 H   0  0  0  0  0  0  0  0  0  0  0  0
   58.1810   31.0256   43.4301 H   0  0  0  0  0  0  0  0  0  0  0  0
   56.8534   32.0822   42.8020 H   0  0  0  0  0  0  0  0  0  0  0  0
   59.0841   32.8767   44.3574 H   0  0  0  0  0  0  0  0  0  0  0  0
   57.6810   33.8679   43.9295 H   0  0  0  0  0  0  0  0  0  0  0  0
   58.5809   30.4914   45.6993 H   0  0  0  0  0  0  0  0  0  0  0  0
   59.9139   29.4012   45.2902 H   0  0  0  0  0  0  0  0  0  0  0  0
   60.4529   27.1009   44.7106 H   0  0  0  0  0  0  0  0  0  0  0  0
   60.8952   25.4334   46.5002 H   0  0  0  0  0  0  0  0  0  0  0  0
   60.7728   26.1768   48.8550 H   0  0  0  0  0  0  0  0  0  0  0  0
   59.2708   28.9565   50.1184 H   0  0  0  0  0  0  0  0  0  0  0  0
   60.4021   27.6067   50.4237 H   0  0  0  0  0  0  0  0  0  0  0  0
   61.8670   29.0200   50.7620 H   0  0  0  0  0  0  0  0  0  0  0  0
   60.3660   31.0100   49.4300 H   0  0  0  0  0  0  0  0  0  0  0  0
   60.6502   34.9564   50.0766 H   0  0  0  0  0  0  0  0  0  0  0  0
   61.1198   33.5329   51.0924 H   0  0  0  0  0  0  0  0  0  0  0  0
   62.8360   32.0403   50.3333 H   0  0  0  0  0  0  0  0  0  0  0  0
   64.4804   31.4854   48.5836 H   0  0  0  0  0  0  0  0  0  0  0  0
   64.4350   32.5551   46.3477 H   0  0  0  0  0  0  0  0  0  0  0  0
   62.6566   34.2432   45.8912 H   0  0  0  0  0  0  0  0  0  0  0  0
   60.9882   34.8361   47.6101 H   0  0  0  0  0  0  0  0  0  0  0  0
   58.0800   34.0460   47.8520 H   0  0  0  0  0  0  0  0  0  0  0  0
  1  2  2  0
  2  3  1  0
  3  4  1  0
  4  5  1  0
  5  6  1  0
  6  7  1  0
  7  8  2  0
  8  9  1  0
  9 10  2  0
 10 11  1  0
 11 12  2  0
 12 13  1  0
 13 14  2  0
 14 15  1  0
 15 16  2  0
 16 17  1  0
 17 18  1  0
 10 19  1  0
 19 20  1  0
 20 21  2  0
 21 22  1  0
 22 23  1  0
 23 24  2  0
 24 25  1  0
 25 26  2  0
 26 27  1  0
 27 28  2  0
 20 29  1  0
 29  8  1  0
 16 11  1  0
 28 23  1  0
  1 30  1  0
  1 31  1  0
  2 32  1  0
  3 33  1  0
  3 34  1  0
  4 35  1  0
  5 36  1  0
  5 37  1  0
  6 38  1  0
  6 39  1  0
  9 40  1  0
 12 41  1  0
 13 42  1  0
 14 43  1  0
 15 44  1  0
 17 45  1  0
 17 46  1  0
 18 47  1  0
 19 48  1  0
 22 49  1  0
 22 50  1  0
 24 51  1  0
 25 52  1  0
 26 53  1  0
 27 54  1  0
 28 55  1  0
 29 56  1  0
M  END
>  <smiles>  (12) 
C=CCNCCN=c1cc(-c2ccccc2CO)[nH]c(=NCc2ccccc2)[nH]1

>  <score_type>  (12) 
oracle

>  <origin>  (12) 
adg

>  <m_score__min__energy>  (12) 
-8.4499999999999993

>  <m_primary>  (12) 
energy

$$$$
12:0
     RDKit          3D

 43 45  0  0  0  0  0  0  0  0999 V2000
   59.1590   30.2480   48.0250 C   0  0  0  0  0  0  0  0  0  0  0  0
   58.5610   30.5840   46.8710 C   0  0  0  0  0  0  0  0  0  0  0  0
   58.3730   29.7560   45.7520 C   0  0  0  0  0  0  0  0  0  0  0  0
   58.5370   28.4280   45.5940 C   0  0  0  0  0  0  0  0  0  0  0  0
   57.5020   27.4050   45.8130 C   0  0  0  0  0  0  0  0  0  0  0  0
   57.6990   26.2160   46.4100 N   0  0  0  0  0  0  0  0  0  0  0  0
   56.4650   25.6860   46.5260 C   0  0  0  0  0  0  0  0  0  0  0  0
   56.2490   24.5580   47.0410 O   0  0  0  0  0  0  0  0  0  0  0  0
   55.4780   26.4790   46.0550 N   0  0  0  0  0  0  0  0  0  0  0  0
   56.1490   27.5640   45.6240 C   0  0  0  0  0  0  0  0  0  0  0  0
   55.5350   28.6830   45.0740 O   0  0  0  0  0  0  0  0  0  0  0  0
   57.9410   30.5800   44.7290 C   0  0  0  0  0  0  0  0  0  0  0  0
   57.8090   31.8450   45.2600 C   0  0  0  0  0  0  0  0  0  0  0  0
   57.3780   33.0460   44.4710 C   0  0  0  0  0  0  0  0  0  0  0  0
   58.1750   31.8530   46.5640 N   0  0  0  0  0  0  0  0  0  0  0  0
   58.2680   33.0470   47.4210 C   0  0  0  0  0  0  0  0  0  0  0  0
   59.3540   33.9600   46.9210 C   0  0  0  0  0  0  0  0  0  0  0  0
   59.0440   34.9330   46.1820 O   0  0  0  0  0  0  0  0  0  0  0  0
   60.7590   33.7920   47.3480 C   0  0  0  0  0  0  0  0  0  0  0  0
   61.7770   33.6650   46.3850 C   0  0  0  0  0  0  0  0  0  0  0  0
   63.1060   33.5000   46.7770 C   0  0  0  0  0  0  0  0  0  0  0  0
   63.4350   33.4650   48.1320 C   0  0  0  0  0  0  0  0  0  0  0  0
   62.4380   33.5950   49.0990 C   0  0  0  0  0  0  0  0  0  0  0  0
   61.0910   33.7580   48.7200 C   0  0  0  0  0  0  0  0  0  0  0  0
   60.0620   33.8700   49.6710 O   0  0  0  0  0  0  0  0  0  0  0  0
   60.1940   33.5300   51.0480 C   0  0  0  0  0  0  0  0  0  0  0  0
   59.2472   30.9876   48.8345 H   0  0  0  0  0  0  0  0  0  0  0  0
   59.5608   29.2331   48.1611 H   0  0  0  0  0  0  0  0  0  0  0  0
   59.5297   28.0785   45.2739 H   0  0  0  0  0  0  0  0  0  0  0  0
   58.6000   25.8080   46.7470 H   0  0  0  0  0  0  0  0  0  0  0  0
   57.7408   30.2824   43.6891 H   0  0  0  0  0  0  0  0  0  0  0  0
   57.0884   33.8529   45.1602 H   0  0  0  0  0  0  0  0  0  0  0  0
   58.2101   33.3862   43.8371 H   0  0  0  0  0  0  0  0  0  0  0  0
   56.5194   32.7795   43.8371 H   0  0  0  0  0  0  0  0  0  0  0  0
   57.3070   33.5820   47.4048 H   0  0  0  0  0  0  0  0  0  0  0  0
   58.5056   32.7345   48.4486 H   0  0  0  0  0  0  0  0  0  0  0  0
   61.5233   33.6960   45.3151 H   0  0  0  0  0  0  0  0  0  0  0  0
   63.8946   33.3975   46.0170 H   0  0  0  0  0  0  0  0  0  0  0  0
   64.4832   33.3346   48.4389 H   0  0  0  0  0  0  0  0  0  0  0  0
   62.7057   33.5700   50.1656 H   0  0  0  0  0  0  0  0  0  0  0  0
   59.8651   34.3770   51.6680 H   0  0  0  0  0  0  0  0  0  0  0  0
   59.5721   32.6501   51.2697 H   0  0  0  0  0  0  0  0  0  0  0  0
   61.2467   33.3003   51.2697 H   0  0  0  0  0  0  0  0  0  0  0  0
  1  2  2  0
  2  3  1  0
  3  4  2  3
  4  5  1  0
  5  6  1  0
  6  7  1  0
  7  8  2  0
  7  9  1  0
  9 10  1  0
 10 11  1  0
  3 12  1  0
 12 13  2  0
 13 14  1  0
 13 15  1  0
 15 16  1  0
 16 17  1  0
 17 18  2  0
 17 19  1  0
 19 20  2  0
 20 21  1  0
 21 22  2  0
 22 23  1  0
 23 24  2  0
 24 25  1  0
 25 26  1  0
 15  2  1  0
 24 19  1  0
 10  5  2  0
  1 27  1  0
  1 28  1  0
  4 29  1  0
  6 30  1  0
 12 31  1  0
 14 32  1  0
 14 33  1  0
 14 34  1  0
 16 35  1  0
 16 36  1  0
 20 37  1  0
 21 38  1  0
 22 39  1  0
 23 40  1  0
 26 41  1  0
 26 42  1  0
 26 43  1  0
M  CHG  2   9  -1  11  -1
M  END
>  <UniqueID>  (13) 
12

>  <SMILES>  (13) 
C=c1c(=Cc2[nH]c(=O)[n-]c2[O-])cc(C)n1CC(=O)c1ccccc1OC

>  <Energy>  (13) 
117.59937918788326

>  <Genealogy>  (13) 
C=c1c(=Cc2[nH]c(=O)[n-]c2[O-])cc(C)n1CC(=O)c1ccccc1OC (protonated)
C=c1c(=Cc2[nH]c(=O)[n-]c2[O-])cc(C)n1CC(=O)c1ccccc1OC (3D coordinates assigned)
C=c1c(=Cc2[nH]c(=O)[n-]c2[O-])cc(C)n1CC(=O)c1ccccc1OC (optimized conformer: 117.59937918788326 kcal/mol)

>  <smiles>  (13) 
C=c1c(=Cc2[nH]c(=O)[nH]c2O)cc(C)n1CC(=O)c1ccccc1OC

>  <score_type>  (13) 
oracle

>  <origin>  (13) 
adg

>  <m_score__min__energy>  (13) 
-13.85

>  <m_primary>  (13) 
energy

$$$$
13:0
     RDKit          3D

 48 51  0  0  0  0  0  0  0  0999 V2000
   59.4950   29.7100   48.4810 C   0  0  0  0  0  0  0  0  0  0  0  0
   59.5960   31.1030   47.9160 C   0  0  0  0  0  0  0  0  0  0  0  0
   60.4620   32.0260   48.5250 C   0  0  0  0  0  0  0  0  0  0  0  0
   60.5900   33.3290   48.0080 C   0  0  0  0  0  0  0  0  0  0  0  0
   61.3730   34.2260   48.5410 N   0  0  0  0  0  0  0  0  0  0  0  0
   62.6620   34.0190   49.1410 C   0  0  0  0  0  0  0  0  0  0  0  0
   63.6520   33.3470   48.4150 C   0  0  0  0  0  0  0  0  0  0  0  0
   64.8980   33.0860   48.9930 C   0  0  0  0  0  0  0  0  0  0  0  0
   65.1540   33.4700   50.3170 C   0  0  0  0  0  0  0  0  0  0  0  0
   66.7270   33.1540   51.0450 S   0  0  0  0  0  0  0  0  0  0  0  0
   66.7900   33.8750   52.6130 N   0  0  0  0  0  0  0  0  0  0  0  0
   66.9450   31.6720   51.1620 O   0  0  0  0  0  0  0  0  0  0  0  0
   67.8140   33.7350   50.1850 O   0  0  0  0  0  0  0  0  0  0  0  0
   64.1550   34.1170   51.0550 C   0  0  0  0  0  0  0  0  0  0  0  0
   62.9100   34.3770   50.4760 C   0  0  0  0  0  0  0  0  0  0  0  0
   59.8420   33.6890   46.9330 N   0  0  0  0  0  0  0  0  0  0  0  0
   58.9880   32.8320   46.3150 C   0  0  0  0  0  0  0  0  0  0  0  0
   58.2580   33.2680   45.2060 C   0  0  0  0  0  0  0  0  0  0  0  0
   57.3860   32.3970   44.5500 C   0  0  0  0  0  0  0  0  0  0  0  0
   57.2330   31.0750   44.9940 C   0  0  0  0  0  0  0  0  0  0  0  0
   56.3160   30.1550   44.2770 C   0  0  0  0  0  0  0  0  0  0  0  0
   55.9030   30.4680   43.1290 O   0  0  0  0  0  0  0  0  0  0  0  0
   55.8440   28.9340   44.8650 N   0  0  0  0  0  0  0  0  0  0  0  0
   56.6580   27.8290   45.2870 C   0  0  0  0  0  0  0  0  0  0  0  0
   58.0330   27.8720   45.0280 C   0  0  0  0  0  0  0  0  0  0  0  0
   58.8560   26.8050   45.3980 C   0  0  0  0  0  0  0  0  0  0  0  0
   58.3130   25.6950   46.0480 C   0  0  0  0  0  0  0  0  0  0  0  0
   56.9480   25.6570   46.3430 C   0  0  0  0  0  0  0  0  0  0  0  0
   56.1190   26.7230   45.9780 C   0  0  0  0  0  0  0  0  0  0  0  0
   54.7740   26.6850   46.3290 O   0  0  0  0  0  0  0  0  0  0  0  0
   57.9440   30.6450   46.1290 C   0  0  0  0  0  0  0  0  0  0  0  0
   58.8400   31.5090   46.7890 C   0  0  0  0  0  0  0  0  0  0  0  0
   59.4985   29.7589   49.5799 H   0  0  0  0  0  0  0  0  0  0  0  0
   58.5606   29.2420   48.1378 H   0  0  0  0  0  0  0  0  0  0  0  0
   60.3521   29.1121   48.1378 H   0  0  0  0  0  0  0  0  0  0  0  0
   61.0432   31.7291   49.4105 H   0  0  0  0  0  0  0  0  0  0  0  0
   63.4486   33.0224   47.3839 H   0  0  0  0  0  0  0  0  0  0  0  0
   65.6790   32.5784   48.4079 H   0  0  0  0  0  0  0  0  0  0  0  0
   67.6610   33.5280   53.0740 H   0  0  0  0  0  0  0  0  0  0  0  0
   64.3509   34.4215   52.0937 H   0  0  0  0  0  0  0  0  0  0  0  0
   62.1213   34.8639   51.0683 H   0  0  0  0  0  0  0  0  0  0  0  0
   58.3709   34.3021   44.8483 H   0  0  0  0  0  0  0  0  0  0  0  0
   56.8148   32.7499   43.6787 H   0  0  0  0  0  0  0  0  0  0  0  0
   58.4683   28.7510   44.5302 H   0  0  0  0  0  0  0  0  0  0  0  0
   59.9330   26.8396   45.1769 H   0  0  0  0  0  0  0  0  0  0  0  0
   58.9599   24.8505   46.3278 H   0  0  0  0  0  0  0  0  0  0  0  0
   56.5237   24.7860   46.8640 H   0  0  0  0  0  0  0  0  0  0  0  0
   57.7987   29.6218   46.5058 H   0  0  0  0  0  0  0  0  0  0  0  0
  1  2  1  0
  2  3  2  0
  3  4  1  0
  4  5  2  3
  5  6  1  0
  6  7  2  0
  7  8  1  0
  8  9  2  0
  9 10  1  0
 10 11  1  0
 10 12  2  0
 10 13  2  0
  9 14  1  0
 14 15  2  0
  4 16  1  0
 16 17  1  0
 17 18  2  0
 18 19  1  0
 19 20  2  0
 20 21  1  0
 21 22  2  0
 21 23  1  0
 23 24  1  0
 24 25  2  0
 25 26  1  0
 26 27  2  0
 27 28  1  0
 28 29  2  0
 29 30  1  0
 20 31  1  0
 31 32  2  0
 32  2  1  0
 15  6  1  0
 32 17  1  0
 29 24  1  0
  1 33  1  0
  1 34  1  0
  1 35  1  0
  3 36  1  0
  7 37  1  0
  8 38  1  0
 11 39  1  0
 14 40  1  0
 15 41  1  0
 18 42  1  0
 19 43  1  0
 25 44  1  0
 26 45  1  0
 27 46  1  0
 28 47  1  0
 31 48  1  0
M  CHG  4  11  -1  16  -1  23  -1  30  -1
M  END
>  <UniqueID>  (14) 
13

>  <SMILES>  (14) 
Cc1cc(=Nc2ccc(S([NH-])(=O)=O)cc2)[n-]c2ccc(C(=O)[N-]c3ccccc3[O-])cc12

>  <Energy>  (14) 
74.85890955657679

>  <Genealogy>  (14) 
Cc1cc(=Nc2ccc(S([NH-])(=O)=O)cc2)[n-]c2ccc(C(=O)[N-]c3ccccc3[O-])cc12 (protonated)
Cc1cc(=Nc2ccc(S([NH-])(=O)=O)cc2)[n-]c2ccc(C(=O)[N-]c3ccccc3[O-])cc12 (3D coordinates assigned)
Cc1cc(=Nc2ccc(S([NH-])(=O)=O)cc2)[n-]c2ccc(C(=O)[N-]c3ccccc3[O-])cc12 (optimized conformer: 74.85890955657679 kcal/mol)

>  <smiles>  (14) 
Cc1cc(=Nc2ccc(S(N)(=O)=O)cc2)[nH]c2ccc(C(=O)Nc3ccccc3O)cc12

>  <score_type>  (14) 
oracle

>  <origin>  (14) 
adg

>  <m_score__min__energy>  (14) 
-16.899999999999999

>  <m_primary>  (14) 
energy

$$$$
14:0
     RDKit          3D

 47 49  0  0  0  0  0  0  0  0999 V2000
   57.7870   29.4570   46.2460 H   0  0  0  0  0  0  0  0  0  0  0  0
   57.4340   28.8070   45.5530 O   0  0  0  0  0  0  0  0  0  0  0  0
   56.9490   27.5560   45.9260 C   0  0  0  0  0  0  0  0  0  0  0  0
   55.6700   27.2110   45.6180 N   0  0  0  0  0  0  0  0  0  0  0  0
   55.1670   25.9990   45.9630 C   0  0  0  0  0  0  0  0  0  0  0  0
   53.9800   25.7040   45.6720 O   0  0  0  0  0  0  0  0  0  0  0  0
   55.9470   25.1020   46.6200 N   0  0  0  0  0  0  0  0  0  0  0  0
   57.2300   25.3970   46.9500 C   0  0  0  0  0  0  0  0  0  0  0  0
   57.9340   24.5260   47.5290 O   0  0  0  0  0  0  0  0  0  0  0  0
   57.7660   26.6560   46.6260 C   0  0  0  0  0  0  0  0  0  0  0  0
   59.1650   27.0200   46.9410 C   0  0  0  0  0  0  0  0  0  0  0  0
   59.9478   26.2620   46.7907 H   0  0  0  0  0  0  0  0  0  0  0  0
   59.5290   28.2310   47.4020 C   0  0  0  0  0  0  0  0  0  0  0  0
   59.1470   28.7990   48.6110 C   0  0  0  0  0  0  0  0  0  0  0  0
   58.5197   28.3342   49.3859 H   0  0  0  0  0  0  0  0  0  0  0  0
   59.7070   30.0590   48.6510 C   0  0  0  0  0  0  0  0  0  0  0  0
   59.6030   30.9920   49.8190 C   0  0  0  0  0  0  0  0  0  0  0  0
   59.6671   30.4169   50.7545 H   0  0  0  0  0  0  0  0  0  0  0  0
   60.4254   31.7215   49.7799 H   0  0  0  0  0  0  0  0  0  0  0  0
   58.6402   31.5225   49.7799 H   0  0  0  0  0  0  0  0  0  0  0  0
   60.4190   30.2960   47.5240 N   0  0  0  0  0  0  0  0  0  0  0  0
   61.1570   31.4970   47.2340 C   0  0  0  0  0  0  0  0  0  0  0  0
   62.5480   31.5120   47.4170 C   0  0  0  0  0  0  0  0  0  0  0  0
   63.0585   30.6145   47.7964 H   0  0  0  0  0  0  0  0  0  0  0  0
   63.2890   32.6580   47.1210 C   0  0  0  0  0  0  0  0  0  0  0  0
   64.3791   32.6611   47.2684 H   0  0  0  0  0  0  0  0  0  0  0  0
   62.6470   33.8000   46.6380 C   0  0  0  0  0  0  0  0  0  0  0  0
   63.2324   34.7009   46.4021 H   0  0  0  0  0  0  0  0  0  0  0  0
   61.2630   33.8000   46.4540 C   0  0  0  0  0  0  0  0  0  0  0  0
   60.7628   34.7022   46.0722 H   0  0  0  0  0  0  0  0  0  0  0  0
   60.5050   32.6560   46.7530 C   0  0  0  0  0  0  0  0  0  0  0  0
   59.0790   32.6830   46.5780 N   0  0  0  0  0  0  0  0  0  0  0  0
   58.2150   32.9350   47.7280 C   0  0  0  0  0  0  0  0  0  0  0  0
   58.7821   32.7696   48.6559 H   0  0  0  0  0  0  0  0  0  0  0  0
   57.8575   33.9748   47.6972 H   0  0  0  0  0  0  0  0  0  0  0  0
   57.3546   32.2504   47.6972 H   0  0  0  0  0  0  0  0  0  0  0  0
   58.3780   31.9310   45.1780 S   0  0  0  0  0  0  0  0  0  0  0  0
   57.0300   31.3720   45.5370 O   0  0  0  0  0  0  0  0  0  0  0  0
   59.2540   30.8080   44.7010 O   0  0  0  0  0  0  0  0  0  0  0  0
   58.1960   33.1220   43.8690 C   0  0  0  0  0  0  0  0  0  0  0  0
   58.0432   34.1218   44.3016 H   0  0  0  0  0  0  0  0  0  0  0  0
   59.1040   33.1260   43.2480 H   0  0  0  0  0  0  0  0  0  0  0  0
   57.3283   32.8546   43.2480 H   0  0  0  0  0  0  0  0  0  0  0  0
   60.3280   29.1810   46.7570 C   0  0  0  0  0  0  0  0  0  0  0  0
   60.9670   29.0190   45.5880 C   0  0  0  0  0  0  0  0  0  0  0  0
   61.5709   29.8394   45.1730 H   0  0  0  0  0  0  0  0  0  0  0  0
   60.8868   28.0658   45.0448 H   0  0  0  0  0  0  0  0  0  0  0  0
  1  2  1  0
  2  3  1  0
  3  4  1  0
  4  5  1  0
  5  6  2  0
  5  7  1  0
  7  8  1  0
  8  9  2  0
  8 10  1  0
 10 11  1  0
 11 12  1  0
 11 13  2  0
 13 14  1  0
 14 15  1  0
 14 16  2  0
 16 17  1  0
 17 18  1  0
 17 19  1  0
 17 20  1  0
 16 21  1  0
 21 22  1  0
 22 23  2  0
 23 24  1  0
 23 25  1  0
 25 26  1  0
 25 27  2  0
 27 28  1  0
 27 29  1  0
 29 30  1  0
 29 31  2  0
 31 32  1  0
 32 33  1  0
 33 34  1  0
 33 35  1  0
 33 36  1  0
 32 37  1  0
 37 38  2  0
 37 39  2  0
 37 40  1  0
 40 41  1  0
 40 42  1  0
 40 43  1  0
 21 44  1  0
 44 45  2  0
 45 46  1  0
 45 47  1  0
 10  3  2  0
 44 13  1  0
 31 22  1  0
M  CHG  2   4  -1   7  -1
M  END
>  <UniqueID>  (15) 
14

>  <SMILES>  (15) 
C=c1/c(=C/c2c(O)[n-]c(=O)[n-]c2=O)cc(C)n1-c1ccccc1N(C)S(C)(=O)=O

>  <Energy>  (15) 
92.52401068663104

>  <Genealogy>  (15) 
C=c1c(=Cc2c(O)[n-]c(=O)[n-]c2=O)cc(C)n1-c1ccccc1N(C)S(C)(=O)=O (protonated)
C=c1/c(=C/c2c(O)[n-]c(=O)[n-]c2=O)cc(C)n1-c1ccccc1N(C)S(C)(=O)=O (cis-trans isomerization)
C=c1/c(=C/c2c(O)[n-]c(=O)[n-]c2=O)cc(C)n1-c1ccccc1N(C)S(C)(=O)=O (3D coordinates assigned)
C=c1/c(=C/c2c(O)[n-]c(=O)[n-]c2=O)cc(C)n1-c1ccccc1N(C)S(C)(=O)=O (optimized conformer: 92.52401068663104 kcal/mol)

>  <smiles>  (15) 
C=c1c(=Cc2c(O)[nH]c(=O)[nH]c2=O)cc(C)n1-c1ccccc1N(C)S(C)(=O)=O

>  <score_type>  (15) 
oracle

>  <origin>  (15) 
adg

>  <m_score__min__energy>  (15) 
-13.369999999999999

>  <m_primary>  (15) 
energy

$$$$
15:0
     RDKit          3D

 41 42  0  0  0  0  0  0  0  0999 V2000
   63.0520   33.8600   46.6280 C   0  0  0  0  0  0  0  0  0  0  0  0
   62.7820   33.2120   47.9900 C   0  0  0  0  0  0  0  0  0  0  0  0
   64.0810   33.0710   48.7930 C   0  0  0  0  0  0  0  0  0  0  0  0
   61.7660   34.0210   48.7500 C   0  0  0  0  0  0  0  0  0  0  0  0
   62.0160   34.3850   49.9320 O   0  0  0  0  0  0  0  0  0  0  0  0
   60.5280   34.3850   48.1220 N   0  0  0  0  0  0  0  0  0  0  0  0
   59.8200   33.6080   47.1480 C   0  0  0  0  0  0  0  0  0  0  0  0
   59.2350   32.3990   47.5470 C   0  0  0  0  0  0  0  0  0  0  0  0
   58.4990   31.6360   46.6370 C   0  0  0  0  0  0  0  0  0  0  0  0
   58.3170   32.0870   45.3230 C   0  0  0  0  0  0  0  0  0  0  0  0
   57.3120   31.1550   44.2180 S   0  0  0  0  0  0  0  0  0  0  0  0
   57.6190   31.5830   42.8110 O   0  0  0  0  0  0  0  0  0  0  0  0
   55.8550   31.4070   44.4920 O   0  0  0  0  0  0  0  0  0  0  0  0
   57.6610   29.4550   44.3830 N   0  0  0  0  0  0  0  0  0  0  0  0
   56.5950   28.7500   45.0990 C   0  0  0  0  0  0  0  0  0  0  0  0
   57.0640   27.4030   45.5950 C   0  0  0  0  0  0  0  0  0  0  0  0
   58.4370   27.1040   45.6190 C   0  0  0  0  0  0  0  0  0  0  0  0
   58.8790   25.8440   46.0340 C   0  0  0  0  0  0  0  0  0  0  0  0
   57.9560   24.8740   46.4330 C   0  0  0  0  0  0  0  0  0  0  0  0
   56.5900   25.1670   46.4300 C   0  0  0  0  0  0  0  0  0  0  0  0
   56.1380   26.4260   46.0160 C   0  0  0  0  0  0  0  0  0  0  0  0
   54.7740   26.6960   46.0160 O   0  0  0  0  0  0  0  0  0  0  0  0
   58.8930   33.3010   44.9200 C   0  0  0  0  0  0  0  0  0  0  0  0
   59.6370   34.0600   45.8290 C   0  0  0  0  0  0  0  0  0  0  0  0
   63.4712   34.8660   46.7772 H   0  0  0  0  0  0  0  0  0  0  0  0
   63.7684   33.2442   46.0645 H   0  0  0  0  0  0  0  0  0  0  0  0
   62.1103   33.9350   46.0645 H   0  0  0  0  0  0  0  0  0  0  0  0
   62.3774   32.2021   47.8275 H   0  0  0  0  0  0  0  0  0  0  0  0
   63.8517   33.0959   49.8686 H   0  0  0  0  0  0  0  0  0  0  0  0
   64.5646   32.1151   48.5432 H   0  0  0  0  0  0  0  0  0  0  0  0
   64.7584   33.9009   48.5432 H   0  0  0  0  0  0  0  0  0  0  0  0
   59.3559   32.0485   48.5827 H   0  0  0  0  0  0  0  0  0  0  0  0
   58.0609   30.6779   46.9532 H   0  0  0  0  0  0  0  0  0  0  0  0
   56.2784   29.3581   45.9592 H   0  0  0  0  0  0  0  0  0  0  0  0
   55.7568   28.5913   44.4046 H   0  0  0  0  0  0  0  0  0  0  0  0
   59.1680   27.8655   45.3096 H   0  0  0  0  0  0  0  0  0  0  0  0
   59.9551   25.6161   46.0464 H   0  0  0  0  0  0  0  0  0  0  0  0
   58.3047   23.8799   46.7494 H   0  0  0  0  0  0  0  0  0  0  0  0
   55.8660   24.4050   46.7544 H   0  0  0  0  0  0  0  0  0  0  0  0
   58.7593   33.6564   43.8876 H   0  0  0  0  0  0  0  0  0  0  0  0
   60.0810   35.0148   45.5108 H   0  0  0  0  0  0  0  0  0  0  0  0
  1  2  1  0
  2  3  1  0
  2  4  1  0
  4  5  2  0
  4  6  1  0
  6  7  1  0
  7  8  2  0
  8  9  1  0
  9 10  2  0
 10 11  1  0
 11 12  2  0
 11 13  2  0
 11 14  1  0
 14 15  1  0
 15 16  1  0
 16 17  2  0
 17 18  1  0
 18 19  2  0
 19 20  1  0
 20 21  2  0
 21 22  1  0
 10 23  1  0
 23 24  2  0
 24  7  1  0
 21 16  1  0
  1 25  1  0
  1 26  1  0
  1 27  1  0
  2 28  1  0
  3 29  1  0
  3 30  1  0
  3 31  1  0
  8 32  1  0
  9 33  1  0
 15 34  1  0
 15 35  1  0
 17 36  1  0
 18 37  1  0
 19 38  1  0
 20 39  1  0
 23 40  1  0
 24 41  1  0
M  CHG  3   6  -1  14  -1  22  -1
M  END
>  <UniqueID>  (16) 
15

>  <SMILES>  (16) 
CC(C)C(=O)[N-]c1ccc(S(=O)(=O)[N-]Cc2ccccc2[O-])cc1

>  <Energy>  (16) 
35.78494476303847

>  <Genealogy>  (16) 
CC(C)C(=O)[N-]c1ccc(S(=O)(=O)[N-]Cc2ccccc2[O-])cc1 (protonated)
CC(C)C(=O)[N-]c1ccc(S(=O)(=O)[N-]Cc2ccccc2[O-])cc1 (3D coordinates assigned)
CC(C)C(=O)[N-]c1ccc(S(=O)(=O)[N-]Cc2ccccc2[O-])cc1 (optimized conformer: 35.78494476303847 kcal/mol)

>  <smiles>  (16) 
CC(C)C(=O)Nc1ccc(S(=O)(=O)NCc2ccccc2O)cc1

>  <score_type>  (16) 
oracle

>  <origin>  (16) 
adg

>  <m_score__min__energy>  (16) 
-14.369999999999999

>  <m_primary>  (16) 
energy

$$$$
16:0
     RDKit          3D

 46 48  0  0  0  0  0  0  0  0999 V2000
   57.4310   31.5196   40.9877 H   0  0  0  0  0  0  0  0  0  0  0  0
   57.4080   31.6070   42.0840 C   0  0  0  0  0  0  0  0  0  0  0  0
   56.8130   30.6400   42.8290 N   0  0  0  0  0  0  0  0  0  0  0  0
   56.7430   30.7170   44.1890 C   0  0  0  0  0  0  0  0  0  0  0  0
   56.2130   29.7570   44.8830 N   0  0  0  0  0  0  0  0  0  0  0  0
   57.0100   28.2450   45.1870 S   0  0  0  0  0  0  0  0  0  0  0  0
   56.0040   27.2430   45.6740 O   0  0  0  0  0  0  0  0  0  0  0  0
   57.6250   27.7490   43.9090 O   0  0  0  0  0  0  0  0  0  0  0  0
   58.2450   28.4710   46.4220 C   0  0  0  0  0  0  0  0  0  0  0  0
   58.8060   29.7350   46.6440 C   0  0  0  0  0  0  0  0  0  0  0  0
   58.4963   30.5892   46.0240 H   0  0  0  0  0  0  0  0  0  0  0  0
   59.7590   29.9140   47.6520 C   0  0  0  0  0  0  0  0  0  0  0  0
   60.1939   30.9101   47.8210 H   0  0  0  0  0  0  0  0  0  0  0  0
   60.1640   28.8350   48.4480 C   0  0  0  0  0  0  0  0  0  0  0  0
   61.1320   29.0670   49.4790 N   0  0  0  0  0  0  0  0  0  0  0  0
   61.1010   30.3930   50.5950 S   0  0  0  0  0  0  0  0  0  0  0  0
   62.3910   31.1590   50.5150 O   0  0  0  0  0  0  0  0  0  0  0  0
   59.9440   31.3000   50.2800 O   0  0  0  0  0  0  0  0  0  0  0  0
   60.9070   29.7550   52.2430 C   0  0  0  0  0  0  0  0  0  0  0  0
   61.1467   30.5432   52.9719 H   0  0  0  0  0  0  0  0  0  0  0  0
   59.8678   29.4248   52.3884 H   0  0  0  0  0  0  0  0  0  0  0  0
   61.5864   28.9022   52.3884 H   0  0  0  0  0  0  0  0  0  0  0  0
   59.6090   27.5640   48.2150 C   0  0  0  0  0  0  0  0  0  0  0  0
   59.9243   26.7075   48.8289 H   0  0  0  0  0  0  0  0  0  0  0  0
   58.6580   27.3850   47.2060 C   0  0  0  0  0  0  0  0  0  0  0  0
   58.2318   26.3870   47.0265 H   0  0  0  0  0  0  0  0  0  0  0  0
   57.2910   31.8230   44.8480 C   0  0  0  0  0  0  0  0  0  0  0  0
   57.2118   31.9109   45.9416 H   0  0  0  0  0  0  0  0  0  0  0  0
   57.9420   32.8190   44.1050 C   0  0  0  0  0  0  0  0  0  0  0  0
   58.6730   33.9320   44.8070 C   0  0  0  0  0  0  0  0  0  0  0  0
   59.7551   33.7452   44.7430 H   0  0  0  0  0  0  0  0  0  0  0  0
   58.4100   34.8810   44.3168 H   0  0  0  0  0  0  0  0  0  0  0  0
   58.1910   34.0430   46.5720 S   0  0  0  0  0  0  0  0  0  0  0  0
   59.8570   33.8700   47.2250 C   0  0  0  0  0  0  0  0  0  0  0  0
   60.0910   34.0300   48.5980 C   0  0  0  0  0  0  0  0  0  0  0  0
   59.2598   34.2915   49.2694 H   0  0  0  0  0  0  0  0  0  0  0  0
   61.3780   33.8580   49.1160 C   0  0  0  0  0  0  0  0  0  0  0  0
   61.5567   33.9734   50.1952 H   0  0  0  0  0  0  0  0  0  0  0  0
   62.4390   33.5390   48.2610 C   0  0  0  0  0  0  0  0  0  0  0  0
   64.0520   33.3150   48.9130 Cl  0  0  0  0  0  0  0  0  0  0  0  0
   62.2110   33.3960   46.8870 C   0  0  0  0  0  0  0  0  0  0  0  0
   63.0461   33.1512   46.2142 H   0  0  0  0  0  0  0  0  0  0  0  0
   60.9230   33.5640   46.3690 C   0  0  0  0  0  0  0  0  0  0  0  0
   60.7467   33.4558   45.2886 H   0  0  0  0  0  0  0  0  0  0  0  0
   57.9900   32.7110   42.7070 C   0  0  0  0  0  0  0  0  0  0  0  0
   58.4825   33.4905   42.1072 H   0  0  0  0  0  0  0  0  0  0  0  0
  1  2  1  0
  2  3  1  0
  3  4  1  0
  4  5  2  0
  5  6  1  0
  6  7  2  0
  6  8  2  0
  6  9  1  0
  9 10  2  0
 10 11  1  0
 10 12  1  0
 12 13  1  0
 12 14  2  0
 14 15  1  0
 15 16  1  0
 16 17  2  0
 16 18  2  0
 16 19  1  0
 19 20  1  0
 19 21  1  0
 19 22  1  0
 14 23  1  0
 23 24  1  0
 23 25  2  0
 25 26  1  0
  4 27  1  0
 27 28  1  0
 27 29  2  0
 29 30  1  0
 30 31  1  0
 30 32  1  0
 30 33  1  0
 33 34  1  0
 34 35  2  0
 35 36  1  0
 35 37  1  0
 37 38  1  0
 37 39  2  0
 39 40  1  0
 39 41  1  0
 41 42  1  0
 41 43  2  0
 43 44  1  0
 29 45  1  0
 45 46  1  0
 45  2  2  0
 25  9  1  0
 43 34  1  0
M  CHG  2   3  -1  15  -1
M  END
>  <UniqueID>  (17) 
16

>  <SMILES>  (17) 
CS(=O)(=O)[N-]c1ccc(S(=O)(=O)/N=c2/cc(CSc3ccc(Cl)cc3)cc[n-]2)cc1

>  <Energy>  (17) 
43.9679539225516

>  <Genealogy>  (17) 
CS(=O)(=O)[N-]c1ccc(S(=O)(=O)N=c2cc(CSc3ccc(Cl)cc3)cc[n-]2)cc1 (protonated)
CS(=O)(=O)[N-]c1ccc(S(=O)(=O)/N=c2/cc(CSc3ccc(Cl)cc3)cc[n-]2)cc1 (cis-trans isomerization)
CS(=O)(=O)[N-]c1ccc(S(=O)(=O)/N=c2/cc(CSc3ccc(Cl)cc3)cc[n-]2)cc1 (3D coordinates assigned)
CS(=O)(=O)[N-]c1ccc(S(=O)(=O)/N=c2/cc(CSc3ccc(Cl)cc3)cc[n-]2)cc1 (optimized conformer: 43.9679539225516 kcal/mol)

>  <smiles>  (17) 
CS(=O)(=O)Nc1ccc(S(=O)(=O)N=c2cc(CSc3ccc(Cl)cc3)cc[nH]2)cc1

>  <score_type>  (17) 
oracle

>  <origin>  (17) 
adg

>  <m_score__min__energy>  (17) 
-12.32

>  <m_primary>  (17) 
energy

$$$$
17:0
     RDKit          3D

 37 39  0  0  0  0  0  0  0  0999 V2000
   58.8528   35.0152   44.3839 H   0  0  0  0  0  0  0  0  0  0  0  0
   58.5340   34.0100   44.6970 C   0  0  0  0  0  0  0  0  0  0  0  0
   58.5550   33.6500   46.0500 C   0  0  0  0  0  0  0  0  0  0  0  0
   59.0180   34.6230   47.0860 C   0  0  0  0  0  0  0  0  0  0  0  0
   58.8227   34.2126   48.0877 H   0  0  0  0  0  0  0  0  0  0  0  0
   60.0970   34.8003   46.9663 H   0  0  0  0  0  0  0  0  0  0  0  0
   58.4750   35.5721   46.9663 H   0  0  0  0  0  0  0  0  0  0  0  0
   58.1480   32.4060   46.4220 N   0  0  0  0  0  0  0  0  0  0  0  0
   57.7200   31.4780   45.5190 C   0  0  0  0  0  0  0  0  0  0  0  0
   57.3530   30.2840   45.8880 N   0  0  0  0  0  0  0  0  0  0  0  0
   56.6930   29.2600   45.1200 C   0  0  0  0  0  0  0  0  0  0  0  0
   55.4630   29.3930   44.8820 O   0  0  0  0  0  0  0  0  0  0  0  0
   57.3800   28.0120   44.6460 C   0  0  0  0  0  0  0  0  0  0  0  0
   56.8422   27.6053   43.7768 H   0  0  0  0  0  0  0  0  0  0  0  0
   58.4149   28.2503   44.3592 H   0  0  0  0  0  0  0  0  0  0  0  0
   57.3890   27.0230   45.7180 N   0  0  0  0  0  0  0  0  0  0  0  0
   56.3160   26.1220   46.0130 C   0  0  0  0  0  0  0  0  0  0  0  0
   55.1400   26.5740   46.0400 O   0  0  0  0  0  0  0  0  0  0  0  0
   56.5500   24.6810   46.2520 C   0  0  0  0  0  0  0  0  0  0  0  0
   56.7650   24.2720   47.5310 N   0  0  0  0  0  0  0  0  0  0  0  0
   57.0220   23.0020   47.8390 N   0  0  0  0  0  0  0  0  0  0  0  0
   57.0870   22.0370   46.8900 C   0  0  0  0  0  0  0  0  0  0  0  0
   57.3360   20.8500   47.2340 O   0  0  0  0  0  0  0  0  0  0  0  0
   56.8730   22.3730   45.5440 C   0  0  0  0  0  0  0  0  0  0  0  0
   56.9180   21.3980   44.5300 C   0  0  0  0  0  0  0  0  0  0  0  0
   57.1467   20.3529   44.7858 H   0  0  0  0  0  0  0  0  0  0  0  0
   56.6740   21.7500   43.2020 C   0  0  0  0  0  0  0  0  0  0  0  0
   56.7152   20.9831   42.4145 H   0  0  0  0  0  0  0  0  0  0  0  0
   56.3780   23.0720   42.8710 C   0  0  0  0  0  0  0  0  0  0  0  0
   56.1768   23.3427   41.8240 H   0  0  0  0  0  0  0  0  0  0  0  0
   56.3360   24.0530   43.8630 C   0  0  0  0  0  0  0  0  0  0  0  0
   56.1005   25.0927   43.5918 H   0  0  0  0  0  0  0  0  0  0  0  0
   56.5930   23.7230   45.2110 C   0  0  0  0  0  0  0  0  0  0  0  0
   57.7010   31.8070   44.1580 C   0  0  0  0  0  0  0  0  0  0  0  0
   57.3702   31.0667   43.4147 H   0  0  0  0  0  0  0  0  0  0  0  0
   58.1040   33.0790   43.7500 C   0  0  0  0  0  0  0  0  0  0  0  0
   58.0829   33.3478   42.6835 H   0  0  0  0  0  0  0  0  0  0  0  0
  1  2  1  0
  2  3  2  0
  3  4  1  0
  4  5  1  0
  4  6  1  0
  4  7  1  0
  3  8  1  0
  8  9  1  0
  9 10  2  0
 10 11  1  0
 11 12  2  0
 11 13  1  0
 13 14  1  0
 13 15  1  0
 13 16  1  0
 16 17  1  0
 17 18  2  0
 17 19  1  0
 19 20  2  0
 20 21  1  0
 21 22  1  0
 22 23  2  0
 22 24  1  0
 24 25  2  0
 25 26  1  0
 25 27  1  0
 27 28  1  0
 27 29  2  0
 29 30  1  0
 29 31  1  0
 31 32  1  0
 31 33  2  0
  9 34  1  0
 34 35  1  0
 34 36  2  0
 36 37  1  0
 36  2  1  0
 33 19  1  0
 33 24  1  0
M  CHG  3   8  -1  16  -1  21  -1
M  END
>  <UniqueID>  (18) 
17

>  <SMILES>  (18) 
Cc1ccc/c(=N/C(=O)C[N-]C(=O)c2n[n-]c(=O)c3ccccc23)[n-]1

>  <Energy>  (18) 
51.739065429538876

>  <Genealogy>  (18) 
Cc1cccc(=NC(=O)C[N-]C(=O)c2n[n-]c(=O)c3ccccc23)[n-]1 (protonated)
Cc1ccc/c(=N/C(=O)C[N-]C(=O)c2n[n-]c(=O)c3ccccc23)[n-]1 (cis-trans isomerization)
Cc1ccc/c(=N/C(=O)C[N-]C(=O)c2n[n-]c(=O)c3ccccc23)[n-]1 (3D coordinates assigned)
Cc1ccc/c(=N/C(=O)C[N-]C(=O)c2n[n-]c(=O)c3ccccc23)[n-]1 (optimized conformer: 51.739065429538876 kcal/mol)

>  <smiles>  (18) 
Cc1cccc(=NC(=O)CNC(=O)c2n[nH]c(=O)c3ccccc23)[nH]1

>  <score_type>  (18) 
oracle

>  <origin>  (18) 
adg

>  <m_score__min__energy>  (18) 
-14.359999999999999

>  <m_primary>  (18) 
energy

$$$$
18:0
     RDKit          3D

 57 59  0  0  0  0  0  0  0  0999 V2000
   59.1540   33.0650   49.3820 C   0  0  0  0  0  0  0  0  0  0  0  0
   60.1760   33.3670   48.3150 C   0  0  0  0  0  0  0  0  0  0  0  0
   61.5320   33.4480   48.6810 C   0  0  0  0  0  0  0  0  0  0  0  0
   62.5120   33.7230   47.7250 C   0  0  0  0  0  0  0  0  0  0  0  0
   62.1550   33.9180   46.3920 C   0  0  0  0  0  0  0  0  0  0  0  0
   60.8160   33.8420   46.0090 C   0  0  0  0  0  0  0  0  0  0  0  0
   59.8080   33.5800   46.9580 C   0  0  0  0  0  0  0  0  0  0  0  0
   58.3730   33.5400   46.4810 C   0  0  0  0  0  0  0  0  0  0  0  0
   57.7870   31.8220   46.2500 S   0  0  0  0  0  0  0  0  0  0  0  0
   57.7120   31.9230   44.4560 C   0  0  0  0  0  0  0  0  0  0  0  0
   58.3540   32.8250   43.7990 N   0  0  0  0  0  0  0  0  0  0  0  0
   58.1390   32.6710   42.3690 C   0  0  0  0  0  0  0  0  0  0  0  0
   57.2240   31.4400   42.2420 C   0  0  0  0  0  0  0  0  0  0  0  0
   56.9820   31.0360   43.6190 N   0  0  0  0  0  0  0  0  0  0  0  0
   56.0730   30.0020   44.0190 C   0  0  0  0  0  0  0  0  0  0  0  0
   55.0900   29.7190   43.2790 O   0  0  0  0  0  0  0  0  0  0  0  0
   56.2500   29.3420   45.2410 O   0  0  0  0  0  0  0  0  0  0  0  0
   57.2740   28.4250   45.5110 C   0  0  0  0  0  0  0  0  0  0  0  0
   58.6000   28.8510   45.3570 C   0  0  0  0  0  0  0  0  0  0  0  0
   59.6600   27.9960   45.6710 C   0  0  0  0  0  0  0  0  0  0  0  0
   59.4010   26.7040   46.1330 C   0  0  0  0  0  0  0  0  0  0  0  0
   58.0840   26.2570   46.2620 C   0  0  0  0  0  0  0  0  0  0  0  0
   57.0140   27.0970   45.9230 C   0  0  0  0  0  0  0  0  0  0  0  0
   55.7150   26.5870   46.0080 O   0  0  0  0  0  0  0  0  0  0  0  0
   55.3770   25.2580   45.6180 C   0  0  0  0  0  0  0  0  0  0  0  0
   56.3010   24.8400   44.4600 C   0  0  0  0  0  0  0  0  0  0  0  0
   56.5270   23.3820   44.3420 N   0  0  0  0  0  0  0  0  0  0  0  0
   56.2630   22.8670   42.9890 C   0  0  0  0  0  0  0  0  0  0  0  0
   57.8490   22.9620   44.8340 C   0  0  0  0  0  0  0  0  0  0  0  0
   59.6092   33.1995   50.3743 H   0  0  0  0  0  0  0  0  0  0  0  0
   58.2991   33.7489   49.2750 H   0  0  0  0  0  0  0  0  0  0  0  0
   58.8082   32.0263   49.2750 H   0  0  0  0  0  0  0  0  0  0  0  0
   61.8231   33.2932   49.7304 H   0  0  0  0  0  0  0  0  0  0  0  0
   63.5685   33.7859   48.0248 H   0  0  0  0  0  0  0  0  0  0  0  0
   62.9300   34.1320   45.6413 H   0  0  0  0  0  0  0  0  0  0  0  0
   60.5436   33.9884   44.9533 H   0  0  0  0  0  0  0  0  0  0  0  0
   57.7351   34.0375   47.2264 H   0  0  0  0  0  0  0  0  0  0  0  0
   58.3187   34.0552   45.5106 H   0  0  0  0  0  0  0  0  0  0  0  0
   58.9420   33.5670   44.2400 H   0  0  0  0  0  0  0  0  0  0  0  0
   57.6490   33.5632   41.9521 H   0  0  0  0  0  0  0  0  0  0  0  0
   59.0825   32.5471   41.8172 H   0  0  0  0  0  0  0  0  0  0  0  0
   56.2811   31.7040   41.7408 H   0  0  0  0  0  0  0  0  0  0  0  0
   57.6752   30.6381   41.6392 H   0  0  0  0  0  0  0  0  0  0  0  0
   58.8081   29.8655   44.9863 H   0  0  0  0  0  0  0  0  0  0  0  0
   60.6980   28.3407   45.5542 H   0  0  0  0  0  0  0  0  0  0  0  0
   60.2355   26.0372   46.3958 H   0  0  0  0  0  0  0  0  0  0  0  0
   57.8853   25.2402   46.6316 H   0  0  0  0  0  0  0  0  0  0  0  0
   55.5158   24.5748   46.4688 H   0  0  0  0  0  0  0  0  0  0  0  0
   54.3259   25.2149   45.2965 H   0  0  0  0  0  0  0  0  0  0  0  0
   55.8531   25.1941   43.5198 H   0  0  0  0  0  0  0  0  0  0  0  0
   57.2828   25.2898   44.6692 H   0  0  0  0  0  0  0  0  0  0  0  0
   55.7622   21.8901   43.0597 H   0  0  0  0  0  0  0  0  0  0  0  0
   55.6155   23.5727   42.4479 H   0  0  0  0  0  0  0  0  0  0  0  0
   57.2140   22.7532   42.4479 H   0  0  0  0  0  0  0  0  0  0  0  0
   57.8479   22.9623   45.9340 H   0  0  0  0  0  0  0  0  0  0  0  0
   58.0716   21.9489   44.4679 H   0  0  0  0  0  0  0  0  0  0  0  0
   58.6155   23.6609   44.4679 H   0  0  0  0  0  0  0  0  0  0  0  0
  1  2  1  0
  2  3  2  0
  3  4  1  0
  4  5  2  0
  5  6  1  0
  6  7  2  0
  7  8  1  0
  8  9  1  0
  9 10  1  0
 10 11  2  0
 11 12  1  0
 12 13  1  0
 13 14  1  0
 14 15  1  0
 15 16  2  0
 15 17  1  0
 17 18  1  0
 18 19  2  0
 19 20  1  0
 20 21  2  0
 21 22  1  0
 22 23  2  0
 23 24  1  0
 24 25  1  0
 25 26  1  0
 26 27  1  0
 27 28  1  0
 27 29  1  0
  7  2  1  0
 14 10  1  0
 23 18  1  0
  1 30  1  0
  1 31  1  0
  1 32  1  0
  3 33  1  0
  4 34  1  0
  5 35  1  0
  6 36  1  0
  8 37  1  0
  8 38  1  0
 11 39  1  0
 12 40  1  0
 12 41  1  0
 13 42  1  0
 13 43  1  0
 19 44  1  0
 20 45  1  0
 21 46  1  0
 22 47  1  0
 25 48  1  0
 25 49  1  0
 26 50  1  0
 26 51  1  0
 28 52  1  0
 28 53  1  0
 28 54  1  0
 29 55  1  0
 29 56  1  0
 29 57  1  0
M  CHG  1  11   1
M  END
>  <UniqueID>  (19) 
18

>  <SMILES>  (19) 
Cc1ccccc1CSC1=[NH+]CCN1C(=O)Oc1ccccc1OCCN(C)C

>  <Energy>  (19) 
75.19402642617578

>  <Genealogy>  (19) 
Cc1ccccc1CSC1=[NH+]CCN1C(=O)Oc1ccccc1OCCN(C)C (protonated)
Cc1ccccc1CSC1=[NH+]CCN1C(=O)Oc1ccccc1OCCN(C)C (3D coordinates assigned)
Cc1ccccc1CSC1=[NH+]CCN1C(=O)Oc1ccccc1OCCN(C)C (nonaromatic ring conformer: 75.19402642617578 kcal/mol)

>  <smiles>  (19) 
Cc1ccccc1CSC1=NCCN1C(=O)Oc1ccccc1OCCN(C)C

>  <score_type>  (19) 
oracle

>  <origin>  (19) 
adg

>  <m_score__min__energy>  (19) 
-6.9900000000000002

>  <m_primary>  (19) 
energy

$$$$
19:0
     RDKit          3D

 49 51  0  0  0  0  0  0  0  0999 V2000
   61.6410   33.7110   46.4080 C   0  0  0  0  0  0  0  0  0  0  0  0
   60.1450   33.7400   46.2180 C   0  0  0  0  0  0  0  0  0  0  0  0
   59.6020   34.5530   45.2080 C   0  0  0  0  0  0  0  0  0  0  0  0
   58.2230   34.5940   44.9940 C   0  0  0  0  0  0  0  0  0  0  0  0
   57.3690   33.8240   45.7810 C   0  0  0  0  0  0  0  0  0  0  0  0
   57.8910   33.0060   46.7850 C   0  0  0  0  0  0  0  0  0  0  0  0
   59.2780   32.9520   47.0180 C   0  0  0  0  0  0  0  0  0  0  0  0
   59.7920   32.0850   48.1430 C   0  0  0  0  0  0  0  0  0  0  0  0
   58.9060   30.4870   48.2110 S   0  0  0  0  0  0  0  0  0  0  0  0
   59.5910   29.8620   46.6700 C   0  0  0  0  0  0  0  0  0  0  0  0
   60.8480   29.6310   46.5280 N   0  0  0  0  0  0  0  0  0  0  0  0
   61.1280   29.0960   45.2050 C   0  0  0  0  0  0  0  0  0  0  0  0
   59.7580   29.0430   44.5090 C   0  0  0  0  0  0  0  0  0  0  0  0
   58.8290   29.5490   45.5110 N   0  0  0  0  0  0  0  0  0  0  0  0
   57.4190   29.7510   45.3070 C   0  0  0  0  0  0  0  0  0  0  0  0
   56.9650   30.9140   45.1280 O   0  0  0  0  0  0  0  0  0  0  0  0
   56.4840   28.5760   45.2690 C   0  0  0  0  0  0  0  0  0  0  0  0
   56.7920   27.6330   46.3390 N   0  0  0  0  0  0  0  0  0  0  0  0
   57.4850   26.3960   46.1440 C   0  0  0  0  0  0  0  0  0  0  0  0
   58.6410   26.2600   46.6230 O   0  0  0  0  0  0  0  0  0  0  0  0
   56.8730   25.2710   45.4080 C   0  0  0  0  0  0  0  0  0  0  0  0
   57.7120   24.3370   44.7740 C   0  0  0  0  0  0  0  0  0  0  0  0
   57.1680   23.2440   44.0960 C   0  0  0  0  0  0  0  0  0  0  0  0
   55.7840   23.0670   44.0480 C   0  0  0  0  0  0  0  0  0  0  0  0
   54.9390   23.9850   44.6780 C   0  0  0  0  0  0  0  0  0  0  0  0
   55.4690   25.0920   45.3610 C   0  0  0  0  0  0  0  0  0  0  0  0
   54.5720   26.0300   45.9710 N   0  0  0  0  0  0  0  0  0  0  0  0
   61.8741   33.7065   47.4830 H   0  0  0  0  0  0  0  0  0  0  0  0
   62.0526   32.8047   45.9398 H   0  0  0  0  0  0  0  0  0  0  0  0
   62.0874   34.6007   45.9398 H   0  0  0  0  0  0  0  0  0  0  0  0
   60.2694   35.1622   44.5808 H   0  0  0  0  0  0  0  0  0  0  0  0
   57.8096   35.2358   44.2021 H   0  0  0  0  0  0  0  0  0  0  0  0
   56.2828   33.8606   45.6112 H   0  0  0  0  0  0  0  0  0  0  0  0
   57.2115   32.3977   47.4000 H   0  0  0  0  0  0  0  0  0  0  0  0
   60.8639   31.8937   47.9865 H   0  0  0  0  0  0  0  0  0  0  0  0
   59.6249   32.6145   49.0926 H   0  0  0  0  0  0  0  0  0  0  0  0
   61.5640   29.7940   47.2700 H   0  0  0  0  0  0  0  0  0  0  0  0
   61.8164   29.7562   44.6571 H   0  0  0  0  0  0  0  0  0  0  0  0
   61.6118   28.1091   45.2484 H   0  0  0  0  0  0  0  0  0  0  0  0
   59.7507   29.6807   43.6127 H   0  0  0  0  0  0  0  0  0  0  0  0
   59.4981   28.0306   44.1662 H   0  0  0  0  0  0  0  0  0  0  0  0
   55.4507   28.9335   45.3899 H   0  0  0  0  0  0  0  0  0  0  0  0
   56.6017   28.0633   44.3029 H   0  0  0  0  0  0  0  0  0  0  0  0
   58.8035   24.4683   44.8124 H   0  0  0  0  0  0  0  0  0  0  0  0
   57.8314   22.5210   43.5987 H   0  0  0  0  0  0  0  0  0  0  0  0
   55.3583   22.2046   43.5141 H   0  0  0  0  0  0  0  0  0  0  0  0
   53.8494   23.8392   44.6386 H   0  0  0  0  0  0  0  0  0  0  0  0
   54.7690   27.0550   45.9870 H   0  0  0  0  0  0  0  0  0  0  0  0
   53.6690   25.7070   46.3850 H   0  0  0  0  0  0  0  0  0  0  0  0
  1  2  1  0
  2  3  2  0
  3  4  1  0
  4  5  2  0
  5  6  1  0
  6  7  2  0
  7  8  1  0
  8  9  1  0
  9 10  1  0
 10 11  2  0
 11 12  1  0
 12 13  1  0
 13 14  1  0
 14 15  1  0
 15 16  2  0
 15 17  1  0
 17 18  1  0
 18 19  1  0
 19 20  2  0
 19 21  1  0
 21 22  2  0
 22 23  1  0
 23 24  2  0
 24 25  1  0
 25 26  2  0
 26 27  1  0
  7  2  1  0
 14 10  1  0
 26 21  1  0
  1 28  1  0
  1 29  1  0
  1 30  1  0
  3 31  1  0
  4 32  1  0
  5 33  1  0
  6 34  1  0
  8 35  1  0
  8 36  1  0
 11 37  1  0
 12 38  1  0
 12 39  1  0
 13 40  1  0
 13 41  1  0
 17 42  1  0
 17 43  1  0
 22 44  1  0
 23 45  1  0
 24 46  1  0
 25 47  1  0
 27 48  1  0
 27 49  1  0
M  CHG  2  11   1  18  -1
M  END
>  <UniqueID>  (20) 
19

>  <SMILES>  (20) 
Cc1ccccc1CSC1=[NH+]CCN1C(=O)C[N-]C(=O)c1ccccc1N

>  <Energy>  (20) 
62.55522254193253

>  <Genealogy>  (20) 
Cc1ccccc1CSC1=[NH+]CCN1C(=O)C[N-]C(=O)c1ccccc1N (protonated)
Cc1ccccc1CSC1=[NH+]CCN1C(=O)C[N-]C(=O)c1ccccc1N (3D coordinates assigned)
Cc1ccccc1CSC1=[NH+]CCN1C(=O)C[N-]C(=O)c1ccccc1N (nonaromatic ring conformer: 62.55522254193253 kcal/mol)

>  <smiles>  (20) 
Cc1ccccc1CSC1=NCCN1C(=O)CNC(=O)c1ccccc1N

>  <score_type>  (20) 
oracle

>  <origin>  (20) 
adg

>  <m_score__min__energy>  (20) 
-8.8000000000000007

>  <m_primary>  (20) 
energy

$$$$
20:0
     RDKit          3D

 47 50  0  0  1  0  0  0  0  0999 V2000
   58.5580   29.8270   47.5610 C   0  0  0  0  0  0  0  0  0  0  0  0
   58.0630   29.5160   46.3720 C   0  0  0  0  0  0  0  0  0  0  0  0
   57.7370   28.2460   45.9440 C   0  0  0  0  0  0  0  0  0  0  0  0
   57.8470   27.0960   46.6130 C   0  0  0  0  0  0  0  0  0  0  0  0
   57.3900   25.8850   45.9250 C   0  0  0  0  0  0  0  0  0  0  0  0
   56.0590   25.6760   45.6280 C   0  0  0  0  0  0  0  0  0  0  0  0
   55.1550   26.6750   46.0140 O   0  0  0  0  0  0  0  0  0  0  0  0
   55.6590   24.5540   44.9930 N   0  0  0  0  0  0  0  0  0  0  0  0
   56.5690   23.6070   44.6360 C   0  0  0  0  0  0  0  0  0  0  0  0
   56.1880   22.5510   44.0380 O   0  0  0  0  0  0  0  0  0  0  0  0
   57.8750   23.7670   44.9040 N   0  0  0  0  0  0  0  0  0  0  0  0
   58.2900   24.8860   45.5390 C   0  0  0  0  0  0  0  0  0  0  0  0
   59.5370   25.0200   45.7850 O   0  0  0  0  0  0  0  0  0  0  0  0
   57.2620   28.3880   44.6570 C   0  0  0  0  0  0  0  0  0  0  0  0
   57.3190   29.7500   44.3500 C   0  0  0  0  0  0  0  0  0  0  0  0
   56.8730   30.2530   43.0160 C   0  0  0  0  0  0  0  0  0  0  0  0
   57.8060   30.4210   45.3970 N   0  0  0  0  0  0  0  0  0  0  0  0
   57.9930   31.8310   45.4180 C   0  0  0  0  0  0  0  0  0  0  0  0
   59.1830   32.3920   45.7850 N   0  0  0  0  0  0  0  0  0  0  0  0
   59.3240   33.7380   45.7930 C   0  0  0  0  0  0  0  0  0  0  0  0
   60.4500   34.2650   46.1400 N   0  0  0  0  0  0  0  0  0  0  0  0
   61.4570   33.5210   46.8230 C   0  0  0  0  0  0  0  0  0  0  0  0
   62.7840   33.8250   46.5720 C   0  0  0  0  0  0  0  0  0  0  0  0
   63.7840   33.1170   47.2210 C   0  0  0  0  0  0  0  0  0  0  0  0
   63.4510   32.1080   48.1180 C   0  0  0  0  0  0  0  0  0  0  0  0
   62.1080   31.8290   48.3470 C   0  0  0  0  0  0  0  0  0  0  0  0
   61.1620   32.5340   47.7000 N   0  0  0  0  0  0  0  0  0  0  0  0
   58.3000   34.5910   45.4380 C   0  0  0  0  0  0  0  0  0  0  0  0
   57.0980   33.9950   45.0680 C   0  0  0  0  0  0  0  0  0  0  0  0
   56.9780   32.6410   45.0680 N   0  0  0  0  0  0  0  0  0  0  0  0
   58.7853   30.8752   47.8051 H   0  0  0  0  0  0  0  0  0  0  0  0
   58.7417   29.0370   48.3040 H   0  0  0  0  0  0  0  0  0  0  0  0
   58.2607   27.0590   47.6316 H   0  0  0  0  0  0  0  0  0  0  0  0
   55.1360   27.5190   45.4410 H   0  0  0  0  0  0  0  0  0  0  0  0
   54.6270   24.4300   44.7830 H   0  0  0  0  0  0  0  0  0  0  0  0
   58.5660   23.0190   44.6170 H   0  0  0  0  0  0  0  0  0  0  0  0
   56.9061   27.5825   43.9978 H   0  0  0  0  0  0  0  0  0  0  0  0
   56.1491   31.0694   43.1553 H   0  0  0  0  0  0  0  0  0  0  0  0
   57.7428   30.6258   42.4552 H   0  0  0  0  0  0  0  0  0  0  0  0
   56.3987   29.4341   42.4552 H   0  0  0  0  0  0  0  0  0  0  0  0
   63.0436   34.6238   45.8617 H   0  0  0  0  0  0  0  0  0  0  0  0
   64.8405   33.3534   47.0263 H   0  0  0  0  0  0  0  0  0  0  0  0
   64.2367   31.5400   48.6377 H   0  0  0  0  0  0  0  0  0  0  0  0
   61.8206   31.0362   49.0533 H   0  0  0  0  0  0  0  0  0  0  0  0
   58.4265   35.6837   45.4468 H   0  0  0  0  0  0  0  0  0  0  0  0
   56.2427   34.6214   44.7747 H   0  0  0  0  0  0  0  0  0  0  0  0
   56.0420   32.2810   44.7770 H   0  0  0  0  0  0  0  0  0  0  0  0
  1  2  2  0
  2  3  1  0
  3  4  2  0
  4  5  1  0
  5  6  2  0
  6  7  1  0
  6  8  1  0
  8  9  1  0
  9 10  2  0
  9 11  1  0
 11 12  1  0
 12 13  2  0
  3 14  1  0
 14 15  2  0
 15 16  1  0
 15 17  1  0
 17 18  1  0
 18 19  2  0
 19 20  1  0
 20 21  2  0
 21 22  1  0
 22 23  2  0
 23 24  1  0
 24 25  2  0
 25 26  1  0
 26 27  2  0
 20 28  1  0
 28 29  2  0
 29 30  1  0
 17  2  1  0
 30 18  1  0
 12  5  1  0
 27 22  1  0
  1 31  1  0
  1 32  1  0
  4 33  1  0
  7 34  1  0
  8 35  1  0
 11 36  1  0
 14 37  1  0
 16 38  1  0
 16 39  1  0
 16 40  1  0
 23 41  1  0
 24 42  1  0
 25 43  1  0
 26 44  1  0
 28 45  1  0
 29 46  1  0
 30 47  1  0
M  END
>  <smiles>  (21) 
C=c1c(=Cc2c(O)[nH]c(=O)[nH]c2=O)cc(C)n1-c1nc(=Nc2ccccn2)cc[nH]1

>  <score_type>  (21) 
oracle

>  <origin>  (21) 
adg

>  <m_score__min__energy>  (21) 
-9.8699999999999992

>  <m_primary>  (21) 
energy

$$$$
21:0
     RDKit          3D

 43 45  0  0  0  0  0  0  0  0999 V2000
   52.4210   29.8570   49.5950 C   0  0  0  0  0  0  0  0  0  0  0  0
   52.0690   30.7450   50.7660 C   0  0  0  0  0  0  0  0  0  0  0  0
   52.3780   30.3780   52.1000 C   0  0  0  0  0  0  0  0  0  0  0  0
   53.0560   29.1440   52.4230 N   0  0  0  0  0  0  0  0  0  0  0  0
   54.4150   29.3960   52.8370 C   0  0  0  0  0  0  0  0  0  0  0  0
   55.0740   28.5080   53.7050 C   0  0  0  0  0  0  0  0  0  0  0  0
   56.4020   28.7370   54.0780 C   0  0  0  0  0  0  0  0  0  0  0  0
   57.0900   29.8440   53.5770 C   0  0  0  0  0  0  0  0  0  0  0  0
   56.4560   30.7280   52.6950 C   0  0  0  0  0  0  0  0  0  0  0  0
   57.3320   32.1170   52.0560 S   0  0  0  0  0  0  0  0  0  0  0  0
   56.5670   33.3680   52.3800 O   0  0  0  0  0  0  0  0  0  0  0  0
   58.6950   32.1920   52.6890 O   0  0  0  0  0  0  0  0  0  0  0  0
   57.5000   31.9870   50.3310 N   0  0  0  0  0  0  0  0  0  0  0  0
   58.8960   32.1810   49.9460 C   0  0  0  0  0  0  0  0  0  0  0  0
   58.9480   32.9690   48.6700 C   0  0  0  0  0  0  0  0  0  0  0  0
   59.9340   33.9500   48.4790 C   0  0  0  0  0  0  0  0  0  0  0  0
   59.9560   34.7060   47.3020 C   0  0  0  0  0  0  0  0  0  0  0  0
   58.9870   34.4980   46.3170 C   0  0  0  0  0  0  0  0  0  0  0  0
   57.9920   33.5360   46.5070 C   0  0  0  0  0  0  0  0  0  0  0  0
   57.9680   32.7760   47.6810 C   0  0  0  0  0  0  0  0  0  0  0  0
   55.1200   30.5050   52.3320 C   0  0  0  0  0  0  0  0  0  0  0  0
   52.0010   31.2000   53.1190 N   0  0  0  0  0  0  0  0  0  0  0  0
   51.3360   32.3580   52.8930 C   0  0  0  0  0  0  0  0  0  0  0  0
   51.0060   33.0930   53.8600 O   0  0  0  0  0  0  0  0  0  0  0  0
   51.0180   32.7210   51.6270 N   0  0  0  0  0  0  0  0  0  0  0  0
   51.3600   31.9470   50.5660 C   0  0  0  0  0  0  0  0  0  0  0  0
   51.0320   32.3190   49.4080 O   0  0  0  0  0  0  0  0  0  0  0  0
   52.8025   28.8945   49.9664 H   0  0  0  0  0  0  0  0  0  0  0  0
   51.5234   29.6841   48.9831 H   0  0  0  0  0  0  0  0  0  0  0  0
   53.1933   30.3460   48.9831 H   0  0  0  0  0  0  0  0  0  0  0  0
   53.0840   28.5310   51.5740 H   0  0  0  0  0  0  0  0  0  0  0  0
   52.5190   28.6180   53.1480 H   0  0  0  0  0  0  0  0  0  0  0  0
   54.5415   27.6273   54.0933 H   0  0  0  0  0  0  0  0  0  0  0  0
   56.9058   28.0436   54.7675 H   0  0  0  0  0  0  0  0  0  0  0  0
   58.1334   30.0223   53.8761 H   0  0  0  0  0  0  0  0  0  0  0  0
   59.4242   32.7297   50.7397 H   0  0  0  0  0  0  0  0  0  0  0  0
   59.3791   31.2039   49.7983 H   0  0  0  0  0  0  0  0  0  0  0  0
   60.6916   34.1248   49.2572 H   0  0  0  0  0  0  0  0  0  0  0  0
   60.7375   35.4654   47.1518 H   0  0  0  0  0  0  0  0  0  0  0  0
   59.0077   35.0921   45.3915 H   0  0  0  0  0  0  0  0  0  0  0  0
   57.2270   33.3761   45.7329 H   0  0  0  0  0  0  0  0  0  0  0  0
   57.1790   32.0243   47.8309 H   0  0  0  0  0  0  0  0  0  0  0  0
   54.6180   31.2033   51.6461 H   0  0  0  0  0  0  0  0  0  0  0  0
  1  2  1  0
  2  3  2  0
  3  4  1  0
  4  5  1  0
  5  6  2  0
  6  7  1  0
  7  8  2  0
  8  9  1  0
  9 10  1  0
 10 11  2  0
 10 12  2  0
 10 13  1  0
 13 14  1  0
 14 15  1  0
 15 16  2  0
 16 17  1  0
 17 18  2  0
 18 19  1  0
 19 20  2  0
  9 21  2  0
  3 22  1  0
 22 23  1  0
 23 24  2  0
 23 25  1  0
 25 26  1  0
 26 27  2  0
 26  2  1  0
 21  5  1  0
 20 15  1  0
  1 28  1  0
  1 29  1  0
  1 30  1  0
  4 31  1  0
  4 32  1  0
  6 33  1  0
  7 34  1  0
  8 35  1  0
 14 36  1  0
 14 37  1  0
 16 38  1  0
 17 39  1  0
 18 40  1  0
 19 41  1  0
 20 42  1  0
 21 43  1  0
M  CHG  4   4   1  13  -1  22  -1  25  -1
M  END
>  <UniqueID>  (22) 
20

>  <SMILES>  (22) 
Cc1c([NH2+]c2cccc(S(=O)(=O)[N-]Cc3ccccc3)c2)[n-]c(=O)[n-]c1=O

>  <Energy>  (22) 
48.007279590256985

>  <Genealogy>  (22) 
Cc1c([NH2+]c2cccc(S(=O)(=O)[N-]Cc3ccccc3)c2)[n-]c(=O)[n-]c1=O (protonated)
Cc1c([NH2+]c2cccc(S(=O)(=O)[N-]Cc3ccccc3)c2)[n-]c(=O)[n-]c1=O (3D coordinates assigned)
Cc1c([NH2+]c2cccc(S(=O)(=O)[N-]Cc3ccccc3)c2)[n-]c(=O)[n-]c1=O (optimized conformer: 48.007279590256985 kcal/mol)

>  <smiles>  (22) 
Cc1c(Nc2cccc(S(=O)(=O)NCc3ccccc3)c2)[nH]c(=O)[nH]c1=O

>  <score_type>  (22) 
oracle

>  <origin>  (22) 
adg

>  <m_score__min__energy>  (22) 
-13.26

>  <m_primary>  (22) 
energy

$$$$
22:0
     RDKit          3D

 52 54  0  0  0  0  0  0  0  0999 V2000
   58.0640   21.5180   43.7600 C   0  0  0  0  0  0  0  0  0  0  0  0
   56.6370   21.8240   43.4190 C   0  0  0  0  0  0  0  0  0  0  0  0
   56.2000   21.5270   42.2780 O   0  0  0  0  0  0  0  0  0  0  0  0
   55.7470   22.4180   44.3730 N   0  0  0  0  0  0  0  0  0  0  0  0
   56.1100   23.4150   45.3370 C   0  0  0  0  0  0  0  0  0  0  0  0
   56.9840   23.1200   46.3960 C   0  0  0  0  0  0  0  0  0  0  0  0
   57.3700   24.1210   47.2880 C   0  0  0  0  0  0  0  0  0  0  0  0
   56.8950   25.4250   47.1290 C   0  0  0  0  0  0  0  0  0  0  0  0
   56.0160   25.7340   46.0750 C   0  0  0  0  0  0  0  0  0  0  0  0
   55.5330   27.0700   45.8670 N   0  0  0  0  0  0  0  0  0  0  0  0
   56.2640   28.1380   45.2500 C   0  0  0  0  0  0  0  0  0  0  0  0
   55.6510   29.1930   44.9360 O   0  0  0  0  0  0  0  0  0  0  0  0
   57.7150   28.0520   45.0180 C   0  0  0  0  0  0  0  0  0  0  0  0
   58.1770   27.1660   44.2480 O   0  0  0  0  0  0  0  0  0  0  0  0
   58.5960   28.9360   45.7230 N   0  0  0  0  0  0  0  0  0  0  0  0
   58.6620   30.3660   45.5780 C   0  0  0  0  0  0  0  0  0  0  0  0
   58.1960   30.9920   44.4100 C   0  0  0  0  0  0  0  0  0  0  0  0
   58.2590   32.3760   44.2740 C   0  0  0  0  0  0  0  0  0  0  0  0
   58.7760   33.1650   45.3010 C   0  0  0  0  0  0  0  0  0  0  0  0
   58.8670   34.9060   45.0560 Cl  0  0  0  0  0  0  0  0  0  0  0  0
   59.2280   32.5640   46.4920 C   0  0  0  0  0  0  0  0  0  0  0  0
   59.7830   33.4160   47.5650 C   0  0  0  0  0  0  0  0  0  0  0  0
   59.0160   34.2370   48.1410 O   0  0  0  0  0  0  0  0  0  0  0  0
   61.1700   33.3290   47.9490 N   0  0  0  0  0  0  0  0  0  0  0  0
   62.1430   32.6060   47.1230 C   0  0  0  0  0  0  0  0  0  0  0  0
   63.5280   33.2400   47.2740 C   0  0  0  0  0  0  0  0  0  0  0  0
   63.8840   33.3540   48.6390 O   0  0  0  0  0  0  0  0  0  0  0  0
   63.0100   34.2570   49.2850 C   0  0  0  0  0  0  0  0  0  0  0  0
   61.5790   33.7130   49.3050 C   0  0  0  0  0  0  0  0  0  0  0  0
   59.1400   31.1580   46.6490 C   0  0  0  0  0  0  0  0  0  0  0  0
   59.6030   30.4870   47.9250 C   0  0  0  0  0  0  0  0  0  0  0  0
   55.6550   24.7300   45.1660 C   0  0  0  0  0  0  0  0  0  0  0  0
   58.1824   21.4926   44.8533 H   0  0  0  0  0  0  0  0  0  0  0  0
   58.3402   20.5402   43.3385 H   0  0  0  0  0  0  0  0  0  0  0  0
   58.7168   22.2966   43.3385 H   0  0  0  0  0  0  0  0  0  0  0  0
   57.3656   22.0961   46.5227 H   0  0  0  0  0  0  0  0  0  0  0  0
   58.0503   23.8827   48.1189 H   0  0  0  0  0  0  0  0  0  0  0  0
   57.2091   26.2124   47.8299 H   0  0  0  0  0  0  0  0  0  0  0  0
   57.7774   30.3829   43.5953 H   0  0  0  0  0  0  0  0  0  0  0  0
   57.8983   32.8507   43.3496 H   0  0  0  0  0  0  0  0  0  0  0  0
   62.1858   31.5552   47.4455 H   0  0  0  0  0  0  0  0  0  0  0  0
   61.8334   32.6592   46.0688 H   0  0  0  0  0  0  0  0  0  0  0  0
   64.2699   32.6118   46.7593 H   0  0  0  0  0  0  0  0  0  0  0  0
   63.5044   34.2467   46.8312 H   0  0  0  0  0  0  0  0  0  0  0  0
   63.3513   34.4108   50.3194 H   0  0  0  0  0  0  0  0  0  0  0  0
   63.0165   35.2082   48.7326 H   0  0  0  0  0  0  0  0  0  0  0  0
   61.5330   32.8324   49.9626 H   0  0  0  0  0  0  0  0  0  0  0  0
   60.9007   34.4937   49.6797 H   0  0  0  0  0  0  0  0  0  0  0  0
   59.2188   31.0438   48.7923 H   0  0  0  0  0  0  0  0  0  0  0  0
   59.2241   29.4548   47.9548 H   0  0  0  0  0  0  0  0  0  0  0  0
   60.7025   30.4749   47.9548 H   0  0  0  0  0  0  0  0  0  0  0  0
   55.0087   24.9761   44.3106 H   0  0  0  0  0  0  0  0  0  0  0  0
  1  2  1  0
  2  3  2  0
  2  4  1  0
  4  5  1  0
  5  6  2  0
  6  7  1  0
  7  8  2  0
  8  9  1  0
  9 10  1  0
 10 11  1  0
 11 12  2  0
 11 13  1  0
 13 14  2  0
 13 15  1  0
 15 16  1  0
 16 17  2  0
 17 18  1  0
 18 19  2  0
 19 20  1  0
 19 21  1  0
 21 22  1  0
 22 23  2  0
 22 24  1  0
 24 25  1  0
 25 26  1  0
 26 27  1  0
 27 28  1  0
 28 29  1  0
 21 30  2  0
 30 31  1  0
  9 32  2  0
 32  5  1  0
 30 16  1  0
 29 24  1  0
  1 33  1  0
  1 34  1  0
  1 35  1  0
  6 36  1  0
  7 37  1  0
  8 38  1  0
 17 39  1  0
 18 40  1  0
 25 41  1  0
 25 42  1  0
 26 43  1  0
 26 44  1  0
 28 45  1  0
 28 46  1  0
 29 47  1  0
 29 48  1  0
 31 49  1  0
 31 50  1  0
 31 51  1  0
 32 52  1  0
M  CHG  3   4  -1  10  -1  15  -1
M  END
>  <UniqueID>  (23) 
21

>  <SMILES>  (23) 
CC(=O)[N-]c1cccc([N-]C(=O)C(=O)[N-]c2ccc(Cl)c(C(=O)N3CCOCC3)c2C)c1

>  <Energy>  (23) 
76.45512637049211

>  <Genealogy>  (23) 
CC(=O)[N-]c1cccc([N-]C(=O)C(=O)[N-]c2ccc(Cl)c(C(=O)N3CCOCC3)c2C)c1 (protonated)
CC(=O)[N-]c1cccc([N-]C(=O)C(=O)[N-]c2ccc(Cl)c(C(=O)N3CCOCC3)c2C)c1 (3D coordinates assigned)
CC(=O)[N-]c1cccc([N-]C(=O)C(=O)[N-]c2ccc(Cl)c(C(=O)N3CCOCC3)c2C)c1 (nonaromatic ring conformer: 76.45512637049211 kcal/mol)

>  <smiles>  (23) 
CC(=O)Nc1cccc(NC(=O)C(=O)Nc2ccc(Cl)c(C(=O)N3CCOCC3)c2C)c1

>  <score_type>  (23) 
oracle

>  <origin>  (23) 
adg

>  <m_score__min__energy>  (23) 
-13.960000000000001

>  <m_primary>  (23) 
energy

$$$$
23:0
     RDKit          3D

 56 60  0  0  0  0  0  0  0  0999 V2000
   54.5620   26.0970   45.9510 O   0  0  0  0  0  0  0  0  0  0  0  0
   55.3990   25.2200   45.6090 C   0  0  0  0  0  0  0  0  0  0  0  0
   54.9590   23.7850   45.4920 C   0  0  0  0  0  0  0  0  0  0  0  0
   55.9910   22.9710   44.7670 C   0  0  0  0  0  0  0  0  0  0  0  0
   57.2150   22.6540   45.3760 C   0  0  0  0  0  0  0  0  0  0  0  0
   58.1650   21.9210   44.6630 C   0  0  0  0  0  0  0  0  0  0  0  0
   57.8930   21.5160   43.3550 C   0  0  0  0  0  0  0  0  0  0  0  0
   56.6690   21.8590   42.7750 C   0  0  0  0  0  0  0  0  0  0  0  0
   55.7560   22.5750   43.4850 N   0  0  0  0  0  0  0  0  0  0  0  0
   56.7580   25.6160   45.3820 N   0  0  0  0  0  0  0  0  0  0  0  0
   57.4900   26.6100   46.1140 C   0  0  0  0  0  0  0  0  0  0  0  0
   58.6370   26.2750   46.8530 C   0  0  0  0  0  0  0  0  0  0  0  0
   59.3560   27.2640   47.5290 C   0  0  0  0  0  0  0  0  0  0  0  0
   58.9510   28.6070   47.4660 C   0  0  0  0  0  0  0  0  0  0  0  0
   59.7170   29.6470   48.1810 C   0  0  0  0  0  0  0  0  0  0  0  0
   59.6260   29.8600   49.5220 N   0  0  0  0  0  0  0  0  0  0  0  0
   60.4810   30.8800   49.7040 C   0  0  0  0  0  0  0  0  0  0  0  0
   60.7950   31.5220   50.8970 C   0  0  0  0  0  0  0  0  0  0  0  0
   61.7260   32.5750   50.8450 C   0  0  0  0  0  0  0  0  0  0  0  0
   62.3140   32.9540   49.6150 C   0  0  0  0  0  0  0  0  0  0  0  0
   61.9770   32.2820   48.4150 C   0  0  0  0  0  0  0  0  0  0  0  0
   62.5830   32.6640   47.1210 C   0  0  0  0  0  0  0  0  0  0  0  0
   63.6800   32.1550   46.7600 O   0  0  0  0  0  0  0  0  0  0  0  0
   61.9280   33.6120   46.2730 N   0  0  0  0  0  0  0  0  0  0  0  0
   60.9300   34.5540   46.7620 C   0  0  0  0  0  0  0  0  0  0  0  0
   59.5650   34.1000   46.3340 C   0  0  0  0  0  0  0  0  0  0  0  0
   58.6520   33.6120   47.2830 C   0  0  0  0  0  0  0  0  0  0  0  0
   57.3920   33.1570   46.8800 C   0  0  0  0  0  0  0  0  0  0  0  0
   57.0410   33.1770   45.5270 C   0  0  0  0  0  0  0  0  0  0  0  0
   57.9500   33.6470   44.5750 C   0  0  0  0  0  0  0  0  0  0  0  0
   59.2110   34.1000   44.9740 C   0  0  0  0  0  0  0  0  0  0  0  0
   61.0450   31.2410   48.5180 C   0  0  0  0  0  0  0  0  0  0  0  0
   60.5630   30.4690   47.5800 O   0  0  0  0  0  0  0  0  0  0  0  0
   57.8190   28.9440   46.7060 C   0  0  0  0  0  0  0  0  0  0  0  0
   57.0960   27.9530   46.0260 C   0  0  0  0  0  0  0  0  0  0  0  0
   55.9800   28.2960   45.2640 O   0  0  0  0  0  0  0  0  0  0  0  0
   54.8133   23.3687   46.4997 H   0  0  0  0  0  0  0  0  0  0  0  0
   54.0174   23.7490   44.9244 H   0  0  0  0  0  0  0  0  0  0  0  0
   57.4237   22.9801   46.4056 H   0  0  0  0  0  0  0  0  0  0  0  0
   59.1264   21.6629   45.1310 H   0  0  0  0  0  0  0  0  0  0  0  0
   58.6338   20.9336   42.7875 H   0  0  0  0  0  0  0  0  0  0  0  0
   56.4436   21.5499   41.7437 H   0  0  0  0  0  0  0  0  0  0  0  0
   58.9709   25.2279   46.8996 H   0  0  0  0  0  0  0  0  0  0  0  0
   60.2455   26.9887   48.1146 H   0  0  0  0  0  0  0  0  0  0  0  0
   60.3319   31.2173   51.8471 H   0  0  0  0  0  0  0  0  0  0  0  0
   61.9991   33.1080   51.7676 H   0  0  0  0  0  0  0  0  0  0  0  0
   63.0406   33.7795   49.5908 H   0  0  0  0  0  0  0  0  0  0  0  0
   60.9744   34.5987   47.8602 H   0  0  0  0  0  0  0  0  0  0  0  0
   61.1323   35.5524   46.3471 H   0  0  0  0  0  0  0  0  0  0  0  0
   58.9287   33.5874   48.3473 H   0  0  0  0  0  0  0  0  0  0  0  0
   56.6772   32.7834   47.6280 H   0  0  0  0  0  0  0  0  0  0  0  0
   56.0487   32.8226   45.2114 H   0  0  0  0  0  0  0  0  0  0  0  0
   57.6729   33.6605   43.5106 H   0  0  0  0  0  0  0  0  0  0  0  0
   59.9285   34.4576   44.2208 H   0  0  0  0  0  0  0  0  0  0  0  0
   57.4968   29.9939   46.6436 H   0  0  0  0  0  0  0  0  0  0  0  0
   55.1520   27.7120   45.2430 H   0  0  0  0  0  0  0  0  0  0  0  0
  1  2  2  0
  2  3  1  0
  3  4  1  0
  4  5  2  0
  5  6  1  0
  6  7  2  0
  7  8  1  0
  8  9  2  0
  2 10  1  0
 10 11  1  0
 11 12  2  0
 12 13  1  0
 13 14  2  0
 14 15  1  0
 15 16  2  0
 16 17  1  0
 17 18  2  0
 18 19  1  0
 19 20  2  0
 20 21  1  0
 21 22  1  0
 22 23  2  0
 22 24  1  0
 24 25  1  0
 25 26  1  0
 26 27  2  0
 27 28  1  0
 28 29  2  0
 29 30  1  0
 30 31  2  0
 21 32  2  0
 32 33  1  0
 14 34  1  0
 34 35  2  0
 35 36  1  0
  9  4  1  0
 35 11  1  0
 33 15  1  0
 32 17  1  0
 31 26  1  0
  3 37  1  0
  3 38  1  0
  5 39  1  0
  6 40  1  0
  7 41  1  0
  8 42  1  0
 12 43  1  0
 13 44  1  0
 18 45  1  0
 19 46  1  0
 20 47  1  0
 25 48  1  0
 25 49  1  0
 27 50  1  0
 28 51  1  0
 29 52  1  0
 30 53  1  0
 31 54  1  0
 34 55  1  0
 36 56  1  0
M  CHG  2  10  -1  24  -1
M  END
>  <UniqueID>  (24) 
22

>  <SMILES>  (24) 
O=C(Cc1ccccn1)[N-]c1ccc(-c2nc3cccc(C(=O)[N-]Cc4ccccc4)c3o2)cc1O

>  <Energy>  (24) 
102.34143435315397

>  <Genealogy>  (24) 
O=C(Cc1ccccn1)[N-]c1ccc(-c2nc3cccc(C(=O)[N-]Cc4ccccc4)c3o2)cc1O (protonated)
O=C(Cc1ccccn1)[N-]c1ccc(-c2nc3cccc(C(=O)[N-]Cc4ccccc4)c3o2)cc1O (3D coordinates assigned)
O=C(Cc1ccccn1)[N-]c1ccc(-c2nc3cccc(C(=O)[N-]Cc4ccccc4)c3o2)cc1O (optimized conformer: 102.34143435315397 kcal/mol)

>  <smiles>  (24) 
O=C(Cc1ccccn1)Nc1ccc(-c2nc3cccc(C(=O)NCc4ccccc4)c3o2)cc1O

>  <score_type>  (24) 
oracle

>  <origin>  (24) 
adg

>  <m_score__min__energy>  (24) 
-13.25

>  <m_primary>  (24) 
energy

$$$$
24:0
     RDKit          3D

 43 45  0  0  0  0  0  0  0  0999 V2000
   56.3420   29.4000   43.2780 C   0  0  0  0  0  0  0  0  0  0  0  0
   56.9800   29.5540   44.4460 C   0  0  0  0  0  0  0  0  0  0  0  0
   57.0330   30.8190   44.9490 N   0  0  0  0  0  0  0  0  0  0  0  0
   57.7980   31.1730   46.0120 C   0  0  0  0  0  0  0  0  0  0  0  0
   57.7720   32.6040   46.4640 C   0  0  0  0  0  0  0  0  0  0  0  0
   58.6250   30.2090   46.6180 C   0  0  0  0  0  0  0  0  0  0  0  0
   59.5090   30.5340   47.7640 C   0  0  0  0  0  0  0  0  0  0  0  0
   59.2260   30.0750   48.9060 O   0  0  0  0  0  0  0  0  0  0  0  0
   60.6970   31.3330   47.5940 N   0  0  0  0  0  0  0  0  0  0  0  0
   60.7960   32.3150   46.5020 C   0  0  0  0  0  0  0  0  0  0  0  0
   61.5230   33.5700   46.9920 C   0  0  0  0  0  0  0  0  0  0  0  0
   62.9410   33.2510   47.5330 C   0  0  0  0  0  0  0  0  0  0  0  0
   63.3120   34.1800   48.6030 N   0  0  0  0  0  0  0  0  0  0  0  0
   63.0950   31.7910   48.0220 C   0  0  0  0  0  0  0  0  0  0  0  0
   61.7860   31.2170   48.5760 C   0  0  0  0  0  0  0  0  0  0  0  0
   58.5770   28.8920   46.1460 C   0  0  0  0  0  0  0  0  0  0  0  0
   57.7030   28.5130   45.1080 C   0  0  0  0  0  0  0  0  0  0  0  0
   57.6040   27.1870   44.8400 C   0  0  0  0  0  0  0  0  0  0  0  0
   57.1640   26.1340   45.7740 C   0  0  0  0  0  0  0  0  0  0  0  0
   58.0080   25.2690   46.3640 N   0  0  0  0  0  0  0  0  0  0  0  0
   57.2070   24.5760   47.2040 C   0  0  0  0  0  0  0  0  0  0  0  0
   57.6390   23.6490   47.9390 O   0  0  0  0  0  0  0  0  0  0  0  0
   55.9150   24.9650   47.2070 N   0  0  0  0  0  0  0  0  0  0  0  0
   55.9060   25.9610   46.3080 C   0  0  0  0  0  0  0  0  0  0  0  0
   54.7790   26.7160   46.0060 O   0  0  0  0  0  0  0  0  0  0  0  0
   56.2654   28.4026   42.8204 H   0  0  0  0  0  0  0  0  0  0  0  0
   55.8948   30.2709   42.7766 H   0  0  0  0  0  0  0  0  0  0  0  0
   57.7713   32.6413   47.5634 H   0  0  0  0  0  0  0  0  0  0  0  0
   58.6608   33.1260   46.0799 H   0  0  0  0  0  0  0  0  0  0  0  0
   56.8648   33.0934   46.0799 H   0  0  0  0  0  0  0  0  0  0  0  0
   61.3556   31.8733   45.6643 H   0  0  0  0  0  0  0  0  0  0  0  0
   59.7839   32.5899   46.1702 H   0  0  0  0  0  0  0  0  0  0  0  0
   61.6141   34.2767   46.1540 H   0  0  0  0  0  0  0  0  0  0  0  0
   60.9357   34.0007   47.8164 H   0  0  0  0  0  0  0  0  0  0  0  0
   63.6261   33.3774   46.6818 H   0  0  0  0  0  0  0  0  0  0  0  0
   62.6010   34.1120   49.3690 H   0  0  0  0  0  0  0  0  0  0  0  0
   64.2360   33.8970   49.0050 H   0  0  0  0  0  0  0  0  0  0  0  0
   63.4234   31.1685   47.1766 H   0  0  0  0  0  0  0  0  0  0  0  0
   63.8334   31.7874   48.8373 H   0  0  0  0  0  0  0  0  0  0  0  0
   61.9355   30.1554   48.8224 H   0  0  0  0  0  0  0  0  0  0  0  0
   61.5077   31.7879   49.4741 H   0  0  0  0  0  0  0  0  0  0  0  0
   59.2369   28.1356   46.5959 H   0  0  0  0  0  0  0  0  0  0  0  0
   57.8793   26.8650   43.8249 H   0  0  0  0  0  0  0  0  0  0  0  0
  1  2  2  0
  2  3  1  0
  3  4  2  0
  4  5  1  0
  4  6  1  0
  6  7  1  0
  7  8  2  0
  7  9  1  0
  9 10  1  0
 10 11  1  0
 11 12  1  0
 12 13  1  0
 12 14  1  0
 14 15  1  0
  6 16  2  0
 16 17  1  0
 17 18  2  3
 18 19  1  0
 19 20  1  0
 20 21  1  0
 21 22  2  0
 21 23  1  0
 23 24  1  0
 24 25  1  0
 17  2  1  0
 24 19  2  0
 15  9  1  0
  1 26  1  0
  1 27  1  0
  5 28  1  0
  5 29  1  0
  5 30  1  0
 10 31  1  0
 10 32  1  0
 11 33  1  0
 11 34  1  0
 12 35  1  0
 13 36  1  0
 13 37  1  0
 14 38  1  0
 14 39  1  0
 15 40  1  0
 15 41  1  0
 16 42  1  0
 18 43  1  0
M  CHG  3  20  -1  23  -1  25  -1
M  END
>  <UniqueID>  (25) 
23

>  <SMILES>  (25) 
C=c1nc(C)c(C(=O)N2CCC(N)CC2)cc1=Cc1[n-]c(=O)[n-]c1[O-]

>  <Energy>  (25) 
100.91766025690752

>  <Genealogy>  (25) 
C=c1nc(C)c(C(=O)N2CCC(N)CC2)cc1=Cc1[n-]c(=O)[n-]c1[O-] (protonated)
C=c1nc(C)c(C(=O)N2CCC(N)CC2)cc1=Cc1[n-]c(=O)[n-]c1[O-] (3D coordinates assigned)
C=c1nc(C)c(C(=O)N2CCC(N)CC2)cc1=Cc1[n-]c(=O)[n-]c1[O-] (nonaromatic ring conformer: 100.91766025690752 kcal/mol)

>  <smiles>  (25) 
C=c1nc(C)c(C(=O)N2CCC(N)CC2)cc1=Cc1[nH]c(=O)[nH]c1O

>  <score_type>  (25) 
oracle

>  <origin>  (25) 
adg

>  <m_score__min__energy>  (25) 
-16.73

>  <m_primary>  (25) 
energy

$$$$
25:0
     RDKit          3D

 21 22  0  0  0  0  0  0  0  0999 V2000
   54.5680   25.5750   46.3640 H   0  0  0  0  0  0  0  0  0  0  0  0
   54.7200   26.3440   45.7210 O   0  0  0  0  0  0  0  0  0  0  0  0
   55.9260   27.0410   45.6520 C   0  0  0  0  0  0  0  0  0  0  0  0
   55.9030   28.3500   45.2890 N   0  0  0  0  0  0  0  0  0  0  0  0
   57.0430   29.0810   45.2060 C   0  0  0  0  0  0  0  0  0  0  0  0
   56.9910   30.2900   44.8640 O   0  0  0  0  0  0  0  0  0  0  0  0
   58.2390   28.5110   45.4970 N   0  0  0  0  0  0  0  0  0  0  0  0
   58.3230   27.2070   45.8680 C   0  0  0  0  0  0  0  0  0  0  0  0
   59.4490   26.7150   46.1470 O   0  0  0  0  0  0  0  0  0  0  0  0
   57.1570   26.4220   45.9390 C   0  0  0  0  0  0  0  0  0  0  0  0
   57.2180   25.0170   46.3840 C   0  0  0  0  0  0  0  0  0  0  0  0
   58.0739   24.7248   47.0102 H   0  0  0  0  0  0  0  0  0  0  0  0
   56.3170   24.0620   46.0900 C   0  0  0  0  0  0  0  0  0  0  0  0
   55.1440   23.9880   46.7480 N   0  0  0  0  0  0  0  0  0  0  0  0
   54.5310   22.9120   46.2190 C   0  0  0  0  0  0  0  0  0  0  0  0
   53.0590   22.4030   46.7070 S   0  0  0  0  0  0  0  0  0  0  0  0
   55.2330   22.2970   45.2490 N   0  0  0  0  0  0  0  0  0  0  0  0
   56.3610   23.0240   45.1520 C   0  0  0  0  0  0  0  0  0  0  0  0
   57.2840   22.7630   44.2220 C   0  0  0  0  0  0  0  0  0  0  0  0
   58.1968   23.3743   44.1663 H   0  0  0  0  0  0  0  0  0  0  0  0
   57.1311   21.9369   43.5120 H   0  0  0  0  0  0  0  0  0  0  0  0
  1  2  1  0
  2  3  1  0
  3  4  1  0
  4  5  1  0
  5  6  2  0
  5  7  1  0
  7  8  1  0
  8  9  2  0
  8 10  1  0
 10 11  1  0
 11 12  1  0
 11 13  2  0
 13 14  1  0
 14 15  1  0
 15 16  2  0
 15 17  1  0
 17 18  1  0
 18 19  2  0
 19 20  1  0
 19 21  1  0
 10  3  2  0
 18 13  1  0
M  CHG  4   4  -1   7  -1  14  -1  17  -1
M  END
>  <UniqueID>  (26) 
24

>  <SMILES>  (26) 
C=c1[n-]c(=S)[n-]/c1=C/c1c(O)[n-]c(=O)[n-]c1=O

>  <Energy>  (26) 
65.19720073657065

>  <Genealogy>  (26) 
C=c1[n-]c(=S)[n-]c1=Cc1c(O)[n-]c(=O)[n-]c1=O (protonated)
C=c1[n-]c(=S)[n-]/c1=C/c1c(O)[n-]c(=O)[n-]c1=O (cis-trans isomerization)
C=c1[n-]c(=S)[n-]/c1=C/c1c(O)[n-]c(=O)[n-]c1=O (3D coordinates assigned)
C=c1[n-]c(=S)[n-]/c1=C/c1c(O)[n-]c(=O)[n-]c1=O (optimized conformer: 65.19720073657065 kcal/mol)

>  <smiles>  (26) 
C=c1[nH]c(=S)[nH]c1=Cc1c(O)[nH]c(=O)[nH]c1=O

>  <score_type>  (26) 
oracle

>  <origin>  (26) 
adg

>  <m_score__min__energy>  (26) 
-12.6

>  <m_primary>  (26) 
energy

$$$$
26:0
     RDKit          3D

 38 40  0  0  0  0  0  0  0  0999 V2000
   59.1090   30.5080   47.0440 C   0  0  0  0  0  0  0  0  0  0  0  0
   58.4860   31.3000   46.1550 C   0  0  0  0  0  0  0  0  0  0  0  0
   58.0620   30.9350   44.8660 C   0  0  0  0  0  0  0  0  0  0  0  0
   57.9890   29.7330   44.2640 C   0  0  0  0  0  0  0  0  0  0  0  0
   57.5490   28.4810   44.8980 C   0  0  0  0  0  0  0  0  0  0  0  0
   58.5620   27.3080   45.5690 S   0  0  0  0  0  0  0  0  0  0  0  0
   57.2720   26.4470   46.2160 C   0  0  0  0  0  0  0  0  0  0  0  0
   57.3900   25.3780   46.8680 O   0  0  0  0  0  0  0  0  0  0  0  0
   56.0810   27.0330   45.9730 N   0  0  0  0  0  0  0  0  0  0  0  0
   56.2390   28.1760   45.2540 C   0  0  0  0  0  0  0  0  0  0  0  0
   55.1560   28.9750   44.9090 O   0  0  0  0  0  0  0  0  0  0  0  0
   57.6780   32.1070   44.2400 C   0  0  0  0  0  0  0  0  0  0  0  0
   57.8100   33.1200   45.1640 C   0  0  0  0  0  0  0  0  0  0  0  0
   57.4860   34.5570   44.8860 C   0  0  0  0  0  0  0  0  0  0  0  0
   58.3000   32.6380   46.3330 N   0  0  0  0  0  0  0  0  0  0  0  0
   58.6530   33.4540   47.5090 C   0  0  0  0  0  0  0  0  0  0  0  0
   59.9000   34.3150   47.2540 C   0  0  0  0  0  0  0  0  0  0  0  0
   61.1710   33.5440   47.4570 C   0  0  0  0  0  0  0  0  0  0  0  0
   62.3030   33.8070   46.6710 C   0  0  0  0  0  0  0  0  0  0  0  0
   63.4530   33.0370   46.8480 C   0  0  0  0  0  0  0  0  0  0  0  0
   63.4680   32.0170   47.8010 C   0  0  0  0  0  0  0  0  0  0  0  0
   62.3210   31.7810   48.5660 C   0  0  0  0  0  0  0  0  0  0  0  0
   62.3150   30.8650   49.4280 O   0  0  0  0  0  0  0  0  0  0  0  0
   61.2100   32.5390   48.3770 N   0  0  0  0  0  0  0  0  0  0  0  0
   59.3954   30.9056   48.0289 H   0  0  0  0  0  0  0  0  0  0  0  0
   59.3326   29.4621   46.7869 H   0  0  0  0  0  0  0  0  0  0  0  0
   58.2842   29.6829   43.2055 H   0  0  0  0  0  0  0  0  0  0  0  0
   57.3325   32.2106   43.2008 H   0  0  0  0  0  0  0  0  0  0  0  0
   57.3644   35.0961   45.8371 H   0  0  0  0  0  0  0  0  0  0  0  0
   58.3041   35.0122   44.3085 H   0  0  0  0  0  0  0  0  0  0  0  0
   56.5518   34.6171   44.3085 H   0  0  0  0  0  0  0  0  0  0  0  0
   57.8075   34.1149   47.7503 H   0  0  0  0  0  0  0  0  0  0  0  0
   58.8735   32.7724   48.3438 H   0  0  0  0  0  0  0  0  0  0  0  0
   59.8705   34.6834   46.2179 H   0  0  0  0  0  0  0  0  0  0  0  0
   59.8900   35.1463   47.9743 H   0  0  0  0  0  0  0  0  0  0  0  0
   62.2841   34.6126   45.9223 H   0  0  0  0  0  0  0  0  0  0  0  0
   64.3467   33.2334   46.2374 H   0  0  0  0  0  0  0  0  0  0  0  0
   64.3709   31.4063   47.9485 H   0  0  0  0  0  0  0  0  0  0  0  0
  1  2  2  0
  2  3  1  0
  3  4  2  3
  4  5  1  0
  5  6  1  0
  6  7  1  0
  7  8  2  0
  7  9  1  0
  9 10  1  0
 10 11  1  0
  3 12  1  0
 12 13  2  0
 13 14  1  0
 13 15  1  0
 15 16  1  0
 16 17  1  0
 17 18  1  0
 18 19  2  0
 19 20  1  0
 20 21  2  0
 21 22  1  0
 22 23  2  0
 22 24  1  0
 15  2  1  0
 24 18  1  0
 10  5  2  0
  1 25  1  0
  1 26  1  0
  4 27  1  0
 12 28  1  0
 14 29  1  0
 14 30  1  0
 14 31  1  0
 16 32  1  0
 16 33  1  0
 17 34  1  0
 17 35  1  0
 19 36  1  0
 20 37  1  0
 21 38  1  0
M  CHG  3   9  -1  11  -1  24  -1
M  END
>  <UniqueID>  (27) 
25

>  <SMILES>  (27) 
C=c1c(=Cc2sc(=O)[n-]c2[O-])cc(C)n1CCc1cccc(=O)[n-]1

>  <Energy>  (27) 
108.08714785973554

>  <Genealogy>  (27) 
C=c1c(=Cc2sc(=O)[n-]c2[O-])cc(C)n1CCc1cccc(=O)[n-]1 (protonated)
C=c1c(=Cc2sc(=O)[n-]c2[O-])cc(C)n1CCc1cccc(=O)[n-]1 (3D coordinates assigned)
C=c1c(=Cc2sc(=O)[n-]c2[O-])cc(C)n1CCc1cccc(=O)[n-]1 (optimized conformer: 108.08714785973554 kcal/mol)

>  <smiles>  (27) 
C=c1c(=Cc2sc(=O)[nH]c2O)cc(C)n1CCc1cccc(=O)[nH]1

>  <score_type>  (27) 
oracle

>  <origin>  (27) 
adg

>  <m_score__min__energy>  (27) 
-14.73

>  <m_primary>  (27) 
energy

$$$$
27:0
     RDKit          3D

 61 64  0  0  0  0  0  0  0  0999 V2000
   62.0880   32.3540   47.1130 C   0  0  0  0  0  0  0  0  0  0  0  0
   61.9690   31.0290   47.1460 C   0  0  0  0  0  0  0  0  0  0  0  0
   60.6700   30.3300   47.0460 C   0  0  0  0  0  0  0  0  0  0  0  0
   60.1400   30.1000   45.7630 C   0  0  0  0  0  0  0  0  0  0  0  0
   58.8800   29.5170   45.6080 C   0  0  0  0  0  0  0  0  0  0  0  0
   58.1320   29.1590   46.7290 C   0  0  0  0  0  0  0  0  0  0  0  0
   58.6540   29.3570   48.0070 C   0  0  0  0  0  0  0  0  0  0  0  0
   59.9330   29.9020   48.1750 C   0  0  0  0  0  0  0  0  0  0  0  0
   60.4330   29.9960   49.4710 O   0  0  0  0  0  0  0  0  0  0  0  0
   60.9650   30.1150   50.7520 C   0  0  0  0  0  0  0  0  0  0  0  0
   62.3180   30.1510   50.8820 N   0  0  0  0  0  0  0  0  0  0  0  0
   62.9060   30.2770   52.1010 C   0  0  0  0  0  0  0  0  0  0  0  0
   64.6910   30.4020   52.2380 S   0  0  0  0  0  0  0  0  0  0  0  0
   64.7230   32.2410   52.0690 C   0  0  0  0  0  0  0  0  0  0  0  0
   63.4490   32.7310   51.3850 C   0  0  0  0  0  0  0  0  0  0  0  0
   63.7360   32.7310   49.8880 C   0  0  0  0  0  0  0  0  0  0  0  0
   65.2600   32.7300   49.7400 C   0  0  0  0  0  0  0  0  0  0  0  0
   65.8460   32.7010   51.1470 C   0  0  0  0  0  0  0  0  0  0  0  0
   62.1400   30.3390   53.2180 N   0  0  0  0  0  0  0  0  0  0  0  0
   60.7860   30.3080   53.1410 C   0  0  0  0  0  0  0  0  0  0  0  0
   60.1520   30.2160   51.8980 C   0  0  0  0  0  0  0  0  0  0  0  0
   58.4140   30.5070   51.8290 S   0  0  0  0  0  0  0  0  0  0  0  0
   57.8080   30.0830   50.5240 O   0  0  0  0  0  0  0  0  0  0  0  0
   57.7400   29.7430   52.9320 O   0  0  0  0  0  0  0  0  0  0  0  0
   58.1580   32.2020   52.0690 N   0  0  0  0  0  0  0  0  0  0  0  0
   58.8160   33.1910   51.2750 C   0  0  0  0  0  0  0  0  0  0  0  0
   58.9220   34.3690   51.7030 O   0  0  0  0  0  0  0  0  0  0  0  0
   59.3400   32.8420   49.9870 N   0  0  0  0  0  0  0  0  0  0  0  0
   59.9680   33.8210   49.1040 C   0  0  0  0  0  0  0  0  0  0  0  0
   59.2780   33.8540   47.7660 C   0  0  0  0  0  0  0  0  0  0  0  0
   59.7740   34.6730   46.7350 C   0  0  0  0  0  0  0  0  0  0  0  0
   59.1450   34.6880   45.4820 C   0  0  0  0  0  0  0  0  0  0  0  0
   58.0240   33.8880   45.2500 C   0  0  0  0  0  0  0  0  0  0  0  0
   57.5260   33.0680   46.2710 C   0  0  0  0  0  0  0  0  0  0  0  0
   58.1520   33.0460   47.5240 C   0  0  0  0  0  0  0  0  0  0  0  0
   63.0817   32.8191   47.1918 H   0  0  0  0  0  0  0  0  0  0  0  0
   61.1927   32.9842   47.0069 H   0  0  0  0  0  0  0  0  0  0  0  0
   62.8816   30.4243   47.2529 H   0  0  0  0  0  0  0  0  0  0  0  0
   60.7232   30.3818   44.8739 H   0  0  0  0  0  0  0  0  0  0  0  0
   58.4772   29.3400   44.5998 H   0  0  0  0  0  0  0  0  0  0  0  0
   57.1307   28.7206   46.6054 H   0  0  0  0  0  0  0  0  0  0  0  0
   58.0569   29.0831   48.8893 H   0  0  0  0  0  0  0  0  0  0  0  0
   62.9160   30.0930   50.0250 H   0  0  0  0  0  0  0  0  0  0  0  0
   64.8448   32.6363   53.0883 H   0  0  0  0  0  0  0  0  0  0  0  0
   62.6115   32.0548   51.6117 H   0  0  0  0  0  0  0  0  0  0  0  0
   63.1686   33.7348   51.7369 H   0  0  0  0  0  0  0  0  0  0  0  0
   63.3076   31.8332   49.4185 H   0  0  0  0  0  0  0  0  0  0  0  0
   63.2882   33.6071   49.3961 H   0  0  0  0  0  0  0  0  0  0  0  0
   65.5841   31.8418   49.1777 H   0  0  0  0  0  0  0  0  0  0  0  0
   65.6011   33.6205   49.1917 H   0  0  0  0  0  0  0  0  0  0  0  0
   66.6897   31.9967   51.1937 H   0  0  0  0  0  0  0  0  0  0  0  0
   66.2257   33.6903   51.4423 H   0  0  0  0  0  0  0  0  0  0  0  0
   60.1841   30.3554   54.0605 H   0  0  0  0  0  0  0  0  0  0  0  0
   59.2850   31.8490   49.6770 H   0  0  0  0  0  0  0  0  0  0  0  0
   59.9051   34.8169   49.5669 H   0  0  0  0  0  0  0  0  0  0  0  0
   61.0193   33.5354   48.9517 H   0  0  0  0  0  0  0  0  0  0  0  0
   60.6578   35.3034   46.9125 H   0  0  0  0  0  0  0  0  0  0  0  0
   59.5354   35.3314   44.6798 H   0  0  0  0  0  0  0  0  0  0  0  0
   57.5323   33.9017   44.2661 H   0  0  0  0  0  0  0  0  0  0  0  0
   56.6415   32.4401   46.0883 H   0  0  0  0  0  0  0  0  0  0  0  0
   57.7622   32.3953   48.3207 H   0  0  0  0  0  0  0  0  0  0  0  0
  1  2  2  0
  2  3  1  0
  3  4  2  0
  4  5  1  0
  5  6  2  0
  6  7  1  0
  7  8  2  0
  8  9  1  0
  9 10  1  0
 10 11  2  0
 11 12  1  0
 12 13  1  0
 13 14  1  0
 14 15  1  0
 15 16  1  0
 16 17  1  0
 17 18  1  0
 12 19  2  0
 19 20  1  0
 20 21  2  0
 21 22  1  0
 22 23  2  0
 22 24  2  0
 22 25  1  0
 25 26  1  0
 26 27  2  0
 26 28  1  0
 28 29  1  0
 29 30  1  0
 30 31  2  0
 31 32  1  0
 32 33  2  0
 33 34  1  0
 34 35  2  0
  8  3  1  0
 21 10  1  0
 35 30  1  0
 18 14  1  0
  1 36  1  0
  1 37  1  0
  2 38  1  0
  4 39  1  0
  5 40  1  0
  6 41  1  0
  7 42  1  0
 11 43  1  0
 14 44  1  0
 15 45  1  0
 15 46  1  0
 16 47  1  0
 16 48  1  0
 17 49  1  0
 17 50  1  0
 18 51  1  0
 18 52  1  0
 20 53  1  0
 28 54  1  0
 29 55  1  0
 29 56  1  0
 31 57  1  0
 32 58  1  0
 33 59  1  0
 34 60  1  0
 35 61  1  0
M  CHG  2  11   1  25  -1
M  END
>  <UniqueID>  (28) 
26

>  <SMILES>  (28) 
C=Cc1ccccc1Oc1[nH+]c(SC2CCCC2)ncc1S(=O)(=O)[N-]C(=O)NCc1ccccc1

>  <Energy>  (28) 
123.04401201088771

>  <Genealogy>  (28) 
C=Cc1ccccc1Oc1[nH+]c(SC2CCCC2)ncc1S(=O)(=O)[N-]C(=O)NCc1ccccc1 (protonated)
C=Cc1ccccc1Oc1[nH+]c(SC2CCCC2)ncc1S(=O)(=O)[N-]C(=O)NCc1ccccc1 (3D coordinates assigned)
C=Cc1ccccc1Oc1[nH+]c(SC2CCCC2)ncc1S(=O)(=O)[N-]C(=O)NCc1ccccc1 (nonaromatic ring conformer: 123.04401201088771 kcal/mol)

>  <smiles>  (28) 
C=Cc1ccccc1Oc1nc(SC2CCCC2)ncc1S(=O)(=O)NC(=O)NCc1ccccc1

>  <score_type>  (28) 
oracle

>  <origin>  (28) 
adg

>  <m_score__min__energy>  (28) 
-9.8100000000000005

>  <m_primary>  (28) 
energy

$$$$
28:0
     RDKit          3D

 51 53  0  0  0  0  0  0  0  0999 V2000
   58.1350   27.1270   43.3400 C   0  0  0  0  0  0  0  0  0  0  0  0
   58.1260   27.7910   44.7300 C   0  0  0  0  0  0  0  0  0  0  0  0
   59.5560   27.7820   45.3050 C   0  0  0  0  0  0  0  0  0  0  0  0
   57.1910   27.0070   45.6710 C   0  0  0  0  0  0  0  0  0  0  0  0
   57.6200   29.2110   44.5960 C   0  0  0  0  0  0  0  0  0  0  0  0
   58.3880   30.2400   44.1880 N   0  0  0  0  0  0  0  0  0  0  0  0
   57.5110   31.2640   44.2390 C   0  0  0  0  0  0  0  0  0  0  0  0
   57.8730   32.6820   43.9020 C   0  0  0  0  0  0  0  0  0  0  0  0
   57.5520   33.6470   44.9760 N   0  0  0  0  0  0  0  0  0  0  0  0
   57.4280   33.0700   46.3340 C   0  0  0  0  0  0  0  0  0  0  0  0
   58.5560   33.5110   47.2830 C   0  0  0  0  0  0  0  0  0  0  0  0
   59.8060   33.7110   46.5310 N   0  0  0  0  0  0  0  0  0  0  0  0
   60.9320   33.9160   47.4680 C   0  0  0  0  0  0  0  0  0  0  0  0
   62.0890   33.0300   47.1170 C   0  0  0  0  0  0  0  0  0  0  0  0
   63.1780   33.5460   46.7490 O   0  0  0  0  0  0  0  0  0  0  0  0
   61.9240   31.6030   47.1460 N   0  0  0  0  0  0  0  0  0  0  0  0
   61.0140   30.9150   47.7850 C   0  0  0  0  0  0  0  0  0  0  0  0
   61.1290   30.5640   49.1470 C   0  0  0  0  0  0  0  0  0  0  0  0
   60.1150   29.8170   49.7500 C   0  0  0  0  0  0  0  0  0  0  0  0
   59.0250   29.4340   49.0320 N   0  0  0  0  0  0  0  0  0  0  0  0
   58.8770   29.7780   47.7280 C   0  0  0  0  0  0  0  0  0  0  0  0
   59.8650   30.5270   47.0840 C   0  0  0  0  0  0  0  0  0  0  0  0
   59.6750   34.8560   45.5980 C   0  0  0  0  0  0  0  0  0  0  0  0
   58.2940   34.9200   44.9120 C   0  0  0  0  0  0  0  0  0  0  0  0
   56.2870   30.8820   44.6580 N   0  0  0  0  0  0  0  0  0  0  0  0
   56.3950   29.6070   44.8670 O   0  0  0  0  0  0  0  0  0  0  0  0
   58.1498   26.0333   43.4562 H   0  0  0  0  0  0  0  0  0  0  0  0
   57.2327   27.4246   42.7856 H   0  0  0  0  0  0  0  0  0  0  0  0
   59.0289   27.4490   42.7856 H   0  0  0  0  0  0  0  0  0  0  0  0
   59.5093   27.7823   46.4040 H   0  0  0  0  0  0  0  0  0  0  0  0
   60.0840   26.8805   44.9607 H   0  0  0  0  0  0  0  0  0  0  0  0
   60.0953   28.6768   44.9607 H   0  0  0  0  0  0  0  0  0  0  0  0
   57.4538   27.2274   46.7162 H   0  0  0  0  0  0  0  0  0  0  0  0
   56.1488   27.3052   45.4843 H   0  0  0  0  0  0  0  0  0  0  0  0
   57.3029   25.9288   45.4843 H   0  0  0  0  0  0  0  0  0  0  0  0
   58.9544   32.7274   43.7056 H   0  0  0  0  0  0  0  0  0  0  0  0
   57.2756   32.9671   43.0235 H   0  0  0  0  0  0  0  0  0  0  0  0
   56.4659   33.3873   46.7626 H   0  0  0  0  0  0  0  0  0  0  0  0
   57.4935   31.9766   46.2328 H   0  0  0  0  0  0  0  0  0  0  0  0
   58.2713   34.4545   47.7716 H   0  0  0  0  0  0  0  0  0  0  0  0
   58.7143   32.7283   48.0395 H   0  0  0  0  0  0  0  0  0  0  0  0
   61.2549   34.9664   47.4185 H   0  0  0  0  0  0  0  0  0  0  0  0
   60.5934   33.6653   48.4841 H   0  0  0  0  0  0  0  0  0  0  0  0
   62.0093   30.8760   49.7282 H   0  0  0  0  0  0  0  0  0  0  0  0
   60.1980   29.5370   50.8105 H   0  0  0  0  0  0  0  0  0  0  0  0
   57.9774   29.4666   47.1768 H   0  0  0  0  0  0  0  0  0  0  0  0
   59.7409   30.8114   46.0287 H   0  0  0  0  0  0  0  0  0  0  0  0
   59.8296   35.7875   46.1623 H   0  0  0  0  0  0  0  0  0  0  0  0
   60.4290   34.7246   44.8080 H   0  0  0  0  0  0  0  0  0  0  0  0
   57.6945   35.6989   45.4058 H   0  0  0  0  0  0  0  0  0  0  0  0
   58.4680   35.1430   43.8490 H   0  0  0  0  0  0  0  0  0  0  0  0
  1  2  1  0
  2  3  1  0
  2  4  1  0
  2  5  1  0
  5  6  2  0
  6  7  1  0
  7  8  1  0
  8  9  1  0
  9 10  1  0
 10 11  1  0
 11 12  1  0
 12 13  1  0
 13 14  1  0
 14 15  2  0
 14 16  1  0
 16 17  2  3
 17 18  1  0
 18 19  2  0
 19 20  1  0
 20 21  1  0
 21 22  2  0
 12 23  1  0
 23 24  1  0
  7 25  2  0
 25 26  1  0
 26  5  1  0
 24  9  1  0
 22 17  1  0
  1 27  1  0
  1 28  1  0
  1 29  1  0
  3 30  1  0
  3 31  1  0
  3 32  1  0
  4 33  1  0
  4 34  1  0
  4 35  1  0
  8 36  1  0
  8 37  1  0
 10 38  1  0
 10 39  1  0
 11 40  1  0
 11 41  1  0
 13 42  1  0
 13 43  1  0
 18 44  1  0
 19 45  1  0
 21 46  1  0
 22 47  1  0
 23 48  1  0
 23 49  1  0
 24 50  1  0
 24 51  1  0
M  CHG  1  20  -1
M  END
>  <UniqueID>  (29) 
27

>  <SMILES>  (29) 
CC(C)(C)c1nc(CN2CCN(CC(=O)N=c3cc[n-]cc3)CC2)no1

>  <Energy>  (29) 
98.12506947724044

>  <Genealogy>  (29) 
CC(C)(C)c1nc(CN2CCN(CC(=O)N=c3cc[n-]cc3)CC2)no1 (protonated)
CC(C)(C)c1nc(CN2CCN(CC(=O)N=c3cc[n-]cc3)CC2)no1 (3D coordinates assigned)
CC(C)(C)c1nc(CN2CCN(CC(=O)N=c3cc[n-]cc3)CC2)no1 (nonaromatic ring conformer: 98.12506947724044 kcal/mol)

>  <smiles>  (29) 
CC(C)(C)c1nc(CN2CCN(CC(=O)N=c3cc[nH]cc3)CC2)no1

>  <score_type>  (29) 
oracle

>  <origin>  (29) 
adg

>  <m_score__min__energy>  (29) 
-9.8900000000000006

>  <m_primary>  (29) 
energy

$$$$
29:0
     RDKit          3D

 60 63  0  0  0  0  0  0  0  0999 V2000
   59.8310   27.3980   45.7230 O   0  0  0  0  0  0  0  0  0  0  0  0
   58.6110   27.2500   46.0010 C   0  0  0  0  0  0  0  0  0  0  0  0
   57.9450   25.9350   45.7440 C   0  0  0  0  0  0  0  0  0  0  0  0
   56.9110   25.6450   46.8340 C   0  0  0  0  0  0  0  0  0  0  0  0
   55.5800   25.3360   46.2250 C   0  0  0  0  0  0  0  0  0  0  0  0
   54.7760   26.2750   45.9770 O   0  0  0  0  0  0  0  0  0  0  0  0
   55.2430   23.9760   45.9250 N   0  0  0  0  0  0  0  0  0  0  0  0
   55.8950   23.1200   44.9720 C   0  0  0  0  0  0  0  0  0  0  0  0
   55.6300   23.2230   43.5930 C   0  0  0  0  0  0  0  0  0  0  0  0
   56.2850   22.3910   42.6820 C   0  0  0  0  0  0  0  0  0  0  0  0
   57.1950   21.4360   43.1350 C   0  0  0  0  0  0  0  0  0  0  0  0
   57.4450   21.3020   44.5020 C   0  0  0  0  0  0  0  0  0  0  0  0
   56.8010   22.1370   45.4290 C   0  0  0  0  0  0  0  0  0  0  0  0
   57.0660   21.9640   46.8720 C   0  0  0  0  0  0  0  0  0  0  0  0
   57.0120   22.9670   47.6330 O   0  0  0  0  0  0  0  0  0  0  0  0
   57.4040   20.6900   47.4310 N   0  0  0  0  0  0  0  0  0  0  0  0
   56.4380   19.6270   47.6750 C   0  0  0  0  0  0  0  0  0  0  0  0
   56.0190   18.9130   46.4050 C   0  0  0  0  0  0  0  0  0  0  0  0
   55.0700   19.8960   47.0760 C   0  0  0  0  0  0  0  0  0  0  0  0
   57.8530   28.3290   46.5590 N   0  0  0  0  0  0  0  0  0  0  0  0
   57.5480   29.5600   45.8890 C   0  0  0  0  0  0  0  0  0  0  0  0
   58.3690   30.6710   46.1200 C   0  0  0  0  0  0  0  0  0  0  0  0
   58.0930   31.9010   45.5070 C   0  0  0  0  0  0  0  0  0  0  0  0
   59.1570   33.2810   45.7740 S   0  0  0  0  0  0  0  0  0  0  0  0
   58.5160   34.2060   46.7720 O   0  0  0  0  0  0  0  0  0  0  0  0
   59.3460   34.0310   44.4840 O   0  0  0  0  0  0  0  0  0  0  0  0
   60.6980   32.7340   46.3890 N   0  0  0  0  0  0  0  0  0  0  0  0
   61.6720   33.8400   46.3610 C   0  0  0  0  0  0  0  0  0  0  0  0
   62.9380   33.4800   47.1660 C   0  0  0  0  0  0  0  0  0  0  0  0
   62.9750   32.0990   47.4650 O   0  0  0  0  0  0  0  0  0  0  0  0
   61.8970   31.7680   48.3230 C   0  0  0  0  0  0  0  0  0  0  0  0
   60.5350   32.2310   47.7610 C   0  0  0  0  0  0  0  0  0  0  0  0
   56.9840   32.0210   44.6600 C   0  0  0  0  0  0  0  0  0  0  0  0
   56.1440   30.9250   44.4480 C   0  0  0  0  0  0  0  0  0  0  0  0
   56.4090   29.7010   45.0700 C   0  0  0  0  0  0  0  0  0  0  0  0
   55.5190   28.6460   44.8920 O   0  0  0  0  0  0  0  0  0  0  0  0
   57.4428   25.9670   44.7659 H   0  0  0  0  0  0  0  0  0  0  0  0
   58.7054   25.1401   45.7496 H   0  0  0  0  0  0  0  0  0  0  0  0
   57.2453   24.7829   47.4299 H   0  0  0  0  0  0  0  0  0  0  0  0
   56.8112   26.5334   47.4750 H   0  0  0  0  0  0  0  0  0  0  0  0
   54.9021   23.9638   43.2305 H   0  0  0  0  0  0  0  0  0  0  0  0
   56.0827   22.4892   41.6052 H   0  0  0  0  0  0  0  0  0  0  0  0
   57.7160   20.7880   42.4148 H   0  0  0  0  0  0  0  0  0  0  0  0
   58.1517   20.5367   44.8554 H   0  0  0  0  0  0  0  0  0  0  0  0
   56.8024   19.3184   48.6659 H   0  0  0  0  0  0  0  0  0  0  0  0
   56.4922   19.1722   45.4464 H   0  0  0  0  0  0  0  0  0  0  0  0
   55.9544   17.8615   46.0885 H   0  0  0  0  0  0  0  0  0  0  0  0
   54.8573   20.8660   46.6029 H   0  0  0  0  0  0  0  0  0  0  0  0
   54.0351   19.8503   47.4461 H   0  0  0  0  0  0  0  0  0  0  0  0
   59.2378   30.5775   46.7882 H   0  0  0  0  0  0  0  0  0  0  0  0
   61.9547   34.0445   45.3178 H   0  0  0  0  0  0  0  0  0  0  0  0
   61.2080   34.7282   46.8148 H   0  0  0  0  0  0  0  0  0  0  0  0
   63.8271   33.7435   46.5743 H   0  0  0  0  0  0  0  0  0  0  0  0
   62.9226   34.0420   48.1115 H   0  0  0  0  0  0  0  0  0  0  0  0
   61.8724   30.6762   48.4545 H   0  0  0  0  0  0  0  0  0  0  0  0
   62.0586   32.2852   49.2803 H   0  0  0  0  0  0  0  0  0  0  0  0
   59.8359   31.3817   47.7563 H   0  0  0  0  0  0  0  0  0  0  0  0
   60.1399   33.0382   48.3953 H   0  0  0  0  0  0  0  0  0  0  0  0
   56.7743   32.9788   44.1614 H   0  0  0  0  0  0  0  0  0  0  0  0
   55.2695   31.0254   43.7883 H   0  0  0  0  0  0  0  0  0  0  0  0
  1  2  2  0
  2  3  1  0
  3  4  1  0
  4  5  1  0
  5  6  2  0
  5  7  1  0
  7  8  1  0
  8  9  2  0
  9 10  1  0
 10 11  2  0
 11 12  1  0
 12 13  2  0
 13 14  1  0
 14 15  2  0
 14 16  1  0
 16 17  1  0
 17 18  1  0
 18 19  1  0
  2 20  1  0
 20 21  1  0
 21 22  2  0
 22 23  1  0
 23 24  1  0
 24 25  2  0
 24 26  2  0
 24 27  1  0
 27 28  1  0
 28 29  1  0
 29 30  1  0
 30 31  1  0
 31 32  1  0
 23 33  2  0
 33 34  1  0
 34 35  2  0
 35 36  1  0
 13  8  1  0
 19 17  1  0
 35 21  1  0
 32 27  1  0
  3 37  1  0
  3 38  1  0
  4 39  1  0
  4 40  1  0
  9 41  1  0
 10 42  1  0
 11 43  1  0
 12 44  1  0
 17 45  1  0
 18 46  1  0
 18 47  1  0
 19 48  1  0
 19 49  1  0
 22 50  1  0
 28 51  1  0
 28 52  1  0
 29 53  1  0
 29 54  1  0
 31 55  1  0
 31 56  1  0
 32 57  1  0
 32 58  1  0
 33 59  1  0
 34 60  1  0
M  CHG  4   7  -1  16  -1  20  -1  36  -1
M  END
>  <UniqueID>  (30) 
28

>  <SMILES>  (30) 
O=C(CCC(=O)[N-]c1ccccc1C(=O)[N-]C1CC1)[N-]c1cc(S(=O)(=O)N2CCOCC2)ccc1[O-]

>  <Energy>  (30) 
342.6956061172906

>  <Genealogy>  (30) 
O=C(CCC(=O)[N-]c1ccccc1C(=O)[N-]C1CC1)[N-]c1cc(S(=O)(=O)N2CCOCC2)ccc1[O-] (protonated)
O=C(CCC(=O)[N-]c1ccccc1C(=O)[N-]C1CC1)[N-]c1cc(S(=O)(=O)N2CCOCC2)ccc1[O-] (3D coordinates assigned)
O=C(CCC(=O)[N-]c1ccccc1C(=O)[N-]C1CC1)[N-]c1cc(S(=O)(=O)N2CCOCC2)ccc1[O-] (nonaromatic ring conformer: 342.6956061172906 kcal/mol)

>  <smiles>  (30) 
O=C(CCC(=O)Nc1ccccc1C(=O)NC1CC1)Nc1cc(S(=O)(=O)N2CCOCC2)ccc1O

>  <score_type>  (30) 
oracle

>  <origin>  (30) 
adg

>  <m_score__min__energy>  (30) 
-16.23

>  <m_primary>  (30) 
energy

$$$$
30:0
     RDKit          3D

 56 59  0  0  0  0  0  0  0  0999 V2000
   56.9770   34.5800   45.0040 C   0  0  0  0  0  0  0  0  0  0  0  0
   57.4380   33.4150   44.5510 C   0  0  0  0  0  0  0  0  0  0  0  0
   58.3130   32.5210   45.3520 C   0  0  0  0  0  0  0  0  0  0  0  0
   57.8770   31.2270   45.6460 C   0  0  0  0  0  0  0  0  0  0  0  0
   56.6480   30.7900   45.1550 O   0  0  0  0  0  0  0  0  0  0  0  0
   58.6520   30.3860   46.3980 N   0  0  0  0  0  0  0  0  0  0  0  0
   58.1640   29.0220   46.6800 C   0  0  0  0  0  0  0  0  0  0  0  0
   58.0750   28.1880   45.4290 C   0  0  0  0  0  0  0  0  0  0  0  0
   58.7320   28.4660   44.2450 C   0  0  0  0  0  0  0  0  0  0  0  0
   58.5530   27.4590   43.3720 N   0  0  0  0  0  0  0  0  0  0  0  0
   57.8010   26.5250   43.9810 C   0  0  0  0  0  0  0  0  0  0  0  0
   57.4950   26.9370   45.2640 C   0  0  0  0  0  0  0  0  0  0  0  0
   56.6800   26.1800   46.2250 C   0  0  0  0  0  0  0  0  0  0  0  0
   57.2130   25.7680   47.2890 O   0  0  0  0  0  0  0  0  0  0  0  0
   55.2860   25.9410   46.0130 N   0  0  0  0  0  0  0  0  0  0  0  0
   54.5850   24.3680   45.8080 S   0  0  0  0  0  0  0  0  0  0  0  0
   53.2260   24.4990   45.1790 O   0  0  0  0  0  0  0  0  0  0  0  0
   54.4290   23.7190   47.1550 O   0  0  0  0  0  0  0  0  0  0  0  0
   55.6430   23.3650   44.8200 C   0  0  0  0  0  0  0  0  0  0  0  0
   56.6640   22.6250   45.4320 C   0  0  0  0  0  0  0  0  0  0  0  0
   57.5360   21.8550   44.6570 C   0  0  0  0  0  0  0  0  0  0  0  0
   57.3950   21.8270   43.2650 C   0  0  0  0  0  0  0  0  0  0  0  0
   56.3800   22.5650   42.6500 C   0  0  0  0  0  0  0  0  0  0  0  0
   55.5010   23.3300   43.4240 C   0  0  0  0  0  0  0  0  0  0  0  0
   59.8750   30.8060   46.8590 C   0  0  0  0  0  0  0  0  0  0  0  0
   60.5940   30.0180   47.5370 O   0  0  0  0  0  0  0  0  0  0  0  0
   60.3190   32.0800   46.6080 N   0  0  0  0  0  0  0  0  0  0  0  0
   61.6440   32.5050   47.1100 C   0  0  0  0  0  0  0  0  0  0  0  0
   61.5350   32.9880   48.5340 C   0  0  0  0  0  0  0  0  0  0  0  0
   62.6940   33.2150   49.2940 C   0  0  0  0  0  0  0  0  0  0  0  0
   62.5950   33.6350   50.6240 C   0  0  0  0  0  0  0  0  0  0  0  0
   61.3400   33.8300   51.2060 C   0  0  0  0  0  0  0  0  0  0  0  0
   60.1810   33.6020   50.4570 C   0  0  0  0  0  0  0  0  0  0  0  0
   60.2760   33.1820   49.1270 C   0  0  0  0  0  0  0  0  0  0  0  0
   59.5480   32.9420   45.8730 C   0  0  0  0  0  0  0  0  0  0  0  0
   59.9320   34.1290   45.6820 O   0  0  0  0  0  0  0  0  0  0  0  0
   56.3317   35.2017   44.3660 H   0  0  0  0  0  0  0  0  0  0  0  0
   57.2416   34.9202   46.0161 H   0  0  0  0  0  0  0  0  0  0  0  0
   57.1572   33.1001   43.5351 H   0  0  0  0  0  0  0  0  0  0  0  0
   58.8554   28.5352   47.3836 H   0  0  0  0  0  0  0  0  0  0  0  0
   57.1542   29.1028   47.1086 H   0  0  0  0  0  0  0  0  0  0  0  0
   59.3155   29.3771   44.0462 H   0  0  0  0  0  0  0  0  0  0  0  0
   58.9360   27.4050   42.4020 H   0  0  0  0  0  0  0  0  0  0  0  0
   57.4784   25.5766   43.5266 H   0  0  0  0  0  0  0  0  0  0  0  0
   56.7794   22.6503   46.5256 H   0  0  0  0  0  0  0  0  0  0  0  0
   58.3328   21.2713   45.1411 H   0  0  0  0  0  0  0  0  0  0  0  0
   58.0833   21.2239   42.6547 H   0  0  0  0  0  0  0  0  0  0  0  0
   56.2721   22.5443   41.5555 H   0  0  0  0  0  0  0  0  0  0  0  0
   54.6983   23.9043   42.9384 H   0  0  0  0  0  0  0  0  0  0  0  0
   62.3381   31.6527   47.0683 H   0  0  0  0  0  0  0  0  0  0  0  0
   62.0174   33.3269   46.4815 H   0  0  0  0  0  0  0  0  0  0  0  0
   63.6845   33.0616   48.8407 H   0  0  0  0  0  0  0  0  0  0  0  0
   63.5069   33.8122   51.2131 H   0  0  0  0  0  0  0  0  0  0  0  0
   61.2635   34.1624   52.2518 H   0  0  0  0  0  0  0  0  0  0  0  0
   59.1926   33.7535   50.9154 H   0  0  0  0  0  0  0  0  0  0  0  0
   59.3616   33.0027   48.5424 H   0  0  0  0  0  0  0  0  0  0  0  0
  1  2  2  0
  2  3  1  0
  3  4  2  0
  4  5  1  0
  4  6  1  0
  6  7  1  0
  7  8  1  0
  8  9  2  0
  9 10  1  0
 10 11  1  0
 11 12  2  0
 12 13  1  0
 13 14  2  0
 13 15  1  0
 15 16  1  0
 16 17  2  0
 16 18  2  0
 16 19  1  0
 19 20  2  0
 20 21  1  0
 21 22  2  0
 22 23  1  0
 23 24  2  0
  6 25  1  0
 25 26  2  0
 25 27  1  0
 27 28  1  0
 28 29  1  0
 29 30  2  0
 30 31  1  0
 31 32  2  0
 32 33  1  0
 33 34  2  0
 27 35  1  0
 35 36  2  0
 35  3  1  0
 12  8  1  0
 24 19  1  0
 34 29  1  0
  1 37  1  0
  1 38  1  0
  2 39  1  0
  7 40  1  0
  7 41  1  0
  9 42  1  0
 10 43  1  0
 11 44  1  0
 20 45  1  0
 21 46  1  0
 22 47  1  0
 23 48  1  0
 24 49  1  0
 28 50  1  0
 28 51  1  0
 30 52  1  0
 31 53  1  0
 32 54  1  0
 33 55  1  0
 34 56  1  0
M  CHG  2   5  -1  15  -1
M  END
>  <UniqueID>  (31) 
29

>  <SMILES>  (31) 
C=Cc1c([O-])n(Cc2c[nH]cc2C(=O)[N-]S(=O)(=O)c2ccccc2)c(=O)n(Cc2ccccc2)c1=O

>  <Energy>  (31) 
102.40192709536117

>  <Genealogy>  (31) 
C=Cc1c([O-])n(Cc2c[nH]cc2C(=O)[N-]S(=O)(=O)c2ccccc2)c(=O)n(Cc2ccccc2)c1=O (protonated)
C=Cc1c([O-])n(Cc2c[nH]cc2C(=O)[N-]S(=O)(=O)c2ccccc2)c(=O)n(Cc2ccccc2)c1=O (3D coordinates assigned)
C=Cc1c([O-])n(Cc2c[nH]cc2C(=O)[N-]S(=O)(=O)c2ccccc2)c(=O)n(Cc2ccccc2)c1=O (optimized conformer: 102.40192709536117 kcal/mol)

>  <smiles>  (31) 
C=Cc1c(O)n(Cc2c[nH]cc2C(=O)NS(=O)(=O)c2ccccc2)c(=O)n(Cc2ccccc2)c1=O

>  <score_type>  (31) 
oracle

>  <origin>  (31) 
adg

>  <m_score__min__energy>  (31) 
-13.369999999999999

>  <m_primary>  (31) 
energy

$$$$
31:0
     RDKit          3D

 50 53  0  0  0  0  0  0  0  0999 V2000
   54.0490   26.4950   46.7430 H   0  0  0  0  0  0  0  0  0  0  0  0
   54.2620   26.0530   45.8580 O   0  0  0  0  0  0  0  0  0  0  0  0
   53.9470   24.7190   45.6120 C   0  0  0  0  0  0  0  0  0  0  0  0
   52.6910   24.2450   45.6320 N   0  0  0  0  0  0  0  0  0  0  0  0
   52.8650   22.9230   45.4180 C   0  0  0  0  0  0  0  0  0  0  0  0
   51.9040   22.1120   45.3710 O   0  0  0  0  0  0  0  0  0  0  0  0
   54.1500   22.5380   45.2660 N   0  0  0  0  0  0  0  0  0  0  0  0
   54.8360   23.6910   45.3690 C   0  0  0  0  0  0  0  0  0  0  0  0
   56.3050   23.7620   45.3040 C   0  0  0  0  0  0  0  0  0  0  0  0
   56.8818   22.8666   45.5790 H   0  0  0  0  0  0  0  0  0  0  0  0
   56.9810   24.8640   44.9260 C   0  0  0  0  0  0  0  0  0  0  0  0
   57.3620   25.1910   43.6300 C   0  0  0  0  0  0  0  0  0  0  0  0
   57.1493   24.6156   42.7170 H   0  0  0  0  0  0  0  0  0  0  0  0
   58.0600   26.3800   43.7130 C   0  0  0  0  0  0  0  0  0  0  0  0
   58.6860   27.0930   42.5550 C   0  0  0  0  0  0  0  0  0  0  0  0
   59.3686   27.8705   42.9287 H   0  0  0  0  0  0  0  0  0  0  0  0
   59.2496   26.3736   41.9427 H   0  0  0  0  0  0  0  0  0  0  0  0
   57.8998   27.5588   41.9427 H   0  0  0  0  0  0  0  0  0  0  0  0
   58.1350   26.7920   44.9960 N   0  0  0  0  0  0  0  0  0  0  0  0
   58.7990   27.9820   45.4560 C   0  0  0  0  0  0  0  0  0  0  0  0
   60.0390   27.8750   46.0880 C   0  0  0  0  0  0  0  0  0  0  0  0
   60.6070   26.6560   46.2690 F   0  0  0  0  0  0  0  0  0  0  0  0
   60.7070   29.0170   46.5340 C   0  0  0  0  0  0  0  0  0  0  0  0
   61.6805   28.9121   47.0353 H   0  0  0  0  0  0  0  0  0  0  0  0
   60.1550   30.3050   46.3530 C   0  0  0  0  0  0  0  0  0  0  0  0
   60.8590   31.5030   46.8130 N   0  0  0  0  0  0  0  0  0  0  0  0
   60.2080   32.8230   46.6730 C   0  0  0  0  0  0  0  0  0  0  0  0
   60.0498   33.0204   45.6025 H   0  0  0  0  0  0  0  0  0  0  0  0
   59.2637   32.7771   47.2353 H   0  0  0  0  0  0  0  0  0  0  0  0
   61.0240   33.9770   47.2620 C   0  0  0  0  0  0  0  0  0  0  0  0
   60.6995   34.9203   46.7985 H   0  0  0  0  0  0  0  0  0  0  0  0
   60.8579   34.0045   48.3490 H   0  0  0  0  0  0  0  0  0  0  0  0
   62.4000   33.7960   47.0230 O   0  0  0  0  0  0  0  0  0  0  0  0
   62.8430   32.7050   47.7950 C   0  0  0  0  0  0  0  0  0  0  0  0
   63.9409   32.6545   47.7499 H   0  0  0  0  0  0  0  0  0  0  0  0
   62.5066   32.8496   48.8323 H   0  0  0  0  0  0  0  0  0  0  0  0
   62.2590   31.3900   47.2710 C   0  0  0  0  0  0  0  0  0  0  0  0
   62.8746   31.0491   46.4255 H   0  0  0  0  0  0  0  0  0  0  0  0
   62.2666   30.6780   48.1095 H   0  0  0  0  0  0  0  0  0  0  0  0
   58.8920   30.3940   45.7200 C   0  0  0  0  0  0  0  0  0  0  0  0
   58.4354   31.3831   45.5678 H   0  0  0  0  0  0  0  0  0  0  0  0
   58.2090   29.2480   45.2820 C   0  0  0  0  0  0  0  0  0  0  0  0
   56.8750   29.3830   44.5990 C   0  0  0  0  0  0  0  0  0  0  0  0
   56.0816   29.4633   45.3567 H   0  0  0  0  0  0  0  0  0  0  0  0
   56.8745   30.2858   43.9705 H   0  0  0  0  0  0  0  0  0  0  0  0
   56.6937   28.4986   43.9705 H   0  0  0  0  0  0  0  0  0  0  0  0
   57.4800   25.8760   45.7510 C   0  0  0  0  0  0  0  0  0  0  0  0
   57.3400   25.9680   47.0820 C   0  0  0  0  0  0  0  0  0  0  0  0
   57.7811   26.8175   47.6240 H   0  0  0  0  0  0  0  0  0  0  0  0
   56.7841   25.1939   47.6314 H   0  0  0  0  0  0  0  0  0  0  0  0
  1  2  1  0
  2  3  1  0
  3  4  1  0
  4  5  1  0
  5  6  2  0
  5  7  1  0
  7  8  1  0
  8  9  1  0
  9 10  1  0
  9 11  2  0
 11 12  1  0
 12 13  1  0
 12 14  2  0
 14 15  1  0
 15 16  1  0
 15 17  1  0
 15 18  1  0
 14 19  1  0
 19 20  1  0
 20 21  2  0
 21 22  1  0
 21 23  1  0
 23 24  1  0
 23 25  2  0
 25 26  1  0
 26 27  1  0
 27 28  1  0
 27 29  1  0
 27 30  1  0
 30 31  1  0
 30 32  1  0
 30 33  1  0
 33 34  1  0
 34 35  1  0
 34 36  1  0
 34 37  1  0
 37 38  1  0
 37 39  1  0
 25 40  1  0
 40 41  1  0
 40 42  2  0
 42 43  1  0
 43 44  1  0
 43 45  1  0
 43 46  1  0
 19 47  1  0
 47 48  2  0
 48 49  1  0
 48 50  1  0
  8  3  2  0
 47 11  1  0
 42 20  1  0
 37 26  1  0
M  CHG  2   4  -1   7  -1
M  END
>  <UniqueID>  (32) 
30

>  <SMILES>  (32) 
C=c1/c(=C/c2[n-]c(=O)[n-]c2O)cc(C)n1-c1c(C)cc(N2CCOCC2)cc1F

>  <Energy>  (32) 
131.49222502746866

>  <Genealogy>  (32) 
C=c1c(=Cc2[n-]c(=O)[n-]c2O)cc(C)n1-c1c(C)cc(N2CCOCC2)cc1F (protonated)
C=c1/c(=C/c2[n-]c(=O)[n-]c2O)cc(C)n1-c1c(C)cc(N2CCOCC2)cc1F (cis-trans isomerization)
C=c1/c(=C/c2[n-]c(=O)[n-]c2O)cc(C)n1-c1c(C)cc(N2CCOCC2)cc1F (3D coordinates assigned)
C=c1/c(=C/c2[n-]c(=O)[n-]c2O)cc(C)n1-c1c(C)cc(N2CCOCC2)cc1F (nonaromatic ring conformer: 131.49222502746866 kcal/mol)

>  <smiles>  (32) 
C=c1c(=Cc2[nH]c(=O)[nH]c2O)cc(C)n1-c1c(C)cc(N2CCOCC2)cc1F

>  <score_type>  (32) 
oracle

>  <origin>  (32) 
adg

>  <m_score__min__energy>  (32) 
-12.390000000000001

>  <m_primary>  (32) 
energy

$$$$
32:0
     RDKit          3D

 51 54  0  0  0  0  0  0  0  0999 V2000
   59.1210   28.8080   48.9300 C   0  0  0  0  0  0  0  0  0  0  0  0
   58.7080   29.8120   48.1390 C   0  0  0  0  0  0  0  0  0  0  0  0
   58.3740   29.7480   46.7730 C   0  0  0  0  0  0  0  0  0  0  0  0
   58.3050   28.7110   45.9160 C   0  0  0  0  0  0  0  0  0  0  0  0
   57.5120   27.4880   46.1160 C   0  0  0  0  0  0  0  0  0  0  0  0
   56.1490   27.4590   45.7920 C   0  0  0  0  0  0  0  0  0  0  0  0
   55.5260   28.5750   45.2470 O   0  0  0  0  0  0  0  0  0  0  0  0
   55.4270   26.3270   46.0050 N   0  0  0  0  0  0  0  0  0  0  0  0
   56.0030   25.2200   46.5410 C   0  0  0  0  0  0  0  0  0  0  0  0
   55.3170   24.1830   46.7270 O   0  0  0  0  0  0  0  0  0  0  0  0
   57.3190   25.2330   46.8800 N   0  0  0  0  0  0  0  0  0  0  0  0
   58.0810   26.3390   46.6860 C   0  0  0  0  0  0  0  0  0  0  0  0
   59.2950   26.3220   47.0230 O   0  0  0  0  0  0  0  0  0  0  0  0
   58.1050   31.0490   46.3810 C   0  0  0  0  0  0  0  0  0  0  0  0
   58.2580   31.8460   47.4930 C   0  0  0  0  0  0  0  0  0  0  0  0
   58.1170   33.3400   47.4870 C   0  0  0  0  0  0  0  0  0  0  0  0
   58.6050   31.1000   48.5650 N   0  0  0  0  0  0  0  0  0  0  0  0
   58.8620   31.6100   49.8900 C   0  0  0  0  0  0  0  0  0  0  0  0
   57.7750   31.9400   50.7150 C   0  0  0  0  0  0  0  0  0  0  0  0
   57.9840   32.4730   51.9870 C   0  0  0  0  0  0  0  0  0  0  0  0
   59.2810   32.6920   52.4480 C   0  0  0  0  0  0  0  0  0  0  0  0
   60.3740   32.3730   51.6410 C   0  0  0  0  0  0  0  0  0  0  0  0
   60.1830   31.8150   50.3650 C   0  0  0  0  0  0  0  0  0  0  0  0
   61.3730   31.5030   49.5440 C   0  0  0  0  0  0  0  0  0  0  0  0
   61.8260   30.3260   49.5540 O   0  0  0  0  0  0  0  0  0  0  0  0
   62.0210   32.5020   48.7360 N   0  0  0  0  0  0  0  0  0  0  0  0
   61.2280   33.5190   48.0270 C   0  0  0  0  0  0  0  0  0  0  0  0
   61.7160   33.6720   46.5830 C   0  0  0  0  0  0  0  0  0  0  0  0
   63.2110   33.8350   46.5370 C   0  0  0  0  0  0  0  0  0  0  0  0
   63.7560   34.1540   45.4910 O   0  0  0  0  0  0  0  0  0  0  0  0
   64.0300   33.6310   47.7810 C   0  0  0  0  0  0  0  0  0  0  0  0
   63.4840   32.4390   48.5760 C   0  0  0  0  0  0  0  0  0  0  0  0
   59.3497   29.0003   49.9886 H   0  0  0  0  0  0  0  0  0  0  0  0
   59.2305   27.7935   48.5191 H   0  0  0  0  0  0  0  0  0  0  0  0
   58.8912   28.7848   44.9881 H   0  0  0  0  0  0  0  0  0  0  0  0
   57.8224   31.3824   45.3716 H   0  0  0  0  0  0  0  0  0  0  0  0
   58.0822   33.7092   48.5226 H   0  0  0  0  0  0  0  0  0  0  0  0
   58.9769   33.7874   46.9670 H   0  0  0  0  0  0  0  0  0  0  0  0
   57.1886   33.6186   46.9670 H   0  0  0  0  0  0  0  0  0  0  0  0
   56.7486   31.7767   50.3548 H   0  0  0  0  0  0  0  0  0  0  0  0
   57.1243   32.7207   52.6269 H   0  0  0  0  0  0  0  0  0  0  0  0
   59.4434   33.1170   53.4495 H   0  0  0  0  0  0  0  0  0  0  0  0
   61.3944   32.5599   52.0068 H   0  0  0  0  0  0  0  0  0  0  0  0
   60.1711   33.2142   48.0212 H   0  0  0  0  0  0  0  0  0  0  0  0
   61.3428   34.4829   48.5445 H   0  0  0  0  0  0  0  0  0  0  0  0
   61.4334   32.7764   46.0103 H   0  0  0  0  0  0  0  0  0  0  0  0
   61.2507   34.5686   46.1475 H   0  0  0  0  0  0  0  0  0  0  0  0
   65.0755   33.4346   47.5012 H   0  0  0  0  0  0  0  0  0  0  0  0
   63.9753   34.5366   48.4030 H   0  0  0  0  0  0  0  0  0  0  0  0
   63.7430   31.5107   48.0458 H   0  0  0  0  0  0  0  0  0  0  0  0
   63.9355   32.4657   49.5787 H   0  0  0  0  0  0  0  0  0  0  0  0
  1  2  2  0
  2  3  1  0
  3  4  2  3
  4  5  1  0
  5  6  2  0
  6  7  1  0
  6  8  1  0
  8  9  1  0
  9 10  2  0
  9 11  1  0
 11 12  1  0
 12 13  2  0
  3 14  1  0
 14 15  2  0
 15 16  1  0
 15 17  1  0
 17 18  1  0
 18 19  2  0
 19 20  1  0
 20 21  2  0
 21 22  1  0
 22 23  2  0
 23 24  1  0
 24 25  2  0
 24 26  1  0
 26 27  1  0
 27 28  1  0
 28 29  1  0
 29 30  2  0
 29 31  1  0
 31 32  1  0
 17  2  1  0
 23 18  1  0
 32 26  1  0
 12  5  1  0
  1 33  1  0
  1 34  1  0
  4 35  1  0
 14 36  1  0
 16 37  1  0
 16 38  1  0
 16 39  1  0
 19 40  1  0
 20 41  1  0
 21 42  1  0
 22 43  1  0
 27 44  1  0
 27 45  1  0
 28 46  1  0
 28 47  1  0
 31 48  1  0
 31 49  1  0
 32 50  1  0
 32 51  1  0
M  CHG  3   7  -1   8  -1  11  -1
M  END
>  <UniqueID>  (33) 
31

>  <SMILES>  (33) 
C=c1c(=Cc2c([O-])[n-]c(=O)[n-]c2=O)cc(C)n1-c1ccccc1C(=O)N1CCC(=O)CC1

>  <Energy>  (33) 
105.92179490149812

>  <Genealogy>  (33) 
C=c1c(=Cc2c([O-])[n-]c(=O)[n-]c2=O)cc(C)n1-c1ccccc1C(=O)N1CCC(=O)CC1 (protonated)
C=c1c(=Cc2c([O-])[n-]c(=O)[n-]c2=O)cc(C)n1-c1ccccc1C(=O)N1CCC(=O)CC1 (3D coordinates assigned)
C=c1c(=Cc2c([O-])[n-]c(=O)[n-]c2=O)cc(C)n1-c1ccccc1C(=O)N1CCC(=O)CC1 (nonaromatic ring conformer: 105.92179490149812 kcal/mol)

>  <smiles>  (33) 
C=c1c(=Cc2c(O)[nH]c(=O)[nH]c2=O)cc(C)n1-c1ccccc1C(=O)N1CCC(=O)CC1

>  <score_type>  (33) 
oracle

>  <origin>  (33) 
adg

>  <m_score__min__energy>  (33) 
-17.23

>  <m_primary>  (33) 
energy

$$$$
33:0
     RDKit          3D

 35 37  0  0  0  0  0  0  0  0999 V2000
   55.1400   27.6400   45.5650 H   0  0  0  0  0  0  0  0  0  0  0  0
   55.0640   26.7170   45.9750 O   0  0  0  0  0  0  0  0  0  0  0  0
   56.1840   25.9130   46.1840 C   0  0  0  0  0  0  0  0  0  0  0  0
   56.0210   24.6230   46.7110 C   0  0  0  0  0  0  0  0  0  0  0  0
   55.0104   24.2418   46.9192 H   0  0  0  0  0  0  0  0  0  0  0  0
   57.1320   23.8200   46.9730 C   0  0  0  0  0  0  0  0  0  0  0  0
   56.9610   22.5440   47.4970 O   0  0  0  0  0  0  0  0  0  0  0  0
   58.4160   24.3000   46.7110 C   0  0  0  0  0  0  0  0  0  0  0  0
   59.2918   23.6689   46.9224 H   0  0  0  0  0  0  0  0  0  0  0  0
   58.5910   25.5800   46.1810 C   0  0  0  0  0  0  0  0  0  0  0  0
   59.6067   25.9537   45.9845 H   0  0  0  0  0  0  0  0  0  0  0  0
   57.4820   26.3960   45.8960 C   0  0  0  0  0  0  0  0  0  0  0  0
   57.7110   27.7440   45.3240 C   0  0  0  0  0  0  0  0  0  0  0  0
   56.8680   28.7790   45.5920 N   0  0  0  0  0  0  0  0  0  0  0  0
   57.2730   29.9240   45.0000 C   0  0  0  0  0  0  0  0  0  0  0  0
   56.6450   31.0580   45.0890 N   0  0  0  0  0  0  0  0  0  0  0  0
   57.2530   32.3580   45.1590 C   0  0  0  0  0  0  0  0  0  0  0  0
   57.5170   33.0120   44.1130 O   0  0  0  0  0  0  0  0  0  0  0  0
   57.6090   32.9270   46.4950 C   0  0  0  0  0  0  0  0  0  0  0  0
   57.1945   33.9424   46.5795 H   0  0  0  0  0  0  0  0  0  0  0  0
   57.1898   32.2832   47.2823 H   0  0  0  0  0  0  0  0  0  0  0  0
   59.1070   32.9860   46.6540 C   0  0  0  0  0  0  0  0  0  0  0  0
   59.7970   34.1370   46.2300 C   0  0  0  0  0  0  0  0  0  0  0  0
   59.2417   34.9665   45.7679 H   0  0  0  0  0  0  0  0  0  0  0  0
   61.1810   34.2350   46.3910 C   0  0  0  0  0  0  0  0  0  0  0  0
   61.7117   35.1356   46.0486 H   0  0  0  0  0  0  0  0  0  0  0  0
   61.8910   33.1910   46.9860 C   0  0  0  0  0  0  0  0  0  0  0  0
   62.9814   33.2682   47.1091 H   0  0  0  0  0  0  0  0  0  0  0  0
   61.2190   32.0490   47.4250 C   0  0  0  0  0  0  0  0  0  0  0  0
   61.7824   31.2301   47.8961 H   0  0  0  0  0  0  0  0  0  0  0  0
   59.8310   31.9400   47.2690 C   0  0  0  0  0  0  0  0  0  0  0  0
   59.0390   30.4830   47.8610 Cl  0  0  0  0  0  0  0  0  0  0  0  0
   58.6910   29.7150   44.1340 S   0  0  0  0  0  0  0  0  0  0  0  0
   58.8060   28.0810   44.5220 C   0  0  0  0  0  0  0  0  0  0  0  0
   59.6046   27.3964   44.2002 H   0  0  0  0  0  0  0  0  0  0  0  0
  1  2  1  0
  2  3  1  0
  3  4  2  0
  4  5  1  0
  4  6  1  0
  6  7  1  0
  6  8  2  0
  8  9  1  0
  8 10  1  0
 10 11  1  0
 10 12  2  0
 12 13  1  0
 13 14  1  0
 14 15  1  0
 15 16  2  0
 16 17  1  0
 17 18  2  0
 17 19  1  0
 19 20  1  0
 19 21  1  0
 19 22  1  0
 22 23  2  0
 23 24  1  0
 23 25  1  0
 25 26  1  0
 25 27  2  0
 27 28  1  0
 27 29  1  0
 29 30  1  0
 29 31  2  0
 31 32  1  0
 15 33  1  0
 33 34  1  0
 34 35  1  0
 12  3  1  0
 34 13  2  0
 31 22  1  0
M  CHG  2   7  -1  14  -1
M  END
>  <UniqueID>  (34) 
32

>  <SMILES>  (34) 
O=C(Cc1ccccc1Cl)/N=c1\[n-]c(-c2ccc([O-])cc2O)cs1

>  <Energy>  (34) 
73.25414722056007

>  <Genealogy>  (34) 
O=C(Cc1ccccc1Cl)N=c1[n-]c(-c2ccc([O-])cc2O)cs1 (protonated)
O=C(Cc1ccccc1Cl)/N=c1\[n-]c(-c2ccc([O-])cc2O)cs1 (cis-trans isomerization)
O=C(Cc1ccccc1Cl)/N=c1\[n-]c(-c2ccc([O-])cc2O)cs1 (3D coordinates assigned)
O=C(Cc1ccccc1Cl)/N=c1\[n-]c(-c2ccc([O-])cc2O)cs1 (optimized conformer: 73.25414722056007 kcal/mol)

>  <smiles>  (34) 
O=C(Cc1ccccc1Cl)N=c1[nH]c(-c2ccc(O)cc2O)cs1

>  <score_type>  (34) 
oracle

>  <origin>  (34) 
adg

>  <m_score__min__energy>  (34) 
-12.470000000000001

>  <m_primary>  (34) 
energy

$$$$
34:0
     RDKit          3D

 47 49  0  0  0  0  0  0  0  0999 V2000
   55.4910   29.1860   44.8700 N   0  0  0  0  0  0  0  0  0  0  0  0
   56.6930   29.9320   45.0360 C   0  0  0  0  0  0  0  0  0  0  0  0
   56.8110   31.0510   44.4690 O   0  0  0  0  0  0  0  0  0  0  0  0
   57.8000   29.3730   45.8350 C   0  0  0  0  0  0  0  0  0  0  0  0
   58.7490   30.1210   46.5080 C   0  0  0  0  0  0  0  0  0  0  0  0
   59.5450   29.3080   47.2270 N   0  0  0  0  0  0  0  0  0  0  0  0
   60.6060   29.7290   48.1380 C   0  0  0  0  0  0  0  0  0  0  0  0
   60.9920   31.1530   47.8480 C   0  0  0  0  0  0  0  0  0  0  0  0
   60.1070   32.2010   48.1480 C   0  0  0  0  0  0  0  0  0  0  0  0
   60.4830   33.5270   47.9190 C   0  0  0  0  0  0  0  0  0  0  0  0
   61.7480   33.8170   47.4020 C   0  0  0  0  0  0  0  0  0  0  0  0
   62.6460   32.7790   47.1160 C   0  0  0  0  0  0  0  0  0  0  0  0
   63.9130   33.0570   46.6070 O   0  0  0  0  0  0  0  0  0  0  0  0
   62.2680   31.4520   47.3430 C   0  0  0  0  0  0  0  0  0  0  0  0
   59.1160   28.0450   47.0410 C   0  0  0  0  0  0  0  0  0  0  0  0
   58.0420   28.0410   46.1700 C   0  0  0  0  0  0  0  0  0  0  0  0
   57.3400   26.8310   45.6980 C   0  0  0  0  0  0  0  0  0  0  0  0
   58.0210   25.8490   44.9630 C   0  0  0  0  0  0  0  0  0  0  0  0
   57.3580   24.6940   44.5420 C   0  0  0  0  0  0  0  0  0  0  0  0
   56.0100   24.4880   44.8720 C   0  0  0  0  0  0  0  0  0  0  0  0
   55.3130   23.2690   44.4150 C   0  0  0  0  0  0  0  0  0  0  0  0
   54.2820   23.3870   43.7020 O   0  0  0  0  0  0  0  0  0  0  0  0
   55.7670   21.9540   44.7600 N   0  0  0  0  0  0  0  0  0  0  0  0
   57.0950   21.4120   44.4820 C   0  0  0  0  0  0  0  0  0  0  0  0
   57.2280   21.0330   43.0060 C   0  0  0  0  0  0  0  0  0  0  0  0
   56.3160   21.7650   42.2330 O   0  0  0  0  0  0  0  0  0  0  0  0
   55.3250   25.4690   45.6110 C   0  0  0  0  0  0  0  0  0  0  0  0
   53.9870   25.2950   45.9480 O   0  0  0  0  0  0  0  0  0  0  0  0
   55.9910   26.6270   46.0290 C   0  0  0  0  0  0  0  0  0  0  0  0
   54.6740   29.3380   45.5020 H   0  0  0  0  0  0  0  0  0  0  0  0
   58.8396   31.2163   46.4624 H   0  0  0  0  0  0  0  0  0  0  0  0
   60.2484   29.6517   49.1754 H   0  0  0  0  0  0  0  0  0  0  0  0
   61.4829   29.0797   47.9985 H   0  0  0  0  0  0  0  0  0  0  0  0
   59.1140   31.9772   48.5649 H   0  0  0  0  0  0  0  0  0  0  0  0
   59.7820   34.3437   48.1461 H   0  0  0  0  0  0  0  0  0  0  0  0
   62.0400   34.8616   47.2190 H   0  0  0  0  0  0  0  0  0  0  0  0
   64.6810   32.4050   46.7150 H   0  0  0  0  0  0  0  0  0  0  0  0
   62.9743   30.6374   47.1247 H   0  0  0  0  0  0  0  0  0  0  0  0
   59.5537   27.1519   47.5108 H   0  0  0  0  0  0  0  0  0  0  0  0
   59.0838   25.9896   44.7167 H   0  0  0  0  0  0  0  0  0  0  0  0
   57.8963   23.9409   43.9478 H   0  0  0  0  0  0  0  0  0  0  0  0
   57.8530   22.1697   44.7297 H   0  0  0  0  0  0  0  0  0  0  0  0
   57.2427   20.5092   45.0929 H   0  0  0  0  0  0  0  0  0  0  0  0
   58.2507   21.2523   42.6655 H   0  0  0  0  0  0  0  0  0  0  0  0
   57.0152   19.9599   42.8909 H   0  0  0  0  0  0  0  0  0  0  0  0
   55.4880   21.8490   42.7750 H   0  0  0  0  0  0  0  0  0  0  0  0
   55.4536   27.3825   46.6210 H   0  0  0  0  0  0  0  0  0  0  0  0
  1  2  1  0
  2  3  2  0
  2  4  1  0
  4  5  2  0
  5  6  1  0
  6  7  1  0
  7  8  1  0
  8  9  2  0
  9 10  1  0
 10 11  2  0
 11 12  1  0
 12 13  1  0
 12 14  2  0
  6 15  1  0
 15 16  2  0
 16 17  1  0
 17 18  2  0
 18 19  1  0
 19 20  2  0
 20 21  1  0
 21 22  2  0
 21 23  1  0
 23 24  1  0
 24 25  1  0
 25 26  1  0
 20 27  1  0
 27 28  1  0
 27 29  2  0
 16  4  1  0
 29 17  1  0
 14  8  1  0
  1 30  1  0
  5 31  1  0
  7 32  1  0
  7 33  1  0
  9 34  1  0
 10 35  1  0
 11 36  1  0
 13 37  1  0
 14 38  1  0
 15 39  1  0
 18 40  1  0
 19 41  1  0
 24 42  1  0
 24 43  1  0
 25 44  1  0
 25 45  1  0
 26 46  1  0
 29 47  1  0
M  CHG  3   1  -1  23  -1  28  -1
M  END
>  <UniqueID>  (35) 
33

>  <SMILES>  (35) 
[NH-]C(=O)c1cn(Cc2cccc(O)c2)cc1-c1ccc(C(=O)[N-]CCO)c([O-])c1

>  <Energy>  (35) 
80.66022458570409

>  <Genealogy>  (35) 
[NH-]C(=O)c1cn(Cc2cccc(O)c2)cc1-c1ccc(C(=O)[N-]CCO)c([O-])c1 (protonated)
[NH-]C(=O)c1cn(Cc2cccc(O)c2)cc1-c1ccc(C(=O)[N-]CCO)c([O-])c1 (3D coordinates assigned)
[NH-]C(=O)c1cn(Cc2cccc(O)c2)cc1-c1ccc(C(=O)[N-]CCO)c([O-])c1 (optimized conformer: 80.66022458570409 kcal/mol)

>  <smiles>  (35) 
NC(=O)c1cn(Cc2cccc(O)c2)cc1-c1ccc(C(=O)NCCO)c(O)c1

>  <score_type>  (35) 
oracle

>  <origin>  (35) 
adg

>  <m_score__min__energy>  (35) 
-14.99

>  <m_primary>  (35) 
energy

$$$$
35:0
     RDKit          3D

 56 59  0  0  0  0  0  0  0  0999 V2000
   62.5610   31.3620   47.8620 C   0  0  0  0  0  0  0  0  0  0  0  0
   61.4660   30.4690   48.2400 N   0  0  0  0  0  0  0  0  0  0  0  0
   61.1400   29.9920   49.4730 C   0  0  0  0  0  0  0  0  0  0  0  0
   61.7700   30.2850   50.5260 O   0  0  0  0  0  0  0  0  0  0  0  0
   60.0790   29.1960   49.4620 O   0  0  0  0  0  0  0  0  0  0  0  0
   59.6930   29.1490   48.2060 C   0  0  0  0  0  0  0  0  0  0  0  0
   58.6110   28.4670   47.6540 C   0  0  0  0  0  0  0  0  0  0  0  0
   58.3900   28.6010   46.2620 C   0  0  0  0  0  0  0  0  0  0  0  0
   57.0160   27.8010   45.4960 S   0  0  0  0  0  0  0  0  0  0  0  0
   56.3630   26.8870   46.4980 O   0  0  0  0  0  0  0  0  0  0  0  0
   57.4960   26.9690   44.3370 O   0  0  0  0  0  0  0  0  0  0  0  0
   55.8390   28.9550   44.9300 N   0  0  0  0  0  0  0  0  0  0  0  0
   56.4170   29.8410   43.9180 C   0  0  0  0  0  0  0  0  0  0  0  0
   56.5020   31.2680   44.4680 C   0  0  0  0  0  0  0  0  0  0  0  0
   57.8690   31.9030   44.1630 C   0  0  0  0  0  0  0  0  0  0  0  0
   57.8460   33.3840   44.2690 N   0  0  0  0  0  0  0  0  0  0  0  0
   56.9240   33.9020   45.2950 C   0  0  0  0  0  0  0  0  0  0  0  0
   57.3220   33.5000   46.7230 C   0  0  0  0  0  0  0  0  0  0  0  0
   58.7780   33.5640   46.9900 N   0  0  0  0  0  0  0  0  0  0  0  0
   59.2630   33.3730   48.3560 C   0  0  0  0  0  0  0  0  0  0  0  0
   60.4380   34.0300   48.8080 C   0  0  0  0  0  0  0  0  0  0  0  0
   60.9160   33.8330   50.1090 C   0  0  0  0  0  0  0  0  0  0  0  0
   60.2440   32.9770   50.9860 C   0  0  0  0  0  0  0  0  0  0  0  0
   59.0800   32.3310   50.5700 C   0  0  0  0  0  0  0  0  0  0  0  0
   58.5890   32.5270   49.2750 C   0  0  0  0  0  0  0  0  0  0  0  0
   59.7580   33.5190   45.8790 C   0  0  0  0  0  0  0  0  0  0  0  0
   59.1880   33.9410   44.5190 C   0  0  0  0  0  0  0  0  0  0  0  0
   59.2700   29.3890   45.4730 C   0  0  0  0  0  0  0  0  0  0  0  0
   60.3600   30.0600   46.0620 C   0  0  0  0  0  0  0  0  0  0  0  0
   60.5330   29.9180   47.4410 C   0  0  0  0  0  0  0  0  0  0  0  0
   63.0432   31.7552   48.7691 H   0  0  0  0  0  0  0  0  0  0  0  0
   63.2993   30.8051   47.2663 H   0  0  0  0  0  0  0  0  0  0  0  0
   62.1640   32.1972   47.2663 H   0  0  0  0  0  0  0  0  0  0  0  0
   57.9513   27.8460   48.2779 H   0  0  0  0  0  0  0  0  0  0  0  0
   57.4261   29.4890   43.6574 H   0  0  0  0  0  0  0  0  0  0  0  0
   55.7799   29.8339   43.0213 H   0  0  0  0  0  0  0  0  0  0  0  0
   55.7121   31.8781   44.0055 H   0  0  0  0  0  0  0  0  0  0  0  0
   56.3732   31.2279   45.5597 H   0  0  0  0  0  0  0  0  0  0  0  0
   58.6075   31.5099   44.8772 H   0  0  0  0  0  0  0  0  0  0  0  0
   58.1319   31.6468   43.1261 H   0  0  0  0  0  0  0  0  0  0  0  0
   57.5310   33.7640   43.3440 H   0  0  0  0  0  0  0  0  0  0  0  0
   56.9112   35.0001   45.2314 H   0  0  0  0  0  0  0  0  0  0  0  0
   55.9341   33.4656   45.0959 H   0  0  0  0  0  0  0  0  0  0  0  0
   56.8126   34.1756   47.4259 H   0  0  0  0  0  0  0  0  0  0  0  0
   57.0240   32.4487   46.8494 H   0  0  0  0  0  0  0  0  0  0  0  0
   60.9798   34.7027   48.1268 H   0  0  0  0  0  0  0  0  0  0  0  0
   61.8252   34.3546   50.4427 H   0  0  0  0  0  0  0  0  0  0  0  0
   60.6323   32.8132   52.0021 H   0  0  0  0  0  0  0  0  0  0  0  0
   58.5459   31.6646   51.2632 H   0  0  0  0  0  0  0  0  0  0  0  0
   57.6654   32.0171   48.9637 H   0  0  0  0  0  0  0  0  0  0  0  0
   60.5918   34.1922   46.1273 H   0  0  0  0  0  0  0  0  0  0  0  0
   60.0723   32.4697   45.7777 H   0  0  0  0  0  0  0  0  0  0  0  0
   59.1250   35.0388   44.4887 H   0  0  0  0  0  0  0  0  0  0  0  0
   59.8606   33.5515   43.7406 H   0  0  0  0  0  0  0  0  0  0  0  0
   59.0985   29.4763   44.3900 H   0  0  0  0  0  0  0  0  0  0  0  0
   61.0478   30.6717   45.4597 H   0  0  0  0  0  0  0  0  0  0  0  0
  1  2  1  0
  2  3  1  0
  3  4  2  0
  3  5  1  0
  5  6  1  0
  6  7  2  0
  7  8  1  0
  8  9  1  0
  9 10  2  0
  9 11  2  0
  9 12  1  0
 12 13  1  0
 13 14  1  0
 14 15  1  0
 15 16  1  0
 16 17  1  0
 17 18  1  0
 18 19  1  0
 19 20  1  0
 20 21  2  0
 21 22  1  0
 22 23  2  0
 23 24  1  0
 24 25  2  0
 19 26  1  0
 26 27  1  0
  8 28  2  0
 28 29  1  0
 29 30  2  0
 30  2  1  0
 30  6  1  0
 27 16  1  0
 25 20  1  0
  1 31  1  0
  1 32  1  0
  1 33  1  0
  7 34  1  0
 13 35  1  0
 13 36  1  0
 14 37  1  0
 14 38  1  0
 15 39  1  0
 15 40  1  0
 16 41  1  0
 17 42  1  0
 17 43  1  0
 18 44  1  0
 18 45  1  0
 21 46  1  0
 22 47  1  0
 23 48  1  0
 24 49  1  0
 25 50  1  0
 26 51  1  0
 26 52  1  0
 27 53  1  0
 27 54  1  0
 28 55  1  0
 29 56  1  0
M  CHG  2  12  -1  16   1
M  END
>  <UniqueID>  (36) 
34

>  <SMILES>  (36) 
Cn1c(=O)oc2cc(S(=O)(=O)[N-]CCC[NH+]3CCN(c4ccccc4)CC3)ccc21

>  <Energy>  (36) 
102.97560700312602

>  <Genealogy>  (36) 
Cn1c(=O)oc2cc(S(=O)(=O)[N-]CCC[NH+]3CCN(c4ccccc4)CC3)ccc21 (protonated)
Cn1c(=O)oc2cc(S(=O)(=O)[N-]CCC[NH+]3CCN(c4ccccc4)CC3)ccc21 (3D coordinates assigned)
Cn1c(=O)oc2cc(S(=O)(=O)[N-]CCC[NH+]3CCN(c4ccccc4)CC3)ccc21 (nonaromatic ring conformer: 102.97560700312602 kcal/mol)

>  <smiles>  (36) 
Cn1c(=O)oc2cc(S(=O)(=O)NCCCN3CCN(c4ccccc4)CC3)ccc21

>  <score_type>  (36) 
oracle

>  <origin>  (36) 
adg

>  <m_score__min__energy>  (36) 
-8.6400000000000006

>  <m_primary>  (36) 
energy

$$$$
36:0
     RDKit          3D

 61 63  0  0  0  0  0  0  0  0999 V2000
   63.3380   33.7650   46.7680 C   0  0  0  0  0  0  0  0  0  0  0  0
   62.6490   32.8120   47.4020 C   0  0  0  0  0  0  0  0  0  0  0  0
   62.1330   33.0000   48.8110 C   0  0  0  0  0  0  0  0  0  0  0  0
   60.6660   33.1790   48.8690 N   0  0  0  0  0  0  0  0  0  0  0  0
   60.2230   34.5800   48.6580 C   0  0  0  0  0  0  0  0  0  0  0  0
   59.5360   34.7690   47.2980 C   0  0  0  0  0  0  0  0  0  0  0  0
   58.3470   33.8980   47.1680 N   0  0  0  0  0  0  0  0  0  0  0  0
   57.9230   33.7000   45.4830 S   0  0  0  0  0  0  0  0  0  0  0  0
   56.5880   34.3430   45.2290 O   0  0  0  0  0  0  0  0  0  0  0  0
   58.9450   34.3920   44.6240 O   0  0  0  0  0  0  0  0  0  0  0  0
   57.8420   31.9940   45.0330 C   0  0  0  0  0  0  0  0  0  0  0  0
   56.6660   31.4630   44.4870 C   0  0  0  0  0  0  0  0  0  0  0  0
   56.5850   30.1040   44.1750 C   0  0  0  0  0  0  0  0  0  0  0  0
   57.6750   29.2540   44.4100 C   0  0  0  0  0  0  0  0  0  0  0  0
   57.5570   27.8560   44.0940 N   0  0  0  0  0  0  0  0  0  0  0  0
   58.3090   26.8220   44.7480 C   0  0  0  0  0  0  0  0  0  0  0  0
   59.2200   27.1140   45.5680 O   0  0  0  0  0  0  0  0  0  0  0  0
   58.0120   25.4070   44.4440 C   0  0  0  0  0  0  0  0  0  0  0  0
   57.1800   24.6270   45.1530 C   0  0  0  0  0  0  0  0  0  0  0  0
   56.9950   23.1720   44.9460 C   0  0  0  0  0  0  0  0  0  0  0  0
   56.7770   22.6610   43.6530 C   0  0  0  0  0  0  0  0  0  0  0  0
   56.6340   21.2870   43.4510 C   0  0  0  0  0  0  0  0  0  0  0  0
   56.7260   20.4110   44.5320 C   0  0  0  0  0  0  0  0  0  0  0  0
   56.9700   20.9020   45.8170 C   0  0  0  0  0  0  0  0  0  0  0  0
   57.1170   22.2870   46.0350 C   0  0  0  0  0  0  0  0  0  0  0  0
   57.3630   22.8220   47.3140 O   0  0  0  0  0  0  0  0  0  0  0  0
   56.3720   23.1700   48.2790 C   0  0  0  0  0  0  0  0  0  0  0  0
   54.9710   22.9500   47.7190 C   0  0  0  0  0  0  0  0  0  0  0  0
   58.8700   29.7980   44.9150 C   0  0  0  0  0  0  0  0  0  0  0  0
   58.9480   31.1570   45.2310 C   0  0  0  0  0  0  0  0  0  0  0  0
   58.4780   32.5910   47.8540 C   0  0  0  0  0  0  0  0  0  0  0  0
   59.9430   32.1770   48.0550 C   0  0  0  0  0  0  0  0  0  0  0  0
   63.6982   33.5936   45.7429 H   0  0  0  0  0  0  0  0  0  0  0  0
   63.5451   34.7210   47.2711 H   0  0  0  0  0  0  0  0  0  0  0  0
   62.4511   31.8622   46.8836 H   0  0  0  0  0  0  0  0  0  0  0  0
   62.4019   32.1135   49.4042 H   0  0  0  0  0  0  0  0  0  0  0  0
   62.5928   33.9158   49.2108 H   0  0  0  0  0  0  0  0  0  0  0  0
   59.5145   34.8519   49.4543 H   0  0  0  0  0  0  0  0  0  0  0  0
   61.1142   35.2244   48.6802 H   0  0  0  0  0  0  0  0  0  0  0  0
   59.2232   35.8188   47.1979 H   0  0  0  0  0  0  0  0  0  0  0  0
   60.2518   34.4978   46.5080 H   0  0  0  0  0  0  0  0  0  0  0  0
   55.8026   32.1194   44.3032 H   0  0  0  0  0  0  0  0  0  0  0  0
   55.6592   29.6976   43.7417 H   0  0  0  0  0  0  0  0  0  0  0  0
   56.7510   27.5610   43.4970 H   0  0  0  0  0  0  0  0  0  0  0  0
   58.5097   24.9588   43.5714 H   0  0  0  0  0  0  0  0  0  0  0  0
   56.5904   25.1055   45.9489 H   0  0  0  0  0  0  0  0  0  0  0  0
   56.7189   23.3484   42.7962 H   0  0  0  0  0  0  0  0  0  0  0  0
   56.4489   20.8957   42.4397 H   0  0  0  0  0  0  0  0  0  0  0  0
   56.6060   19.3293   44.3724 H   0  0  0  0  0  0  0  0  0  0  0  0
   57.0479   20.2039   46.6635 H   0  0  0  0  0  0  0  0  0  0  0  0
   56.5050   22.5448   49.1742 H   0  0  0  0  0  0  0  0  0  0  0  0
   56.4867   24.2337   48.5347 H   0  0  0  0  0  0  0  0  0  0  0  0
   54.2578   22.8380   48.5489 H   0  0  0  0  0  0  0  0  0  0  0  0
   54.6829   23.8139   47.1020 H   0  0  0  0  0  0  0  0  0  0  0  0
   54.9616   22.0394   47.1020 H   0  0  0  0  0  0  0  0  0  0  0  0
   59.7471   29.1506   45.0618 H   0  0  0  0  0  0  0  0  0  0  0  0
   59.8824   31.5717   45.6372 H   0  0  0  0  0  0  0  0  0  0  0  0
   57.9923   32.6591   48.8386 H   0  0  0  0  0  0  0  0  0  0  0  0
   57.9998   31.8307   47.2190 H   0  0  0  0  0  0  0  0  0  0  0  0
   59.9756   31.2044   48.5679 H   0  0  0  0  0  0  0  0  0  0  0  0
   60.4277   32.1073   47.0700 H   0  0  0  0  0  0  0  0  0  0  0  0
  1  2  2  0
  2  3  1  0
  3  4  1  0
  4  5  1  0
  5  6  1  0
  6  7  1  0
  7  8  1  0
  8  9  2  0
  8 10  2  0
  8 11  1  0
 11 12  2  0
 12 13  1  0
 13 14  2  0
 14 15  1  0
 15 16  1  0
 16 17  2  0
 16 18  1  0
 18 19  2  3
 19 20  1  0
 20 21  2  0
 21 22  1  0
 22 23  2  0
 23 24  1  0
 24 25  2  0
 25 26  1  0
 26 27  1  0
 27 28  1  0
 14 29  1  0
 29 30  2  0
  7 31  1  0
 31 32  1  0
 32  4  1  0
 30 11  1  0
 25 20  1  0
  1 33  1  0
  1 34  1  0
  2 35  1  0
  3 36  1  0
  3 37  1  0
  5 38  1  0
  5 39  1  0
  6 40  1  0
  6 41  1  0
 12 42  1  0
 13 43  1  0
 15 44  1  0
 18 45  1  0
 19 46  1  0
 21 47  1  0
 22 48  1  0
 23 49  1  0
 24 50  1  0
 27 51  1  0
 27 52  1  0
 28 53  1  0
 28 54  1  0
 28 55  1  0
 29 56  1  0
 30 57  1  0
 31 58  1  0
 31 59  1  0
 32 60  1  0
 32 61  1  0
M  END
>  <UniqueID>  (37) 
35

>  <SMILES>  (37) 
C=CCN1CCN(S(=O)(=O)c2ccc(NC(=O)C=Cc3ccccc3OCC)cc2)CC1

>  <Energy>  (37) 
78.62606509471762

>  <Genealogy>  (37) 
C=CCN1CCN(S(=O)(=O)c2ccc(NC(=O)C=Cc3ccccc3OCC)cc2)CC1 (3D coordinates assigned)
C=CCN1CCN(S(=O)(=O)c2ccc(NC(=O)C=Cc3ccccc3OCC)cc2)CC1 (nonaromatic ring conformer: 78.62606509471762 kcal/mol)

>  <smiles>  (37) 
C=CCN1CCN(S(=O)(=O)c2ccc(NC(=O)C=Cc3ccccc3OCC)cc2)CC1

>  <score_type>  (37) 
oracle

>  <origin>  (37) 
adg

>  <m_score__min__energy>  (37) 
-9.0299999999999994

>  <m_primary>  (37) 
energy

$$$$
37:0
     RDKit          3D

 64 67  0  0  0  0  0  0  0  0999 V2000
   58.4530   29.4770   51.4620 O   0  0  0  0  0  0  0  0  0  0  0  0
   58.1520   30.6580   51.1250 C   0  0  0  0  0  0  0  0  0  0  0  0
   57.5060   31.5160   52.0830 N   0  0  0  0  0  0  0  0  0  0  0  0
   56.9610   30.9820   53.3310 C   0  0  2  0  0  0  0  0  0  0  0  0
   58.0330   30.1890   54.1000 C   0  0  0  0  0  0  0  0  0  0  0  0
   59.3540   30.9180   54.1070 C   0  0  0  0  0  0  0  0  0  0  0  0
   59.4140   32.2740   54.4650 C   0  0  0  0  0  0  0  0  0  0  0  0
   60.6310   32.9640   54.4090 C   0  0  0  0  0  0  0  0  0  0  0  0
   61.7920   32.3050   53.9940 C   0  0  0  0  0  0  0  0  0  0  0  0
   61.7380   30.9580   53.6240 C   0  0  0  0  0  0  0  0  0  0  0  0
   60.5230   30.2690   53.6700 C   0  0  0  0  0  0  0  0  0  0  0  0
   55.7650   30.1230   53.0370 C   0  0  0  0  0  0  0  0  0  0  0  0
   55.8730   29.1310   52.2630 O   0  0  0  0  0  0  0  0  0  0  0  0
   54.5160   30.4310   53.6640 N   0  0  0  0  0  0  0  0  0  0  0  0
   53.3640   30.0210   53.2320 C   0  0  0  0  0  0  0  0  0  0  0  0
   52.2030   30.9620   53.2090 C   0  0  0  0  0  0  0  0  0  0  0  0
   51.6880   31.1170   51.8110 C   0  0  0  0  0  0  0  0  0  0  0  0
   51.9330   30.2410   50.8210 N   0  0  0  0  0  0  0  0  0  0  0  0
   51.3780   30.8300   49.7410 C   0  0  0  0  0  0  0  0  0  0  0  0
   51.3930   30.3010   48.5980 O   0  0  0  0  0  0  0  0  0  0  0  0
   50.8110   32.0330   49.9770 N   0  0  0  0  0  0  0  0  0  0  0  0
   51.0270   32.2040   51.2910 C   0  0  0  0  0  0  0  0  0  0  0  0
   50.6360   33.3320   51.9970 O   0  0  0  0  0  0  0  0  0  0  0  0
   58.4540   31.1170   49.7430 C   0  0  0  0  0  0  0  0  0  0  0  0
   59.0810   30.2720   48.8090 C   0  0  0  0  0  0  0  0  0  0  0  0
   59.4110   30.7440   47.5360 C   0  0  0  0  0  0  0  0  0  0  0  0
   59.1640   32.0830   47.1860 C   0  0  0  0  0  0  0  0  0  0  0  0
   59.5660   32.6350   45.9620 O   0  0  0  0  0  0  0  0  0  0  0  0
   58.5430   33.5280   44.9150 S   0  0  0  0  0  0  0  0  0  0  0  0
   59.2390   34.7840   44.4730 O   0  0  0  0  0  0  0  0  0  0  0  0
   57.2830   33.8940   45.6500 O   0  0  0  0  0  0  0  0  0  0  0  0
   58.1320   32.5630   43.5090 C   0  0  0  0  0  0  0  0  0  0  0  0
   57.2790   31.5430   43.6170 C   0  0  0  0  0  0  0  0  0  0  0  0
   57.6210   30.2740   44.2930 C   0  0  0  0  0  0  0  0  0  0  0  0
   56.5860   29.4260   44.7190 C   0  0  0  0  0  0  0  0  0  0  0  0
   56.8740   28.1800   45.2820 C   0  0  0  0  0  0  0  0  0  0  0  0
   58.2010   27.7540   45.4040 C   0  0  0  0  0  0  0  0  0  0  0  0
   59.2420   28.5890   44.9910 C   0  0  0  0  0  0  0  0  0  0  0  0
   58.9580   29.8390   44.4280 C   0  0  0  0  0  0  0  0  0  0  0  0
   58.5190   32.9180   48.1040 C   0  0  0  0  0  0  0  0  0  0  0  0
   58.1610   32.4400   49.3670 C   0  0  0  0  0  0  0  0  0  0  0  0
   57.5130   32.5520   51.9350 H   0  0  0  0  0  0  0  0  0  0  0  0
   56.6446   31.8205   53.9689 H   0  0  0  0  0  0  0  0  0  0  0  0
   57.6972   30.0457   55.1377 H   0  0  0  0  0  0  0  0  0  0  0  0
   58.1739   29.2197   53.5993 H   0  0  0  0  0  0  0  0  0  0  0  0
   58.5021   32.7961   54.7905 H   0  0  0  0  0  0  0  0  0  0  0  0
   60.6737   34.0261   54.6919 H   0  0  0  0  0  0  0  0  0  0  0  0
   62.7487   32.8468   53.9586 H   0  0  0  0  0  0  0  0  0  0  0  0
   62.6518   30.4404   53.2967 H   0  0  0  0  0  0  0  0  0  0  0  0
   60.4806   29.2136   53.3629 H   0  0  0  0  0  0  0  0  0  0  0  0
   53.2418   28.9847   52.8839 H   0  0  0  0  0  0  0  0  0  0  0  0
   51.4014   30.5652   53.8493 H   0  0  0  0  0  0  0  0  0  0  0  0
   52.5305   31.9440   53.5809 H   0  0  0  0  0  0  0  0  0  0  0  0
   59.3131   29.2322   49.0830 H   0  0  0  0  0  0  0  0  0  0  0  0
   59.8673   30.0631   46.8024 H   0  0  0  0  0  0  0  0  0  0  0  0
   58.5801   32.8002   42.5328 H   0  0  0  0  0  0  0  0  0  0  0  0
   56.2742   31.6515   43.1827 H   0  0  0  0  0  0  0  0  0  0  0  0
   55.5392   29.7454   44.6085 H   0  0  0  0  0  0  0  0  0  0  0  0
   56.0556   27.5326   45.6300 H   0  0  0  0  0  0  0  0  0  0  0  0
   58.4244   26.7625   45.8247 H   0  0  0  0  0  0  0  0  0  0  0  0
   60.2863   28.2639   45.1083 H   0  0  0  0  0  0  0  0  0  0  0  0
   59.7806   30.4859   44.0890 H   0  0  0  0  0  0  0  0  0  0  0  0
   58.2919   33.9587   47.8296 H   0  0  0  0  0  0  0  0  0  0  0  0
   57.6446   33.1053   50.0746 H   0  0  0  0  0  0  0  0  0  0  0  0
  1  2  2  0
  2  3  1  0
  3  4  1  0
  4  5  1  0
  5  6  1  0
  6  7  2  0
  7  8  1  0
  8  9  2  0
  9 10  1  0
 10 11  2  0
  4 12  1  0
 12 13  2  0
 12 14  1  0
 14 15  2  3
 15 16  1  0
 16 17  1  0
 17 18  1  0
 18 19  1  0
 19 20  2  0
 19 21  1  0
 21 22  1  0
 22 23  1  0
  2 24  1  0
 24 25  2  0
 25 26  1  0
 26 27  2  0
 27 28  1  0
 28 29  1  0
 29 30  2  0
 29 31  2  0
 29 32  1  0
 32 33  2  3
 33 34  1  0
 34 35  2  0
 35 36  1  0
 36 37  2  0
 37 38  1  0
 38 39  2  0
 27 40  1  0
 40 41  2  0
 11  6  1  0
 22 17  2  0
 41 24  1  0
 39 34  1  0
  3 42  1  0
  4 43  1  1
  5 44  1  0
  5 45  1  0
  7 46  1  0
  8 47  1  0
  9 48  1  0
 10 49  1  0
 11 50  1  0
 15 51  1  0
 16 52  1  0
 16 53  1  0
 25 54  1  0
 26 55  1  0
 32 56  1  0
 33 57  1  0
 35 58  1  0
 36 59  1  0
 37 60  1  0
 38 61  1  0
 39 62  1  0
 40 63  1  0
 41 64  1  0
M  CHG  3  18  -1  21  -1  23  -1
M  END
>  <UniqueID>  (38) 
36

>  <SMILES>  (38) 
O=C(N[C@H](Cc1ccccc1)C(=O)N=CCc1[n-]c(=O)[n-]c1[O-])c1ccc(OS(=O)(=O)C=Cc2ccccc2)cc1

>  <Energy>  (38) 
93.48468223215099

>  <Genealogy>  (38) 
O=C(NC(Cc1ccccc1)C(=O)N=CCc1[n-]c(=O)[n-]c1[O-])c1ccc(OS(=O)(=O)C=Cc2ccccc2)cc1 (protonated)
O=C(N[C@H](Cc1ccccc1)C(=O)N=CCc1[n-]c(=O)[n-]c1[O-])c1ccc(OS(=O)(=O)C=Cc2ccccc2)cc1 (chirality)
O=C(N[C@H](Cc1ccccc1)C(=O)N=CCc1[n-]c(=O)[n-]c1[O-])c1ccc(OS(=O)(=O)C=Cc2ccccc2)cc1 (3D coordinates assigned)
O=C(N[C@H](Cc1ccccc1)C(=O)N=CCc1[n-]c(=O)[n-]c1[O-])c1ccc(OS(=O)(=O)C=Cc2ccccc2)cc1 (optimized conformer: 93.48468223215099 kcal/mol)

>  <smiles>  (38) 
O=C(NC(Cc1ccccc1)C(=O)N=CCc1[nH]c(=O)[nH]c1O)c1ccc(OS(=O)(=O)C=Cc2ccccc2)cc1

>  <score_type>  (38) 
oracle

>  <origin>  (38) 
adg

>  <m_score__min__energy>  (38) 
-20.140000000000001

>  <m_primary>  (38) 
energy

$$$$
38:0
     RDKit          3D

 66 70  0  0  0  0  0  0  0  0999 V2000
   58.2020   30.6070   51.0840 C   0  0  0  0  0  0  0  0  0  0  0  0
   58.5870   30.2690   49.6390 C   0  0  2  0  0  0  0  0  0  0  0  0
   59.9170   29.4680   49.5760 C   0  0  0  0  0  0  0  0  0  0  0  0
   60.8370   29.8700   48.4080 C   0  0  0  0  0  0  0  0  0  0  0  0
   60.0500   30.2000   47.1350 C   0  0  0  0  0  0  0  0  0  0  0  0
   58.9910   31.1840   47.4020 N   0  0  0  0  0  0  0  0  0  0  0  0
   58.4500   31.9490   46.3140 C   0  0  0  0  0  0  0  0  0  0  0  0
   57.5900   31.3250   45.3880 C   0  0  0  0  0  0  0  0  0  0  0  0
   57.2500   29.9460   45.5380 N   0  0  0  0  0  0  0  0  0  0  0  0
   58.0950   28.7100   44.6680 S   0  0  0  0  0  0  0  0  0  0  0  0
   59.5070   29.1740   44.4470 O   0  0  0  0  0  0  0  0  0  0  0  0
   57.4240   28.4970   43.3390 O   0  0  0  0  0  0  0  0  0  0  0  0
   58.1000   27.1870   45.5690 C   0  0  0  0  0  0  0  0  0  0  0  0
   58.4560   27.2120   46.9270 C   0  0  0  0  0  0  0  0  0  0  0  0
   58.4720   26.0390   47.6850 C   0  0  0  0  0  0  0  0  0  0  0  0
   58.1470   24.8190   47.0970 C   0  0  0  0  0  0  0  0  0  0  0  0
   57.7990   24.7620   45.7420 C   0  0  0  0  0  0  0  0  0  0  0  0
   57.4850   23.5350   45.1420 C   0  0  0  0  0  0  0  0  0  0  0  0
   57.1410   23.4890   43.7930 C   0  0  0  0  0  0  0  0  0  0  0  0
   57.0900   24.6710   43.0580 C   0  0  0  0  0  0  0  0  0  0  0  0
   57.3920   25.8640   43.6450 N   0  0  0  0  0  0  0  0  0  0  0  0
   57.7610   25.9480   44.9620 C   0  0  0  0  0  0  0  0  0  0  0  0
   57.0750   32.0500   44.3070 C   0  0  0  0  0  0  0  0  0  0  0  0
   57.4110   33.3910   44.1400 C   0  0  0  0  0  0  0  0  0  0  0  0
   58.2720   34.0160   45.0440 C   0  0  0  0  0  0  0  0  0  0  0  0
   58.7970   33.3090   46.1360 C   0  0  0  0  0  0  0  0  0  0  0  0
   59.9240   34.1310   47.2270 S   0  0  0  0  0  0  0  0  0  0  0  0
   59.2500   34.3830   48.5470 O   0  0  0  0  0  0  0  0  0  0  0  0
   60.3270   35.4580   46.6450 O   0  0  0  0  0  0  0  0  0  0  0  0
   61.3420   33.1370   47.4610 N   0  0  0  0  0  0  0  0  0  0  0  0
   62.4270   33.6020   46.5750 C   0  0  0  0  0  0  0  0  0  0  0  0
   63.7940   33.0920   47.0660 C   0  0  0  0  0  0  0  0  0  0  0  0
   64.1190   33.4420   48.4080 O   0  0  0  0  0  0  0  0  0  0  0  0
   63.0090   33.8960   49.1660 C   0  0  0  0  0  0  0  0  0  0  0  0
   61.7340   33.0830   48.8860 C   0  0  0  0  0  0  0  0  0  0  0  0
   58.6420   31.5430   48.7810 C   0  0  0  0  0  0  0  0  0  0  0  0
   58.8445   30.0430   51.7761 H   0  0  0  0  0  0  0  0  0  0  0  0
   58.3352   31.6852   51.2563 H   0  0  0  0  0  0  0  0  0  0  0  0
   57.1501   30.3353   51.2563 H   0  0  0  0  0  0  0  0  0  0  0  0
   57.8058   29.6179   49.2198 H   0  0  0  0  0  0  0  0  0  0  0  0
   60.4627   29.6296   50.5173 H   0  0  0  0  0  0  0  0  0  0  0  0
   59.6458   28.4137   49.4185 H   0  0  0  0  0  0  0  0  0  0  0  0
   61.4183   30.7557   48.7042 H   0  0  0  0  0  0  0  0  0  0  0  0
   61.4926   29.0150   48.1863 H   0  0  0  0  0  0  0  0  0  0  0  0
   60.7401   30.6112   46.3835 H   0  0  0  0  0  0  0  0  0  0  0  0
   59.5805   29.2756   46.7675 H   0  0  0  0  0  0  0  0  0  0  0  0
   58.7258   28.1678   47.4000 H   0  0  0  0  0  0  0  0  0  0  0  0
   58.7423   26.0789   48.7505 H   0  0  0  0  0  0  0  0  0  0  0  0
   58.1638   23.8982   47.6985 H   0  0  0  0  0  0  0  0  0  0  0  0
   57.5102   22.6093   45.7357 H   0  0  0  0  0  0  0  0  0  0  0  0
   56.9114   22.5268   43.3120 H   0  0  0  0  0  0  0  0  0  0  0  0
   56.8040   24.6418   41.9962 H   0  0  0  0  0  0  0  0  0  0  0  0
   57.3240   26.7110   43.0430 H   0  0  0  0  0  0  0  0  0  0  0  0
   56.4031   31.5591   43.5875 H   0  0  0  0  0  0  0  0  0  0  0  0
   56.9971   33.9592   43.2939 H   0  0  0  0  0  0  0  0  0  0  0  0
   58.5412   35.0726   44.8986 H   0  0  0  0  0  0  0  0  0  0  0  0
   62.2468   33.2260   45.5571 H   0  0  0  0  0  0  0  0  0  0  0  0
   62.4392   34.7019   46.5818 H   0  0  0  0  0  0  0  0  0  0  0  0
   63.7969   31.9947   46.9890 H   0  0  0  0  0  0  0  0  0  0  0  0
   64.5499   33.5757   46.4298 H   0  0  0  0  0  0  0  0  0  0  0  0
   63.2536   33.8119   50.2352 H   0  0  0  0  0  0  0  0  0  0  0  0
   62.8110   34.9389   48.8778 H   0  0  0  0  0  0  0  0  0  0  0  0
   61.9135   32.0342   49.1651 H   0  0  0  0  0  0  0  0  0  0  0  0
   60.9168   33.5193   49.4791 H   0  0  0  0  0  0  0  0  0  0  0  0
   59.4025   32.2266   49.1865 H   0  0  0  0  0  0  0  0  0  0  0  0
   57.6606   32.0397   48.7954 H   0  0  0  0  0  0  0  0  0  0  0  0
  1  2  1  0
  2  3  1  0
  3  4  1  0
  4  5  1  0
  5  6  1  0
  6  7  1  0
  7  8  1  0
  8  9  1  0
  9 10  1  0
 10 11  2  0
 10 12  2  0
 10 13  1  0
 13 14  2  0
 14 15  1  0
 15 16  2  0
 16 17  1  0
 17 18  2  0
 18 19  1  0
 19 20  2  0
 20 21  1  0
 21 22  2  0
  8 23  2  0
 23 24  1  0
 24 25  2  0
 25 26  1  0
 26 27  1  0
 27 28  2  0
 27 29  2  0
 27 30  1  0
 30 31  1  0
 31 32  1  0
 32 33  1  0
 33 34  1  0
 34 35  1  0
  6 36  1  0
 36  2  1  0
 26  7  2  0
 35 30  1  0
 22 13  1  0
 22 17  1  0
  1 37  1  0
  1 38  1  0
  1 39  1  0
  2 40  1  6
  3 41  1  0
  3 42  1  0
  4 43  1  0
  4 44  1  0
  5 45  1  0
  5 46  1  0
 14 47  1  0
 15 48  1  0
 16 49  1  0
 18 50  1  0
 19 51  1  0
 20 52  1  0
 21 53  1  0
 23 54  1  0
 24 55  1  0
 25 56  1  0
 31 57  1  0
 31 58  1  0
 32 59  1  0
 32 60  1  0
 34 61  1  0
 34 62  1  0
 35 63  1  0
 35 64  1  0
 36 65  1  0
 36 66  1  0
M  CHG  2   9  -1  21   1
M  END
>  <UniqueID>  (39) 
37

>  <SMILES>  (39) 
C[C@@H]1CCCN(c2c([N-]S(=O)(=O)c3cccc4ccc[nH+]c34)cccc2S(=O)(=O)N2CCOCC2)C1

>  <Energy>  (39) 
101.08861326003968

>  <Genealogy>  (39) 
CC1CCCN(c2c([N-]S(=O)(=O)c3cccc4ccc[nH+]c34)cccc2S(=O)(=O)N2CCOCC2)C1 (protonated)
C[C@@H]1CCCN(c2c([N-]S(=O)(=O)c3cccc4ccc[nH+]c34)cccc2S(=O)(=O)N2CCOCC2)C1 (chirality)
C[C@@H]1CCCN(c2c([N-]S(=O)(=O)c3cccc4ccc[nH+]c34)cccc2S(=O)(=O)N2CCOCC2)C1 (3D coordinates assigned)
C[C@@H]1CCCN(c2c([N-]S(=O)(=O)c3cccc4ccc[nH+]c34)cccc2S(=O)(=O)N2CCOCC2)C1 (nonaromatic ring conformer: 101.08861326003968 kcal/mol)

>  <smiles>  (39) 
CC1CCCN(c2c(NS(=O)(=O)c3cccc4cccnc34)cccc2S(=O)(=O)N2CCOCC2)C1

>  <score_type>  (39) 
oracle

>  <origin>  (39) 
adg

>  <m_score__min__energy>  (39) 
-9.6999999999999993

>  <m_primary>  (39) 
energy

$$$$
39:0
     RDKit          3D

 63 66  0  0  0  0  0  0  0  0999 V2000
   57.7140   28.1700   43.8060 O   0  0  0  0  0  0  0  0  0  0  0  0
   57.0030   27.9050   44.8060 C   0  0  0  0  0  0  0  0  0  0  0  0
   56.0610   28.8830   45.2680 N   0  0  0  0  0  0  0  0  0  0  0  0
   55.5360   29.9960   44.4770 C   0  0  0  0  0  0  0  0  0  0  0  0
   56.6590   30.7470   43.7480 C   0  0  0  0  0  0  0  0  0  0  0  0
   57.6940   31.2640   44.7130 C   0  0  0  0  0  0  0  0  0  0  0  0
   57.6230   32.5810   45.1940 C   0  0  0  0  0  0  0  0  0  0  0  0
   58.5660   33.0480   46.1140 C   0  0  0  0  0  0  0  0  0  0  0  0
   59.5910   32.2090   46.5670 C   0  0  0  0  0  0  0  0  0  0  0  0
   60.5360   32.7300   47.5110 N   0  0  0  0  0  0  0  0  0  0  0  0
   62.2530   32.8170   47.2820 S   0  0  0  0  0  0  0  0  0  0  0  0
   62.7500   31.4700   46.8390 O   0  0  0  0  0  0  0  0  0  0  0  0
   62.5750   33.8190   46.2060 O   0  0  0  0  0  0  0  0  0  0  0  0
   63.0390   33.2390   48.8000 C   0  0  0  0  0  0  0  0  0  0  0  0
   64.3770   32.8840   49.0020 C   0  0  0  0  0  0  0  0  0  0  0  0
   65.0200   33.2020   50.2010 C   0  0  0  0  0  0  0  0  0  0  0  0
   64.3260   33.8790   51.2110 C   0  0  0  0  0  0  0  0  0  0  0  0
   65.1340   34.2890   52.7200 Cl  0  0  0  0  0  0  0  0  0  0  0  0
   62.9890   34.2270   51.0130 C   0  0  0  0  0  0  0  0  0  0  0  0
   62.3470   33.9110   49.8080 C   0  0  0  0  0  0  0  0  0  0  0  0
   59.6670   30.8930   46.0780 C   0  0  0  0  0  0  0  0  0  0  0  0
   58.7190   30.4240   45.1670 C   0  0  0  0  0  0  0  0  0  0  0  0
   57.1700   26.6020   45.4810 C   0  0  0  0  0  0  0  0  0  0  0  0
   56.0550   25.8650   45.9110 C   0  0  0  0  0  0  0  0  0  0  0  0
   54.7700   26.3440   45.6390 O   0  0  0  0  0  0  0  0  0  0  0  0
   56.2250   24.6760   46.5730 N   0  0  0  0  0  0  0  0  0  0  0  0
   55.0460   23.9100   47.0160 C   0  0  0  0  0  0  0  0  0  0  0  0
   54.1120   23.6100   45.8390 C   0  0  0  0  0  0  0  0  0  0  0  0
   54.8110   22.8090   44.8130 N   0  0  0  0  0  0  0  0  0  0  0  0
   55.7310   21.8360   45.4300 C   0  0  0  0  0  0  0  0  0  0  0  0
   56.6290   21.1750   44.3650 C   0  0  0  0  0  0  0  0  0  0  0  0
   56.1320   21.4150   43.0650 O   0  0  0  0  0  0  0  0  0  0  0  0
   56.2010   22.8000   42.7710 C   0  0  0  0  0  0  0  0  0  0  0  0
   55.5480   23.6670   43.8680 C   0  0  0  0  0  0  0  0  0  0  0  0
   57.4900   24.1870   46.7770 C   0  0  0  0  0  0  0  0  0  0  0  0
   57.6730   23.0900   47.3710 O   0  0  0  0  0  0  0  0  0  0  0  0
   58.5710   24.8780   46.3340 N   0  0  0  0  0  0  0  0  0  0  0  0
   58.4430   26.0640   45.6930 C   0  0  0  0  0  0  0  0  0  0  0  0
   59.4740   26.6730   45.3020 O   0  0  0  0  0  0  0  0  0  0  0  0
   54.8274   29.6029   43.7331 H   0  0  0  0  0  0  0  0  0  0  0  0
   55.0369   30.6995   45.1597 H   0  0  0  0  0  0  0  0  0  0  0  0
   57.1439   30.0622   43.0367 H   0  0  0  0  0  0  0  0  0  0  0  0
   56.2159   31.6065   43.2238 H   0  0  0  0  0  0  0  0  0  0  0  0
   56.8214   33.2486   44.8452 H   0  0  0  0  0  0  0  0  0  0  0  0
   58.5023   34.0817   46.4846 H   0  0  0  0  0  0  0  0  0  0  0  0
   64.9263   32.3511   48.2119 H   0  0  0  0  0  0  0  0  0  0  0  0
   66.0726   32.9202   50.3516 H   0  0  0  0  0  0  0  0  0  0  0  0
   62.4366   34.7517   51.8064 H   0  0  0  0  0  0  0  0  0  0  0  0
   61.2947   34.1935   49.6565 H   0  0  0  0  0  0  0  0  0  0  0  0
   60.4774   30.2298   46.4149 H   0  0  0  0  0  0  0  0  0  0  0  0
   58.7773   29.3876   44.8031 H   0  0  0  0  0  0  0  0  0  0  0  0
   55.3800   22.9611   47.4611 H   0  0  0  0  0  0  0  0  0  0  0  0
   54.4959   24.5102   47.7557 H   0  0  0  0  0  0  0  0  0  0  0  0
   53.2393   23.0484   46.2038 H   0  0  0  0  0  0  0  0  0  0  0  0
   53.7909   24.5610   45.3891 H   0  0  0  0  0  0  0  0  0  0  0  0
   56.3651   22.3553   46.1637 H   0  0  0  0  0  0  0  0  0  0  0  0
   55.1355   21.0530   45.9223 H   0  0  0  0  0  0  0  0  0  0  0  0
   57.6451   21.5889   44.4439 H   0  0  0  0  0  0  0  0  0  0  0  0
   56.6408   20.0892   44.5411 H   0  0  0  0  0  0  0  0  0  0  0  0
   57.2581   23.0886   42.6751 H   0  0  0  0  0  0  0  0  0  0  0  0
   55.6499   22.9722   41.8347 H   0  0  0  0  0  0  0  0  0  0  0  0
   56.3298   24.2191   44.4101 H   0  0  0  0  0  0  0  0  0  0  0  0
   54.8483   24.3757   43.4009 H   0  0  0  0  0  0  0  0  0  0  0  0
  1  2  2  0
  2  3  1  0
  3  4  1  0
  4  5  1  0
  5  6  1  0
  6  7  2  0
  7  8  1  0
  8  9  2  0
  9 10  1  0
 10 11  1  0
 11 12  2  0
 11 13  2  0
 11 14  1  0
 14 15  2  0
 15 16  1  0
 16 17  2  0
 17 18  1  0
 17 19  1  0
 19 20  2  0
  9 21  1  0
 21 22  2  0
  2 23  1  0
 23 24  2  0
 24 25  1  0
 24 26  1  0
 26 27  1  0
 27 28  1  0
 28 29  1  0
 29 30  1  0
 30 31  1  0
 31 32  1  0
 32 33  1  0
 33 34  1  0
 26 35  1  0
 35 36  2  0
 35 37  1  0
 37 38  1  0
 38 39  2  0
 22  6  1  0
 38 23  1  0
 20 14  1  0
 34 29  1  0
  4 40  1  0
  4 41  1  0
  5 42  1  0
  5 43  1  0
  7 44  1  0
  8 45  1  0
 15 46  1  0
 16 47  1  0
 19 48  1  0
 20 49  1  0
 21 50  1  0
 22 51  1  0
 27 52  1  0
 27 53  1  0
 28 54  1  0
 28 55  1  0
 30 56  1  0
 30 57  1  0
 31 58  1  0
 31 59  1  0
 33 60  1  0
 33 61  1  0
 34 62  1  0
 34 63  1  0
M  CHG  4   3  -1  10  -1  25  -1  37  -1
M  END
>  <UniqueID>  (40) 
38

>  <SMILES>  (40) 
O=C([N-]CCc1ccc([N-]S(=O)(=O)c2ccc(Cl)cc2)cc1)c1c([O-])n(CCN2CCOCC2)c(=O)[n-]c1=O

>  <Energy>  (40) 
84.56917793287079

>  <Genealogy>  (40) 
O=C([N-]CCc1ccc([N-]S(=O)(=O)c2ccc(Cl)cc2)cc1)c1c([O-])n(CCN2CCOCC2)c(=O)[n-]c1=O (protonated)
O=C([N-]CCc1ccc([N-]S(=O)(=O)c2ccc(Cl)cc2)cc1)c1c([O-])n(CCN2CCOCC2)c(=O)[n-]c1=O (3D coordinates assigned)
O=C([N-]CCc1ccc([N-]S(=O)(=O)c2ccc(Cl)cc2)cc1)c1c([O-])n(CCN2CCOCC2)c(=O)[n-]c1=O (nonaromatic ring conformer: 84.56917793287079 kcal/mol)

>  <smiles>  (40) 
O=C(NCCc1ccc(NS(=O)(=O)c2ccc(Cl)cc2)cc1)c1c(O)n(CCN2CCOCC2)c(=O)[nH]c1=O

>  <score_type>  (40) 
oracle

>  <origin>  (40) 
adg

>  <m_score__min__energy>  (40) 
-18.300000000000001

>  <m_primary>  (40) 
energy

$$$$
40:0
     RDKit          3D

 31 33  0  0  0  0  0  0  0  0999 V2000
   60.8271   31.4071   46.5293 H   0  0  0  0  0  0  0  0  0  0  0  0
   60.6740   30.3330   46.3480 C   0  0  0  0  0  0  0  0  0  0  0  0
   61.4786   29.6172   46.5723 H   0  0  0  0  0  0  0  0  0  0  0  0
   59.4980   29.8930   45.8500 C   0  0  0  0  0  0  0  0  0  0  0  0
   59.3130   28.5080   45.6210 C   0  0  0  0  0  0  0  0  0  0  0  0
   60.2700   27.7030   45.8050 O   0  0  0  0  0  0  0  0  0  0  0  0
   58.0630   28.0510   45.1420 C   0  0  0  0  0  0  0  0  0  0  0  0
   57.7550   26.7560   44.9150 C   0  0  0  0  0  0  0  0  0  0  0  0
   57.9633   26.3654   43.9080 H   0  0  0  0  0  0  0  0  0  0  0  0
   57.1670   25.8150   45.8850 C   0  0  0  0  0  0  0  0  0  0  0  0
   57.8070   24.7260   46.3440 N   0  0  0  0  0  0  0  0  0  0  0  0
   56.8680   24.1030   47.0890 C   0  0  0  0  0  0  0  0  0  0  0  0
   57.0950   23.0320   47.7090 O   0  0  0  0  0  0  0  0  0  0  0  0
   55.6620   24.7120   47.1080 N   0  0  0  0  0  0  0  0  0  0  0  0
   55.8640   25.7860   46.3280 C   0  0  0  0  0  0  0  0  0  0  0  0
   54.8700   26.7010   46.0040 O   0  0  0  0  0  0  0  0  0  0  0  0
   57.1090   28.9710   44.8570 N   0  0  0  0  0  0  0  0  0  0  0  0
   57.2890   30.2980   45.0540 C   0  0  0  0  0  0  0  0  0  0  0  0
   56.3500   31.0890   44.7660 O   0  0  0  0  0  0  0  0  0  0  0  0
   58.4720   30.7690   45.5590 N   0  0  0  0  0  0  0  0  0  0  0  0
   58.6080   32.1910   45.7570 C   0  0  0  0  0  0  0  0  0  0  0  0
   58.6180   33.0580   44.6550 C   0  0  0  0  0  0  0  0  0  0  0  0
   58.5195   32.6532   43.6370 H   0  0  0  0  0  0  0  0  0  0  0  0
   58.7530   34.4360   44.8480 C   0  0  0  0  0  0  0  0  0  0  0  0
   58.7593   35.1142   43.9819 H   0  0  0  0  0  0  0  0  0  0  0  0
   58.8800   34.9530   46.1410 C   0  0  0  0  0  0  0  0  0  0  0  0
   58.9847   36.0376   46.2917 H   0  0  0  0  0  0  0  0  0  0  0  0
   58.8740   34.0920   47.2420 C   0  0  0  0  0  0  0  0  0  0  0  0
   58.9748   34.4994   48.2588 H   0  0  0  0  0  0  0  0  0  0  0  0
   58.7400   32.7130   47.0520 C   0  0  0  0  0  0  0  0  0  0  0  0
   58.7381   32.0367   47.9195 H   0  0  0  0  0  0  0  0  0  0  0  0
  1  2  1  0
  2  3  1  0
  2  4  2  0
  4  5  1  0
  5  6  2  0
  5  7  1  0
  7  8  2  0
  8  9  1  0
  8 10  1  0
 10 11  1  0
 11 12  1  0
 12 13  2  0
 12 14  1  0
 14 15  1  0
 15 16  1  0
  7 17  1  0
 17 18  1  0
 18 19  2  0
 18 20  1  0
 20 21  1  0
 21 22  2  0
 22 23  1  0
 22 24  1  0
 24 25  1  0
 24 26  2  0
 26 27  1  0
 26 28  1  0
 28 29  1  0
 28 30  2  0
 30 31  1  0
 20  4  1  0
 30 21  1  0
 15 10  2  0
M  CHG  4  11  -1  14  -1  16  -1  17  -1
M  END
>  <UniqueID>  (41) 
39

>  <SMILES>  (41) 
C=c1c(=O)/c(=C\c2[n-]c(=O)[n-]c2[O-])[n-]c(=O)n1-c1ccccc1

>  <Energy>  (41) 
91.78071453305492

>  <Genealogy>  (41) 
C=c1c(=O)c(=Cc2[n-]c(=O)[n-]c2[O-])[n-]c(=O)n1-c1ccccc1 (protonated)
C=c1c(=O)/c(=C\c2[n-]c(=O)[n-]c2[O-])[n-]c(=O)n1-c1ccccc1 (cis-trans isomerization)
C=c1c(=O)/c(=C\c2[n-]c(=O)[n-]c2[O-])[n-]c(=O)n1-c1ccccc1 (3D coordinates assigned)
C=c1c(=O)/c(=C\c2[n-]c(=O)[n-]c2[O-])[n-]c(=O)n1-c1ccccc1 (optimized conformer: 91.78071453305492 kcal/mol)

>  <smiles>  (41) 
C=c1c(=O)c(=Cc2[nH]c(=O)[nH]c2O)[nH]c(=O)n1-c1ccccc1

>  <score_type>  (41) 
oracle

>  <origin>  (41) 
adg

>  <m_score__min__energy>  (41) 
-16.780000000000001

>  <m_primary>  (41) 
energy

$$$$
41:0
     RDKit          3D

 61 65  0  0  0  0  0  0  0  0999 V2000
   55.1440   27.4620   45.4290 H   0  0  0  0  0  0  0  0  0  0  0  0
   54.9460   26.6500   46.0000 O   0  0  0  0  0  0  0  0  0  0  0  0
   55.9240   25.7000   46.2730 C   0  0  0  0  0  0  0  0  0  0  0  0
   55.6760   24.5420   46.9050 N   0  0  0  0  0  0  0  0  0  0  0  0
   56.8960   23.9600   46.9460 C   0  0  0  0  0  0  0  0  0  0  0  0
   57.0920   22.8350   47.4730 O   0  0  0  0  0  0  0  0  0  0  0  0
   57.8890   24.6830   46.3870 N   0  0  0  0  0  0  0  0  0  0  0  0
   57.2580   25.7820   45.9380 C   0  0  0  0  0  0  0  0  0  0  0  0
   57.9320   26.9410   45.3310 C   0  0  0  0  0  0  0  0  0  0  0  0
   58.1907   26.8730   44.2640 H   0  0  0  0  0  0  0  0  0  0  0  0
   58.2580   28.0780   45.9750 C   0  0  0  0  0  0  0  0  0  0  0  0
   58.0130   29.3310   45.4430 C   0  0  0  0  0  0  0  0  0  0  0  0
   57.5969   29.5524   44.4491 H   0  0  0  0  0  0  0  0  0  0  0  0
   58.3910   30.2480   46.3990 C   0  0  0  0  0  0  0  0  0  0  0  0
   58.3210   31.7100   46.2260 C   0  0  0  0  0  0  0  0  0  0  0  0
   57.3130   32.1920   45.6430 O   0  0  0  0  0  0  0  0  0  0  0  0
   59.3580   32.5810   46.7380 N   0  0  0  0  0  0  0  0  0  0  0  0
   60.7770   32.2030   46.6240 C   0  0  0  0  0  0  0  0  0  0  0  0
   61.1254   32.4546   45.6114 H   0  0  0  0  0  0  0  0  0  0  0  0
   60.8451   31.1244   46.8287 H   0  0  0  0  0  0  0  0  0  0  0  0
   61.6640   32.9070   47.6260 C   0  0  0  0  0  0  0  0  0  0  0  0
   63.0460   32.6490   47.6070 C   0  0  0  0  0  0  0  0  0  0  0  0
   63.4617   31.9555   46.8612 H   0  0  0  0  0  0  0  0  0  0  0  0
   63.8940   33.2660   48.5270 C   0  0  0  0  0  0  0  0  0  0  0  0
   64.9740   33.0584   48.5047 H   0  0  0  0  0  0  0  0  0  0  0  0
   63.3720   34.1470   49.4760 C   0  0  0  0  0  0  0  0  0  0  0  0
   64.0423   34.6339   50.1997 H   0  0  0  0  0  0  0  0  0  0  0  0
   62.0000   34.4120   49.5090 C   0  0  0  0  0  0  0  0  0  0  0  0
   61.5927   35.0984   50.2659 H   0  0  0  0  0  0  0  0  0  0  0  0
   61.1390   33.8050   48.5790 C   0  0  0  0  0  0  0  0  0  0  0  0
   59.6600   34.0550   48.6620 C   0  0  0  0  0  0  0  0  0  0  0  0
   59.4858   35.0777   49.0278 H   0  0  0  0  0  0  0  0  0  0  0  0
   59.2140   33.3240   49.3524 H   0  0  0  0  0  0  0  0  0  0  0  0
   59.0140   33.8960   47.2920 C   0  0  0  0  0  0  0  0  0  0  0  0
   59.3820   34.6848   46.6194 H   0  0  0  0  0  0  0  0  0  0  0  0
   57.9215   33.9778   47.3903 H   0  0  0  0  0  0  0  0  0  0  0  0
   58.8900   29.6270   47.4930 N   0  0  0  0  0  0  0  0  0  0  0  0
   59.4930   30.3110   48.6510 C   0  0  0  0  0  0  0  0  0  0  0  0
   60.4270   29.7980   48.9241 H   0  0  0  0  0  0  0  0  0  0  0  0
   59.6913   31.3567   48.3730 H   0  0  0  0  0  0  0  0  0  0  0  0
   58.5460   30.3010   49.8570 C   0  0  0  0  0  0  0  0  0  0  0  0
   57.5229   30.0925   49.5108 H   0  0  0  0  0  0  0  0  0  0  0  0
   58.8776   29.5227   50.5600 H   0  0  0  0  0  0  0  0  0  0  0  0
   58.5670   31.6070   50.5500 N   0  0  0  0  0  0  0  0  0  0  0  0
   57.4310   31.7310   51.4880 C   0  0  0  0  0  0  0  0  0  0  0  0
   56.4971   31.8172   50.9132 H   0  0  0  0  0  0  0  0  0  0  0  0
   57.4060   30.8380   52.1298 H   0  0  0  0  0  0  0  0  0  0  0  0
   57.5900   32.9770   52.3830 C   0  0  0  0  0  0  0  0  0  0  0  0
   56.6304   33.5129   52.4273 H   0  0  0  0  0  0  0  0  0  0  0  0
   57.8955   32.6501   53.3879 H   0  0  0  0  0  0  0  0  0  0  0  0
   58.5810   33.8450   51.8710 O   0  0  0  0  0  0  0  0  0  0  0  0
   59.8480   33.2140   51.9200 C   0  0  0  0  0  0  0  0  0  0  0  0
   60.5749   33.8395   51.3811 H   0  0  0  0  0  0  0  0  0  0  0  0
   60.1226   33.0965   52.9787 H   0  0  0  0  0  0  0  0  0  0  0  0
   59.8330   31.8090   51.2800 C   0  0  0  0  0  0  0  0  0  0  0  0
   60.6768   31.7172   50.5804 H   0  0  0  0  0  0  0  0  0  0  0  0
   59.9226   31.0487   52.0698 H   0  0  0  0  0  0  0  0  0  0  0  0
   58.8550   28.2900   47.2290 C   0  0  0  0  0  0  0  0  0  0  0  0
   59.4450   27.3620   47.9980 C   0  0  0  0  0  0  0  0  0  0  0  0
   59.8807   27.6468   48.9670 H   0  0  0  0  0  0  0  0  0  0  0  0
   59.4929   26.3165   47.6593 H   0  0  0  0  0  0  0  0  0  0  0  0
  1  2  1  0
  2  3  1  0
  3  4  1  0
  4  5  1  0
  5  6  2  0
  5  7  1  0
  7  8  1  0
  8  9  1  0
  9 10  1  0
  9 11  2  0
 11 12  1  0
 12 13  1  0
 12 14  2  0
 14 15  1  0
 15 16  2  0
 15 17  1  0
 17 18  1  0
 18 19  1  0
 18 20  1  0
 18 21  1  0
 21 22  2  0
 22 23  1  0
 22 24  1  0
 24 25  1  0
 24 26  2  0
 26 27  1  0
 26 28  1  0
 28 29  1  0
 28 30  2  0
 30 31  1  0
 31 32  1  0
 31 33  1  0
 31 34  1  0
 34 35  1  0
 34 36  1  0
 14 37  1  0
 37 38  1  0
 38 39  1  0
 38 40  1  0
 38 41  1  0
 41 42  1  0
 41 43  1  0
 41 44  1  0
 44 45  1  0
 45 46  1  0
 45 47  1  0
 45 48  1  0
 48 49  1  0
 48 50  1  0
 48 51  1  0
 51 52  1  0
 52 53  1  0
 52 54  1  0
 52 55  1  0
 55 56  1  0
 55 57  1  0
 37 58  1  0
 58 59  2  0
 59 60  1  0
 59 61  1  0
  8  3  2  0
 58 11  1  0
 34 17  1  0
 55 44  1  0
 30 21  1  0
M  CHG  2   4  -1   7  -1
M  END
>  <UniqueID>  (42) 
40

>  <SMILES>  (42) 
C=c1/c(=C\c2[n-]c(=O)[n-]c2O)cc(C(=O)N2CCc3ccccc3C2)n1CCN1CCOCC1

>  <Energy>  (42) 
148.12008000718893

>  <Genealogy>  (42) 
C=c1c(=Cc2[n-]c(=O)[n-]c2O)cc(C(=O)N2CCc3ccccc3C2)n1CCN1CCOCC1 (protonated)
C=c1/c(=C\c2[n-]c(=O)[n-]c2O)cc(C(=O)N2CCc3ccccc3C2)n1CCN1CCOCC1 (cis-trans isomerization)
C=c1/c(=C\c2[n-]c(=O)[n-]c2O)cc(C(=O)N2CCc3ccccc3C2)n1CCN1CCOCC1 (3D coordinates assigned)
C=c1/c(=C\c2[n-]c(=O)[n-]c2O)cc(C(=O)N2CCc3ccccc3C2)n1CCN1CCOCC1 (nonaromatic ring conformer: 148.12008000718893 kcal/mol)

>  <smiles>  (42) 
C=c1c(=Cc2[nH]c(=O)[nH]c2O)cc(C(=O)N2CCc3ccccc3C2)n1CCN1CCOCC1

>  <score_type>  (42) 
oracle

>  <origin>  (42) 
adg

>  <m_score__min__energy>  (42) 
-14.02

>  <m_primary>  (42) 
energy

$$$$
42:0
     RDKit          3D

 56 59  0  0  0  0  0  0  0  0999 V2000
   60.9930   27.1720   49.8370 O   0  0  0  0  0  0  0  0  0  0  0  0
   60.5430   27.3600   48.6770 C   0  0  0  0  0  0  0  0  0  0  0  0
   60.9000   26.4160   47.6570 N   0  0  0  0  0  0  0  0  0  0  0  0
   60.4620   26.4350   46.2670 C   0  0  0  0  0  0  0  0  0  0  0  0
   58.9630   26.4970   46.2210 C   0  0  0  0  0  0  0  0  0  0  0  0
   58.1960   25.6350   47.0230 C   0  0  0  0  0  0  0  0  0  0  0  0
   56.8000   25.6630   46.9510 C   0  0  0  0  0  0  0  0  0  0  0  0
   56.1600   26.5410   46.0720 C   0  0  0  0  0  0  0  0  0  0  0  0
   54.7730   26.5650   45.9970 O   0  0  0  0  0  0  0  0  0  0  0  0
   56.9170   27.3930   45.2610 C   0  0  0  0  0  0  0  0  0  0  0  0
   58.3130   27.3670   45.3300 C   0  0  0  0  0  0  0  0  0  0  0  0
   59.6680   28.5330   48.4280 C   0  0  0  0  0  0  0  0  0  0  0  0
   58.4990   28.5720   48.8950 O   0  0  0  0  0  0  0  0  0  0  0  0
   60.1470   29.6470   47.6510 N   0  0  0  0  0  0  0  0  0  0  0  0
   60.0990   29.5630   46.1870 C   0  0  0  0  0  0  0  0  0  0  0  0
   59.0850   30.5360   45.6320 C   0  0  0  0  0  0  0  0  0  0  0  0
   58.6790   30.4080   44.2920 C   0  0  0  0  0  0  0  0  0  0  0  0
   57.7780   31.3190   43.7370 C   0  0  0  0  0  0  0  0  0  0  0  0
   57.2780   32.3700   44.5110 C   0  0  0  0  0  0  0  0  0  0  0  0
   57.6810   32.5160   45.8440 C   0  0  0  0  0  0  0  0  0  0  0  0
   58.5950   31.6170   46.4130 C   0  0  0  0  0  0  0  0  0  0  0  0
   58.9660   31.7730   47.8720 C   0  0  0  0  0  0  0  0  0  0  0  0
   60.2520   31.0060   48.2110 C   0  0  1  0  0  0  0  0  0  0  0  0
   60.5360   31.0330   49.7290 C   0  0  0  0  0  0  0  0  0  0  0  0
   61.9330   31.3700   50.0200 N   0  0  0  0  0  0  0  0  0  0  0  0
   62.2540   33.0750   49.8590 S   0  0  0  0  0  0  0  0  0  0  0  0
   63.7320   33.2800   49.6920 O   0  0  0  0  0  0  0  0  0  0  0  0
   61.8050   33.8110   51.0900 O   0  0  0  0  0  0  0  0  0  0  0  0
   61.4380   33.7080   48.4330 C   0  0  0  0  0  0  0  0  0  0  0  0
   60.2660   34.4720   48.5560 C   0  0  0  0  0  0  0  0  0  0  0  0
   59.6060   34.9320   47.4130 C   0  0  0  0  0  0  0  0  0  0  0  0
   60.1140   34.6380   46.1440 C   0  0  0  0  0  0  0  0  0  0  0  0
   59.4700   35.0820   45.0360 F   0  0  0  0  0  0  0  0  0  0  0  0
   61.2850   33.8840   46.0170 C   0  0  0  0  0  0  0  0  0  0  0  0
   61.9460   33.4190   47.1590 C   0  0  0  0  0  0  0  0  0  0  0  0
   60.8821   27.3169   45.7612 H   0  0  0  0  0  0  0  0  0  0  0  0
   60.8093   25.5236   45.7583 H   0  0  0  0  0  0  0  0  0  0  0  0
   58.6956   24.9359   47.7098 H   0  0  0  0  0  0  0  0  0  0  0  0
   56.2041   24.9925   47.5876 H   0  0  0  0  0  0  0  0  0  0  0  0
   56.4136   28.0838   44.5686 H   0  0  0  0  0  0  0  0  0  0  0  0
   58.9054   28.0311   44.6834 H   0  0  0  0  0  0  0  0  0  0  0  0
   61.0917   29.8029   45.7783 H   0  0  0  0  0  0  0  0  0  0  0  0
   59.8059   28.5425   45.8995 H   0  0  0  0  0  0  0  0  0  0  0  0
   59.0734   29.5855   43.6773 H   0  0  0  0  0  0  0  0  0  0  0  0
   57.4613   31.2094   42.6893 H   0  0  0  0  0  0  0  0  0  0  0  0
   56.5660   33.0843   44.0718 H   0  0  0  0  0  0  0  0  0  0  0  0
   57.2780   33.3415   46.4492 H   0  0  0  0  0  0  0  0  0  0  0  0
   59.1185   32.8404   48.0898 H   0  0  0  0  0  0  0  0  0  0  0  0
   58.1481   31.3617   48.4818 H   0  0  0  0  0  0  0  0  0  0  0  0
   61.1244   31.4935   47.7514 H   0  0  0  0  0  0  0  0  0  0  0  0
   59.8841   31.7840   50.1991 H   0  0  0  0  0  0  0  0  0  0  0  0
   60.3381   30.0279   50.1299 H   0  0  0  0  0  0  0  0  0  0  0  0
   59.8669   34.7087   49.5533 H   0  0  0  0  0  0  0  0  0  0  0  0
   58.6856   35.5262   47.5120 H   0  0  0  0  0  0  0  0  0  0  0  0
   61.6866   33.6564   45.0185 H   0  0  0  0  0  0  0  0  0  0  0  0
   62.8664   32.8253   47.0569 H   0  0  0  0  0  0  0  0  0  0  0  0
  1  2  2  0
  2  3  1  0
  3  4  1  0
  4  5  1  0
  5  6  2  0
  6  7  1  0
  7  8  2  0
  8  9  1  0
  8 10  1  0
 10 11  2  0
  2 12  1  0
 12 13  2  0
 12 14  1  0
 14 15  1  0
 15 16  1  0
 16 17  2  0
 17 18  1  0
 18 19  2  0
 19 20  1  0
 20 21  2  0
 21 22  1  0
 22 23  1  0
 23 24  1  0
 24 25  1  0
 25 26  1  0
 26 27  2  0
 26 28  2  0
 26 29  1  0
 29 30  2  0
 30 31  1  0
 31 32  2  0
 32 33  1  0
 32 34  1  0
 34 35  2  0
 11  5  1  0
 23 14  1  0
 35 29  1  0
 21 16  1  0
  4 36  1  0
  4 37  1  0
  6 38  1  0
  7 39  1  0
 10 40  1  0
 11 41  1  0
 15 42  1  0
 15 43  1  0
 17 44  1  0
 18 45  1  0
 19 46  1  0
 20 47  1  0
 22 48  1  0
 22 49  1  0
 23 50  1  6
 24 51  1  0
 24 52  1  0
 30 53  1  0
 31 54  1  0
 34 55  1  0
 35 56  1  0
M  CHG  3   3  -1   9  -1  25  -1
M  END
>  <UniqueID>  (43) 
41

>  <SMILES>  (43) 
O=C([N-]Cc1ccc([O-])cc1)C(=O)N1Cc2ccccc2C[C@H]1C[N-]S(=O)(=O)c1ccc(F)cc1

>  <Energy>  (43) 
66.75627146551052

>  <Genealogy>  (43) 
O=C([N-]Cc1ccc([O-])cc1)C(=O)N1Cc2ccccc2CC1C[N-]S(=O)(=O)c1ccc(F)cc1 (protonated)
O=C([N-]Cc1ccc([O-])cc1)C(=O)N1Cc2ccccc2C[C@H]1C[N-]S(=O)(=O)c1ccc(F)cc1 (chirality)
O=C([N-]Cc1ccc([O-])cc1)C(=O)N1Cc2ccccc2C[C@H]1C[N-]S(=O)(=O)c1ccc(F)cc1 (3D coordinates assigned)
O=C([N-]Cc1ccc([O-])cc1)C(=O)N1Cc2ccccc2C[C@H]1C[N-]S(=O)(=O)c1ccc(F)cc1 (nonaromatic ring conformer: 66.75627146551052 kcal/mol)

>  <smiles>  (43) 
O=C(NCc1ccc(O)cc1)C(=O)N1Cc2ccccc2CC1CNS(=O)(=O)c1ccc(F)cc1

>  <score_type>  (43) 
oracle

>  <origin>  (43) 
adg

>  <m_score__min__energy>  (43) 
-15.33

>  <m_primary>  (43) 
energy

$$$$
43:0
     RDKit          3D

 42 44  0  0  0  0  0  0  0  0999 V2000
   57.7520   21.2120   43.9450 C   0  0  0  0  0  0  0  0  0  0  0  0
   56.3070   21.3930   43.7210 N   0  0  0  0  0  0  0  0  0  0  0  0
   55.9790   22.7830   43.3100 C   0  0  0  0  0  0  0  0  0  0  0  0
   55.2950   23.6210   44.4080 C   0  0  0  0  0  0  0  0  0  0  0  0
   55.7700   23.2200   45.7370 N   0  0  0  0  0  0  0  0  0  0  0  0
   56.0780   24.2010   46.7450 C   0  0  0  0  0  0  0  0  0  0  0  0
   55.7320   23.9900   47.9400 O   0  0  0  0  0  0  0  0  0  0  0  0
   56.8290   25.4350   46.4150 C   0  0  0  0  0  0  0  0  0  0  0  0
   58.2340   25.4350   46.4760 C   0  0  0  0  0  0  0  0  0  0  0  0
   58.9590   26.5880   46.1710 C   0  0  0  0  0  0  0  0  0  0  0  0
   58.2920   27.7680   45.8000 C   0  0  0  0  0  0  0  0  0  0  0  0
   58.9990   28.9670   45.4540 N   0  0  0  0  0  0  0  0  0  0  0  0
   60.5510   29.4250   46.0790 S   0  0  0  0  0  0  0  0  0  0  0  0
   61.6110   29.0860   45.0690 O   0  0  0  0  0  0  0  0  0  0  0  0
   60.8160   28.6670   47.3480 O   0  0  0  0  0  0  0  0  0  0  0  0
   60.5690   31.1430   46.4270 C   0  0  0  0  0  0  0  0  0  0  0  0
   61.5640   31.8130   47.1260 C   0  0  0  0  0  0  0  0  0  0  0  0
   61.2910   33.1760   47.2890 C   0  0  0  0  0  0  0  0  0  0  0  0
   60.0870   33.5640   46.7180 C   0  0  0  0  0  0  0  0  0  0  0  0
   59.3610   35.3260   46.7390 Br  0  0  0  0  0  0  0  0  0  0  0  0
   59.3510   32.2260   46.0140 S   0  0  0  0  0  0  0  0  0  0  0  0
   56.8940   27.7790   45.7610 C   0  0  0  0  0  0  0  0  0  0  0  0
   56.1620   26.6250   46.0640 C   0  0  0  0  0  0  0  0  0  0  0  0
   54.7730   26.6690   45.9940 O   0  0  0  0  0  0  0  0  0  0  0  0
   55.7060   21.8040   46.1110 C   0  0  0  0  0  0  0  0  0  0  0  0
   55.5090   20.9160   44.8710 C   0  0  0  0  0  0  0  0  0  0  0  0
   57.9551   21.1866   45.0258 H   0  0  0  0  0  0  0  0  0  0  0  0
   58.0782   20.2660   43.4882 H   0  0  0  0  0  0  0  0  0  0  0  0
   58.3014   22.0483   43.4882 H   0  0  0  0  0  0  0  0  0  0  0  0
   56.9133   23.2875   43.0226 H   0  0  0  0  0  0  0  0  0  0  0  0
   55.2631   22.7065   42.4783 H   0  0  0  0  0  0  0  0  0  0  0  0
   55.5261   24.6844   44.2475 H   0  0  0  0  0  0  0  0  0  0  0  0
   54.2089   23.4547   44.3552 H   0  0  0  0  0  0  0  0  0  0  0  0
   58.7667   24.5176   46.7669 H   0  0  0  0  0  0  0  0  0  0  0  0
   60.0577   26.5730   46.2213 H   0  0  0  0  0  0  0  0  0  0  0  0
   62.4711   31.3242   47.5110 H   0  0  0  0  0  0  0  0  0  0  0  0
   61.9627   33.8695   47.8163 H   0  0  0  0  0  0  0  0  0  0  0  0
   56.3643   28.7040   45.4894 H   0  0  0  0  0  0  0  0  0  0  0  0
   56.6441   21.5210   46.6110 H   0  0  0  0  0  0  0  0  0  0  0  0
   54.8505   21.6579   46.7868 H   0  0  0  0  0  0  0  0  0  0  0  0
   55.8168   19.8888   45.1162 H   0  0  0  0  0  0  0  0  0  0  0  0
   54.4465   20.9539   44.5888 H   0  0  0  0  0  0  0  0  0  0  0  0
  1  2  1  0
  2  3  1  0
  3  4  1  0
  4  5  1  0
  5  6  1  0
  6  7  2  0
  6  8  1  0
  8  9  2  0
  9 10  1  0
 10 11  2  0
 11 12  1  0
 12 13  1  0
 13 14  2  0
 13 15  2  0
 13 16  1  0
 16 17  2  0
 17 18  1  0
 18 19  2  0
 19 20  1  0
 19 21  1  0
 11 22  1  0
 22 23  2  0
 23 24  1  0
  5 25  1  0
 25 26  1  0
 26  2  1  0
 23  8  1  0
 21 16  1  0
  1 27  1  0
  1 28  1  0
  1 29  1  0
  3 30  1  0
  3 31  1  0
  4 32  1  0
  4 33  1  0
  9 34  1  0
 10 35  1  0
 17 36  1  0
 18 37  1  0
 22 38  1  0
 25 39  1  0
 25 40  1  0
 26 41  1  0
 26 42  1  0
M  CHG  2  12  -1  24  -1
M  END
>  <UniqueID>  (44) 
42

>  <SMILES>  (44) 
CN1CCN(C(=O)c2ccc([N-]S(=O)(=O)c3ccc(Br)s3)cc2[O-])CC1

>  <Energy>  (44) 
85.06277865157098

>  <Genealogy>  (44) 
CN1CCN(C(=O)c2ccc([N-]S(=O)(=O)c3ccc(Br)s3)cc2[O-])CC1 (protonated)
CN1CCN(C(=O)c2ccc([N-]S(=O)(=O)c3ccc(Br)s3)cc2[O-])CC1 (3D coordinates assigned)
CN1CCN(C(=O)c2ccc([N-]S(=O)(=O)c3ccc(Br)s3)cc2[O-])CC1 (nonaromatic ring conformer: 85.06277865157098 kcal/mol)

>  <smiles>  (44) 
CN1CCN(C(=O)c2ccc(NS(=O)(=O)c3ccc(Br)s3)cc2O)CC1

>  <score_type>  (44) 
oracle

>  <origin>  (44) 
adg

>  <m_score__min__energy>  (44) 
-14.65

>  <m_primary>  (44) 
energy

$$$$
44:0
     RDKit          3D

 48 50  0  0  0  0  0  0  0  0999 V2000
   58.0870   32.3610   42.6150 O   0  0  0  0  0  0  0  0  0  0  0  0
   57.3350   31.6550   43.3380 C   0  0  0  0  0  0  0  0  0  0  0  0
   56.6510   30.4640   42.7390 C   0  0  0  0  0  0  0  0  0  0  0  0
   57.0360   29.2760   43.4260 O   0  0  0  0  0  0  0  0  0  0  0  0
   56.5730   28.9400   44.7050 C   0  0  0  0  0  0  0  0  0  0  0  0
   55.5820   29.5480   45.1940 O   0  0  0  0  0  0  0  0  0  0  0  0
   57.2530   27.8670   45.4740 C   0  0  0  0  0  0  0  0  0  0  0  0
   58.6540   27.8950   45.6050 C   0  0  0  0  0  0  0  0  0  0  0  0
   59.3230   26.8980   46.3210 C   0  0  0  0  0  0  0  0  0  0  0  0
   58.6050   25.8620   46.9180 C   0  0  0  0  0  0  0  0  0  0  0  0
   57.2150   25.8190   46.7990 C   0  0  0  0  0  0  0  0  0  0  0  0
   56.5340   26.8110   46.0850 C   0  0  0  0  0  0  0  0  0  0  0  0
   55.1480   26.7330   45.9930 O   0  0  0  0  0  0  0  0  0  0  0  0
   57.1330   31.9840   44.7220 N   0  0  0  0  0  0  0  0  0  0  0  0
   57.9700   32.8860   45.4640 C   0  0  0  0  0  0  0  0  0  0  0  0
   58.3830   34.1170   44.9210 C   0  0  0  0  0  0  0  0  0  0  0  0
   59.2270   34.9600   45.6480 C   0  0  0  0  0  0  0  0  0  0  0  0
   59.6760   34.5810   46.9150 C   0  0  0  0  0  0  0  0  0  0  0  0
   59.2830   33.3540   47.4630 C   0  0  0  0  0  0  0  0  0  0  0  0
   59.8820   32.8660   49.0460 S   0  0  0  0  0  0  0  0  0  0  0  0
   59.0750   31.7060   49.5620 O   0  0  0  0  0  0  0  0  0  0  0  0
   59.7260   34.0180   50.0000 O   0  0  0  0  0  0  0  0  0  0  0  0
   61.5690   32.4210   48.9370 N   0  0  0  0  0  0  0  0  0  0  0  0
   62.4090   33.4890   49.5150 C   0  0  0  0  0  0  0  0  0  0  0  0
   63.8490   33.3940   48.9820 C   0  0  0  0  0  0  0  0  0  0  0  0
   63.9560   33.5170   47.5680 O   0  0  0  0  0  0  0  0  0  0  0  0
   62.7560   33.2020   46.8730 C   0  0  0  0  0  0  0  0  0  0  0  0
   61.9410   32.0830   47.5450 C   0  0  0  0  0  0  0  0  0  0  0  0
   58.4410   32.5040   46.7290 C   0  0  0  0  0  0  0  0  0  0  0  0
   55.5615   30.5927   42.8190 H   0  0  0  0  0  0  0  0  0  0  0  0
   56.9432   30.3772   41.6821 H   0  0  0  0  0  0  0  0  0  0  0  0
   59.2283   28.7095   45.1394 H   0  0  0  0  0  0  0  0  0  0  0  0
   60.4186   26.9307   46.4138 H   0  0  0  0  0  0  0  0  0  0  0  0
   59.1337   25.0795   47.4821 H   0  0  0  0  0  0  0  0  0  0  0  0
   56.6513   25.0000   47.2696 H   0  0  0  0  0  0  0  0  0  0  0  0
   56.2910   31.5910   45.2010 H   0  0  0  0  0  0  0  0  0  0  0  0
   58.0397   34.4166   43.9198 H   0  0  0  0  0  0  0  0  0  0  0  0
   59.5388   35.9248   45.2214 H   0  0  0  0  0  0  0  0  0  0  0  0
   60.3402   35.2483   47.4839 H   0  0  0  0  0  0  0  0  0  0  0  0
   61.9869   34.4678   49.2433 H   0  0  0  0  0  0  0  0  0  0  0  0
   62.4274   33.3727   50.6087 H   0  0  0  0  0  0  0  0  0  0  0  0
   64.4418   34.1971   49.4442 H   0  0  0  0  0  0  0  0  0  0  0  0
   64.2169   32.3903   49.2412 H   0  0  0  0  0  0  0  0  0  0  0  0
   62.1327   34.1071   46.8240 H   0  0  0  0  0  0  0  0  0  0  0  0
   63.0423   32.8423   45.8737 H   0  0  0  0  0  0  0  0  0  0  0  0
   61.0224   31.9157   46.9635 H   0  0  0  0  0  0  0  0  0  0  0  0
   62.5674   31.1792   47.5729 H   0  0  0  0  0  0  0  0  0  0  0  0
   58.1481   31.5305   47.1491 H   0  0  0  0  0  0  0  0  0  0  0  0
  1  2  2  0
  2  3  1  0
  3  4  1  0
  4  5  1  0
  5  6  2  0
  5  7  1  0
  7  8  2  0
  8  9  1  0
  9 10  2  0
 10 11  1  0
 11 12  2  0
 12 13  1  0
  2 14  1  0
 14 15  1  0
 15 16  2  0
 16 17  1  0
 17 18  2  0
 18 19  1  0
 19 20  1  0
 20 21  2  0
 20 22  2  0
 20 23  1  0
 23 24  1  0
 24 25  1  0
 25 26  1  0
 26 27  1  0
 27 28  1  0
 19 29  2  0
 12  7  1  0
 29 15  1  0
 28 23  1  0
  3 30  1  0
  3 31  1  0
  8 32  1  0
  9 33  1  0
 10 34  1  0
 11 35  1  0
 14 36  1  0
 16 37  1  0
 17 38  1  0
 18 39  1  0
 24 40  1  0
 24 41  1  0
 25 42  1  0
 25 43  1  0
 27 44  1  0
 27 45  1  0
 28 46  1  0
 28 47  1  0
 29 48  1  0
M  CHG  1  13  -1
M  END
>  <UniqueID>  (45) 
43

>  <SMILES>  (45) 
O=C(COC(=O)c1ccccc1[O-])Nc1cccc(S(=O)(=O)N2CCOCC2)c1

>  <Energy>  (45) 
64.44388593614093

>  <Genealogy>  (45) 
O=C(COC(=O)c1ccccc1[O-])Nc1cccc(S(=O)(=O)N2CCOCC2)c1 (protonated)
O=C(COC(=O)c1ccccc1[O-])Nc1cccc(S(=O)(=O)N2CCOCC2)c1 (3D coordinates assigned)
O=C(COC(=O)c1ccccc1[O-])Nc1cccc(S(=O)(=O)N2CCOCC2)c1 (nonaromatic ring conformer: 64.44388593614093 kcal/mol)

>  <smiles>  (45) 
O=C(COC(=O)c1ccccc1O)Nc1cccc(S(=O)(=O)N2CCOCC2)c1

>  <score_type>  (45) 
oracle

>  <origin>  (45) 
adg

>  <m_score__min__energy>  (45) 
-13.300000000000001

>  <m_primary>  (45) 
energy

$$$$
45:0
     RDKit          3D

 64 67  0  0  1  0  0  0  0  0999 V2000
   59.4800   34.5910   48.2280 N   0  0  0  0  0  0  0  0  0  0  0  0
   60.6700   33.8070   48.2650 C   0  0  0  0  0  0  0  0  0  0  0  0
   61.5240   33.8330   47.2130 N   0  0  0  0  0  0  0  0  0  0  0  0
   62.6550   33.1030   47.2220 C   0  0  0  0  0  0  0  0  0  0  0  0
   62.9360   32.3410   48.2900 N   0  0  0  0  0  0  0  0  0  0  0  0
   62.1220   32.2770   49.3590 C   0  0  0  0  0  0  0  0  0  0  0  0
   62.4460   31.5260   50.3580 N   0  0  0  0  0  0  0  0  0  0  0  0
   62.2840   30.0870   50.3790 C   0  0  0  0  0  0  0  0  0  0  0  0
   60.8110   29.7520   50.3830 C   0  0  0  0  0  0  0  0  0  0  0  0
   60.3160   29.4420   49.0160 C   0  0  0  0  0  0  0  0  0  0  0  0
   61.1580   29.0420   48.1720 O   0  0  0  0  0  0  0  0  0  0  0  0
   58.9340   29.6100   48.7320 N   0  0  0  0  0  0  0  0  0  0  0  0
   58.3940   29.3230   47.4160 C   0  0  0  0  0  0  0  0  0  0  0  0
   59.2220   29.9600   46.3200 C   0  0  0  0  0  0  0  0  0  0  0  0
   58.6060   31.2330   45.8710 C   0  0  0  0  0  0  0  0  0  0  0  0
   59.1510   32.4660   46.0010 N   0  0  0  0  0  0  0  0  0  0  0  0
   58.3330   33.3810   45.4930 C   0  0  0  0  0  0  0  0  0  0  0  0
   58.5320   34.6360   45.4490 O   0  0  0  0  0  0  0  0  0  0  0  0
   57.2290   32.7690   45.0150 N   0  0  0  0  0  0  0  0  0  0  0  0
   57.3910   31.4480   45.2440 C   0  0  0  0  0  0  0  0  0  0  0  0
   56.5040   30.4240   44.9210 O   0  0  0  0  0  0  0  0  0  0  0  0
   60.9580   33.0210   49.3650 C   0  0  0  0  0  0  0  0  0  0  0  0
   60.0420   32.9870   50.5030 C   0  0  0  0  0  0  0  0  0  0  0  0
   60.2810   33.8170   51.5930 C   0  0  0  0  0  0  0  0  0  0  0  0
   59.4570   33.8360   52.7000 C   0  0  0  0  0  0  0  0  0  0  0  0
   58.3680   32.9780   52.6720 C   0  0  0  0  0  0  0  0  0  0  0  0
   58.1020   32.1420   51.6060 C   0  0  0  0  0  0  0  0  0  0  0  0
   56.9260   31.2810   51.6850 C   0  0  0  0  0  0  0  0  0  0  0  0
   57.0520   30.0920   51.2860 O   0  0  0  0  0  0  0  0  0  0  0  0
   55.6770   31.7000   52.1750 N   0  0  0  0  0  0  0  0  0  0  0  0
   54.6150   30.7510   52.1940 C   0  0  0  0  0  0  0  0  0  0  0  0
   54.5950   29.6540   53.0260 C   0  0  0  0  0  0  0  0  0  0  0  0
   53.5180   28.7790   52.9780 C   0  0  0  0  0  0  0  0  0  0  0  0
   52.4490   28.9860   52.1030 C   0  0  0  0  0  0  0  0  0  0  0  0
   51.3670   28.0930   52.0660 O   0  0  0  0  0  0  0  0  0  0  0  0
   52.4730   30.1010   51.2600 C   0  0  0  0  0  0  0  0  0  0  0  0
   53.5590   30.9720   51.3160 C   0  0  0  0  0  0  0  0  0  0  0  0
   58.9450   32.1470   50.5140 C   0  0  0  0  0  0  0  0  0  0  0  0
   58.7160   34.2690   47.5700 H   0  0  0  0  0  0  0  0  0  0  0  0
   59.3450   35.4460   48.8130 H   0  0  0  0  0  0  0  0  0  0  0  0
   63.3415   33.1309   46.3629 H   0  0  0  0  0  0  0  0  0  0  0  0
   63.8180   31.7860   48.2680 H   0  0  0  0  0  0  0  0  0  0  0  0
   62.7580   29.6505   49.4875 H   0  0  0  0  0  0  0  0  0  0  0  0
   62.7587   29.6752   51.2818 H   0  0  0  0  0  0  0  0  0  0  0  0
   60.6457   28.8774   51.0293 H   0  0  0  0  0  0  0  0  0  0  0  0
   60.2603   30.6274   50.7577 H   0  0  0  0  0  0  0  0  0  0  0  0
   58.3070   29.9530   49.5170 H   0  0  0  0  0  0  0  0  0  0  0  0
   58.3814   28.2334   47.2657 H   0  0  0  0  0  0  0  0  0  0  0  0
   57.3774   29.7398   47.3641 H   0  0  0  0  0  0  0  0  0  0  0  0
   60.2330   30.1632   46.7029 H   0  0  0  0  0  0  0  0  0  0  0  0
   59.2697   29.2691   45.4654 H   0  0  0  0  0  0  0  0  0  0  0  0
   60.0890   32.6420   46.4460 H   0  0  0  0  0  0  0  0  0  0  0  0
   56.4170   33.2460   44.5590 H   0  0  0  0  0  0  0  0  0  0  0  0
   55.8550   30.1000   45.6220 H   0  0  0  0  0  0  0  0  0  0  0  0
   61.1573   34.4815   51.5721 H   0  0  0  0  0  0  0  0  0  0  0  0
   59.6534   34.4959   53.5579 H   0  0  0  0  0  0  0  0  0  0  0  0
   57.6871   32.9628   53.5358 H   0  0  0  0  0  0  0  0  0  0  0  0
   55.5510   32.6800   52.5100 H   0  0  0  0  0  0  0  0  0  0  0  0
   55.4260   29.4722   53.7234 H   0  0  0  0  0  0  0  0  0  0  0  0
   53.5063   27.9034   53.6437 H   0  0  0  0  0  0  0  0  0  0  0  0
   51.3990   27.1960   51.6010 H   0  0  0  0  0  0  0  0  0  0  0  0
   51.6446   30.2884   50.5610 H   0  0  0  0  0  0  0  0  0  0  0  0
   53.5817   31.8502   50.6540 H   0  0  0  0  0  0  0  0  0  0  0  0
   58.7451   31.4864   49.6574 H   0  0  0  0  0  0  0  0  0  0  0  0
  1  2  1  0
  2  3  1  0
  3  4  2  0
  4  5  1  0
  5  6  1  0
  6  7  2  0
  7  8  1  0
  8  9  1  0
  9 10  1  0
 10 11  2  0
 10 12  1  0
 12 13  1  0
 13 14  1  0
 14 15  1  0
 15 16  1  0
 16 17  1  0
 17 18  2  0
 17 19  1  0
 19 20  1  0
 20 21  1  0
  6 22  1  0
 22 23  1  0
 23 24  2  0
 24 25  1  0
 25 26  2  0
 26 27  1  0
 27 28  1  0
 28 29  2  0
 28 30  1  0
 30 31  1  0
 31 32  2  0
 32 33  1  0
 33 34  2  0
 34 35  1  0
 34 36  1  0
 36 37  2  0
 27 38  2  0
 22  2  2  0
 38 23  1  0
 20 15  2  0
 37 31  1  0
  1 39  1  0
  1 40  1  0
  4 41  1  0
  5 42  1  0
  8 43  1  0
  8 44  1  0
  9 45  1  0
  9 46  1  0
 12 47  1  0
 13 48  1  0
 13 49  1  0
 14 50  1  0
 14 51  1  0
 16 52  1  0
 19 53  1  0
 21 54  1  0
 24 55  1  0
 25 56  1  0
 26 57  1  0
 30 58  1  0
 32 59  1  0
 33 60  1  0
 35 61  1  0
 36 62  1  0
 37 63  1  0
 38 64  1  0
M  END
>  <smiles>  (46) 
Nc1nc[nH]c(=NCCC(=O)NCCc2[nH]c(=O)[nH]c2O)c1-c1cccc(C(=O)Nc2ccc(O)cc2)c1

>  <score_type>  (46) 
oracle

>  <origin>  (46) 
adg

>  <m_score__min__energy>  (46) 
-9.4399999999999995

>  <m_primary>  (46) 
energy

$$$$
46:0
     RDKit          3D

 51 52  0  0  0  0  0  0  0  0999 V2000
   64.8480   32.6750   46.8340 H   0  0  0  0  0  0  0  0  0  0  0  0
   64.0440   33.2790   46.9670 O   0  0  0  0  0  0  0  0  0  0  0  0
   62.8750   32.8270   47.5480 N   0  0  0  0  0  0  0  0  0  0  0  0
   62.5830   31.5530   47.4730 C   0  0  0  0  0  0  0  0  0  0  0  0
   63.0330   30.9659   46.6588 H   0  0  0  0  0  0  0  0  0  0  0  0
   61.6870   30.8590   48.4150 C   0  0  0  0  0  0  0  0  0  0  0  0
   61.6870   31.0230   49.7860 C   0  0  0  0  0  0  0  0  0  0  0  0
   62.3388   31.6888   50.3707 H   0  0  0  0  0  0  0  0  0  0  0  0
   60.7050   30.1840   50.2770 C   0  0  0  0  0  0  0  0  0  0  0  0
   60.4186   30.0557   51.3313 H   0  0  0  0  0  0  0  0  0  0  0  0
   60.1520   29.5370   49.1880 C   0  0  0  0  0  0  0  0  0  0  0  0
   59.3330   28.8043   49.2367 H   0  0  0  0  0  0  0  0  0  0  0  0
   60.7660   29.9380   48.0580 N   0  0  0  0  0  0  0  0  0  0  0  0
   60.3960   29.5430   46.6980 C   0  0  0  0  0  0  0  0  0  0  0  0
   60.9385   28.6259   46.4248 H   0  0  0  0  0  0  0  0  0  0  0  0
   60.6591   30.3537   46.0027 H   0  0  0  0  0  0  0  0  0  0  0  0
   58.8890   29.2830   46.6190 C   0  0  0  0  0  0  0  0  0  0  0  0
   58.4962   29.1359   47.6359 H   0  0  0  0  0  0  0  0  0  0  0  0
   58.7214   28.3854   46.0057 H   0  0  0  0  0  0  0  0  0  0  0  0
   58.1560   30.4650   45.9640 C   0  0  0  0  0  0  0  0  0  0  0  0
   58.8572   30.9735   45.2859 H   0  0  0  0  0  0  0  0  0  0  0  0
   57.8084   31.1148   46.7807 H   0  0  0  0  0  0  0  0  0  0  0  0
   56.9550   30.0760   45.1860 N   0  0  0  0  0  0  0  0  0  0  0  0
   56.5920   30.9750   44.0680 C   0  0  0  0  0  0  0  0  0  0  0  0
   55.9145   31.7560   44.4436 H   0  0  0  0  0  0  0  0  0  0  0  0
   56.1037   30.3731   43.2875 H   0  0  0  0  0  0  0  0  0  0  0  0
   57.8250   31.6400   43.4570 C   0  0  0  0  0  0  0  0  0  0  0  0
   58.4857   31.9964   44.2610 H   0  0  0  0  0  0  0  0  0  0  0  0
   58.3647   30.9106   42.8351 H   0  0  0  0  0  0  0  0  0  0  0  0
   57.5120   32.4916   42.8351 H   0  0  0  0  0  0  0  0  0  0  0  0
   56.8540   28.6250   44.8880 C   0  0  0  0  0  0  0  0  0  0  0  0
   57.1085   28.0686   45.8021 H   0  0  0  0  0  0  0  0  0  0  0  0
   55.8231   28.4480   44.5477 H   0  0  0  0  0  0  0  0  0  0  0  0
   57.7760   28.1370   43.7570 C   0  0  0  0  0  0  0  0  0  0  0  0
   58.6695   27.6641   44.1906 H   0  0  0  0  0  0  0  0  0  0  0  0
   57.2387   27.4052   43.1359 H   0  0  0  0  0  0  0  0  0  0  0  0
   58.0790   28.9928   43.1359 H   0  0  0  0  0  0  0  0  0  0  0  0
   61.9760   33.8420   48.1170 C   0  0  0  0  0  0  0  0  0  0  0  0
   61.8288   33.6370   49.1877 H   0  0  0  0  0  0  0  0  0  0  0  0
   62.4277   34.8359   47.9821 H   0  0  0  0  0  0  0  0  0  0  0  0
   60.6440   33.8110   47.4180 C   0  0  0  0  0  0  0  0  0  0  0  0
   60.5390   34.2020   46.0720 C   0  0  0  0  0  0  0  0  0  0  0  0
   61.4385   34.5088   45.5182 H   0  0  0  0  0  0  0  0  0  0  0  0
   59.2940   34.2020   45.4350 C   0  0  0  0  0  0  0  0  0  0  0  0
   59.2173   34.5027   44.3797 H   0  0  0  0  0  0  0  0  0  0  0  0
   58.1480   33.8210   46.1360 C   0  0  0  0  0  0  0  0  0  0  0  0
   57.1702   33.8193   45.6320 H   0  0  0  0  0  0  0  0  0  0  0  0
   58.2430   33.4420   47.4770 C   0  0  0  0  0  0  0  0  0  0  0  0
   57.3391   33.1446   48.0289 H   0  0  0  0  0  0  0  0  0  0  0  0
   59.4850   33.4400   48.1190 C   0  0  0  0  0  0  0  0  0  0  0  0
   59.5546   33.1468   49.1769 H   0  0  0  0  0  0  0  0  0  0  0  0
  1  2  1  0
  2  3  1  0
  3  4  2  0
  4  5  1  0
  4  6  1  0
  6  7  2  0
  7  8  1  0
  7  9  1  0
  9 10  1  0
  9 11  2  0
 11 12  1  0
 11 13  1  0
 13 14  1  0
 14 15  1  0
 14 16  1  0
 14 17  1  0
 17 18  1  0
 17 19  1  0
 17 20  1  0
 20 21  1  0
 20 22  1  0
 20 23  1  0
 23 24  1  0
 24 25  1  0
 24 26  1  0
 24 27  1  0
 27 28  1  0
 27 29  1  0
 27 30  1  0
 23 31  1  0
 31 32  1  0
 31 33  1  0
 31 34  1  0
 34 35  1  0
 34 36  1  0
 34 37  1  0
  3 38  1  0
 38 39  1  0
 38 40  1  0
 38 41  1  0
 41 42  2  0
 42 43  1  0
 42 44  1  0
 44 45  1  0
 44 46  2  0
 46 47  1  0
 46 48  1  0
 48 49  1  0
 48 50  2  0
 50 51  1  0
 13  6  1  0
 50 41  1  0
M  CHG  1   3   1
M  END
>  <UniqueID>  (47) 
44

>  <SMILES>  (47) 
CCN(CC)CCCn1cccc1/C=[N+](/O)Cc1ccccc1

>  <Energy>  (47) 
84.81458589376534

>  <Genealogy>  (47) 
CCN(CC)CCCn1cccc1C=[N+](O)Cc1ccccc1 (protonated)
CCN(CC)CCCn1cccc1/C=[N+](/O)Cc1ccccc1 (cis-trans isomerization)
CCN(CC)CCCn1cccc1/C=[N+](/O)Cc1ccccc1 (3D coordinates assigned)
CCN(CC)CCCn1cccc1/C=[N+](/O)Cc1ccccc1 (optimized conformer: 84.81458589376534 kcal/mol)

>  <smiles>  (47) 
CCN(CC)CCCn1cccc1C=[N+]([O-])Cc1ccccc1

>  <score_type>  (47) 
oracle

>  <origin>  (47) 
adg

>  <m_score__min__energy>  (47) 
-5.5700000000000003

>  <m_primary>  (47) 
energy

$$$$
47:0
     RDKit          3D

 63 66  0  0  0  0  0  0  0  0999 V2000
   60.4030   29.8910   46.6540 N   0  0  0  0  0  0  0  0  0  0  0  0
   60.9530   30.7950   47.1220 C   0  0  0  0  0  0  0  0  0  0  0  0
   61.6320   31.9230   47.7110 C   0  0  0  0  0  0  0  0  0  0  0  0
   62.8600   32.3190   47.1540 C   0  0  0  0  0  0  0  0  0  0  0  0
   63.5570   33.4090   47.6820 C   0  0  0  0  0  0  0  0  0  0  0  0
   63.0380   34.1140   48.7660 C   0  0  0  0  0  0  0  0  0  0  0  0
   61.8160   33.7330   49.3250 C   0  0  0  0  0  0  0  0  0  0  0  0
   61.1010   32.6380   48.8120 C   0  0  0  0  0  0  0  0  0  0  0  0
   59.5520   32.2490   49.5870 S   0  0  0  0  0  0  0  0  0  0  0  0
   59.3820   30.7780   49.8510 O   0  0  0  0  0  0  0  0  0  0  0  0
   59.4800   32.9760   50.9000 O   0  0  0  0  0  0  0  0  0  0  0  0
   58.2570   32.7940   48.5690 N   0  0  0  0  0  0  0  0  0  0  0  0
   58.3910   33.1270   47.1790 C   0  0  0  0  0  0  0  0  0  0  0  0
   58.9220   34.3760   46.8330 C   0  0  0  0  0  0  0  0  0  0  0  0
   59.0560   34.7400   45.4910 C   0  0  0  0  0  0  0  0  0  0  0  0
   58.6510   33.8650   44.4810 C   0  0  0  0  0  0  0  0  0  0  0  0
   58.0790   32.6280   44.8110 C   0  0  0  0  0  0  0  0  0  0  0  0
   57.5990   31.7350   43.7370 C   0  0  0  0  0  0  0  0  0  0  0  0
   56.9890   30.5530   43.9390 C   0  0  0  0  0  0  0  0  0  0  0  0
   57.6340   29.3310   44.4700 C   0  0  0  0  0  0  0  0  0  0  0  0
   58.5080   28.7210   43.7960 O   0  0  0  0  0  0  0  0  0  0  0  0
   57.3020   28.8700   45.7890 N   0  0  0  0  0  0  0  0  0  0  0  0
   57.8410   27.6270   46.3430 C   0  0  0  0  0  0  0  0  0  0  0  0
   57.2720   26.4360   45.6180 C   0  0  0  0  0  0  0  0  0  0  0  0
   57.9310   25.9130   44.4950 C   0  0  0  0  0  0  0  0  0  0  0  0
   57.3770   24.8410   43.7890 C   0  0  0  0  0  0  0  0  0  0  0  0
   56.1570   24.2810   44.1950 C   0  0  0  0  0  0  0  0  0  0  0  0
   55.5420   23.1850   43.4210 C   0  0  0  0  0  0  0  0  0  0  0  0
   54.3870   23.3450   42.9400 O   0  0  0  0  0  0  0  0  0  0  0  0
   56.2080   21.9360   43.2100 N   0  0  0  0  0  0  0  0  0  0  0  0
   56.2920   20.8600   44.1900 C   0  0  0  0  0  0  0  0  0  0  0  0
   56.1130   21.4360   45.5640 C   0  0  0  0  0  0  0  0  0  0  0  0
   54.8350   21.6070   46.1130 C   0  0  0  0  0  0  0  0  0  0  0  0
   54.6870   22.1990   47.3700 C   0  0  0  0  0  0  0  0  0  0  0  0
   55.8200   22.6330   48.0580 C   0  0  0  0  0  0  0  0  0  0  0  0
   57.0550   22.4590   47.5170 N   0  0  0  0  0  0  0  0  0  0  0  0
   57.2250   21.8800   46.2970 C   0  0  0  0  0  0  0  0  0  0  0  0
   55.4900   24.8140   45.3060 C   0  0  0  0  0  0  0  0  0  0  0  0
   56.0490   25.8760   46.0200 C   0  0  0  0  0  0  0  0  0  0  0  0
   57.9850   32.2480   46.1590 C   0  0  0  0  0  0  0  0  0  0  0  0
   63.2750   31.7677   46.2973 H   0  0  0  0  0  0  0  0  0  0  0  0
   64.5181   33.7113   47.2406 H   0  0  0  0  0  0  0  0  0  0  0  0
   63.5902   34.9700   49.1812 H   0  0  0  0  0  0  0  0  0  0  0  0
   61.4087   34.2971   50.1770 H   0  0  0  0  0  0  0  0  0  0  0  0
   59.2354   35.0746   47.6228 H   0  0  0  0  0  0  0  0  0  0  0  0
   59.4822   35.7196   45.2289 H   0  0  0  0  0  0  0  0  0  0  0  0
   58.7808   34.1463   43.4255 H   0  0  0  0  0  0  0  0  0  0  0  0
   57.7512   32.0597   42.6971 H   0  0  0  0  0  0  0  0  0  0  0  0
   55.9199   30.4892   43.6882 H   0  0  0  0  0  0  0  0  0  0  0  0
   56.5950   29.3970   46.3510 H   0  0  0  0  0  0  0  0  0  0  0  0
   58.9357   27.6274   46.2351 H   0  0  0  0  0  0  0  0  0  0  0  0
   57.5646   27.5619   47.4057 H   0  0  0  0  0  0  0  0  0  0  0  0
   58.8872   26.3481   44.1689 H   0  0  0  0  0  0  0  0  0  0  0  0
   57.9005   24.4349   42.9109 H   0  0  0  0  0  0  0  0  0  0  0  0
   55.5017   20.1203   43.9943 H   0  0  0  0  0  0  0  0  0  0  0  0
   57.2730   20.3675   44.1182 H   0  0  0  0  0  0  0  0  0  0  0  0
   53.9477   21.2749   45.5540 H   0  0  0  0  0  0  0  0  0  0  0  0
   53.6873   22.3215   47.8124 H   0  0  0  0  0  0  0  0  0  0  0  0
   55.7141   23.1169   49.0401 H   0  0  0  0  0  0  0  0  0  0  0  0
   58.2373   21.7595   45.8839 H   0  0  0  0  0  0  0  0  0  0  0  0
   54.5220   24.3942   45.6171 H   0  0  0  0  0  0  0  0  0  0  0  0
   55.5281   26.2760   46.9024 H   0  0  0  0  0  0  0  0  0  0  0  0
   57.5906   31.2548   46.4196 H   0  0  0  0  0  0  0  0  0  0  0  0
  1  2  3  0
  2  3  1  0
  3  4  2  0
  4  5  1  0
  5  6  2  0
  6  7  1  0
  7  8  2  0
  8  9  1  0
  9 10  2  0
  9 11  2  0
  9 12  1  0
 12 13  1  0
 13 14  2  0
 14 15  1  0
 15 16  2  0
 16 17  1  0
 17 18  1  0
 18 19  2  3
 19 20  1  0
 20 21  2  0
 20 22  1  0
 22 23  1  0
 23 24  1  0
 24 25  2  0
 25 26  1  0
 26 27  2  0
 27 28  1  0
 28 29  2  0
 28 30  1  0
 30 31  1  0
 31 32  1  0
 32 33  2  0
 33 34  1  0
 34 35  2  0
 35 36  1  0
 36 37  2  0
 27 38  1  0
 38 39  2  0
 17 40  2  0
  8  3  1  0
 40 13  1  0
 39 24  1  0
 37 32  1  0
  4 41  1  0
  5 42  1  0
  6 43  1  0
  7 44  1  0
 14 45  1  0
 15 46  1  0
 16 47  1  0
 18 48  1  0
 19 49  1  0
 22 50  1  0
 23 51  1  0
 23 52  1  0
 25 53  1  0
 26 54  1  0
 31 55  1  0
 31 56  1  0
 33 57  1  0
 34 58  1  0
 35 59  1  0
 37 60  1  0
 38 61  1  0
 39 62  1  0
 40 63  1  0
M  CHG  2  12  -1  30  -1
M  END
>  <UniqueID>  (48) 
45

>  <SMILES>  (48) 
N#Cc1ccccc1S(=O)(=O)[N-]c1cccc(C=CC(=O)NCc2ccc(C(=O)[N-]Cc3cccnc3)cc2)c1

>  <Energy>  (48) 
80.94259101948992

>  <Genealogy>  (48) 
N#Cc1ccccc1S(=O)(=O)[N-]c1cccc(C=CC(=O)NCc2ccc(C(=O)[N-]Cc3cccnc3)cc2)c1 (protonated)
N#Cc1ccccc1S(=O)(=O)[N-]c1cccc(C=CC(=O)NCc2ccc(C(=O)[N-]Cc3cccnc3)cc2)c1 (3D coordinates assigned)
N#Cc1ccccc1S(=O)(=O)[N-]c1cccc(C=CC(=O)NCc2ccc(C(=O)[N-]Cc3cccnc3)cc2)c1 (optimized conformer: 80.94259101948992 kcal/mol)

>  <smiles>  (48) 
N#Cc1ccccc1S(=O)(=O)Nc1cccc(C=CC(=O)NCc2ccc(C(=O)NCc3cccnc3)cc2)c1

>  <score_type>  (48) 
oracle

>  <origin>  (48) 
adg

>  <m_score__min__energy>  (48) 
-13.09

>  <m_primary>  (48) 
energy

$$$$
48:0
     RDKit          3D

 48 53  0  0  0  0  0  0  0  0999 V2000
   55.1170   27.8440   46.0010 H   0  0  0  0  0  0  0  0  0  0  0  0
   55.1450   26.8450   45.8410 O   0  0  0  0  0  0  0  0  0  0  0  0
   56.1400   26.0350   46.3840 C   0  0  0  0  0  0  0  0  0  0  0  0
   55.8730   24.9380   47.1100 N   0  0  0  0  0  0  0  0  0  0  0  0
   57.1020   24.4770   47.4200 C   0  0  0  0  0  0  0  0  0  0  0  0
   57.2840   23.4400   48.1100 O   0  0  0  0  0  0  0  0  0  0  0  0
   58.1210   25.2160   46.9350 N   0  0  0  0  0  0  0  0  0  0  0  0
   57.5070   26.2110   46.2690 C   0  0  0  0  0  0  0  0  0  0  0  0
   58.1930   27.3170   45.5660 C   0  0  0  0  0  0  0  0  0  0  0  0
   59.1728   27.1008   45.1152 H   0  0  0  0  0  0  0  0  0  0  0  0
   57.7130   28.5650   45.4350 C   0  0  0  0  0  0  0  0  0  0  0  0
   56.5650   29.0310   44.7820 C   0  0  0  0  0  0  0  0  0  0  0  0
   55.8465   28.3986   44.2398 H   0  0  0  0  0  0  0  0  0  0  0  0
   56.4700   30.3780   44.9170 N   0  0  0  0  0  0  0  0  0  0  0  0
   57.5140   30.7630   45.6300 N   0  0  0  0  0  0  0  0  0  0  0  0
   57.8390   32.0170   46.0220 C   0  0  0  0  0  0  0  0  0  0  0  0
   57.0880   33.0270   45.6990 N   0  0  0  0  0  0  0  0  0  0  0  0
   57.5420   34.1260   44.8520 C   0  0  0  0  0  0  0  0  0  0  0  0
   56.5541   34.4671   44.5088 H   0  0  0  0  0  0  0  0  0  0  0  0
   58.8760   33.8660   44.1790 C   0  0  0  0  0  0  0  0  0  0  0  0
   59.3592   32.8827   44.2765 H   0  0  0  0  0  0  0  0  0  0  0  0
   59.2596   33.9521   43.1517 H   0  0  0  0  0  0  0  0  0  0  0  0
   58.7950   34.7970   45.3800 C   0  0  0  0  0  0  0  0  0  0  0  0
   59.2198   34.4870   46.3462 H   0  0  0  0  0  0  0  0  0  0  0  0
   59.0959   35.8357   45.5814 H   0  0  0  0  0  0  0  0  0  0  0  0
   58.9720   32.1840   46.7630 N   0  0  0  0  0  0  0  0  0  0  0  0
   59.7530   31.1090   47.0990 C   0  0  0  0  0  0  0  0  0  0  0  0
   60.9380   31.2960   47.8800 N   0  0  0  0  0  0  0  0  0  0  0  0
   61.1660   30.6690   49.0310 N   0  0  0  0  0  0  0  0  0  0  0  0
   62.3660   31.0990   49.4610 C   0  0  0  0  0  0  0  0  0  0  0  0
   63.0540   30.7430   50.6200 C   0  0  0  0  0  0  0  0  0  0  0  0
   62.4860   29.7690   51.6030 C   0  0  0  0  0  0  0  0  0  0  0  0
   62.6901   30.1190   52.6257 H   0  0  0  0  0  0  0  0  0  0  0  0
   61.3993   29.6883   51.4531 H   0  0  0  0  0  0  0  0  0  0  0  0
   62.9510   28.7834   51.4531 H   0  0  0  0  0  0  0  0  0  0  0  0
   64.2710   31.3260   50.8420 N   0  0  0  0  0  0  0  0  0  0  0  0
   64.8250   32.2290   49.9680 C   0  0  0  0  0  0  0  0  0  0  0  0
   66.1540   32.8390   50.2750 C   0  0  0  0  0  0  0  0  0  0  0  0
   66.2865   32.8998   51.3653 H   0  0  0  0  0  0  0  0  0  0  0  0
   66.9516   32.2169   49.8429 H   0  0  0  0  0  0  0  0  0  0  0  0
   66.2023   33.8494   49.8429 H   0  0  0  0  0  0  0  0  0  0  0  0
   64.1320   32.5950   48.7940 C   0  0  0  0  0  0  0  0  0  0  0  0
   64.5505   33.3201   48.0806 H   0  0  0  0  0  0  0  0  0  0  0  0
   62.8960   31.9960   48.5820 C   0  0  0  0  0  0  0  0  0  0  0  0
   61.9730   32.1160   47.5710 C   0  0  0  0  0  0  0  0  0  0  0  0
   62.0576   32.7558   46.6802 H   0  0  0  0  0  0  0  0  0  0  0  0
   59.3980   29.8540   46.6910 N   0  0  0  0  0  0  0  0  0  0  0  0
   58.2700   29.7140   45.9550 C   0  0  0  0  0  0  0  0  0  0  0  0
  1  2  1  0
  2  3  1  0
  3  4  1  0
  4  5  1  0
  5  6  2  0
  5  7  1  0
  7  8  1  0
  8  9  1  0
  9 10  1  0
  9 11  2  0
 11 12  1  0
 12 13  1  0
 12 14  2  0
 14 15  1  0
 15 16  1  0
 16 17  2  0
 17 18  1  0
 18 19  1  0
 18 20  1  0
 20 21  1  0
 20 22  1  0
 20 23  1  0
 23 24  1  0
 23 25  1  0
 16 26  1  0
 26 27  2  0
 27 28  1  0
 28 29  1  0
 29 30  2  0
 30 31  1  0
 31 32  1  0
 32 33  1  0
 32 34  1  0
 32 35  1  0
 31 36  2  0
 36 37  1  0
 37 38  1  0
 38 39  1  0
 38 40  1  0
 38 41  1  0
 37 42  2  0
 42 43  1  0
 42 44  1  0
 44 45  2  0
 45 46  1  0
 27 47  1  0
 47 48  2  0
  8  3  2  0
 48 11  1  0
 48 15  1  0
 23 18  1  0
 45 28  1  0
 44 30  1  0
M  CHG  2   4  -1   7  -1
M  END
>  <UniqueID>  (49) 
46

>  <SMILES>  (49) 
Cc1cc2cn(-c3n/c(=N\C4CC4)n4nc/c(=C\c5[n-]c(=O)[n-]c5O)c4n3)nc2c(C)n1

>  <Energy>  (49) 
426.5926968320059

>  <Genealogy>  (49) 
Cc1cc2cn(-c3nc(=NC4CC4)n4ncc(=Cc5[n-]c(=O)[n-]c5O)c4n3)nc2c(C)n1 (protonated)
Cc1cc2cn(-c3n/c(=N\C4CC4)n4nc/c(=C\c5[n-]c(=O)[n-]c5O)c4n3)nc2c(C)n1 (cis-trans isomerization)
Cc1cc2cn(-c3n/c(=N\C4CC4)n4nc/c(=C\c5[n-]c(=O)[n-]c5O)c4n3)nc2c(C)n1 (3D coordinates assigned)
Cc1cc2cn(-c3n/c(=N\C4CC4)n4nc/c(=C\c5[n-]c(=O)[n-]c5O)c4n3)nc2c(C)n1 (nonaromatic ring conformer: 426.5926968320059 kcal/mol)

>  <smiles>  (49) 
Cc1cc2cn(-c3nc(=NC4CC4)n4ncc(=Cc5[nH]c(=O)[nH]c5O)c4n3)nc2c(C)n1

>  <score_type>  (49) 
oracle

>  <origin>  (49) 
adg

>  <m_score__min__energy>  (49) 
-14.119999999999999

>  <m_primary>  (49) 
energy

$$$$
49:0
     RDKit          3D

 51 54  0  0  0  0  0  0  0  0999 V2000
   57.3274   32.1991   45.0711 H   0  0  0  0  0  0  0  0  0  0  0  0
   57.6490   31.1490   45.1330 C   0  0  0  0  0  0  0  0  0  0  0  0
   57.5155   30.4811   44.2692 H   0  0  0  0  0  0  0  0  0  0  0  0
   58.2050   30.6820   46.2640 C   0  0  0  0  0  0  0  0  0  0  0  0
   58.6620   29.3740   46.4920 C   0  0  0  0  0  0  0  0  0  0  0  0
   58.4960   28.2400   45.7820 C   0  0  0  0  0  0  0  0  0  0  0  0
   59.2626   28.0022   45.0298 H   0  0  0  0  0  0  0  0  0  0  0  0
   57.3800   27.2930   45.9250 C   0  0  0  0  0  0  0  0  0  0  0  0
   57.4880   26.1030   46.5400 N   0  0  0  0  0  0  0  0  0  0  0  0
   56.2200   25.6380   46.5440 C   0  0  0  0  0  0  0  0  0  0  0  0
   55.9100   24.5190   47.0300 O   0  0  0  0  0  0  0  0  0  0  0  0
   55.3070   26.4710   45.9980 N   0  0  0  0  0  0  0  0  0  0  0  0
   56.0550   27.5200   45.6230 C   0  0  0  0  0  0  0  0  0  0  0  0
   55.5340   28.6720   45.0460 O   0  0  0  0  0  0  0  0  0  0  0  0
   59.3850   29.4170   47.6700 C   0  0  0  0  0  0  0  0  0  0  0  0
   59.9309   28.5825   48.1344 H   0  0  0  0  0  0  0  0  0  0  0  0
   59.2910   30.7050   48.1510 C   0  0  0  0  0  0  0  0  0  0  0  0
   59.9350   31.1730   49.3950 C   0  0  0  0  0  0  0  0  0  0  0  0
   61.1600   30.9380   49.5690 O   0  0  0  0  0  0  0  0  0  0  0  0
   59.1960   31.9040   50.3970 N   0  0  0  0  0  0  0  0  0  0  0  0
   57.7280   31.9020   50.4070 C   0  0  0  0  0  0  0  0  0  0  0  0
   57.3583   32.7437   49.8029 H   0  0  0  0  0  0  0  0  0  0  0  0
   57.3651   30.9530   49.9855 H   0  0  0  0  0  0  0  0  0  0  0  0
   57.2140   32.0440   51.8440 C   0  0  0  0  0  0  0  0  0  0  0  0
   56.1227   32.1805   51.8252 H   0  0  0  0  0  0  0  0  0  0  0  0
   57.4755   31.1343   52.4044 H   0  0  0  0  0  0  0  0  0  0  0  0
   57.8100   33.1570   52.4810 O   0  0  0  0  0  0  0  0  0  0  0  0
   59.1990   32.9330   52.6280 C   0  0  0  0  0  0  0  0  0  0  0  0
   59.6368   33.7552   53.2130 H   0  0  0  0  0  0  0  0  0  0  0  0
   59.3483   31.9733   53.1444 H   0  0  0  0  0  0  0  0  0  0  0  0
   59.8880   32.8670   51.2610 C   0  0  0  0  0  0  0  0  0  0  0  0
   59.8625   33.8615   50.7917 H   0  0  0  0  0  0  0  0  0  0  0  0
   60.9312   32.5457   51.3972 H   0  0  0  0  0  0  0  0  0  0  0  0
   58.5530   31.4740   47.3140 N   0  0  0  0  0  0  0  0  0  0  0  0
   58.3810   32.9310   47.4260 C   0  0  0  0  0  0  0  0  0  0  0  0
   57.3814   33.2078   47.0597 H   0  0  0  0  0  0  0  0  0  0  0  0
   58.4900   33.2246   48.4805 H   0  0  0  0  0  0  0  0  0  0  0  0
   59.4430   33.6560   46.5940 C   0  0  0  0  0  0  0  0  0  0  0  0
   59.5429   33.1548   45.6199 H   0  0  0  0  0  0  0  0  0  0  0  0
   59.1305   34.7015   46.4548 H   0  0  0  0  0  0  0  0  0  0  0  0
   60.7720   33.6380   47.2970 C   0  0  0  0  0  0  0  0  0  0  0  0
   61.8420   32.8940   46.7710 C   0  0  0  0  0  0  0  0  0  0  0  0
   61.7151   32.3424   45.8278 H   0  0  0  0  0  0  0  0  0  0  0  0
   63.0670   32.8530   47.4430 C   0  0  0  0  0  0  0  0  0  0  0  0
   63.9047   32.2776   47.0221 H   0  0  0  0  0  0  0  0  0  0  0  0
   63.2300   33.5410   48.6480 C   0  0  0  0  0  0  0  0  0  0  0  0
   64.4480   33.4990   49.3150 O   0  0  0  0  0  0  0  0  0  0  0  0
   62.1640   34.2710   49.1850 C   0  0  0  0  0  0  0  0  0  0  0  0
   62.2912   34.8097   50.1356 H   0  0  0  0  0  0  0  0  0  0  0  0
   60.9380   34.3170   48.5160 C   0  0  0  0  0  0  0  0  0  0  0  0
   60.1003   34.8865   48.9449 H   0  0  0  0  0  0  0  0  0  0  0  0
  1  2  1  0
  2  3  1  0
  2  4  2  0
  4  5  1  0
  5  6  2  0
  6  7  1  0
  6  8  1  0
  8  9  1  0
  9 10  1  0
 10 11  2  0
 10 12  1  0
 12 13  1  0
 13 14  1  0
  5 15  1  0
 15 16  1  0
 15 17  2  0
 17 18  1  0
 18 19  2  0
 18 20  1  0
 20 21  1  0
 21 22  1  0
 21 23  1  0
 21 24  1  0
 24 25  1  0
 24 26  1  0
 24 27  1  0
 27 28  1  0
 28 29  1  0
 28 30  1  0
 28 31  1  0
 31 32  1  0
 31 33  1  0
 17 34  1  0
 34 35  1  0
 35 36  1  0
 35 37  1  0
 35 38  1  0
 38 39  1  0
 38 40  1  0
 38 41  1  0
 41 42  2  0
 42 43  1  0
 42 44  1  0
 44 45  1  0
 44 46  2  0
 46 47  1  0
 46 48  1  0
 48 49  1  0
 48 50  2  0
 50 51  1  0
 34  4  1  0
 50 41  1  0
 13  8  2  0
 31 20  1  0
M  CHG  4   9  -1  12  -1  14  -1  47  -1
M  END
>  <UniqueID>  (50) 
47

>  <SMILES>  (50) 
C=c1/c(=C\c2[n-]c(=O)[n-]c2[O-])cc(C(=O)N2CCOCC2)n1CCc1ccc([O-])cc1

>  <Energy>  (50) 
128.18566215058738

>  <Genealogy>  (50) 
C=c1c(=Cc2[n-]c(=O)[n-]c2[O-])cc(C(=O)N2CCOCC2)n1CCc1ccc([O-])cc1 (protonated)
C=c1/c(=C\c2[n-]c(=O)[n-]c2[O-])cc(C(=O)N2CCOCC2)n1CCc1ccc([O-])cc1 (cis-trans isomerization)
C=c1/c(=C\c2[n-]c(=O)[n-]c2[O-])cc(C(=O)N2CCOCC2)n1CCc1ccc([O-])cc1 (3D coordinates assigned)
C=c1/c(=C\c2[n-]c(=O)[n-]c2[O-])cc(C(=O)N2CCOCC2)n1CCc1ccc([O-])cc1 (nonaromatic ring conformer: 128.18566215058738 kcal/mol)

>  <smiles>  (50) 
C=c1c(=Cc2[nH]c(=O)[nH]c2O)cc(C(=O)N2CCOCC2)n1CCc1ccc(O)cc1

>  <score_type>  (50) 
oracle

>  <origin>  (50) 
adg

>  <m_score__min__energy>  (50) 
-17.120000000000001

>  <m_primary>  (50) 
energy

$$$$
50:0
     RDKit          3D

 40 42  0  0  0  0  0  0  0  0999 V2000
   52.8267   29.0806   54.0812 H   0  0  0  0  0  0  0  0  0  0  0  0
   53.9160   28.9280   54.0920 C   0  0  0  0  0  0  0  0  0  0  0  0
   54.3501   28.1029   54.6758 H   0  0  0  0  0  0  0  0  0  0  0  0
   54.7130   29.7460   53.3950 C   0  0  0  0  0  0  0  0  0  0  0  0
   56.3850   29.5560   53.3780 S   0  0  0  0  0  0  0  0  0  0  0  0
   56.6580   30.9760   52.5210 C   0  0  0  0  0  0  0  0  0  0  0  0
   57.9480   31.5020   52.1480 N   0  0  0  0  0  0  0  0  0  0  0  0
   58.2920   32.8700   52.5450 C   0  0  0  0  0  0  0  0  0  0  0  0
   58.3096   32.9398   53.6426 H   0  0  0  0  0  0  0  0  0  0  0  0
   59.2834   33.1295   52.1452 H   0  0  0  0  0  0  0  0  0  0  0  0
   57.5413   33.5676   52.1452 H   0  0  0  0  0  0  0  0  0  0  0  0
   58.8860   30.7340   51.3190 C   0  0  0  0  0  0  0  0  0  0  0  0
   59.9169   31.0078   51.5879 H   0  0  0  0  0  0  0  0  0  0  0  0
   58.7247   29.6602   51.4951 H   0  0  0  0  0  0  0  0  0  0  0  0
   58.6560   31.0330   49.8610 C   0  0  0  0  0  0  0  0  0  0  0  0
   58.8350   30.0320   48.8950 C   0  0  0  0  0  0  0  0  0  0  0  0
   59.1131   29.0145   49.2069 H   0  0  0  0  0  0  0  0  0  0  0  0
   58.6620   30.3200   47.5380 C   0  0  0  0  0  0  0  0  0  0  0  0
   58.7964   29.5250   46.7897 H   0  0  0  0  0  0  0  0  0  0  0  0
   58.3170   31.6200   47.1220 C   0  0  0  0  0  0  0  0  0  0  0  0
   58.1430   31.9230   45.7250 N   0  0  0  0  0  0  0  0  0  0  0  0
   58.8960   32.7360   45.1530 O   0  0  0  0  0  0  0  0  0  0  0  0
   57.1320   31.3270   44.9980 O   0  0  0  0  0  0  0  0  0  0  0  0
   58.1440   32.6220   48.0930 C   0  0  0  0  0  0  0  0  0  0  0  0
   57.8715   33.6417   47.7832 H   0  0  0  0  0  0  0  0  0  0  0  0
   58.3160   32.3310   49.4500 C   0  0  0  0  0  0  0  0  0  0  0  0
   58.1839   33.1247   50.2001 H   0  0  0  0  0  0  0  0  0  0  0  0
   55.4960   31.6010   52.2330 N   0  0  0  0  0  0  0  0  0  0  0  0
   54.3980   30.9310   52.6850 C   0  0  0  0  0  0  0  0  0  0  0  0
   53.1780   31.4340   52.4130 C   0  0  0  0  0  0  0  0  0  0  0  0
   52.7010   32.0335   53.2023 H   0  0  0  0  0  0  0  0  0  0  0  0
   52.4190   31.2590   51.1590 C   0  0  0  0  0  0  0  0  0  0  0  0
   51.3640   32.1210   50.8200 C   0  0  0  0  0  0  0  0  0  0  0  0
   51.0300   33.1930   51.6390 O   0  0  0  0  0  0  0  0  0  0  0  0
   50.6550   31.9070   49.6800 N   0  0  0  0  0  0  0  0  0  0  0  0
   50.9370   30.8580   48.8660 C   0  0  0  0  0  0  0  0  0  0  0  0
   50.2690   30.6810   47.8140 O   0  0  0  0  0  0  0  0  0  0  0  0
   51.9350   29.9960   49.1870 N   0  0  0  0  0  0  0  0  0  0  0  0
   52.6720   30.1670   50.3150 C   0  0  0  0  0  0  0  0  0  0  0  0
   53.5860   29.3420   50.5880 O   0  0  0  0  0  0  0  0  0  0  0  0
  1  2  1  0
  2  3  1  0
  2  4  2  0
  4  5  1  0
  5  6  1  0
  6  7  1  0
  7  8  1  0
  8  9  1  0
  8 10  1  0
  8 11  1  0
  7 12  1  0
 12 13  1  0
 12 14  1  0
 12 15  1  0
 15 16  2  0
 16 17  1  0
 16 18  1  0
 18 19  1  0
 18 20  2  0
 20 21  1  0
 21 22  2  0
 21 23  1  0
 20 24  1  0
 24 25  1  0
 24 26  2  0
 26 27  1  0
  6 28  2  0
 28 29  1  0
 29 30  2  0
 30 31  1  0
 30 32  1  0
 32 33  2  0
 33 34  1  0
 33 35  1  0
 35 36  1  0
 36 37  2  0
 36 38  1  0
 38 39  1  0
 39 40  2  0
 29  4  1  0
 39 32  1  0
 26 15  1  0
M  CHG  5  21   1  23  -1  34  -1  35  -1  38  -1
M  END
>  <UniqueID>  (51) 
48

>  <SMILES>  (51) 
C=c1sc(N(C)Cc2ccc([N+](=O)[O-])cc2)n/c1=C/c1c([O-])[n-]c(=O)[n-]c1=O

>  <Energy>  (51) 
88.03770018170205

>  <Genealogy>  (51) 
C=c1sc(N(C)Cc2ccc([N+](=O)[O-])cc2)nc1=Cc1c([O-])[n-]c(=O)[n-]c1=O (protonated)
C=c1sc(N(C)Cc2ccc([N+](=O)[O-])cc2)n/c1=C/c1c([O-])[n-]c(=O)[n-]c1=O (cis-trans isomerization)
C=c1sc(N(C)Cc2ccc([N+](=O)[O-])cc2)n/c1=C/c1c([O-])[n-]c(=O)[n-]c1=O (3D coordinates assigned)
C=c1sc(N(C)Cc2ccc([N+](=O)[O-])cc2)n/c1=C/c1c([O-])[n-]c(=O)[n-]c1=O (optimized conformer: 88.03770018170205 kcal/mol)

>  <smiles>  (51) 
C=c1sc(N(C)Cc2ccc([N+](=O)[O-])cc2)nc1=Cc1c(O)[nH]c(=O)[nH]c1=O

>  <score_type>  (51) 
oracle

>  <origin>  (51) 
adg

>  <m_score__min__energy>  (51) 
-16.079999999999998

>  <m_primary>  (51) 
energy

$$$$
51:0
     RDKit          3D

 57 60  0  0  0  0  0  0  0  0999 V2000
   57.4880   27.6100   43.6680 O   0  0  0  0  0  0  0  0  0  0  0  0
   57.1770   27.9700   44.8350 C   0  0  0  0  0  0  0  0  0  0  0  0
   55.9580   28.6820   45.0680 N   0  0  0  0  0  0  0  0  0  0  0  0
   55.4530   29.7300   44.1900 C   0  0  0  0  0  0  0  0  0  0  0  0
   56.4640   30.8320   44.0810 C   0  0  0  0  0  0  0  0  0  0  0  0
   57.1040   31.1080   42.8640 C   0  0  0  0  0  0  0  0  0  0  0  0
   58.0020   32.1750   42.7890 C   0  0  0  0  0  0  0  0  0  0  0  0
   58.2470   32.9580   43.9180 C   0  0  0  0  0  0  0  0  0  0  0  0
   57.5890   32.6580   45.1120 C   0  0  0  0  0  0  0  0  0  0  0  0
   56.7170   31.6160   45.1660 N   0  0  0  0  0  0  0  0  0  0  0  0
   58.0410   27.6120   45.9770 C   0  0  0  0  0  0  0  0  0  0  0  0
   58.1420   28.5180   47.0480 C   0  0  0  0  0  0  0  0  0  0  0  0
   58.9120   28.2090   48.1850 C   0  0  0  0  0  0  0  0  0  0  0  0
   59.0330   29.0760   49.2830 O   0  0  0  0  0  0  0  0  0  0  0  0
   60.0780   30.0340   49.4860 C   0  0  0  0  0  0  0  0  0  0  0  0
   60.6130   30.4930   48.1280 C   0  0  0  0  0  0  0  0  0  0  0  0
   59.5450   31.2570   47.3300 C   0  0  0  0  0  0  0  0  0  0  0  0
   58.9290   32.3570   48.1030 N   0  0  0  0  0  0  0  0  0  0  0  0
   59.4750   33.7130   47.8800 C   0  0  0  0  0  0  0  0  0  0  0  0
   60.9790   33.7510   47.7530 C   0  0  0  0  0  0  0  0  0  0  0  0
   61.5820   33.8060   46.4860 C   0  0  0  0  0  0  0  0  0  0  0  0
   62.9750   33.8490   46.3700 C   0  0  0  0  0  0  0  0  0  0  0  0
   63.7730   33.8480   47.5160 C   0  0  0  0  0  0  0  0  0  0  0  0
   63.1810   33.8160   48.7800 C   0  0  0  0  0  0  0  0  0  0  0  0
   63.9590   33.8190   49.8910 F   0  0  0  0  0  0  0  0  0  0  0  0
   61.7890   33.7790   48.9000 C   0  0  0  0  0  0  0  0  0  0  0  0
   58.5050   32.0260   49.4790 C   0  0  0  0  0  0  0  0  0  0  0  0
   59.5680   31.2500   50.2690 C   0  0  0  0  0  0  0  0  0  0  0  0
   59.5790   26.9830   48.2410 C   0  0  0  0  0  0  0  0  0  0  0  0
   59.4940   26.0790   47.1810 C   0  0  0  0  0  0  0  0  0  0  0  0
   58.7440   26.3850   46.0420 C   0  0  0  0  0  0  0  0  0  0  0  0
   58.7450   25.4660   44.9900 O   0  0  0  0  0  0  0  0  0  0  0  0
   55.2621   29.3095   43.1916 H   0  0  0  0  0  0  0  0  0  0  0  0
   54.5187   30.1341   44.6068 H   0  0  0  0  0  0  0  0  0  0  0  0
   56.9006   30.4900   41.9770 H   0  0  0  0  0  0  0  0  0  0  0  0
   58.5152   32.3978   41.8419 H   0  0  0  0  0  0  0  0  0  0  0  0
   58.9507   33.8020   43.8675 H   0  0  0  0  0  0  0  0  0  0  0  0
   57.7761   33.2651   46.0100 H   0  0  0  0  0  0  0  0  0  0  0  0
   57.6123   29.4807   46.9964 H   0  0  0  0  0  0  0  0  0  0  0  0
   60.8794   29.5572   50.0694 H   0  0  0  0  0  0  0  0  0  0  0  0
   61.4784   31.1526   48.2893 H   0  0  0  0  0  0  0  0  0  0  0  0
   60.9017   29.6015   47.5520 H   0  0  0  0  0  0  0  0  0  0  0  0
   60.0148   31.6803   46.4299 H   0  0  0  0  0  0  0  0  0  0  0  0
   58.7472   30.5431   47.0770 H   0  0  0  0  0  0  0  0  0  0  0  0
   59.0385   34.1146   46.9536 H   0  0  0  0  0  0  0  0  0  0  0  0
   59.2128   34.3133   48.7637 H   0  0  0  0  0  0  0  0  0  0  0  0
   60.9563   33.8153   45.5813 H   0  0  0  0  0  0  0  0  0  0  0  0
   63.4426   33.8836   45.3749 H   0  0  0  0  0  0  0  0  0  0  0  0
   64.8688   33.8724   47.4227 H   0  0  0  0  0  0  0  0  0  0  0  0
   61.3256   33.7718   49.8976 H   0  0  0  0  0  0  0  0  0  0  0  0
   58.2874   32.9629   50.0127 H   0  0  0  0  0  0  0  0  0  0  0  0
   57.6185   31.3793   49.4013 H   0  0  0  0  0  0  0  0  0  0  0  0
   60.4150   31.9193   50.4802 H   0  0  0  0  0  0  0  0  0  0  0  0
   59.1090   30.8905   51.2018 H   0  0  0  0  0  0  0  0  0  0  0  0
   60.1766   26.7277   49.1285 H   0  0  0  0  0  0  0  0  0  0  0  0
   60.0225   25.1162   47.2426 H   0  0  0  0  0  0  0  0  0  0  0  0
   58.3100   25.6450   44.0940 H   0  0  0  0  0  0  0  0  0  0  0  0
  1  2  2  0
  2  3  1  0
  3  4  1  0
  4  5  1  0
  5  6  2  0
  6  7  1  0
  7  8  2  0
  8  9  1  0
  9 10  2  0
  2 11  1  0
 11 12  2  0
 12 13  1  0
 13 14  1  0
 14 15  1  0
 15 16  1  0
 16 17  1  0
 17 18  1  0
 18 19  1  0
 19 20  1  0
 20 21  2  0
 21 22  1  0
 22 23  2  0
 23 24  1  0
 24 25  1  0
 24 26  2  0
 18 27  1  0
 27 28  1  0
 13 29  2  0
 29 30  1  0
 30 31  2  0
 31 32  1  0
 10  5  1  0
 31 11  1  0
 28 15  1  0
 26 20  1  0
  4 33  1  0
  4 34  1  0
  6 35  1  0
  7 36  1  0
  8 37  1  0
  9 38  1  0
 12 39  1  0
 15 40  1  0
 16 41  1  0
 16 42  1  0
 17 43  1  0
 17 44  1  0
 19 45  1  0
 19 46  1  0
 21 47  1  0
 22 48  1  0
 23 49  1  0
 26 50  1  0
 27 51  1  0
 27 52  1  0
 28 53  1  0
 28 54  1  0
 29 55  1  0
 30 56  1  0
 32 57  1  0
M  CHG  1   3  -1
M  END
>  <UniqueID>  (52) 
49

>  <SMILES>  (52) 
O=C([N-]Cc1ccccn1)c1cc(OC2CCN(Cc3cccc(F)c3)CC2)ccc1O

>  <Energy>  (52) 
70.39687753730907

>  <Genealogy>  (52) 
O=C([N-]Cc1ccccn1)c1cc(OC2CCN(Cc3cccc(F)c3)CC2)ccc1O (protonated)
O=C([N-]Cc1ccccn1)c1cc(OC2CCN(Cc3cccc(F)c3)CC2)ccc1O (3D coordinates assigned)
O=C([N-]Cc1ccccn1)c1cc(OC2CCN(Cc3cccc(F)c3)CC2)ccc1O (nonaromatic ring conformer: 70.39687753730907 kcal/mol)

>  <smiles>  (52) 
O=C(NCc1ccccn1)c1cc(OC2CCN(Cc3cccc(F)c3)CC2)ccc1O

>  <score_type>  (52) 
oracle

>  <origin>  (52) 
adg

>  <m_score__min__energy>  (52) 
-10.76

>  <m_primary>  (52) 
energy

$$$$
52:0
     RDKit          3D

 32 34  0  0  0  0  0  0  0  0999 V2000
   60.3870   28.1810   45.5900 C   0  0  0  0  0  0  0  0  0  0  0  0
   59.1640   28.7290   45.6500 C   0  0  0  0  0  0  0  0  0  0  0  0
   57.9520   28.1620   45.2370 C   0  0  0  0  0  0  0  0  0  0  0  0
   57.6290   26.9090   44.8680 C   0  0  0  0  0  0  0  0  0  0  0  0
   57.1980   25.8340   45.7730 C   0  0  0  0  0  0  0  0  0  0  0  0
   58.0020   24.8310   46.1640 N   0  0  0  0  0  0  0  0  0  0  0  0
   57.1840   24.0410   46.8940 C   0  0  0  0  0  0  0  0  0  0  0  0
   57.5830   22.9860   47.4530 O   0  0  0  0  0  0  0  0  0  0  0  0
   55.9050   24.4650   46.9680 N   0  0  0  0  0  0  0  0  0  0  0  0
   55.9220   25.5940   46.2410 C   0  0  0  0  0  0  0  0  0  0  0  0
   54.7860   26.3620   45.9960 O   0  0  0  0  0  0  0  0  0  0  0  0
   57.0490   29.2100   45.2760 C   0  0  0  0  0  0  0  0  0  0  0  0
   57.6590   30.3190   45.7320 N   0  0  0  0  0  0  0  0  0  0  0  0
   58.9280   30.0260   45.9730 N   0  0  0  0  0  0  0  0  0  0  0  0
   59.8540   30.9990   46.4830 C   0  0  0  0  0  0  0  0  0  0  0  0
   59.7090   32.3600   46.1750 C   0  0  0  0  0  0  0  0  0  0  0  0
   60.6330   33.2960   46.6500 C   0  0  0  0  0  0  0  0  0  0  0  0
   61.7280   32.8840   47.4290 C   0  0  0  0  0  0  0  0  0  0  0  0
   62.7090   33.8700   47.9330 C   0  0  0  0  0  0  0  0  0  0  0  0
   63.7290   34.1650   47.2540 O   0  0  0  0  0  0  0  0  0  0  0  0
   62.5190   34.4860   49.1650 O   0  0  0  0  0  0  0  0  0  0  0  0
   61.8830   31.5170   47.7170 C   0  0  0  0  0  0  0  0  0  0  0  0
   60.9580   30.5830   47.2410 C   0  0  0  0  0  0  0  0  0  0  0  0
   61.2600   28.7432   45.9530 H   0  0  0  0  0  0  0  0  0  0  0  0
   60.5168   27.1694   45.1778 H   0  0  0  0  0  0  0  0  0  0  0  0
   57.6930   26.6684   43.7965 H   0  0  0  0  0  0  0  0  0  0  0  0
   54.1950   26.6890   46.7500 H   0  0  0  0  0  0  0  0  0  0  0  0
   55.9918   29.1459   44.9789 H   0  0  0  0  0  0  0  0  0  0  0  0
   58.8630   32.6930   45.5558 H   0  0  0  0  0  0  0  0  0  0  0  0
   60.5020   34.3620   46.4124 H   0  0  0  0  0  0  0  0  0  0  0  0
   62.7381   31.1797   48.3212 H   0  0  0  0  0  0  0  0  0  0  0  0
   61.0972   29.5146   47.4626 H   0  0  0  0  0  0  0  0  0  0  0  0
  1  2  2  0
  2  3  1  0
  3  4  2  3
  4  5  1  0
  5  6  1  0
  6  7  1  0
  7  8  2  0
  7  9  1  0
  9 10  1  0
 10 11  1  0
  3 12  1  0
 12 13  2  0
 13 14  1  0
 14 15  1  0
 15 16  2  0
 16 17  1  0
 17 18  2  0
 18 19  1  0
 19 20  2  0
 19 21  1  0
 18 22  1  0
 22 23  2  0
 14  2  1  0
 23 15  1  0
 10  5  2  0
  1 24  1  0
  1 25  1  0
  4 26  1  0
 11 27  1  0
 12 28  1  0
 16 29  1  0
 17 30  1  0
 22 31  1  0
 23 32  1  0
M  CHG  3   6  -1   9  -1  21  -1
M  END
>  <UniqueID>  (53) 
50

>  <SMILES>  (53) 
C=c1c(=Cc2[n-]c(=O)[n-]c2O)cnn1-c1ccc(C(=O)[O-])cc1

>  <Energy>  (53) 
113.9158781382411

>  <Genealogy>  (53) 
C=c1c(=Cc2[n-]c(=O)[n-]c2O)cnn1-c1ccc(C(=O)[O-])cc1 (protonated)
C=c1c(=Cc2[n-]c(=O)[n-]c2O)cnn1-c1ccc(C(=O)[O-])cc1 (3D coordinates assigned)
C=c1c(=Cc2[n-]c(=O)[n-]c2O)cnn1-c1ccc(C(=O)[O-])cc1 (optimized conformer: 113.9158781382411 kcal/mol)

>  <smiles>  (53) 
C=c1c(=Cc2[nH]c(=O)[nH]c2O)cnn1-c1ccc(C(=O)O)cc1

>  <score_type>  (53) 
oracle

>  <origin>  (53) 
adg

>  <m_score__min__energy>  (53) 
-12.890000000000001

>  <m_primary>  (53) 
energy

$$$$
53:0
     RDKit          3D

 43 45  0  0  0  0  0  0  0  0999 V2000
   55.3160   29.3330   44.9610 O   0  0  0  0  0  0  0  0  0  0  0  0
   56.4730   29.8220   44.8470 C   0  0  0  0  0  0  0  0  0  0  0  0
   56.6500   31.1700   44.3940 N   0  0  0  0  0  0  0  0  0  0  0  0
   57.4010   32.2020   45.0520 C   0  0  0  0  0  0  0  0  0  0  0  0
   57.7670   33.3380   44.3160 C   0  0  0  0  0  0  0  0  0  0  0  0
   58.5150   34.3570   44.9130 C   0  0  0  0  0  0  0  0  0  0  0  0
   58.9170   34.2420   46.2460 C   0  0  0  0  0  0  0  0  0  0  0  0
   58.5780   33.1020   46.9810 C   0  0  0  0  0  0  0  0  0  0  0  0
   58.9880   32.9820   48.2680 F   0  0  0  0  0  0  0  0  0  0  0  0
   57.8290   32.0800   46.3860 C   0  0  0  0  0  0  0  0  0  0  0  0
   57.6300   29.0350   45.1610 N   0  0  0  0  0  0  0  0  0  0  0  0
   57.5950   27.6260   45.4450 C   0  0  0  0  0  0  0  0  0  0  0  0
   57.9010   26.7110   44.4280 C   0  0  0  0  0  0  0  0  0  0  0  0
   57.8620   25.3370   44.6730 C   0  0  0  0  0  0  0  0  0  0  0  0
   57.5150   24.8550   45.9430 C   0  0  0  0  0  0  0  0  0  0  0  0
   57.4710   23.1170   46.2580 S   0  0  0  0  0  0  0  0  0  0  0  0
   58.7590   22.5130   45.7710 O   0  0  0  0  0  0  0  0  0  0  0  0
   57.3920   22.8880   47.7420 O   0  0  0  0  0  0  0  0  0  0  0  0
   56.1310   22.3040   45.4760 N   0  0  0  0  0  0  0  0  0  0  0  0
   56.2570   20.8280   45.4410 C   0  0  0  0  0  0  0  0  0  0  0  0
   56.2710   20.2340   44.0300 C   0  0  0  0  0  0  0  0  0  0  0  0
   57.4670   21.1170   42.9890 S   0  0  0  0  0  0  0  0  0  0  0  0
   56.6010   22.7300   43.0230 C   0  0  0  0  0  0  0  0  0  0  0  0
   55.6730   22.9520   44.2330 C   0  0  0  0  0  0  0  0  0  0  0  0
   57.1580   25.7640   46.9480 C   0  0  0  0  0  0  0  0  0  0  0  0
   57.1980   27.1400   46.7020 C   0  0  0  0  0  0  0  0  0  0  0  0
   57.4637   33.4279   43.2625 H   0  0  0  0  0  0  0  0  0  0  0  0
   58.7874   35.2506   44.3323 H   0  0  0  0  0  0  0  0  0  0  0  0
   59.4996   35.0475   46.7168 H   0  0  0  0  0  0  0  0  0  0  0  0
   57.5745   31.1790   46.9635 H   0  0  0  0  0  0  0  0  0  0  0  0
   58.5360   29.5410   45.2850 H   0  0  0  0  0  0  0  0  0  0  0  0
   58.1743   27.0788   43.4280 H   0  0  0  0  0  0  0  0  0  0  0  0
   58.1045   24.6297   43.8662 H   0  0  0  0  0  0  0  0  0  0  0  0
   57.1959   20.5497   45.9421 H   0  0  0  0  0  0  0  0  0  0  0  0
   55.3684   20.4222   45.9466 H   0  0  0  0  0  0  0  0  0  0  0  0
   56.5524   19.1721   44.0858 H   0  0  0  0  0  0  0  0  0  0  0  0
   55.2685   20.3346   43.5886 H   0  0  0  0  0  0  0  0  0  0  0  0
   57.3618   23.5245   43.0275 H   0  0  0  0  0  0  0  0  0  0  0  0
   55.9528   22.7468   42.1345 H   0  0  0  0  0  0  0  0  0  0  0  0
   55.5983   24.0341   44.4159 H   0  0  0  0  0  0  0  0  0  0  0  0
   54.7063   22.4940   43.9767 H   0  0  0  0  0  0  0  0  0  0  0  0
   56.8448   25.3933   47.9352 H   0  0  0  0  0  0  0  0  0  0  0  0
   56.9170   27.8460   47.4973 H   0  0  0  0  0  0  0  0  0  0  0  0
  1  2  2  0
  2  3  1  0
  3  4  1  0
  4  5  2  0
  5  6  1  0
  6  7  2  0
  7  8  1  0
  8  9  1  0
  8 10  2  0
  2 11  1  0
 11 12  1  0
 12 13  2  0
 13 14  1  0
 14 15  2  0
 15 16  1  0
 16 17  2  0
 16 18  2  0
 16 19  1  0
 19 20  1  0
 20 21  1  0
 21 22  1  0
 22 23  1  0
 23 24  1  0
 15 25  1  0
 25 26  2  0
 10  4  1  0
 26 12  1  0
 24 19  1  0
  5 27  1  0
  6 28  1  0
  7 29  1  0
 10 30  1  0
 11 31  1  0
 13 32  1  0
 14 33  1  0
 20 34  1  0
 20 35  1  0
 21 36  1  0
 21 37  1  0
 23 38  1  0
 23 39  1  0
 24 40  1  0
 24 41  1  0
 25 42  1  0
 26 43  1  0
M  CHG  1   3  -1
M  END
>  <UniqueID>  (54) 
51

>  <SMILES>  (54) 
O=C([N-]c1cccc(F)c1)Nc1ccc(S(=O)(=O)N2CCSCC2)cc1

>  <Energy>  (54) 
59.752725439972906

>  <Genealogy>  (54) 
O=C([N-]c1cccc(F)c1)Nc1ccc(S(=O)(=O)N2CCSCC2)cc1 (protonated)
O=C([N-]c1cccc(F)c1)Nc1ccc(S(=O)(=O)N2CCSCC2)cc1 (3D coordinates assigned)
O=C([N-]c1cccc(F)c1)Nc1ccc(S(=O)(=O)N2CCSCC2)cc1 (nonaromatic ring conformer: 59.752725439972906 kcal/mol)

>  <smiles>  (54) 
O=C(Nc1ccc(S(=O)(=O)N2CCSCC2)cc1)Nc1cccc(F)c1

>  <score_type>  (54) 
oracle

>  <origin>  (54) 
adg

>  <m_score__min__energy>  (54) 
-10.31

>  <m_primary>  (54) 
energy

$$$$
54:0
     RDKit          3D

 72 76  0  0  1  0  0  0  0  0999 V2000
   69.3650   34.5730   50.0990 C   0  0  0  0  0  0  0  0  0  0  0  0
   68.4900   33.4560   50.6580 C   0  0  0  0  0  0  0  0  0  0  0  0
   68.9140   33.2030   52.0670 C   0  0  0  0  0  0  0  0  0  0  0  0
   67.1190   33.8530   50.4970 N   0  0  0  0  0  0  0  0  0  0  0  0
   66.1140   32.8840   50.2250 C   0  0  0  0  0  0  0  0  0  0  0  0
   66.5100   31.6830   50.1370 O   0  0  0  0  0  0  0  0  0  0  0  0
   64.7090   33.2320   50.0530 C   0  0  0  0  0  0  0  0  0  0  0  0
   63.8260   33.3740   51.0990 C   0  0  0  0  0  0  0  0  0  0  0  0
   62.4970   33.7030   50.9380 C   0  0  0  0  0  0  0  0  0  0  0  0
   62.0450   33.8980   49.6490 C   0  0  0  0  0  0  0  0  0  0  0  0
   60.7090   34.2360   49.3700 O   0  0  0  0  0  0  0  0  0  0  0  0
   60.1240   33.6480   48.2300 C   0  0  0  0  0  0  0  0  0  0  0  0
   60.4620   32.3920   47.9120 N   0  0  0  0  0  0  0  0  0  0  0  0
   59.9370   31.7790   46.8370 C   0  0  0  0  0  0  0  0  0  0  0  0
   60.2530   30.6030   46.6070 N   0  0  0  0  0  0  0  0  0  0  0  0
   60.3460   29.4610   47.3760 C   0  0  0  0  0  0  0  0  0  0  0  0
   59.5060   28.2980   46.9840 C   0  0  0  0  0  0  0  0  0  0  0  0
   58.8040   28.2690   45.7680 C   0  0  0  0  0  0  0  0  0  0  0  0
   58.0230   27.1880   45.4050 C   0  0  0  0  0  0  0  0  0  0  0  0
   57.8900   26.0830   46.2130 C   0  0  0  0  0  0  0  0  0  0  0  0
   57.0690   25.0120   45.7680 N   0  0  0  0  0  0  0  0  0  0  0  0
   55.6710   25.2600   45.7020 C   0  0  0  0  0  0  0  0  0  0  0  0
   55.1820   26.3950   46.0270 O   0  0  0  0  0  0  0  0  0  0  0  0
   54.7970   24.1500   45.2400 C   0  0  0  0  0  0  0  0  0  0  0  0
   55.5600   23.1150   44.5060 C   0  0  0  0  0  0  0  0  0  0  0  0
   55.8890   23.2460   43.1750 C   0  0  0  0  0  0  0  0  0  0  0  0
   56.6040   22.2250   42.5720 C   0  0  0  0  0  0  0  0  0  0  0  0
   56.9790   21.0960   43.2960 C   0  0  0  0  0  0  0  0  0  0  0  0
   56.6520   20.9570   44.6390 C   0  0  0  0  0  0  0  0  0  0  0  0
   55.9320   21.9880   45.2390 C   0  0  0  0  0  0  0  0  0  0  0  0
   58.5670   26.0890   47.4070 C   0  0  0  0  0  0  0  0  0  0  0  0
   59.3420   27.1690   47.7600 C   0  0  0  0  0  0  0  0  0  0  0  0
   59.0370   32.4150   46.0210 C   0  0  0  0  0  0  0  0  0  0  0  0
   58.5290   31.7830   44.9360 C   0  0  0  0  0  0  0  0  0  0  0  0
   57.6100   32.5220   44.1530 C   0  0  0  0  0  0  0  0  0  0  0  0
   57.3090   33.7910   44.5350 C   0  0  0  0  0  0  0  0  0  0  0  0
   57.8290   34.4340   45.6370 C   0  0  0  0  0  0  0  0  0  0  0  0
   58.7190   33.7170   46.3960 C   0  0  0  0  0  0  0  0  0  0  0  0
   59.2450   34.3220   47.4700 N   0  0  0  0  0  0  0  0  0  0  0  0
   62.9050   33.7620   48.5830 C   0  0  0  0  0  0  0  0  0  0  0  0
   64.2300   33.4300   48.7860 C   0  0  0  0  0  0  0  0  0  0  0  0
   69.8098   35.1408   50.9295 H   0  0  0  0  0  0  0  0  0  0  0  0
   70.1652   34.1381   49.4821 H   0  0  0  0  0  0  0  0  0  0  0  0
   68.7511   35.2458   49.4821 H   0  0  0  0  0  0  0  0  0  0  0  0
   68.6003   32.4987   50.1275 H   0  0  0  0  0  0  0  0  0  0  0  0
   68.1776   33.6424   52.7560 H   0  0  0  0  0  0  0  0  0  0  0  0
   68.9782   32.1188   52.2416 H   0  0  0  0  0  0  0  0  0  0  0  0
   69.8986   33.6614   52.2416 H   0  0  0  0  0  0  0  0  0  0  0  0
   66.8710   34.8620   50.5840 H   0  0  0  0  0  0  0  0  0  0  0  0
   64.2017   33.2161   52.1207 H   0  0  0  0  0  0  0  0  0  0  0  0
   61.8242   33.8059   51.8021 H   0  0  0  0  0  0  0  0  0  0  0  0
   61.3955   29.1323   47.3519 H   0  0  0  0  0  0  0  0  0  0  0  0
   59.9682   29.7583   48.3654 H   0  0  0  0  0  0  0  0  0  0  0  0
   58.8777   29.1293   45.0865 H   0  0  0  0  0  0  0  0  0  0  0  0
   57.4923   27.2121   44.4418 H   0  0  0  0  0  0  0  0  0  0  0  0
   57.4570   24.0760   45.4980 H   0  0  0  0  0  0  0  0  0  0  0  0
   54.3193   23.6857   46.1153 H   0  0  0  0  0  0  0  0  0  0  0  0
   54.0462   24.5701   44.5546 H   0  0  0  0  0  0  0  0  0  0  0  0
   55.5914   24.1389   42.6056 H   0  0  0  0  0  0  0  0  0  0  0  0
   56.8787   22.3065   41.5100 H   0  0  0  0  0  0  0  0  0  0  0  0
   57.5458   20.2979   42.7942 H   0  0  0  0  0  0  0  0  0  0  0  0
   56.9509   20.0646   45.2085 H   0  0  0  0  0  0  0  0  0  0  0  0
   55.6543   21.9125   46.3007 H   0  0  0  0  0  0  0  0  0  0  0  0
   58.4894   25.2260   48.0847 H   0  0  0  0  0  0  0  0  0  0  0  0
   59.8665   27.1301   48.7261 H   0  0  0  0  0  0  0  0  0  0  0  0
   58.8147   30.7527   44.6777 H   0  0  0  0  0  0  0  0  0  0  0  0
   57.1505   32.0797   43.2568 H   0  0  0  0  0  0  0  0  0  0  0  0
   56.5927   34.3496   43.9146 H   0  0  0  0  0  0  0  0  0  0  0  0
   57.5462   35.4654   45.8941 H   0  0  0  0  0  0  0  0  0  0  0  0
   59.0000   35.3000   47.7420 H   0  0  0  0  0  0  0  0  0  0  0  0
   62.5334   33.9193   47.5597 H   0  0  0  0  0  0  0  0  0  0  0  0
   64.9050   33.3240   47.9239 H   0  0  0  0  0  0  0  0  0  0  0  0
  1  2  1  0
  2  3  1  0
  2  4  1  0
  4  5  1  0
  5  6  2  0
  5  7  1  0
  7  8  2  0
  8  9  1  0
  9 10  2  0
 10 11  1  0
 11 12  1  0
 12 13  2  0
 13 14  1  0
 14 15  2  0
 15 16  1  0
 16 17  1  0
 17 18  2  0
 18 19  1  0
 19 20  2  0
 20 21  1  0
 21 22  1  0
 22 23  2  0
 22 24  1  0
 24 25  1  0
 25 26  2  0
 26 27  1  0
 27 28  2  0
 28 29  1  0
 29 30  2  0
 20 31  1  0
 31 32  2  0
 14 33  1  0
 33 34  2  0
 34 35  1  0
 35 36  2  0
 36 37  1  0
 37 38  2  0
 38 39  1  0
 10 40  1  0
 40 41  2  0
 41  7  1  0
 39 12  1  0
 32 17  1  0
 38 33  1  0
 30 25  1  0
  1 42  1  0
  1 43  1  0
  1 44  1  0
  2 45  1  0
  3 46  1  0
  3 47  1  0
  3 48  1  0
  4 49  1  0
  8 50  1  0
  9 51  1  0
 16 52  1  0
 16 53  1  0
 18 54  1  0
 19 55  1  0
 21 56  1  0
 24 57  1  0
 24 58  1  0
 26 59  1  0
 27 60  1  0
 28 61  1  0
 29 62  1  0
 30 63  1  0
 31 64  1  0
 32 65  1  0
 34 66  1  0
 35 67  1  0
 36 68  1  0
 37 69  1  0
 39 70  1  0
 40 71  1  0
 41 72  1  0
M  END
>  <smiles>  (55) 
CC(C)NC(=O)c1ccc(Oc2nc(=NCc3ccc(NC(=O)Cc4ccccc4)cc3)c3ccccc3[nH]2)cc1

>  <score_type>  (55) 
oracle

>  <origin>  (55) 
adg

>  <m_score__min__energy>  (55) 
-10.85

>  <m_primary>  (55) 
energy

$$$$
55:0
     RDKit          3D

 43 45  0  0  0  0  0  0  0  0999 V2000
   57.4080   30.4750   44.4950 C   0  0  0  0  0  0  0  0  0  0  0  0
   57.0690   31.6650   45.2620 N   0  0  0  0  0  0  0  0  0  0  0  0
   58.0120   32.4070   46.0480 C   0  0  0  0  0  0  0  0  0  0  0  0
   58.4040   33.5320   45.6330 O   0  0  0  0  0  0  0  0  0  0  0  0
   58.5560   31.8780   47.3100 C   0  0  0  0  0  0  0  0  0  0  0  0
   59.5570   30.8960   47.2920 C   0  0  0  0  0  0  0  0  0  0  0  0
   60.0790   30.3990   48.4920 C   0  0  0  0  0  0  0  0  0  0  0  0
   59.6030   30.8900   49.7150 C   0  0  0  0  0  0  0  0  0  0  0  0
   58.5990   31.8640   49.7490 C   0  0  0  0  0  0  0  0  0  0  0  0
   58.1950   32.3720   50.9940 O   0  0  0  0  0  0  0  0  0  0  0  0
   57.4860   31.6500   51.9620 C   0  0  0  0  0  0  0  0  0  0  0  0
   57.9270   31.5900   53.2930 C   0  0  0  0  0  0  0  0  0  0  0  0
   57.1910   30.8770   54.2390 C   0  0  0  0  0  0  0  0  0  0  0  0
   56.0110   30.2220   53.8710 C   0  0  0  0  0  0  0  0  0  0  0  0
   55.5580   30.2700   52.5390 C   0  0  0  0  0  0  0  0  0  0  0  0
   54.3760   29.5630   52.1040 N   0  0  0  0  0  0  0  0  0  0  0  0
   53.0430   29.7650   52.6880 C   0  0  1  0  0  0  0  0  0  0  0  0
   53.1410   30.0190   54.0670 O   0  0  0  0  0  0  0  0  0  0  0  0
   52.3210   30.8890   51.9900 C   0  0  0  0  0  0  0  0  0  0  0  0
   51.5870   31.8870   52.6090 C   0  0  0  0  0  0  0  0  0  0  0  0
   51.0200   32.6980   51.6910 N   0  0  0  0  0  0  0  0  0  0  0  0
   51.3940   32.1960   50.4930 C   0  0  0  0  0  0  0  0  0  0  0  0
   51.0060   32.7450   49.2720 O   0  0  0  0  0  0  0  0  0  0  0  0
   52.1910   31.0800   50.6260 C   0  0  0  0  0  0  0  0  0  0  0  0
   56.2960   31.0070   51.5980 C   0  0  0  0  0  0  0  0  0  0  0  0
   58.0690   32.3520   48.5390 C   0  0  0  0  0  0  0  0  0  0  0  0
   57.6431   29.6498   45.1833 H   0  0  0  0  0  0  0  0  0  0  0  0
   56.5548   30.1920   43.8611 H   0  0  0  0  0  0  0  0  0  0  0  0
   58.2823   30.6841   43.8611 H   0  0  0  0  0  0  0  0  0  0  0  0
   59.9334   30.5148   46.3313 H   0  0  0  0  0  0  0  0  0  0  0  0
   60.8606   29.6252   48.4749 H   0  0  0  0  0  0  0  0  0  0  0  0
   60.0224   30.5063   50.6568 H   0  0  0  0  0  0  0  0  0  0  0  0
   58.8525   32.1050   53.5899 H   0  0  0  0  0  0  0  0  0  0  0  0
   57.5405   30.8294   55.2809 H   0  0  0  0  0  0  0  0  0  0  0  0
   55.4345   29.6670   54.6258 H   0  0  0  0  0  0  0  0  0  0  0  0
   54.4810   28.8620   51.3340 H   0  0  0  0  0  0  0  0  0  0  0  0
   52.4607   28.8425   52.5471 H   0  0  0  0  0  0  0  0  0  0  0  0
   52.2920   30.4530   54.3480 H   0  0  0  0  0  0  0  0  0  0  0  0
   51.4808   32.0027   53.6977 H   0  0  0  0  0  0  0  0  0  0  0  0
   51.6340   32.7180   48.4780 H   0  0  0  0  0  0  0  0  0  0  0  0
   52.6295   30.4719   49.8210 H   0  0  0  0  0  0  0  0  0  0  0  0
   55.9346   31.0801   50.5616 H   0  0  0  0  0  0  0  0  0  0  0  0
   57.2700   33.1078   48.5566 H   0  0  0  0  0  0  0  0  0  0  0  0
  1  2  1  0
  2  3  1  0
  3  4  2  0
  3  5  1  0
  5  6  2  0
  6  7  1  0
  7  8  2  0
  8  9  1  0
  9 10  1  0
 10 11  1  0
 11 12  2  0
 12 13  1  0
 13 14  2  0
 14 15  1  0
 15 16  1  0
 16 17  1  0
 17 18  1  0
 17 19  1  0
 19 20  2  0
 20 21  1  0
 21 22  1  0
 22 23  1  0
 22 24  2  0
 15 25  2  0
  9 26  2  0
 26  5  1  0
 25 11  1  0
 24 19  1  0
  1 27  1  0
  1 28  1  0
  1 29  1  0
  6 30  1  0
  7 31  1  0
  8 32  1  0
 12 33  1  0
 13 34  1  0
 14 35  1  0
 16 36  1  0
 17 37  1  1
 18 38  1  0
 20 39  1  0
 23 40  1  0
 24 41  1  0
 25 42  1  0
 26 43  1  0
M  CHG  2   2  -1  21  -1
M  END
>  <UniqueID>  (56) 
52

>  <SMILES>  (56) 
C[N-]C(=O)c1cccc(Oc2cccc(N[C@@H](O)c3c[n-]c(O)c3)c2)c1

>  <Energy>  (56) 
81.69736798749884

>  <Genealogy>  (56) 
C[N-]C(=O)c1cccc(Oc2cccc(NC(O)c3c[n-]c(O)c3)c2)c1 (protonated)
C[N-]C(=O)c1cccc(Oc2cccc(N[C@@H](O)c3c[n-]c(O)c3)c2)c1 (chirality)
C[N-]C(=O)c1cccc(Oc2cccc(N[C@@H](O)c3c[n-]c(O)c3)c2)c1 (3D coordinates assigned)
C[N-]C(=O)c1cccc(Oc2cccc(N[C@@H](O)c3c[n-]c(O)c3)c2)c1 (optimized conformer: 81.69736798749884 kcal/mol)

>  <smiles>  (56) 
CNC(=O)c1cccc(Oc2cccc(NC(O)c3c[nH]c(O)c3)c2)c1

>  <score_type>  (56) 
oracle

>  <origin>  (56) 
adg

>  <m_score__min__energy>  (56) 
-11.59

>  <m_primary>  (56) 
energy

$$$$
56:0
     RDKit          3D

 59 63  0  0  0  0  0  0  0  0999 V2000
   63.7380   31.6120   46.8630 N   0  0  0  0  0  0  0  0  0  0  0  0
   63.5620   32.9890   47.1850 C   0  0  0  0  0  0  0  0  0  0  0  0
   63.7310   33.8500   46.2800 O   0  0  0  0  0  0  0  0  0  0  0  0
   63.2220   33.4240   48.5640 C   0  0  0  0  0  0  0  0  0  0  0  0
   64.2640   33.5940   49.4990 C   0  0  0  0  0  0  0  0  0  0  0  0
   63.9920   33.9840   50.8130 C   0  0  0  0  0  0  0  0  0  0  0  0
   62.6790   34.2160   51.2160 C   0  0  0  0  0  0  0  0  0  0  0  0
   61.6350   34.0620   50.3060 C   0  0  0  0  0  0  0  0  0  0  0  0
   61.8910   33.6710   48.9810 C   0  0  0  0  0  0  0  0  0  0  0  0
   60.7860   33.5710   48.0710 N   0  0  0  0  0  0  0  0  0  0  0  0
   60.6800   34.5330   46.9690 C   0  0  0  0  0  0  0  0  0  0  0  0
   60.1040   33.8530   45.7210 C   0  0  0  0  0  0  0  0  0  0  0  0
   59.0210   32.9230   46.0590 N   0  0  0  0  0  0  0  0  0  0  0  0
   58.3720   32.2000   45.0010 C   0  0  0  0  0  0  0  0  0  0  0  0
   57.9830   32.8140   43.9720 O   0  0  0  0  0  0  0  0  0  0  0  0
   58.1720   30.7440   45.0950 C   0  0  0  0  0  0  0  0  0  0  0  0
   57.9370   30.0380   46.2730 C   0  0  0  0  0  0  0  0  0  0  0  0
   57.7810   28.7310   45.8780 C   0  0  0  0  0  0  0  0  0  0  0  0
   57.4790   27.5970   46.6220 C   0  0  0  0  0  0  0  0  0  0  0  0
   57.2630   26.3870   45.9270 C   0  0  0  0  0  0  0  0  0  0  0  0
   56.8410   25.1970   46.6030 N   0  0  0  0  0  0  0  0  0  0  0  0
   55.4780   24.2090   46.1490 S   0  0  0  0  0  0  0  0  0  0  0  0
   54.3880   25.1020   45.6250 O   0  0  0  0  0  0  0  0  0  0  0  0
   54.9710   23.4910   47.3670 O   0  0  0  0  0  0  0  0  0  0  0  0
   55.8890   23.0010   44.9290 C   0  0  0  0  0  0  0  0  0  0  0  0
   55.9300   23.3460   43.5650 C   0  0  0  0  0  0  0  0  0  0  0  0
   56.3320   22.4020   42.6130 C   0  0  0  0  0  0  0  0  0  0  0  0
   56.6960   21.1130   43.0140 C   0  0  0  0  0  0  0  0  0  0  0  0
   56.6420   20.7590   44.3670 C   0  0  0  0  0  0  0  0  0  0  0  0
   56.2320   21.6980   45.3220 C   0  0  0  0  0  0  0  0  0  0  0  0
   57.4660   26.3370   44.5270 C   0  0  0  0  0  0  0  0  0  0  0  0
   57.8050   27.4980   43.8080 C   0  0  0  0  0  0  0  0  0  0  0  0
   57.9350   28.6880   44.5180 C   0  0  0  0  0  0  0  0  0  0  0  0
   58.1870   29.9110   44.0250 N   0  0  0  0  0  0  0  0  0  0  0  0
   58.5020   32.8500   47.4300 C   0  0  0  0  0  0  0  0  0  0  0  0
   59.6530   32.7110   48.4310 C   0  0  0  0  0  0  0  0  0  0  0  0
   64.6170   31.2720   46.4140 H   0  0  0  0  0  0  0  0  0  0  0  0
   65.3047   33.4172   49.1898 H   0  0  0  0  0  0  0  0  0  0  0  0
   64.8165   34.1080   51.5306 H   0  0  0  0  0  0  0  0  0  0  0  0
   62.4665   34.5204   52.2514 H   0  0  0  0  0  0  0  0  0  0  0  0
   60.5999   34.2484   50.6283 H   0  0  0  0  0  0  0  0  0  0  0  0
   60.0182   35.3583   47.2704 H   0  0  0  0  0  0  0  0  0  0  0  0
   61.6827   34.9198   46.7346 H   0  0  0  0  0  0  0  0  0  0  0  0
   59.7116   34.6256   45.0435 H   0  0  0  0  0  0  0  0  0  0  0  0
   60.9104   33.2792   45.2409 H   0  0  0  0  0  0  0  0  0  0  0  0
   57.8872   30.4392   47.2960 H   0  0  0  0  0  0  0  0  0  0  0  0
   57.4103   27.6406   47.7190 H   0  0  0  0  0  0  0  0  0  0  0  0
   55.6455   24.3597   43.2465 H   0  0  0  0  0  0  0  0  0  0  0  0
   56.3616   22.6746   41.5477 H   0  0  0  0  0  0  0  0  0  0  0  0
   57.0250   20.3768   42.2658 H   0  0  0  0  0  0  0  0  0  0  0  0
   56.9218   19.7425   44.6807 H   0  0  0  0  0  0  0  0  0  0  0  0
   56.1787   21.4134   46.3832 H   0  0  0  0  0  0  0  0  0  0  0  0
   57.3576   25.3801   43.9954 H   0  0  0  0  0  0  0  0  0  0  0  0
   57.9622   27.4662   42.7198 H   0  0  0  0  0  0  0  0  0  0  0  0
   58.3300   30.1700   43.0240 H   0  0  0  0  0  0  0  0  0  0  0  0
   57.9369   33.7671   47.6528 H   0  0  0  0  0  0  0  0  0  0  0  0
   57.8463   31.9710   47.5165 H   0  0  0  0  0  0  0  0  0  0  0  0
   59.2930   32.9942   49.4311 H   0  0  0  0  0  0  0  0  0  0  0  0
   59.9959   31.6659   48.4195 H   0  0  0  0  0  0  0  0  0  0  0  0
  1  2  1  0
  2  3  2  0
  2  4  1  0
  4  5  2  0
  5  6  1  0
  6  7  2  0
  7  8  1  0
  8  9  2  0
  9 10  1  0
 10 11  1  0
 11 12  1  0
 12 13  1  0
 13 14  1  0
 14 15  2  0
 14 16  1  0
 16 17  2  0
 17 18  1  0
 18 19  2  0
 19 20  1  0
 20 21  1  0
 21 22  1  0
 22 23  2  0
 22 24  2  0
 22 25  1  0
 25 26  2  0
 26 27  1  0
 27 28  2  0
 28 29  1  0
 29 30  2  0
 20 31  2  0
 31 32  1  0
 32 33  2  0
 33 34  1  0
 13 35  1  0
 35 36  1  0
  9  4  1  0
 36 10  1  0
 34 16  1  0
 33 18  1  0
 30 25  1  0
  1 37  1  0
  5 38  1  0
  6 39  1  0
  7 40  1  0
  8 41  1  0
 11 42  1  0
 11 43  1  0
 12 44  1  0
 12 45  1  0
 17 46  1  0
 19 47  1  0
 26 48  1  0
 27 49  1  0
 28 50  1  0
 29 51  1  0
 30 52  1  0
 31 53  1  0
 32 54  1  0
 34 55  1  0
 35 56  1  0
 35 57  1  0
 36 58  1  0
 36 59  1  0
M  CHG  2   1  -1  21  -1
M  END
>  <UniqueID>  (57) 
53

>  <SMILES>  (57) 
[NH-]C(=O)c1ccccc1N1CCN(C(=O)c2cc3cc([N-]S(=O)(=O)c4ccccc4)ccc3[nH]2)CC1

>  <Energy>  (57) 
115.20327775602196

>  <Genealogy>  (57) 
[NH-]C(=O)c1ccccc1N1CCN(C(=O)c2cc3cc([N-]S(=O)(=O)c4ccccc4)ccc3[nH]2)CC1 (protonated)
[NH-]C(=O)c1ccccc1N1CCN(C(=O)c2cc3cc([N-]S(=O)(=O)c4ccccc4)ccc3[nH]2)CC1 (3D coordinates assigned)
[NH-]C(=O)c1ccccc1N1CCN(C(=O)c2cc3cc([N-]S(=O)(=O)c4ccccc4)ccc3[nH]2)CC1 (nonaromatic ring conformer: 115.20327775602196 kcal/mol)

>  <smiles>  (57) 
NC(=O)c1ccccc1N1CCN(C(=O)c2cc3cc(NS(=O)(=O)c4ccccc4)ccc3[nH]2)CC1

>  <score_type>  (57) 
oracle

>  <origin>  (57) 
adg

>  <m_score__min__energy>  (57) 
-14.02

>  <m_primary>  (57) 
energy

$$$$
57:0
     RDKit          3D

 56 60  0  0  0  0  0  0  0  0999 V2000
   55.9060   30.3250   42.9420 O   0  0  0  0  0  0  0  0  0  0  0  0
   57.1110   30.7260   43.7460 S   0  0  0  0  0  0  0  0  0  0  0  0
   58.1240   31.3400   42.8200 O   0  0  0  0  0  0  0  0  0  0  0  0
   56.6400   31.8850   44.9490 N   0  0  0  0  0  0  0  0  0  0  0  0
   57.4020   33.1310   44.7800 C   0  0  0  0  0  0  0  0  0  0  0  0
   58.5350   33.2360   45.8260 C   0  0  2  0  0  0  0  0  0  0  0  0
   59.6780   34.1310   45.2760 C   0  0  0  0  0  0  0  0  0  0  0  0
   60.8380   34.2440   46.2970 C   0  0  0  0  0  0  0  0  0  0  0  0
   60.5200   33.4300   47.5830 C   0  0  2  0  0  0  0  0  0  0  0  0
   61.6390   33.5240   48.5980 C   0  0  0  0  0  0  0  0  0  0  0  0
   62.5830   32.5670   48.7350 N   0  0  0  0  0  0  0  0  0  0  0  0
   63.3930   33.0380   49.7020 C   0  0  0  0  0  0  0  0  0  0  0  0
   64.5850   32.3110   50.2010 C   0  0  0  0  0  0  0  0  0  0  0  0
   65.8870   32.8160   50.0080 C   0  0  0  0  0  0  0  0  0  0  0  0
   66.9970   32.1170   50.4910 C   0  0  0  0  0  0  0  0  0  0  0  0
   66.8250   30.9100   51.1710 C   0  0  0  0  0  0  0  0  0  0  0  0
   67.9040   30.2350   51.6400 F   0  0  0  0  0  0  0  0  0  0  0  0
   65.5410   30.3990   51.3690 C   0  0  0  0  0  0  0  0  0  0  0  0
   64.4270   31.0930   50.8890 C   0  0  0  0  0  0  0  0  0  0  0  0
   62.9250   34.2680   50.1190 C   0  0  0  0  0  0  0  0  0  0  0  0
   61.8200   34.5800   49.4210 N   0  0  0  0  0  0  0  0  0  0  0  0
   60.2920   31.9530   47.1710 C   0  0  0  0  0  0  0  0  0  0  0  0
   59.1350   31.8380   46.1440 C   0  0  0  0  0  0  0  0  0  0  0  0
   59.1980   33.9820   48.1800 C   0  0  0  0  0  0  0  0  0  0  0  0
   58.0380   33.8660   47.1570 C   0  0  0  0  0  0  0  0  0  0  0  0
   57.7610   29.2950   44.5510 C   0  0  0  0  0  0  0  0  0  0  0  0
   59.1450   29.0660   44.5050 C   0  0  0  0  0  0  0  0  0  0  0  0
   59.6910   27.9260   45.1000 C   0  0  0  0  0  0  0  0  0  0  0  0
   58.8620   27.0050   45.7420 C   0  0  0  0  0  0  0  0  0  0  0  0
   57.4830   27.2210   45.7870 C   0  0  0  0  0  0  0  0  0  0  0  0
   56.9270   28.3600   45.1930 C   0  0  0  0  0  0  0  0  0  0  0  0
   55.5830   28.5320   45.2350 F   0  0  0  0  0  0  0  0  0  0  0  0
   55.6290   32.0940   44.7880 H   0  0  0  0  0  0  0  0  0  0  0  0
   57.8410   33.1497   43.7716 H   0  0  0  0  0  0  0  0  0  0  0  0
   56.7177   33.9809   44.9194 H   0  0  0  0  0  0  0  0  0  0  0  0
   60.0616   33.6913   44.3435 H   0  0  0  0  0  0  0  0  0  0  0  0
   59.2755   35.1379   45.0915 H   0  0  0  0  0  0  0  0  0  0  0  0
   61.7596   33.8532   45.8410 H   0  0  0  0  0  0  0  0  0  0  0  0
   60.9662   35.3016   46.5708 H   0  0  0  0  0  0  0  0  0  0  0  0
   66.0304   33.7667   49.4736 H   0  0  0  0  0  0  0  0  0  0  0  0
   68.0089   32.5191   50.3348 H   0  0  0  0  0  0  0  0  0  0  0  0
   65.4058   29.4476   51.9043 H   0  0  0  0  0  0  0  0  0  0  0  0
   63.4186   30.6842   51.0501 H   0  0  0  0  0  0  0  0  0  0  0  0
   63.3839   34.8934   50.8989 H   0  0  0  0  0  0  0  0  0  0  0  0
   61.2145   31.5582   46.7203 H   0  0  0  0  0  0  0  0  0  0  0  0
   60.0251   31.3747   48.0679 H   0  0  0  0  0  0  0  0  0  0  0  0
   59.5206   31.3919   45.2154 H   0  0  0  0  0  0  0  0  0  0  0  0
   58.3444   31.2058   46.5744 H   0  0  0  0  0  0  0  0  0  0  0  0
   58.9420   33.4063   49.0817 H   0  0  0  0  0  0  0  0  0  0  0  0
   59.3414   35.0436   48.4299 H   0  0  0  0  0  0  0  0  0  0  0  0
   57.2451   33.2327   47.5815 H   0  0  0  0  0  0  0  0  0  0  0  0
   57.6521   34.8744   46.9466 H   0  0  0  0  0  0  0  0  0  0  0  0
   59.8028   29.7874   43.9982 H   0  0  0  0  0  0  0  0  0  0  0  0
   60.7768   27.7539   45.0624 H   0  0  0  0  0  0  0  0  0  0  0  0
   59.2945   26.1095   46.2123 H   0  0  0  0  0  0  0  0  0  0  0  0
   56.8309   26.4928   46.2915 H   0  0  0  0  0  0  0  0  0  0  0  0
  1  2  2  0
  2  3  2  0
  2  4  1  0
  4  5  1  0
  6  5  1  6
  6  7  1  0
  7  8  1  0
  8  9  1  0
  9 10  1  1
 10 11  2  0
 11 12  1  0
 12 13  1  0
 13 14  2  0
 14 15  1  0
 15 16  2  0
 16 17  1  0
 16 18  1  0
 18 19  2  0
 12 20  2  0
 20 21  1  0
  9 22  1  0
 22 23  1  0
  9 24  1  0
 24 25  1  0
  2 26  1  0
 26 27  2  0
 27 28  1  0
 28 29  2  0
 29 30  1  0
 30 31  2  0
 31 32  1  0
 23  6  1  0
 31 26  1  0
 25  6  1  0
 21 10  1  0
 19 13  1  0
  4 33  1  0
  5 34  1  0
  5 35  1  0
  7 36  1  0
  7 37  1  0
  8 38  1  0
  8 39  1  0
 14 40  1  0
 15 41  1  0
 18 42  1  0
 19 43  1  0
 20 44  1  0
 22 45  1  0
 22 46  1  0
 23 47  1  0
 23 48  1  0
 24 49  1  0
 24 50  1  0
 25 51  1  0
 25 52  1  0
 27 53  1  0
 28 54  1  0
 29 55  1  0
 30 56  1  0
M  CHG  1  21  -1
M  END
>  <UniqueID>  (58) 
54

>  <SMILES>  (58) 
O=S(=O)(NCC12CCC(c3nc(-c4ccc(F)cc4)c[n-]3)(CC1)CC2)c1ccccc1F

>  <Energy>  (58) 
98.22313652514441

>  <Genealogy>  (58) 
O=S(=O)(NCC12CCC(c3nc(-c4ccc(F)cc4)c[n-]3)(CC1)CC2)c1ccccc1F (protonated)
O=S(=O)(NCC12CCC(c3nc(-c4ccc(F)cc4)c[n-]3)(CC1)CC2)c1ccccc1F (3D coordinates assigned)
O=S(=O)(NCC12CCC(c3nc(-c4ccc(F)cc4)c[n-]3)(CC1)CC2)c1ccccc1F (nonaromatic ring conformer: 98.22313652514441 kcal/mol)

>  <smiles>  (58) 
O=S(=O)(NCC12CCC(c3nc(-c4ccc(F)cc4)c[nH]3)(CC1)CC2)c1ccccc1F

>  <score_type>  (58) 
oracle

>  <origin>  (58) 
adg

>  <m_score__min__energy>  (58) 
-11.19

>  <m_primary>  (58) 
energy

$$$$
58:0
     RDKit          3D

 41 43  0  0  0  0  0  0  0  0999 V2000
   57.9390   32.2660   42.2560 O   0  0  0  0  0  0  0  0  0  0  0  0
   58.1420   32.5830   43.4600 C   0  0  0  0  0  0  0  0  0  0  0  0
   58.5760   33.8360   43.7410 N   0  0  0  0  0  0  0  0  0  0  0  0
   58.8200   34.2370   45.0110 C   0  0  0  0  0  0  0  0  0  0  0  0
   59.2720   35.5320   45.2370 O   0  0  0  0  0  0  0  0  0  0  0  0
   58.6130   33.3480   46.0750 C   0  0  0  0  0  0  0  0  0  0  0  0
   58.9050   33.7570   47.5020 C   0  0  0  0  0  0  0  0  0  0  0  0
   60.3830   33.6540   47.7980 C   0  0  0  0  0  0  0  0  0  0  0  0
   61.2800   33.3840   46.7500 C   0  0  0  0  0  0  0  0  0  0  0  0
   62.6510   33.2810   46.9980 C   0  0  0  0  0  0  0  0  0  0  0  0
   63.1450   33.4470   48.2930 C   0  0  0  0  0  0  0  0  0  0  0  0
   64.5140   33.3390   48.5270 O   0  0  0  0  0  0  0  0  0  0  0  0
   62.2610   33.7190   49.3450 C   0  0  0  0  0  0  0  0  0  0  0  0
   60.8870   33.8220   49.1050 C   0  0  0  0  0  0  0  0  0  0  0  0
   60.0350   34.0970   50.1690 O   0  0  0  0  0  0  0  0  0  0  0  0
   58.1630   32.0500   45.7720 C   0  0  0  0  0  0  0  0  0  0  0  0
   57.9780   31.2260   46.7100 O   0  0  0  0  0  0  0  0  0  0  0  0
   57.9370   31.6760   44.4680 N   0  0  0  0  0  0  0  0  0  0  0  0
   57.5340   30.2910   44.1430 C   0  0  0  0  0  0  0  0  0  0  0  0
   58.6340   29.2880   44.5190 C   0  0  0  0  0  0  0  0  0  0  0  0
   58.0700   28.0700   45.2060 C   0  0  0  0  0  0  0  0  0  0  0  0
   58.9260   27.1530   45.8390 C   0  0  0  0  0  0  0  0  0  0  0  0
   58.3980   26.0430   46.5050 C   0  0  0  0  0  0  0  0  0  0  0  0
   57.0160   25.8430   46.5480 C   0  0  0  0  0  0  0  0  0  0  0  0
   56.1560   26.7610   45.9380 C   0  0  0  0  0  0  0  0  0  0  0  0
   54.7820   26.5710   45.9960 O   0  0  0  0  0  0  0  0  0  0  0  0
   56.6800   27.8730   45.2680 C   0  0  0  0  0  0  0  0  0  0  0  0
   58.5785   34.7965   47.6532 H   0  0  0  0  0  0  0  0  0  0  0  0
   58.3618   33.0825   48.1802 H   0  0  0  0  0  0  0  0  0  0  0  0
   60.8994   33.2527   45.7263 H   0  0  0  0  0  0  0  0  0  0  0  0
   63.3434   33.0684   46.1701 H   0  0  0  0  0  0  0  0  0  0  0  0
   65.1290   32.8820   47.8640 H   0  0  0  0  0  0  0  0  0  0  0  0
   62.6496   33.8523   50.3654 H   0  0  0  0  0  0  0  0  0  0  0  0
   56.6181   30.0441   44.7000 H   0  0  0  0  0  0  0  0  0  0  0  0
   57.3594   30.2252   43.0589 H   0  0  0  0  0  0  0  0  0  0  0  0
   59.1550   28.9712   43.6035 H   0  0  0  0  0  0  0  0  0  0  0  0
   59.3255   29.7842   45.2158 H   0  0  0  0  0  0  0  0  0  0  0  0
   60.0145   27.3089   45.8104 H   0  0  0  0  0  0  0  0  0  0  0  0
   59.0720   25.3257   46.9961 H   0  0  0  0  0  0  0  0  0  0  0  0
   56.6041   24.9622   47.0624 H   0  0  0  0  0  0  0  0  0  0  0  0
   56.0018   28.5944   44.7888 H   0  0  0  0  0  0  0  0  0  0  0  0
  1  2  2  0
  2  3  1  0
  3  4  1  0
  4  5  1  0
  4  6  2  0
  6  7  1  0
  7  8  1  0
  8  9  2  0
  9 10  1  0
 10 11  2  0
 11 12  1  0
 11 13  1  0
 13 14  2  0
 14 15  1  0
  6 16  1  0
 16 17  2  0
 16 18  1  0
 18 19  1  0
 19 20  1  0
 20 21  1  0
 21 22  2  0
 22 23  1  0
 23 24  2  0
 24 25  1  0
 25 26  1  0
 25 27  2  0
 18  2  1  0
 27 21  1  0
 14  8  1  0
  7 28  1  0
  7 29  1  0
  9 30  1  0
 10 31  1  0
 12 32  1  0
 13 33  1  0
 19 34  1  0
 19 35  1  0
 20 36  1  0
 20 37  1  0
 22 38  1  0
 23 39  1  0
 24 40  1  0
 27 41  1  0
M  CHG  4   3  -1   5  -1  15  -1  26  -1
M  END
>  <UniqueID>  (59) 
55

>  <SMILES>  (59) 
O=c1[n-]c([O-])c(Cc2ccc(O)cc2[O-])c(=O)n1CCc1cccc([O-])c1

>  <Energy>  (59) 
42.37520573402088

>  <Genealogy>  (59) 
O=c1[n-]c([O-])c(Cc2ccc(O)cc2[O-])c(=O)n1CCc1cccc([O-])c1 (protonated)
O=c1[n-]c([O-])c(Cc2ccc(O)cc2[O-])c(=O)n1CCc1cccc([O-])c1 (3D coordinates assigned)
O=c1[n-]c([O-])c(Cc2ccc(O)cc2[O-])c(=O)n1CCc1cccc([O-])c1 (optimized conformer: 42.37520573402088 kcal/mol)

>  <smiles>  (59) 
O=c1[nH]c(O)c(Cc2ccc(O)cc2O)c(=O)n1CCc1cccc(O)c1

>  <score_type>  (59) 
oracle

>  <origin>  (59) 
adg

>  <m_score__min__energy>  (59) 
-16.77

>  <m_primary>  (59) 
energy

$$$$
59:0
     RDKit          3D

 50 52  0  0  0  0  0  0  0  0999 V2000
   58.5110   34.8960   45.1550 C   0  0  0  0  0  0  0  0  0  0  0  0
   58.5520   33.3910   45.0950 C   0  0  0  0  0  0  0  0  0  0  0  0
   58.1110   32.7440   43.9290 C   0  0  0  0  0  0  0  0  0  0  0  0
   58.1390   31.3530   43.8340 C   0  0  0  0  0  0  0  0  0  0  0  0
   58.6200   30.5780   44.8930 C   0  0  0  0  0  0  0  0  0  0  0  0
   58.6160   29.1450   44.7760 N   0  0  0  0  0  0  0  0  0  0  0  0
   57.6180   28.3980   44.0620 C   0  0  0  0  0  0  0  0  0  0  0  0
   56.5890   28.9690   43.6090 O   0  0  0  0  0  0  0  0  0  0  0  0
   57.7690   26.9100   43.8900 C   0  0  0  0  0  0  0  0  0  0  0  0
   57.9380   26.1340   45.2190 C   0  0  1  0  0  0  0  0  0  0  0  0
   57.6360   24.6360   45.0510 C   0  0  0  0  0  0  0  0  0  0  0  0
   59.6880   26.3010   45.7440 S   0  0  0  0  0  0  0  0  0  0  0  0
   59.2180   27.2590   47.1750 C   0  0  0  0  0  0  0  0  0  0  0  0
   60.0570   27.7710   47.8980 O   0  0  0  0  0  0  0  0  0  0  0  0
   57.7680   27.4120   47.4410 C   0  0  0  0  0  0  0  0  0  0  0  0
   57.0800   26.7230   46.3190 C   0  0  0  0  0  0  0  0  0  0  0  0
   55.8630   26.6180   46.3110 O   0  0  0  0  0  0  0  0  0  0  0  0
   59.0380   31.2150   46.0730 C   0  0  0  0  0  0  0  0  0  0  0  0
   59.0270   32.6150   46.1800 C   0  0  0  0  0  0  0  0  0  0  0  0
   59.5680   33.3620   47.6950 S   0  0  0  0  0  0  0  0  0  0  0  0
   59.0660   32.5470   48.8540 O   0  0  0  0  0  0  0  0  0  0  0  0
   59.0010   34.7500   47.8140 O   0  0  0  0  0  0  0  0  0  0  0  0
   61.3120   33.4330   47.7320 N   0  0  0  0  0  0  0  0  0  0  0  0
   61.8620   32.1070   48.0490 C   0  0  0  0  0  0  0  0  0  0  0  0
   63.4050   32.1470   48.0230 C   0  0  0  0  0  0  0  0  0  0  0  0
   63.8980   33.4120   47.6200 O   0  0  0  0  0  0  0  0  0  0  0  0
   63.3550   33.7550   46.3590 C   0  0  0  0  0  0  0  0  0  0  0  0
   61.8220   33.9010   46.4340 C   0  0  0  0  0  0  0  0  0  0  0  0
   58.5021   35.2210   46.2059 H   0  0  0  0  0  0  0  0  0  0  0  0
   59.3983   35.3073   44.6515 H   0  0  0  0  0  0  0  0  0  0  0  0
   57.6027   35.2584   44.6515 H   0  0  0  0  0  0  0  0  0  0  0  0
   57.7399   33.3403   43.0824 H   0  0  0  0  0  0  0  0  0  0  0  0
   57.7795   30.8616   42.9179 H   0  0  0  0  0  0  0  0  0  0  0  0
   59.3360   28.6090   45.3110 H   0  0  0  0  0  0  0  0  0  0  0  0
   56.8727   26.5286   43.3789 H   0  0  0  0  0  0  0  0  0  0  0  0
   58.6896   26.7496   43.3097 H   0  0  0  0  0  0  0  0  0  0  0  0
   57.5416   24.1676   46.0418 H   0  0  0  0  0  0  0  0  0  0  0  0
   56.6947   24.5118   44.4955 H   0  0  0  0  0  0  0  0  0  0  0  0
   58.4556   24.1568   44.4955 H   0  0  0  0  0  0  0  0  0  0  0  0
   57.5022   26.9433   48.4000 H   0  0  0  0  0  0  0  0  0  0  0  0
   57.4764   28.4705   47.5081 H   0  0  0  0  0  0  0  0  0  0  0  0
   59.3787   30.6086   46.9252 H   0  0  0  0  0  0  0  0  0  0  0  0
   61.5237   31.8038   49.0508 H   0  0  0  0  0  0  0  0  0  0  0  0
   61.5100   31.3846   47.2978 H   0  0  0  0  0  0  0  0  0  0  0  0
   63.7827   31.9240   49.0318 H   0  0  0  0  0  0  0  0  0  0  0  0
   63.7511   31.4002   47.2933 H   0  0  0  0  0  0  0  0  0  0  0  0
   63.7907   34.7093   46.0282 H   0  0  0  0  0  0  0  0  0  0  0  0
   63.5943   32.9520   45.6463 H   0  0  0  0  0  0  0  0  0  0  0  0
   61.5544   34.9598   46.3027 H   0  0  0  0  0  0  0  0  0  0  0  0
   61.3718   33.2889   45.6386 H   0  0  0  0  0  0  0  0  0  0  0  0
  1  2  1  0
  2  3  2  0
  3  4  1  0
  4  5  2  0
  5  6  1  0
  6  7  1  0
  7  8  2  0
  7  9  1  0
 10  9  1  6
 10 11  1  0
 10 12  1  0
 12 13  1  0
 13 14  2  0
 13 15  1  0
 15 16  1  0
 16 17  2  0
  5 18  1  0
 18 19  2  0
 19 20  1  0
 20 21  2  0
 20 22  2  0
 20 23  1  0
 23 24  1  0
 24 25  1  0
 25 26  1  0
 26 27  1  0
 27 28  1  0
 19  2  1  0
 28 23  1  0
 16 10  1  0
  1 29  1  0
  1 30  1  0
  1 31  1  0
  3 32  1  0
  4 33  1  0
  6 34  1  0
  9 35  1  0
  9 36  1  0
 11 37  1  0
 11 38  1  0
 11 39  1  0
 15 40  1  0
 15 41  1  0
 18 42  1  0
 24 43  1  0
 24 44  1  0
 25 45  1  0
 25 46  1  0
 27 47  1  0
 27 48  1  0
 28 49  1  0
 28 50  1  0
M  END
>  <UniqueID>  (60) 
56

>  <SMILES>  (60) 
Cc1ccc(NC(=O)C[C@@]2(C)SC(=O)CC2=O)cc1S(=O)(=O)N1CCOCC1

>  <Energy>  (60) 
61.26645795239358

>  <Genealogy>  (60) 
Cc1ccc(NC(=O)C[C@@]2(C)SC(=O)CC2=O)cc1S(=O)(=O)N1CCOCC1 (chirality)
Cc1ccc(NC(=O)C[C@@]2(C)SC(=O)CC2=O)cc1S(=O)(=O)N1CCOCC1 (3D coordinates assigned)
Cc1ccc(NC(=O)C[C@@]2(C)SC(=O)CC2=O)cc1S(=O)(=O)N1CCOCC1 (nonaromatic ring conformer: 61.26645795239358 kcal/mol)

>  <smiles>  (60) 
Cc1ccc(NC(=O)CC2(C)SC(=O)CC2=O)cc1S(=O)(=O)N1CCOCC1

>  <score_type>  (60) 
oracle

>  <origin>  (60) 
adg

>  <m_score__min__energy>  (60) 
-9.0999999999999996

>  <m_primary>  (60) 
energy

$$$$
60:0
     RDKit          3D

 42 45  0  0  0  0  0  0  0  0999 V2000
   52.7258   28.1357   53.8697 H   0  0  0  0  0  0  0  0  0  0  0  0
   53.8120   28.1160   53.6970 C   0  0  0  0  0  0  0  0  0  0  0  0
   54.4330   27.3511   54.1863 H   0  0  0  0  0  0  0  0  0  0  0  0
   54.3770   29.0210   52.8930 C   0  0  0  0  0  0  0  0  0  0  0  0
   55.7250   28.9820   52.6900 N   0  0  0  0  0  0  0  0  0  0  0  0
   56.1760   30.0550   52.0110 C   0  0  0  0  0  0  0  0  0  0  0  0
   57.4280   30.1910   51.6860 N   0  0  0  0  0  0  0  0  0  0  0  0
   58.1420   31.4290   51.5490 C   0  0  0  0  0  0  0  0  0  0  0  0
   57.8250   32.5360   52.3580 C   0  0  0  0  0  0  0  0  0  0  0  0
   57.0186   32.4564   53.1020 H   0  0  0  0  0  0  0  0  0  0  0  0
   58.5280   33.7350   52.2220 C   0  0  0  0  0  0  0  0  0  0  0  0
   58.2665   34.5993   52.8501 H   0  0  0  0  0  0  0  0  0  0  0  0
   59.5620   33.8380   51.2900 C   0  0  0  0  0  0  0  0  0  0  0  0
   60.1067   34.7868   51.1756 H   0  0  0  0  0  0  0  0  0  0  0  0
   59.9050   32.7370   50.5030 C   0  0  0  0  0  0  0  0  0  0  0  0
   60.7238   32.8213   49.7733 H   0  0  0  0  0  0  0  0  0  0  0  0
   59.2130   31.5240   50.6360 C   0  0  0  0  0  0  0  0  0  0  0  0
   59.5940   30.4050   49.8180 N   0  0  0  0  0  0  0  0  0  0  0  0
   60.6980   29.5360   50.2300 C   0  0  0  0  0  0  0  0  0  0  0  0
   61.6326   29.8857   49.7671 H   0  0  0  0  0  0  0  0  0  0  0  0
   60.7989   29.5645   51.3250 H   0  0  0  0  0  0  0  0  0  0  0  0
   60.4110   28.1000   49.7800 C   0  0  0  0  0  0  0  0  0  0  0  0
   61.2991   27.4790   49.9691 H   0  0  0  0  0  0  0  0  0  0  0  0
   59.5485   27.7197   50.3470 H   0  0  0  0  0  0  0  0  0  0  0  0
   60.1000   28.0560   48.4000 O   0  0  0  0  0  0  0  0  0  0  0  0
   58.8940   28.7560   48.1550 C   0  0  0  0  0  0  0  0  0  0  0  0
   58.6147   28.6348   47.0980 H   0  0  0  0  0  0  0  0  0  0  0  0
   58.1089   28.3459   48.8072 H   0  0  0  0  0  0  0  0  0  0  0  0
   59.0600   30.2470   48.4630 C   0  0  0  0  0  0  0  0  0  0  0  0
   59.7557   30.6965   47.7392 H   0  0  0  0  0  0  0  0  0  0  0  0
   58.0839   30.7491   48.3907 H   0  0  0  0  0  0  0  0  0  0  0  0
   54.9230   31.1030   51.6090 S   0  0  0  0  0  0  0  0  0  0  0  0
   53.7310   30.1380   52.3080 C   0  0  0  0  0  0  0  0  0  0  0  0
   52.4260   30.4600   52.2270 C   0  0  0  0  0  0  0  0  0  0  0  0
   51.8493   30.4517   53.1637 H   0  0  0  0  0  0  0  0  0  0  0  0
   51.7020   30.8220   50.9980 C   0  0  0  0  0  0  0  0  0  0  0  0
   51.6620   30.0710   49.8820 N   0  0  0  0  0  0  0  0  0  0  0  0
   51.0180   30.8630   48.9960 C   0  0  0  0  0  0  0  0  0  0  0  0
   50.7670   30.4980   47.8180 O   0  0  0  0  0  0  0  0  0  0  0  0
   50.6740   32.0790   49.4700 N   0  0  0  0  0  0  0  0  0  0  0  0
   51.1280   32.0420   50.7330 C   0  0  0  0  0  0  0  0  0  0  0  0
   51.0240   33.1020   51.6240 O   0  0  0  0  0  0  0  0  0  0  0  0
  1  2  1  0
  2  3  1  0
  2  4  2  0
  4  5  1  0
  5  6  1  0
  6  7  2  0
  7  8  1  0
  8  9  2  0
  9 10  1  0
  9 11  1  0
 11 12  1  0
 11 13  2  0
 13 14  1  0
 13 15  1  0
 15 16  1  0
 15 17  2  0
 17 18  1  0
 18 19  1  0
 19 20  1  0
 19 21  1  0
 19 22  1  0
 22 23  1  0
 22 24  1  0
 22 25  1  0
 25 26  1  0
 26 27  1  0
 26 28  1  0
 26 29  1  0
 29 30  1  0
 29 31  1  0
  6 32  1  0
 32 33  1  0
 33 34  2  0
 34 35  1  0
 34 36  1  0
 36 37  1  0
 37 38  1  0
 38 39  2  0
 38 40  1  0
 40 41  1  0
 41 42  1  0
 33  4  1  0
 41 36  2  0
 17  8  1  0
 29 18  1  0
M  CHG  4   5  -1  37  -1  40  -1  42  -1
M  END
>  <UniqueID>  (61) 
57

>  <SMILES>  (61) 
C=c1[n-]/c(=N/c2ccccc2N2CCOCC2)s/c1=C/c1[n-]c(=O)[n-]c1[O-]

>  <Energy>  (61) 
131.17906992036177

>  <Genealogy>  (61) 
C=c1[n-]c(=Nc2ccccc2N2CCOCC2)sc1=Cc1[n-]c(=O)[n-]c1[O-] (protonated)
C=c1[n-]/c(=N/c2ccccc2N2CCOCC2)s/c1=C/c1[n-]c(=O)[n-]c1[O-] (cis-trans isomerization)
C=c1[n-]/c(=N/c2ccccc2N2CCOCC2)s/c1=C/c1[n-]c(=O)[n-]c1[O-] (3D coordinates assigned)
C=c1[n-]/c(=N/c2ccccc2N2CCOCC2)s/c1=C/c1[n-]c(=O)[n-]c1[O-] (nonaromatic ring conformer: 131.17906992036177 kcal/mol)

>  <smiles>  (61) 
C=c1[nH]c(=Nc2ccccc2N2CCOCC2)sc1=Cc1[nH]c(=O)[nH]c1O

>  <score_type>  (61) 
oracle

>  <origin>  (61) 
adg

>  <m_score__min__energy>  (61) 
-18.120000000000001

>  <m_primary>  (61) 
energy

$$$$
61:0
     RDKit          3D

 45 47  0  0  0  0  0  0  0  0999 V2000
   55.5170   29.7040   42.9240 O   0  0  0  0  0  0  0  0  0  0  0  0
   56.1920   29.9710   43.9530 C   0  0  0  0  0  0  0  0  0  0  0  0
   57.0450   31.2060   43.9760 C   0  0  0  0  0  0  0  0  0  0  0  0
   56.7840   31.9740   45.1880 N   0  0  0  0  0  0  0  0  0  0  0  0
   57.4870   33.1750   45.5320 C   0  0  0  0  0  0  0  0  0  0  0  0
   57.2200   34.2510   44.9310 O   0  0  0  0  0  0  0  0  0  0  0  0
   58.5180   33.1550   46.5950 C   0  0  0  0  0  0  0  0  0  0  0  0
   58.9190   34.3460   47.2290 C   0  0  0  0  0  0  0  0  0  0  0  0
   59.8950   34.3240   48.2290 C   0  0  0  0  0  0  0  0  0  0  0  0
   60.4820   33.1130   48.6170 C   0  0  0  0  0  0  0  0  0  0  0  0
   61.7060   33.0670   49.8830 S   0  0  0  0  0  0  0  0  0  0  0  0
   61.4350   34.1900   50.8460 O   0  0  0  0  0  0  0  0  0  0  0  0
   61.6340   31.7600   50.6230 O   0  0  0  0  0  0  0  0  0  0  0  0
   63.2940   33.2650   49.1740 N   0  0  0  0  0  0  0  0  0  0  0  0
   63.2390   34.1920   48.0380 C   0  0  0  0  0  0  0  0  0  0  0  0
   63.0560   33.3770   46.7670 C   0  0  0  0  0  0  0  0  0  0  0  0
   63.3910   31.9470   47.1470 C   0  0  0  0  0  0  0  0  0  0  0  0
   63.7710   31.9930   48.6200 C   0  0  0  0  0  0  0  0  0  0  0  0
   60.0890   31.9240   47.9900 C   0  0  0  0  0  0  0  0  0  0  0  0
   59.1150   31.9430   46.9890 C   0  0  0  0  0  0  0  0  0  0  0  0
   56.0130   29.1810   45.1330 N   0  0  0  0  0  0  0  0  0  0  0  0
   56.7300   28.1700   45.5410 C   0  0  0  0  0  0  0  0  0  0  0  0
   58.0820   28.3340   45.5960 N   0  0  0  0  0  0  0  0  0  0  0  0
   58.9240   27.3460   45.9950 C   0  0  0  0  0  0  0  0  0  0  0  0
   58.4160   26.1040   46.3720 C   0  0  0  0  0  0  0  0  0  0  0  0
   57.0370   25.9000   46.3520 C   0  0  0  0  0  0  0  0  0  0  0  0
   56.1790   26.9290   45.9540 C   0  0  0  0  0  0  0  0  0  0  0  0
   54.8070   26.7100   46.0200 O   0  0  0  0  0  0  0  0  0  0  0  0
   58.1057   30.9158   43.9507 H   0  0  0  0  0  0  0  0  0  0  0  0
   56.8049   31.8253   43.0992 H   0  0  0  0  0  0  0  0  0  0  0  0
   58.4605   35.3017   46.9350 H   0  0  0  0  0  0  0  0  0  0  0  0
   60.2036   35.2621   48.7136 H   0  0  0  0  0  0  0  0  0  0  0  0
   62.3923   34.8831   48.1622 H   0  0  0  0  0  0  0  0  0  0  0  0
   64.1674   34.7793   47.9820 H   0  0  0  0  0  0  0  0  0  0  0  0
   62.0170   33.4467   46.4125 H   0  0  0  0  0  0  0  0  0  0  0  0
   63.6990   33.7429   45.9530 H   0  0  0  0  0  0  0  0  0  0  0  0
   62.5180   31.2950   46.9959 H   0  0  0  0  0  0  0  0  0  0  0  0
   64.2059   31.5420   46.5290 H   0  0  0  0  0  0  0  0  0  0  0  0
   63.2998   31.1540   49.1530 H   0  0  0  0  0  0  0  0  0  0  0  0
   64.8620   31.9124   48.7349 H   0  0  0  0  0  0  0  0  0  0  0  0
   60.5497   30.9704   48.2873 H   0  0  0  0  0  0  0  0  0  0  0  0
   58.8121   31.0029   46.5047 H   0  0  0  0  0  0  0  0  0  0  0  0
   60.0088   27.5262   46.0207 H   0  0  0  0  0  0  0  0  0  0  0  0
   59.0944   25.2952   46.6813 H   0  0  0  0  0  0  0  0  0  0  0  0
   56.6227   24.9257   46.6505 H   0  0  0  0  0  0  0  0  0  0  0  0
  1  2  2  0
  2  3  1  0
  3  4  1  0
  4  5  1  0
  5  6  2  0
  5  7  1  0
  7  8  2  0
  8  9  1  0
  9 10  2  0
 10 11  1  0
 11 12  2  0
 11 13  2  0
 11 14  1  0
 14 15  1  0
 15 16  1  0
 16 17  1  0
 17 18  1  0
 10 19  1  0
 19 20  2  0
  2 21  1  0
 21 22  2  3
 22 23  1  0
 23 24  1  0
 24 25  2  0
 25 26  1  0
 26 27  2  0
 27 28  1  0
 20  7  1  0
 27 22  1  0
 18 14  1  0
  3 29  1  0
  3 30  1  0
  8 31  1  0
  9 32  1  0
 15 33  1  0
 15 34  1  0
 16 35  1  0
 16 36  1  0
 17 37  1  0
 17 38  1  0
 18 39  1  0
 18 40  1  0
 19 41  1  0
 20 42  1  0
 24 43  1  0
 25 44  1  0
 26 45  1  0
M  CHG  3   4  -1  23  -1  28  -1
M  END
>  <UniqueID>  (62) 
58

>  <SMILES>  (62) 
O=C(C[N-]C(=O)c1ccc(S(=O)(=O)N2CCCC2)cc1)N=c1[n-]cccc1[O-]

>  <Energy>  (62) 
59.04666652153962

>  <Genealogy>  (62) 
O=C(C[N-]C(=O)c1ccc(S(=O)(=O)N2CCCC2)cc1)N=c1[n-]cccc1[O-] (protonated)
O=C(C[N-]C(=O)c1ccc(S(=O)(=O)N2CCCC2)cc1)N=c1[n-]cccc1[O-] (3D coordinates assigned)
O=C(C[N-]C(=O)c1ccc(S(=O)(=O)N2CCCC2)cc1)N=c1[n-]cccc1[O-] (nonaromatic ring conformer: 59.04666652153962 kcal/mol)

>  <smiles>  (62) 
O=C(CNC(=O)c1ccc(S(=O)(=O)N2CCCC2)cc1)N=c1[nH]cccc1O

>  <score_type>  (62) 
oracle

>  <origin>  (62) 
adg

>  <m_score__min__energy>  (62) 
-15.880000000000001

>  <m_primary>  (62) 
energy

$$$$
62:0
     RDKit          3D

 26 27  0  0  0  0  0  0  0  0999 V2000
   52.0160   24.6100   44.8670 N   0  0  0  0  0  0  0  0  0  0  0  0
   53.2080   23.9230   45.2560 C   0  0  0  0  0  0  0  0  0  0  0  0
   53.2220   22.6640   45.2550 O   0  0  0  0  0  0  0  0  0  0  0  0
   54.4210   24.6570   45.6570 C   0  0  0  0  0  0  0  0  0  0  0  0
   55.6940   24.1390   45.8070 C   0  0  0  0  0  0  0  0  0  0  0  0
   56.4390   25.2290   46.1890 C   0  0  0  0  0  0  0  0  0  0  0  0
   57.8090   25.2010   46.4650 O   0  0  0  0  0  0  0  0  0  0  0  0
   58.7710   25.9250   45.7010 C   0  0  0  0  0  0  0  0  0  0  0  0
   58.3980   27.3880   45.6320 C   0  0  0  0  0  0  0  0  0  0  0  0
   58.5110   28.1550   46.8040 C   0  0  0  0  0  0  0  0  0  0  0  0
   58.1690   29.5070   46.8050 C   0  0  0  0  0  0  0  0  0  0  0  0
   57.7070   30.1120   45.6380 C   0  0  0  0  0  0  0  0  0  0  0  0
   57.5860   29.3700   44.4590 C   0  0  0  0  0  0  0  0  0  0  0  0
   56.9990   30.1820   43.0130 Cl  0  0  0  0  0  0  0  0  0  0  0  0
   57.9310   28.0030   44.4450 C   0  0  0  0  0  0  0  0  0  0  0  0
   57.7710   27.0940   42.9390 Cl  0  0  0  0  0  0  0  0  0  0  0  0
   55.6660   26.3280   46.2620 N   0  0  0  0  0  0  0  0  0  0  0  0
   54.4310   25.9760   45.9360 N   0  0  0  0  0  0  0  0  0  0  0  0
   51.1690   24.0670   44.5870 H   0  0  0  0  0  0  0  0  0  0  0  0
   51.9620   25.6510   44.8530 H   0  0  0  0  0  0  0  0  0  0  0  0
   56.0302   23.1025   45.6566 H   0  0  0  0  0  0  0  0  0  0  0  0
   59.7590   25.8250   46.1742 H   0  0  0  0  0  0  0  0  0  0  0  0
   58.7968   25.5154   44.6804 H   0  0  0  0  0  0  0  0  0  0  0  0
   58.8729   27.6842   47.7300 H   0  0  0  0  0  0  0  0  0  0  0  0
   58.2641   30.0968   47.7287 H   0  0  0  0  0  0  0  0  0  0  0  0
   57.4362   31.1781   45.6442 H   0  0  0  0  0  0  0  0  0  0  0  0
  1  2  1  0
  2  3  2  0
  2  4  1  0
  4  5  2  0
  5  6  1  0
  6  7  1  0
  7  8  1  0
  8  9  1  0
  9 10  2  0
 10 11  1  0
 11 12  2  0
 12 13  1  0
 13 14  1  0
 13 15  2  0
 15 16  1  0
  6 17  2  0
 17 18  1  0
 18  4  1  0
 15  9  1  0
  1 19  1  0
  1 20  1  0
  5 21  1  0
  8 22  1  0
  8 23  1  0
 10 24  1  0
 11 25  1  0
 12 26  1  0
M  CHG  1  18  -1
M  END
>  <UniqueID>  (63) 
59

>  <SMILES>  (63) 
NC(=O)c1cc(OCc2cccc(Cl)c2Cl)n[n-]1

>  <Energy>  (63) 
55.74864354166185

>  <Genealogy>  (63) 
NC(=O)c1cc(OCc2cccc(Cl)c2Cl)n[n-]1 (protonated)
NC(=O)c1cc(OCc2cccc(Cl)c2Cl)n[n-]1 (3D coordinates assigned)
NC(=O)c1cc(OCc2cccc(Cl)c2Cl)n[n-]1 (optimized conformer: 55.74864354166185 kcal/mol)

>  <smiles>  (63) 
NC(=O)c1cc(OCc2cccc(Cl)c2Cl)n[nH]1

>  <score_type>  (63) 
oracle

>  <origin>  (63) 
adg

>  <m_score__min__energy>  (63) 
-8.9600000000000009

>  <m_primary>  (63) 
energy

$$$$
63:0
     RDKit          3D

 44 47  0  0  0  0  0  0  0  0999 V2000
   60.9980   33.7680   50.4920 C   0  0  0  0  0  0  0  0  0  0  0  0
   62.0000   33.4920   49.4050 C   0  0  0  0  0  0  0  0  0  0  0  0
   63.3680   33.5010   49.7280 C   0  0  0  0  0  0  0  0  0  0  0  0
   64.3340   33.3100   48.7380 C   0  0  0  0  0  0  0  0  0  0  0  0
   63.9470   33.1090   47.4150 C   0  0  0  0  0  0  0  0  0  0  0  0
   62.5930   33.0750   47.0780 C   0  0  0  0  0  0  0  0  0  0  0  0
   61.6060   33.2380   48.0650 C   0  0  0  0  0  0  0  0  0  0  0  0
   60.1850   33.1370   47.6740 C   0  0  0  0  0  0  0  0  0  0  0  0
   59.6850   33.6300   46.5210 N   0  0  0  0  0  0  0  0  0  0  0  0
   58.3400   33.4340   46.4180 C   0  0  0  0  0  0  0  0  0  0  0  0
   57.5560   33.9070   45.2310 C   0  0  0  0  0  0  0  0  0  0  0  0
   58.1010   33.0260   43.7260 S   0  0  0  0  0  0  0  0  0  0  0  0
   57.5710   31.4090   44.2860 C   0  0  0  0  0  0  0  0  0  0  0  0
   56.3480   30.9350   43.9400 N   0  0  0  0  0  0  0  0  0  0  0  0
   55.9230   29.7170   44.3670 C   0  0  0  0  0  0  0  0  0  0  0  0
   54.7900   29.3000   44.0090 O   0  0  0  0  0  0  0  0  0  0  0  0
   56.7510   28.9310   45.1840 C   0  0  0  0  0  0  0  0  0  0  0  0
   56.3220   27.6190   45.6140 C   0  0  0  0  0  0  0  0  0  0  0  0
   55.9790   26.5690   45.9600 N   0  0  0  0  0  0  0  0  0  0  0  0
   58.0250   29.4350   45.5150 C   0  0  0  0  0  0  0  0  0  0  0  0
   59.0070   28.6630   46.3040 C   0  0  0  0  0  0  0  0  0  0  0  0
   59.6560   27.5460   45.7540 C   0  0  0  0  0  0  0  0  0  0  0  0
   60.5480   26.8000   46.5320 C   0  0  0  0  0  0  0  0  0  0  0  0
   60.8010   27.1690   47.8570 C   0  0  0  0  0  0  0  0  0  0  0  0
   60.1560   28.2790   48.4090 C   0  0  0  0  0  0  0  0  0  0  0  0
   59.2550   29.0180   47.6380 C   0  0  0  0  0  0  0  0  0  0  0  0
   58.3930   30.6600   45.0600 N   0  0  0  0  0  0  0  0  0  0  0  0
   57.7540   32.7810   47.5040 C   0  0  0  0  0  0  0  0  0  0  0  0
   58.9650   32.4600   48.6230 S   0  0  0  0  0  0  0  0  0  0  0  0
   61.4764   33.6362   51.4737 H   0  0  0  0  0  0  0  0  0  0  0  0
   60.6309   34.8007   50.3987 H   0  0  0  0  0  0  0  0  0  0  0  0
   60.1539   33.0689   50.3987 H   0  0  0  0  0  0  0  0  0  0  0  0
   63.6805   33.6600   50.7706 H   0  0  0  0  0  0  0  0  0  0  0  0
   65.4016   33.3183   49.0030 H   0  0  0  0  0  0  0  0  0  0  0  0
   64.7103   32.9768   46.6341 H   0  0  0  0  0  0  0  0  0  0  0  0
   62.2958   32.9192   46.0304 H   0  0  0  0  0  0  0  0  0  0  0  0
   56.4868   33.7113   45.3999 H   0  0  0  0  0  0  0  0  0  0  0  0
   57.7227   34.9859   45.0965 H   0  0  0  0  0  0  0  0  0  0  0  0
   59.4629   27.2571   44.7103 H   0  0  0  0  0  0  0  0  0  0  0  0
   61.0511   25.9219   46.1008 H   0  0  0  0  0  0  0  0  0  0  0  0
   61.5079   26.5853   48.4649 H   0  0  0  0  0  0  0  0  0  0  0  0
   60.3575   28.5709   49.4502 H   0  0  0  0  0  0  0  0  0  0  0  0
   58.7376   29.8825   48.0795 H   0  0  0  0  0  0  0  0  0  0  0  0
   56.6898   32.5229   47.6082 H   0  0  0  0  0  0  0  0  0  0  0  0
  1  2  1  0
  2  3  2  0
  3  4  1  0
  4  5  2  0
  5  6  1  0
  6  7  2  0
  7  8  1  0
  8  9  2  0
  9 10  1  0
 10 11  1  0
 11 12  1  0
 12 13  1  0
 13 14  2  0
 14 15  1  0
 15 16  2  0
 15 17  1  0
 17 18  1  0
 18 19  3  0
 17 20  2  0
 20 21  1  0
 21 22  2  0
 22 23  1  0
 23 24  2  0
 24 25  1  0
 25 26  2  0
 20 27  1  0
 10 28  2  0
 28 29  1  0
  7  2  1  0
 29  8  1  0
 27 13  1  0
 26 21  1  0
  1 30  1  0
  1 31  1  0
  1 32  1  0
  3 33  1  0
  4 34  1  0
  5 35  1  0
  6 36  1  0
 11 37  1  0
 11 38  1  0
 22 39  1  0
 23 40  1  0
 24 41  1  0
 25 42  1  0
 26 43  1  0
 28 44  1  0
M  CHG  1  27  -1
M  END
>  <UniqueID>  (64) 
60

>  <SMILES>  (64) 
Cc1ccccc1-c1nc(CSc2nc(=O)c(C#N)c(-c3ccccc3)[n-]2)cs1

>  <Energy>  (64) 
83.31674264352871

>  <Genealogy>  (64) 
Cc1ccccc1-c1nc(CSc2nc(=O)c(C#N)c(-c3ccccc3)[n-]2)cs1 (protonated)
Cc1ccccc1-c1nc(CSc2nc(=O)c(C#N)c(-c3ccccc3)[n-]2)cs1 (3D coordinates assigned)
Cc1ccccc1-c1nc(CSc2nc(=O)c(C#N)c(-c3ccccc3)[n-]2)cs1 (optimized conformer: 83.31674264352871 kcal/mol)

>  <smiles>  (64) 
Cc1ccccc1-c1nc(CSc2nc(=O)c(C#N)c(-c3ccccc3)[nH]2)cs1

>  <score_type>  (64) 
oracle

>  <origin>  (64) 
adg

>  <m_score__min__energy>  (64) 
-10.1

>  <m_primary>  (64) 
energy

$$$$
64:0
     RDKit          3D

 34 36  0  0  0  0  0  0  0  0999 V2000
   52.6622   23.7100   45.1260 H   0  0  0  0  0  0  0  0  0  0  0  0
   53.6890   24.0920   45.2250 C   0  0  0  0  0  0  0  0  0  0  0  0
   53.9620   25.3280   45.7230 N   0  0  0  0  0  0  0  0  0  0  0  0
   55.2880   25.5790   45.7480 C   0  0  0  0  0  0  0  0  0  0  0  0
   55.7660   26.7060   46.1900 N   0  0  0  0  0  0  0  0  0  0  0  0
   57.1090   27.2040   46.0660 C   0  0  0  0  0  0  0  0  0  0  0  0
   58.0900   26.4110   46.0770 O   0  0  0  0  0  0  0  0  0  0  0  0
   57.3470   28.6660   45.9140 C   0  0  0  0  0  0  0  0  0  0  0  0
   56.4180   29.4840   45.2480 C   0  0  0  0  0  0  0  0  0  0  0  0
   55.2410   28.9580   44.7250 O   0  0  0  0  0  0  0  0  0  0  0  0
   56.6510   30.8110   45.1210 N   0  0  0  0  0  0  0  0  0  0  0  0
   57.7670   31.3910   45.6230 C   0  0  0  0  0  0  0  0  0  0  0  0
   57.9240   32.6350   45.4880 O   0  0  0  0  0  0  0  0  0  0  0  0
   58.7020   30.6350   46.2780 N   0  0  0  0  0  0  0  0  0  0  0  0
   59.8900   31.2580   46.8080 C   0  0  0  0  0  0  0  0  0  0  0  0
   59.8040   32.4800   47.4910 C   0  0  0  0  0  0  0  0  0  0  0  0
   58.8260   32.9659   47.6227 H   0  0  0  0  0  0  0  0  0  0  0  0
   60.9550   33.0830   48.0050 C   0  0  0  0  0  0  0  0  0  0  0  0
   60.8764   34.0414   48.5392 H   0  0  0  0  0  0  0  0  0  0  0  0
   62.2070   32.4780   47.8460 C   0  0  0  0  0  0  0  0  0  0  0  0
   63.3320   33.1230   48.3810 O   0  0  0  0  0  0  0  0  0  0  0  0
   64.2730   32.5060   49.2540 C   0  0  0  0  0  0  0  0  0  0  0  0
   63.9836   32.6957   50.2982 H   0  0  0  0  0  0  0  0  0  0  0  0
   64.2886   31.4218   49.0691 H   0  0  0  0  0  0  0  0  0  0  0  0
   65.2736   32.9239   49.0691 H   0  0  0  0  0  0  0  0  0  0  0  0
   62.2950   31.2520   47.1610 C   0  0  0  0  0  0  0  0  0  0  0  0
   63.2735   30.7668   47.0301 H   0  0  0  0  0  0  0  0  0  0  0  0
   61.1440   30.6480   46.6460 C   0  0  0  0  0  0  0  0  0  0  0  0
   61.2214   29.6899   46.1111 H   0  0  0  0  0  0  0  0  0  0  0  0
   58.5110   29.2830   46.4230 C   0  0  0  0  0  0  0  0  0  0  0  0
   59.3960   28.5840   46.9930 O   0  0  0  0  0  0  0  0  0  0  0  0
   56.1740   24.2710   45.1530 S   0  0  0  0  0  0  0  0  0  0  0  0
   54.8010   23.3460   44.8500 C   0  0  0  0  0  0  0  0  0  0  0  0
   54.7859   22.3298   44.4292 H   0  0  0  0  0  0  0  0  0  0  0  0
  1  2  1  0
  2  3  1  0
  3  4  1  0
  4  5  2  0
  5  6  1  0
  6  7  2  0
  6  8  1  0
  8  9  2  0
  9 10  1  0
  9 11  1  0
 11 12  1  0
 12 13  2  0
 12 14  1  0
 14 15  1  0
 15 16  2  0
 16 17  1  0
 16 18  1  0
 18 19  1  0
 18 20  2  0
 20 21  1  0
 21 22  1  0
 22 23  1  0
 22 24  1  0
 22 25  1  0
 20 26  1  0
 26 27  1  0
 26 28  2  0
 28 29  1  0
 14 30  1  0
 30 31  2  0
  4 32  1  0
 32 33  1  0
 33 34  1  0
 33  2  2  0
 30  8  1  0
 28 15  1  0
M  CHG  3   3  -1  10  -1  11  -1
M  END
>  <UniqueID>  (65) 
61

>  <SMILES>  (65) 
COc1ccc(-n2c(=O)[n-]c([O-])c(C(=O)/N=c3/[n-]ccs3)c2=O)cc1

>  <Energy>  (65) 
85.58893435522758

>  <Genealogy>  (65) 
COc1ccc(-n2c(=O)[n-]c([O-])c(C(=O)N=c3[n-]ccs3)c2=O)cc1 (protonated)
COc1ccc(-n2c(=O)[n-]c([O-])c(C(=O)/N=c3/[n-]ccs3)c2=O)cc1 (cis-trans isomerization)
COc1ccc(-n2c(=O)[n-]c([O-])c(C(=O)/N=c3/[n-]ccs3)c2=O)cc1 (3D coordinates assigned)
COc1ccc(-n2c(=O)[n-]c([O-])c(C(=O)/N=c3/[n-]ccs3)c2=O)cc1 (optimized conformer: 85.58893435522758 kcal/mol)

>  <smiles>  (65) 
COc1ccc(-n2c(=O)[nH]c(O)c(C(=O)N=c3[nH]ccs3)c2=O)cc1

>  <score_type>  (65) 
oracle

>  <origin>  (65) 
adg

>  <m_score__min__energy>  (65) 
-13.449999999999999

>  <m_primary>  (65) 
energy

$$$$
65:0
     RDKit          3D

 51 54  0  0  0  0  0  0  0  0999 V2000
   54.1330   26.3400   46.3960 H   0  0  0  0  0  0  0  0  0  0  0  0
   55.1130   26.4980   46.1940 O   0  0  0  0  0  0  0  0  0  0  0  0
   56.0810   25.5410   46.4850 C   0  0  0  0  0  0  0  0  0  0  0  0
   55.7930   24.3380   47.0060 N   0  0  0  0  0  0  0  0  0  0  0  0
   56.9970   23.7320   47.0490 C   0  0  0  0  0  0  0  0  0  0  0  0
   57.1520   22.5590   47.4800 O   0  0  0  0  0  0  0  0  0  0  0  0
   58.0240   24.4770   46.5880 N   0  0  0  0  0  0  0  0  0  0  0  0
   57.4390   25.6390   46.2490 C   0  0  0  0  0  0  0  0  0  0  0  0
   58.1730   26.7670   45.6520 C   0  0  0  0  0  0  0  0  0  0  0  0
   58.5361   26.6631   44.6189 H   0  0  0  0  0  0  0  0  0  0  0  0
   58.4240   27.9200   46.3030 C   0  0  0  0  0  0  0  0  0  0  0  0
   58.4170   28.1020   47.6800 C   0  0  0  0  0  0  0  0  0  0  0  0
   58.1824   27.3441   48.4419 H   0  0  0  0  0  0  0  0  0  0  0  0
   58.7620   29.4200   47.9060 C   0  0  0  0  0  0  0  0  0  0  0  0
   58.8940   30.0430   49.2620 C   0  0  0  0  0  0  0  0  0  0  0  0
   58.7317   29.2771   50.0347 H   0  0  0  0  0  0  0  0  0  0  0  0
   59.9022   30.4685   49.3735 H   0  0  0  0  0  0  0  0  0  0  0  0
   58.1450   30.8408   49.3735 H   0  0  0  0  0  0  0  0  0  0  0  0
   59.0020   30.0520   46.7350 N   0  0  0  0  0  0  0  0  0  0  0  0
   59.3900   31.4300   46.5900 C   0  0  0  0  0  0  0  0  0  0  0  0
   58.4630   32.3820   46.1450 C   0  0  0  0  0  0  0  0  0  0  0  0
   57.4380   32.0724   45.8931 H   0  0  0  0  0  0  0  0  0  0  0  0
   58.8350   33.7220   46.0200 C   0  0  0  0  0  0  0  0  0  0  0  0
   58.1022   34.4655   45.6733 H   0  0  0  0  0  0  0  0  0  0  0  0
   60.1380   34.1200   46.3350 C   0  0  0  0  0  0  0  0  0  0  0  0
   60.4245   35.1780   46.2420 H   0  0  0  0  0  0  0  0  0  0  0  0
   61.0840   33.1750   46.7700 C   0  0  0  0  0  0  0  0  0  0  0  0
   62.4610   33.5900   47.1180 C   0  0  0  0  0  0  0  0  0  0  0  0
   63.1680   34.1610   46.2430 O   0  0  0  0  0  0  0  0  0  0  0  0
   63.0150   33.3530   48.4280 N   0  0  0  0  0  0  0  0  0  0  0  0
   64.4620   33.1260   48.5590 C   0  0  0  0  0  0  0  0  0  0  0  0
   64.7767   32.3763   47.8181 H   0  0  0  0  0  0  0  0  0  0  0  0
   64.9825   34.0799   48.3883 H   0  0  0  0  0  0  0  0  0  0  0  0
   64.8160   32.6220   49.9630 C   0  0  0  0  0  0  0  0  0  0  0  0
   64.3689   31.6272   50.1057 H   0  0  0  0  0  0  0  0  0  0  0  0
   65.9125   32.5824   50.0417 H   0  0  0  0  0  0  0  0  0  0  0  0
   64.2950   33.5640   51.0670 C   0  0  0  0  0  0  0  0  0  0  0  0
   65.2300   34.5630   51.2850 F   0  0  0  0  0  0  0  0  0  0  0  0
   64.1670   32.8360   52.2390 F   0  0  0  0  0  0  0  0  0  0  0  0
   62.9350   34.2170   50.7250 C   0  0  0  0  0  0  0  0  0  0  0  0
   62.3153   34.2370   51.6336 H   0  0  0  0  0  0  0  0  0  0  0  0
   63.1373   35.2310   50.3496 H   0  0  0  0  0  0  0  0  0  0  0  0
   62.1770   33.4600   49.6310 C   0  0  0  0  0  0  0  0  0  0  0  0
   61.9254   32.4517   49.9918 H   0  0  0  0  0  0  0  0  0  0  0  0
   61.2545   34.0059   49.3839 H   0  0  0  0  0  0  0  0  0  0  0  0
   60.6970   31.8320   46.9070 C   0  0  0  0  0  0  0  0  0  0  0  0
   61.4243   31.0888   47.2658 H   0  0  0  0  0  0  0  0  0  0  0  0
   58.8000   29.1460   45.7460 C   0  0  0  0  0  0  0  0  0  0  0  0
   58.9700   29.4090   44.4400 C   0  0  0  0  0  0  0  0  0  0  0  0
   59.2690   30.4169   44.1163 H   0  0  0  0  0  0  0  0  0  0  0  0
   58.8102   28.6165   43.6940 H   0  0  0  0  0  0  0  0  0  0  0  0
  1  2  1  0
  2  3  1  0
  3  4  1  0
  4  5  1  0
  5  6  2  0
  5  7  1  0
  7  8  1  0
  8  9  1  0
  9 10  1  0
  9 11  2  0
 11 12  1  0
 12 13  1  0
 12 14  2  0
 14 15  1  0
 15 16  1  0
 15 17  1  0
 15 18  1  0
 14 19  1  0
 19 20  1  0
 20 21  2  0
 21 22  1  0
 21 23  1  0
 23 24  1  0
 23 25  2  0
 25 26  1  0
 25 27  1  0
 27 28  1  0
 28 29  2  0
 28 30  1  0
 30 31  1  0
 31 32  1  0
 31 33  1  0
 31 34  1  0
 34 35  1  0
 34 36  1  0
 34 37  1  0
 37 38  1  0
 37 39  1  0
 37 40  1  0
 40 41  1  0
 40 42  1  0
 40 43  1  0
 43 44  1  0
 43 45  1  0
 27 46  2  0
 46 47  1  0
 19 48  1  0
 48 49  2  0
 49 50  1  0
 49 51  1  0
  8  3  2  0
 48 11  1  0
 46 20  1  0
 43 30  1  0
M  CHG  2   4  -1   7  -1
M  END
>  <UniqueID>  (66) 
62

>  <SMILES>  (66) 
C=c1/c(=C/c2[n-]c(=O)[n-]c2O)cc(C)n1-c1cccc(C(=O)N2CCC(F)(F)CC2)c1

>  <Energy>  (66) 
130.70712562630774

>  <Genealogy>  (66) 
C=c1c(=Cc2[n-]c(=O)[n-]c2O)cc(C)n1-c1cccc(C(=O)N2CCC(F)(F)CC2)c1 (protonated)
C=c1/c(=C/c2[n-]c(=O)[n-]c2O)cc(C)n1-c1cccc(C(=O)N2CCC(F)(F)CC2)c1 (cis-trans isomerization)
C=c1/c(=C/c2[n-]c(=O)[n-]c2O)cc(C)n1-c1cccc(C(=O)N2CCC(F)(F)CC2)c1 (3D coordinates assigned)
C=c1/c(=C/c2[n-]c(=O)[n-]c2O)cc(C)n1-c1cccc(C(=O)N2CCC(F)(F)CC2)c1 (nonaromatic ring conformer: 130.70712562630774 kcal/mol)

>  <smiles>  (66) 
C=c1c(=Cc2[nH]c(=O)[nH]c2O)cc(C)n1-c1cccc(C(=O)N2CCC(F)(F)CC2)c1

>  <score_type>  (66) 
oracle

>  <origin>  (66) 
adg

>  <m_score__min__energy>  (66) 
-13.630000000000001

>  <m_primary>  (66) 
energy

$$$$
66:0
     RDKit          3D

 56 59  0  0  0  0  0  0  0  0999 V2000
   54.8100   22.8430   48.3220 C   0  0  0  0  0  0  0  0  0  0  0  0
   54.3010   22.6620   47.0040 O   0  0  0  0  0  0  0  0  0  0  0  0
   55.0720   22.7580   45.8330 C   0  0  0  0  0  0  0  0  0  0  0  0
   55.8490   21.6780   45.3640 C   0  0  0  0  0  0  0  0  0  0  0  0
   56.6170   21.8100   44.2060 C   0  0  0  0  0  0  0  0  0  0  0  0
   56.6220   23.0150   43.5030 C   0  0  0  0  0  0  0  0  0  0  0  0
   55.8580   24.0920   43.9540 C   0  0  0  0  0  0  0  0  0  0  0  0
   55.0680   23.9690   45.1100 C   0  0  0  0  0  0  0  0  0  0  0  0
   54.2740   25.1500   45.6000 C   0  0  0  0  0  0  0  0  0  0  0  0
   55.1850   26.2380   45.9330 N   0  0  0  0  0  0  0  0  0  0  0  0
   56.4530   26.0900   46.5840 C   0  0  0  0  0  0  0  0  0  0  0  0
   56.5160   25.3580   47.6070 O   0  0  0  0  0  0  0  0  0  0  0  0
   57.6830   26.7400   46.0790 C   0  0  0  0  0  0  0  0  0  0  0  0
   58.9110   26.2080   46.2030 N   0  0  0  0  0  0  0  0  0  0  0  0
   59.7380   27.1540   45.7160 C   0  0  0  0  0  0  0  0  0  0  0  0
   59.1000   28.2640   45.2930 N   0  0  0  0  0  0  0  0  0  0  0  0
   57.8000   28.0060   45.5260 C   0  0  0  0  0  0  0  0  0  0  0  0
   56.7190   28.9390   45.1510 C   0  0  0  0  0  0  0  0  0  0  0  0
   55.5180   28.5700   45.2310 O   0  0  0  0  0  0  0  0  0  0  0  0
   57.0090   30.2280   44.5960 N   0  0  0  0  0  0  0  0  0  0  0  0
   57.7160   31.2820   45.2640 C   0  0  0  0  0  0  0  0  0  0  0  0
   58.2650   31.0400   46.5290 C   0  0  0  0  0  0  0  0  0  0  0  0
   58.9600   32.0490   47.2020 C   0  0  0  0  0  0  0  0  0  0  0  0
   59.1250   33.3100   46.6110 C   0  0  0  0  0  0  0  0  0  0  0  0
   59.9830   34.5930   47.4710 S   0  0  0  0  0  0  0  0  0  0  0  0
   59.8520   35.8750   46.6950 O   0  0  0  0  0  0  0  0  0  0  0  0
   59.3410   34.7960   48.8150 O   0  0  0  0  0  0  0  0  0  0  0  0
   61.6790   34.2380   47.6980 N   0  0  0  0  0  0  0  0  0  0  0  0
   61.8890   33.1240   48.6200 C   0  0  0  0  0  0  0  0  0  0  0  0
   63.2340   32.5110   48.2560 C   0  0  0  0  0  0  0  0  0  0  0  0
   63.5280   32.9950   46.8440 C   0  0  0  0  0  0  0  0  0  0  0  0
   62.3280   33.8410   46.4510 C   0  0  0  0  0  0  0  0  0  0  0  0
   58.6150   33.5400   45.3270 C   0  0  0  0  0  0  0  0  0  0  0  0
   57.9160   32.5330   44.6550 C   0  0  0  0  0  0  0  0  0  0  0  0
   54.0369   22.5681   49.0546 H   0  0  0  0  0  0  0  0  0  0  0  0
   55.6940   22.2041   48.4646 H   0  0  0  0  0  0  0  0  0  0  0  0
   55.0922   23.8966   48.4646 H   0  0  0  0  0  0  0  0  0  0  0  0
   55.8496   20.7256   45.9145 H   0  0  0  0  0  0  0  0  0  0  0  0
   57.2194   20.9624   43.8471 H   0  0  0  0  0  0  0  0  0  0  0  0
   57.2293   23.1163   42.5915 H   0  0  0  0  0  0  0  0  0  0  0  0
   55.8741   25.0430   43.4015 H   0  0  0  0  0  0  0  0  0  0  0  0
   53.5808   25.4793   44.8119 H   0  0  0  0  0  0  0  0  0  0  0  0
   53.7002   24.8632   46.4936 H   0  0  0  0  0  0  0  0  0  0  0  0
   60.8302   27.0322   45.6681 H   0  0  0  0  0  0  0  0  0  0  0  0
   58.1488   30.0507   46.9957 H   0  0  0  0  0  0  0  0  0  0  0  0
   59.3794   31.8530   48.1998 H   0  0  0  0  0  0  0  0  0  0  0  0
   61.9053   33.4875   49.6581 H   0  0  0  0  0  0  0  0  0  0  0  0
   61.0794   32.3836   48.5410 H   0  0  0  0  0  0  0  0  0  0  0  0
   64.0144   32.8542   48.9511 H   0  0  0  0  0  0  0  0  0  0  0  0
   63.2136   31.4129   48.3167 H   0  0  0  0  0  0  0  0  0  0  0  0
   64.4471   33.5991   46.8275 H   0  0  0  0  0  0  0  0  0  0  0  0
   63.6845   32.1576   46.1481 H   0  0  0  0  0  0  0  0  0  0  0  0
   62.6556   34.7302   45.8925 H   0  0  0  0  0  0  0  0  0  0  0  0
   61.6387   33.2798   45.8030 H   0  0  0  0  0  0  0  0  0  0  0  0
   58.7652   34.5174   44.8452 H   0  0  0  0  0  0  0  0  0  0  0  0
   57.5209   32.7203   43.6456 H   0  0  0  0  0  0  0  0  0  0  0  0
  1  2  1  0
  2  3  1  0
  3  4  2  0
  4  5  1  0
  5  6  2  0
  6  7  1  0
  7  8  2  0
  8  9  1  0
  9 10  1  0
 10 11  1  0
 11 12  2  0
 11 13  1  0
 13 14  1  0
 14 15  1  0
 15 16  2  0
 16 17  1  0
 17 18  1  0
 18 19  2  0
 18 20  1  0
 20 21  1  0
 21 22  2  0
 22 23  1  0
 23 24  2  0
 24 25  1  0
 25 26  2  0
 25 27  2  0
 25 28  1  0
 28 29  1  0
 29 30  1  0
 30 31  1  0
 31 32  1  0
 24 33  1  0
 33 34  2  0
  8  3  1  0
 17 13  2  0
 34 21  1  0
 32 28  1  0
  1 35  1  0
  1 36  1  0
  1 37  1  0
  4 38  1  0
  5 39  1  0
  6 40  1  0
  7 41  1  0
  9 42  1  0
  9 43  1  0
 15 44  1  0
 22 45  1  0
 23 46  1  0
 29 47  1  0
 29 48  1  0
 30 49  1  0
 30 50  1  0
 31 51  1  0
 31 52  1  0
 32 53  1  0
 32 54  1  0
 33 55  1  0
 34 56  1  0
M  CHG  3  10  -1  14  -1  20  -1
M  END
>  <UniqueID>  (67) 
63

>  <SMILES>  (67) 
COc1ccccc1C[N-]C(=O)c1[n-]cnc1C(=O)[N-]c1ccc(S(=O)(=O)N2CCCC2)cc1

>  <Energy>  (67) 
94.66286310184518

>  <Genealogy>  (67) 
COc1ccccc1C[N-]C(=O)c1[n-]cnc1C(=O)[N-]c1ccc(S(=O)(=O)N2CCCC2)cc1 (protonated)
COc1ccccc1C[N-]C(=O)c1[n-]cnc1C(=O)[N-]c1ccc(S(=O)(=O)N2CCCC2)cc1 (3D coordinates assigned)
COc1ccccc1C[N-]C(=O)c1[n-]cnc1C(=O)[N-]c1ccc(S(=O)(=O)N2CCCC2)cc1 (nonaromatic ring conformer: 94.66286310184518 kcal/mol)

>  <smiles>  (67) 
COc1ccccc1CNC(=O)c1[nH]cnc1C(=O)Nc1ccc(S(=O)(=O)N2CCCC2)cc1

>  <score_type>  (67) 
oracle

>  <origin>  (67) 
adg

>  <m_score__min__energy>  (67) 
-14.130000000000001

>  <m_primary>  (67) 
energy

$$$$
67:0
     RDKit          3D

 35 36  0  0  0  0  0  0  0  0999 V2000
   59.4420   22.2340   44.4570 C   0  0  0  0  0  0  0  0  0  0  0  0
   58.0710   21.8250   44.9910 C   0  0  0  0  0  0  0  0  0  0  0  0
   57.2010   23.0080   45.1360 N   0  0  0  0  0  0  0  0  0  0  0  0
   55.9960   23.0550   44.4860 C   0  0  0  0  0  0  0  0  0  0  0  0
   55.6240   22.1070   43.7410 O   0  0  0  0  0  0  0  0  0  0  0  0
   55.1570   24.1510   44.6420 C   0  0  0  0  0  0  0  0  0  0  0  0
   55.5490   25.1920   45.4800 C   0  0  0  0  0  0  0  0  0  0  0  0
   54.7010   26.2880   45.6490 O   0  0  0  0  0  0  0  0  0  0  0  0
   56.7490   25.1290   46.1370 N   0  0  0  0  0  0  0  0  0  0  0  0
   57.1390   26.2080   47.0690 C   0  0  0  0  0  0  0  0  0  0  0  0
   58.2840   27.0560   46.4970 C   0  0  0  0  0  0  0  0  0  0  0  0
   57.8180   27.9300   45.3620 C   0  0  0  0  0  0  0  0  0  0  0  0
   57.2590   29.1930   45.6220 C   0  0  0  0  0  0  0  0  0  0  0  0
   56.7780   29.9800   44.5730 C   0  0  0  0  0  0  0  0  0  0  0  0
   56.8470   29.5120   43.2580 C   0  0  0  0  0  0  0  0  0  0  0  0
   57.3960   28.2550   42.9900 C   0  0  0  0  0  0  0  0  0  0  0  0
   57.8770   27.4640   44.0380 C   0  0  0  0  0  0  0  0  0  0  0  0
   57.5660   24.0360   45.9710 C   0  0  0  0  0  0  0  0  0  0  0  0
   58.6620   23.9740   46.5980 O   0  0  0  0  0  0  0  0  0  0  0  0
   60.1187   22.4359   45.3004 H   0  0  0  0  0  0  0  0  0  0  0  0
   59.8542   21.4197   43.8430 H   0  0  0  0  0  0  0  0  0  0  0  0
   59.3407   23.1410   43.8430 H   0  0  0  0  0  0  0  0  0  0  0  0
   57.6056   21.1167   44.2898 H   0  0  0  0  0  0  0  0  0  0  0  0
   58.1984   21.3531   45.9765 H   0  0  0  0  0  0  0  0  0  0  0  0
   54.1951   24.1961   44.1103 H   0  0  0  0  0  0  0  0  0  0  0  0
   54.0380   26.3370   46.4140 H   0  0  0  0  0  0  0  0  0  0  0  0
   56.2691   26.8566   47.2497 H   0  0  0  0  0  0  0  0  0  0  0  0
   57.4842   25.7476   48.0065 H   0  0  0  0  0  0  0  0  0  0  0  0
   58.6878   27.6950   47.2962 H   0  0  0  0  0  0  0  0  0  0  0  0
   59.0551   26.3738   46.1097 H   0  0  0  0  0  0  0  0  0  0  0  0
   57.2000   29.5634   46.6561 H   0  0  0  0  0  0  0  0  0  0  0  0
   56.3445   30.9691   44.7822 H   0  0  0  0  0  0  0  0  0  0  0  0
   56.4688   30.1336   42.4330 H   0  0  0  0  0  0  0  0  0  0  0  0
   57.4497   27.8878   41.9545 H   0  0  0  0  0  0  0  0  0  0  0  0
   58.3034   26.4727   43.8248 H   0  0  0  0  0  0  0  0  0  0  0  0
  1  2  1  0
  2  3  1  0
  3  4  1  0
  4  5  2  0
  4  6  1  0
  6  7  2  0
  7  8  1  0
  7  9  1  0
  9 10  1  0
 10 11  1  0
 11 12  1  0
 12 13  2  0
 13 14  1  0
 14 15  2  0
 15 16  1  0
 16 17  2  0
  9 18  1  0
 18 19  2  0
 18  3  1  0
 17 12  1  0
  1 20  1  0
  1 21  1  0
  1 22  1  0
  2 23  1  0
  2 24  1  0
  6 25  1  0
  8 26  1  0
 10 27  1  0
 10 28  1  0
 11 29  1  0
 11 30  1  0
 13 31  1  0
 14 32  1  0
 15 33  1  0
 16 34  1  0
 17 35  1  0
M  END
>  <UniqueID>  (68) 
64

>  <SMILES>  (68) 
CCn1c(=O)cc(O)n(CCc2ccccc2)c1=O

>  <Energy>  (68) 
35.23461721085984

>  <Genealogy>  (68) 
CCn1c(=O)cc(O)n(CCc2ccccc2)c1=O (3D coordinates assigned)
CCn1c(=O)cc(O)n(CCc2ccccc2)c1=O (optimized conformer: 35.23461721085984 kcal/mol)

>  <smiles>  (68) 
CCn1c(=O)cc(O)n(CCc2ccccc2)c1=O

>  <score_type>  (68) 
oracle

>  <origin>  (68) 
adg

>  <m_score__min__energy>  (68) 
-6.9400000000000004

>  <m_primary>  (68) 
energy

$$$$
68:0
     RDKit          3D

 46 49  0  0  0  0  0  0  0  0999 V2000
   59.4600   29.0980   48.2970 C   0  0  0  0  0  0  0  0  0  0  0  0
   58.8430   29.9440   47.4570 C   0  0  0  0  0  0  0  0  0  0  0  0
   58.4280   29.6930   46.1380 C   0  0  0  0  0  0  0  0  0  0  0  0
   58.3800   28.5490   45.4280 C   0  0  0  0  0  0  0  0  0  0  0  0
   57.5380   27.3790   45.7440 C   0  0  0  0  0  0  0  0  0  0  0  0
   56.1430   27.4630   45.6340 C   0  0  0  0  0  0  0  0  0  0  0  0
   55.5370   28.6280   45.1780 O   0  0  0  0  0  0  0  0  0  0  0  0
   55.3710   26.3960   45.9660 N   0  0  0  0  0  0  0  0  0  0  0  0
   55.9250   25.2440   46.4220 C   0  0  0  0  0  0  0  0  0  0  0  0
   55.1910   24.2670   46.7200 O   0  0  0  0  0  0  0  0  0  0  0  0
   57.2720   25.1470   46.5640 N   0  0  0  0  0  0  0  0  0  0  0  0
   58.0880   26.1860   46.2460 C   0  0  0  0  0  0  0  0  0  0  0  0
   59.3320   26.0690   46.4110 O   0  0  0  0  0  0  0  0  0  0  0  0
   58.0090   30.9110   45.6250 C   0  0  0  0  0  0  0  0  0  0  0  0
   58.1230   31.8350   46.6430 C   0  0  0  0  0  0  0  0  0  0  0  0
   57.7480   33.2810   46.5380 C   0  0  0  0  0  0  0  0  0  0  0  0
   58.6250   31.2500   47.7510 N   0  0  0  0  0  0  0  0  0  0  0  0
   58.8840   31.9160   48.9990 C   0  0  0  0  0  0  0  0  0  0  0  0
   58.1360   31.5850   50.1330 C   0  0  0  0  0  0  0  0  0  0  0  0
   58.3990   32.2140   51.3480 C   0  0  0  0  0  0  0  0  0  0  0  0
   59.4140   33.1680   51.4190 C   0  0  0  0  0  0  0  0  0  0  0  0
   60.1430   33.4780   50.3110 N   0  0  0  0  0  0  0  0  0  0  0  0
   59.9060   32.8780   49.1080 C   0  0  0  0  0  0  0  0  0  0  0  0
   60.9060   33.2790   47.6820 S   0  0  0  0  0  0  0  0  0  0  0  0
   61.6190   34.5820   48.0290 O   0  0  0  0  0  0  0  0  0  0  0  0
   62.1490   32.0150   47.6300 N   0  0  0  0  0  0  0  0  0  0  0  0
   62.7820   31.7930   48.9350 C   0  0  0  0  0  0  0  0  0  0  0  0
   64.1110   32.3630   48.4790 C   0  0  0  0  0  0  0  0  0  0  0  0
   63.4190   32.5650   47.1460 C   0  0  0  0  0  0  0  0  0  0  0  0
   59.7305   29.4289   49.3106 H   0  0  0  0  0  0  0  0  0  0  0  0
   59.6951   28.0738   47.9718 H   0  0  0  0  0  0  0  0  0  0  0  0
   59.0226   28.4814   44.5378 H   0  0  0  0  0  0  0  0  0  0  0  0
   57.6536   31.1037   44.6020 H   0  0  0  0  0  0  0  0  0  0  0  0
   57.6379   33.7054   47.5468 H   0  0  0  0  0  0  0  0  0  0  0  0
   58.5347   33.8253   45.9950 H   0  0  0  0  0  0  0  0  0  0  0  0
   56.7959   33.3744   45.9950 H   0  0  0  0  0  0  0  0  0  0  0  0
   57.3404   30.8284   50.0659 H   0  0  0  0  0  0  0  0  0  0  0  0
   57.8117   31.9606   52.2429 H   0  0  0  0  0  0  0  0  0  0  0  0
   59.6266   33.6719   52.3734 H   0  0  0  0  0  0  0  0  0  0  0  0
   60.8940   34.1970   50.3990 H   0  0  0  0  0  0  0  0  0  0  0  0
   62.3167   32.3674   49.7496 H   0  0  0  0  0  0  0  0  0  0  0  0
   62.7607   30.7821   49.3681 H   0  0  0  0  0  0  0  0  0  0  0  0
   64.4236   33.2864   48.9886 H   0  0  0  0  0  0  0  0  0  0  0  0
   65.0627   31.8215   48.5839 H   0  0  0  0  0  0  0  0  0  0  0  0
   63.3510   33.6208   46.8451 H   0  0  0  0  0  0  0  0  0  0  0  0
   63.8734   32.1299   46.2437 H   0  0  0  0  0  0  0  0  0  0  0  0
  1  2  2  0
  2  3  1  0
  3  4  2  3
  4  5  1  0
  5  6  2  0
  6  7  1  0
  6  8  1  0
  8  9  1  0
  9 10  2  0
  9 11  1  0
 11 12  1  0
 12 13  2  0
  3 14  1  0
 14 15  2  0
 15 16  1  0
 15 17  1  0
 17 18  1  0
 18 19  2  0
 19 20  1  0
 20 21  2  0
 21 22  1  0
 22 23  2  0
 23 24  1  0
 24 25  2  0
 24 26  1  1
 26 27  1  0
 27 28  1  0
 28 29  1  0
 17  2  1  0
 23 18  1  0
 29 26  1  0
 12  5  1  0
  1 30  1  0
  1 31  1  0
  4 32  1  0
 14 33  1  0
 16 34  1  0
 16 35  1  0
 16 36  1  0
 19 37  1  0
 20 38  1  0
 21 39  1  0
 22 40  1  0
 27 41  1  0
 27 42  1  0
 28 43  1  0
 28 44  1  0
 29 45  1  0
 29 46  1  0
M  CHG  4   7  -1   8  -1  11  -1  22   1
M  END
>  <UniqueID>  (69) 
65

>  <SMILES>  (69) 
C=c1c(=Cc2c([O-])[n-]c(=O)[n-]c2=O)cc(C)n1-c1ccc[nH+]c1[S@@](=O)N1CCC1

>  <Energy>  (69) 
167.09504907258165

>  <Genealogy>  (69) 
C=c1c(=Cc2c([O-])[n-]c(=O)[n-]c2=O)cc(C)n1-c1ccc[nH+]c1S(=O)N1CCC1 (protonated)
C=c1c(=Cc2c([O-])[n-]c(=O)[n-]c2=O)cc(C)n1-c1ccc[nH+]c1[S@@](=O)N1CCC1 (chirality)
C=c1c(=Cc2c([O-])[n-]c(=O)[n-]c2=O)cc(C)n1-c1ccc[nH+]c1[S@@](=O)N1CCC1 (3D coordinates assigned)
C=c1c(=Cc2c([O-])[n-]c(=O)[n-]c2=O)cc(C)n1-c1ccc[nH+]c1[S@@](=O)N1CCC1 (nonaromatic ring conformer: 167.09504907258165 kcal/mol)

>  <smiles>  (69) 
C=c1c(=Cc2c(O)[nH]c(=O)[nH]c2=O)cc(C)n1-c1cccnc1S(=O)N1CCC1

>  <score_type>  (69) 
oracle

>  <origin>  (69) 
adg

>  <m_score__min__energy>  (69) 
-15.02

>  <m_primary>  (69) 
energy

$$$$
69:0
     RDKit          3D

 52 54  0  0  1  0  0  0  0  0999 V2000
   56.3930   24.9100   45.2290 C   0  0  0  0  0  0  0  0  0  0  0  0
   55.9300   25.9530   46.0600 O   0  0  0  0  0  0  0  0  0  0  0  0
   56.6110   27.1720   46.0160 C   0  0  0  0  0  0  0  0  0  0  0  0
   56.1130   28.1600   45.2450 N   0  0  0  0  0  0  0  0  0  0  0  0
   56.7630   29.3530   45.1920 C   0  0  0  0  0  0  0  0  0  0  0  0
   56.2770   30.2700   44.4590 N   0  0  0  0  0  0  0  0  0  0  0  0
   56.9100   30.7130   43.2560 C   0  0  0  0  0  0  0  0  0  0  0  0
   57.6440   31.9870   43.5890 C   0  0  0  0  0  0  0  0  0  0  0  0
   58.4890   32.3840   42.7400 O   0  0  0  0  0  0  0  0  0  0  0  0
   57.4050   32.7040   44.7840 N   0  0  0  0  0  0  0  0  0  0  0  0
   58.0590   33.9170   45.1670 C   0  0  0  0  0  0  0  0  0  0  0  0
   58.5740   33.8300   46.5500 C   0  0  0  0  0  0  0  0  0  0  0  0
   59.4330   34.7410   47.1150 C   0  0  0  0  0  0  0  0  0  0  0  0
   59.8810   34.6000   48.4230 C   0  0  0  0  0  0  0  0  0  0  0  0
   59.4550   33.5130   49.1910 C   0  0  0  0  0  0  0  0  0  0  0  0
   58.6190   32.6500   48.6020 N   0  0  0  0  0  0  0  0  0  0  0  0
   58.1760   32.7700   47.3390 C   0  0  0  0  0  0  0  0  0  0  0  0
   57.9190   29.5420   45.9210 C   0  0  0  0  0  0  0  0  0  0  0  0
   58.4270   28.5290   46.7080 C   0  0  0  0  0  0  0  0  0  0  0  0
   59.6400   28.6630   47.5050 C   0  0  0  0  0  0  0  0  0  0  0  0
   60.4550   27.7140   47.5360 O   0  0  0  0  0  0  0  0  0  0  0  0
   59.9560   29.8210   48.2570 N   0  0  0  0  0  0  0  0  0  0  0  0
   61.1300   30.0030   49.0520 C   0  0  0  0  0  0  0  0  0  0  0  0
   61.9410   31.1770   48.6920 C   0  0  0  0  0  0  0  0  0  0  0  0
   61.7820   31.7100   47.4230 C   0  0  0  0  0  0  0  0  0  0  0  0
   62.5100   32.8230   47.0100 C   0  0  0  0  0  0  0  0  0  0  0  0
   63.4220   33.4400   47.8480 C   0  0  0  0  0  0  0  0  0  0  0  0
   64.1360   34.5180   47.4650 F   0  0  0  0  0  0  0  0  0  0  0  0
   63.5830   32.9040   49.1240 C   0  0  0  0  0  0  0  0  0  0  0  0
   62.8460   31.7950   49.5150 C   0  0  0  0  0  0  0  0  0  0  0  0
   57.7380   27.3730   46.7200 N   0  0  0  0  0  0  0  0  0  0  0  0
   56.7610   24.0811   45.8515 H   0  0  0  0  0  0  0  0  0  0  0  0
   55.5685   24.5537   44.5940 H   0  0  0  0  0  0  0  0  0  0  0  0
   57.2103   25.2825   44.5940 H   0  0  0  0  0  0  0  0  0  0  0  0
   57.6183   29.9510   42.8989 H   0  0  0  0  0  0  0  0  0  0  0  0
   56.1687   30.8827   42.4613 H   0  0  0  0  0  0  0  0  0  0  0  0
   56.6830   32.3000   45.4350 H   0  0  0  0  0  0  0  0  0  0  0  0
   58.8990   34.1041   44.4819 H   0  0  0  0  0  0  0  0  0  0  0  0
   57.3291   34.7384   45.1169 H   0  0  0  0  0  0  0  0  0  0  0  0
   59.7736   35.6007   46.5193 H   0  0  0  0  0  0  0  0  0  0  0  0
   60.5695   35.3425   48.8528 H   0  0  0  0  0  0  0  0  0  0  0  0
   59.7906   33.3736   50.2292 H   0  0  0  0  0  0  0  0  0  0  0  0
   57.4886   32.0151   46.9296 H   0  0  0  0  0  0  0  0  0  0  0  0
   58.4405   30.5094   45.8743 H   0  0  0  0  0  0  0  0  0  0  0  0
   59.2670   30.6240   48.2320 H   0  0  0  0  0  0  0  0  0  0  0  0
   60.8196   30.1100   50.1019 H   0  0  0  0  0  0  0  0  0  0  0  0
   61.7641   29.1217   48.8756 H   0  0  0  0  0  0  0  0  0  0  0  0
   61.0670   31.2450   46.7284 H   0  0  0  0  0  0  0  0  0  0  0  0
   62.3567   33.2202   45.9957 H   0  0  0  0  0  0  0  0  0  0  0  0
   64.2972   33.3617   49.8243 H   0  0  0  0  0  0  0  0  0  0  0  0
   62.9946   31.3949   50.5288 H   0  0  0  0  0  0  0  0  0  0  0  0
   58.0860   26.5730   47.3050 H   0  0  0  0  0  0  0  0  0  0  0  0
  1  2  1  0
  2  3  1  0
  3  4  2  0
  4  5  1  0
  5  6  2  0
  6  7  1  0
  7  8  1  0
  8  9  2  0
  8 10  1  0
 10 11  1  0
 11 12  1  0
 12 13  2  0
 13 14  1  0
 14 15  2  0
 15 16  1  0
 16 17  2  0
  5 18  1  0
 18 19  2  0
 19 20  1  0
 20 21  2  0
 20 22  1  0
 22 23  1  0
 23 24  1  0
 24 25  2  0
 25 26  1  0
 26 27  2  0
 27 28  1  0
 27 29  1  0
 29 30  2  0
 19 31  1  0
 31  3  1  0
 17 12  1  0
 30 24  1  0
  1 32  1  0
  1 33  1  0
  1 34  1  0
  7 35  1  0
  7 36  1  0
 10 37  1  0
 11 38  1  0
 11 39  1  0
 13 40  1  0
 14 41  1  0
 15 42  1  0
 17 43  1  0
 18 44  1  0
 22 45  1  0
 23 46  1  0
 23 47  1  0
 25 48  1  0
 26 49  1  0
 29 50  1  0
 30 51  1  0
 31 52  1  0
M  END
>  <smiles>  (70) 
COc1nc(=NCC(=O)NCc2cccnc2)cc(C(=O)NCc2ccc(F)cc2)[nH]1

>  <score_type>  (70) 
oracle

>  <origin>  (70) 
adg

>  <m_score__min__energy>  (70) 
-9.0500000000000007

>  <m_primary>  (70) 
energy

$$$$
70:0
     RDKit          3D

 40 42  0  0  0  0  0  0  0  0999 V2000
   53.7710   28.3040   53.8280 C   0  0  0  0  0  0  0  0  0  0  0  0
   54.5950   29.2850   53.4140 C   0  0  0  0  0  0  0  0  0  0  0  0
   55.9360   29.1250   53.6370 N   0  0  0  0  0  0  0  0  0  0  0  0
   56.8810   29.9110   53.0460 C   0  0  0  0  0  0  0  0  0  0  0  0
   58.3410   29.6410   53.3150 C   0  0  0  0  0  0  0  0  0  0  0  0
   56.4840   30.9370   52.1710 C   0  0  0  0  0  0  0  0  0  0  0  0
   57.4640   31.8120   51.4900 C   0  0  0  0  0  0  0  0  0  0  0  0
   57.7180   32.9450   51.9810 O   0  0  0  0  0  0  0  0  0  0  0  0
   58.1210   31.3960   50.2800 N   0  0  0  0  0  0  0  0  0  0  0  0
   58.5830   30.0400   50.0300 C   0  0  0  0  0  0  0  0  0  0  0  0
   59.5020   30.1340   48.8180 C   0  0  0  0  0  0  0  0  0  0  0  0
   59.1860   31.4830   48.1600 C   0  0  1  0  0  0  0  0  0  0  0  0
   58.3160   31.3190   47.0660 O   0  0  0  0  0  0  0  0  0  0  0  0
   58.5420   32.3350   49.2550 C   0  0  0  0  0  0  0  0  0  0  0  0
   55.1200   31.1670   51.9770 C   0  0  0  0  0  0  0  0  0  0  0  0
   54.1450   30.4070   52.6490 C   0  0  0  0  0  0  0  0  0  0  0  0
   52.8570   30.8210   52.5340 C   0  0  0  0  0  0  0  0  0  0  0  0
   52.0860   30.9470   51.2830 C   0  0  0  0  0  0  0  0  0  0  0  0
   52.1770   30.0720   50.2670 N   0  0  0  0  0  0  0  0  0  0  0  0
   51.3980   30.6210   49.3100 C   0  0  0  0  0  0  0  0  0  0  0  0
   51.2160   30.0770   48.1890 O   0  0  0  0  0  0  0  0  0  0  0  0
   50.8390   31.8030   49.6420 N   0  0  0  0  0  0  0  0  0  0  0  0
   51.2950   32.0040   50.8900 C   0  0  0  0  0  0  0  0  0  0  0  0
   51.0180   33.1420   51.6360 O   0  0  0  0  0  0  0  0  0  0  0  0
   52.6863   28.3929   53.6683 H   0  0  0  0  0  0  0  0  0  0  0  0
   54.1825   27.4136   54.3259 H   0  0  0  0  0  0  0  0  0  0  0  0
   56.2630   28.3360   54.2420 H   0  0  0  0  0  0  0  0  0  0  0  0
   58.5140   29.6090   54.4008 H   0  0  0  0  0  0  0  0  0  0  0  0
   58.6234   28.6754   52.8701 H   0  0  0  0  0  0  0  0  0  0  0  0
   58.9500   30.4418   52.8701 H   0  0  0  0  0  0  0  0  0  0  0  0
   59.1348   29.6562   50.9008 H   0  0  0  0  0  0  0  0  0  0  0  0
   57.7438   29.3519   49.8506 H   0  0  0  0  0  0  0  0  0  0  0  0
   60.5556   30.0981   49.1321 H   0  0  0  0  0  0  0  0  0  0  0  0
   59.3433   29.2965   48.1227 H   0  0  0  0  0  0  0  0  0  0  0  0
   60.0926   31.9607   47.7601 H   0  0  0  0  0  0  0  0  0  0  0  0
   58.0240   32.2220   46.7700 H   0  0  0  0  0  0  0  0  0  0  0  0
   59.2709   33.0499   49.6645 H   0  0  0  0  0  0  0  0  0  0  0  0
   57.6970   32.9244   48.8695 H   0  0  0  0  0  0  0  0  0  0  0  0
   54.8012   31.9594   51.2839 H   0  0  0  0  0  0  0  0  0  0  0  0
   52.3373   31.0888   53.4658 H   0  0  0  0  0  0  0  0  0  0  0  0
  1  2  2  0
  2  3  1  0
  3  4  2  0
  4  5  1  0
  4  6  1  0
  6  7  1  0
  7  8  2  0
  7  9  1  0
  9 10  1  0
 10 11  1  0
 11 12  1  0
 12 13  1  0
 12 14  1  0
  6 15  2  0
 15 16  1  0
 16 17  2  3
 17 18  1  0
 18 19  1  0
 19 20  1  0
 20 21  2  0
 20 22  1  0
 22 23  1  0
 23 24  1  0
 16  2  1  0
 23 18  2  0
 14  9  1  0
  1 25  1  0
  1 26  1  0
  3 27  1  0
  5 28  1  0
  5 29  1  0
  5 30  1  0
 10 31  1  0
 10 32  1  0
 11 33  1  0
 11 34  1  0
 12 35  1  6
 13 36  1  0
 14 37  1  0
 14 38  1  0
 15 39  1  0
 17 40  1  0
M  CHG  4   3   1  19  -1  22  -1  24  -1
M  END
>  <UniqueID>  (71) 
66

>  <SMILES>  (71) 
C=c1[nH+]c(C)c(C(=O)N2CC[C@@H](O)C2)cc1=Cc1[n-]c(=O)[n-]c1[O-]

>  <Energy>  (71) 
98.94051801919501

>  <Genealogy>  (71) 
C=c1[nH+]c(C)c(C(=O)N2CCC(O)C2)cc1=Cc1[n-]c(=O)[n-]c1[O-] (protonated)
C=c1[nH+]c(C)c(C(=O)N2CC[C@@H](O)C2)cc1=Cc1[n-]c(=O)[n-]c1[O-] (chirality)
C=c1[nH+]c(C)c(C(=O)N2CC[C@@H](O)C2)cc1=Cc1[n-]c(=O)[n-]c1[O-] (3D coordinates assigned)
C=c1[nH+]c(C)c(C(=O)N2CC[C@@H](O)C2)cc1=Cc1[n-]c(=O)[n-]c1[O-] (nonaromatic ring conformer: 98.94051801919501 kcal/mol)

>  <smiles>  (71) 
C=c1nc(C)c(C(=O)N2CCC(O)C2)cc1=Cc1[nH]c(=O)[nH]c1O

>  <score_type>  (71) 
oracle

>  <origin>  (71) 
adg

>  <m_score__min__energy>  (71) 
-15

>  <m_primary>  (71) 
energy

$$$$
71:0
     RDKit          3D

 39 41  0  0  0  0  0  0  0  0999 V2000
   58.9217   23.2764   45.4587 H   0  0  0  0  0  0  0  0  0  0  0  0
   58.2000   24.1060   45.4280 C   0  0  0  0  0  0  0  0  0  0  0  0
   58.6210   25.3270   45.5540 N   0  0  0  0  0  0  0  0  0  0  0  0
   57.9970   26.3190   46.3810 C   0  0  0  0  0  0  0  0  0  0  0  0
   57.9230   26.1420   47.6290 O   0  0  0  0  0  0  0  0  0  0  0  0
   57.4290   27.5510   45.7690 C   0  0  0  0  0  0  0  0  0  0  0  0
   56.0420   27.7030   45.6100 C   0  0  0  0  0  0  0  0  0  0  0  0
   55.1580   26.7100   46.0170 O   0  0  0  0  0  0  0  0  0  0  0  0
   55.5450   28.8220   45.0360 N   0  0  0  0  0  0  0  0  0  0  0  0
   56.3500   29.8200   44.5980 C   0  0  0  0  0  0  0  0  0  0  0  0
   55.8240   30.8340   44.0660 O   0  0  0  0  0  0  0  0  0  0  0  0
   57.7110   29.7230   44.7380 N   0  0  0  0  0  0  0  0  0  0  0  0
   58.5930   30.7950   44.2310 C   0  0  0  0  0  0  0  0  0  0  0  0
   59.6323   30.4349   44.2209 H   0  0  0  0  0  0  0  0  0  0  0  0
   58.2771   31.0656   43.2127 H   0  0  0  0  0  0  0  0  0  0  0  0
   58.4980   32.0140   45.1130 C   0  0  0  0  0  0  0  0  0  0  0  0
   58.4780   31.8820   46.5120 C   0  0  0  0  0  0  0  0  0  0  0  0
   58.5049   30.8813   46.9680 H   0  0  0  0  0  0  0  0  0  0  0  0
   58.4240   33.0170   47.3270 C   0  0  0  0  0  0  0  0  0  0  0  0
   58.4067   32.9072   48.4214 H   0  0  0  0  0  0  0  0  0  0  0  0
   58.3920   34.2900   46.7530 C   0  0  0  0  0  0  0  0  0  0  0  0
   58.3479   35.1818   47.3954 H   0  0  0  0  0  0  0  0  0  0  0  0
   58.4160   34.4310   45.3630 C   0  0  0  0  0  0  0  0  0  0  0  0
   58.3924   35.4339   44.9118 H   0  0  0  0  0  0  0  0  0  0  0  0
   58.4700   33.2980   44.5450 C   0  0  0  0  0  0  0  0  0  0  0  0
   58.4906   33.4132   43.4512 H   0  0  0  0  0  0  0  0  0  0  0  0
   58.2570   28.6030   45.3200 C   0  0  0  0  0  0  0  0  0  0  0  0
   59.5080   28.5210   45.4700 O   0  0  0  0  0  0  0  0  0  0  0  0
   56.7640   23.8170   45.2440 C   0  0  0  0  0  0  0  0  0  0  0  0
   55.8880   23.7190   46.3420 C   0  0  0  0  0  0  0  0  0  0  0  0
   56.2726   23.8587   47.3631 H   0  0  0  0  0  0  0  0  0  0  0  0
   54.5320   23.4450   46.1410 C   0  0  0  0  0  0  0  0  0  0  0  0
   53.8536   23.3700   47.0036 H   0  0  0  0  0  0  0  0  0  0  0  0
   54.0360   23.2660   44.8460 C   0  0  0  0  0  0  0  0  0  0  0  0
   52.6890   22.9940   44.6490 O   0  0  0  0  0  0  0  0  0  0  0  0
   54.8990   23.3620   43.7500 C   0  0  0  0  0  0  0  0  0  0  0  0
   54.5096   23.2217   42.7308 H   0  0  0  0  0  0  0  0  0  0  0  0
   56.2560   23.6360   43.9470 C   0  0  0  0  0  0  0  0  0  0  0  0
   56.9299   23.7103   43.0808 H   0  0  0  0  0  0  0  0  0  0  0  0
  1  2  1  0
  2  3  2  0
  3  4  1  0
  4  5  2  0
  4  6  1  0
  6  7  2  0
  7  8  1  0
  7  9  1  0
  9 10  1  0
 10 11  2  0
 10 12  1  0
 12 13  1  0
 13 14  1  0
 13 15  1  0
 13 16  1  0
 16 17  2  0
 17 18  1  0
 17 19  1  0
 19 20  1  0
 19 21  2  0
 21 22  1  0
 21 23  1  0
 23 24  1  0
 23 25  2  0
 25 26  1  0
 12 27  1  0
 27 28  2  0
  2 29  1  0
 29 30  2  0
 30 31  1  0
 30 32  1  0
 32 33  1  0
 32 34  2  0
 34 35  1  0
 34 36  1  0
 36 37  1  0
 36 38  2  0
 38 39  1  0
 27  6  1  0
 38 29  1  0
 25 16  1  0
M  CHG  3   8  -1   9  -1  35  -1
M  END
>  <UniqueID>  (72) 
67

>  <SMILES>  (72) 
O=C(/N=C/c1ccc([O-])cc1)c1c([O-])[n-]c(=O)n(Cc2ccccc2)c1=O

>  <Energy>  (72) 
50.40421705997416

>  <Genealogy>  (72) 
O=C(N=Cc1ccc([O-])cc1)c1c([O-])[n-]c(=O)n(Cc2ccccc2)c1=O (protonated)
O=C(/N=C/c1ccc([O-])cc1)c1c([O-])[n-]c(=O)n(Cc2ccccc2)c1=O (cis-trans isomerization)
O=C(/N=C/c1ccc([O-])cc1)c1c([O-])[n-]c(=O)n(Cc2ccccc2)c1=O (3D coordinates assigned)
O=C(/N=C/c1ccc([O-])cc1)c1c([O-])[n-]c(=O)n(Cc2ccccc2)c1=O (optimized conformer: 50.40421705997416 kcal/mol)

>  <smiles>  (72) 
O=C(N=Cc1ccc(O)cc1)c1c(O)[nH]c(=O)n(Cc2ccccc2)c1=O

>  <score_type>  (72) 
oracle

>  <origin>  (72) 
adg

>  <m_score__min__energy>  (72) 
-14.960000000000001

>  <m_primary>  (72) 
energy

$$$$
72:0
     RDKit          3D

 63 67  0  0  0  0  0  0  0  0999 V2000
   55.1140   26.3470   46.8690 H   0  0  0  0  0  0  0  0  0  0  0  0
   54.6930   26.1230   45.9780 O   0  0  0  0  0  0  0  0  0  0  0  0
   54.4130   24.8100   45.6120 C   0  0  0  0  0  0  0  0  0  0  0  0
   53.3070   24.1570   46.0000 N   0  0  0  0  0  0  0  0  0  0  0  0
   53.4830   22.9270   45.4730 C   0  0  0  0  0  0  0  0  0  0  0  0
   52.6470   22.0000   45.6250 O   0  0  0  0  0  0  0  0  0  0  0  0
   54.6310   22.7660   44.7810 N   0  0  0  0  0  0  0  0  0  0  0  0
   55.2080   23.9770   44.8490 C   0  0  0  0  0  0  0  0  0  0  0  0
   56.5430   24.2710   44.3090 C   0  0  0  0  0  0  0  0  0  0  0  0
   56.8933   23.6484   43.4726 H   0  0  0  0  0  0  0  0  0  0  0  0
   57.3760   25.2350   44.7470 C   0  0  0  0  0  0  0  0  0  0  0  0
   57.7640   25.3320   46.0680 C   0  0  0  0  0  0  0  0  0  0  0  0
   57.5200   24.6227   46.8726 H   0  0  0  0  0  0  0  0  0  0  0  0
   58.5150   26.4840   46.1930 C   0  0  0  0  0  0  0  0  0  0  0  0
   59.0280   26.9710   47.4960 C   0  0  0  0  0  0  0  0  0  0  0  0
   59.8430   26.2840   48.1680 O   0  0  0  0  0  0  0  0  0  0  0  0
   58.5570   28.2240   48.0060 N   0  0  0  0  0  0  0  0  0  0  0  0
   59.2160   29.4930   47.8850 C   0  0  0  0  0  0  0  0  0  0  0  0
   60.5440   29.5210   47.4420 C   0  0  0  0  0  0  0  0  0  0  0  0
   61.0496   28.5818   47.1730 H   0  0  0  0  0  0  0  0  0  0  0  0
   61.2320   30.7330   47.3390 C   0  0  0  0  0  0  0  0  0  0  0  0
   62.2699   30.7462   46.9750 H   0  0  0  0  0  0  0  0  0  0  0  0
   60.6010   31.9320   47.6990 C   0  0  0  0  0  0  0  0  0  0  0  0
   61.4450   33.4730   47.5580 S   0  0  0  0  0  0  0  0  0  0  0  0
   62.0740   33.5550   46.1950 O   0  0  0  0  0  0  0  0  0  0  0  0
   60.4710   34.6110   47.7060 O   0  0  0  0  0  0  0  0  0  0  0  0
   62.6830   33.5900   48.7860 N   0  0  0  0  0  0  0  0  0  0  0  0
   63.9720   33.1150   48.2460 C   0  0  0  0  0  0  0  0  0  0  0  0
   63.7944   32.2376   47.6067 H   0  0  0  0  0  0  0  0  0  0  0  0
   64.4312   33.9261   47.6618 H   0  0  0  0  0  0  0  0  0  0  0  0
   64.9280   32.7240   49.3860 C   0  0  0  0  0  0  0  0  0  0  0  0
   65.8709   32.3745   48.9400 H   0  0  0  0  0  0  0  0  0  0  0  0
   65.0561   33.6205   50.0104 H   0  0  0  0  0  0  0  0  0  0  0  0
   64.4330   31.6990   50.2420 O   0  0  0  0  0  0  0  0  0  0  0  0
   63.0220   31.5460   50.1940 C   0  0  0  0  0  0  0  0  0  0  0  0
   62.7693   30.8919   49.3464 H   0  0  0  0  0  0  0  0  0  0  0  0
   62.7057   31.1148   51.1553 H   0  0  0  0  0  0  0  0  0  0  0  0
   62.2760   32.8810   50.0220 C   0  0  0  0  0  0  0  0  0  0  0  0
   61.1954   32.6805   49.9768 H   0  0  0  0  0  0  0  0  0  0  0  0
   62.5265   33.5227   50.8796 H   0  0  0  0  0  0  0  0  0  0  0  0
   59.2790   31.9070   48.1600 C   0  0  0  0  0  0  0  0  0  0  0  0
   58.7802   32.8454   48.4439 H   0  0  0  0  0  0  0  0  0  0  0  0
   58.5900   30.6940   48.2610 C   0  0  0  0  0  0  0  0  0  0  0  0
   57.5558   30.6799   48.6356 H   0  0  0  0  0  0  0  0  0  0  0  0
   58.6530   27.0870   44.9820 N   0  0  0  0  0  0  0  0  0  0  0  0
   59.3920   28.3360   44.7120 C   0  0  0  0  0  0  0  0  0  0  0  0
   60.1014   28.5178   45.5328 H   0  0  0  0  0  0  0  0  0  0  0  0
   59.9249   28.2258   43.7561 H   0  0  0  0  0  0  0  0  0  0  0  0
   58.4530   29.5130   44.6030 C   0  0  0  0  0  0  0  0  0  0  0  0
   57.1010   29.3080   44.2700 C   0  0  0  0  0  0  0  0  0  0  0  0
   56.7370   28.2910   44.0621 H   0  0  0  0  0  0  0  0  0  0  0  0
   56.2180   30.3900   44.2020 C   0  0  0  0  0  0  0  0  0  0  0  0
   55.1648   30.2228   43.9320 H   0  0  0  0  0  0  0  0  0  0  0  0
   56.6700   31.6820   44.4760 C   0  0  0  0  0  0  0  0  0  0  0  0
   55.9741   32.5319   44.4181 H   0  0  0  0  0  0  0  0  0  0  0  0
   58.0070   31.8960   44.8240 C   0  0  0  0  0  0  0  0  0  0  0  0
   58.3615   32.9142   45.0423 H   0  0  0  0  0  0  0  0  0  0  0  0
   58.8940   30.8180   44.8950 C   0  0  0  0  0  0  0  0  0  0  0  0
   59.9423   30.9901   45.1805 H   0  0  0  0  0  0  0  0  0  0  0  0
   57.9710   26.3200   44.0820 C   0  0  0  0  0  0  0  0  0  0  0  0
   57.9600   26.5420   42.7560 C   0  0  0  0  0  0  0  0  0  0  0  0
   58.4614   27.4296   42.3428 H   0  0  0  0  0  0  0  0  0  0  0  0
   57.4496   25.8360   42.0844 H   0  0  0  0  0  0  0  0  0  0  0  0
  1  2  1  0
  2  3  1  0
  3  4  1  0
  4  5  1  0
  5  6  2  0
  5  7  1  0
  7  8  1  0
  8  9  1  0
  9 10  1  0
  9 11  2  0
 11 12  1  0
 12 13  1  0
 12 14  2  0
 14 15  1  0
 15 16  2  0
 15 17  1  0
 17 18  1  0
 18 19  2  0
 19 20  1  0
 19 21  1  0
 21 22  1  0
 21 23  2  0
 23 24  1  0
 24 25  2  0
 24 26  2  0
 24 27  1  0
 27 28  1  0
 28 29  1  0
 28 30  1  0
 28 31  1  0
 31 32  1  0
 31 33  1  0
 31 34  1  0
 34 35  1  0
 35 36  1  0
 35 37  1  0
 35 38  1  0
 38 39  1  0
 38 40  1  0
 23 41  1  0
 41 42  1  0
 41 43  2  0
 43 44  1  0
 14 45  1  0
 45 46  1  0
 46 47  1  0
 46 48  1  0
 46 49  1  0
 49 50  2  0
 50 51  1  0
 50 52  1  0
 52 53  1  0
 52 54  2  0
 54 55  1  0
 54 56  1  0
 56 57  1  0
 56 58  2  0
 58 59  1  0
 45 60  1  0
 60 61  2  0
 61 62  1  0
 61 63  1  0
  8  3  2  0
 60 11  1  0
 43 18  1  0
 58 49  1  0
 38 27  1  0
M  CHG  3   4  -1   7  -1  17  -1
M  END
>  <UniqueID>  (73) 
68

>  <SMILES>  (73) 
C=c1/c(=C\c2[n-]c(=O)[n-]c2O)cc(C(=O)[N-]c2ccc(S(=O)(=O)N3CCOCC3)cc2)n1Cc1ccccc1

>  <Energy>  (73) 
156.2347588101696

>  <Genealogy>  (73) 
C=c1c(=Cc2[n-]c(=O)[n-]c2O)cc(C(=O)[N-]c2ccc(S(=O)(=O)N3CCOCC3)cc2)n1Cc1ccccc1 (protonated)
C=c1/c(=C\c2[n-]c(=O)[n-]c2O)cc(C(=O)[N-]c2ccc(S(=O)(=O)N3CCOCC3)cc2)n1Cc1ccccc1 (cis-trans isomerization)
C=c1/c(=C\c2[n-]c(=O)[n-]c2O)cc(C(=O)[N-]c2ccc(S(=O)(=O)N3CCOCC3)cc2)n1Cc1ccccc1 (3D coordinates assigned)
C=c1/c(=C\c2[n-]c(=O)[n-]c2O)cc(C(=O)[N-]c2ccc(S(=O)(=O)N3CCOCC3)cc2)n1Cc1ccccc1 (nonaromatic ring conformer: 156.2347588101696 kcal/mol)

>  <smiles>  (73) 
C=c1c(=Cc2[nH]c(=O)[nH]c2O)cc(C(=O)Nc2ccc(S(=O)(=O)N3CCOCC3)cc2)n1Cc1ccccc1

>  <score_type>  (73) 
oracle

>  <origin>  (73) 
adg

>  <m_score__min__energy>  (73) 
-16.449999999999999

>  <m_primary>  (73) 
energy

$$$$
73:0
     RDKit          3D

 59 63  0  0  0  0  0  0  0  0999 V2000
   54.7570   27.4640   46.3570 H   0  0  0  0  0  0  0  0  0  0  0  0
   55.1780   26.7420   45.7880 O   0  0  0  0  0  0  0  0  0  0  0  0
   56.0450   25.8110   46.3510 C   0  0  0  0  0  0  0  0  0  0  0  0
   55.6420   24.7040   47.0000 N   0  0  0  0  0  0  0  0  0  0  0  0
   56.8120   24.1110   47.3230 C   0  0  0  0  0  0  0  0  0  0  0  0
   56.8670   23.0220   47.9520 O   0  0  0  0  0  0  0  0  0  0  0  0
   57.9170   24.7710   46.9150 N   0  0  0  0  0  0  0  0  0  0  0  0
   57.4190   25.8680   46.3190 C   0  0  0  0  0  0  0  0  0  0  0  0
   58.2460   26.8610   45.6180 C   0  0  0  0  0  0  0  0  0  0  0  0
   59.2012   26.5125   45.1983 H   0  0  0  0  0  0  0  0  0  0  0  0
   57.9360   28.1600   45.4450 C   0  0  0  0  0  0  0  0  0  0  0  0
   56.8140   28.5720   44.7450 C   0  0  0  0  0  0  0  0  0  0  0  0
   56.0876   27.9249   44.2316 H   0  0  0  0  0  0  0  0  0  0  0  0
   56.7820   29.9490   44.8150 C   0  0  0  0  0  0  0  0  0  0  0  0
   55.7120   30.8080   44.2150 C   0  0  0  0  0  0  0  0  0  0  0  0
   55.1260   31.2784   45.0183 H   0  0  0  0  0  0  0  0  0  0  0  0
   56.1743   31.5886   43.5930 H   0  0  0  0  0  0  0  0  0  0  0  0
   55.0498   30.1879   43.5930 H   0  0  0  0  0  0  0  0  0  0  0  0
   57.8400   30.4100   45.5160 N   0  0  0  0  0  0  0  0  0  0  0  0
   58.1600   31.7970   45.7160 C   0  0  0  0  0  0  0  0  0  0  0  0
   57.6190   32.7730   44.8650 C   0  0  0  0  0  0  0  0  0  0  0  0
   56.9727   32.4737   44.0267 H   0  0  0  0  0  0  0  0  0  0  0  0
   57.9000   34.1230   45.0810 C   0  0  0  0  0  0  0  0  0  0  0  0
   57.4804   34.8850   44.4077 H   0  0  0  0  0  0  0  0  0  0  0  0
   58.7120   34.5090   46.1490 C   0  0  0  0  0  0  0  0  0  0  0  0
   58.9339   35.5745   46.3087 H   0  0  0  0  0  0  0  0  0  0  0  0
   59.2490   33.5450   47.0230 C   0  0  0  0  0  0  0  0  0  0  0  0
   60.1200   33.9530   48.1500 C   0  0  0  0  0  0  0  0  0  0  0  0
   60.8040   35.0090   48.0680 O   0  0  0  0  0  0  0  0  0  0  0  0
   60.1670   33.1790   49.3570 N   0  0  0  0  0  0  0  0  0  0  0  0
   59.6890   33.7580   50.6170 C   0  0  0  0  0  0  0  0  0  0  0  0
   60.5405   33.9121   51.2961 H   0  0  0  0  0  0  0  0  0  0  0  0
   59.2016   34.7233   50.4155 H   0  0  0  0  0  0  0  0  0  0  0  0
   58.6810   32.8020   51.2690 C   0  0  0  0  0  0  0  0  0  0  0  0
   58.6052   33.0396   52.3404 H   0  0  0  0  0  0  0  0  0  0  0  0
   57.7103   32.9317   50.7681 H   0  0  0  0  0  0  0  0  0  0  0  0
   59.0930   31.3930   51.1190 N   0  0  0  0  0  0  0  0  0  0  0  0
   58.0910   30.3560   51.0960 C   0  0  0  0  0  0  0  0  0  0  0  0
   58.1800   29.4220   50.2530 O   0  0  0  0  0  0  0  0  0  0  0  0
   56.9370   30.3760   52.0150 C   0  0  0  0  0  0  0  0  0  0  0  0
   55.6880   30.8680   51.6480 C   0  0  0  0  0  0  0  0  0  0  0  0
   55.4282   31.3062   50.6731 H   0  0  0  0  0  0  0  0  0  0  0  0
   54.6460   30.6770   52.9510 S   0  0  0  0  0  0  0  0  0  0  0  0
   55.7550   29.9580   53.9870 C   0  0  0  0  0  0  0  0  0  0  0  0
   55.5559   29.6294   55.0177 H   0  0  0  0  0  0  0  0  0  0  0  0
   56.9660   29.8500   53.3180 C   0  0  0  0  0  0  0  0  0  0  0  0
   57.8629   29.3961   53.7648 H   0  0  0  0  0  0  0  0  0  0  0  0
   60.4560   31.0980   50.6570 C   0  0  0  0  0  0  0  0  0  0  0  0
   61.1811   31.4479   51.4065 H   0  0  0  0  0  0  0  0  0  0  0  0
   60.5689   30.0129   50.5165 H   0  0  0  0  0  0  0  0  0  0  0  0
   60.7100   31.8140   49.3280 C   0  0  0  0  0  0  0  0  0  0  0  0
   61.7937   31.8611   49.1454 H   0  0  0  0  0  0  0  0  0  0  0  0
   60.2096   31.2532   48.5248 H   0  0  0  0  0  0  0  0  0  0  0  0
   58.9680   32.1860   46.7940 C   0  0  0  0  0  0  0  0  0  0  0  0
   59.3856   31.4219   47.4662 H   0  0  0  0  0  0  0  0  0  0  0  0
   58.5790   29.3310   45.8830 C   0  0  0  0  0  0  0  0  0  0  0  0
   59.7740   29.4300   46.4860 C   0  0  0  0  0  0  0  0  0  0  0  0
   60.1622   30.4167   46.7789 H   0  0  0  0  0  0  0  0  0  0  0  0
   60.3652   28.5245   46.6873 H   0  0  0  0  0  0  0  0  0  0  0  0
  1  2  1  0
  2  3  1  0
  3  4  1  0
  4  5  1  0
  5  6  2  0
  5  7  1  0
  7  8  1  0
  8  9  1  0
  9 10  1  0
  9 11  2  0
 11 12  1  0
 12 13  1  0
 12 14  2  0
 14 15  1  0
 15 16  1  0
 15 17  1  0
 15 18  1  0
 14 19  1  0
 19 20  1  0
 20 21  2  0
 21 22  1  0
 21 23  1  0
 23 24  1  0
 23 25  2  0
 25 26  1  0
 25 27  1  0
 27 28  1  0
 28 29  2  0
 28 30  1  0
 30 31  1  0
 31 32  1  0
 31 33  1  0
 31 34  1  0
 34 35  1  0
 34 36  1  0
 34 37  1  0
 37 38  1  0
 38 39  2  0
 38 40  1  0
 40 41  2  0
 41 42  1  0
 41 43  1  0
 43 44  1  0
 44 45  1  0
 44 46  2  0
 46 47  1  0
 37 48  1  0
 48 49  1  0
 48 50  1  0
 48 51  1  0
 51 52  1  0
 51 53  1  0
 27 54  2  0
 54 55  1  0
 19 56  1  0
 56 57  2  0
 57 58  1  0
 57 59  1  0
  8  3  2  0
 56 11  1  0
 54 20  1  0
 51 30  1  0
 46 40  1  0
M  CHG  2   4  -1   7  -1
M  END
>  <UniqueID>  (74) 
69

>  <SMILES>  (74) 
C=c1/c(=C\c2[n-]c(=O)[n-]c2O)cc(C)n1-c1cccc(C(=O)N2CCN(C(=O)c3ccsc3)CC2)c1

>  <Energy>  (74) 
175.6628108387091

>  <Genealogy>  (74) 
C=c1c(=Cc2[n-]c(=O)[n-]c2O)cc(C)n1-c1cccc(C(=O)N2CCN(C(=O)c3ccsc3)CC2)c1 (protonated)
C=c1/c(=C\c2[n-]c(=O)[n-]c2O)cc(C)n1-c1cccc(C(=O)N2CCN(C(=O)c3ccsc3)CC2)c1 (cis-trans isomerization)
C=c1/c(=C\c2[n-]c(=O)[n-]c2O)cc(C)n1-c1cccc(C(=O)N2CCN(C(=O)c3ccsc3)CC2)c1 (3D coordinates assigned)
C=c1/c(=C\c2[n-]c(=O)[n-]c2O)cc(C)n1-c1cccc(C(=O)N2CCN(C(=O)c3ccsc3)CC2)c1 (nonaromatic ring conformer: 175.6628108387091 kcal/mol)

>  <smiles>  (74) 
C=c1c(=Cc2[nH]c(=O)[nH]c2O)cc(C)n1-c1cccc(C(=O)N2CCN(C(=O)c3ccsc3)CC2)c1

>  <score_type>  (74) 
oracle

>  <origin>  (74) 
adg

>  <m_score__min__energy>  (74) 
-14.94

>  <m_primary>  (74) 
energy

$$$$
74:0
     RDKit          3D

 55 58  0  0  0  0  0  0  0  0999 V2000
   60.4820   30.1160   45.6240 C   0  0  0  0  0  0  0  0  0  0  0  0
   59.8380   29.6600   46.7110 C   0  0  0  0  0  0  0  0  0  0  0  0
   58.8250   28.6900   46.7490 C   0  0  0  0  0  0  0  0  0  0  0  0
   58.4090   27.8140   45.8150 C   0  0  0  0  0  0  0  0  0  0  0  0
   57.2090   26.9660   45.9180 C   0  0  0  0  0  0  0  0  0  0  0  0
   57.1880   25.7320   46.4550 N   0  0  0  0  0  0  0  0  0  0  0  0
   55.8740   25.4160   46.4560 C   0  0  0  0  0  0  0  0  0  0  0  0
   55.4440   24.3110   46.8790 O   0  0  0  0  0  0  0  0  0  0  0  0
   55.0590   26.3810   45.9810 N   0  0  0  0  0  0  0  0  0  0  0  0
   55.9200   27.3590   45.6580 C   0  0  0  0  0  0  0  0  0  0  0  0
   55.5340   28.5900   45.1420 O   0  0  0  0  0  0  0  0  0  0  0  0
   58.2800   28.7480   48.0230 C   0  0  0  0  0  0  0  0  0  0  0  0
   59.0200   29.6740   48.7310 C   0  0  0  0  0  0  0  0  0  0  0  0
   58.7830   30.0400   50.1630 C   0  0  0  0  0  0  0  0  0  0  0  0
   59.9680   30.2230   47.9400 N   0  0  0  0  0  0  0  0  0  0  0  0
   60.9010   31.2460   48.3330 C   0  0  0  0  0  0  0  0  0  0  0  0
   62.2600   30.9220   48.4630 C   0  0  0  0  0  0  0  0  0  0  0  0
   63.1790   31.8850   48.8820 C   0  0  0  0  0  0  0  0  0  0  0  0
   62.7510   33.1800   49.1750 C   0  0  0  0  0  0  0  0  0  0  0  0
   61.4020   33.5170   49.0460 C   0  0  0  0  0  0  0  0  0  0  0  0
   60.4640   32.5580   48.6260 C   0  0  0  0  0  0  0  0  0  0  0  0
   59.0460   32.9560   48.4590 C   0  0  0  0  0  0  0  0  0  0  0  0
   58.2270   32.7120   49.3860 O   0  0  0  0  0  0  0  0  0  0  0  0
   58.5780   33.5730   47.2440 N   0  0  0  0  0  0  0  0  0  0  0  0
   59.3990   34.5680   46.5370 C   0  0  0  0  0  0  0  0  0  0  0  0
   59.3930   34.3250   45.0140 C   0  0  0  0  0  0  0  0  0  0  0  0
   58.1520   33.5380   44.5080 C   0  0  0  0  0  0  0  0  0  0  0  0
   58.4380   32.0870   44.5000 N   0  0  0  0  0  0  0  0  0  0  0  0
   57.2380   31.2880   44.2310 C   0  0  0  0  0  0  0  0  0  0  0  0
   56.9380   33.8680   45.4030 C   0  0  0  0  0  0  0  0  0  0  0  0
   57.1790   33.3800   46.8400 C   0  0  0  0  0  0  0  0  0  0  0  0
   61.2627   30.8838   45.7290 H   0  0  0  0  0  0  0  0  0  0  0  0
   60.2287   29.7216   44.6289 H   0  0  0  0  0  0  0  0  0  0  0  0
   59.0143   27.7243   44.9009 H   0  0  0  0  0  0  0  0  0  0  0  0
   57.4234   28.1681   48.3972 H   0  0  0  0  0  0  0  0  0  0  0  0
   59.2642   29.2969   50.8159 H   0  0  0  0  0  0  0  0  0  0  0  0
   59.2092   31.0342   50.3627 H   0  0  0  0  0  0  0  0  0  0  0  0
   57.7014   30.0579   50.3627 H   0  0  0  0  0  0  0  0  0  0  0  0
   62.6032   29.9025   48.2332 H   0  0  0  0  0  0  0  0  0  0  0  0
   64.2426   31.6225   48.9814 H   0  0  0  0  0  0  0  0  0  0  0  0
   63.4769   33.9364   49.5080 H   0  0  0  0  0  0  0  0  0  0  0  0
   61.0709   34.5407   49.2748 H   0  0  0  0  0  0  0  0  0  0  0  0
   58.9982   35.5720   46.7405 H   0  0  0  0  0  0  0  0  0  0  0  0
   60.4347   34.4799   46.8969 H   0  0  0  0  0  0  0  0  0  0  0  0
   59.4147   35.3011   44.5072 H   0  0  0  0  0  0  0  0  0  0  0  0
   60.2764   33.7111   44.7846 H   0  0  0  0  0  0  0  0  0  0  0  0
   57.9163   33.8373   43.4761 H   0  0  0  0  0  0  0  0  0  0  0  0
   59.1000   31.8850   43.7140 H   0  0  0  0  0  0  0  0  0  0  0  0
   56.7796   30.9828   45.1832 H   0  0  0  0  0  0  0  0  0  0  0  0
   56.5194   31.8885   43.6540 H   0  0  0  0  0  0  0  0  0  0  0  0
   57.5149   30.3934   43.6540 H   0  0  0  0  0  0  0  0  0  0  0  0
   56.7806   34.9566   45.4122 H   0  0  0  0  0  0  0  0  0  0  0  0
   56.0502   33.3594   44.9992 H   0  0  0  0  0  0  0  0  0  0  0  0
   56.5279   33.9446   47.5236 H   0  0  0  0  0  0  0  0  0  0  0  0
   56.9514   32.3047   46.8832 H   0  0  0  0  0  0  0  0  0  0  0  0
  1  2  2  0
  2  3  1  0
  3  4  2  3
  4  5  1  0
  5  6  1  0
  6  7  1  0
  7  8  2  0
  7  9  1  0
  9 10  1  0
 10 11  1  0
  3 12  1  0
 12 13  2  0
 13 14  1  0
 13 15  1  0
 15 16  1  0
 16 17  2  0
 17 18  1  0
 18 19  2  0
 19 20  1  0
 20 21  2  0
 21 22  1  0
 22 23  2  0
 22 24  1  0
 24 25  1  0
 25 26  1  0
 26 27  1  0
 27 28  1  0
 28 29  1  0
 27 30  1  0
 30 31  1  0
 15  2  1  0
 21 16  1  0
 31 24  1  0
 10  5  2  0
  1 32  1  0
  1 33  1  0
  4 34  1  0
 12 35  1  0
 14 36  1  0
 14 37  1  0
 14 38  1  0
 17 39  1  0
 18 40  1  0
 19 41  1  0
 20 42  1  0
 25 43  1  0
 25 44  1  0
 26 45  1  0
 26 46  1  0
 27 47  1  0
 28 48  1  0
 29 49  1  0
 29 50  1  0
 29 51  1  0
 30 52  1  0
 30 53  1  0
 31 54  1  0
 31 55  1  0
M  CHG  3   6  -1   9  -1  11  -1
M  END
>  <UniqueID>  (75) 
70

>  <SMILES>  (75) 
C=c1c(=Cc2[n-]c(=O)[n-]c2[O-])cc(C)n1-c1ccccc1C(=O)N1CCC(NC)CC1

>  <Energy>  (75) 
139.87337342072024

>  <Genealogy>  (75) 
C=c1c(=Cc2[n-]c(=O)[n-]c2[O-])cc(C)n1-c1ccccc1C(=O)N1CCC(NC)CC1 (protonated)
C=c1c(=Cc2[n-]c(=O)[n-]c2[O-])cc(C)n1-c1ccccc1C(=O)N1CCC(NC)CC1 (3D coordinates assigned)
C=c1c(=Cc2[n-]c(=O)[n-]c2[O-])cc(C)n1-c1ccccc1C(=O)N1CCC(NC)CC1 (nonaromatic ring conformer: 139.87337342072024 kcal/mol)

>  <smiles>  (75) 
C=c1c(=Cc2[nH]c(=O)[nH]c2O)cc(C)n1-c1ccccc1C(=O)N1CCC(NC)CC1

>  <score_type>  (75) 
oracle

>  <origin>  (75) 
adg

>  <m_score__min__energy>  (75) 
-16.399999999999999

>  <m_primary>  (75) 
energy

$$$$
75:0
     RDKit          3D

 44 46  0  0  0  0  0  0  0  0999 V2000
   60.2370   32.7170   46.3550 N   0  0  0  0  0  0  0  0  0  0  0  0
   58.6460   33.3090   46.0240 S   0  0  0  0  0  0  0  0  0  0  0  0
   57.7500   33.0340   47.2000 O   0  0  0  0  0  0  0  0  0  0  0  0
   58.7180   34.7930   45.8000 O   0  0  0  0  0  0  0  0  0  0  0  0
   57.9990   32.5060   44.5960 C   0  0  0  0  0  0  0  0  0  0  0  0
   58.4570   32.8380   43.3130 C   0  0  0  0  0  0  0  0  0  0  0  0
   57.9540   32.1680   42.1940 C   0  0  0  0  0  0  0  0  0  0  0  0
   56.9980   31.1590   42.3480 C   0  0  0  0  0  0  0  0  0  0  0  0
   56.5290   30.8240   43.6270 C   0  0  0  0  0  0  0  0  0  0  0  0
   55.5440   29.7060   43.8190 C   0  0  0  0  0  0  0  0  0  0  0  0
   55.6640   29.1880   45.1760 N   0  0  0  0  0  0  0  0  0  0  0  0
   56.6460   28.2240   45.5680 C   0  0  0  0  0  0  0  0  0  0  0  0
   56.3490   26.9990   45.6040 O   0  0  0  0  0  0  0  0  0  0  0  0
   58.0080   28.6680   45.9170 C   0  0  0  0  0  0  0  0  0  0  0  0
   58.2690   29.1960   47.1900 C   0  0  0  0  0  0  0  0  0  0  0  0
   59.5680   29.6220   47.5190 C   0  0  0  0  0  0  0  0  0  0  0  0
   59.8690   30.2170   48.7930 N   0  0  0  0  0  0  0  0  0  0  0  0
   60.5130   31.4890   48.9760 C   0  0  0  0  0  0  0  0  0  0  0  0
   59.7780   32.5640   49.4990 C   0  0  0  0  0  0  0  0  0  0  0  0
   60.3820   33.8130   49.6760 C   0  0  0  0  0  0  0  0  0  0  0  0
   61.7190   34.0020   49.3180 C   0  0  0  0  0  0  0  0  0  0  0  0
   62.4520   32.9450   48.7690 C   0  0  0  0  0  0  0  0  0  0  0  0
   64.1270   33.1850   48.3080 Cl  0  0  0  0  0  0  0  0  0  0  0  0
   61.8480   31.6950   48.5860 C   0  0  0  0  0  0  0  0  0  0  0  0
   60.5490   29.5440   46.5800 N   0  0  0  0  0  0  0  0  0  0  0  0
   60.3240   29.0480   45.3350 C   0  0  0  0  0  0  0  0  0  0  0  0
   61.2670   28.9920   44.5030 O   0  0  0  0  0  0  0  0  0  0  0  0
   59.0480   28.6030   44.9790 C   0  0  0  0  0  0  0  0  0  0  0  0
   57.0280   31.5090   44.7470 C   0  0  0  0  0  0  0  0  0  0  0  0
   60.8570   33.0510   45.5840 H   0  0  0  0  0  0  0  0  0  0  0  0
   60.2000   31.6760   46.2820 H   0  0  0  0  0  0  0  0  0  0  0  0
   59.2132   33.6268   43.1869 H   0  0  0  0  0  0  0  0  0  0  0  0
   58.3115   32.4354   41.1887 H   0  0  0  0  0  0  0  0  0  0  0  0
   56.6133   30.6274   41.4652 H   0  0  0  0  0  0  0  0  0  0  0  0
   54.5234   30.0835   43.6584 H   0  0  0  0  0  0  0  0  0  0  0  0
   55.7525   28.9024   43.0974 H   0  0  0  0  0  0  0  0  0  0  0  0
   57.4588   29.2767   47.9297 H   0  0  0  0  0  0  0  0  0  0  0  0
   59.6440   29.6590   49.6470 H   0  0  0  0  0  0  0  0  0  0  0  0
   58.7215   32.4236   49.7711 H   0  0  0  0  0  0  0  0  0  0  0  0
   59.8032   34.6479   50.0978 H   0  0  0  0  0  0  0  0  0  0  0  0
   62.1953   34.9822   49.4679 H   0  0  0  0  0  0  0  0  0  0  0  0
   62.4204   30.8708   48.1353 H   0  0  0  0  0  0  0  0  0  0  0  0
   58.8611   28.2049   43.9708 H   0  0  0  0  0  0  0  0  0  0  0  0
   56.6529   31.2601   45.7507 H   0  0  0  0  0  0  0  0  0  0  0  0
  1  2  1  0
  2  3  2  0
  2  4  2  0
  2  5  1  0
  5  6  2  0
  6  7  1  0
  7  8  2  0
  8  9  1  0
  9 10  1  0
 10 11  1  0
 11 12  1  0
 12 13  2  0
 12 14  1  0
 14 15  1  0
 15 16  2  0
 16 17  1  0
 17 18  1  0
 18 19  2  0
 19 20  1  0
 20 21  2  0
 21 22  1  0
 22 23  1  0
 22 24  2  0
 16 25  1  0
 25 26  1  0
 26 27  2  0
 26 28  1  0
  9 29  2  0
 29  5  1  0
 28 14  2  0
 24 18  1  0
  1 30  1  0
  1 31  1  0
  6 32  1  0
  7 33  1  0
  8 34  1  0
 10 35  1  0
 10 36  1  0
 15 37  1  0
 17 38  1  0
 19 39  1  0
 20 40  1  0
 21 41  1  0
 24 42  1  0
 28 43  1  0
 29 44  1  0
M  CHG  2  11  -1  25  -1
M  END
>  <UniqueID>  (76) 
71

>  <SMILES>  (76) 
NS(=O)(=O)c1cccc(C[N-]C(=O)c2cc(Nc3cccc(Cl)c3)[n-]c(=O)c2)c1

>  <Energy>  (76) 
48.99236805782817

>  <Genealogy>  (76) 
NS(=O)(=O)c1cccc(C[N-]C(=O)c2cc(Nc3cccc(Cl)c3)[n-]c(=O)c2)c1 (protonated)
NS(=O)(=O)c1cccc(C[N-]C(=O)c2cc(Nc3cccc(Cl)c3)[n-]c(=O)c2)c1 (3D coordinates assigned)
NS(=O)(=O)c1cccc(C[N-]C(=O)c2cc(Nc3cccc(Cl)c3)[n-]c(=O)c2)c1 (optimized conformer: 48.99236805782817 kcal/mol)

>  <smiles>  (76) 
NS(=O)(=O)c1cccc(CNC(=O)c2cc(Nc3cccc(Cl)c3)[nH]c(=O)c2)c1

>  <score_type>  (76) 
oracle

>  <origin>  (76) 
adg

>  <m_score__min__energy>  (76) 
-13.1

>  <m_primary>  (76) 
energy

$$$$
76:0
     RDKit          3D

 53 56  0  0  0  0  0  0  0  0999 V2000
   56.6440   24.8860   44.6640 C   0  0  0  0  0  0  0  0  0  0  0  0
   55.8000   25.8630   45.8870 S   0  0  0  0  0  0  0  0  0  0  0  0
   56.2690   25.4510   47.2540 O   0  0  0  0  0  0  0  0  0  0  0  0
   54.3200   25.6340   45.7620 O   0  0  0  0  0  0  0  0  0  0  0  0
   56.1630   27.5370   45.6190 N   0  0  0  0  0  0  0  0  0  0  0  0
   57.4330   28.1550   45.8670 C   0  0  0  0  0  0  0  0  0  0  0  0
   57.9820   28.9740   44.8740 C   0  0  0  0  0  0  0  0  0  0  0  0
   59.2150   29.5990   45.0760 C   0  0  0  0  0  0  0  0  0  0  0  0
   59.9160   29.3990   46.2650 C   0  0  0  0  0  0  0  0  0  0  0  0
   59.3820   28.5780   47.2720 C   0  0  0  0  0  0  0  0  0  0  0  0
   60.0980   28.3970   48.5520 C   0  0  0  0  0  0  0  0  0  0  0  0
   60.3170   27.1890   49.1070 N   0  0  0  0  0  0  0  0  0  0  0  0
   60.9080   27.3980   50.3020 C   0  0  0  0  0  0  0  0  0  0  0  0
   61.3150   26.3170   51.2360 C   0  0  0  0  0  0  0  0  0  0  0  0
   62.6300   26.2490   51.7270 C   0  0  0  0  0  0  0  0  0  0  0  0
   62.9900   25.2230   52.6050 C   0  0  0  0  0  0  0  0  0  0  0  0
   62.0720   24.2960   52.9860 N   0  0  0  0  0  0  0  0  0  0  0  0
   60.7930   24.3350   52.5310 C   0  0  0  0  0  0  0  0  0  0  0  0
   60.3900   25.3420   51.6500 C   0  0  0  0  0  0  0  0  0  0  0  0
   61.0760   28.7580   50.5140 C   0  0  0  0  0  0  0  0  0  0  0  0
   60.5660   29.3950   49.3970 C   0  0  0  0  0  0  0  0  0  0  0  0
   60.6260   30.8460   49.1310 C   0  0  0  0  0  0  0  0  0  0  0  0
   62.0950   31.5620   48.9660 S   0  0  0  0  0  0  0  0  0  0  0  0
   59.4090   31.5710   48.8720 N   0  0  0  0  0  0  0  0  0  0  0  0
   59.3120   33.0280   48.7920 C   0  0  0  0  0  0  0  0  0  0  0  0
   58.9030   33.4400   47.4060 C   0  0  0  0  0  0  0  0  0  0  0  0
   59.7410   34.2570   46.6300 C   0  0  0  0  0  0  0  0  0  0  0  0
   59.3460   34.6550   45.3500 C   0  0  0  0  0  0  0  0  0  0  0  0
   58.1130   34.2450   44.8360 C   0  0  0  0  0  0  0  0  0  0  0  0
   57.2670   33.4440   45.6090 C   0  0  0  0  0  0  0  0  0  0  0  0
   57.6550   33.0500   46.8930 C   0  0  0  0  0  0  0  0  0  0  0  0
   58.1340   27.9670   47.0730 C   0  0  0  0  0  0  0  0  0  0  0  0
   57.2843   24.1448   45.1648 H   0  0  0  0  0  0  0  0  0  0  0  0
   55.9052   24.3673   44.0354 H   0  0  0  0  0  0  0  0  0  0  0  0
   57.2646   25.5416   44.0354 H   0  0  0  0  0  0  0  0  0  0  0  0
   57.4397   29.1265   43.9292 H   0  0  0  0  0  0  0  0  0  0  0  0
   59.6341   30.2506   44.2951 H   0  0  0  0  0  0  0  0  0  0  0  0
   60.8908   29.8861   46.4148 H   0  0  0  0  0  0  0  0  0  0  0  0
   60.0630   26.2680   48.6840 H   0  0  0  0  0  0  0  0  0  0  0  0
   63.3730   27.0004   51.4215 H   0  0  0  0  0  0  0  0  0  0  0  0
   64.0193   25.1655   52.9888 H   0  0  0  0  0  0  0  0  0  0  0  0
   60.0717   23.5712   52.8571 H   0  0  0  0  0  0  0  0  0  0  0  0
   59.3538   25.3719   51.2820 H   0  0  0  0  0  0  0  0  0  0  0  0
   61.5261   29.2361   51.3965 H   0  0  0  0  0  0  0  0  0  0  0  0
   58.5130   31.0360   48.8200 H   0  0  0  0  0  0  0  0  0  0  0  0
   58.5621   33.3834   49.5140 H   0  0  0  0  0  0  0  0  0  0  0  0
   60.2925   33.4687   49.0254 H   0  0  0  0  0  0  0  0  0  0  0  0
   60.7115   34.5847   47.0310 H   0  0  0  0  0  0  0  0  0  0  0  0
   60.0075   35.2928   44.7454 H   0  0  0  0  0  0  0  0  0  0  0  0
   57.8084   34.5520   43.8246 H   0  0  0  0  0  0  0  0  0  0  0  0
   56.2948   33.1234   45.2063 H   0  0  0  0  0  0  0  0  0  0  0  0
   56.9803   32.4322   47.5039 H   0  0  0  0  0  0  0  0  0  0  0  0
   57.7012   27.3374   47.8644 H   0  0  0  0  0  0  0  0  0  0  0  0
  1  2  1  0
  2  3  2  0
  2  4  2  0
  2  5  1  0
  5  6  1  0
  6  7  2  0
  7  8  1  0
  8  9  2  0
  9 10  1  0
 10 11  1  0
 11 12  1  0
 12 13  1  0
 13 14  1  0
 14 15  2  0
 15 16  1  0
 16 17  2  0
 17 18  1  0
 18 19  2  0
 13 20  2  0
 20 21  1  0
 21 22  1  0
 22 23  2  0
 22 24  1  0
 24 25  1  0
 25 26  1  0
 26 27  2  0
 27 28  1  0
 28 29  2  0
 29 30  1  0
 30 31  2  0
 10 32  2  0
 32  6  1  0
 21 11  2  0
 31 26  1  0
 19 14  1  0
  1 33  1  0
  1 34  1  0
  1 35  1  0
  7 36  1  0
  8 37  1  0
  9 38  1  0
 12 39  1  0
 15 40  1  0
 16 41  1  0
 18 42  1  0
 19 43  1  0
 20 44  1  0
 24 45  1  0
 25 46  1  0
 25 47  1  0
 27 48  1  0
 28 49  1  0
 29 50  1  0
 30 51  1  0
 31 52  1  0
 32 53  1  0
M  CHG  1   5  -1
M  END
>  <UniqueID>  (77) 
72

>  <SMILES>  (77) 
CS(=O)(=O)[N-]c1cccc(-c2[nH]c(-c3ccncc3)cc2C(=S)NCc2ccccc2)c1

>  <Energy>  (77) 
88.34141602968091

>  <Genealogy>  (77) 
CS(=O)(=O)[N-]c1cccc(-c2[nH]c(-c3ccncc3)cc2C(=S)NCc2ccccc2)c1 (protonated)
CS(=O)(=O)[N-]c1cccc(-c2[nH]c(-c3ccncc3)cc2C(=S)NCc2ccccc2)c1 (3D coordinates assigned)
CS(=O)(=O)[N-]c1cccc(-c2[nH]c(-c3ccncc3)cc2C(=S)NCc2ccccc2)c1 (optimized conformer: 88.34141602968091 kcal/mol)

>  <smiles>  (77) 
CS(=O)(=O)Nc1cccc(-c2[nH]c(-c3ccncc3)cc2C(=S)NCc2ccccc2)c1

>  <score_type>  (77) 
oracle

>  <origin>  (77) 
adg

>  <m_score__min__energy>  (77) 
-11.02

>  <m_primary>  (77) 
energy

$$$$
77:0
     RDKit          3D

 46 48  0  0  1  0  0  0  0  0999 V2000
   62.3170   31.4670   49.9860 C   0  0  0  0  0  0  0  0  0  0  0  0
   61.6260   30.3460   49.9000 C   0  0  0  0  0  0  0  0  0  0  0  0
   60.7680   29.9990   48.7730 C   0  0  0  0  0  0  0  0  0  0  0  0
   60.8290   30.7410   47.7660 O   0  0  0  0  0  0  0  0  0  0  0  0
   59.8980   28.8870   48.7890 N   0  0  0  0  0  0  0  0  0  0  0  0
   59.0360   28.4690   47.7660 C   0  0  0  0  0  0  0  0  0  0  0  0
   58.9600   27.0950   47.5160 C   0  0  0  0  0  0  0  0  0  0  0  0
   58.1500   26.5660   46.5400 C   0  0  0  0  0  0  0  0  0  0  0  0
   57.3830   27.4130   45.7740 C   0  0  0  0  0  0  0  0  0  0  0  0
   57.4150   28.7730   45.9730 C   0  0  0  0  0  0  0  0  0  0  0  0
   56.6910   29.6780   45.2640 O   0  0  0  0  0  0  0  0  0  0  0  0
   57.0970   30.6490   44.4080 C   0  0  0  0  0  0  0  0  0  0  0  0
   57.7180   31.7750   44.9680 C   0  0  0  0  0  0  0  0  0  0  0  0
   58.1430   32.7810   44.1240 C   0  0  0  0  0  0  0  0  0  0  0  0
   58.7240   33.8530   44.5570 N   0  0  0  0  0  0  0  0  0  0  0  0
   59.2850   33.8600   45.8630 C   0  0  0  0  0  0  0  0  0  0  0  0
   58.5300   33.9900   47.0110 C   0  0  0  0  0  0  0  0  0  0  0  0
   59.2070   33.9800   48.2170 C   0  0  0  0  0  0  0  0  0  0  0  0
   60.5840   33.8480   48.2930 C   0  0  0  0  0  0  0  0  0  0  0  0
   61.3440   33.7160   47.1330 C   0  0  0  0  0  0  0  0  0  0  0  0
   63.0800   33.5470   47.1820 S   0  0  0  0  0  0  0  0  0  0  0  0
   63.4580   31.8760   46.9480 N   0  0  0  0  0  0  0  0  0  0  0  0
   63.6630   34.3890   46.0840 O   0  0  0  0  0  0  0  0  0  0  0  0
   63.6170   34.0410   48.4950 O   0  0  0  0  0  0  0  0  0  0  0  0
   60.6660   33.7270   45.9370 C   0  0  0  0  0  0  0  0  0  0  0  0
   57.9810   32.7140   42.7750 N   0  0  0  0  0  0  0  0  0  0  0  0
   57.3810   31.6210   42.2540 C   0  0  0  0  0  0  0  0  0  0  0  0
   56.9770   30.6630   43.0750 N   0  0  0  0  0  0  0  0  0  0  0  0
   58.2530   29.2650   46.9780 C   0  0  0  0  0  0  0  0  0  0  0  0
   62.9441   31.6602   50.8688 H   0  0  0  0  0  0  0  0  0  0  0  0
   62.2658   32.2082   49.1749 H   0  0  0  0  0  0  0  0  0  0  0  0
   61.7019   29.6285   50.7303 H   0  0  0  0  0  0  0  0  0  0  0  0
   59.9190   28.3190   49.6910 H   0  0  0  0  0  0  0  0  0  0  0  0
   59.5717   26.4119   48.1236 H   0  0  0  0  0  0  0  0  0  0  0  0
   58.1154   25.4792   46.3734 H   0  0  0  0  0  0  0  0  0  0  0  0
   56.7340   26.9956   44.9900 H   0  0  0  0  0  0  0  0  0  0  0  0
   57.8631   31.8546   46.0555 H   0  0  0  0  0  0  0  0  0  0  0  0
   57.4360   34.0970   46.9686 H   0  0  0  0  0  0  0  0  0  0  0  0
   58.6316   34.0804   49.1491 H   0  0  0  0  0  0  0  0  0  0  0  0
   61.0800   33.8474   49.2748 H   0  0  0  0  0  0  0  0  0  0  0  0
   62.9190   31.2550   47.6180 H   0  0  0  0  0  0  0  0  0  0  0  0
   64.5020   31.7350   47.1010 H   0  0  0  0  0  0  0  0  0  0  0  0
   61.2387   33.6267   45.0032 H   0  0  0  0  0  0  0  0  0  0  0  0
   58.3100   33.4860   42.1510 H   0  0  0  0  0  0  0  0  0  0  0  0
   57.2308   31.5284   41.1682 H   0  0  0  0  0  0  0  0  0  0  0  0
   58.2838   30.3520   47.1435 H   0  0  0  0  0  0  0  0  0  0  0  0
  1  2  2  0
  2  3  1  0
  3  4  2  0
  3  5  1  0
  5  6  1  0
  6  7  2  0
  7  8  1  0
  8  9  2  0
  9 10  1  0
 10 11  1  0
 11 12  1  0
 12 13  2  0
 13 14  1  0
 14 15  2  0
 15 16  1  0
 16 17  2  0
 17 18  1  0
 18 19  2  0
 19 20  1  0
 20 21  1  0
 21 22  1  0
 21 23  2  0
 21 24  2  0
 20 25  2  0
 14 26  1  0
 26 27  1  0
 27 28  2  0
 10 29  2  0
 29  6  1  0
 28 12  1  0
 25 16  1  0
  1 30  1  0
  1 31  1  0
  2 32  1  0
  5 33  1  0
  7 34  1  0
  8 35  1  0
  9 36  1  0
 13 37  1  0
 17 38  1  0
 18 39  1  0
 19 40  1  0
 22 41  1  0
 22 42  1  0
 25 43  1  0
 26 44  1  0
 27 45  1  0
 29 46  1  0
M  END
>  <smiles>  (78) 
C=CC(=O)Nc1cccc(Oc2cc(=Nc3cccc(S(N)(=O)=O)c3)[nH]cn2)c1

>  <score_type>  (78) 
oracle

>  <origin>  (78) 
adg

>  <m_score__min__energy>  (78) 
-9.3399999999999999

>  <m_primary>  (78) 
energy

$$$$
78:0
     RDKit          3D

 41 43  0  0  0  0  0  0  0  0999 V2000
   59.0870   34.0580   51.7410 O   0  0  0  0  0  0  0  0  0  0  0  0
   59.8450   33.6480   50.8200 C   0  0  0  0  0  0  0  0  0  0  0  0
   61.3150   33.5150   51.0930 C   0  0  0  0  0  0  0  0  0  0  0  0
   62.0540   33.1930   49.8230 C   0  0  0  0  0  0  0  0  0  0  0  0
   62.6610   34.2200   49.0800 C   0  0  0  0  0  0  0  0  0  0  0  0
   63.3750   33.9200   47.9150 C   0  0  0  0  0  0  0  0  0  0  0  0
   63.4920   32.5940   47.4880 C   0  0  0  0  0  0  0  0  0  0  0  0
   62.9000   31.5660   48.2270 C   0  0  0  0  0  0  0  0  0  0  0  0
   62.1860   31.8630   49.3920 C   0  0  0  0  0  0  0  0  0  0  0  0
   59.2700   33.2740   49.5120 C   0  0  0  0  0  0  0  0  0  0  0  0
   58.7010   32.1570   49.3790 O   0  0  0  0  0  0  0  0  0  0  0  0
   59.3220   34.1950   48.4080 N   0  0  0  0  0  0  0  0  0  0  0  0
   59.0120   33.8380   47.0500 C   0  0  0  0  0  0  0  0  0  0  0  0
   59.3670   34.6690   45.9750 C   0  0  0  0  0  0  0  0  0  0  0  0
   59.0420   34.3060   44.6650 C   0  0  0  0  0  0  0  0  0  0  0  0
   58.3400   33.1230   44.4150 C   0  0  0  0  0  0  0  0  0  0  0  0
   57.9450   32.6970   42.7560 Cl  0  0  0  0  0  0  0  0  0  0  0  0
   57.9380   32.3040   45.4820 C   0  0  0  0  0  0  0  0  0  0  0  0
   57.2220   31.0890   45.2100 N   0  0  0  0  0  0  0  0  0  0  0  0
   57.8040   29.8190   44.8920 C   0  0  0  0  0  0  0  0  0  0  0  0
   58.7970   29.7840   44.1180 O   0  0  0  0  0  0  0  0  0  0  0  0
   57.2450   28.5510   45.3960 C   0  0  0  0  0  0  0  0  0  0  0  0
   57.9410   27.5710   46.0870 C   0  0  0  0  0  0  0  0  0  0  0  0
   57.0270   26.5880   46.3900 C   0  0  0  0  0  0  0  0  0  0  0  0
   55.8260   27.0280   45.8790 C   0  0  0  0  0  0  0  0  0  0  0  0
   54.6280   26.3340   45.9710 O   0  0  0  0  0  0  0  0  0  0  0  0
   55.9410   28.2260   45.2750 N   0  0  0  0  0  0  0  0  0  0  0  0
   58.2900   32.6630   46.7960 C   0  0  0  0  0  0  0  0  0  0  0  0
   61.6950   34.4619   51.5040 H   0  0  0  0  0  0  0  0  0  0  0  0
   61.4729   32.7007   51.8155 H   0  0  0  0  0  0  0  0  0  0  0  0
   62.5743   35.2639   49.4159 H   0  0  0  0  0  0  0  0  0  0  0  0
   63.8446   34.7279   47.3347 H   0  0  0  0  0  0  0  0  0  0  0  0
   64.0504   32.3595   46.5697 H   0  0  0  0  0  0  0  0  0  0  0  0
   62.9958   30.5227   47.8920 H   0  0  0  0  0  0  0  0  0  0  0  0
   61.7255   31.0509   49.9737 H   0  0  0  0  0  0  0  0  0  0  0  0
   59.5040   35.2030   48.6160 H   0  0  0  0  0  0  0  0  0  0  0  0
   59.9035   35.6103   46.1649 H   0  0  0  0  0  0  0  0  0  0  0  0
   59.3397   34.9537   43.8273 H   0  0  0  0  0  0  0  0  0  0  0  0
   59.0110   27.5779   46.3422 H   0  0  0  0  0  0  0  0  0  0  0  0
   57.2160   25.6473   46.9279 H   0  0  0  0  0  0  0  0  0  0  0  0
   57.9954   32.0143   47.6341 H   0  0  0  0  0  0  0  0  0  0  0  0
  1  2  2  0
  2  3  1  0
  3  4  1  0
  4  5  2  0
  5  6  1  0
  6  7  2  0
  7  8  1  0
  8  9  2  0
  2 10  1  0
 10 11  2  0
 10 12  1  0
 12 13  1  0
 13 14  2  0
 14 15  1  0
 15 16  2  0
 16 17  1  0
 16 18  1  0
 18 19  1  0
 19 20  1  0
 20 21  2  0
 20 22  1  0
 22 23  2  0
 23 24  1  0
 24 25  2  0
 25 26  1  0
 25 27  1  0
 18 28  2  0
  9  4  1  0
 28 13  1  0
 27 22  1  0
  3 29  1  0
  3 30  1  0
  5 31  1  0
  6 32  1  0
  7 33  1  0
  8 34  1  0
  9 35  1  0
 12 36  1  0
 14 37  1  0
 15 38  1  0
 23 39  1  0
 24 40  1  0
 28 41  1  0
M  CHG  3  19  -1  26  -1  27  -1
M  END
>  <UniqueID>  (79) 
73

>  <SMILES>  (79) 
O=C(Cc1ccccc1)C(=O)Nc1ccc(Cl)c([N-]C(=O)c2ccc([O-])[n-]2)c1

>  <Energy>  (79) 
75.48320770641293

>  <Genealogy>  (79) 
O=C(Cc1ccccc1)C(=O)Nc1ccc(Cl)c([N-]C(=O)c2ccc([O-])[n-]2)c1 (protonated)
O=C(Cc1ccccc1)C(=O)Nc1ccc(Cl)c([N-]C(=O)c2ccc([O-])[n-]2)c1 (3D coordinates assigned)
O=C(Cc1ccccc1)C(=O)Nc1ccc(Cl)c([N-]C(=O)c2ccc([O-])[n-]2)c1 (optimized conformer: 75.48320770641293 kcal/mol)

>  <smiles>  (79) 
O=C(Cc1ccccc1)C(=O)Nc1ccc(Cl)c(NC(=O)c2ccc(O)[nH]2)c1

>  <score_type>  (79) 
oracle

>  <origin>  (79) 
adg

>  <m_score__min__energy>  (79) 
-16.41

>  <m_primary>  (79) 
energy

$$$$
79:0
     RDKit          3D

 45 48  0  0  0  0  0  0  0  0999 V2000
   64.3708   34.3734   52.6841 H   0  0  0  0  0  0  0  0  0  0  0  0
   64.6770   33.7000   51.8700 C   0  0  0  0  0  0  0  0  0  0  0  0
   65.9500   33.2760   51.8510 C   0  0  0  0  0  0  0  0  0  0  0  0
   66.9490   32.9540   53.3170 S   0  0  0  0  0  0  0  0  0  0  0  0
   68.2240   32.3220   52.2210 C   0  0  0  0  0  0  0  0  0  0  0  0
   69.3150   31.8730   52.6580 O   0  0  0  0  0  0  0  0  0  0  0  0
   67.9400   32.3540   50.8300 N   0  0  0  0  0  0  0  0  0  0  0  0
   66.6480   32.8950   50.6240 C   0  0  0  0  0  0  0  0  0  0  0  0
   66.1580   33.0230   49.4700 O   0  0  0  0  0  0  0  0  0  0  0  0
   63.6600   33.3200   50.8670 C   0  0  0  0  0  0  0  0  0  0  0  0
   63.3690   31.9740   50.5880 C   0  0  0  0  0  0  0  0  0  0  0  0
   63.9242   31.1760   51.1028 H   0  0  0  0  0  0  0  0  0  0  0  0
   62.3780   31.6440   49.6600 C   0  0  0  0  0  0  0  0  0  0  0  0
   62.1685   30.5870   49.4390 H   0  0  0  0  0  0  0  0  0  0  0  0
   61.6460   32.6510   49.0060 C   0  0  0  0  0  0  0  0  0  0  0  0
   60.5940   32.2990   48.0170 C   0  0  0  0  0  0  0  0  0  0  0  0
   60.8650   31.3910   46.9800 C   0  0  0  0  0  0  0  0  0  0  0  0
   61.8625   30.9341   46.9012 H   0  0  0  0  0  0  0  0  0  0  0  0
   59.8770   31.0640   46.0480 C   0  0  0  0  0  0  0  0  0  0  0  0
   60.1013   30.3459   45.2455 H   0  0  0  0  0  0  0  0  0  0  0  0
   58.6010   31.6430   46.1260 C   0  0  0  0  0  0  0  0  0  0  0  0
   57.5840   31.2820   45.1110 C   0  0  0  0  0  0  0  0  0  0  0  0
   56.5510   31.9970   44.9950 O   0  0  0  0  0  0  0  0  0  0  0  0
   57.7460   30.0780   44.2220 C   0  0  0  0  0  0  0  0  0  0  0  0
   56.9919   30.1161   43.4220 H   0  0  0  0  0  0  0  0  0  0  0  0
   58.7590   30.0894   43.7935 H   0  0  0  0  0  0  0  0  0  0  0  0
   57.5680   28.8050   45.0090 C   0  0  0  0  0  0  0  0  0  0  0  0
   58.6940   28.0810   45.4350 C   0  0  0  0  0  0  0  0  0  0  0  0
   59.7029   28.4566   45.2093 H   0  0  0  0  0  0  0  0  0  0  0  0
   58.5400   26.8860   46.1440 C   0  0  0  0  0  0  0  0  0  0  0  0
   59.4268   26.3283   46.4796 H   0  0  0  0  0  0  0  0  0  0  0  0
   57.2610   26.3990   46.4270 C   0  0  0  0  0  0  0  0  0  0  0  0
   57.1150   25.2100   47.1330 O   0  0  0  0  0  0  0  0  0  0  0  0
   56.1310   27.1050   45.9980 C   0  0  0  0  0  0  0  0  0  0  0  0
   54.8600   26.6160   46.2770 O   0  0  0  0  0  0  0  0  0  0  0  0
   56.2810   28.3040   45.2870 C   0  0  0  0  0  0  0  0  0  0  0  0
   55.1490   28.9910   44.8560 O   0  0  0  0  0  0  0  0  0  0  0  0
   58.3170   32.5330   47.1810 C   0  0  0  0  0  0  0  0  0  0  0  0
   57.0450   33.0750   47.3390 O   0  0  0  0  0  0  0  0  0  0  0  0
   59.3100   32.8640   48.1090 C   0  0  0  0  0  0  0  0  0  0  0  0
   59.0839   33.5734   48.9187 H   0  0  0  0  0  0  0  0  0  0  0  0
   61.9200   33.9960   49.3110 C   0  0  0  0  0  0  0  0  0  0  0  0
   61.3505   34.7953   48.8143 H   0  0  0  0  0  0  0  0  0  0  0  0
   62.9110   34.3250   50.2410 C   0  0  0  0  0  0  0  0  0  0  0  0
   63.1039   35.3806   50.4829 H   0  0  0  0  0  0  0  0  0  0  0  0
  1  2  1  0
  2  3  2  0
  3  4  1  0
  4  5  1  0
  5  6  2  0
  5  7  1  0
  7  8  1  0
  8  9  2  0
  2 10  1  0
 10 11  2  0
 11 12  1  0
 11 13  1  0
 13 14  1  0
 13 15  2  0
 15 16  1  0
 16 17  2  0
 17 18  1  0
 17 19  1  0
 19 20  1  0
 19 21  2  0
 21 22  1  0
 22 23  2  0
 22 24  1  0
 24 25  1  0
 24 26  1  0
 24 27  1  0
 27 28  2  0
 28 29  1  0
 28 30  1  0
 30 31  1  0
 30 32  2  0
 32 33  1  0
 32 34  1  0
 34 35  1  0
 34 36  2  0
 36 37  1  0
 21 38  1  0
 38 39  1  0
 38 40  2  0
 40 41  1  0
 15 42  1  0
 42 43  1  0
 42 44  2  0
 44 45  1  0
  8  3  1  0
 44 10  1  0
 40 16  1  0
 36 27  1  0
M  CHG  5   7  -1  33  -1  35  -1  37  -1  39  -1
M  END
>  <UniqueID>  (80) 
74

>  <SMILES>  (80) 
O=C1[N-]C(=O)/C(=C/c2ccc(-c3ccc(C(=O)Cc4ccc([O-])c([O-])c4[O-])c([O-])c3)cc2)S1

>  <Energy>  (80) 
85.19409726454127

>  <Genealogy>  (80) 
O=C1[N-]C(=O)C(=Cc2ccc(-c3ccc(C(=O)Cc4ccc([O-])c([O-])c4[O-])c([O-])c3)cc2)S1 (protonated)
O=C1[N-]C(=O)/C(=C/c2ccc(-c3ccc(C(=O)Cc4ccc([O-])c([O-])c4[O-])c([O-])c3)cc2)S1 (cis-trans isomerization)
O=C1[N-]C(=O)/C(=C/c2ccc(-c3ccc(C(=O)Cc4ccc([O-])c([O-])c4[O-])c([O-])c3)cc2)S1 (3D coordinates assigned)
O=C1[N-]C(=O)/C(=C/c2ccc(-c3ccc(C(=O)Cc4ccc([O-])c([O-])c4[O-])c([O-])c3)cc2)S1 (nonaromatic ring conformer: 85.19409726454127 kcal/mol)

>  <smiles>  (80) 
O=C1NC(=O)C(=Cc2ccc(-c3ccc(C(=O)Cc4ccc(O)c(O)c4O)c(O)c3)cc2)S1

>  <score_type>  (80) 
oracle

>  <origin>  (80) 
adg

>  <m_score__min__energy>  (80) 
-20.420000000000002

>  <m_primary>  (80) 
energy

$$$$
80:0
     RDKit          3D

 48 51  0  0  0  0  0  0  0  0999 V2000
   67.1290   32.8100   50.5900 C   0  0  0  0  0  0  0  0  0  0  0  0
   66.0340   32.7860   49.6280 N   0  0  0  0  0  0  0  0  0  0  0  0
   64.7250   32.3190   49.9900 C   0  0  0  0  0  0  0  0  0  0  0  0
   64.5510   31.7730   51.1140 O   0  0  0  0  0  0  0  0  0  0  0  0
   63.5750   32.4540   49.0630 C   0  0  0  0  0  0  0  0  0  0  0  0
   63.6940   33.2650   47.9050 C   0  0  0  0  0  0  0  0  0  0  0  0
   62.6170   33.4130   47.0130 C   0  0  0  0  0  0  0  0  0  0  0  0
   61.4410   32.7240   47.2890 C   0  0  0  0  0  0  0  0  0  0  0  0
   60.2970   32.7590   46.5840 N   0  0  0  0  0  0  0  0  0  0  0  0
   59.4290   31.9570   47.2390 C   0  0  0  0  0  0  0  0  0  0  0  0
   60.0340   31.3950   48.3600 C   0  0  0  0  0  0  0  0  0  0  0  0
   59.3870   30.4800   49.3200 C   0  0  0  0  0  0  0  0  0  0  0  0
   59.6330   29.2460   49.2370 O   0  0  0  0  0  0  0  0  0  0  0  0
   58.4850   30.9650   50.3890 C   0  0  0  0  0  0  0  0  0  0  0  0
   58.3500   32.3400   50.6470 C   0  0  0  0  0  0  0  0  0  0  0  0
   57.4920   32.7860   51.6550 C   0  0  0  0  0  0  0  0  0  0  0  0
   56.7810   31.8670   52.4300 C   0  0  0  0  0  0  0  0  0  0  0  0
   56.9360   30.4930   52.2160 C   0  0  0  0  0  0  0  0  0  0  0  0
   56.1910   29.5760   53.0300 N   0  0  0  0  0  0  0  0  0  0  0  0
   54.8510   29.1230   52.7880 C   0  0  0  0  0  0  0  0  0  0  0  0
   54.6230   27.8840   52.8000 O   0  0  0  0  0  0  0  0  0  0  0  0
   53.7470   30.0610   52.4770 C   0  0  0  0  0  0  0  0  0  0  0  0
   52.7940   30.3810   53.4610 C   0  0  0  0  0  0  0  0  0  0  0  0
   51.7520   31.2680   53.1760 C   0  0  0  0  0  0  0  0  0  0  0  0
   51.6440   31.8370   51.9040 C   0  0  0  0  0  0  0  0  0  0  0  0
   50.6090   32.7200   51.6220 O   0  0  0  0  0  0  0  0  0  0  0  0
   52.5770   31.5140   50.9140 C   0  0  0  0  0  0  0  0  0  0  0  0
   53.6190   30.6260   51.1950 C   0  0  0  0  0  0  0  0  0  0  0  0
   57.7760   30.0450   51.1810 C   0  0  0  0  0  0  0  0  0  0  0  0
   61.3210   31.9110   48.3860 C   0  0  0  0  0  0  0  0  0  0  0  0
   62.3620   31.7660   49.3060 C   0  0  0  0  0  0  0  0  0  0  0  0
   66.7202   32.8010   51.6112 H   0  0  0  0  0  0  0  0  0  0  0  0
   67.7662   31.9256   50.4424 H   0  0  0  0  0  0  0  0  0  0  0  0
   67.7269   33.7215   50.4424 H   0  0  0  0  0  0  0  0  0  0  0  0
   66.2370   33.0770   48.6460 H   0  0  0  0  0  0  0  0  0  0  0  0
   64.6418   33.7852   47.7021 H   0  0  0  0  0  0  0  0  0  0  0  0
   62.7022   34.0546   46.1235 H   0  0  0  0  0  0  0  0  0  0  0  0
   60.1090   33.3030   45.7120 H   0  0  0  0  0  0  0  0  0  0  0  0
   58.3894   31.7737   46.9297 H   0  0  0  0  0  0  0  0  0  0  0  0
   58.9222   33.0677   50.0528 H   0  0  0  0  0  0  0  0  0  0  0  0
   57.3760   33.8643   51.8390 H   0  0  0  0  0  0  0  0  0  0  0  0
   56.0958   32.2252   53.2125 H   0  0  0  0  0  0  0  0  0  0  0  0
   52.8693   29.9301   54.4615 H   0  0  0  0  0  0  0  0  0  0  0  0
   51.0159   31.5186   53.9540 H   0  0  0  0  0  0  0  0  0  0  0  0
   52.4907   31.9597   49.9120 H   0  0  0  0  0  0  0  0  0  0  0  0
   54.3436   30.3672   50.4088 H   0  0  0  0  0  0  0  0  0  0  0  0
   57.8791   28.9667   50.9897 H   0  0  0  0  0  0  0  0  0  0  0  0
   62.2421   31.1327   50.1974 H   0  0  0  0  0  0  0  0  0  0  0  0
  1  2  1  0
  2  3  1  0
  3  4  2  0
  3  5  1  0
  5  6  2  0
  6  7  1  0
  7  8  2  0
  8  9  1  0
  9 10  1  0
 10 11  2  0
 11 12  1  0
 12 13  2  0
 12 14  1  0
 14 15  2  0
 15 16  1  0
 16 17  2  0
 17 18  1  0
 18 19  1  0
 19 20  1  0
 20 21  2  0
 20 22  1  0
 22 23  2  0
 23 24  1  0
 24 25  2  0
 25 26  1  0
 25 27  1  0
 27 28  2  0
 18 29  2  0
 11 30  1  0
 30 31  2  0
 31  5  1  0
 30  8  1  0
 29 14  1  0
 28 22  1  0
  1 32  1  0
  1 33  1  0
  1 34  1  0
  2 35  1  0
  6 36  1  0
  7 37  1  0
  9 38  1  0
 10 39  1  0
 15 40  1  0
 16 41  1  0
 17 42  1  0
 23 43  1  0
 24 44  1  0
 27 45  1  0
 28 46  1  0
 29 47  1  0
 31 48  1  0
M  CHG  2  19  -1  26  -1
M  END
>  <UniqueID>  (81) 
75

>  <SMILES>  (81) 
CNC(=O)c1ccc2[nH]cc(C(=O)c3cccc([N-]C(=O)c4ccc([O-])cc4)c3)c2c1

>  <Energy>  (81) 
97.0724152677927

>  <Genealogy>  (81) 
CNC(=O)c1ccc2[nH]cc(C(=O)c3cccc([N-]C(=O)c4ccc([O-])cc4)c3)c2c1 (protonated)
CNC(=O)c1ccc2[nH]cc(C(=O)c3cccc([N-]C(=O)c4ccc([O-])cc4)c3)c2c1 (3D coordinates assigned)
CNC(=O)c1ccc2[nH]cc(C(=O)c3cccc([N-]C(=O)c4ccc([O-])cc4)c3)c2c1 (optimized conformer: 97.0724152677927 kcal/mol)

>  <smiles>  (81) 
CNC(=O)c1ccc2[nH]cc(C(=O)c3cccc(NC(=O)c4ccc(O)cc4)c3)c2c1

>  <score_type>  (81) 
oracle

>  <origin>  (81) 
adg

>  <m_score__min__energy>  (81) 
-15.94

>  <m_primary>  (81) 
energy

$$$$
81:0
     RDKit          3D

 47 51  0  0  1  0  0  0  0  0999 V2000
   58.5160   24.1690   46.0400 C   0  0  0  0  0  0  0  0  0  0  0  0
   57.0020   24.8900   45.4440 S   0  0  0  0  0  0  0  0  0  0  0  0
   55.8940   24.6450   46.4360 O   0  0  0  0  0  0  0  0  0  0  0  0
   56.5750   24.2480   44.1570 O   0  0  0  0  0  0  0  0  0  0  0  0
   57.2290   26.5950   45.1530 C   0  0  0  0  0  0  0  0  0  0  0  0
   56.3620   27.5630   45.6280 C   0  0  0  0  0  0  0  0  0  0  0  0
   56.6140   28.8860   45.3540 C   0  0  0  0  0  0  0  0  0  0  0  0
   57.7230   29.2380   44.6110 C   0  0  0  0  0  0  0  0  0  0  0  0
   57.9200   30.6610   44.3630 C   0  0  0  0  0  0  0  0  0  0  0  0
   58.1110   31.2900   43.1270 C   0  0  0  0  0  0  0  0  0  0  0  0
   58.2520   32.6250   43.3760 N   0  0  0  0  0  0  0  0  0  0  0  0
   58.1560   32.8220   44.7040 C   0  0  0  0  0  0  0  0  0  0  0  0
   58.2410   34.0940   45.4780 C   0  0  2  0  0  0  0  0  0  0  0  0
   59.6700   34.4910   45.7280 C   0  0  0  0  0  0  0  0  0  0  0  0
   60.2740   33.7280   46.8500 C   0  0  0  0  0  0  0  0  0  0  0  0
   59.4860   33.1400   47.8160 C   0  0  0  0  0  0  0  0  0  0  0  0
   60.3360   32.5330   48.6800 N   0  0  0  0  0  0  0  0  0  0  0  0
   61.6160   32.7330   48.2690 C   0  0  0  0  0  0  0  0  0  0  0  0
   62.8420   32.3440   48.7670 C   0  0  0  0  0  0  0  0  0  0  0  0
   64.0230   32.6920   48.1380 C   0  0  0  0  0  0  0  0  0  0  0  0
   63.9910   33.4450   46.9840 C   0  0  0  0  0  0  0  0  0  0  0  0
   62.7770   33.8540   46.4560 C   0  0  0  0  0  0  0  0  0  0  0  0
   61.6040   33.4880   47.1100 C   0  0  0  0  0  0  0  0  0  0  0  0
   58.0250   33.2510   47.7650 C   0  0  0  0  0  0  0  0  0  0  0  0
   57.3000   32.7160   48.6450 O   0  0  0  0  0  0  0  0  0  0  0  0
   57.4620   33.9940   46.6690 N   0  0  0  0  0  0  0  0  0  0  0  0
   57.9540   31.6280   45.2900 N   0  0  0  0  0  0  0  0  0  0  0  0
   58.6010   28.3030   44.1250 C   0  0  0  0  0  0  0  0  0  0  0  0
   58.3330   26.9770   44.4110 C   0  0  0  0  0  0  0  0  0  0  0  0
   58.5144   24.1698   47.1400 H   0  0  0  0  0  0  0  0  0  0  0  0
   58.5986   23.1349   45.6742 H   0  0  0  0  0  0  0  0  0  0  0  0
   59.3709   24.7567   45.6742 H   0  0  0  0  0  0  0  0  0  0  0  0
   55.4797   27.2765   46.2191 H   0  0  0  0  0  0  0  0  0  0  0  0
   55.9320   29.6644   45.7267 H   0  0  0  0  0  0  0  0  0  0  0  0
   58.1417   30.8013   42.1420 H   0  0  0  0  0  0  0  0  0  0  0  0
   58.4090   33.3720   42.6660 H   0  0  0  0  0  0  0  0  0  0  0  0
   57.8107   34.9111   44.8803 H   0  0  0  0  0  0  0  0  0  0  0  0
   60.2551   34.3030   44.8157 H   0  0  0  0  0  0  0  0  0  0  0  0
   59.6829   35.5573   45.9979 H   0  0  0  0  0  0  0  0  0  0  0  0
   60.0620   31.9930   49.5310 H   0  0  0  0  0  0  0  0  0  0  0  0
   62.8811   31.7423   49.6870 H   0  0  0  0  0  0  0  0  0  0  0  0
   64.9868   32.3684   48.5579 H   0  0  0  0  0  0  0  0  0  0  0  0
   64.9299   33.7214   46.4819 H   0  0  0  0  0  0  0  0  0  0  0  0
   62.7408   34.4570   45.5367 H   0  0  0  0  0  0  0  0  0  0  0  0
   56.5150   34.4150   46.8120 H   0  0  0  0  0  0  0  0  0  0  0  0
   59.4808   28.5955   43.5330 H   0  0  0  0  0  0  0  0  0  0  0  0
   59.0183   26.2020   44.0373 H   0  0  0  0  0  0  0  0  0  0  0  0
  1  2  1  0
  2  3  2  0
  2  4  2  0
  2  5  1  0
  5  6  2  0
  6  7  1  0
  7  8  2  0
  8  9  1  0
  9 10  2  0
 10 11  1  0
 11 12  1  0
 12 13  1  0
 13 14  1  0
 14 15  1  0
 15 16  2  0
 16 17  1  0
 17 18  1  0
 18 19  2  0
 19 20  1  0
 20 21  2  0
 21 22  1  0
 22 23  2  0
 16 24  1  0
 24 25  2  0
 24 26  1  0
 12 27  2  0
  8 28  1  0
 28 29  2  0
 29  5  1  0
 27  9  1  0
 26 13  1  0
 23 15  1  0
 23 18  1  0
  1 30  1  0
  1 31  1  0
  1 32  1  0
  6 33  1  0
  7 34  1  0
 10 35  1  0
 11 36  1  0
 13 37  1  6
 14 38  1  0
 14 39  1  0
 17 40  1  0
 19 41  1  0
 20 42  1  0
 21 43  1  0
 22 44  1  0
 26 45  1  0
 28 46  1  0
 29 47  1  0
M  END
>  <smiles>  (82) 
CS(=O)(=O)c1ccc(-c2c[nH]c(C3Cc4c([nH]c5ccccc45)C(=O)N3)n2)cc1

>  <score_type>  (82) 
oracle

>  <origin>  (82) 
adg

>  <m_score__min__energy>  (82) 
-9.0099999999999998

>  <m_primary>  (82) 
energy

$$$$
82:0
     RDKit          3D

 62 66  0  0  0  0  0  0  0  0999 V2000
   55.7380   26.8300   45.9670 N   0  0  0  0  0  0  0  0  0  0  0  0
   61.4100   33.8430   48.5660 C   0  0  0  0  0  0  0  0  0  0  0  0
   56.5930   28.7840   45.0630 N   0  0  0  0  0  0  0  0  0  0  0  0
   57.6630   29.5150   44.6940 C   0  0  0  0  0  0  0  0  0  0  0  0
   57.4160   30.8440   44.1150 C   0  0  0  0  0  0  0  0  0  0  0  0
   57.4810   31.9270   45.0700 N   0  0  0  0  0  0  0  0  0  0  0  0
   57.8800   33.1470   44.4440 C   0  0  0  0  0  0  0  0  0  0  0  0
   58.3400   34.1970   45.4290 C   0  0  0  0  0  0  0  0  0  0  0  0
   59.4110   33.6680   46.3550 C   0  0  0  0  0  0  0  0  0  0  0  0
   60.6420   34.5200   46.3640 C   0  0  0  0  0  0  0  0  0  0  0  0
   57.9680   27.0240   45.7850 N   0  0  0  0  0  0  0  0  0  0  0  0
   56.7280   27.5590   45.6010 C   0  0  0  0  0  0  0  0  0  0  0  0
   63.2340   33.9050   45.6240 O   0  0  0  0  0  0  0  0  0  0  0  0
   63.8970   33.2950   47.6520 N   0  0  0  0  0  0  0  0  0  0  0  0
   63.6260   33.1120   48.9400 C   0  0  0  0  0  0  0  0  0  0  0  0
   64.6280   32.6470   49.7610 C   0  0  0  0  0  0  0  0  0  0  0  0
   64.3450   32.4580   51.0970 C   0  0  0  0  0  0  0  0  0  0  0  0
   63.0850   32.7320   51.5830 C   0  0  0  0  0  0  0  0  0  0  0  0
   62.0560   33.2020   50.7720 C   0  0  0  0  0  0  0  0  0  0  0  0
   60.7000   33.4910   51.3280 C   0  0  0  0  0  0  0  0  0  0  0  0
   59.8400   32.2790   51.0710 C   0  0  0  0  0  0  0  0  0  0  0  0
   60.3190   31.1880   50.3740 C   0  0  0  0  0  0  0  0  0  0  0  0
   59.4570   30.1260   50.1900 C   0  0  0  0  0  0  0  0  0  0  0  0
   58.1740   30.1610   50.6850 C   0  0  0  0  0  0  0  0  0  0  0  0
   57.6800   31.2360   51.3800 C   0  0  0  0  0  0  0  0  0  0  0  0
   58.5330   32.3080   51.5720 C   0  0  0  0  0  0  0  0  0  0  0  0
   62.3710   33.3810   49.4420 C   0  0  0  0  0  0  0  0  0  0  0  0
   62.9290   33.7480   46.8340 C   0  0  0  0  0  0  0  0  0  0  0  0
   60.2510   34.1050   48.9650 O   0  0  0  0  0  0  0  0  0  0  0  0
   59.6880   32.2160   46.0450 C   0  0  0  0  0  0  0  0  0  0  0  0
   58.3250   31.5200   46.1590 C   0  0  0  0  0  0  0  0  0  0  0  0
   58.8990   28.9570   44.8880 C   0  0  0  0  0  0  0  0  0  0  0  0
   59.0610   27.7010   45.4380 C   0  0  0  0  0  0  0  0  0  0  0  0
   61.6820   34.0320   47.2500 N   0  0  0  0  0  0  0  0  0  0  0  0
   54.7430   27.0870   45.9770 H   0  0  0  0  0  0  0  0  0  0  0  0
   58.1698   31.0261   43.3349 H   0  0  0  0  0  0  0  0  0  0  0  0
   56.3893   30.8313   43.7204 H   0  0  0  0  0  0  0  0  0  0  0  0
   58.7068   32.9308   43.7514 H   0  0  0  0  0  0  0  0  0  0  0  0
   56.9998   33.5506   43.9221 H   0  0  0  0  0  0  0  0  0  0  0  0
   58.7434   35.0553   44.8718 H   0  0  0  0  0  0  0  0  0  0  0  0
   57.4753   34.4935   46.0409 H   0  0  0  0  0  0  0  0  0  0  0  0
   59.0335   33.7217   47.3868 H   0  0  0  0  0  0  0  0  0  0  0  0
   61.0460   34.5574   45.3416 H   0  0  0  0  0  0  0  0  0  0  0  0
   60.3438   35.5121   46.7338 H   0  0  0  0  0  0  0  0  0  0  0  0
   64.8480   33.0860   47.2960 H   0  0  0  0  0  0  0  0  0  0  0  0
   65.6298   32.4315   49.3611 H   0  0  0  0  0  0  0  0  0  0  0  0
   65.1267   32.0877   51.7765 H   0  0  0  0  0  0  0  0  0  0  0  0
   62.8847   32.5732   52.6529 H   0  0  0  0  0  0  0  0  0  0  0  0
   60.7695   33.6804   52.4093 H   0  0  0  0  0  0  0  0  0  0  0  0
   60.2668   34.3829   50.8518 H   0  0  0  0  0  0  0  0  0  0  0  0
   61.3462   31.1660   49.9811 H   0  0  0  0  0  0  0  0  0  0  0  0
   59.8011   29.2382   49.6392 H   0  0  0  0  0  0  0  0  0  0  0  0
   57.5187   29.2936   50.5172 H   0  0  0  0  0  0  0  0  0  0  0  0
   56.6506   31.2450   51.7676 H   0  0  0  0  0  0  0  0  0  0  0  0
   58.1809   33.1920   52.1238 H   0  0  0  0  0  0  0  0  0  0  0  0
   60.0937   32.1081   45.0282 H   0  0  0  0  0  0  0  0  0  0  0  0
   60.4327   31.7818   46.7283 H   0  0  0  0  0  0  0  0  0  0  0  0
   58.4671   30.4298   46.1238 H   0  0  0  0  0  0  0  0  0  0  0  0
   57.8514   31.8002   47.1114 H   0  0  0  0  0  0  0  0  0  0  0  0
   59.7922   29.5287   44.5958 H   0  0  0  0  0  0  0  0  0  0  0  0
   60.0632   27.2722   45.5852 H   0  0  0  0  0  0  0  0  0  0  0  0
   58.1000   26.0780   46.1990 H   0  0  0  0  0  0  0  0  0  0  0  0
  1  2  2  3
  2  3  1  0
  3  4  2  0
  4  5  1  0
  5  6  1  0
  6  7  1  0
  7  8  1  0
  8  9  1  0
  9 10  1  0
 10 11  1  0
 11 12  1  0
 12 13  2  0
 12 14  1  0
 14 15  1  0
 15 16  2  0
 16 17  1  0
 17 18  2  0
 18 19  1  0
 19 20  1  0
 20 21  1  0
 21 22  2  0
 22 23  1  0
 23 24  2  0
 24 25  1  0
 25 26  2  0
 19 27  2  0
 27 28  1  0
 28 29  2  0
  9 30  1  0
 30 31  1  0
  4 32  1  0
 32 33  2  0
 33 34  1  0
 34  2  1  0
 31  6  1  0
 28 11  1  0
 27 15  1  0
 26 21  1  0
  1 35  1  0
  5 36  1  0
  5 37  1  0
  7 38  1  0
  7 39  1  0
  8 40  1  0
  8 41  1  0
  9 42  1  0
 10 43  1  0
 10 44  1  0
 14 45  1  0
 16 46  1  0
 17 47  1  0
 18 48  1  0
 20 49  1  0
 20 50  1  0
 22 51  1  0
 23 52  1  0
 24 53  1  0
 25 54  1  0
 26 55  1  0
 30 56  1  0
 30 57  1  0
 31 58  1  0
 31 59  1  0
 32 60  1  0
 33 61  1  0
 34 62  1  0
M  END
>  <smiles>  (83) 
N=c1nc(CN2CCC(Cn3c(=O)[nH]c4cccc(Cc5ccccc5)c4c3=O)CC2)cc[nH]1

>  <score_type>  (83) 
oracle

>  <origin>  (83) 
adg

>  <m_score__min__energy>  (83) 
-10.32

>  <m_primary>  (83) 
energy

$$$$
83:0
     RDKit          3D

 39 40  0  0  0  0  0  0  0  0999 V2000
   60.4030   29.2110   49.6070 C   0  0  0  0  0  0  0  0  0  0  0  0
   60.0580   30.6110   50.0380 C   0  0  0  0  0  0  0  0  0  0  0  0
   58.7220   31.0480   49.9790 C   0  0  0  0  0  0  0  0  0  0  0  0
   58.3820   32.3420   50.3810 C   0  0  0  0  0  0  0  0  0  0  0  0
   59.3690   33.2130   50.8460 C   0  0  0  0  0  0  0  0  0  0  0  0
   60.7000   32.7940   50.9030 C   0  0  0  0  0  0  0  0  0  0  0  0
   61.0550   31.5030   50.4900 C   0  0  0  0  0  0  0  0  0  0  0  0
   62.7890   31.0240   50.5680 S   0  0  0  0  0  0  0  0  0  0  0  0
   63.3980   32.7470   50.5760 C   0  0  0  0  0  0  0  0  0  0  0  0
   64.3550   33.0030   49.4020 C   0  0  0  0  0  0  0  0  0  0  0  0
   64.0530   32.1870   48.2120 N   0  0  0  0  0  0  0  0  0  0  0  0
   62.9290   32.6980   47.4700 C   0  0  0  0  0  0  0  0  0  0  0  0
   63.1650   33.9010   46.3710 S   0  0  0  0  0  0  0  0  0  0  0  0
   61.6510   32.0430   47.5800 N   0  0  0  0  0  0  0  0  0  0  0  0
   60.4090   32.5920   47.1110 C   0  0  0  0  0  0  0  0  0  0  0  0
   59.5790   31.8620   46.2410 C   0  0  0  0  0  0  0  0  0  0  0  0
   58.3900   32.4230   45.7650 C   0  0  0  0  0  0  0  0  0  0  0  0
   58.0290   33.7200   46.1390 C   0  0  0  0  0  0  0  0  0  0  0  0
   56.8760   34.2630   45.6740 F   0  0  0  0  0  0  0  0  0  0  0  0
   58.8590   34.4610   46.9850 C   0  0  0  0  0  0  0  0  0  0  0  0
   60.0500   33.9030   47.4630 C   0  0  0  0  0  0  0  0  0  0  0  0
   60.8440   34.6330   48.2860 F   0  0  0  0  0  0  0  0  0  0  0  0
   60.5581   28.5815   50.4956 H   0  0  0  0  0  0  0  0  0  0  0  0
   59.5795   28.7992   49.0052 H   0  0  0  0  0  0  0  0  0  0  0  0
   61.3236   29.2290   49.0052 H   0  0  0  0  0  0  0  0  0  0  0  0
   57.9398   30.3662   49.6139 H   0  0  0  0  0  0  0  0  0  0  0  0
   57.3349   32.6752   50.3311 H   0  0  0  0  0  0  0  0  0  0  0  0
   59.0983   34.2295   51.1676 H   0  0  0  0  0  0  0  0  0  0  0  0
   61.4742   33.4815   51.2743 H   0  0  0  0  0  0  0  0  0  0  0  0
   62.5404   33.4311   50.4956 H   0  0  0  0  0  0  0  0  0  0  0  0
   63.9445   32.9191   51.5150 H   0  0  0  0  0  0  0  0  0  0  0  0
   64.2882   34.0649   49.1228 H   0  0  0  0  0  0  0  0  0  0  0  0
   65.3644   32.7245   49.7391 H   0  0  0  0  0  0  0  0  0  0  0  0
   64.8910   32.1210   47.5900 H   0  0  0  0  0  0  0  0  0  0  0  0
   63.8280   31.2140   48.5260 H   0  0  0  0  0  0  0  0  0  0  0  0
   61.6270   31.0880   48.0040 H   0  0  0  0  0  0  0  0  0  0  0  0
   59.8665   30.8456   45.9339 H   0  0  0  0  0  0  0  0  0  0  0  0
   57.7381   31.8427   45.0954 H   0  0  0  0  0  0  0  0  0  0  0  0
   58.5758   35.4835   47.2753 H   0  0  0  0  0  0  0  0  0  0  0  0
  1  2  1  0
  2  3  2  0
  3  4  1  0
  4  5  2  0
  5  6  1  0
  6  7  2  0
  7  8  1  0
  8  9  1  0
  9 10  1  0
 10 11  1  0
 11 12  1  0
 12 13  2  0
 12 14  1  0
 14 15  1  0
 15 16  2  0
 16 17  1  0
 17 18  2  0
 18 19  1  0
 18 20  1  0
 20 21  2  0
 21 22  1  0
  7  2  1  0
 21 15  1  0
  1 23  1  0
  1 24  1  0
  1 25  1  0
  3 26  1  0
  4 27  1  0
  5 28  1  0
  6 29  1  0
  9 30  1  0
  9 31  1  0
 10 32  1  0
 10 33  1  0
 11 34  1  0
 11 35  1  0
 14 36  1  0
 16 37  1  0
 17 38  1  0
 20 39  1  0
M  CHG  1  11   1
M  END
>  <UniqueID>  (84) 
76

>  <SMILES>  (84) 
Cc1ccccc1SCC[NH2+]C(=S)Nc1ccc(F)cc1F

>  <Energy>  (84) 
39.32409429800714

>  <Genealogy>  (84) 
Cc1ccccc1SCC[NH2+]C(=S)Nc1ccc(F)cc1F (protonated)
Cc1ccccc1SCC[NH2+]C(=S)Nc1ccc(F)cc1F (3D coordinates assigned)
Cc1ccccc1SCC[NH2+]C(=S)Nc1ccc(F)cc1F (optimized conformer: 39.32409429800714 kcal/mol)

>  <smiles>  (84) 
Cc1ccccc1SCCNC(=S)Nc1ccc(F)cc1F

>  <score_type>  (84) 
oracle

>  <origin>  (84) 
adg

>  <m_score__min__energy>  (84) 
-5.3200000000000003

>  <m_primary>  (84) 
energy

$$$$
84:0
     RDKit          3D

 38 40  0  0  0  0  0  0  0  0999 V2000
   60.0250   28.9040   49.8350 H   0  0  0  0  0  0  0  0  0  0  0  0
   60.2960   28.0660   49.2730 N   0  0  0  0  0  0  0  0  0  0  0  0
   59.5920   27.6750   48.2610 C   0  0  0  0  0  0  0  0  0  0  0  0
   58.9450   28.5830   47.4830 N   0  0  0  0  0  0  0  0  0  0  0  0
   58.2030   28.1980   46.4090 C   0  0  0  0  0  0  0  0  0  0  0  0
   57.5050   29.2290   45.6060 C   0  0  0  0  0  0  0  0  0  0  0  0
   58.1790   30.4240   45.3020 C   0  0  0  0  0  0  0  0  0  0  0  0
   59.1901   30.5929   45.7009 H   0  0  0  0  0  0  0  0  0  0  0  0
   57.5790   31.4070   44.4950 C   0  0  0  0  0  0  0  0  0  0  0  0
   58.2720   32.6150   44.1300 N   0  0  0  0  0  0  0  0  0  0  0  0
   58.6510   32.7090   43.1620 H   0  0  0  0  0  0  0  0  0  0  0  0
   58.6840   33.8660   45.2620 S   0  0  0  0  0  0  0  0  0  0  0  0
   57.4330   34.3230   45.9600 O   0  0  0  0  0  0  0  0  0  0  0  0
   59.2850   35.0270   44.5210 O   0  0  0  0  0  0  0  0  0  0  0  0
   59.8640   33.2690   46.4280 C   0  0  0  0  0  0  0  0  0  0  0  0
   61.2020   33.6780   46.3550 C   0  0  0  0  0  0  0  0  0  0  0  0
   61.5294   34.3448   45.5437 H   0  0  0  0  0  0  0  0  0  0  0  0
   62.1200   33.2400   47.3110 C   0  0  0  0  0  0  0  0  0  0  0  0
   63.1698   33.5632   47.2519 H   0  0  0  0  0  0  0  0  0  0  0  0
   61.7090   32.3920   48.3430 C   0  0  0  0  0  0  0  0  0  0  0  0
   62.4373   32.0545   49.0951 H   0  0  0  0  0  0  0  0  0  0  0  0
   60.3710   31.9670   48.4270 C   0  0  0  0  0  0  0  0  0  0  0  0
   59.9410   31.0990   49.4910 N   0  0  0  0  0  0  0  0  0  0  0  0
   60.6970   30.8480   50.4540 O   0  0  0  0  0  0  0  0  0  0  0  0
   58.6880   30.5310   49.4680 O   0  0  0  0  0  0  0  0  0  0  0  0
   59.4540   32.4110   47.4570 C   0  0  0  0  0  0  0  0  0  0  0  0
   58.4057   32.0816   47.5068 H   0  0  0  0  0  0  0  0  0  0  0  0
   56.2730   31.2000   44.0290 C   0  0  0  0  0  0  0  0  0  0  0  0
   55.7811   31.9744   43.4221 H   0  0  0  0  0  0  0  0  0  0  0  0
   55.5920   30.0190   44.3290 C   0  0  0  0  0  0  0  0  0  0  0  0
   54.5673   29.8691   43.9581 H   0  0  0  0  0  0  0  0  0  0  0  0
   56.2050   29.0260   45.0980 C   0  0  0  0  0  0  0  0  0  0  0  0
   55.5230   27.8350   45.3270 O   0  0  0  0  0  0  0  0  0  0  0  0
   58.0880   26.8330   46.1140 C   0  0  0  0  0  0  0  0  0  0  0  0
   57.4813   26.4918   45.2623 H   0  0  0  0  0  0  0  0  0  0  0  0
   58.7590   25.9160   46.9230 C   0  0  0  0  0  0  0  0  0  0  0  0
   58.6907   24.8395   46.7072 H   0  0  0  0  0  0  0  0  0  0  0  0
   59.4960   26.3510   47.9760 N   0  0  0  0  0  0  0  0  0  0  0  0
  1  2  1  0
  2  3  2  0
  3  4  1  0
  4  5  2  0
  5  6  1  0
  6  7  2  0
  7  8  1  0
  7  9  1  0
  9 10  1  0
 10 11  1  0
 10 12  1  0
 12 13  2  0
 12 14  2  0
 12 15  1  0
 15 16  2  0
 16 17  1  0
 16 18  1  0
 18 19  1  0
 18 20  2  0
 20 21  1  0
 20 22  1  0
 22 23  1  0
 23 24  2  0
 23 25  1  0
 22 26  2  0
 26 27  1  0
  9 28  2  0
 28 29  1  0
 28 30  1  0
 30 31  1  0
 30 32  2  0
 32 33  1  0
  5 34  1  0
 34 35  1  0
 34 36  2  0
 36 37  1  0
 36 38  1  0
 38  3  1  0
 32  6  1  0
 26 15  1  0
M  CHG  4  23   1  25  -1  33  -1  38  -1
M  END
>  <UniqueID>  (85) 
77

>  <SMILES>  (85) 
[H]/N=c1\nc(-c2cc(NS(=O)(=O)c3cccc([N+](=O)[O-])c3)ccc2[O-])cc[n-]1

>  <Energy>  (85) 
50.0307159304377

>  <Genealogy>  (85) 
N=c1nc(-c2cc(NS(=O)(=O)c3cccc([N+](=O)[O-])c3)ccc2[O-])cc[n-]1 (protonated)
[H]/N=c1\nc(-c2cc(NS(=O)(=O)c3cccc([N+](=O)[O-])c3)ccc2[O-])cc[n-]1 (cis-trans isomerization)
[H]/N=c1\nc(-c2cc(NS(=O)(=O)c3cccc([N+](=O)[O-])c3)ccc2[O-])cc[n-]1 (3D coordinates assigned)
[H]/N=c1\nc(-c2cc(NS(=O)(=O)c3cccc([N+](=O)[O-])c3)ccc2[O-])cc[n-]1 (optimized conformer: 50.0307159304377 kcal/mol)

>  <smiles>  (85) 
N=c1nc(-c2cc(NS(=O)(=O)c3cccc([N+](=O)[O-])c3)ccc2O)cc[nH]1

>  <score_type>  (85) 
oracle

>  <origin>  (85) 
adg

>  <m_score__min__energy>  (85) 
-13.99

>  <m_primary>  (85) 
energy

$$$$
85:0
     RDKit          3D

 31 33  0  0  0  0  0  0  0  0999 V2000
   57.4020   23.6000   44.5500 C   0  0  0  0  0  0  0  0  0  0  0  0
   57.2190   23.8050   45.8570 C   0  0  0  0  0  0  0  0  0  0  0  0
   57.3960   22.8190   46.7560 N   0  0  0  0  0  0  0  0  0  0  0  0
   56.9500   23.3530   47.9080 C   0  0  0  0  0  0  0  0  0  0  0  0
   56.9450   22.7190   48.9950 O   0  0  0  0  0  0  0  0  0  0  0  0
   56.5010   24.6180   47.8010 N   0  0  0  0  0  0  0  0  0  0  0  0
   56.6900   24.9290   46.5030 C   0  0  0  0  0  0  0  0  0  0  0  0
   56.4340   26.1630   46.0150 C   0  0  0  0  0  0  0  0  0  0  0  0
   55.1460   26.7010   46.0040 O   0  0  0  0  0  0  0  0  0  0  0  0
   57.4980   26.9430   45.4380 N   0  0  0  0  0  0  0  0  0  0  0  0
   58.9230   26.6160   45.5810 C   0  0  0  0  0  0  0  0  0  0  0  0
   59.7020   27.9150   45.2700 C   0  0  0  0  0  0  0  0  0  0  0  0
   58.6270   28.8900   44.9460 C   0  0  0  0  0  0  0  0  0  0  0  0
   58.7690   30.2240   44.5600 C   0  0  0  0  0  0  0  0  0  0  0  0
   57.6110   30.9780   44.2690 C   0  0  0  0  0  0  0  0  0  0  0  0
   57.7290   32.3930   43.8580 C   0  0  0  0  0  0  0  0  0  0  0  0
   57.4640   33.3210   44.6700 O   0  0  0  0  0  0  0  0  0  0  0  0
   58.1360   32.7210   42.5700 O   0  0  0  0  0  0  0  0  0  0  0  0
   56.3410   30.3590   44.3700 C   0  0  0  0  0  0  0  0  0  0  0  0
   56.2290   29.0150   44.7580 C   0  0  0  0  0  0  0  0  0  0  0  0
   57.3960   28.3070   45.0580 C   0  0  0  0  0  0  0  0  0  0  0  0
   57.2502   24.4242   43.8375 H   0  0  0  0  0  0  0  0  0  0  0  0
   57.7045   22.6070   44.1861 H   0  0  0  0  0  0  0  0  0  0  0  0
   54.3490   26.2120   46.3900 H   0  0  0  0  0  0  0  0  0  0  0  0
   59.1355   26.2813   46.6071 H   0  0  0  0  0  0  0  0  0  0  0  0
   59.2159   25.8027   44.9008 H   0  0  0  0  0  0  0  0  0  0  0  0
   60.2827   28.2449   46.1440 H   0  0  0  0  0  0  0  0  0  0  0  0
   60.4327   27.7942   44.4567 H   0  0  0  0  0  0  0  0  0  0  0  0
   59.7669   30.6805   44.4837 H   0  0  0  0  0  0  0  0  0  0  0  0
   55.4336   30.9375   44.1421 H   0  0  0  0  0  0  0  0  0  0  0  0
   55.2442   28.5294   44.8245 H   0  0  0  0  0  0  0  0  0  0  0  0
  1  2  2  0
  2  3  1  0
  3  4  1  0
  4  5  2  0
  4  6  1  0
  6  7  1  0
  7  8  2  3
  8  9  1  0
  8 10  1  0
 10 11  1  0
 11 12  1  0
 12 13  1  0
 13 14  2  0
 14 15  1  0
 15 16  1  0
 16 17  2  0
 16 18  1  0
 15 19  2  0
 19 20  1  0
 20 21  2  0
  7  2  1  0
 21 10  1  0
 21 13  1  0
  1 22  1  0
  1 23  1  0
  9 24  1  0
 11 25  1  0
 11 26  1  0
 12 27  1  0
 12 28  1  0
 14 29  1  0
 19 30  1  0
 20 31  1  0
M  CHG  3   3  -1   6  -1  18  -1
M  END
>  <UniqueID>  (86) 
78

>  <SMILES>  (86) 
C=c1[n-]c(=O)[n-]c1=C(O)N1CCc2cc(C(=O)[O-])ccc21

>  <Energy>  (86) 
91.12193099511605

>  <Genealogy>  (86) 
C=c1[n-]c(=O)[n-]c1=C(O)N1CCc2cc(C(=O)[O-])ccc21 (protonated)
C=c1[n-]c(=O)[n-]c1=C(O)N1CCc2cc(C(=O)[O-])ccc21 (3D coordinates assigned)
C=c1[n-]c(=O)[n-]c1=C(O)N1CCc2cc(C(=O)[O-])ccc21 (nonaromatic ring conformer: 91.12193099511605 kcal/mol)

>  <smiles>  (86) 
C=c1[nH]c(=O)[nH]c1=C(O)N1CCc2cc(C(=O)O)ccc21

>  <score_type>  (86) 
oracle

>  <origin>  (86) 
adg

>  <m_score__min__energy>  (86) 
-12.16

>  <m_primary>  (86) 
energy

$$$$
86:0
     RDKit          3D

 55 58  0  0  0  0  0  0  0  0999 V2000
   56.1860   24.9189   48.1479 H   0  0  0  0  0  0  0  0  0  0  0  0
   56.4930   24.8230   47.0960 C   0  0  0  0  0  0  0  0  0  0  0  0
   55.6590   23.9690   46.2190 C   0  0  0  0  0  0  0  0  0  0  0  0
   54.4070   24.0160   46.3590 O   0  0  0  0  0  0  0  0  0  0  0  0
   56.2350   23.0450   45.2120 C   0  0  0  0  0  0  0  0  0  0  0  0
   55.8070   23.1290   43.8750 C   0  0  0  0  0  0  0  0  0  0  0  0
   55.0198   23.8456   43.5978 H   0  0  0  0  0  0  0  0  0  0  0  0
   56.3750   22.3080   42.8950 C   0  0  0  0  0  0  0  0  0  0  0  0
   56.0430   22.3897   41.8495 H   0  0  0  0  0  0  0  0  0  0  0  0
   57.3630   21.3850   43.2430 C   0  0  0  0  0  0  0  0  0  0  0  0
   57.8163   20.7472   42.4698 H   0  0  0  0  0  0  0  0  0  0  0  0
   57.7760   21.2710   44.5720 C   0  0  0  0  0  0  0  0  0  0  0  0
   58.5487   20.5369   44.8441 H   0  0  0  0  0  0  0  0  0  0  0  0
   57.2110   22.0870   45.5600 C   0  0  0  0  0  0  0  0  0  0  0  0
   57.6180   21.9260   46.8800 O   0  0  0  0  0  0  0  0  0  0  0  0
   57.5940   25.4900   46.7110 C   0  0  0  0  0  0  0  0  0  0  0  0
   58.5713   25.0481   46.9553 H   0  0  0  0  0  0  0  0  0  0  0  0
   57.5840   26.7780   45.9810 C   0  0  0  0  0  0  0  0  0  0  0  0
   58.7870   27.3930   45.5950 C   0  0  0  0  0  0  0  0  0  0  0  0
   59.7466   26.9010   45.8121 H   0  0  0  0  0  0  0  0  0  0  0  0
   58.7720   28.6240   44.9380 C   0  0  0  0  0  0  0  0  0  0  0  0
   59.7203   29.1094   44.6640 H   0  0  0  0  0  0  0  0  0  0  0  0
   57.5500   29.2480   44.6240 C   0  0  0  0  0  0  0  0  0  0  0  0
   57.4850   30.4850   43.9590 O   0  0  0  0  0  0  0  0  0  0  0  0
   56.8510   31.6630   44.4640 C   0  0  0  0  0  0  0  0  0  0  0  0
   55.8300   31.4129   44.7881 H   0  0  0  0  0  0  0  0  0  0  0  0
   56.8234   32.4197   43.6661 H   0  0  0  0  0  0  0  0  0  0  0  0
   57.6180   32.2200   45.6330 C   0  0  0  0  0  0  0  0  0  0  0  0
   58.2330   31.3610   46.5570 C   0  0  0  0  0  0  0  0  0  0  0  0
   58.1114   30.2723   46.4572 H   0  0  0  0  0  0  0  0  0  0  0  0
   58.9990   31.8820   47.6030 C   0  0  0  0  0  0  0  0  0  0  0  0
   59.4742   31.2010   48.3244 H   0  0  0  0  0  0  0  0  0  0  0  0
   59.1660   33.2710   47.7390 C   0  0  0  0  0  0  0  0  0  0  0  0
   60.0350   33.8290   48.7990 C   0  0  0  0  0  0  0  0  0  0  0  0
   60.8860   34.7090   48.4970 O   0  0  0  0  0  0  0  0  0  0  0  0
   59.9120   33.4330   50.1740 N   0  0  0  0  0  0  0  0  0  0  0  0
   59.0820   32.3780   50.6900 C   0  0  0  0  0  0  0  0  0  0  0  0
   59.4290   31.0200   50.5470 C   0  0  0  0  0  0  0  0  0  0  0  0
   60.3635   30.7440   50.0366 H   0  0  0  0  0  0  0  0  0  0  0  0
   58.5890   30.0210   51.0520 C   0  0  0  0  0  0  0  0  0  0  0  0
   58.8520   28.9616   50.9161 H   0  0  0  0  0  0  0  0  0  0  0  0
   57.4160   30.3680   51.7290 C   0  0  0  0  0  0  0  0  0  0  0  0
   56.5860   29.3750   52.2350 O   0  0  0  0  0  0  0  0  0  0  0  0
   57.0860   31.7160   51.9050 C   0  0  0  0  0  0  0  0  0  0  0  0
   56.1689   31.9901   52.4470 H   0  0  0  0  0  0  0  0  0  0  0  0
   57.9200   32.7170   51.3930 C   0  0  0  0  0  0  0  0  0  0  0  0
   57.6609   33.7753   51.5439 H   0  0  0  0  0  0  0  0  0  0  0  0
   58.5000   34.1310   46.8490 C   0  0  0  0  0  0  0  0  0  0  0  0
   58.5835   35.2205   46.9753 H   0  0  0  0  0  0  0  0  0  0  0  0
   57.7320   33.6090   45.8040 C   0  0  0  0  0  0  0  0  0  0  0  0
   57.2144   34.2898   45.1122 H   0  0  0  0  0  0  0  0  0  0  0  0
   56.3500   28.6170   44.9770 C   0  0  0  0  0  0  0  0  0  0  0  0
   55.1340   29.2190   44.6630 O   0  0  0  0  0  0  0  0  0  0  0  0
   56.3630   27.3850   45.6450 C   0  0  0  0  0  0  0  0  0  0  0  0
   55.1590   26.7790   45.9890 O   0  0  0  0  0  0  0  0  0  0  0  0
  1  2  1  0
  2  3  1  0
  3  4  2  0
  3  5  1  0
  5  6  2  0
  6  7  1  0
  6  8  1  0
  8  9  1  0
  8 10  2  0
 10 11  1  0
 10 12  1  0
 12 13  1  0
 12 14  2  0
 14 15  1  0
  2 16  2  0
 16 17  1  0
 16 18  1  0
 18 19  2  0
 19 20  1  0
 19 21  1  0
 21 22  1  0
 21 23  2  0
 23 24  1  0
 24 25  1  0
 25 26  1  0
 25 27  1  0
 25 28  1  0
 28 29  2  0
 29 30  1  0
 29 31  1  0
 31 32  1  0
 31 33  2  0
 33 34  1  0
 34 35  2  0
 34 36  1  0
 36 37  1  0
 37 38  2  0
 38 39  1  0
 38 40  1  0
 40 41  1  0
 40 42  2  0
 42 43  1  0
 42 44  1  0
 44 45  1  0
 44 46  2  0
 46 47  1  0
 33 48  1  0
 48 49  1  0
 48 50  2  0
 50 51  1  0
 23 52  1  0
 52 53  1  0
 52 54  2  0
 54 55  1  0
 14  5  1  0
 54 18  1  0
 50 28  1  0
 46 37  1  0
M  CHG  5  15  -1  36  -1  43  -1  53  -1  55  -1
M  END
>  <UniqueID>  (87) 
79

>  <SMILES>  (87) 
O=C([N-]c1ccc([O-])cc1)c1ccc(COc2ccc(/C=C\C(=O)c3ccccc3[O-])c([O-])c2[O-])cc1

>  <Energy>  (87) 
78.39771773609637

>  <Genealogy>  (87) 
O=C([N-]c1ccc([O-])cc1)c1ccc(COc2ccc(C=CC(=O)c3ccccc3[O-])c([O-])c2[O-])cc1 (protonated)
O=C([N-]c1ccc([O-])cc1)c1ccc(COc2ccc(/C=C\C(=O)c3ccccc3[O-])c([O-])c2[O-])cc1 (cis-trans isomerization)
O=C([N-]c1ccc([O-])cc1)c1ccc(COc2ccc(/C=C\C(=O)c3ccccc3[O-])c([O-])c2[O-])cc1 (3D coordinates assigned)
O=C([N-]c1ccc([O-])cc1)c1ccc(COc2ccc(/C=C\C(=O)c3ccccc3[O-])c([O-])c2[O-])cc1 (optimized conformer: 78.39771773609637 kcal/mol)

>  <smiles>  (87) 
O=C(Nc1ccc(O)cc1)c1ccc(COc2ccc(C=CC(=O)c3ccccc3O)c(O)c2O)cc1

>  <score_type>  (87) 
oracle

>  <origin>  (87) 
adg

>  <m_score__min__energy>  (87) 
-21.059999999999999

>  <m_primary>  (87) 
energy

$$$$
