0:0
     RDKit          3D

 29 30  0  0  0  0  0  0  0  0999 V2000
   55.1380   29.3360   44.8560 N   0  0  0  0  0  0  0  0  0  0  0  0
   56.7080   29.3900   44.1380 S   0  0  0  0  0  0  0  0  0  0  0  0
   56.5870   29.2130   42.6490 O   0  0  0  0  0  0  0  0  0  0  0  0
   57.5480   28.2720   44.6890 O   0  0  0  0  0  0  0  0  0  0  0  0
   57.4650   30.9390   44.4960 C   0  0  0  0  0  0  0  0  0  0  0  0
   57.6460   31.8860   43.4790 C   0  0  0  0  0  0  0  0  0  0  0  0
   58.2340   33.1220   43.7660 C   0  0  0  0  0  0  0  0  0  0  0  0
   58.6190   33.4350   45.0740 C   0  0  0  0  0  0  0  0  0  0  0  0
   59.2460   34.7010   45.3340 N   0  0  0  0  0  0  0  0  0  0  0  0
   59.7330   35.0800   46.4560 N   0  0  0  0  0  0  0  0  0  0  0  0
   60.7600   34.4020   47.1980 C   0  0  0  0  0  0  0  0  0  0  0  0
   60.5780   34.1820   48.5680 C   0  0  0  0  0  0  0  0  0  0  0  0
   61.5460   33.4980   49.3070 C   0  0  0  0  0  0  0  0  0  0  0  0
   62.6940   33.0060   48.6780 C   0  0  0  0  0  0  0  0  0  0  0  0
   63.6510   32.3320   49.4290 O   0  0  0  0  0  0  0  0  0  0  0  0
   62.8700   33.1910   47.2970 C   0  0  0  0  0  0  0  0  0  0  0  0
   63.9970   32.6990   46.6410 O   0  0  0  0  0  0  0  0  0  0  0  0
   61.8970   33.8760   46.5600 C   0  0  0  0  0  0  0  0  0  0  0  0
   58.4640   32.4740   46.0870 C   0  0  0  0  0  0  0  0  0  0  0  0
   57.8760   31.2380   45.8010 C   0  0  0  0  0  0  0  0  0  0  0  0
   55.1790   28.6310   45.6260 H   0  0  0  0  0  0  0  0  0  0  0  0
   57.3247   31.6566   42.4523 H   0  0  0  0  0  0  0  0  0  0  0  0
   58.3946   33.8520   42.9589 H   0  0  0  0  0  0  0  0  0  0  0  0
   59.6682   34.5495   49.0653 H   0  0  0  0  0  0  0  0  0  0  0  0
   61.4049   33.3458   50.3872 H   0  0  0  0  0  0  0  0  0  0  0  0
   64.7480   32.2340   47.1370 H   0  0  0  0  0  0  0  0  0  0  0  0
   62.0228   34.0036   45.4747 H   0  0  0  0  0  0  0  0  0  0  0  0
   58.8064   32.6947   47.1088 H   0  0  0  0  0  0  0  0  0  0  0  0
   57.7359   30.4985   46.6032 H   0  0  0  0  0  0  0  0  0  0  0  0
  1  2  1  0
  2  3  2  0
  2  4  2  0
  2  5  1  0
  5  6  2  0
  6  7  1  0
  7  8  2  0
  8  9  1  0
  9 10  2  3
 10 11  1  0
 11 12  2  0
 12 13  1  0
 13 14  2  0
 14 15  1  0
 14 16  1  0
 16 17  1  0
 16 18  2  0
  8 19  1  0
 19 20  2  0
 20  5  1  0
 18 11  1  0
  1 21  1  0
  6 22  1  0
  7 23  1  0
 12 24  1  0
 13 25  1  0
 17 26  1  0
 18 27  1  0
 19 28  1  0
 20 29  1  0
M  CHG  2   1  -1  15  -1
M  END
>  <UniqueID>  (1) 
1

>  <SMILES>  (1) 
[NH-]S(=O)(=O)c1ccc(N=Nc2ccc([O-])c(O)c2)cc1

>  <Energy>  (1) 
42.679836875786194

>  <Genealogy>  (1) 
[NH-]S(=O)(=O)c1ccc(N=Nc2ccc([O-])c(O)c2)cc1 (protonated)
[NH-]S(=O)(=O)c1ccc(N=Nc2ccc([O-])c(O)c2)cc1 (3D coordinates assigned)
[NH-]S(=O)(=O)c1ccc(N=Nc2ccc([O-])c(O)c2)cc1 (optimized conformer: 42.679836875786194 kcal/mol)

>  <smiles>  (1) 
NS(=O)(=O)c1ccc(N=Nc2ccc(O)c(O)c2)cc1

>  <score_type>  (1) 
oracle

>  <origin>  (1) 
adg

>  <m_score__min__energy>  (1) 
-11.529999999999999

>  <m_primary>  (1) 
energy

$$$$
1:0
     RDKit          3D

 55 58  0  0  0  0  0  0  0  0999 V2000
   63.8510   32.3630   48.5180 C   0  0  0  0  0  0  0  0  0  0  0  0
   62.5560   32.4710   47.8280 N   0  0  0  0  0  0  0  0  0  0  0  0
   62.6360   33.4650   46.7340 C   0  0  0  0  0  0  0  0  0  0  0  0
   61.2470   34.0060   46.3760 C   0  0  0  0  0  0  0  0  0  0  0  0
   60.6510   34.7440   47.5140 N   0  0  0  0  0  0  0  0  0  0  0  0
   59.1840   34.8280   47.3650 C   0  0  0  0  0  0  0  0  0  0  0  0
   58.6560   33.6260   46.6260 C   0  0  0  0  0  0  0  0  0  0  0  0
   58.6350   32.3690   47.2510 C   0  0  0  0  0  0  0  0  0  0  0  0
   58.1460   31.2500   46.5720 C   0  0  0  0  0  0  0  0  0  0  0  0
   57.6790   31.3710   45.2510 C   0  0  0  0  0  0  0  0  0  0  0  0
   57.1470   30.2520   44.5270 N   0  0  0  0  0  0  0  0  0  0  0  0
   56.7550   28.9860   45.0790 C   0  0  0  0  0  0  0  0  0  0  0  0
   55.5320   28.6890   45.1510 O   0  0  0  0  0  0  0  0  0  0  0  0
   57.7920   28.0570   45.6080 C   0  0  0  0  0  0  0  0  0  0  0  0
   59.1430   28.4630   45.6050 C   0  0  0  0  0  0  0  0  0  0  0  0
   60.1470   27.6170   46.0810 C   0  0  0  0  0  0  0  0  0  0  0  0
   59.8250   26.3490   46.5580 C   0  0  0  0  0  0  0  0  0  0  0  0
   58.4970   25.9250   46.5730 C   0  0  0  0  0  0  0  0  0  0  0  0
   57.4690   26.7750   46.1270 C   0  0  0  0  0  0  0  0  0  0  0  0
   56.1120   26.2990   46.1150 N   0  0  0  0  0  0  0  0  0  0  0  0
   55.6490   25.2460   45.5000 C   0  0  0  0  0  0  0  0  0  0  0  0
   56.5070   24.5400   44.6460 C   0  0  0  0  0  0  0  0  0  0  0  0
   56.0370   23.4150   43.9640 C   0  0  0  0  0  0  0  0  0  0  0  0
   54.7490   23.0110   44.1180 N   0  0  0  0  0  0  0  0  0  0  0  0
   53.8860   23.6820   44.9240 C   0  0  0  0  0  0  0  0  0  0  0  0
   54.3120   24.8130   45.6260 C   0  0  0  0  0  0  0  0  0  0  0  0
   57.6730   32.6300   44.6400 C   0  0  0  0  0  0  0  0  0  0  0  0
   58.1650   33.7490   45.3170 C   0  0  0  0  0  0  0  0  0  0  0  0
   61.0530   34.2110   48.8420 C   0  0  0  0  0  0  0  0  0  0  0  0
   61.4500   32.7250   48.7840 C   0  0  0  0  0  0  0  0  0  0  0  0
   63.6890   32.3765   49.6059 H   0  0  0  0  0  0  0  0  0  0  0  0
   64.3414   31.4208   48.2320 H   0  0  0  0  0  0  0  0  0  0  0  0
   64.4907   33.2109   48.2320 H   0  0  0  0  0  0  0  0  0  0  0  0
   63.2753   34.3009   47.0543 H   0  0  0  0  0  0  0  0  0  0  0  0
   63.0585   32.9729   45.8456 H   0  0  0  0  0  0  0  0  0  0  0  0
   61.3371   34.6851   45.5154 H   0  0  0  0  0  0  0  0  0  0  0  0
   60.5938   33.1554   46.1314 H   0  0  0  0  0  0  0  0  0  0  0  0
   58.7213   34.8713   48.3620 H   0  0  0  0  0  0  0  0  0  0  0  0
   58.9373   35.7335   46.7912 H   0  0  0  0  0  0  0  0  0  0  0  0
   59.0057   32.2645   48.2814 H   0  0  0  0  0  0  0  0  0  0  0  0
   58.1262   30.2707   47.0726 H   0  0  0  0  0  0  0  0  0  0  0  0
   59.4092   29.4594   45.2226 H   0  0  0  0  0  0  0  0  0  0  0  0
   61.1944   27.9530   46.0791 H   0  0  0  0  0  0  0  0  0  0  0  0
   60.6192   25.6813   46.9233 H   0  0  0  0  0  0  0  0  0  0  0  0
   58.2509   24.9165   46.9370 H   0  0  0  0  0  0  0  0  0  0  0  0
   57.5476   24.8707   44.5130 H   0  0  0  0  0  0  0  0  0  0  0  0
   56.7118   22.8546   43.3003 H   0  0  0  0  0  0  0  0  0  0  0  0
   52.8474   23.3339   45.0247 H   0  0  0  0  0  0  0  0  0  0  0  0
   53.6104   25.3614   46.2718 H   0  0  0  0  0  0  0  0  0  0  0  0
   57.2780   32.7395   43.6192 H   0  0  0  0  0  0  0  0  0  0  0  0
   58.1675   34.7311   44.8216 H   0  0  0  0  0  0  0  0  0  0  0  0
   61.9117   34.7916   49.2101 H   0  0  0  0  0  0  0  0  0  0  0  0
   60.1871   34.3001   49.5145 H   0  0  0  0  0  0  0  0  0  0  0  0
   61.7698   32.4056   49.7868 H   0  0  0  0  0  0  0  0  0  0  0  0
   60.5729   32.1571   48.4401 H   0  0  0  0  0  0  0  0  0  0  0  0
  1  2  1  0
  2  3  1  0
  3  4  1  0
  4  5  1  0
  5  6  1  0
  6  7  1  0
  7  8  2  0
  8  9  1  0
  9 10  2  0
 10 11  1  0
 11 12  1  0
 12 13  2  0
 12 14  1  0
 14 15  2  0
 15 16  1  0
 16 17  2  0
 17 18  1  0
 18 19  2  0
 19 20  1  0
 20 21  2  3
 21 22  1  0
 22 23  2  0
 23 24  1  0
 24 25  1  0
 25 26  2  0
 10 27  1  0
 27 28  2  0
  5 29  1  0
 29 30  1  0
 30  2  1  0
 28  7  1  0
 19 14  1  0
 26 21  1  0
  1 31  1  0
  1 32  1  0
  1 33  1  0
  3 34  1  0
  3 35  1  0
  4 36  1  0
  4 37  1  0
  6 38  1  0
  6 39  1  0
  8 40  1  0
  9 41  1  0
 15 42  1  0
 16 43  1  0
 17 44  1  0
 18 45  1  0
 22 46  1  0
 23 47  1  0
 25 48  1  0
 26 49  1  0
 27 50  1  0
 28 51  1  0
 29 52  1  0
 29 53  1  0
 30 54  1  0
 30 55  1  0
M  CHG  2  11  -1  24  -1
M  END
>  <UniqueID>  (2) 
2

>  <SMILES>  (2) 
CN1CCN(Cc2ccc([N-]C(=O)c3ccccc3N=c3cc[n-]cc3)cc2)CC1

>  <Energy>  (2) 
87.54872430309058

>  <Genealogy>  (2) 
CN1CCN(Cc2ccc([N-]C(=O)c3ccccc3N=c3cc[n-]cc3)cc2)CC1 (protonated)
CN1CCN(Cc2ccc([N-]C(=O)c3ccccc3N=c3cc[n-]cc3)cc2)CC1 (3D coordinates assigned)
CN1CCN(Cc2ccc([N-]C(=O)c3ccccc3N=c3cc[n-]cc3)cc2)CC1 (nonaromatic ring conformer: 87.54872430309058 kcal/mol)

>  <smiles>  (2) 
CN1CCN(Cc2ccc(NC(=O)c3ccccc3N=c3cc[nH]cc3)cc2)CC1

>  <score_type>  (2) 
oracle

>  <origin>  (2) 
adg

>  <m_score__min__energy>  (2) 
-12.07

>  <m_primary>  (2) 
energy

$$$$
2:0
     RDKit          3D

 32 33  0  0  0  0  0  0  0  0999 V2000
   55.1310   29.3590   44.8610 N   0  0  0  0  0  0  0  0  0  0  0  0
   56.5220   29.2420   45.1480 C   0  0  0  0  0  0  0  0  0  0  0  0
   56.9500   29.5260   46.2990 O   0  0  0  0  0  0  0  0  0  0  0  0
   57.4770   28.8120   44.0670 C   0  0  1  0  0  0  0  0  0  0  0  0
   58.7990   29.5910   44.1580 C   0  0  0  0  0  0  0  0  0  0  0  0
   58.5780   31.0190   44.5920 C   0  0  0  0  0  0  0  0  0  0  0  0
   59.0100   31.4540   45.8560 C   0  0  0  0  0  0  0  0  0  0  0  0
   58.7740   32.7700   46.2670 C   0  0  0  0  0  0  0  0  0  0  0  0
   58.1020   33.6570   45.4220 C   0  0  0  0  0  0  0  0  0  0  0  0
   57.6620   33.2300   44.1660 C   0  0  0  0  0  0  0  0  0  0  0  0
   57.8940   31.9140   43.7520 C   0  0  0  0  0  0  0  0  0  0  0  0
   57.7540   27.3830   44.1890 N   0  0  0  0  0  0  0  0  0  0  0  0
   58.2300   26.7670   45.3900 C   0  0  0  0  0  0  0  0  0  0  0  0
   59.3050   27.1610   45.9160 O   0  0  0  0  0  0  0  0  0  0  0  0
   57.4480   25.6750   45.9960 C   0  0  0  0  0  0  0  0  0  0  0  0
   57.9940   24.4950   46.3420 N   0  0  0  0  0  0  0  0  0  0  0  0
   56.9660   23.7840   46.8520 C   0  0  0  0  0  0  0  0  0  0  0  0
   55.7910   24.4480   46.8490 N   0  0  0  0  0  0  0  0  0  0  0  0
   56.1010   25.6390   46.3100 C   0  0  0  0  0  0  0  0  0  0  0  0
   55.1350   26.6750   46.1150 N   0  0  0  0  0  0  0  0  0  0  0  0
   54.4260   29.3840   45.6310 H   0  0  0  0  0  0  0  0  0  0  0  0
   57.0080   29.0219   43.0944 H   0  0  0  0  0  0  0  0  0  0  0  0
   59.4556   29.0945   44.8876 H   0  0  0  0  0  0  0  0  0  0  0  0
   59.2581   29.6041   43.1585 H   0  0  0  0  0  0  0  0  0  0  0  0
   59.5359   30.7570   46.5251 H   0  0  0  0  0  0  0  0  0  0  0  0
   59.1177   33.1069   47.2561 H   0  0  0  0  0  0  0  0  0  0  0  0
   57.9191   34.6923   45.7456 H   0  0  0  0  0  0  0  0  0  0  0  0
   57.1327   33.9295   43.5023 H   0  0  0  0  0  0  0  0  0  0  0  0
   57.5399   31.5789   42.7659 H   0  0  0  0  0  0  0  0  0  0  0  0
   57.0758   22.7585   47.2346 H   0  0  0  0  0  0  0  0  0  0  0  0
   55.2320   27.3960   45.3700 H   0  0  0  0  0  0  0  0  0  0  0  0
   54.2980   26.7210   46.7370 H   0  0  0  0  0  0  0  0  0  0  0  0
  1  2  1  0
  2  3  2  0
  2  4  1  0
  4  5  1  0
  5  6  1  0
  6  7  2  0
  7  8  1  0
  8  9  2  0
  9 10  1  0
 10 11  2  0
  4 12  1  0
 12 13  1  0
 13 14  2  0
 13 15  1  0
 15 16  1  0
 16 17  1  0
 17 18  2  0
 18 19  1  0
 19 20  1  0
 11  6  1  0
 19 15  2  0
  1 21  1  0
  4 22  1  6
  5 23  1  0
  5 24  1  0
  7 25  1  0
  8 26  1  0
  9 27  1  0
 10 28  1  0
 11 29  1  0
 17 30  1  0
 20 31  1  0
 20 32  1  0
M  CHG  3   1  -1  12  -1  16  -1
M  END
>  <UniqueID>  (3) 
3

>  <SMILES>  (3) 
[NH-]C(=O)[C@@H](Cc1ccccc1)[N-]C(=O)c1[n-]cnc1N

>  <Energy>  (3) 
55.40633883417238

>  <Genealogy>  (3) 
[NH-]C(=O)C(Cc1ccccc1)[N-]C(=O)c1[n-]cnc1N (protonated)
[NH-]C(=O)[C@@H](Cc1ccccc1)[N-]C(=O)c1[n-]cnc1N (chirality)
[NH-]C(=O)[C@@H](Cc1ccccc1)[N-]C(=O)c1[n-]cnc1N (3D coordinates assigned)
[NH-]C(=O)[C@@H](Cc1ccccc1)[N-]C(=O)c1[n-]cnc1N (optimized conformer: 55.40633883417238 kcal/mol)

>  <smiles>  (3) 
NC(=O)C(Cc1ccccc1)NC(=O)c1[nH]cnc1N

>  <score_type>  (3) 
oracle

>  <origin>  (3) 
adg

>  <m_score__min__energy>  (3) 
-13.42

>  <m_primary>  (3) 
energy

$$$$
3:0
     RDKit          3D

 43 46  0  0  0  0  0  0  0  0999 V2000
   65.6940   32.8050   50.1050 C   0  0  0  0  0  0  0  0  0  0  0  0
   64.6940   33.4830   49.3510 O   0  0  0  0  0  0  0  0  0  0  0  0
   63.6320   32.8450   48.6930 C   0  0  0  0  0  0  0  0  0  0  0  0
   63.2070   33.3610   47.4630 C   0  0  0  0  0  0  0  0  0  0  0  0
   62.1510   32.7650   46.7690 C   0  0  0  0  0  0  0  0  0  0  0  0
   61.4920   31.6450   47.3040 C   0  0  0  0  0  0  0  0  0  0  0  0
   60.3670   31.0060   46.5910 C   0  0  0  0  0  0  0  0  0  0  0  0
   60.3090   29.6840   46.3330 N   0  0  0  0  0  0  0  0  0  0  0  0
   59.1150   29.5300   45.7200 C   0  0  0  0  0  0  0  0  0  0  0  0
   58.6020   28.2330   45.2360 C   0  0  0  0  0  0  0  0  0  0  0  0
   58.5950   27.9440   43.8610 C   0  0  0  0  0  0  0  0  0  0  0  0
   58.1080   26.7180   43.3980 C   0  0  0  0  0  0  0  0  0  0  0  0
   57.6230   25.7680   44.3030 C   0  0  0  0  0  0  0  0  0  0  0  0
   57.0130   24.2310   43.7210 Cl  0  0  0  0  0  0  0  0  0  0  0  0
   57.6260   26.0470   45.6730 C   0  0  0  0  0  0  0  0  0  0  0  0
   58.1120   27.2730   46.1390 C   0  0  0  0  0  0  0  0  0  0  0  0
   58.4540   30.6610   45.6080 O   0  0  0  0  0  0  0  0  0  0  0  0
   59.1980   31.5940   46.1440 C   0  0  0  0  0  0  0  0  0  0  0  0
   58.6850   33.3040   46.3080 S   0  0  0  0  0  0  0  0  0  0  0  0
   58.9450   33.2950   48.0810 C   0  0  0  0  0  0  0  0  0  0  0  0
   59.8010   34.2340   48.6690 C   0  0  0  0  0  0  0  0  0  0  0  0
   60.0170   34.2170   50.0510 C   0  0  0  0  0  0  0  0  0  0  0  0
   59.3740   33.2640   50.8490 C   0  0  0  0  0  0  0  0  0  0  0  0
   59.6460   33.2430   52.5820 Cl  0  0  0  0  0  0  0  0  0  0  0  0
   58.5140   32.3290   50.2630 C   0  0  0  0  0  0  0  0  0  0  0  0
   58.2980   32.3450   48.8810 C   0  0  0  0  0  0  0  0  0  0  0  0
   61.9300   31.1150   48.5260 C   0  0  0  0  0  0  0  0  0  0  0  0
   62.9860   31.7110   49.2200 C   0  0  0  0  0  0  0  0  0  0  0  0
   65.4970   32.9386   51.1789 H   0  0  0  0  0  0  0  0  0  0  0  0
   65.6747   31.7330   49.8592 H   0  0  0  0  0  0  0  0  0  0  0  0
   66.6827   33.2198   49.8592 H   0  0  0  0  0  0  0  0  0  0  0  0
   63.7088   34.2434   47.0392 H   0  0  0  0  0  0  0  0  0  0  0  0
   61.8337   33.1746   45.7987 H   0  0  0  0  0  0  0  0  0  0  0  0
   58.9751   28.6870   43.1444 H   0  0  0  0  0  0  0  0  0  0  0  0
   58.1062   26.5000   42.3198 H   0  0  0  0  0  0  0  0  0  0  0  0
   57.2453   25.3008   46.3859 H   0  0  0  0  0  0  0  0  0  0  0  0
   58.1109   27.4873   47.2179 H   0  0  0  0  0  0  0  0  0  0  0  0
   60.3043   34.9860   48.0435 H   0  0  0  0  0  0  0  0  0  0  0  0
   60.6927   34.9532   50.5108 H   0  0  0  0  0  0  0  0  0  0  0  0
   58.0071   31.5804   50.8897 H   0  0  0  0  0  0  0  0  0  0  0  0
   57.6194   31.6108   48.4223 H   0  0  0  0  0  0  0  0  0  0  0  0
   61.4384   30.2230   48.9415 H   0  0  0  0  0  0  0  0  0  0  0  0
   63.3141   31.2920   50.1827 H   0  0  0  0  0  0  0  0  0  0  0  0
  1  2  1  0
  2  3  1  0
  3  4  2  0
  4  5  1  0
  5  6  2  0
  6  7  1  0
  7  8  1  0
  8  9  2  0
  9 10  1  0
 10 11  2  0
 11 12  1  0
 12 13  2  0
 13 14  1  0
 13 15  1  0
 15 16  2  0
  9 17  1  0
 17 18  1  0
 18 19  1  0
 19 20  1  0
 20 21  2  0
 21 22  1  0
 22 23  2  0
 23 24  1  0
 23 25  1  0
 25 26  2  0
  6 27  1  0
 27 28  2  0
 28  3  1  0
 18  7  2  0
 26 20  1  0
 16 10  1  0
  1 29  1  0
  1 30  1  0
  1 31  1  0
  4 32  1  0
  5 33  1  0
 11 34  1  0
 12 35  1  0
 15 36  1  0
 16 37  1  0
 21 38  1  0
 22 39  1  0
 25 40  1  0
 26 41  1  0
 27 42  1  0
 28 43  1  0
M  END
>  <UniqueID>  (4) 
4

>  <SMILES>  (4) 
COc1ccc(-c2nc(-c3ccc(Cl)cc3)oc2Sc2ccc(Cl)cc2)cc1

>  <Energy>  (4) 
75.8120331927026

>  <Genealogy>  (4) 
COc1ccc(-c2nc(-c3ccc(Cl)cc3)oc2Sc2ccc(Cl)cc2)cc1 (3D coordinates assigned)
COc1ccc(-c2nc(-c3ccc(Cl)cc3)oc2Sc2ccc(Cl)cc2)cc1 (optimized conformer: 75.8120331927026 kcal/mol)

>  <smiles>  (4) 
COc1ccc(-c2nc(-c3ccc(Cl)cc3)oc2Sc2ccc(Cl)cc2)cc1

>  <score_type>  (4) 
oracle

>  <origin>  (4) 
adg

>  <m_score__min__energy>  (4) 
-7.5700000000000003

>  <m_primary>  (4) 
energy

$$$$
4:0
     RDKit          3D

 51 53  0  0  0  0  0  0  0  0999 V2000
   59.6120   34.8020   45.6250 C   0  0  0  0  0  0  0  0  0  0  0  0
   58.9100   33.5350   45.2220 C   0  0  0  0  0  0  0  0  0  0  0  0
   58.4430   33.3720   43.9170 C   0  0  0  0  0  0  0  0  0  0  0  0
   57.8250   32.1760   43.5100 C   0  0  0  0  0  0  0  0  0  0  0  0
   57.3740   32.0720   42.0760 C   0  0  0  0  0  0  0  0  0  0  0  0
   57.6520   31.1150   44.4450 C   0  0  0  0  0  0  0  0  0  0  0  0
   56.8450   29.5830   43.9930 S   0  0  0  0  0  0  0  0  0  0  0  0
   55.9840   29.7150   42.7710 O   0  0  0  0  0  0  0  0  0  0  0  0
   55.9530   29.1280   45.1130 O   0  0  0  0  0  0  0  0  0  0  0  0
   58.0630   28.3860   43.7210 N   0  0  0  0  0  0  0  0  0  0  0  0
   58.4270   27.4580   44.7440 C   0  0  0  0  0  0  0  0  0  0  0  0
   59.6900   27.5500   45.3370 C   0  0  0  0  0  0  0  0  0  0  0  0
   60.0810   26.6110   46.2950 C   0  0  0  0  0  0  0  0  0  0  0  0
   59.2070   25.5860   46.6730 C   0  0  0  0  0  0  0  0  0  0  0  0
   57.9300   25.5030   46.1030 C   0  0  0  0  0  0  0  0  0  0  0  0
   56.8220   24.2130   46.5850 S   0  0  0  0  0  0  0  0  0  0  0  0
   55.5190   24.8240   47.0280 O   0  0  0  0  0  0  0  0  0  0  0  0
   57.4080   23.4730   47.7570 O   0  0  0  0  0  0  0  0  0  0  0  0
   56.5320   23.0770   45.2890 N   0  0  0  0  0  0  0  0  0  0  0  0
   56.2450   21.7380   45.8300 C   0  0  0  0  0  0  0  0  0  0  0  0
   55.9780   20.7490   44.6750 C   0  0  0  0  0  0  0  0  0  0  0  0
   56.2250   21.3250   43.4040 O   0  0  0  0  0  0  0  0  0  0  0  0
   57.5320   21.8630   43.3670 C   0  0  0  0  0  0  0  0  0  0  0  0
   57.6850   23.0260   44.3690 C   0  0  0  0  0  0  0  0  0  0  0  0
   57.5410   26.4470   45.1420 C   0  0  0  0  0  0  0  0  0  0  0  0
   58.1970   31.2640   45.7510 C   0  0  0  0  0  0  0  0  0  0  0  0
   58.1330   30.1630   46.7790 C   0  0  0  0  0  0  0  0  0  0  0  0
   58.8040   32.4750   46.1240 C   0  0  0  0  0  0  0  0  0  0  0  0
   59.6485   34.8678   46.7224 H   0  0  0  0  0  0  0  0  0  0  0  0
   60.6362   34.7973   45.2237 H   0  0  0  0  0  0  0  0  0  0  0  0
   59.0649   35.6679   45.2237 H   0  0  0  0  0  0  0  0  0  0  0  0
   58.5603   34.1930   43.1944 H   0  0  0  0  0  0  0  0  0  0  0  0
   56.3025   31.8249   42.0456 H   0  0  0  0  0  0  0  0  0  0  0  0
   57.5433   33.0328   41.5678 H   0  0  0  0  0  0  0  0  0  0  0  0
   57.9469   31.2824   41.5678 H   0  0  0  0  0  0  0  0  0  0  0  0
   60.3753   28.3610   45.0495 H   0  0  0  0  0  0  0  0  0  0  0  0
   61.0788   26.6779   46.7533 H   0  0  0  0  0  0  0  0  0  0  0  0
   59.5235   24.8431   47.4200 H   0  0  0  0  0  0  0  0  0  0  0  0
   57.1079   21.3892   46.4163 H   0  0  0  0  0  0  0  0  0  0  0  0
   55.3544   21.7914   46.4734 H   0  0  0  0  0  0  0  0  0  0  0  0
   56.6332   19.8743   44.8000 H   0  0  0  0  0  0  0  0  0  0  0  0
   54.9160   20.4653   44.7145 H   0  0  0  0  0  0  0  0  0  0  0  0
   58.2529   21.0723   43.6222 H   0  0  0  0  0  0  0  0  0  0  0  0
   57.7215   22.2484   42.3543 H   0  0  0  0  0  0  0  0  0  0  0  0
   58.6063   22.8812   44.9523 H   0  0  0  0  0  0  0  0  0  0  0  0
   57.7326   23.9715   43.8088 H   0  0  0  0  0  0  0  0  0  0  0  0
   56.5359   26.3941   44.6982 H   0  0  0  0  0  0  0  0  0  0  0  0
   58.1585   30.6012   47.7876 H   0  0  0  0  0  0  0  0  0  0  0  0
   57.2003   29.5944   46.6497 H   0  0  0  0  0  0  0  0  0  0  0  0
   58.9935   29.4901   46.6497 H   0  0  0  0  0  0  0  0  0  0  0  0
   59.2020   32.5896   47.1430 H   0  0  0  0  0  0  0  0  0  0  0  0
  1  2  1  0
  2  3  2  0
  3  4  1  0
  4  5  1  0
  4  6  2  0
  6  7  1  0
  7  8  2  0
  7  9  2  0
  7 10  1  0
 10 11  1  0
 11 12  2  0
 12 13  1  0
 13 14  2  0
 14 15  1  0
 15 16  1  0
 16 17  2  0
 16 18  2  0
 16 19  1  0
 19 20  1  0
 20 21  1  0
 21 22  1  0
 22 23  1  0
 23 24  1  0
 15 25  2  0
  6 26  1  0
 26 27  1  0
 26 28  2  0
 28  2  1  0
 25 11  1  0
 24 19  1  0
  1 29  1  0
  1 30  1  0
  1 31  1  0
  3 32  1  0
  5 33  1  0
  5 34  1  0
  5 35  1  0
 12 36  1  0
 13 37  1  0
 14 38  1  0
 20 39  1  0
 20 40  1  0
 21 41  1  0
 21 42  1  0
 23 43  1  0
 23 44  1  0
 24 45  1  0
 24 46  1  0
 25 47  1  0
 27 48  1  0
 27 49  1  0
 27 50  1  0
 28 51  1  0
M  CHG  1  10  -1
M  END
>  <UniqueID>  (5) 
5

>  <SMILES>  (5) 
Cc1cc(C)c(S(=O)(=O)[N-]c2cccc(S(=O)(=O)N3CCOCC3)c2)c(C)c1

>  <Energy>  (5) 
69.78896696266567

>  <Genealogy>  (5) 
Cc1cc(C)c(S(=O)(=O)[N-]c2cccc(S(=O)(=O)N3CCOCC3)c2)c(C)c1 (protonated)
Cc1cc(C)c(S(=O)(=O)[N-]c2cccc(S(=O)(=O)N3CCOCC3)c2)c(C)c1 (3D coordinates assigned)
Cc1cc(C)c(S(=O)(=O)[N-]c2cccc(S(=O)(=O)N3CCOCC3)c2)c(C)c1 (nonaromatic ring conformer: 69.78896696266567 kcal/mol)

>  <smiles>  (5) 
Cc1cc(C)c(S(=O)(=O)Nc2cccc(S(=O)(=O)N3CCOCC3)c2)c(C)c1

>  <score_type>  (5) 
oracle

>  <origin>  (5) 
adg

>  <m_score__min__energy>  (5) 
-11.84

>  <m_primary>  (5) 
energy

$$$$
5:0
     RDKit          3D

 46 48  0  0  0  0  0  0  0  0999 V2000
   50.6750   32.6970   52.3720 C   0  0  0  0  0  0  0  0  0  0  0  0
   51.0490   32.3330   51.0110 N   0  0  0  0  0  0  0  0  0  0  0  0
   51.7610   31.1500   50.6240 C   0  0  0  0  0  0  0  0  0  0  0  0
   51.4110   30.5560   49.5700 O   0  0  0  0  0  0  0  0  0  0  0  0
   52.8500   30.5670   51.4330 C   0  0  0  0  0  0  0  0  0  0  0  0
   54.0850   31.2160   51.5730 C   0  0  0  0  0  0  0  0  0  0  0  0
   55.0970   30.6290   52.3510 C   0  0  0  0  0  0  0  0  0  0  0  0
   56.3360   31.2600   52.5380 O   0  0  0  0  0  0  0  0  0  0  0  0
   57.5350   30.8110   51.9680 C   0  0  0  0  0  0  0  0  0  0  0  0
   58.0530   31.4000   50.8030 C   0  0  0  0  0  0  0  0  0  0  0  0
   59.2200   30.9020   50.2220 C   0  0  0  0  0  0  0  0  0  0  0  0
   59.8870   29.8080   50.7980 C   0  0  0  0  0  0  0  0  0  0  0  0
   61.0680   29.1950   50.0950 C   0  0  0  0  0  0  0  0  0  0  0  0
   60.6620   27.9020   49.4590 C   0  0  0  0  0  0  0  0  0  0  0  0
   60.3670   26.9110   50.1810 O   0  0  0  0  0  0  0  0  0  0  0  0
   60.6020   27.8040   48.0310 N   0  0  0  0  0  0  0  0  0  0  0  0
   59.5330   28.2920   47.2080 C   0  0  0  0  0  0  0  0  0  0  0  0
   59.4320   29.6480   46.8550 C   0  0  0  0  0  0  0  0  0  0  0  0
   58.3450   30.1020   46.1020 C   0  0  0  0  0  0  0  0  0  0  0  0
   57.3370   29.2100   45.6960 C   0  0  0  0  0  0  0  0  0  0  0  0
   56.1810   29.6860   44.9050 C   0  0  0  0  0  0  0  0  0  0  0  0
   55.1510   28.9710   44.7830 O   0  0  0  0  0  0  0  0  0  0  0  0
   56.2150   30.9300   44.2850 O   0  0  0  0  0  0  0  0  0  0  0  0
   57.4360   27.8580   46.0640 C   0  0  0  0  0  0  0  0  0  0  0  0
   58.5220   27.4060   46.8200 C   0  0  0  0  0  0  0  0  0  0  0  0
   59.3920   29.2510   51.9890 C   0  0  0  0  0  0  0  0  0  0  0  0
   58.2310   29.7620   52.5780 C   0  0  0  0  0  0  0  0  0  0  0  0
   54.8760   29.3730   52.9200 C   0  0  0  0  0  0  0  0  0  0  0  0
   53.6490   28.7370   52.7290 C   0  0  0  0  0  0  0  0  0  0  0  0
   52.6740   29.3410   51.9980 N   0  0  0  0  0  0  0  0  0  0  0  0
   51.2749   32.1132   53.0857 H   0  0  0  0  0  0  0  0  0  0  0  0
   50.8604   33.7699   52.5287 H   0  0  0  0  0  0  0  0  0  0  0  0
   49.6075   32.4826   52.5287 H   0  0  0  0  0  0  0  0  0  0  0  0
   54.2609   32.1812   51.0755 H   0  0  0  0  0  0  0  0  0  0  0  0
   57.5367   32.2574   50.3466 H   0  0  0  0  0  0  0  0  0  0  0  0
   59.6193   31.3681   49.3091 H   0  0  0  0  0  0  0  0  0  0  0  0
   61.4307   29.8857   49.3196 H   0  0  0  0  0  0  0  0  0  0  0  0
   61.8685   29.0059   50.8254 H   0  0  0  0  0  0  0  0  0  0  0  0
   60.2118   30.3559   47.1725 H   0  0  0  0  0  0  0  0  0  0  0  0
   58.2780   31.1645   45.8253 H   0  0  0  0  0  0  0  0  0  0  0  0
   56.6533   27.1495   45.7551 H   0  0  0  0  0  0  0  0  0  0  0  0
   58.5819   26.3470   47.1116 H   0  0  0  0  0  0  0  0  0  0  0  0
   59.9200   28.4090   52.4605 H   0  0  0  0  0  0  0  0  0  0  0  0
   57.8639   29.3376   53.5241 H   0  0  0  0  0  0  0  0  0  0  0  0
   55.6641   28.8883   53.5149 H   0  0  0  0  0  0  0  0  0  0  0  0
   53.4699   27.7455   53.1703 H   0  0  0  0  0  0  0  0  0  0  0  0
  1  2  1  0
  2  3  1  0
  3  4  2  0
  3  5  1  0
  5  6  2  0
  6  7  1  0
  7  8  1  0
  8  9  1  0
  9 10  2  0
 10 11  1  0
 11 12  2  0
 12 13  1  0
 13 14  1  0
 14 15  2  0
 14 16  1  0
 16 17  1  0
 17 18  2  0
 18 19  1  0
 19 20  2  0
 20 21  1  0
 21 22  2  0
 21 23  1  0
 20 24  1  0
 24 25  2  0
 12 26  1  0
 26 27  2  0
  7 28  2  0
 28 29  1  0
 29 30  2  0
 30  5  1  0
 27  9  1  0
 25 17  1  0
  1 31  1  0
  1 32  1  0
  1 33  1  0
  6 34  1  0
 10 35  1  0
 11 36  1  0
 13 37  1  0
 13 38  1  0
 18 39  1  0
 19 40  1  0
 24 41  1  0
 25 42  1  0
 26 43  1  0
 27 44  1  0
 28 45  1  0
 29 46  1  0
M  CHG  3   2  -1  16  -1  23  -1
M  END
>  <UniqueID>  (6) 
6

>  <SMILES>  (6) 
C[N-]C(=O)c1cc(Oc2ccc(CC(=O)[N-]c3ccc(C(=O)[O-])cc3)cc2)ccn1

>  <Energy>  (6) 
59.67979873596167

>  <Genealogy>  (6) 
C[N-]C(=O)c1cc(Oc2ccc(CC(=O)[N-]c3ccc(C(=O)[O-])cc3)cc2)ccn1 (protonated)
C[N-]C(=O)c1cc(Oc2ccc(CC(=O)[N-]c3ccc(C(=O)[O-])cc3)cc2)ccn1 (3D coordinates assigned)
C[N-]C(=O)c1cc(Oc2ccc(CC(=O)[N-]c3ccc(C(=O)[O-])cc3)cc2)ccn1 (optimized conformer: 59.67979873596167 kcal/mol)

>  <smiles>  (6) 
CNC(=O)c1cc(Oc2ccc(CC(=O)Nc3ccc(C(=O)O)cc3)cc2)ccn1

>  <score_type>  (6) 
oracle

>  <origin>  (6) 
adg

>  <m_score__min__energy>  (6) 
-14.93

>  <m_primary>  (6) 
energy

$$$$
6:0
     RDKit          3D

 49 51  0  0  0  0  0  0  0  0999 V2000
   61.5340   30.4920   49.7050 C   0  0  0  0  0  0  0  0  0  0  0  0
   61.5190   30.5860   48.2840 O   0  0  0  0  0  0  0  0  0  0  0  0
   60.5870   29.9400   47.4580 C   0  0  0  0  0  0  0  0  0  0  0  0
   59.3560   29.5640   48.0100 C   0  0  0  0  0  0  0  0  0  0  0  0
   58.3950   28.9200   47.2270 C   0  0  0  0  0  0  0  0  0  0  0  0
   58.6550   28.6390   45.8800 C   0  0  0  0  0  0  0  0  0  0  0  0
   57.4260   27.8710   44.8790 S   0  0  0  0  0  0  0  0  0  0  0  0
   56.1030   27.8880   45.5930 O   0  0  0  0  0  0  0  0  0  0  0  0
   57.8110   26.4430   44.6140 O   0  0  0  0  0  0  0  0  0  0  0  0
   57.2810   28.7440   43.3310 C   0  0  0  0  0  0  0  0  0  0  0  0
   57.3670   30.2170   43.5660 C   0  0  0  0  0  0  0  0  0  0  0  0
   57.2270   31.1970   42.6030 C   0  0  0  0  0  0  0  0  0  0  0  0
   57.4340   32.3930   43.2550 C   0  0  0  0  0  0  0  0  0  0  0  0
   57.6910   32.0650   44.5760 C   0  0  0  0  0  0  0  0  0  0  0  0
   57.9790   32.9950   45.6810 C   0  0  0  0  0  0  0  0  0  0  0  0
   57.0230   33.6210   46.2110 O   0  0  0  0  0  0  0  0  0  0  0  0
   59.3190   33.1930   46.1600 N   0  0  0  0  0  0  0  0  0  0  0  0
   59.6400   34.1730   47.1950 C   0  0  0  0  0  0  0  0  0  0  0  0
   61.0060   33.9030   47.7640 C   0  0  0  0  0  0  0  0  0  0  0  0
   61.2380   34.0630   49.1380 C   0  0  0  0  0  0  0  0  0  0  0  0
   62.5000   33.7940   49.6770 C   0  0  0  0  0  0  0  0  0  0  0  0
   63.5400   33.3440   48.8510 C   0  0  0  0  0  0  0  0  0  0  0  0
   64.9040   33.0910   49.4230 C   0  0  0  0  0  0  0  0  0  0  0  0
   63.3130   33.1960   47.4750 C   0  0  0  0  0  0  0  0  0  0  0  0
   62.0520   33.4650   46.9350 C   0  0  0  0  0  0  0  0  0  0  0  0
   57.6440   30.7610   44.7270 O   0  0  0  0  0  0  0  0  0  0  0  0
   59.8810   29.0190   45.3190 C   0  0  0  0  0  0  0  0  0  0  0  0
   60.8440   29.6630   46.1010 C   0  0  0  0  0  0  0  0  0  0  0  0
   61.3748   31.4896   50.1402 H   0  0  0  0  0  0  0  0  0  0  0  0
   60.7325   29.8154   50.0362 H   0  0  0  0  0  0  0  0  0  0  0  0
   62.5063   30.0984   50.0362 H   0  0  0  0  0  0  0  0  0  0  0  0
   59.1443   29.7774   49.0681 H   0  0  0  0  0  0  0  0  0  0  0  0
   57.4302   28.6325   47.6703 H   0  0  0  0  0  0  0  0  0  0  0  0
   58.0956   28.4338   42.6600 H   0  0  0  0  0  0  0  0  0  0  0  0
   56.3097   28.5073   42.8722 H   0  0  0  0  0  0  0  0  0  0  0  0
   56.9978   31.0527   41.5369 H   0  0  0  0  0  0  0  0  0  0  0  0
   57.4018   33.4013   42.8165 H   0  0  0  0  0  0  0  0  0  0  0  0
   60.1010   32.6190   45.7760 H   0  0  0  0  0  0  0  0  0  0  0  0
   59.6222   35.1820   46.7574 H   0  0  0  0  0  0  0  0  0  0  0  0
   58.8955   34.0987   48.0013 H   0  0  0  0  0  0  0  0  0  0  0  0
   60.4232   34.4017   49.7948 H   0  0  0  0  0  0  0  0  0  0  0  0
   62.6776   33.9360   50.7532 H   0  0  0  0  0  0  0  0  0  0  0  0
   64.8486   33.1013   50.5216 H   0  0  0  0  0  0  0  0  0  0  0  0
   65.2678   32.1100   49.0834 H   0  0  0  0  0  0  0  0  0  0  0  0
   65.5954   33.8762   49.0834 H   0  0  0  0  0  0  0  0  0  0  0  0
   64.1311   32.8667   46.8175 H   0  0  0  0  0  0  0  0  0  0  0  0
   61.8782   33.3332   45.8569 H   0  0  0  0  0  0  0  0  0  0  0  0
   60.0867   28.8098   44.2589 H   0  0  0  0  0  0  0  0  0  0  0  0
   61.8063   29.9546   45.6550 H   0  0  0  0  0  0  0  0  0  0  0  0
  1  2  1  0
  2  3  1  0
  3  4  2  0
  4  5  1  0
  5  6  2  0
  6  7  1  0
  7  8  2  0
  7  9  2  0
  7 10  1  0
 10 11  1  0
 11 12  2  0
 12 13  1  0
 13 14  2  0
 14 15  1  0
 15 16  2  0
 15 17  1  0
 17 18  1  0
 18 19  1  0
 19 20  2  0
 20 21  1  0
 21 22  2  0
 22 23  1  0
 22 24  1  0
 24 25  2  0
 14 26  1  0
  6 27  1  0
 27 28  2  0
 28  3  1  0
 26 11  1  0
 25 19  1  0
  1 29  1  0
  1 30  1  0
  1 31  1  0
  4 32  1  0
  5 33  1  0
 10 34  1  0
 10 35  1  0
 12 36  1  0
 13 37  1  0
 17 38  1  0
 18 39  1  0
 18 40  1  0
 20 41  1  0
 21 42  1  0
 23 43  1  0
 23 44  1  0
 23 45  1  0
 24 46  1  0
 25 47  1  0
 27 48  1  0
 28 49  1  0
M  END
>  <UniqueID>  (7) 
7

>  <SMILES>  (7) 
COc1ccc(S(=O)(=O)Cc2ccc(C(=O)NCc3ccc(C)cc3)o2)cc1

>  <Energy>  (7) 
67.35642866870221

>  <Genealogy>  (7) 
COc1ccc(S(=O)(=O)Cc2ccc(C(=O)NCc3ccc(C)cc3)o2)cc1 (3D coordinates assigned)
COc1ccc(S(=O)(=O)Cc2ccc(C(=O)NCc3ccc(C)cc3)o2)cc1 (optimized conformer: 67.35642866870221 kcal/mol)

>  <smiles>  (7) 
COc1ccc(S(=O)(=O)Cc2ccc(C(=O)NCc3ccc(C)cc3)o2)cc1

>  <score_type>  (7) 
oracle

>  <origin>  (7) 
adg

>  <m_score__min__energy>  (7) 
-8.0899999999999999

>  <m_primary>  (7) 
energy

$$$$
7:0
     RDKit          3D

 39 42  0  0  0  0  0  0  0  0999 V2000
   59.4980   34.1500   48.6080 C   0  0  0  0  0  0  0  0  0  0  0  0
   60.6920   33.3750   48.2700 N   0  0  0  0  0  0  0  0  0  0  0  0
   60.8010   32.3660   47.3630 C   0  0  0  0  0  0  0  0  0  0  0  0
   59.6880   31.9160   46.4580 C   0  0  0  0  0  0  0  0  0  0  0  0
   59.9560   30.5770   45.9350 N   0  0  0  0  0  0  0  0  0  0  0  0
   59.0650   29.4550   46.0970 C   0  0  0  0  0  0  0  0  0  0  0  0
   59.4220   28.3000   46.8320 C   0  0  0  0  0  0  0  0  0  0  0  0
   58.5220   27.2210   46.9600 C   0  0  0  0  0  0  0  0  0  0  0  0
   57.2420   27.2660   46.3610 C   0  0  0  0  0  0  0  0  0  0  0  0
   56.2950   26.1320   46.4940 C   0  0  0  0  0  0  0  0  0  0  0  0
   54.9650   26.2410   45.9930 N   0  0  0  0  0  0  0  0  0  0  0  0
   56.6540   25.0610   47.0530 O   0  0  0  0  0  0  0  0  0  0  0  0
   56.9220   28.4270   45.6420 C   0  0  0  0  0  0  0  0  0  0  0  0
   55.7840   28.7070   44.9860 N   0  0  0  0  0  0  0  0  0  0  0  0
   56.0200   29.9420   44.4780 C   0  0  0  0  0  0  0  0  0  0  0  0
   57.2420   30.4460   44.7810 N   0  0  0  0  0  0  0  0  0  0  0  0
   57.7930   29.4690   45.5180 C   0  0  0  0  0  0  0  0  0  0  0  0
   62.0430   31.8100   47.3250 N   0  0  0  0  0  0  0  0  0  0  0  0
   62.7080   32.4890   48.2760 C   0  0  0  0  0  0  0  0  0  0  0  0
   64.0280   32.3040   48.6780 C   0  0  0  0  0  0  0  0  0  0  0  0
   64.5190   33.1160   49.7180 C   0  0  0  0  0  0  0  0  0  0  0  0
   65.8330   32.9570   50.1430 O   0  0  0  0  0  0  0  0  0  0  0  0
   63.6790   34.0850   50.3300 C   0  0  0  0  0  0  0  0  0  0  0  0
   64.1520   34.8920   51.3640 O   0  0  0  0  0  0  0  0  0  0  0  0
   62.3490   34.2410   49.8940 C   0  0  0  0  0  0  0  0  0  0  0  0
   61.9010   33.4230   48.8560 C   0  0  0  0  0  0  0  0  0  0  0  0
   59.3997   34.2138   49.7017 H   0  0  0  0  0  0  0  0  0  0  0  0
   59.5873   35.1628   48.1882 H   0  0  0  0  0  0  0  0  0  0  0  0
   58.6093   33.6561   48.1882 H   0  0  0  0  0  0  0  0  0  0  0  0
   58.7456   31.9001   47.0251 H   0  0  0  0  0  0  0  0  0  0  0  0
   59.6137   32.6170   45.6136 H   0  0  0  0  0  0  0  0  0  0  0  0
   60.8540   30.4360   45.4190 H   0  0  0  0  0  0  0  0  0  0  0  0
   60.4117   28.2426   47.3087 H   0  0  0  0  0  0  0  0  0  0  0  0
   58.8205   26.3316   47.5343 H   0  0  0  0  0  0  0  0  0  0  0  0
   54.7720   26.7040   45.0770 H   0  0  0  0  0  0  0  0  0  0  0  0
   55.2828   30.4886   43.8716 H   0  0  0  0  0  0  0  0  0  0  0  0
   64.6668   31.5477   48.1985 H   0  0  0  0  0  0  0  0  0  0  0  0
   65.0950   34.8090   51.7220 H   0  0  0  0  0  0  0  0  0  0  0  0
   61.6839   34.9846   50.3573 H   0  0  0  0  0  0  0  0  0  0  0  0
  1  2  1  0
  2  3  1  0
  3  4  1  0
  4  5  1  0
  5  6  1  0
  6  7  2  0
  7  8  1  0
  8  9  2  0
  9 10  1  0
 10 11  1  0
 10 12  2  0
  9 13  1  0
 13 14  1  0
 14 15  2  0
 15 16  1  0
 16 17  1  0
  3 18  2  0
 18 19  1  0
 19 20  2  0
 20 21  1  0
 21 22  1  0
 21 23  2  0
 23 24  1  0
 23 25  1  0
 25 26  2  0
 26  2  1  0
 17  6  1  0
 26 19  1  0
 17 13  2  0
  1 27  1  0
  1 28  1  0
  1 29  1  0
  4 30  1  0
  4 31  1  0
  5 32  1  0
  7 33  1  0
  8 34  1  0
 11 35  1  0
 15 36  1  0
 20 37  1  0
 24 38  1  0
 25 39  1  0
M  CHG  3  11  -1  16  -1  22  -1
M  END
>  <UniqueID>  (8) 
8

>  <SMILES>  (8) 
Cn1c(CNc2ccc(C([NH-])=O)c3nc[n-]c23)nc2cc([O-])c(O)cc21

>  <Energy>  (8) 
114.91006108448704

>  <Genealogy>  (8) 
Cn1c(CNc2ccc(C([NH-])=O)c3nc[n-]c23)nc2cc([O-])c(O)cc21 (protonated)
Cn1c(CNc2ccc(C([NH-])=O)c3nc[n-]c23)nc2cc([O-])c(O)cc21 (3D coordinates assigned)
Cn1c(CNc2ccc(C([NH-])=O)c3nc[n-]c23)nc2cc([O-])c(O)cc21 (optimized conformer: 114.91006108448704 kcal/mol)

>  <smiles>  (8) 
Cn1c(CNc2ccc(C(N)=O)c3nc[nH]c23)nc2cc(O)c(O)cc21

>  <score_type>  (8) 
oracle

>  <origin>  (8) 
adg

>  <m_score__min__energy>  (8) 
-13.220000000000001

>  <m_primary>  (8) 
energy

$$$$
8:0
     RDKit          3D

 47 49  0  0  0  0  0  0  0  0999 V2000
   64.2420   32.6580   49.1050 C   0  0  0  0  0  0  0  0  0  0  0  0
   62.9120   32.6350   49.1040 C   0  0  0  0  0  0  0  0  0  0  0  0
   62.1070   33.3290   48.0730 C   0  0  0  0  0  0  0  0  0  0  0  0
   60.8280   33.6130   48.1560 C   0  0  0  0  0  0  0  0  0  0  0  0
   59.9640   33.4650   49.3480 C   0  0  0  0  0  0  0  0  0  0  0  0
   59.6420   34.4950   49.9980 O   0  0  0  0  0  0  0  0  0  0  0  0
   59.5160   32.1660   49.7700 N   0  0  0  0  0  0  0  0  0  0  0  0
   58.6750   31.9380   50.9140 C   0  0  0  0  0  0  0  0  0  0  0  0
   57.8310   30.8170   50.9330 C   0  0  0  0  0  0  0  0  0  0  0  0
   57.0210   30.5590   52.0430 C   0  0  0  0  0  0  0  0  0  0  0  0
   57.0610   31.4110   53.1510 C   0  0  0  0  0  0  0  0  0  0  0  0
   56.2770   31.1570   54.2280 F   0  0  0  0  0  0  0  0  0  0  0  0
   57.9160   32.5150   53.1520 C   0  0  0  0  0  0  0  0  0  0  0  0
   58.7260   32.7770   52.0420 C   0  0  0  0  0  0  0  0  0  0  0  0
   60.3690   34.1690   46.8560 C   0  0  2  0  0  0  0  0  0  0  0  0
   59.2850   33.3170   46.2390 C   0  0  0  0  0  0  0  0  0  0  0  0
   58.4340   33.8460   45.2560 C   0  0  0  0  0  0  0  0  0  0  0  0
   57.4470   33.0510   44.6720 C   0  0  0  0  0  0  0  0  0  0  0  0
   57.2940   31.7060   45.0590 C   0  0  0  0  0  0  0  0  0  0  0  0
   56.3130   30.8760   44.4930 O   0  0  0  0  0  0  0  0  0  0  0  0
   56.5520   29.9410   43.4470 C   0  0  0  0  0  0  0  0  0  0  0  0
   58.1430   31.1650   46.0360 C   0  0  0  0  0  0  0  0  0  0  0  0
   57.9700   29.8190   46.3960 O   0  0  0  0  0  0  0  0  0  0  0  0
   58.9620   29.0200   47.0340 C   0  0  0  0  0  0  0  0  0  0  0  0
   59.1370   31.9740   46.6210 C   0  0  0  0  0  0  0  0  0  0  0  0
   61.4920   34.2180   45.9960 O   0  0  0  0  0  0  0  0  0  0  0  0
   62.5930   33.7110   46.7240 C   0  0  0  0  0  0  0  0  0  0  0  0
   64.8007   32.1282   49.8906 H   0  0  0  0  0  0  0  0  0  0  0  0
   64.7832   33.2068   48.3202 H   0  0  0  0  0  0  0  0  0  0  0  0
   62.3911   32.0801   49.8982 H   0  0  0  0  0  0  0  0  0  0  0  0
   59.7590   31.3380   49.1820 H   0  0  0  0  0  0  0  0  0  0  0  0
   57.8066   30.1368   50.0689 H   0  0  0  0  0  0  0  0  0  0  0  0
   56.3522   29.6857   52.0447 H   0  0  0  0  0  0  0  0  0  0  0  0
   57.9527   33.1800   54.0274 H   0  0  0  0  0  0  0  0  0  0  0  0
   59.4053   33.6422   52.0512 H   0  0  0  0  0  0  0  0  0  0  0  0
   59.9426   35.1707   47.0130 H   0  0  0  0  0  0  0  0  0  0  0  0
   58.5460   34.8948   44.9438 H   0  0  0  0  0  0  0  0  0  0  0  0
   56.7845   33.4778   43.9046 H   0  0  0  0  0  0  0  0  0  0  0  0
   56.8023   28.9616   43.8808 H   0  0  0  0  0  0  0  0  0  0  0  0
   55.6490   29.8469   42.8259 H   0  0  0  0  0  0  0  0  0  0  0  0
   57.3894   30.2918   42.8259 H   0  0  0  0  0  0  0  0  0  0  0  0
   58.8556   29.1057   48.1255 H   0  0  0  0  0  0  0  0  0  0  0  0
   58.8348   27.9692   46.7346 H   0  0  0  0  0  0  0  0  0  0  0  0
   59.9616   29.3682   46.7346 H   0  0  0  0  0  0  0  0  0  0  0  0
   59.8043   31.5490   47.3852 H   0  0  0  0  0  0  0  0  0  0  0  0
   63.0066   32.8298   46.2118 H   0  0  0  0  0  0  0  0  0  0  0  0
   63.3851   34.4703   46.8015 H   0  0  0  0  0  0  0  0  0  0  0  0
  1  2  2  0
  2  3  1  0
  3  4  2  0
  4  5  1  0
  5  6  2  0
  5  7  1  0
  7  8  1  0
  8  9  2  0
  9 10  1  0
 10 11  2  0
 11 12  1  0
 11 13  1  0
 13 14  2  0
  4 15  1  0
 15 16  1  0
 16 17  2  0
 17 18  1  0
 18 19  2  0
 19 20  1  0
 20 21  1  0
 19 22  1  0
 22 23  1  0
 23 24  1  0
 22 25  2  0
 15 26  1  0
 26 27  1  0
 27  3  1  0
 14  8  1  0
 25 16  1  0
  1 28  1  0
  1 29  1  0
  2 30  1  0
  7 31  1  0
  9 32  1  0
 10 33  1  0
 13 34  1  0
 14 35  1  0
 15 36  1  1
 17 37  1  0
 18 38  1  0
 21 39  1  0
 21 40  1  0
 21 41  1  0
 24 42  1  0
 24 43  1  0
 24 44  1  0
 25 45  1  0
 27 46  1  0
 27 47  1  0
M  END
>  <UniqueID>  (9) 
9

>  <SMILES>  (9) 
C=CC1=C(C(=O)Nc2ccc(F)cc2)[C@H](c2ccc(OC)c(OC)c2)OC1

>  <Energy>  (9) 
59.64538379461136

>  <Genealogy>  (9) 
C=CC1=C(C(=O)Nc2ccc(F)cc2)[C@H](c2ccc(OC)c(OC)c2)OC1 (chirality)
C=CC1=C(C(=O)Nc2ccc(F)cc2)[C@H](c2ccc(OC)c(OC)c2)OC1 (3D coordinates assigned)
C=CC1=C(C(=O)Nc2ccc(F)cc2)[C@H](c2ccc(OC)c(OC)c2)OC1 (nonaromatic ring conformer: 59.64538379461136 kcal/mol)

>  <smiles>  (9) 
C=CC1=C(C(=O)Nc2ccc(F)cc2)C(c2ccc(OC)c(OC)c2)OC1

>  <score_type>  (9) 
oracle

>  <origin>  (9) 
adg

>  <m_score__min__energy>  (9) 
-7.8099999999999996

>  <m_primary>  (9) 
energy

$$$$
9:0
     RDKit          3D

 47 51  0  0  0  0  0  0  0  0999 V2000
   66.4870   32.9840   50.3610 C   0  0  0  0  0  0  0  0  0  0  0  0
   65.0170   33.1050   50.0900 C   0  0  0  0  0  0  0  0  0  0  0  0
   64.2160   33.9490   50.8920 C   0  0  0  0  0  0  0  0  0  0  0  0
   62.8490   34.0850   50.6090 C   0  0  0  0  0  0  0  0  0  0  0  0
   62.3400   33.3950   49.5560 N   0  0  0  0  0  0  0  0  0  0  0  0
   61.0930   33.3360   49.0600 C   0  0  0  0  0  0  0  0  0  0  0  0
   59.9320   33.9000   49.6890 N   0  0  0  0  0  0  0  0  0  0  0  0
   59.2090   33.2440   50.7450 C   0  0  0  0  0  0  0  0  0  0  0  0
   59.0590   33.8920   51.9830 C   0  0  0  0  0  0  0  0  0  0  0  0
   58.3490   33.2820   53.0220 C   0  0  0  0  0  0  0  0  0  0  0  0
   57.7730   32.0250   52.8270 C   0  0  0  0  0  0  0  0  0  0  0  0
   57.9270   31.3640   51.6020 C   0  0  0  0  0  0  0  0  0  0  0  0
   58.6240   31.9770   50.5560 C   0  0  0  0  0  0  0  0  0  0  0  0
   57.3760   30.0890   51.4430 O   0  0  0  0  0  0  0  0  0  0  0  0
   56.9100   29.3400   52.5680 C   0  0  0  0  0  0  0  0  0  0  0  0
   56.2140   30.2690   53.5720 C   0  0  0  0  0  0  0  0  0  0  0  0
   57.0340   31.4100   53.8430 O   0  0  0  0  0  0  0  0  0  0  0  0
   61.1130   32.4980   47.9520 C   0  0  0  0  0  0  0  0  0  0  0  0
   59.9640   32.0640   47.1340 C   0  0  0  0  0  0  0  0  0  0  0  0
   59.0480   33.0170   46.6610 C   0  0  0  0  0  0  0  0  0  0  0  0
   57.9500   32.6230   45.8900 C   0  0  0  0  0  0  0  0  0  0  0  0
   57.7480   31.2720   45.5950 C   0  0  0  0  0  0  0  0  0  0  0  0
   56.6520   30.8920   44.8240 O   0  0  0  0  0  0  0  0  0  0  0  0
   58.6460   30.3130   46.0800 C   0  0  0  0  0  0  0  0  0  0  0  0
   59.7460   30.7050   46.8510 C   0  0  0  0  0  0  0  0  0  0  0  0
   62.3710   32.0240   47.7690 N   0  0  0  0  0  0  0  0  0  0  0  0
   63.0810   32.6040   48.7610 C   0  0  0  0  0  0  0  0  0  0  0  0
   64.4430   32.4310   48.9940 C   0  0  0  0  0  0  0  0  0  0  0  0
   66.6596   32.9698   51.4473 H   0  0  0  0  0  0  0  0  0  0  0  0
   66.8661   32.0516   49.9173 H   0  0  0  0  0  0  0  0  0  0  0  0
   67.0135   33.8418   49.9173 H   0  0  0  0  0  0  0  0  0  0  0  0
   64.6627   34.4970   51.7347 H   0  0  0  0  0  0  0  0  0  0  0  0
   62.2067   34.7330   51.2234 H   0  0  0  0  0  0  0  0  0  0  0  0
   59.6050   34.8380   49.3710 H   0  0  0  0  0  0  0  0  0  0  0  0
   59.5034   34.8865   52.1359 H   0  0  0  0  0  0  0  0  0  0  0  0
   58.2445   33.7916   53.9912 H   0  0  0  0  0  0  0  0  0  0  0  0
   58.7154   31.4690   49.5846 H   0  0  0  0  0  0  0  0  0  0  0  0
   56.1969   28.5757   52.2255 H   0  0  0  0  0  0  0  0  0  0  0  0
   57.7686   28.8592   53.0596 H   0  0  0  0  0  0  0  0  0  0  0  0
   55.2540   30.6035   53.1519 H   0  0  0  0  0  0  0  0  0  0  0  0
   56.0437   29.7196   54.5096 H   0  0  0  0  0  0  0  0  0  0  0  0
   59.1951   34.0809   46.8985 H   0  0  0  0  0  0  0  0  0  0  0  0
   57.2436   33.3782   45.5148 H   0  0  0  0  0  0  0  0  0  0  0  0
   55.8320   30.4680   45.2420 H   0  0  0  0  0  0  0  0  0  0  0  0
   58.4861   29.2484   45.8542 H   0  0  0  0  0  0  0  0  0  0  0  0
   60.4427   29.9464   47.2370 H   0  0  0  0  0  0  0  0  0  0  0  0
   65.0522   31.7876   48.3421 H   0  0  0  0  0  0  0  0  0  0  0  0
  1  2  1  0
  2  3  1  0
  3  4  2  0
  4  5  1  0
  5  6  1  0
  6  7  1  0
  7  8  1  0
  8  9  2  0
  9 10  1  0
 10 11  2  0
 11 12  1  0
 12 13  2  0
 12 14  1  0
 14 15  1  0
 15 16  1  0
 16 17  1  0
  6 18  2  0
 18 19  1  0
 19 20  2  0
 20 21  1  0
 21 22  2  0
 22 23  1  0
 22 24  1  0
 24 25  2  0
 18 26  1  0
 26 27  2  0
 27 28  1  0
 28  2  2  0
 27  5  1  0
 13  8  1  0
 25 19  1  0
 17 11  1  0
  1 29  1  0
  1 30  1  0
  1 31  1  0
  3 32  1  0
  4 33  1  0
  7 34  1  0
  9 35  1  0
 10 36  1  0
 13 37  1  0
 15 38  1  0
 15 39  1  0
 16 40  1  0
 16 41  1  0
 20 42  1  0
 21 43  1  0
 23 44  1  0
 24 45  1  0
 25 46  1  0
 28 47  1  0
M  END
>  <UniqueID>  (10) 
10

>  <SMILES>  (10) 
Cc1ccn2c(Nc3ccc4c(c3)OCCO4)c(-c3ccc(O)cc3)nc2c1

>  <Energy>  (10) 
99.25193207980635

>  <Genealogy>  (10) 
Cc1ccn2c(Nc3ccc4c(c3)OCCO4)c(-c3ccc(O)cc3)nc2c1 (3D coordinates assigned)
Cc1ccn2c(Nc3ccc4c(c3)OCCO4)c(-c3ccc(O)cc3)nc2c1 (nonaromatic ring conformer: 99.25193207980635 kcal/mol)

>  <smiles>  (10) 
Cc1ccn2c(Nc3ccc4c(c3)OCCO4)c(-c3ccc(O)cc3)nc2c1

>  <score_type>  (10) 
oracle

>  <origin>  (10) 
adg

>  <m_score__min__energy>  (10) 
-7.6500000000000004

>  <m_primary>  (10) 
energy

$$$$
10:0
     RDKit          3D

 46 49  0  0  0  0  0  0  0  0999 V2000
   55.7850   29.5550   44.9630 O   0  0  0  0  0  0  0  0  0  0  0  0
   56.8970   29.9710   44.0410 S   0  0  0  0  0  0  0  0  0  0  0  0
   56.3070   30.2820   42.6930 O   0  0  0  0  0  0  0  0  0  0  0  0
   57.6630   31.4310   44.6660 C   0  0  0  0  0  0  0  0  0  0  0  0
   57.8010   31.6060   46.0500 C   0  0  0  0  0  0  0  0  0  0  0  0
   58.3950   32.7660   46.5550 C   0  0  0  0  0  0  0  0  0  0  0  0
   58.8490   33.7590   45.6820 C   0  0  0  0  0  0  0  0  0  0  0  0
   59.6570   35.3450   46.3750 Br  0  0  0  0  0  0  0  0  0  0  0  0
   58.7080   33.5910   44.3010 C   0  0  0  0  0  0  0  0  0  0  0  0
   58.1160   32.4310   43.7930 C   0  0  0  0  0  0  0  0  0  0  0  0
   58.1000   28.7030   43.8980 N   0  0  0  0  0  0  0  0  0  0  0  0
   57.7280   27.5080   44.6810 C   0  0  0  0  0  0  0  0  0  0  0  0
   57.8270   27.7390   46.2060 C   0  0  0  0  0  0  0  0  0  0  0  0
   58.7520   28.8420   46.5540 N   0  0  0  0  0  0  0  0  0  0  0  0
   59.1780   28.7640   47.9660 C   0  0  0  0  0  0  0  0  0  0  0  0
   59.6670   30.1050   48.4450 C   0  0  0  0  0  0  0  0  0  0  0  0
   58.8910   30.8740   49.3500 C   0  0  0  0  0  0  0  0  0  0  0  0
   59.3320   32.1420   49.7700 C   0  0  0  0  0  0  0  0  0  0  0  0
   60.5400   32.6100   49.2610 C   0  0  0  0  0  0  0  0  0  0  0  0
   61.2830   31.8830   48.3900 C   0  0  0  0  0  0  0  0  0  0  0  0
   60.8840   30.6250   47.9510 C   0  0  0  0  0  0  0  0  0  0  0  0
   62.4200   32.5920   48.0520 O   0  0  0  0  0  0  0  0  0  0  0  0
   62.3900   33.8410   48.7560 C   0  0  0  0  0  0  0  0  0  0  0  0
   61.1730   33.8110   49.5160 O   0  0  0  0  0  0  0  0  0  0  0  0
   59.9140   28.8530   45.6550 C   0  0  0  0  0  0  0  0  0  0  0  0
   59.4660   29.1920   44.2210 C   0  0  0  0  0  0  0  0  0  0  0  0
   57.4410   30.8287   46.7401 H   0  0  0  0  0  0  0  0  0  0  0  0
   58.5055   32.8979   47.6415 H   0  0  0  0  0  0  0  0  0  0  0  0
   59.0634   34.3727   43.6135 H   0  0  0  0  0  0  0  0  0  0  0  0
   58.0052   32.3022   42.7062 H   0  0  0  0  0  0  0  0  0  0  0  0
   58.0950   28.4210   42.8890 H   0  0  0  0  0  0  0  0  0  0  0  0
   56.6920   27.2335   44.4333 H   0  0  0  0  0  0  0  0  0  0  0  0
   58.4349   26.7067   44.4199 H   0  0  0  0  0  0  0  0  0  0  0  0
   56.8261   27.9832   46.5914 H   0  0  0  0  0  0  0  0  0  0  0  0
   58.2211   26.8171   46.6586 H   0  0  0  0  0  0  0  0  0  0  0  0
   58.3249   28.4479   48.5844 H   0  0  0  0  0  0  0  0  0  0  0  0
   59.9982   28.0359   48.0500 H   0  0  0  0  0  0  0  0  0  0  0  0
   57.9371   30.4757   49.7262 H   0  0  0  0  0  0  0  0  0  0  0  0
   58.7419   32.7436   50.4770 H   0  0  0  0  0  0  0  0  0  0  0  0
   61.4978   30.0521   47.2403 H   0  0  0  0  0  0  0  0  0  0  0  0
   63.2601   33.9296   49.4231 H   0  0  0  0  0  0  0  0  0  0  0  0
   62.4283   34.7015   48.0718 H   0  0  0  0  0  0  0  0  0  0  0  0
   60.6346   29.6091   46.0000 H   0  0  0  0  0  0  0  0  0  0  0  0
   60.3852   27.8591   45.6611 H   0  0  0  0  0  0  0  0  0  0  0  0
   59.4827   30.2852   44.0998 H   0  0  0  0  0  0  0  0  0  0  0  0
   60.1622   28.6868   43.5354 H   0  0  0  0  0  0  0  0  0  0  0  0
  1  2  2  0
  2  3  2  0
  2  4  1  0
  4  5  2  0
  5  6  1  0
  6  7  2  0
  7  8  1  0
  7  9  1  0
  9 10  2  0
  2 11  1  0
 11 12  1  0
 12 13  1  0
 13 14  1  0
 14 15  1  0
 15 16  1  0
 16 17  2  0
 17 18  1  0
 18 19  2  0
 19 20  1  0
 20 21  2  0
 20 22  1  0
 22 23  1  0
 23 24  1  0
 14 25  1  0
 25 26  1  0
 10  4  1  0
 26 11  1  0
 21 16  1  0
 24 19  1  0
  5 27  1  0
  6 28  1  0
  9 29  1  0
 10 30  1  0
 11 31  1  0
 12 32  1  0
 12 33  1  0
 13 34  1  0
 13 35  1  0
 15 36  1  0
 15 37  1  0
 17 38  1  0
 18 39  1  0
 21 40  1  0
 23 41  1  0
 23 42  1  0
 25 43  1  0
 25 44  1  0
 26 45  1  0
 26 46  1  0
M  CHG  1  11   1
M  END
>  <UniqueID>  (11) 
11

>  <SMILES>  (11) 
O=S(=O)(c1ccc(Br)cc1)[NH+]1CCN(Cc2ccc3c(c2)OCO3)CC1

>  <Energy>  (11) 
85.80287722407961

>  <Genealogy>  (11) 
O=S(=O)(c1ccc(Br)cc1)[NH+]1CCN(Cc2ccc3c(c2)OCO3)CC1 (protonated)
O=S(=O)(c1ccc(Br)cc1)[NH+]1CCN(Cc2ccc3c(c2)OCO3)CC1 (3D coordinates assigned)
O=S(=O)(c1ccc(Br)cc1)[NH+]1CCN(Cc2ccc3c(c2)OCO3)CC1 (nonaromatic ring conformer: 85.80287722407961 kcal/mol)

>  <smiles>  (11) 
O=S(=O)(c1ccc(Br)cc1)N1CCN(Cc2ccc3c(c2)OCO3)CC1

>  <score_type>  (11) 
oracle

>  <origin>  (11) 
adg

>  <m_score__min__energy>  (11) 
-7.6500000000000004

>  <m_primary>  (11) 
energy

$$$$
11:0
     RDKit          3D

 36 38  0  0  0  0  0  0  0  0999 V2000
   54.5940   28.1560   54.1160 O   0  0  0  0  0  0  0  0  0  0  0  0
   54.8100   29.1120   53.3220 C   0  0  0  0  0  0  0  0  0  0  0  0
   56.1180   29.4050   52.9350 C   0  0  0  0  0  0  0  0  0  0  0  0
   56.3470   30.4710   52.0530 C   0  0  0  0  0  0  0  0  0  0  0  0
   57.7480   30.8350   51.6420 C   0  0  0  0  0  0  0  0  0  0  0  0
   57.7590   31.9330   50.6610 N   0  0  0  0  0  0  0  0  0  0  0  0
   58.2950   31.5030   49.3590 C   0  0  0  0  0  0  0  0  0  0  0  0
   58.6440   32.7010   48.5080 C   0  0  0  0  0  0  0  0  0  0  0  0
   57.8920   32.9650   47.3500 C   0  0  0  0  0  0  0  0  0  0  0  0
   58.2150   34.0490   46.5290 C   0  0  0  0  0  0  0  0  0  0  0  0
   59.2950   34.8720   46.8480 C   0  0  0  0  0  0  0  0  0  0  0  0
   60.0610   34.6100   47.9860 C   0  0  0  0  0  0  0  0  0  0  0  0
   59.7490   33.5270   48.8160 C   0  0  0  0  0  0  0  0  0  0  0  0
   60.7650   33.2330   50.2250 Cl  0  0  0  0  0  0  0  0  0  0  0  0
   55.3260   31.1920   51.5960 O   0  0  0  0  0  0  0  0  0  0  0  0
   54.0630   30.9490   51.9370 C   0  0  0  0  0  0  0  0  0  0  0  0
   53.0390   31.7480   51.4170 C   0  0  0  0  0  0  0  0  0  0  0  0
   51.7090   31.5030   51.7710 C   0  0  0  0  0  0  0  0  0  0  0  0
   50.6960   32.3000   51.2520 O   0  0  0  0  0  0  0  0  0  0  0  0
   51.3970   30.4580   52.6460 C   0  0  0  0  0  0  0  0  0  0  0  0
   52.4110   29.6520   53.1720 C   0  0  0  0  0  0  0  0  0  0  0  0
   53.7530   29.8910   52.8220 C   0  0  0  0  0  0  0  0  0  0  0  0
   56.9589   28.8075   53.3168 H   0  0  0  0  0  0  0  0  0  0  0  0
   58.3114   31.1477   52.5336 H   0  0  0  0  0  0  0  0  0  0  0  0
   58.2088   29.9524   51.1745 H   0  0  0  0  0  0  0  0  0  0  0  0
   56.7890   32.3140   50.5490 H   0  0  0  0  0  0  0  0  0  0  0  0
   58.3670   32.7000   51.0360 H   0  0  0  0  0  0  0  0  0  0  0  0
   59.1997   30.8989   49.5218 H   0  0  0  0  0  0  0  0  0  0  0  0
   57.5299   30.9081   48.8386 H   0  0  0  0  0  0  0  0  0  0  0  0
   57.0443   32.3146   47.0885 H   0  0  0  0  0  0  0  0  0  0  0  0
   57.6161   34.2536   45.6293 H   0  0  0  0  0  0  0  0  0  0  0  0
   59.5435   35.7277   46.2030 H   0  0  0  0  0  0  0  0  0  0  0  0
   60.9147   35.2587   48.2315 H   0  0  0  0  0  0  0  0  0  0  0  0
   53.2809   32.5707   50.7281 H   0  0  0  0  0  0  0  0  0  0  0  0
   50.3490   30.2692   52.9218 H   0  0  0  0  0  0  0  0  0  0  0  0
   52.1599   28.8309   53.8595 H   0  0  0  0  0  0  0  0  0  0  0  0
  1  2  2  0
  2  3  1  0
  3  4  2  0
  4  5  1  0
  5  6  1  0
  6  7  1  0
  7  8  1  0
  8  9  2  0
  9 10  1  0
 10 11  2  0
 11 12  1  0
 12 13  2  0
 13 14  1  0
  4 15  1  0
 15 16  1  0
 16 17  2  0
 17 18  1  0
 18 19  1  0
 18 20  2  0
 20 21  1  0
 21 22  2  0
 22  2  1  0
 13  8  1  0
 22 16  1  0
  3 23  1  0
  5 24  1  0
  5 25  1  0
  6 26  1  0
  6 27  1  0
  7 28  1  0
  7 29  1  0
  9 30  1  0
 10 31  1  0
 11 32  1  0
 12 33  1  0
 17 34  1  0
 20 35  1  0
 21 36  1  0
M  CHG  2   6   1  19  -1
M  END
>  <UniqueID>  (12) 
12

>  <SMILES>  (12) 
O=c1cc(C[NH2+]Cc2ccccc2Cl)oc2cc([O-])ccc12

>  <Energy>  (12) 
43.06001600151371

>  <Genealogy>  (12) 
O=c1cc(C[NH2+]Cc2ccccc2Cl)oc2cc([O-])ccc12 (protonated)
O=c1cc(C[NH2+]Cc2ccccc2Cl)oc2cc([O-])ccc12 (3D coordinates assigned)
O=c1cc(C[NH2+]Cc2ccccc2Cl)oc2cc([O-])ccc12 (optimized conformer: 43.06001600151371 kcal/mol)

>  <smiles>  (12) 
O=c1cc(CNCc2ccccc2Cl)oc2cc(O)ccc12

>  <score_type>  (12) 
oracle

>  <origin>  (12) 
adg

>  <m_score__min__energy>  (12) 
-9.8000000000000007

>  <m_primary>  (12) 
energy

$$$$
12:0
     RDKit          3D

 41 43  0  0  1  0  0  0  0  0999 V2000
   57.3650   27.8100   45.2080 N   0  0  0  0  0  0  0  0  0  0  0  0
   57.9730   28.9400   45.3060 C   0  0  0  0  0  0  0  0  0  0  0  0
   59.1170   28.9770   45.9820 N   0  0  0  0  0  0  0  0  0  0  0  0
   59.7560   30.1380   46.0910 C   0  0  0  0  0  0  0  0  0  0  0  0
   60.8770   30.1320   46.7540 N   0  0  0  0  0  0  0  0  0  0  0  0
   60.9080   30.7300   48.0730 C   0  0  0  0  0  0  0  0  0  0  0  0
   61.8940   31.8290   48.1690 C   0  0  0  0  0  0  0  0  0  0  0  0
   61.9970   32.6750   49.2560 C   0  0  0  0  0  0  0  0  0  0  0  0
   62.9320   33.6990   49.3230 C   0  0  0  0  0  0  0  0  0  0  0  0
   63.7750   33.8450   48.2410 C   0  0  0  0  0  0  0  0  0  0  0  0
   63.7240   33.0460   47.1420 C   0  0  0  0  0  0  0  0  0  0  0  0
   62.7670   32.0320   47.1230 C   0  0  0  0  0  0  0  0  0  0  0  0
   59.2750   31.2580   45.5410 N   0  0  0  0  0  0  0  0  0  0  0  0
   58.1010   31.3020   44.8290 C   0  0  0  0  0  0  0  0  0  0  0  0
   57.7160   32.5190   44.2810 N   0  0  0  0  0  0  0  0  0  0  0  0
   57.5190   33.7970   44.8550 C   0  0  0  0  0  0  0  0  0  0  0  0
   58.6730   34.1160   45.7530 C   0  0  0  0  0  0  0  0  0  0  0  0
   58.5200   34.3030   47.1400 C   0  0  0  0  0  0  0  0  0  0  0  0
   59.7750   34.5800   47.6680 C   0  0  0  0  0  0  0  0  0  0  0  0
   60.6100   34.5410   46.5530 C   0  0  0  0  0  0  0  0  0  0  0  0
   59.9240   34.2740   45.5060 O   0  0  0  0  0  0  0  0  0  0  0  0
   57.4500   30.0990   44.7190 C   0  0  0  0  0  0  0  0  0  0  0  0
   56.2540   29.9000   43.9820 N   0  0  0  0  0  0  0  0  0  0  0  0
   56.1700   30.2620   42.7620 O   0  0  0  0  0  0  0  0  0  0  0  0
   55.1320   29.2880   44.4750 O   0  0  0  0  0  0  0  0  0  0  0  0
   56.6100   27.6970   44.5130 H   0  0  0  0  0  0  0  0  0  0  0  0
   59.4990   28.1070   46.4150 H   0  0  0  0  0  0  0  0  0  0  0  0
   59.9095   31.1297   48.3036 H   0  0  0  0  0  0  0  0  0  0  0  0
   61.2039   29.9493   48.7892 H   0  0  0  0  0  0  0  0  0  0  0  0
   61.3102   32.5315   50.1031 H   0  0  0  0  0  0  0  0  0  0  0  0
   62.9975   34.3627   50.1978 H   0  0  0  0  0  0  0  0  0  0  0  0
   64.5262   34.6481   48.2686 H   0  0  0  0  0  0  0  0  0  0  0  0
   64.4133   33.1943   46.2977 H   0  0  0  0  0  0  0  0  0  0  0  0
   62.7073   31.3729   46.2443 H   0  0  0  0  0  0  0  0  0  0  0  0
   59.8510   32.1270   45.6840 H   0  0  0  0  0  0  0  0  0  0  0  0
   57.5180   32.4810   43.2070 H   0  0  0  0  0  0  0  0  0  0  0  0
   57.4533   34.5522   44.0579 H   0  0  0  0  0  0  0  0  0  0  0  0
   56.5856   33.8010   45.4370 H   0  0  0  0  0  0  0  0  0  0  0  0
   57.5774   34.2410   47.7037 H   0  0  0  0  0  0  0  0  0  0  0  0
   60.0448   34.7817   48.7151 H   0  0  0  0  0  0  0  0  0  0  0  0
   61.6962   34.7138   46.5702 H   0  0  0  0  0  0  0  0  0  0  0  0
  1  2  2  3
  2  3  1  0
  3  4  1  0
  4  5  2  0
  5  6  1  0
  6  7  1  0
  7  8  2  0
  8  9  1  0
  9 10  2  0
 10 11  1  0
 11 12  2  0
  4 13  1  0
 13 14  1  0
 14 15  1  0
 15 16  1  0
 16 17  1  0
 17 18  2  0
 18 19  1  0
 19 20  2  0
 20 21  1  0
 14 22  2  0
 22 23  1  0
 23 24  2  0
 23 25  1  0
 22  2  1  0
 12  7  1  0
 21 17  1  0
  1 26  1  0
  3 27  1  0
  6 28  1  0
  6 29  1  0
  8 30  1  0
  9 31  1  0
 10 32  1  0
 11 33  1  0
 12 34  1  0
 13 35  1  0
 15 36  1  0
 16 37  1  0
 16 38  1  0
 18 39  1  0
 19 40  1  0
 20 41  1  0
M  CHG  2  23   1  25  -1
M  END
>  <smiles>  (13) 
N=c1[nH]c(=NCc2ccccc2)[nH]c(NCc2ccco2)c1[N+](=O)[O-]

>  <score_type>  (13) 
oracle

>  <origin>  (13) 
adg

>  <m_score__min__energy>  (13) 
-7.7800000000000002

>  <m_primary>  (13) 
energy

$$$$
13:0
     RDKit          3D

 60 61  0  0  0  0  0  0  0  0999 V2000
   60.6320   28.5860   45.1510 C   0  0  0  0  0  0  0  0  0  0  0  0
   59.9100   28.3840   46.2560 C   0  0  0  0  0  0  0  0  0  0  0  0
   58.4340   28.6730   46.2970 C   0  0  0  0  0  0  0  0  0  0  0  0
   57.9990   29.5360   45.1320 C   0  0  0  0  0  0  0  0  0  0  0  0
   57.1540   28.9780   44.1570 C   0  0  0  0  0  0  0  0  0  0  0  0
   56.6580   29.7600   43.1140 C   0  0  0  0  0  0  0  0  0  0  0  0
   56.9750   31.1140   43.0430 C   0  0  0  0  0  0  0  0  0  0  0  0
   57.8040   31.7020   44.0080 C   0  0  0  0  0  0  0  0  0  0  0  0
   58.1230   33.1680   43.9000 C   0  0  0  0  0  0  0  0  0  0  0  0
   58.3700   30.9020   45.0240 C   0  0  0  0  0  0  0  0  0  0  0  0
   59.2470   31.4860   45.9480 O   0  0  0  0  0  0  0  0  0  0  0  0
   58.8980   31.7730   47.3040 C   0  0  0  0  0  0  0  0  0  0  0  0
   57.7830   32.8240   47.3900 C   0  0  0  0  0  0  0  0  0  0  0  0
   58.2760   34.2270   46.9950 C   0  0  0  0  0  0  0  0  0  0  0  0
   59.6880   34.5270   47.5190 C   0  0  0  0  0  0  0  0  0  0  0  0
   60.7370   34.5820   46.3980 C   0  0  0  0  0  0  0  0  0  0  0  0
   61.6060   33.3180   46.3960 C   0  0  0  0  0  0  0  0  0  0  0  0
   63.0660   33.6550   46.7790 C   0  0  0  0  0  0  0  0  0  0  0  0
   63.5770   32.9340   47.9740 N   0  0  0  0  0  0  0  0  0  0  0  0
   63.8070   33.8270   49.1320 C   0  0  0  0  0  0  0  0  0  0  0  0
   64.6200   33.1140   50.2320 C   0  0  0  0  0  0  0  0  0  0  0  0
   64.3740   31.5960   50.2600 C   0  0  0  0  0  0  0  0  0  0  0  0
   62.9680   31.2510   49.7650 C   0  0  0  0  0  0  0  0  0  0  0  0
   62.7280   31.7640   48.3270 C   0  0  0  0  0  0  0  0  0  0  0  0
   61.7097   28.3657   45.1503 H   0  0  0  0  0  0  0  0  0  0  0  0
   60.1490   28.9727   44.2415 H   0  0  0  0  0  0  0  0  0  0  0  0
   60.4064   27.9969   47.1581 H   0  0  0  0  0  0  0  0  0  0  0  0
   57.8834   27.7214   46.2606 H   0  0  0  0  0  0  0  0  0  0  0  0
   58.2176   29.2188   47.2272 H   0  0  0  0  0  0  0  0  0  0  0  0
   56.8812   27.9141   44.2172 H   0  0  0  0  0  0  0  0  0  0  0  0
   56.0149   29.3060   42.3457 H   0  0  0  0  0  0  0  0  0  0  0  0
   56.5717   31.7268   42.2233 H   0  0  0  0  0  0  0  0  0  0  0  0
   58.2166   33.5981   44.9081 H   0  0  0  0  0  0  0  0  0  0  0  0
   59.0705   33.2980   43.3565 H   0  0  0  0  0  0  0  0  0  0  0  0
   57.3152   33.6799   43.3565 H   0  0  0  0  0  0  0  0  0  0  0  0
   58.5538   30.8470   47.7877 H   0  0  0  0  0  0  0  0  0  0  0  0
   59.7882   32.1735   47.8110 H   0  0  0  0  0  0  0  0  0  0  0  0
   56.9671   32.5314   46.7127 H   0  0  0  0  0  0  0  0  0  0  0  0
   57.4397   32.8679   48.4341 H   0  0  0  0  0  0  0  0  0  0  0  0
   58.2845   34.3012   45.8975 H   0  0  0  0  0  0  0  0  0  0  0  0
   57.5909   34.9598   47.4463 H   0  0  0  0  0  0  0  0  0  0  0  0
   59.6729   35.4984   48.0349 H   0  0  0  0  0  0  0  0  0  0  0  0
   59.9707   33.7098   48.1989 H   0  0  0  0  0  0  0  0  0  0  0  0
   60.2237   34.6672   45.4288 H   0  0  0  0  0  0  0  0  0  0  0  0
   61.3863   35.4535   46.5680 H   0  0  0  0  0  0  0  0  0  0  0  0
   61.1991   32.5994   47.1227 H   0  0  0  0  0  0  0  0  0  0  0  0
   61.5975   32.8858   45.3845 H   0  0  0  0  0  0  0  0  0  0  0  0
   63.7113   33.4026   45.9247 H   0  0  0  0  0  0  0  0  0  0  0  0
   63.0816   34.7254   47.0319 H   0  0  0  0  0  0  0  0  0  0  0  0
   64.5130   32.5560   47.6880 H   0  0  0  0  0  0  0  0  0  0  0  0
   64.3607   34.7159   48.7955 H   0  0  0  0  0  0  0  0  0  0  0  0
   62.8310   34.1141   49.5503 H   0  0  0  0  0  0  0  0  0  0  0  0
   65.6901   33.2941   50.0518 H   0  0  0  0  0  0  0  0  0  0  0  0
   64.2974   33.5215   51.2015 H   0  0  0  0  0  0  0  0  0  0  0  0
   65.1131   31.1013   49.6127 H   0  0  0  0  0  0  0  0  0  0  0  0
   64.4713   31.2478   51.2989 H   0  0  0  0  0  0  0  0  0  0  0  0
   62.8428   30.1582   49.7795 H   0  0  0  0  0  0  0  0  0  0  0  0
   62.2403   31.7392   50.4299 H   0  0  0  0  0  0  0  0  0  0  0  0
   62.9473   30.9476   47.6232 H   0  0  0  0  0  0  0  0  0  0  0  0
   61.6793   32.0903   48.2665 H   0  0  0  0  0  0  0  0  0  0  0  0
  1  2  2  0
  2  3  1  0
  3  4  1  0
  4  5  2  0
  5  6  1  0
  6  7  2  0
  7  8  1  0
  8  9  1  0
  8 10  2  0
 10 11  1  0
 11 12  1  0
 12 13  1  0
 13 14  1  0
 14 15  1  0
 15 16  1  0
 16 17  1  0
 17 18  1  0
 18 19  1  0
 19 20  1  0
 20 21  1  0
 21 22  1  0
 22 23  1  0
 23 24  1  0
 10  4  1  0
 24 19  1  0
  1 25  1  0
  1 26  1  0
  2 27  1  0
  3 28  1  0
  3 29  1  0
  5 30  1  0
  6 31  1  0
  7 32  1  0
  9 33  1  0
  9 34  1  0
  9 35  1  0
 12 36  1  0
 12 37  1  0
 13 38  1  0
 13 39  1  0
 14 40  1  0
 14 41  1  0
 15 42  1  0
 15 43  1  0
 16 44  1  0
 16 45  1  0
 17 46  1  0
 17 47  1  0
 18 48  1  0
 18 49  1  0
 19 50  1  0
 20 51  1  0
 20 52  1  0
 21 53  1  0
 21 54  1  0
 22 55  1  0
 22 56  1  0
 23 57  1  0
 23 58  1  0
 24 59  1  0
 24 60  1  0
M  CHG  1  19   1
M  END
>  <UniqueID>  (14) 
13

>  <SMILES>  (14) 
C=CCc1cccc(C)c1OCCCCCCC[NH+]1CCCCC1

>  <Energy>  (14) 
61.51140406966023

>  <Genealogy>  (14) 
C=CCc1cccc(C)c1OCCCCCCC[NH+]1CCCCC1 (protonated)
C=CCc1cccc(C)c1OCCCCCCC[NH+]1CCCCC1 (3D coordinates assigned)
C=CCc1cccc(C)c1OCCCCCCC[NH+]1CCCCC1 (nonaromatic ring conformer: 61.51140406966023 kcal/mol)

>  <smiles>  (14) 
C=CCc1cccc(C)c1OCCCCCCCN1CCCCC1

>  <score_type>  (14) 
oracle

>  <origin>  (14) 
adg

>  <m_score__min__energy>  (14) 
-5.9299999999999997

>  <m_primary>  (14) 
energy

$$$$
14:0
     RDKit          3D

 32 34  0  0  0  0  0  0  0  0999 V2000
   59.2230   24.4240   45.8930 C   0  0  0  0  0  0  0  0  0  0  0  0
   58.5170   25.7460   45.7550 C   0  0  0  0  0  0  0  0  0  0  0  0
   59.2490   26.8980   45.4260 C   0  0  0  0  0  0  0  0  0  0  0  0
   58.6070   28.1320   45.2940 C   0  0  0  0  0  0  0  0  0  0  0  0
   57.2200   28.2370   45.4980 C   0  0  0  0  0  0  0  0  0  0  0  0
   56.5350   29.4930   45.3470 N   0  0  0  0  0  0  0  0  0  0  0  0
   56.9090   30.4990   44.3880 C   0  0  0  0  0  0  0  0  0  0  0  0
   56.6840   30.2780   43.0200 C   0  0  0  0  0  0  0  0  0  0  0  0
   57.0790   31.1930   42.0980 N   0  0  0  0  0  0  0  0  0  0  0  0
   57.7060   32.3450   42.4510 C   0  0  0  0  0  0  0  0  0  0  0  0
   57.9660   32.6190   43.8000 C   0  0  0  0  0  0  0  0  0  0  0  0
   58.6130   33.8060   44.1740 C   0  0  0  0  0  0  0  0  0  0  0  0
   58.8580   34.0760   45.5220 C   0  0  0  0  0  0  0  0  0  0  0  0
   58.4550   33.1680   46.5020 C   0  0  0  0  0  0  0  0  0  0  0  0
   57.8100   31.9810   46.1430 C   0  0  0  0  0  0  0  0  0  0  0  0
   57.5650   31.6850   44.7870 C   0  0  0  0  0  0  0  0  0  0  0  0
   56.4870   27.0830   45.8070 C   0  0  0  0  0  0  0  0  0  0  0  0
   57.1250   25.8450   45.9410 C   0  0  0  0  0  0  0  0  0  0  0  0
   56.1490   24.4340   46.3420 Cl  0  0  0  0  0  0  0  0  0  0  0  0
   59.3502   24.1858   46.9593 H   0  0  0  0  0  0  0  0  0  0  0  0
   58.6251   23.6369   45.4103 H   0  0  0  0  0  0  0  0  0  0  0  0
   60.2096   24.4831   45.4103 H   0  0  0  0  0  0  0  0  0  0  0  0
   60.3358   26.8286   45.2710 H   0  0  0  0  0  0  0  0  0  0  0  0
   59.1901   29.0263   45.0290 H   0  0  0  0  0  0  0  0  0  0  0  0
   55.7590   29.7160   46.0110 H   0  0  0  0  0  0  0  0  0  0  0  0
   56.1831   29.3552   42.6922 H   0  0  0  0  0  0  0  0  0  0  0  0
   58.0102   33.0641   41.6762 H   0  0  0  0  0  0  0  0  0  0  0  0
   58.9280   34.5256   43.4040 H   0  0  0  0  0  0  0  0  0  0  0  0
   59.3694   35.0058   45.8118 H   0  0  0  0  0  0  0  0  0  0  0  0
   58.6459   33.3875   47.5628 H   0  0  0  0  0  0  0  0  0  0  0  0
   57.4918   31.2739   46.9232 H   0  0  0  0  0  0  0  0  0  0  0  0
   55.3979   27.1514   45.9457 H   0  0  0  0  0  0  0  0  0  0  0  0
  1  2  1  0
  2  3  2  0
  3  4  1  0
  4  5  2  0
  5  6  1  0
  6  7  1  0
  7  8  2  0
  8  9  1  0
  9 10  2  0
 10 11  1  0
 11 12  2  0
 12 13  1  0
 13 14  2  0
 14 15  1  0
 15 16  2  0
  5 17  1  0
 17 18  2  0
 18 19  1  0
 18  2  1  0
 16  7  1  0
 16 11  1  0
  1 20  1  0
  1 21  1  0
  1 22  1  0
  3 23  1  0
  4 24  1  0
  6 25  1  0
  8 26  1  0
 10 27  1  0
 12 28  1  0
 13 29  1  0
 14 30  1  0
 15 31  1  0
 17 32  1  0
M  END
>  <UniqueID>  (15) 
14

>  <SMILES>  (15) 
Cc1ccc(Nc2cncc3ccccc23)cc1Cl

>  <Energy>  (15) 
46.35531280081622

>  <Genealogy>  (15) 
Cc1ccc(Nc2cncc3ccccc23)cc1Cl (3D coordinates assigned)
Cc1ccc(Nc2cncc3ccccc23)cc1Cl (optimized conformer: 46.35531280081622 kcal/mol)

>  <smiles>  (15) 
Cc1ccc(Nc2cncc3ccccc23)cc1Cl

>  <score_type>  (15) 
oracle

>  <origin>  (15) 
adg

>  <m_score__min__energy>  (15) 
-7.3300000000000001

>  <m_primary>  (15) 
energy

$$$$
15:0
     RDKit          3D

 57 61  0  0  0  0  0  0  0  0999 V2000
   62.1720   28.2680   51.6110 C   0  0  0  0  0  0  0  0  0  0  0  0
   60.8720   28.1020   51.0620 O   0  0  0  0  0  0  0  0  0  0  0  0
   60.5840   28.0590   49.6870 C   0  0  0  0  0  0  0  0  0  0  0  0
   60.2690   26.8540   49.0320 C   0  0  0  0  0  0  0  0  0  0  0  0
   59.8950   26.8500   47.6750 C   0  0  0  0  0  0  0  0  0  0  0  0
   59.5560   25.6380   46.9900 N   0  0  0  0  0  0  0  0  0  0  0  0
   58.0560   25.3640   46.1670 S   0  0  0  0  0  0  0  0  0  0  0  0
   58.0610   23.9990   45.5320 O   0  0  0  0  0  0  0  0  0  0  0  0
   56.9340   25.4270   47.1650 O   0  0  0  0  0  0  0  0  0  0  0  0
   57.8220   26.6410   44.9750 C   0  0  0  0  0  0  0  0  0  0  0  0
   58.1280   26.3800   43.6330 C   0  0  0  0  0  0  0  0  0  0  0  0
   57.9150   27.3570   42.6600 C   0  0  0  0  0  0  0  0  0  0  0  0
   57.3820   28.5990   43.0170 C   0  0  0  0  0  0  0  0  0  0  0  0
   57.0590   28.8820   44.3570 C   0  0  0  0  0  0  0  0  0  0  0  0
   56.4930   30.1570   44.7080 N   0  0  0  0  0  0  0  0  0  0  0  0
   55.2830   30.4090   44.5050 O   0  0  0  0  0  0  0  0  0  0  0  0
   57.2870   31.1370   45.2560 O   0  0  0  0  0  0  0  0  0  0  0  0
   57.2880   27.8950   45.3370 C   0  0  0  0  0  0  0  0  0  0  0  0
   59.8350   28.0580   46.9750 C   0  0  0  0  0  0  0  0  0  0  0  0
   60.1860   29.2540   47.6040 C   0  0  0  0  0  0  0  0  0  0  0  0
   60.5910   29.2610   48.9460 C   0  0  0  0  0  0  0  0  0  0  0  0
   60.8700   30.5220   49.5740 N   0  0  0  0  0  0  0  0  0  0  0  0
   61.3530   31.6380   49.0800 C   0  0  0  0  0  0  0  0  0  0  0  0
   62.6850   31.9760   49.4180 C   0  0  0  0  0  0  0  0  0  0  0  0
   63.3940   31.2880   50.4310 C   0  0  0  0  0  0  0  0  0  0  0  0
   64.7270   31.6010   50.7060 C   0  0  0  0  0  0  0  0  0  0  0  0
   65.3800   32.5880   49.9700 C   0  0  0  0  0  0  0  0  0  0  0  0
   64.7010   33.2750   48.9600 C   0  0  0  0  0  0  0  0  0  0  0  0
   63.3530   32.9840   48.6820 C   0  0  0  0  0  0  0  0  0  0  0  0
   62.7040   33.6510   47.6880 N   0  0  0  0  0  0  0  0  0  0  0  0
   61.3820   33.4480   47.4300 C   0  0  0  0  0  0  0  0  0  0  0  0
   60.7400   34.2240   46.4510 C   0  0  0  0  0  0  0  0  0  0  0  0
   59.3570   34.1180   46.2380 C   0  0  0  0  0  0  0  0  0  0  0  0
   58.7130   34.9230   45.2290 N   0  0  0  0  0  0  0  0  0  0  0  0
   57.6220   34.5730   44.7420 O   0  0  0  0  0  0  0  0  0  0  0  0
   59.3540   36.0180   44.6930 O   0  0  0  0  0  0  0  0  0  0  0  0
   58.6110   33.2500   47.0460 C   0  0  0  0  0  0  0  0  0  0  0  0
   59.2430   32.4590   48.0120 C   0  0  0  0  0  0  0  0  0  0  0  0
   60.6490   32.4780   48.1640 C   0  0  0  0  0  0  0  0  0  0  0  0
   62.1100   28.2601   52.7092 H   0  0  0  0  0  0  0  0  0  0  0  0
   62.8200   27.4453   51.2744 H   0  0  0  0  0  0  0  0  0  0  0  0
   62.5924   29.2271   51.2744 H   0  0  0  0  0  0  0  0  0  0  0  0
   60.3155   25.9051   49.5864 H   0  0  0  0  0  0  0  0  0  0  0  0
   58.5379   25.4006   43.3452 H   0  0  0  0  0  0  0  0  0  0  0  0
   58.1671   27.1495   41.6096 H   0  0  0  0  0  0  0  0  0  0  0  0
   57.2135   29.3623   42.2431 H   0  0  0  0  0  0  0  0  0  0  0  0
   57.0488   28.1041   46.3901 H   0  0  0  0  0  0  0  0  0  0  0  0
   59.5099   28.0666   45.9242 H   0  0  0  0  0  0  0  0  0  0  0  0
   60.1444   30.1986   47.0419 H   0  0  0  0  0  0  0  0  0  0  0  0
   62.8901   30.4985   51.0078 H   0  0  0  0  0  0  0  0  0  0  0  0
   65.2625   31.0675   51.5051 H   0  0  0  0  0  0  0  0  0  0  0  0
   66.4321   32.8268   50.1845 H   0  0  0  0  0  0  0  0  0  0  0  0
   65.2241   34.0485   48.3785 H   0  0  0  0  0  0  0  0  0  0  0  0
   63.2240   34.3720   47.1340 H   0  0  0  0  0  0  0  0  0  0  0  0
   61.3299   34.9251   45.8423 H   0  0  0  0  0  0  0  0  0  0  0  0
   57.5199   33.1898   46.9201 H   0  0  0  0  0  0  0  0  0  0  0  0
   58.6368   31.8123   48.6633 H   0  0  0  0  0  0  0  0  0  0  0  0
  1  2  1  0
  2  3  1  0
  3  4  2  0
  4  5  1  0
  5  6  1  0
  6  7  1  0
  7  8  2  0
  7  9  2  0
  7 10  1  0
 10 11  2  0
 11 12  1  0
 12 13  2  0
 13 14  1  0
 14 15  1  0
 15 16  2  0
 15 17  1  0
 14 18  2  0
  5 19  2  0
 19 20  1  0
 20 21  2  0
 21 22  1  0
 22 23  2  3
 23 24  1  0
 24 25  2  0
 25 26  1  0
 26 27  2  0
 27 28  1  0
 28 29  2  0
 29 30  1  0
 30 31  1  0
 31 32  2  0
 32 33  1  0
 33 34  1  0
 34 35  2  0
 34 36  1  0
 33 37  2  0
 37 38  1  0
 38 39  2  0
 21  3  1  0
 39 23  1  0
 18 10  1  0
 29 24  1  0
 39 31  1  0
  1 40  1  0
  1 41  1  0
  1 42  1  0
  4 43  1  0
 11 44  1  0
 12 45  1  0
 13 46  1  0
 18 47  1  0
 19 48  1  0
 20 49  1  0
 25 50  1  0
 26 51  1  0
 27 52  1  0
 28 53  1  0
 30 54  1  0
 32 55  1  0
 37 56  1  0
 38 57  1  0
M  CHG  5   6  -1  15   1  17  -1  34   1  36  -1
M  END
>  <UniqueID>  (16) 
15

>  <SMILES>  (16) 
COc1cc([N-]S(=O)(=O)c2cccc([N+](=O)[O-])c2)ccc1N=c1c2ccccc2[nH]c2cc([N+](=O)[O-])ccc12

>  <Energy>  (16) 
96.77599575305425

>  <Genealogy>  (16) 
COc1cc([N-]S(=O)(=O)c2cccc([N+](=O)[O-])c2)ccc1N=c1c2ccccc2[nH]c2cc([N+](=O)[O-])ccc12 (protonated)
COc1cc([N-]S(=O)(=O)c2cccc([N+](=O)[O-])c2)ccc1N=c1c2ccccc2[nH]c2cc([N+](=O)[O-])ccc12 (3D coordinates assigned)
COc1cc([N-]S(=O)(=O)c2cccc([N+](=O)[O-])c2)ccc1N=c1c2ccccc2[nH]c2cc([N+](=O)[O-])ccc12 (optimized conformer: 96.77599575305425 kcal/mol)

>  <smiles>  (16) 
COc1cc(NS(=O)(=O)c2cccc([N+](=O)[O-])c2)ccc1N=c1c2ccccc2[nH]c2cc([N+](=O)[O-])ccc12

>  <score_type>  (16) 
oracle

>  <origin>  (16) 
adg

>  <m_score__min__energy>  (16) 
-11.81

>  <m_primary>  (16) 
energy

$$$$
16:0
     RDKit          3D

 58 61  0  0  1  0  0  0  0  0999 V2000
   56.1360   25.5350   45.6970 C   0  0  0  0  0  0  0  0  0  0  0  0
   56.1060   26.9560   45.6120 O   0  0  0  0  0  0  0  0  0  0  0  0
   57.1430   27.7390   46.1050 C   0  0  0  0  0  0  0  0  0  0  0  0
   57.9290   27.2730   47.1380 C   0  0  0  0  0  0  0  0  0  0  0  0
   58.9510   28.0720   47.6070 C   0  0  0  0  0  0  0  0  0  0  0  0
   59.2240   29.3290   47.0840 C   0  0  0  0  0  0  0  0  0  0  0  0
   60.3170   30.1360   47.6160 C   0  0  0  0  0  0  0  0  0  0  0  0
   60.8350   29.8120   48.8140 N   0  0  0  0  0  0  0  0  0  0  0  0
   61.8440   30.5200   49.3540 C   0  0  0  0  0  0  0  0  0  0  0  0
   62.3120   30.1910   50.4880 N   0  0  0  0  0  0  0  0  0  0  0  0
   61.5170   30.1740   51.7230 C   0  0  0  0  0  0  0  0  0  0  0  0
   60.1440   29.5950   51.4120 C   0  0  0  0  0  0  0  0  0  0  0  0
   59.2060   30.6920   50.9900 C   0  0  0  0  0  0  0  0  0  0  0  0
   57.9600   30.5130   50.9840 O   0  0  0  0  0  0  0  0  0  0  0  0
   59.8190   31.9220   50.6060 N   0  0  0  0  0  0  0  0  0  0  0  0
   58.9790   33.0080   50.1950 C   0  0  0  0  0  0  0  0  0  0  0  0
   59.6730   34.0590   49.3740 C   0  0  0  0  0  0  0  0  0  0  0  0
   59.1710   33.9830   47.9560 C   0  0  0  0  0  0  0  0  0  0  0  0
   58.2320   33.0510   47.5700 C   0  0  0  0  0  0  0  0  0  0  0  0
   57.8280   33.0570   46.2320 C   0  0  0  0  0  0  0  0  0  0  0  0
   58.3570   33.9770   45.3290 C   0  0  0  0  0  0  0  0  0  0  0  0
   59.3020   34.9090   45.7360 C   0  0  0  0  0  0  0  0  0  0  0  0
   59.6950   34.8950   47.0570 C   0  0  0  0  0  0  0  0  0  0  0  0
   62.3950   31.6160   48.6980 C   0  0  0  0  0  0  0  0  0  0  0  0
   63.4350   32.3490   49.2480 C   0  0  0  0  0  0  0  0  0  0  0  0
   63.9210   33.4250   48.5210 C   0  0  0  0  0  0  0  0  0  0  0  0
   63.3960   33.7680   47.2860 C   0  0  0  0  0  0  0  0  0  0  0  0
   62.3540   33.0070   46.7710 C   0  0  0  0  0  0  0  0  0  0  0  0
   61.8560   31.9320   47.4760 C   0  0  0  0  0  0  0  0  0  0  0  0
   60.8420   31.1920   46.9720 N   0  0  0  0  0  0  0  0  0  0  0  0
   58.4110   29.7500   46.0540 C   0  0  0  0  0  0  0  0  0  0  0  0
   57.3730   28.9800   45.5510 C   0  0  0  0  0  0  0  0  0  0  0  0
   56.1424   25.2310   46.7541 H   0  0  0  0  0  0  0  0  0  0  0  0
   55.2464   25.1192   45.2013 H   0  0  0  0  0  0  0  0  0  0  0  0
   57.0423   25.1571   45.2013 H   0  0  0  0  0  0  0  0  0  0  0  0
   57.7444   26.2826   47.5797 H   0  0  0  0  0  0  0  0  0  0  0  0
   59.5765   27.6973   48.4306 H   0  0  0  0  0  0  0  0  0  0  0  0
   62.0191   29.5510   52.4778 H   0  0  0  0  0  0  0  0  0  0  0  0
   61.4124   31.1963   52.1153 H   0  0  0  0  0  0  0  0  0  0  0  0
   60.2344   28.8602   50.5984 H   0  0  0  0  0  0  0  0  0  0  0  0
   59.7457   29.1067   52.3136 H   0  0  0  0  0  0  0  0  0  0  0  0
   60.8760   32.0230   50.6290 H   0  0  0  0  0  0  0  0  0  0  0  0
   58.1527   32.5957   49.5973 H   0  0  0  0  0  0  0  0  0  0  0  0
   58.6389   33.5051   51.1154 H   0  0  0  0  0  0  0  0  0  0  0  0
   59.4563   35.0543   49.7893 H   0  0  0  0  0  0  0  0  0  0  0  0
   60.7596   33.8889   49.3936 H   0  0  0  0  0  0  0  0  0  0  0  0
   57.8159   32.3292   48.2883 H   0  0  0  0  0  0  0  0  0  0  0  0
   57.0823   32.3255   45.8871 H   0  0  0  0  0  0  0  0  0  0  0  0
   58.0219   33.9647   44.2814 H   0  0  0  0  0  0  0  0  0  0  0  0
   59.7239   35.6359   45.0264 H   0  0  0  0  0  0  0  0  0  0  0  0
   60.4414   35.6247   47.4041 H   0  0  0  0  0  0  0  0  0  0  0  0
   63.8602   32.0860   50.2278 H   0  0  0  0  0  0  0  0  0  0  0  0
   64.7459   34.0225   48.9363 H   0  0  0  0  0  0  0  0  0  0  0  0
   63.7958   34.6253   46.7245 H   0  0  0  0  0  0  0  0  0  0  0  0
   61.9226   33.2644   45.7924 H   0  0  0  0  0  0  0  0  0  0  0  0
   60.4770   31.4750   46.0520 H   0  0  0  0  0  0  0  0  0  0  0  0
   58.5934   30.7403   45.6113 H   0  0  0  0  0  0  0  0  0  0  0  0
   56.7463   29.3519   44.7270 H   0  0  0  0  0  0  0  0  0  0  0  0
  1  2  1  0
  2  3  1  0
  3  4  2  0
  4  5  1  0
  5  6  2  0
  6  7  1  0
  7  8  2  0
  8  9  1  0
  9 10  2  0
 10 11  1  0
 11 12  1  0
 12 13  1  0
 13 14  2  0
 13 15  1  0
 15 16  1  0
 16 17  1  0
 17 18  1  0
 18 19  2  0
 19 20  1  0
 20 21  2  0
 21 22  1  0
 22 23  2  0
  9 24  1  0
 24 25  2  0
 25 26  1  0
 26 27  2  0
 27 28  1  0
 28 29  2  0
 29 30  1  0
  6 31  1  0
 31 32  2  0
 32  3  1  0
 30  7  1  0
 23 18  1  0
 29 24  1  0
  1 33  1  0
  1 34  1  0
  1 35  1  0
  4 36  1  0
  5 37  1  0
 11 38  1  0
 11 39  1  0
 12 40  1  0
 12 41  1  0
 15 42  1  0
 16 43  1  0
 16 44  1  0
 17 45  1  0
 17 46  1  0
 19 47  1  0
 20 48  1  0
 21 49  1  0
 22 50  1  0
 23 51  1  0
 25 52  1  0
 26 53  1  0
 27 54  1  0
 28 55  1  0
 30 56  1  0
 31 57  1  0
 32 58  1  0
M  END
>  <smiles>  (17) 
COc1ccc(-c2nc(=NCCC(=O)NCCc3ccccc3)c3ccccc3[nH]2)cc1

>  <score_type>  (17) 
oracle

>  <origin>  (17) 
adg

>  <m_score__min__energy>  (17) 
-9.6699999999999999

>  <m_primary>  (17) 
energy

$$$$
17:0
     RDKit          3D

 50 54  0  0  0  0  0  0  0  0999 V2000
   54.3520   23.3550   44.0060 O   0  0  0  0  0  0  0  0  0  0  0  0
   54.7230   23.6520   45.1740 C   0  0  0  0  0  0  0  0  0  0  0  0
   53.8850   23.3240   46.2920 N   0  0  0  0  0  0  0  0  0  0  0  0
   54.3180   22.8060   47.5580 C   0  0  0  0  0  0  0  0  0  0  0  0
   53.3480   22.4610   48.5100 C   0  0  0  0  0  0  0  0  0  0  0  0
   53.7250   21.9350   49.7510 C   0  0  0  0  0  0  0  0  0  0  0  0
   55.0770   21.7350   50.0380 C   0  0  0  0  0  0  0  0  0  0  0  0
   56.0500   22.0270   49.0750 C   0  0  0  0  0  0  0  0  0  0  0  0
   55.6770   22.5700   47.8410 C   0  0  0  0  0  0  0  0  0  0  0  0
   57.3920   21.7620   49.3630 O   0  0  0  0  0  0  0  0  0  0  0  0
   57.7620   20.9620   50.4890 C   0  0  0  0  0  0  0  0  0  0  0  0
   56.8500   21.2740   51.6830 C   0  0  0  0  0  0  0  0  0  0  0  0
   55.4790   21.2370   51.2820 O   0  0  0  0  0  0  0  0  0  0  0  0
   56.0460   24.2960   45.4030 C   0  0  0  0  0  0  0  0  0  0  0  0
   57.2230   23.5510   45.2030 C   0  0  0  0  0  0  0  0  0  0  0  0
   58.4420   24.1120   45.4100 N   0  0  0  0  0  0  0  0  0  0  0  0
   58.5850   25.3990   45.8130 C   0  0  0  0  0  0  0  0  0  0  0  0
   59.8650   25.9260   46.0130 C   0  0  0  0  0  0  0  0  0  0  0  0
   60.0210   27.2510   46.4290 C   0  0  0  0  0  0  0  0  0  0  0  0
   58.9000   28.0590   46.6510 C   0  0  0  0  0  0  0  0  0  0  0  0
   59.1230   29.7270   47.1680 S   0  0  0  0  0  0  0  0  0  0  0  0
   59.0860   29.7810   48.6700 O   0  0  0  0  0  0  0  0  0  0  0  0
   60.4450   30.2460   46.6750 O   0  0  0  0  0  0  0  0  0  0  0  0
   57.8450   30.6940   46.5060 N   0  0  0  0  0  0  0  0  0  0  0  0
   57.7240   31.0680   45.1280 C   0  0  0  0  0  0  0  0  0  0  0  0
   58.2650   32.2940   44.7160 C   0  0  0  0  0  0  0  0  0  0  0  0
   58.1670   32.7000   43.3810 C   0  0  0  0  0  0  0  0  0  0  0  0
   57.5260   31.8820   42.4470 C   0  0  0  0  0  0  0  0  0  0  0  0
   57.4010   32.3900   40.7730 Cl  0  0  0  0  0  0  0  0  0  0  0  0
   56.9820   30.6570   42.8480 C   0  0  0  0  0  0  0  0  0  0  0  0
   57.0800   30.2490   44.1820 C   0  0  0  0  0  0  0  0  0  0  0  0
   57.6140   27.5360   46.4490 C   0  0  0  0  0  0  0  0  0  0  0  0
   57.4440   26.2020   46.0310 C   0  0  0  0  0  0  0  0  0  0  0  0
   56.1680   25.6420   45.8220 C   0  0  0  0  0  0  0  0  0  0  0  0
   55.1380   26.3480   46.0080 O   0  0  0  0  0  0  0  0  0  0  0  0
   52.2821   22.6049   48.2796 H   0  0  0  0  0  0  0  0  0  0  0  0
   52.9588   21.6799   50.4979 H   0  0  0  0  0  0  0  0  0  0  0  0
   56.4451   22.8126   47.0919 H   0  0  0  0  0  0  0  0  0  0  0  0
   57.6656   19.8982   50.2263 H   0  0  0  0  0  0  0  0  0  0  0  0
   58.8029   21.1881   50.7636 H   0  0  0  0  0  0  0  0  0  0  0  0
   57.0175   20.5268   52.4727 H   0  0  0  0  0  0  0  0  0  0  0  0
   57.0857   22.2800   52.0604 H   0  0  0  0  0  0  0  0  0  0  0  0
   57.1547   22.5031   44.8755 H   0  0  0  0  0  0  0  0  0  0  0  0
   60.7507   25.2963   45.8425 H   0  0  0  0  0  0  0  0  0  0  0  0
   61.0301   27.6610   46.5828 H   0  0  0  0  0  0  0  0  0  0  0  0
   58.7702   32.9414   45.4479 H   0  0  0  0  0  0  0  0  0  0  0  0
   58.5946   33.6634   43.0664 H   0  0  0  0  0  0  0  0  0  0  0  0
   56.4764   30.0137   42.1128 H   0  0  0  0  0  0  0  0  0  0  0  0
   56.6522   29.2845   44.4930 H   0  0  0  0  0  0  0  0  0  0  0  0
   56.7327   28.1721   46.6182 H   0  0  0  0  0  0  0  0  0  0  0  0
  1  2  2  0
  2  3  1  0
  3  4  1  0
  4  5  2  0
  5  6  1  0
  6  7  2  0
  7  8  1  0
  8  9  2  0
  8 10  1  0
 10 11  1  0
 11 12  1  0
 12 13  1  0
  2 14  1  0
 14 15  2  0
 15 16  1  0
 16 17  1  0
 17 18  2  0
 18 19  1  0
 19 20  2  0
 20 21  1  0
 21 22  2  0
 21 23  2  0
 21 24  1  0
 24 25  1  0
 25 26  2  0
 26 27  1  0
 27 28  2  0
 28 29  1  0
 28 30  1  0
 30 31  2  0
 20 32  1  0
 32 33  2  0
 33 34  1  0
 34 35  2  0
  9  4  1  0
 34 14  1  0
 13  7  1  0
 33 17  1  0
 31 25  1  0
  5 36  1  0
  6 37  1  0
  9 38  1  0
 11 39  1  0
 11 40  1  0
 12 41  1  0
 12 42  1  0
 15 43  1  0
 18 44  1  0
 19 45  1  0
 26 46  1  0
 27 47  1  0
 30 48  1  0
 31 49  1  0
 32 50  1  0
M  CHG  3   3  -1  16  -1  24  -1
M  END
>  <UniqueID>  (18) 
16

>  <SMILES>  (18) 
O=C([N-]c1ccc2c(c1)OCCO2)c1c[n-]c2ccc(S(=O)(=O)[N-]c3ccc(Cl)cc3)cc2c1=O

>  <Energy>  (18) 
72.62700171966218

>  <Genealogy>  (18) 
O=C([N-]c1ccc2c(c1)OCCO2)c1c[n-]c2ccc(S(=O)(=O)[N-]c3ccc(Cl)cc3)cc2c1=O (protonated)
O=C([N-]c1ccc2c(c1)OCCO2)c1c[n-]c2ccc(S(=O)(=O)[N-]c3ccc(Cl)cc3)cc2c1=O (3D coordinates assigned)
O=C([N-]c1ccc2c(c1)OCCO2)c1c[n-]c2ccc(S(=O)(=O)[N-]c3ccc(Cl)cc3)cc2c1=O (nonaromatic ring conformer: 72.62700171966218 kcal/mol)

>  <smiles>  (18) 
O=C(Nc1ccc2c(c1)OCCO2)c1c[nH]c2ccc(S(=O)(=O)Nc3ccc(Cl)cc3)cc2c1=O

>  <score_type>  (18) 
oracle

>  <origin>  (18) 
adg

>  <m_score__min__energy>  (18) 
-13.82

>  <m_primary>  (18) 
energy

$$$$
18:0
     RDKit          3D

 68 72  0  0  0  0  0  0  0  0999 V2000
   54.0090   23.9380   45.5990 C   0  0  0  0  0  0  0  0  0  0  0  0
   55.1130   24.4340   46.4080 N   0  0  0  0  0  0  0  0  0  0  0  0
   55.8140   25.6340   46.0790 C   0  0  0  0  0  0  0  0  0  0  0  0
   55.1750   26.7180   45.9950 O   0  0  0  0  0  0  0  0  0  0  0  0
   57.1980   25.6020   45.8630 O   0  0  0  0  0  0  0  0  0  0  0  0
   58.1030   26.4560   46.5590 C   0  0  0  0  0  0  0  0  0  0  0  0
   58.1980   27.7940   45.8760 C   0  0  0  0  0  0  0  0  0  0  0  0
   57.3830   28.0500   44.8140 N   0  0  0  0  0  0  0  0  0  0  0  0
   57.4210   29.2320   44.1510 C   0  0  0  0  0  0  0  0  0  0  0  0
   56.5750   29.4660   43.0620 C   0  0  0  0  0  0  0  0  0  0  0  0
   56.6330   30.6910   42.3870 C   0  0  0  0  0  0  0  0  0  0  0  0
   57.5350   31.6790   42.8000 C   0  0  0  0  0  0  0  0  0  0  0  0
   58.3830   31.4480   43.8880 C   0  0  0  0  0  0  0  0  0  0  0  0
   58.3270   30.2260   44.5650 C   0  0  0  0  0  0  0  0  0  0  0  0
   59.1400   29.9800   45.6230 N   0  0  0  0  0  0  0  0  0  0  0  0
   59.1070   28.7970   46.2980 C   0  0  0  0  0  0  0  0  0  0  0  0
   60.0320   28.6250   47.4770 C   0  0  0  0  0  0  0  0  0  0  0  0
   59.3080   29.3710   48.9790 S   0  0  0  0  0  0  0  0  0  0  0  0
   60.8770   29.8880   49.6850 C   0  0  0  0  0  0  0  0  0  0  0  0
   61.4620   29.1340   50.7090 C   0  0  0  0  0  0  0  0  0  0  0  0
   62.6630   29.5530   51.2870 C   0  0  0  0  0  0  0  0  0  0  0  0
   63.2790   30.7300   50.8540 C   0  0  0  0  0  0  0  0  0  0  0  0
   62.6980   31.4940   49.8270 C   0  0  0  0  0  0  0  0  0  0  0  0
   63.3150   32.7930   49.3970 C   0  0  0  0  0  0  0  0  0  0  0  0
   62.6520   33.8580   50.0710 O   0  0  0  0  0  0  0  0  0  0  0  0
   61.7470   33.7080   51.1340 C   0  0  0  0  0  0  0  0  0  0  0  0
   62.1710   33.4290   52.4500 C   0  0  0  0  0  0  0  0  0  0  0  0
   61.2350   33.2460   53.4670 C   0  0  0  0  0  0  0  0  0  0  0  0
   59.8720   33.3630   53.1960 C   0  0  0  0  0  0  0  0  0  0  0  0
   59.4390   33.6640   51.9020 C   0  0  0  0  0  0  0  0  0  0  0  0
   60.3700   33.8230   50.8590 C   0  0  0  0  0  0  0  0  0  0  0  0
   59.9440   34.1680   49.5280 N   0  0  0  0  0  0  0  0  0  0  0  0
   59.0570   33.3580   48.7290 C   0  0  0  0  0  0  0  0  0  0  0  0
   58.5920   32.2820   49.1960 O   0  0  0  0  0  0  0  0  0  0  0  0
   58.6880   33.7620   47.3490 C   0  0  0  0  0  0  0  0  0  0  0  0
   57.3990   33.4810   46.8560 C   0  0  0  0  0  0  0  0  0  0  0  0
   57.0380   33.8610   45.5590 C   0  0  0  0  0  0  0  0  0  0  0  0
   57.9560   34.5140   44.7380 C   0  0  0  0  0  0  0  0  0  0  0  0
   59.2450   34.7800   45.2060 C   0  0  0  0  0  0  0  0  0  0  0  0
   59.6140   34.4020   46.5000 C   0  0  0  0  0  0  0  0  0  0  0  0
   61.4920   31.0670   49.2470 C   0  0  0  0  0  0  0  0  0  0  0  0
   53.2052   23.5769   46.2574 H   0  0  0  0  0  0  0  0  0  0  0  0
   53.6257   24.7504   44.9641 H   0  0  0  0  0  0  0  0  0  0  0  0
   54.3619   23.1119   44.9641 H   0  0  0  0  0  0  0  0  0  0  0  0
   57.7448   26.6002   47.5890 H   0  0  0  0  0  0  0  0  0  0  0  0
   59.0988   25.9888   46.5652 H   0  0  0  0  0  0  0  0  0  0  0  0
   55.8664   28.6899   42.7370 H   0  0  0  0  0  0  0  0  0  0  0  0
   55.9686   30.8777   41.5304 H   0  0  0  0  0  0  0  0  0  0  0  0
   57.5769   32.6403   42.2669 H   0  0  0  0  0  0  0  0  0  0  0  0
   59.0917   32.2252   44.2100 H   0  0  0  0  0  0  0  0  0  0  0  0
   60.1992   27.5519   47.6513 H   0  0  0  0  0  0  0  0  0  0  0  0
   60.9847   29.1284   47.2558 H   0  0  0  0  0  0  0  0  0  0  0  0
   60.9760   28.2113   51.0588 H   0  0  0  0  0  0  0  0  0  0  0  0
   63.1252   28.9542   52.0857 H   0  0  0  0  0  0  0  0  0  0  0  0
   64.2205   31.0594   51.3177 H   0  0  0  0  0  0  0  0  0  0  0  0
   64.3839   32.7990   49.6566 H   0  0  0  0  0  0  0  0  0  0  0  0
   63.2110   32.9155   48.3088 H   0  0  0  0  0  0  0  0  0  0  0  0
   63.2452   33.3555   52.6750 H   0  0  0  0  0  0  0  0  0  0  0  0
   61.5727   33.0085   54.4866 H   0  0  0  0  0  0  0  0  0  0  0  0
   59.1371   33.2182   54.0016 H   0  0  0  0  0  0  0  0  0  0  0  0
   58.3641   33.7773   51.6975 H   0  0  0  0  0  0  0  0  0  0  0  0
   60.3620   35.0290   49.1050 H   0  0  0  0  0  0  0  0  0  0  0  0
   56.6713   32.9593   47.4950 H   0  0  0  0  0  0  0  0  0  0  0  0
   56.0263   33.6438   45.1857 H   0  0  0  0  0  0  0  0  0  0  0  0
   57.6655   34.8197   43.7220 H   0  0  0  0  0  0  0  0  0  0  0  0
   59.9713   35.2881   44.5546 H   0  0  0  0  0  0  0  0  0  0  0  0
   60.6339   34.6052   46.8585 H   0  0  0  0  0  0  0  0  0  0  0  0
   61.0290   31.6613   48.4455 H   0  0  0  0  0  0  0  0  0  0  0  0
  1  2  1  0
  2  3  1  0
  3  4  2  0
  3  5  1  0
  5  6  1  0
  6  7  1  0
  7  8  2  0
  8  9  1  0
  9 10  2  0
 10 11  1  0
 11 12  2  0
 12 13  1  0
 13 14  2  0
 14 15  1  0
 15 16  2  0
 16 17  1  0
 17 18  1  0
 18 19  1  0
 19 20  2  0
 20 21  1  0
 21 22  2  0
 22 23  1  0
 23 24  1  0
 24 25  1  0
 25 26  1  0
 26 27  2  0
 27 28  1  0
 28 29  2  0
 29 30  1  0
 30 31  2  0
 31 32  1  0
 32 33  1  0
 33 34  2  0
 33 35  1  0
 35 36  2  0
 36 37  1  0
 37 38  2  0
 38 39  1  0
 39 40  2  0
 23 41  2  0
 16  7  1  0
 41 19  1  0
 14  9  1  0
 31 26  1  0
 40 35  1  0
  1 42  1  0
  1 43  1  0
  1 44  1  0
  6 45  1  0
  6 46  1  0
 10 47  1  0
 11 48  1  0
 12 49  1  0
 13 50  1  0
 17 51  1  0
 17 52  1  0
 20 53  1  0
 21 54  1  0
 22 55  1  0
 24 56  1  0
 24 57  1  0
 27 58  1  0
 28 59  1  0
 29 60  1  0
 30 61  1  0
 32 62  1  0
 36 63  1  0
 37 64  1  0
 38 65  1  0
 39 66  1  0
 40 67  1  0
 41 68  1  0
M  CHG  1   2  -1
M  END
>  <UniqueID>  (19) 
17

>  <SMILES>  (19) 
C[N-]C(=O)OCc1nc2ccccc2nc1CSc1cccc(COc2ccccc2NC(=O)c2ccccc2)c1

>  <Energy>  (19) 
74.34317307980025

>  <Genealogy>  (19) 
C[N-]C(=O)OCc1nc2ccccc2nc1CSc1cccc(COc2ccccc2NC(=O)c2ccccc2)c1 (protonated)
C[N-]C(=O)OCc1nc2ccccc2nc1CSc1cccc(COc2ccccc2NC(=O)c2ccccc2)c1 (3D coordinates assigned)
C[N-]C(=O)OCc1nc2ccccc2nc1CSc1cccc(COc2ccccc2NC(=O)c2ccccc2)c1 (optimized conformer: 74.34317307980025 kcal/mol)

>  <smiles>  (19) 
CNC(=O)OCc1nc2ccccc2nc1CSc1cccc(COc2ccccc2NC(=O)c2ccccc2)c1

>  <score_type>  (19) 
oracle

>  <origin>  (19) 
adg

>  <m_score__min__energy>  (19) 
-12.300000000000001

>  <m_primary>  (19) 
energy

$$$$
19:0
     RDKit          3D

 41 42  0  0  0  0  0  0  0  0999 V2000
   57.3280   33.8300   45.9730 C   0  0  0  0  0  0  0  0  0  0  0  0
   57.5010   32.8460   44.8670 C   0  0  0  0  0  0  0  0  0  0  0  0
   58.1430   33.0880   43.6680 C   0  0  0  0  0  0  0  0  0  0  0  0
   58.0340   31.9180   42.9450 C   0  0  0  0  0  0  0  0  0  0  0  0
   57.3270   31.0450   43.7500 C   0  0  0  0  0  0  0  0  0  0  0  0
   56.9350   29.6470   43.3930 C   0  0  0  0  0  0  0  0  0  0  0  0
   57.1820   28.7060   44.5400 C   0  0  0  0  0  0  0  0  0  0  0  0
   56.5170   28.8660   45.6000 O   0  0  0  0  0  0  0  0  0  0  0  0
   58.1320   27.6220   44.4540 N   0  0  0  0  0  0  0  0  0  0  0  0
   57.8130   26.4780   43.5920 C   0  0  0  0  0  0  0  0  0  0  0  0
   59.3740   27.6110   45.2450 C   0  0  0  0  0  0  0  0  0  0  0  0
   60.2750   28.7960   44.8770 C   0  0  0  0  0  0  0  0  0  0  0  0
   60.2480   29.8490   45.9400 C   0  0  0  0  0  0  0  0  0  0  0  0
   61.3450   30.2620   46.6160 N   0  0  0  0  0  0  0  0  0  0  0  0
   60.8190   31.1250   47.5140 C   0  0  0  0  0  0  0  0  0  0  0  0
   61.6330   31.8510   48.5360 C   0  0  0  0  0  0  0  0  0  0  0  0
   59.4810   31.2250   47.3850 N   0  0  0  0  0  0  0  0  0  0  0  0
   58.5560   31.9730   48.2290 C   0  0  0  0  0  0  0  0  0  0  0  0
   59.1210   30.4140   46.4080 N   0  0  0  0  0  0  0  0  0  0  0  0
   57.0230   31.6240   44.8880 O   0  0  0  0  0  0  0  0  0  0  0  0
   57.4187   33.3141   46.9403 H   0  0  0  0  0  0  0  0  0  0  0  0
   58.1034   34.6066   45.8975 H   0  0  0  0  0  0  0  0  0  0  0  0
   56.3342   34.2955   45.8975 H   0  0  0  0  0  0  0  0  0  0  0  0
   58.6379   34.0192   43.3550 H   0  0  0  0  0  0  0  0  0  0  0  0
   58.4280   31.7209   41.9371 H   0  0  0  0  0  0  0  0  0  0  0  0
   55.8655   29.6281   43.1367 H   0  0  0  0  0  0  0  0  0  0  0  0
   57.5435   29.3213   42.5365 H   0  0  0  0  0  0  0  0  0  0  0  0
   57.5697   25.6054   44.2159 H   0  0  0  0  0  0  0  0  0  0  0  0
   56.9500   26.7268   42.9570 H   0  0  0  0  0  0  0  0  0  0  0  0
   58.6802   26.2443   42.9570 H   0  0  0  0  0  0  0  0  0  0  0  0
   59.1197   27.6716   46.3135 H   0  0  0  0  0  0  0  0  0  0  0  0
   59.9172   26.6793   45.0284 H   0  0  0  0  0  0  0  0  0  0  0  0
   61.3074   28.4368   44.7543 H   0  0  0  0  0  0  0  0  0  0  0  0
   59.9033   29.2377   43.9406 H   0  0  0  0  0  0  0  0  0  0  0  0
   61.3035   31.5571   49.5435 H   0  0  0  0  0  0  0  0  0  0  0  0
   62.6951   31.5948   48.4083 H   0  0  0  0  0  0  0  0  0  0  0  0
   61.4995   32.9354   48.4083 H   0  0  0  0  0  0  0  0  0  0  0  0
   58.7901   31.7837   49.2870 H   0  0  0  0  0  0  0  0  0  0  0  0
   58.6549   33.0481   48.0183 H   0  0  0  0  0  0  0  0  0  0  0  0
   57.5254   31.6513   48.0183 H   0  0  0  0  0  0  0  0  0  0  0  0
   58.1400   30.2320   46.0970 H   0  0  0  0  0  0  0  0  0  0  0  0
  1  2  1  0
  2  3  2  0
  3  4  1  0
  4  5  2  0
  5  6  1  0
  6  7  1  0
  7  8  2  0
  7  9  1  0
  9 10  1  0
  9 11  1  0
 11 12  1  0
 12 13  1  0
 13 14  1  0
 14 15  2  0
 15 16  1  0
 15 17  1  0
 17 18  1  0
 17 19  1  0
  5 20  1  0
 20  2  1  0
 19 13  2  0
  1 21  1  0
  1 22  1  0
  1 23  1  0
  3 24  1  0
  4 25  1  0
  6 26  1  0
  6 27  1  0
 10 28  1  0
 10 29  1  0
 10 30  1  0
 11 31  1  0
 11 32  1  0
 12 33  1  0
 12 34  1  0
 16 35  1  0
 16 36  1  0
 16 37  1  0
 18 38  1  0
 18 39  1  0
 18 40  1  0
 19 41  1  0
M  CHG  1  19   1
M  END
>  <UniqueID>  (20) 
18

>  <SMILES>  (20) 
Cc1ccc(CC(=O)N(C)CCc2nc(C)n(C)[nH+]2)o1

>  <Energy>  (20) 
88.91687085590138

>  <Genealogy>  (20) 
Cc1ccc(CC(=O)N(C)CCc2nc(C)n(C)[nH+]2)o1 (protonated)
Cc1ccc(CC(=O)N(C)CCc2nc(C)n(C)[nH+]2)o1 (3D coordinates assigned)
Cc1ccc(CC(=O)N(C)CCc2nc(C)n(C)[nH+]2)o1 (optimized conformer: 88.91687085590138 kcal/mol)

>  <smiles>  (20) 
Cc1ccc(CC(=O)N(C)CCc2nc(C)n(C)n2)o1

>  <score_type>  (20) 
oracle

>  <origin>  (20) 
adg

>  <m_score__min__energy>  (20) 
-5.1200000000000001

>  <m_primary>  (20) 
energy

$$$$
20:0
     RDKit          3D

 51 54  0  0  0  0  0  0  0  0999 V2000
   57.4478   32.9359   42.3928 H   0  0  0  0  0  0  0  0  0  0  0  0
   57.8460   32.6770   43.3850 C   0  0  0  0  0  0  0  0  0  0  0  0
   58.4440   33.6280   44.1450 N   0  0  0  0  0  0  0  0  0  0  0  0
   58.9500   33.3320   45.3740 C   0  0  0  0  0  0  0  0  0  0  0  0
   59.5010   34.2460   46.1170 N   0  0  0  0  0  0  0  0  0  0  0  0
   60.5800   34.0660   47.0510 C   0  0  0  0  0  0  0  0  0  0  0  0
   60.3620   34.3820   48.3980 C   0  0  0  0  0  0  0  0  0  0  0  0
   59.3881   34.7841   48.7140 H   0  0  0  0  0  0  0  0  0  0  0  0
   61.3730   34.1900   49.3430 C   0  0  0  0  0  0  0  0  0  0  0  0
   61.1981   34.4569   50.3957 H   0  0  0  0  0  0  0  0  0  0  0  0
   62.6050   33.6600   48.9540 C   0  0  0  0  0  0  0  0  0  0  0  0
   63.4021   33.5198   49.6989 H   0  0  0  0  0  0  0  0  0  0  0  0
   62.8280   33.3060   47.6150 C   0  0  0  0  0  0  0  0  0  0  0  0
   64.0810   32.7390   47.2210 N   0  0  0  0  0  0  0  0  0  0  0  0
   64.1720   31.7140   47.0450 H   0  0  0  0  0  0  0  0  0  0  0  0
   64.9260   33.3410   47.1010 H   0  0  0  0  0  0  0  0  0  0  0  0
   61.8120   33.5010   46.6680 C   0  0  0  0  0  0  0  0  0  0  0  0
   61.9783   33.2110   45.6200 H   0  0  0  0  0  0  0  0  0  0  0  0
   58.8400   32.0660   45.8540 N   0  0  0  0  0  0  0  0  0  0  0  0
   58.2560   31.0710   45.1300 C   0  0  0  0  0  0  0  0  0  0  0  0
   58.1680   29.7050   45.7090 C   0  0  0  0  0  0  0  0  0  0  0  0
   57.3410   28.7410   45.1070 C   0  0  0  0  0  0  0  0  0  0  0  0
   56.7674   29.0023   44.2055 H   0  0  0  0  0  0  0  0  0  0  0  0
   57.2400   27.4540   45.6420 C   0  0  0  0  0  0  0  0  0  0  0  0
   56.5838   26.7134   45.1614 H   0  0  0  0  0  0  0  0  0  0  0  0
   57.9680   27.0990   46.7860 C   0  0  0  0  0  0  0  0  0  0  0  0
   57.8260   25.7760   47.3300 N   0  0  0  0  0  0  0  0  0  0  0  0
   58.5620   25.4430   47.9910 H   0  0  0  0  0  0  0  0  0  0  0  0
   56.6730   24.9420   47.1160 C   0  0  0  0  0  0  0  0  0  0  0  0
   55.6020   25.4390   46.6770 O   0  0  0  0  0  0  0  0  0  0  0  0
   56.7060   23.5450   47.4260 N   0  0  0  0  0  0  0  0  0  0  0  0
   55.8040   22.5580   46.8470 C   0  0  0  0  0  0  0  0  0  0  0  0
   55.9674   21.5834   47.3302 H   0  0  0  0  0  0  0  0  0  0  0  0
   54.7624   22.8745   47.0051 H   0  0  0  0  0  0  0  0  0  0  0  0
   56.0740   22.4390   45.3760 C   0  0  0  0  0  0  0  0  0  0  0  0
   57.0010   21.4950   44.9000 C   0  0  0  0  0  0  0  0  0  0  0  0
   57.5108   20.8229   45.6060 H   0  0  0  0  0  0  0  0  0  0  0  0
   57.2770   21.4080   43.5310 C   0  0  0  0  0  0  0  0  0  0  0  0
   57.9965   20.6624   43.1618 H   0  0  0  0  0  0  0  0  0  0  0  0
   56.6390   22.2680   42.6320 C   0  0  0  0  0  0  0  0  0  0  0  0
   56.8547   22.1964   41.5557 H   0  0  0  0  0  0  0  0  0  0  0  0
   55.7270   23.2190   43.1000 C   0  0  0  0  0  0  0  0  0  0  0  0
   55.2279   23.8969   42.3919 H   0  0  0  0  0  0  0  0  0  0  0  0
   55.4490   23.3090   44.4670 C   0  0  0  0  0  0  0  0  0  0  0  0
   54.7378   24.0643   44.8326 H   0  0  0  0  0  0  0  0  0  0  0  0
   58.7690   28.0690   47.4120 C   0  0  0  0  0  0  0  0  0  0  0  0
   59.3198   27.8132   48.3292 H   0  0  0  0  0  0  0  0  0  0  0  0
   58.8710   29.3560   46.8780 C   0  0  0  0  0  0  0  0  0  0  0  0
   59.5064   30.1036   47.3754 H   0  0  0  0  0  0  0  0  0  0  0  0
   57.7360   31.3720   43.8610 C   0  0  0  0  0  0  0  0  0  0  0  0
   57.2512   30.5929   43.2544 H   0  0  0  0  0  0  0  0  0  0  0  0
  1  2  1  0
  2  3  1  0
  3  4  1  0
  4  5  2  0
  5  6  1  0
  6  7  2  0
  7  8  1  0
  7  9  1  0
  9 10  1  0
  9 11  2  0
 11 12  1  0
 11 13  1  0
 13 14  1  0
 14 15  1  0
 14 16  1  0
 13 17  2  0
 17 18  1  0
  4 19  1  0
 19 20  2  0
 20 21  1  0
 21 22  2  0
 22 23  1  0
 22 24  1  0
 24 25  1  0
 24 26  2  0
 26 27  1  0
 27 28  1  0
 27 29  1  0
 29 30  2  0
 29 31  1  0
 31 32  1  0
 32 33  1  0
 32 34  1  0
 32 35  1  0
 35 36  2  0
 36 37  1  0
 36 38  1  0
 38 39  1  0
 38 40  2  0
 40 41  1  0
 40 42  1  0
 42 43  1  0
 42 44  2  0
 44 45  1  0
 26 46  1  0
 46 47  1  0
 46 48  2  0
 48 49  1  0
 20 50  1  0
 50 51  1  0
 50  2  2  0
 17  6  1  0
 48 21  1  0
 44 35  1  0
M  CHG  2   3  -1  31  -1
M  END
>  <UniqueID>  (21) 
19

>  <SMILES>  (21) 
Nc1cccc(/N=c2/nc(-c3ccc(NC(=O)[N-]Cc4ccccc4)cc3)cc[n-]2)c1

>  <Energy>  (21) 
67.05518147469947

>  <Genealogy>  (21) 
Nc1cccc(N=c2nc(-c3ccc(NC(=O)[N-]Cc4ccccc4)cc3)cc[n-]2)c1 (protonated)
Nc1cccc(/N=c2/nc(-c3ccc(NC(=O)[N-]Cc4ccccc4)cc3)cc[n-]2)c1 (cis-trans isomerization)
Nc1cccc(/N=c2/nc(-c3ccc(NC(=O)[N-]Cc4ccccc4)cc3)cc[n-]2)c1 (3D coordinates assigned)
Nc1cccc(/N=c2/nc(-c3ccc(NC(=O)[N-]Cc4ccccc4)cc3)cc[n-]2)c1 (optimized conformer: 67.05518147469947 kcal/mol)

>  <smiles>  (21) 
Nc1cccc(N=c2nc(-c3ccc(NC(=O)NCc4ccccc4)cc3)cc[nH]2)c1

>  <score_type>  (21) 
oracle

>  <origin>  (21) 
adg

>  <m_score__min__energy>  (21) 
-11.98

>  <m_primary>  (21) 
energy

$$$$
21:0
     RDKit          3D

 66 65  0  0  0  0  0  0  0  0999 V2000
   57.4530   33.7710   46.3430 C   0  0  0  0  0  0  0  0  0  0  0  0
   58.1490   34.1670   45.0410 C   0  0  0  0  0  0  0  0  0  0  0  0
   58.1410   33.0450   43.9880 C   0  0  0  0  0  0  0  0  0  0  0  0
   57.7440   31.6610   44.5340 C   0  0  0  0  0  0  0  0  0  0  0  0
   57.4240   30.6470   43.4220 C   0  0  0  0  0  0  0  0  0  0  0  0
   56.5220   29.4630   43.8590 C   0  0  0  0  0  0  0  0  0  0  0  0
   57.1960   28.2630   44.4460 N   0  0  1  0  0  0  0  0  0  0  0  0
   58.4200   27.8470   43.7120 C   0  0  0  0  0  0  0  0  0  0  0  0
   58.1450   26.8020   42.6240 C   0  0  0  0  0  0  0  0  0  0  0  0
   57.4950   28.3630   45.8980 C   0  0  0  0  0  0  0  0  0  0  0  0
   58.9840   28.1660   46.2460 C   0  0  0  0  0  0  0  0  0  0  0  0
   59.3300   28.8650   47.5660 C   0  0  0  0  0  0  0  0  0  0  0  0
   58.9310   30.3480   47.5280 C   0  0  0  0  0  0  0  0  0  0  0  0
   60.0300   31.2610   46.9600 C   0  0  0  0  0  0  0  0  0  0  0  0
   61.0290   31.9320   47.9580 C   0  0  0  0  0  0  0  0  0  0  0  0
   61.2750   33.4190   47.8650 N   0  0  1  0  0  0  0  0  0  0  0  0
   61.2200   33.8420   46.4370 C   0  0  0  0  0  0  0  0  0  0  0  0
   60.1810   34.1930   48.5630 C   0  0  0  0  0  0  0  0  0  0  0  0
   59.6910   33.6380   49.9180 C   0  0  0  0  0  0  0  0  0  0  0  0
   62.6270   33.8360   48.3790 C   0  0  0  0  0  0  0  0  0  0  0  0
   63.8540   33.5510   47.4870 C   0  0  0  0  0  0  0  0  0  0  0  0
   63.7870   32.2560   46.9560 O   0  0  0  0  0  0  0  0  0  0  0  0
   58.0539   34.1129   47.1986 H   0  0  0  0  0  0  0  0  0  0  0  0
   56.4580   34.2382   46.3837 H   0  0  0  0  0  0  0  0  0  0  0  0
   57.3463   32.6769   46.3837 H   0  0  0  0  0  0  0  0  0  0  0  0
   57.6348   35.0445   44.6218 H   0  0  0  0  0  0  0  0  0  0  0  0
   59.2001   34.3828   45.2830 H   0  0  0  0  0  0  0  0  0  0  0  0
   57.4272   33.3204   43.1976 H   0  0  0  0  0  0  0  0  0  0  0  0
   59.1738   32.9525   43.6209 H   0  0  0  0  0  0  0  0  0  0  0  0
   58.5768   31.2696   45.1367 H   0  0  0  0  0  0  0  0  0  0  0  0
   56.8309   31.7924   45.1331 H   0  0  0  0  0  0  0  0  0  0  0  0
   56.9145   31.1824   42.6073 H   0  0  0  0  0  0  0  0  0  0  0  0
   58.3856   30.2073   43.1187 H   0  0  0  0  0  0  0  0  0  0  0  0
   55.8166   29.8459   44.6112 H   0  0  0  0  0  0  0  0  0  0  0  0
   56.0638   29.1001   42.9272 H   0  0  0  0  0  0  0  0  0  0  0  0
   56.5140   27.4720   44.3510 H   0  0  0  0  0  0  0  0  0  0  0  0
   58.8634   28.7358   43.2393 H   0  0  0  0  0  0  0  0  0  0  0  0
   59.0998   27.3863   44.4439 H   0  0  0  0  0  0  0  0  0  0  0  0
   57.8920   25.8405   43.0947 H   0  0  0  0  0  0  0  0  0  0  0  0
   57.3043   27.1365   41.9984 H   0  0  0  0  0  0  0  0  0  0  0  0
   59.0414   26.6794   41.9984 H   0  0  0  0  0  0  0  0  0  0  0  0
   57.1871   29.3597   46.2468 H   0  0  0  0  0  0  0  0  0  0  0  0
   56.9420   27.5516   46.3937 H   0  0  0  0  0  0  0  0  0  0  0  0
   59.1931   27.0903   46.3416 H   0  0  0  0  0  0  0  0  0  0  0  0
   59.5954   28.6042   45.4434 H   0  0  0  0  0  0  0  0  0  0  0  0
   58.7915   28.3691   48.3870 H   0  0  0  0  0  0  0  0  0  0  0  0
   60.4170   28.7997   47.7213 H   0  0  0  0  0  0  0  0  0  0  0  0
   58.0330   30.4516   46.9012 H   0  0  0  0  0  0  0  0  0  0  0  0
   58.7514   30.6630   48.5665 H   0  0  0  0  0  0  0  0  0  0  0  0
   60.6260   30.6561   46.2607 H   0  0  0  0  0  0  0  0  0  0  0  0
   59.4792   32.1055   46.5202 H   0  0  0  0  0  0  0  0  0  0  0  0
   60.6539   31.7310   48.9723 H   0  0  0  0  0  0  0  0  0  0  0  0
   62.0005   31.4888   47.6938 H   0  0  0  0  0  0  0  0  0  0  0  0
   61.0783   34.9315   46.3825 H   0  0  0  0  0  0  0  0  0  0  0  0
   62.1612   33.5692   45.9373 H   0  0  0  0  0  0  0  0  0  0  0  0
   60.3799   33.3376   45.9373 H   0  0  0  0  0  0  0  0  0  0  0  0
   60.5540   35.2132   48.7366 H   0  0  0  0  0  0  0  0  0  0  0  0
   59.3105   34.1279   47.8937 H   0  0  0  0  0  0  0  0  0  0  0  0
   60.1770   34.1885   50.7370 H   0  0  0  0  0  0  0  0  0  0  0  0
   58.6002   33.7595   49.9911 H   0  0  0  0  0  0  0  0  0  0  0  0
   59.9468   32.5706   49.9911 H   0  0  0  0  0  0  0  0  0  0  0  0
   62.5919   34.9218   48.5520 H   0  0  0  0  0  0  0  0  0  0  0  0
   62.7859   33.2182   49.2752 H   0  0  0  0  0  0  0  0  0  0  0  0
   63.8787   34.2790   46.6627 H   0  0  0  0  0  0  0  0  0  0  0  0
   64.7646   33.6373   48.0980 H   0  0  0  0  0  0  0  0  0  0  0  0
   64.7220   31.9900   46.7560 H   0  0  0  0  0  0  0  0  0  0  0  0
  1  2  1  0
  2  3  1  0
  3  4  1  0
  4  5  1  0
  5  6  1  0
  6  7  1  0
  7  8  1  0
  8  9  1  0
  7 10  1  0
 10 11  1  0
 11 12  1  0
 12 13  1  0
 13 14  1  0
 14 15  1  0
 16 15  1  6
 16 17  1  0
 16 18  1  0
 18 19  1  0
 16 20  1  0
 20 21  1  0
 21 22  1  0
  1 23  1  0
  1 24  1  0
  1 25  1  0
  2 26  1  0
  2 27  1  0
  3 28  1  0
  3 29  1  0
  4 30  1  0
  4 31  1  0
  5 32  1  0
  5 33  1  0
  6 34  1  0
  6 35  1  0
  7 36  1  1
  8 37  1  0
  8 38  1  0
  9 39  1  0
  9 40  1  0
  9 41  1  0
 10 42  1  0
 10 43  1  0
 11 44  1  0
 11 45  1  0
 12 46  1  0
 12 47  1  0
 13 48  1  0
 13 49  1  0
 14 50  1  0
 14 51  1  0
 15 52  1  0
 15 53  1  0
 17 54  1  0
 17 55  1  0
 17 56  1  0
 18 57  1  0
 18 58  1  0
 19 59  1  0
 19 60  1  0
 19 61  1  0
 20 62  1  0
 20 63  1  0
 21 64  1  0
 21 65  1  0
 22 66  1  0
M  CHG  2   7   1  16   1
M  END
>  <UniqueID>  (22) 
20

>  <SMILES>  (22) 
CCCCCC[N@@H+](CC)CCCCCC[N@@+](C)(CC)CCO

>  <Energy>  (22) 
80.14544516031451

>  <Genealogy>  (22) 
CCCCCC[NH+](CC)CCCCCC[N+](C)(CC)CCO (protonated)
CCCCCC[N@@H+](CC)CCCCCC[N@@+](C)(CC)CCO (chirality)
CCCCCC[N@@H+](CC)CCCCCC[N@@+](C)(CC)CCO (3D coordinates assigned)
CCCCCC[N@@H+](CC)CCCCCC[N@@+](C)(CC)CCO (optimized conformer: 80.14544516031451 kcal/mol)

>  <smiles>  (22) 
CCCCCCN(CC)CCCCCC[N+](C)(CC)CCO

>  <score_type>  (22) 
oracle

>  <origin>  (22) 
adg

>  <m_score__min__energy>  (22) 
-3.3500000000000001

>  <m_primary>  (22) 
energy

$$$$
22:0
     RDKit          3D

 61 64  0  0  0  0  0  0  0  0999 V2000
   63.2950   34.2480   46.2950 C   0  0  0  0  0  0  0  0  0  0  0  0
   62.4100   33.1010   46.7740 C   0  0  0  0  0  0  0  0  0  0  0  0
   63.1710   32.1620   47.5380 O   0  0  0  0  0  0  0  0  0  0  0  0
   62.8290   31.6620   48.8060 C   0  0  0  0  0  0  0  0  0  0  0  0
   63.5330   32.0270   49.9730 C   0  0  0  0  0  0  0  0  0  0  0  0
   63.2050   31.4580   51.2050 C   0  0  0  0  0  0  0  0  0  0  0  0
   62.1820   30.5140   51.2910 C   0  0  0  0  0  0  0  0  0  0  0  0
   61.4720   30.1480   50.1460 C   0  0  0  0  0  0  0  0  0  0  0  0
   61.7700   30.7330   48.9060 C   0  0  0  0  0  0  0  0  0  0  0  0
   61.0210   30.3310   47.7490 N   0  0  0  0  0  0  0  0  0  0  0  0
   60.1200   29.2120   47.7520 C   0  0  0  0  0  0  0  0  0  0  0  0
   60.1970   28.3420   48.6620 O   0  0  0  0  0  0  0  0  0  0  0  0
   59.0930   29.0440   46.6610 C   0  0  0  0  0  0  0  0  0  0  0  0
   59.7300   29.1540   45.2590 C   0  0  0  0  0  0  0  0  0  0  0  0
   59.0380   28.2720   44.1980 C   0  0  0  0  0  0  0  0  0  0  0  0
   57.5910   28.0850   44.4200 N   0  0  0  0  0  0  0  0  0  0  0  0
   56.6170   29.3870   43.7670 S   0  0  0  0  0  0  0  0  0  0  0  0
   56.4950   29.2110   42.2790 O   0  0  0  0  0  0  0  0  0  0  0  0
   55.2350   29.3130   44.3510 O   0  0  0  0  0  0  0  0  0  0  0  0
   57.2940   30.9810   44.1050 C   0  0  0  0  0  0  0  0  0  0  0  0
   57.8040   31.7650   43.0690 C   0  0  0  0  0  0  0  0  0  0  0  0
   58.3720   33.0080   43.3450 C   0  0  0  0  0  0  0  0  0  0  0  0
   58.4320   33.5050   44.6540 C   0  0  0  0  0  0  0  0  0  0  0  0
   57.8980   32.7250   45.7090 C   0  0  0  0  0  0  0  0  0  0  0  0
   57.3250   31.4710   45.4150 C   0  0  0  0  0  0  0  0  0  0  0  0
   57.9780   33.1450   47.1470 C   0  0  0  0  0  0  0  0  0  0  0  0
   59.3990   33.5480   47.5320 C   0  0  0  0  0  0  0  0  0  0  0  0
   59.6200   35.0480   47.3590 C   0  0  0  0  0  0  0  0  0  0  0  0
   59.5740   35.5320   45.9360 C   0  0  0  0  0  0  0  0  0  0  0  0
   60.0360   36.6800   45.7070 O   0  0  0  0  0  0  0  0  0  0  0  0
   59.0650   34.7860   44.8190 N   0  0  0  0  0  0  0  0  0  0  0  0
   57.1850   27.6730   45.7870 C   0  0  0  0  0  0  0  0  0  0  0  0
   58.3240   27.7320   46.8160 C   0  0  0  0  0  0  0  0  0  0  0  0
   63.7065   34.7814   47.1646 H   0  0  0  0  0  0  0  0  0  0  0  0
   64.1193   33.8461   45.6876 H   0  0  0  0  0  0  0  0  0  0  0  0
   62.6971   34.9434   45.6876 H   0  0  0  0  0  0  0  0  0  0  0  0
   61.6016   33.5058   47.4006 H   0  0  0  0  0  0  0  0  0  0  0  0
   61.9910   32.5868   45.8965 H   0  0  0  0  0  0  0  0  0  0  0  0
   64.3462   32.7652   49.9117 H   0  0  0  0  0  0  0  0  0  0  0  0
   63.7549   31.7550   52.1102 H   0  0  0  0  0  0  0  0  0  0  0  0
   61.9346   30.0579   52.2609 H   0  0  0  0  0  0  0  0  0  0  0  0
   60.6729   29.3953   50.2165 H   0  0  0  0  0  0  0  0  0  0  0  0
   61.2070   30.8220   46.8460 H   0  0  0  0  0  0  0  0  0  0  0  0
   58.3720   29.8686   46.7624 H   0  0  0  0  0  0  0  0  0  0  0  0
   59.6724   30.2026   44.9316 H   0  0  0  0  0  0  0  0  0  0  0  0
   60.7681   28.8010   45.3464 H   0  0  0  0  0  0  0  0  0  0  0  0
   59.1785   28.7419   43.2134 H   0  0  0  0  0  0  0  0  0  0  0  0
   59.5001   27.2759   44.2635 H   0  0  0  0  0  0  0  0  0  0  0  0
   57.7577   31.4012   42.0319 H   0  0  0  0  0  0  0  0  0  0  0  0
   58.7807   33.6098   42.5199 H   0  0  0  0  0  0  0  0  0  0  0  0
   56.8954   30.8681   46.2286 H   0  0  0  0  0  0  0  0  0  0  0  0
   57.3072   34.0020   47.3073 H   0  0  0  0  0  0  0  0  0  0  0  0
   57.6786   32.2920   47.7737 H   0  0  0  0  0  0  0  0  0  0  0  0
   59.5741   33.2797   48.5843 H   0  0  0  0  0  0  0  0  0  0  0  0
   60.0999   33.0169   46.8712 H   0  0  0  0  0  0  0  0  0  0  0  0
   58.8393   35.5766   47.9257 H   0  0  0  0  0  0  0  0  0  0  0  0
   60.6367   35.2554   47.7240 H   0  0  0  0  0  0  0  0  0  0  0  0
   56.3776   28.3394   46.1247 H   0  0  0  0  0  0  0  0  0  0  0  0
   56.8648   26.6226   45.7233 H   0  0  0  0  0  0  0  0  0  0  0  0
   57.9032   27.6728   47.8306 H   0  0  0  0  0  0  0  0  0  0  0  0
   59.0087   26.8873   46.6494 H   0  0  0  0  0  0  0  0  0  0  0  0
  1  2  1  0
  2  3  1  0
  3  4  1  0
  4  5  2  0
  5  6  1  0
  6  7  2  0
  7  8  1  0
  8  9  2  0
  9 10  1  0
 10 11  1  0
 11 12  2  0
 11 13  1  0
 13 14  1  0
 14 15  1  0
 15 16  1  0
 16 17  1  0
 17 18  2  0
 17 19  2  0
 17 20  1  0
 20 21  2  0
 21 22  1  0
 22 23  2  0
 23 24  1  0
 24 25  2  0
 24 26  1  0
 26 27  1  0
 27 28  1  0
 28 29  1  0
 29 30  2  0
 29 31  1  0
 16 32  1  0
 32 33  1  0
  9  4  1  0
 33 13  1  0
 25 20  1  0
 31 23  1  0
  1 34  1  0
  1 35  1  0
  1 36  1  0
  2 37  1  0
  2 38  1  0
  5 39  1  0
  6 40  1  0
  7 41  1  0
  8 42  1  0
 10 43  1  0
 13 44  1  0
 14 45  1  0
 14 46  1  0
 15 47  1  0
 15 48  1  0
 21 49  1  0
 22 50  1  0
 25 51  1  0
 26 52  1  0
 26 53  1  0
 27 54  1  0
 27 55  1  0
 28 56  1  0
 28 57  1  0
 32 58  1  0
 32 59  1  0
 33 60  1  0
 33 61  1  0
M  CHG  1  31  -1
M  END
>  <UniqueID>  (23) 
21

>  <SMILES>  (23) 
CCOc1ccccc1NC(=O)C1CCN(S(=O)(=O)c2ccc3c(c2)CCCC(=O)[N-]3)CC1

>  <Energy>  (23) 
83.38929021156903

>  <Genealogy>  (23) 
CCOc1ccccc1NC(=O)C1CCN(S(=O)(=O)c2ccc3c(c2)CCCC(=O)[N-]3)CC1 (protonated)
CCOc1ccccc1NC(=O)C1CCN(S(=O)(=O)c2ccc3c(c2)CCCC(=O)[N-]3)CC1 (3D coordinates assigned)
CCOc1ccccc1NC(=O)C1CCN(S(=O)(=O)c2ccc3c(c2)CCCC(=O)[N-]3)CC1 (nonaromatic ring conformer: 83.38929021156903 kcal/mol)

>  <smiles>  (23) 
CCOc1ccccc1NC(=O)C1CCN(S(=O)(=O)c2ccc3c(c2)CCCC(=O)N3)CC1

>  <score_type>  (23) 
oracle

>  <origin>  (23) 
adg

>  <m_score__min__energy>  (23) 
-9.1099999999999994

>  <m_primary>  (23) 
energy

$$$$
23:0
     RDKit          3D

 44 46  0  0  0  0  0  0  0  0999 V2000
   60.5500   26.8580   45.9900 O   0  0  0  0  0  0  0  0  0  0  0  0
   59.7400   27.2820   46.8580 C   0  0  0  0  0  0  0  0  0  0  0  0
   58.9200   26.3300   47.5530 N   0  0  0  0  0  0  0  0  0  0  0  0
   57.7560   25.8720   47.1750 C   0  0  0  0  0  0  0  0  0  0  0  0
   56.9270   26.7020   46.4110 C   0  0  0  0  0  0  0  0  0  0  0  0
   55.6750   26.2410   45.9960 C   0  0  0  0  0  0  0  0  0  0  0  0
   55.2580   24.9950   46.3410 N   0  0  0  0  0  0  0  0  0  0  0  0
   56.0320   24.1690   47.0940 C   0  0  0  0  0  0  0  0  0  0  0  0
   57.2910   24.5890   47.5310 C   0  0  0  0  0  0  0  0  0  0  0  0
   59.7140   28.7280   47.1910 C   0  0  0  0  0  0  0  0  0  0  0  0
   60.4440   29.6450   46.4160 C   0  0  0  0  0  0  0  0  0  0  0  0
   60.4220   31.0090   46.7230 C   0  0  0  0  0  0  0  0  0  0  0  0
   59.6830   31.4770   47.8200 C   0  0  0  0  0  0  0  0  0  0  0  0
   59.6260   32.9470   48.1240 C   0  0  0  0  0  0  0  0  0  0  0  0
   58.5650   33.5710   47.3320 N   0  0  0  0  0  0  0  0  0  0  0  0
   59.1430   33.9020   45.7270 S   0  0  0  0  0  0  0  0  0  0  0  0
   60.6210   33.6380   45.6700 O   0  0  0  0  0  0  0  0  0  0  0  0
   58.9070   35.3490   45.3910 O   0  0  0  0  0  0  0  0  0  0  0  0
   58.3280   32.8670   44.5560 C   0  0  0  0  0  0  0  0  0  0  0  0
   58.5140   33.0870   43.1860 C   0  0  0  0  0  0  0  0  0  0  0  0
   57.8880   32.2580   42.2520 C   0  0  0  0  0  0  0  0  0  0  0  0
   57.0780   31.2030   42.6800 C   0  0  0  0  0  0  0  0  0  0  0  0
   56.8860   30.9640   44.0520 C   0  0  0  0  0  0  0  0  0  0  0  0
   56.0570   29.8710   44.4900 N   0  0  0  0  0  0  0  0  0  0  0  0
   56.3340   29.2380   45.5300 O   0  0  0  0  0  0  0  0  0  0  0  0
   54.9420   29.5070   43.7700 O   0  0  0  0  0  0  0  0  0  0  0  0
   57.5200   31.8040   44.9860 C   0  0  0  0  0  0  0  0  0  0  0  0
   58.9500   30.5640   48.5930 C   0  0  0  0  0  0  0  0  0  0  0  0
   58.9720   29.2010   48.2870 C   0  0  0  0  0  0  0  0  0  0  0  0
   57.2603   27.7142   46.1382 H   0  0  0  0  0  0  0  0  0  0  0  0
   55.0255   26.8885   45.3886 H   0  0  0  0  0  0  0  0  0  0  0  0
   55.6658   23.1665   47.3602 H   0  0  0  0  0  0  0  0  0  0  0  0
   57.9142   23.9245   48.1475 H   0  0  0  0  0  0  0  0  0  0  0  0
   61.0371   29.2872   45.5615 H   0  0  0  0  0  0  0  0  0  0  0  0
   60.9871   31.7189   46.1011 H   0  0  0  0  0  0  0  0  0  0  0  0
   59.4173   33.0917   49.1943 H   0  0  0  0  0  0  0  0  0  0  0  0
   60.5912   33.4102   47.8713 H   0  0  0  0  0  0  0  0  0  0  0  0
   58.3340   34.4950   47.7660 H   0  0  0  0  0  0  0  0  0  0  0  0
   59.1540   33.9139   42.8445 H   0  0  0  0  0  0  0  0  0  0  0  0
   58.0332   32.4363   41.1763 H   0  0  0  0  0  0  0  0  0  0  0  0
   56.5874   30.5552   41.9386 H   0  0  0  0  0  0  0  0  0  0  0  0
   57.3808   31.6256   46.0625 H   0  0  0  0  0  0  0  0  0  0  0  0
   58.3544   30.9235   49.4451 H   0  0  0  0  0  0  0  0  0  0  0  0
   58.4044   28.4928   48.9085 H   0  0  0  0  0  0  0  0  0  0  0  0
  1  2  2  0
  2  3  1  0
  3  4  2  3
  4  5  1  0
  5  6  2  0
  6  7  1  0
  7  8  1  0
  8  9  2  0
  2 10  1  0
 10 11  2  0
 11 12  1  0
 12 13  2  0
 13 14  1  0
 14 15  1  0
 15 16  1  0
 16 17  2  0
 16 18  2  0
 16 19  1  0
 19 20  2  0
 20 21  1  0
 21 22  2  0
 22 23  1  0
 23 24  1  0
 24 25  2  0
 24 26  1  0
 23 27  2  0
 13 28  1  0
 28 29  2  0
  9  4  1  0
 29 10  1  0
 27 19  1  0
  5 30  1  0
  6 31  1  0
  8 32  1  0
  9 33  1  0
 11 34  1  0
 12 35  1  0
 14 36  1  0
 14 37  1  0
 15 38  1  0
 20 39  1  0
 21 40  1  0
 22 41  1  0
 27 42  1  0
 28 43  1  0
 29 44  1  0
M  CHG  3   7  -1  24   1  26  -1
M  END
>  <UniqueID>  (24) 
22

>  <SMILES>  (24) 
O=C(N=c1cc[n-]cc1)c1ccc(CNS(=O)(=O)c2cccc([N+](=O)[O-])c2)cc1

>  <Energy>  (24) 
56.342037135356286

>  <Genealogy>  (24) 
O=C(N=c1cc[n-]cc1)c1ccc(CNS(=O)(=O)c2cccc([N+](=O)[O-])c2)cc1 (protonated)
O=C(N=c1cc[n-]cc1)c1ccc(CNS(=O)(=O)c2cccc([N+](=O)[O-])c2)cc1 (3D coordinates assigned)
O=C(N=c1cc[n-]cc1)c1ccc(CNS(=O)(=O)c2cccc([N+](=O)[O-])c2)cc1 (optimized conformer: 56.342037135356286 kcal/mol)

>  <smiles>  (24) 
O=C(N=c1cc[nH]cc1)c1ccc(CNS(=O)(=O)c2cccc([N+](=O)[O-])c2)cc1

>  <score_type>  (24) 
oracle

>  <origin>  (24) 
adg

>  <m_score__min__energy>  (24) 
-11.609999999999999

>  <m_primary>  (24) 
energy

$$$$
24:0
     RDKit          3D

 46 49  0  0  0  0  0  0  0  0999 V2000
   60.3003   27.3416   49.7100 H   0  0  0  0  0  0  0  0  0  0  0  0
   60.0310   28.1730   49.0420 C   0  0  0  0  0  0  0  0  0  0  0  0
   59.5230   29.3210   49.5590 N   0  0  0  0  0  0  0  0  0  0  0  0
   59.1820   30.3570   48.7500 C   0  0  0  0  0  0  0  0  0  0  0  0
   58.7711   31.2810   49.1829 H   0  0  0  0  0  0  0  0  0  0  0  0
   59.3530   30.2490   47.3700 C   0  0  0  0  0  0  0  0  0  0  0  0
   59.0808   31.0810   46.7039 H   0  0  0  0  0  0  0  0  0  0  0  0
   59.8790   29.0580   46.8490 C   0  0  0  0  0  0  0  0  0  0  0  0
   60.1250   28.8960   45.4050 C   0  0  0  0  0  0  0  0  0  0  0  0
   61.1280   28.2510   44.9950 O   0  0  0  0  0  0  0  0  0  0  0  0
   59.2740   29.5520   44.4640 N   0  0  0  0  0  0  0  0  0  0  0  0
   57.9840   29.7350   44.5360 C   0  0  0  0  0  0  0  0  0  0  0  0
   57.0860   28.7330   44.8510 C   0  0  0  0  0  0  0  0  0  0  0  0
   57.3610   27.3200   45.1850 C   0  0  0  0  0  0  0  0  0  0  0  0
   57.0950   26.8810   46.4930 C   0  0  0  0  0  0  0  0  0  0  0  0
   56.6735   27.5823   47.2282 H   0  0  0  0  0  0  0  0  0  0  0  0
   57.3610   25.5620   46.8680 C   0  0  0  0  0  0  0  0  0  0  0  0
   57.1514   25.2299   47.8955 H   0  0  0  0  0  0  0  0  0  0  0  0
   57.8920   24.6660   45.9410 C   0  0  0  0  0  0  0  0  0  0  0  0
   58.1142   23.6317   46.2423 H   0  0  0  0  0  0  0  0  0  0  0  0
   58.1420   25.0790   44.6320 C   0  0  0  0  0  0  0  0  0  0  0  0
   58.5631   24.3667   43.9072 H   0  0  0  0  0  0  0  0  0  0  0  0
   57.8610   26.3970   44.2300 C   0  0  0  0  0  0  0  0  0  0  0  0
   58.1140   26.7780   42.7950 C   0  0  0  0  0  0  0  0  0  0  0  0
   58.7222   27.6939   42.7606 H   0  0  0  0  0  0  0  0  0  0  0  0
   58.6505   25.9623   42.2882 H   0  0  0  0  0  0  0  0  0  0  0  0
   57.1541   26.9560   42.2882 H   0  0  0  0  0  0  0  0  0  0  0  0
   55.8560   29.3570   44.8650 C   0  0  0  0  0  0  0  0  0  0  0  0
   54.9007   28.8735   45.1171 H   0  0  0  0  0  0  0  0  0  0  0  0
   56.0070   30.6500   44.5220 N   0  0  0  0  0  0  0  0  0  0  0  0
   57.2960   30.8880   44.3190 N   0  0  0  0  0  0  0  0  0  0  0  0
   57.7540   32.1790   43.7920 C   0  0  0  0  0  0  0  0  0  0  0  0
   58.5657   31.9996   43.0716 H   0  0  0  0  0  0  0  0  0  0  0  0
   56.8952   32.6720   43.3131 H   0  0  0  0  0  0  0  0  0  0  0  0
   58.2640   33.0920   44.8820 C   0  0  0  0  0  0  0  0  0  0  0  0
   59.1660   34.1370   44.6010 C   0  0  0  0  0  0  0  0  0  0  0  0
   59.5170   34.2948   43.5705 H   0  0  0  0  0  0  0  0  0  0  0  0
   59.6170   34.9740   45.6250 C   0  0  0  0  0  0  0  0  0  0  0  0
   60.3365   35.7756   45.4018 H   0  0  0  0  0  0  0  0  0  0  0  0
   59.1560   34.7950   46.9320 C   0  0  0  0  0  0  0  0  0  0  0  0
   59.5201   35.4487   47.7383 H   0  0  0  0  0  0  0  0  0  0  0  0
   58.2330   33.7860   47.2140 C   0  0  0  0  0  0  0  0  0  0  0  0
   57.8617   33.6523   48.2408 H   0  0  0  0  0  0  0  0  0  0  0  0
   57.7800   32.9450   46.1920 C   0  0  0  0  0  0  0  0  0  0  0  0
   57.0395   32.1631   46.4161 H   0  0  0  0  0  0  0  0  0  0  0  0
   60.2070   28.0500   47.7010 N   0  0  0  0  0  0  0  0  0  0  0  0
  1  2  1  0
  2  3  2  0
  3  4  1  0
  4  5  1  0
  4  6  2  0
  6  7  1  0
  6  8  1  0
  8  9  1  0
  9 10  2  0
  9 11  1  0
 11 12  2  0
 12 13  1  0
 13 14  1  0
 14 15  2  0
 15 16  1  0
 15 17  1  0
 17 18  1  0
 17 19  2  0
 19 20  1  0
 19 21  1  0
 21 22  1  0
 21 23  2  0
 23 24  1  0
 24 25  1  0
 24 26  1  0
 24 27  1  0
 13 28  2  0
 28 29  1  0
 28 30  1  0
 30 31  1  0
 31 32  1  0
 32 33  1  0
 32 34  1  0
 32 35  1  0
 35 36  2  0
 36 37  1  0
 36 38  1  0
 38 39  1  0
 38 40  2  0
 40 41  1  0
 40 42  1  0
 42 43  1  0
 42 44  2  0
 44 45  1  0
  8 46  2  0
 46  2  1  0
 31 12  1  0
 44 35  1  0
 23 14  1  0
M  CHG  1  30  -1
M  END
>  <UniqueID>  (25) 
23

>  <SMILES>  (25) 
Cc1ccccc1-c1c[n-]n(Cc2ccccc2)/c1=N\C(=O)c1ccncn1

>  <Energy>  (25) 
99.11425514912376

>  <Genealogy>  (25) 
Cc1ccccc1-c1c[n-]n(Cc2ccccc2)c1=NC(=O)c1ccncn1 (protonated)
Cc1ccccc1-c1c[n-]n(Cc2ccccc2)/c1=N\C(=O)c1ccncn1 (cis-trans isomerization)
Cc1ccccc1-c1c[n-]n(Cc2ccccc2)/c1=N\C(=O)c1ccncn1 (3D coordinates assigned)
Cc1ccccc1-c1c[n-]n(Cc2ccccc2)/c1=N\C(=O)c1ccncn1 (optimized conformer: 99.11425514912376 kcal/mol)

>  <smiles>  (25) 
Cc1ccccc1-c1c[nH]n(Cc2ccccc2)c1=NC(=O)c1ccncn1

>  <score_type>  (25) 
oracle

>  <origin>  (25) 
adg

>  <m_score__min__energy>  (25) 
-9.6500000000000004

>  <m_primary>  (25) 
energy

$$$$
25:0
     RDKit          3D

 61 64  0  0  0  0  0  0  0  0999 V2000
   65.6270   32.8120   49.7850 C   0  0  0  0  0  0  0  0  0  0  0  0
   64.5580   32.5590   48.8790 O   0  0  0  0  0  0  0  0  0  0  0  0
   63.3510   31.9210   49.2120 C   0  0  0  0  0  0  0  0  0  0  0  0
   63.1950   31.2940   50.4590 C   0  0  0  0  0  0  0  0  0  0  0  0
   61.9900   30.6890   50.8010 C   0  0  0  0  0  0  0  0  0  0  0  0
   60.9210   30.7030   49.9090 C   0  0  0  0  0  0  0  0  0  0  0  0
   61.0380   31.3040   48.6390 C   0  0  0  0  0  0  0  0  0  0  0  0
   59.8370   31.2180   47.6860 C   0  0  2  0  0  0  0  0  0  0  0  0
   58.6080   31.9280   48.2410 C   0  0  0  0  0  0  0  0  0  0  0  0
   58.4360   31.9860   49.4840 O   0  0  0  0  0  0  0  0  0  0  0  0
   57.6730   32.6490   47.4170 N   0  0  0  0  0  0  0  0  0  0  0  0
   57.7960   33.9040   46.6570 C   0  0  0  0  0  0  0  0  0  0  0  0
   57.7280   33.6860   45.1420 C   0  0  0  0  0  0  0  0  0  0  0  0
   59.0130   34.2560   44.5460 C   0  0  0  0  0  0  0  0  0  0  0  0
   59.6690   35.1100   45.6280 C   0  0  0  0  0  0  0  0  0  0  0  0
   59.0780   34.6780   46.9690 C   0  0  0  0  0  0  0  0  0  0  0  0
   59.6210   29.8430   47.1600 N   0  0  0  0  0  0  0  0  0  0  0  0
   59.9140   28.5860   47.8790 C   0  0  0  0  0  0  0  0  0  0  0  0
   59.3220   27.3520   47.2410 C   0  0  0  0  0  0  0  0  0  0  0  0
   57.9310   27.1830   47.1210 C   0  0  0  0  0  0  0  0  0  0  0  0
   57.4050   26.0570   46.4820 C   0  0  0  0  0  0  0  0  0  0  0  0
   58.2600   25.1030   45.9220 C   0  0  0  0  0  0  0  0  0  0  0  0
   57.7460   24.0230   45.2860 F   0  0  0  0  0  0  0  0  0  0  0  0
   59.6440   25.2770   46.0000 C   0  0  0  0  0  0  0  0  0  0  0  0
   60.1760   26.3950   46.6530 C   0  0  0  0  0  0  0  0  0  0  0  0
   59.5040   29.7410   45.7230 C   0  0  0  0  0  0  0  0  0  0  0  0
   60.4870   29.3380   45.0460 O   0  0  0  0  0  0  0  0  0  0  0  0
   58.2500   30.0850   45.0290 C   0  0  0  0  0  0  0  0  0  0  0  0
   58.2170   30.6710   43.7630 C   0  0  0  0  0  0  0  0  0  0  0  0
   56.5930   30.8000   43.4060 S   0  0  0  0  0  0  0  0  0  0  0  0
   55.9890   30.1150   44.7860 N   0  0  0  0  0  0  0  0  0  0  0  0
   57.0230   29.7850   45.5540 N   0  0  0  0  0  0  0  0  0  0  0  0
   62.2650   31.9290   48.2930 C   0  0  0  0  0  0  0  0  0  0  0  0
   62.3510   32.5810   47.0540 O   0  0  0  0  0  0  0  0  0  0  0  0
   63.0060   33.8280   46.8010 C   0  0  0  0  0  0  0  0  0  0  0  0
   65.2601   32.7252   50.8184 H   0  0  0  0  0  0  0  0  0  0  0  0
   66.4302   32.0791   49.6183 H   0  0  0  0  0  0  0  0  0  0  0  0
   66.0165   33.8271   49.6183 H   0  0  0  0  0  0  0  0  0  0  0  0
   64.0330   31.2812   51.1715 H   0  0  0  0  0  0  0  0  0  0  0  0
   61.8813   30.1979   51.7793 H   0  0  0  0  0  0  0  0  0  0  0  0
   59.9682   30.2369   50.2003 H   0  0  0  0  0  0  0  0  0  0  0  0
   60.0799   31.7945   46.7812 H   0  0  0  0  0  0  0  0  0  0  0  0
   56.9309   34.4993   46.9843 H   0  0  0  0  0  0  0  0  0  0  0  0
   57.6532   32.6115   44.9188 H   0  0  0  0  0  0  0  0  0  0  0  0
   56.8450   34.1839   44.7150 H   0  0  0  0  0  0  0  0  0  0  0  0
   59.6869   33.4384   44.2503 H   0  0  0  0  0  0  0  0  0  0  0  0
   58.7964   34.8569   43.6505 H   0  0  0  0  0  0  0  0  0  0  0  0
   60.7571   34.9485   45.6267 H   0  0  0  0  0  0  0  0  0  0  0  0
   59.4825   36.1788   45.4467 H   0  0  0  0  0  0  0  0  0  0  0  0
   59.7889   34.0329   47.5061 H   0  0  0  0  0  0  0  0  0  0  0  0
   58.8683   35.5490   47.6073 H   0  0  0  0  0  0  0  0  0  0  0  0
   61.0060   28.4609   47.9229 H   0  0  0  0  0  0  0  0  0  0  0  0
   59.4535   28.6777   48.8738 H   0  0  0  0  0  0  0  0  0  0  0  0
   57.2515   27.9434   47.5335 H   0  0  0  0  0  0  0  0  0  0  0  0
   56.3152   25.9209   46.4194 H   0  0  0  0  0  0  0  0  0  0  0  0
   60.3170   24.5339   45.5473 H   0  0  0  0  0  0  0  0  0  0  0  0
   61.2665   26.5283   46.7081 H   0  0  0  0  0  0  0  0  0  0  0  0
   59.0702   30.9786   43.1405 H   0  0  0  0  0  0  0  0  0  0  0  0
   63.2591   34.3098   47.7569 H   0  0  0  0  0  0  0  0  0  0  0  0
   63.9263   33.6487   46.2258 H   0  0  0  0  0  0  0  0  0  0  0  0
   62.3361   34.4840   46.2258 H   0  0  0  0  0  0  0  0  0  0  0  0
  1  2  1  0
  2  3  1  0
  3  4  2  0
  4  5  1  0
  5  6  2  0
  6  7  1  0
  7  8  1  0
  8  9  1  0
  9 10  2  0
  9 11  1  0
 11 12  1  0
 12 13  1  0
 13 14  1  0
 14 15  1  0
 15 16  1  0
  8 17  1  0
 17 18  1  0
 18 19  1  0
 19 20  2  0
 20 21  1  0
 21 22  2  0
 22 23  1  0
 22 24  1  0
 24 25  2  0
 17 26  1  0
 26 27  2  0
 26 28  1  0
 28 29  2  0
 29 30  1  0
 30 31  1  0
 31 32  2  0
  7 33  2  0
 33 34  1  0
 34 35  1  0
 33  3  1  0
 16 12  1  0
 25 19  1  0
 32 28  1  0
  1 36  1  0
  1 37  1  0
  1 38  1  0
  4 39  1  0
  5 40  1  0
  6 41  1  0
  8 42  1  6
 12 43  1  0
 13 44  1  0
 13 45  1  0
 14 46  1  0
 14 47  1  0
 15 48  1  0
 15 49  1  0
 16 50  1  0
 16 51  1  0
 18 52  1  0
 18 53  1  0
 20 54  1  0
 21 55  1  0
 24 56  1  0
 25 57  1  0
 29 58  1  0
 35 59  1  0
 35 60  1  0
 35 61  1  0
M  CHG  1  11  -1
M  END
>  <UniqueID>  (26) 
24

>  <SMILES>  (26) 
COc1cccc([C@H](C(=O)[N-]C2CCCC2)N(Cc2ccc(F)cc2)C(=O)c2csnn2)c1OC

>  <Energy>  (26) 
124.0850428227605

>  <Genealogy>  (26) 
COc1cccc(C(C(=O)[N-]C2CCCC2)N(Cc2ccc(F)cc2)C(=O)c2csnn2)c1OC (protonated)
COc1cccc([C@H](C(=O)[N-]C2CCCC2)N(Cc2ccc(F)cc2)C(=O)c2csnn2)c1OC (chirality)
COc1cccc([C@H](C(=O)[N-]C2CCCC2)N(Cc2ccc(F)cc2)C(=O)c2csnn2)c1OC (3D coordinates assigned)
COc1cccc([C@H](C(=O)[N-]C2CCCC2)N(Cc2ccc(F)cc2)C(=O)c2csnn2)c1OC (nonaromatic ring conformer: 124.0850428227605 kcal/mol)

>  <smiles>  (26) 
COc1cccc(C(C(=O)NC2CCCC2)N(Cc2ccc(F)cc2)C(=O)c2csnn2)c1OC

>  <score_type>  (26) 
oracle

>  <origin>  (26) 
adg

>  <m_score__min__energy>  (26) 
-9.75

>  <m_primary>  (26) 
energy

$$$$
26:0
     RDKit          3D

 48 50  0  0  0  0  0  0  0  0999 V2000
   55.8980   19.7270   44.5040 C   0  0  0  0  0  0  0  0  0  0  0  0
   55.9130   20.8690   43.6550 O   0  0  0  0  0  0  0  0  0  0  0  0
   56.1850   22.1760   44.0900 C   0  0  0  0  0  0  0  0  0  0  0  0
   55.2310   22.8250   44.8830 C   0  0  0  0  0  0  0  0  0  0  0  0
   55.4560   24.1260   45.3410 C   0  0  0  0  0  0  0  0  0  0  0  0
   56.6390   24.7970   45.0040 C   0  0  0  0  0  0  0  0  0  0  0  0
   56.9300   26.4280   45.5980 S   0  0  0  0  0  0  0  0  0  0  0  0
   57.7720   26.3710   46.8420 O   0  0  0  0  0  0  0  0  0  0  0  0
   55.6200   27.0860   45.9320 O   0  0  0  0  0  0  0  0  0  0  0  0
   57.7750   27.3650   44.3370 C   0  0  0  0  0  0  0  0  0  0  0  0
   57.7950   28.8250   44.6930 C   0  0  0  0  0  0  0  0  0  0  0  0
   57.3360   29.7830   43.7760 C   0  0  0  0  0  0  0  0  0  0  0  0
   57.3250   31.1380   44.1190 C   0  0  0  0  0  0  0  0  0  0  0  0
   57.7620   31.5480   45.3860 C   0  0  0  0  0  0  0  0  0  0  0  0
   57.7700   33.2550   45.8280 S   0  0  0  0  0  0  0  0  0  0  0  0
   57.1640   33.3940   47.1980 O   0  0  0  0  0  0  0  0  0  0  0  0
   56.9370   34.0420   44.8540 O   0  0  0  0  0  0  0  0  0  0  0  0
   59.4130   33.8560   45.8420 N   0  0  0  0  0  0  0  0  0  0  0  0
   60.3320   32.8660   46.4140 C   0  0  0  0  0  0  0  0  0  0  0  0
   60.4760   33.1720   47.8990 C   0  0  0  0  0  0  0  0  0  0  0  0
   59.9570   34.5880   48.0780 C   0  0  0  0  0  0  0  0  0  0  0  0
   59.5340   35.0490   46.6900 C   0  0  0  0  0  0  0  0  0  0  0  0
   58.2130   30.5930   46.3050 C   0  0  0  0  0  0  0  0  0  0  0  0
   58.2260   29.2380   45.9640 C   0  0  0  0  0  0  0  0  0  0  0  0
   57.6000   24.1510   44.2180 C   0  0  0  0  0  0  0  0  0  0  0  0
   57.3770   22.8490   43.7590 C   0  0  0  0  0  0  0  0  0  0  0  0
   55.9023   20.0514   45.5551 H   0  0  0  0  0  0  0  0  0  0  0  0
   54.9920   19.1352   44.3066 H   0  0  0  0  0  0  0  0  0  0  0  0
   56.7881   19.1116   44.3066 H   0  0  0  0  0  0  0  0  0  0  0  0
   54.2974   22.3070   45.1475 H   0  0  0  0  0  0  0  0  0  0  0  0
   54.7022   24.6247   45.9679 H   0  0  0  0  0  0  0  0  0  0  0  0
   58.8087   27.0001   44.2460 H   0  0  0  0  0  0  0  0  0  0  0  0
   57.2435   27.2381   43.3823 H   0  0  0  0  0  0  0  0  0  0  0  0
   56.9835   29.4663   42.7833 H   0  0  0  0  0  0  0  0  0  0  0  0
   56.9723   31.8848   43.3924 H   0  0  0  0  0  0  0  0  0  0  0  0
   59.6900   34.0810   44.8570 H   0  0  0  0  0  0  0  0  0  0  0  0
   59.9241   31.8535   46.2779 H   0  0  0  0  0  0  0  0  0  0  0  0
   61.3105   32.9144   45.9139 H   0  0  0  0  0  0  0  0  0  0  0  0
   59.8794   32.4664   48.4958 H   0  0  0  0  0  0  0  0  0  0  0  0
   61.5192   33.0761   48.2344 H   0  0  0  0  0  0  0  0  0  0  0  0
   59.0973   34.5977   48.7642 H   0  0  0  0  0  0  0  0  0  0  0  0
   60.7220   35.2497   48.5105 H   0  0  0  0  0  0  0  0  0  0  0  0
   58.5661   35.5685   46.7464 H   0  0  0  0  0  0  0  0  0  0  0  0
   60.2758   35.7456   46.2722 H   0  0  0  0  0  0  0  0  0  0  0  0
   58.5586   30.9107   47.2998 H   0  0  0  0  0  0  0  0  0  0  0  0
   58.5750   28.4924   46.6936 H   0  0  0  0  0  0  0  0  0  0  0  0
   58.5351   24.6698   43.9601 H   0  0  0  0  0  0  0  0  0  0  0  0
   58.1347   22.3491   43.1377 H   0  0  0  0  0  0  0  0  0  0  0  0
  1  2  1  0
  2  3  1  0
  3  4  2  0
  4  5  1  0
  5  6  2  0
  6  7  1  0
  7  8  2  0
  7  9  2  0
  7 10  1  0
 10 11  1  0
 11 12  2  0
 12 13  1  0
 13 14  2  0
 14 15  1  0
 15 16  2  0
 15 17  2  0
 15 18  1  0
 18 19  1  0
 19 20  1  0
 20 21  1  0
 21 22  1  0
 14 23  1  0
 23 24  2  0
  6 25  1  0
 25 26  2  0
 26  3  1  0
 24 11  1  0
 22 18  1  0
  1 27  1  0
  1 28  1  0
  1 29  1  0
  4 30  1  0
  5 31  1  0
 10 32  1  0
 10 33  1  0
 12 34  1  0
 13 35  1  0
 18 36  1  0
 19 37  1  0
 19 38  1  0
 20 39  1  0
 20 40  1  0
 21 41  1  0
 21 42  1  0
 22 43  1  0
 22 44  1  0
 23 45  1  0
 24 46  1  0
 25 47  1  0
 26 48  1  0
M  CHG  1  18   1
M  END
>  <UniqueID>  (27) 
25

>  <SMILES>  (27) 
COc1ccc(S(=O)(=O)Cc2ccc(S(=O)(=O)[NH+]3CCCC3)cc2)cc1

>  <Energy>  (27) 
46.25321830658951

>  <Genealogy>  (27) 
COc1ccc(S(=O)(=O)Cc2ccc(S(=O)(=O)[NH+]3CCCC3)cc2)cc1 (protonated)
COc1ccc(S(=O)(=O)Cc2ccc(S(=O)(=O)[NH+]3CCCC3)cc2)cc1 (3D coordinates assigned)
COc1ccc(S(=O)(=O)Cc2ccc(S(=O)(=O)[NH+]3CCCC3)cc2)cc1 (nonaromatic ring conformer: 46.25321830658951 kcal/mol)

>  <smiles>  (27) 
COc1ccc(S(=O)(=O)Cc2ccc(S(=O)(=O)N3CCCC3)cc2)cc1

>  <score_type>  (27) 
oracle

>  <origin>  (27) 
adg

>  <m_score__min__energy>  (27) 
-7.8499999999999996

>  <m_primary>  (27) 
energy

$$$$
27:0
     RDKit          3D

 62 66  0  0  1  0  0  0  0  0999 V2000
   66.3290   31.6080   50.4890 C   0  0  0  0  0  0  0  0  0  0  0  0
   66.3450   33.0720   50.1330 C   0  0  0  0  0  0  0  0  0  0  0  0
   65.0350   33.6190   50.1470 O   0  0  0  0  0  0  0  0  0  0  0  0
   64.0370   33.1880   49.2920 C   0  0  0  0  0  0  0  0  0  0  0  0
   64.1320   33.4620   47.9430 C   0  0  0  0  0  0  0  0  0  0  0  0
   63.1420   33.0360   47.0830 C   0  0  0  0  0  0  0  0  0  0  0  0
   62.0560   32.3290   47.6060 C   0  0  0  0  0  0  0  0  0  0  0  0
   61.9790   32.0620   48.9750 C   0  0  0  0  0  0  0  0  0  0  0  0
   60.8270   31.3100   49.5350 C   0  0  0  0  0  0  0  0  0  0  0  0
   60.2480   30.3790   48.5980 N   0  0  0  0  0  0  0  0  0  0  0  0
   60.7270   29.0410   48.5620 C   0  0  0  0  0  0  0  0  0  0  0  0
   60.3320   28.0340   47.8430 N   0  0  0  0  0  0  0  0  0  0  0  0
   59.2770   28.0150   46.8740 C   0  0  0  0  0  0  0  0  0  0  0  0
   59.1820   26.8180   46.2480 N   0  0  0  0  0  0  0  0  0  0  0  0
   58.2460   26.6200   45.3050 C   0  0  0  0  0  0  0  0  0  0  0  0
   58.1730   25.4700   44.7210 N   0  0  0  0  0  0  0  0  0  0  0  0
   56.9590   24.7460   44.5570 C   0  0  0  0  0  0  0  0  0  0  0  0
   56.7330   23.9710   43.4380 C   0  0  0  0  0  0  0  0  0  0  0  0
   55.5190   23.2920   43.3510 C   0  0  0  0  0  0  0  0  0  0  0  0
   54.5750   23.4010   44.3640 C   0  0  0  0  0  0  0  0  0  0  0  0
   54.8040   24.1750   45.4820 C   0  0  0  0  0  0  0  0  0  0  0  0
   56.0080   24.8400   45.5550 C   0  0  0  0  0  0  0  0  0  0  0  0
   57.3630   27.5520   44.9200 N   0  0  0  0  0  0  0  0  0  0  0  0
   57.4120   28.7570   45.5080 C   0  0  0  0  0  0  0  0  0  0  0  0
   56.6160   29.7180   45.2140 N   0  0  0  0  0  0  0  0  0  0  0  0
   56.9920   30.6120   44.1710 C   0  0  0  0  0  0  0  0  0  0  0  0
   56.6450   30.3310   42.8580 C   0  0  0  0  0  0  0  0  0  0  0  0
   57.0470   31.2480   41.8960 C   0  0  0  0  0  0  0  0  0  0  0  0
   57.7550   32.3800   42.2370 C   0  0  0  0  0  0  0  0  0  0  0  0
   58.0950   32.6500   43.5590 C   0  0  0  0  0  0  0  0  0  0  0  0
   57.7020   31.7460   44.5250 C   0  0  0  0  0  0  0  0  0  0  0  0
   58.3760   28.9810   46.4870 C   0  0  0  0  0  0  0  0  0  0  0  0
   58.2640   30.3140   46.9860 N   0  0  0  0  0  0  0  0  0  0  0  0
   59.2130   30.9860   47.7990 C   0  0  0  0  0  0  0  0  0  0  0  0
   59.1260   32.2330   47.8110 O   0  0  0  0  0  0  0  0  0  0  0  0
   62.9790   32.4950   49.8260 C   0  0  0  0  0  0  0  0  0  0  0  0
   62.8540   32.2020   51.1780 O   0  0  0  0  0  0  0  0  0  0  0  0
   66.3278   31.4968   51.5834 H   0  0  0  0  0  0  0  0  0  0  0  0
   65.4257   31.1390   50.0718 H   0  0  0  0  0  0  0  0  0  0  0  0
   67.2219   31.1194   50.0718 H   0  0  0  0  0  0  0  0  0  0  0  0
   66.9668   33.6117   50.8624 H   0  0  0  0  0  0  0  0  0  0  0  0
   66.7558   33.1788   49.1182 H   0  0  0  0  0  0  0  0  0  0  0  0
   64.9967   34.0197   47.5540 H   0  0  0  0  0  0  0  0  0  0  0  0
   63.2059   33.2486   46.0056 H   0  0  0  0  0  0  0  0  0  0  0  0
   61.2567   31.9805   46.9354 H   0  0  0  0  0  0  0  0  0  0  0  0
   61.1704   30.7502   50.4174 H   0  0  0  0  0  0  0  0  0  0  0  0
   60.0490   32.0448   49.7895 H   0  0  0  0  0  0  0  0  0  0  0  0
   61.5595   28.8256   49.2480 H   0  0  0  0  0  0  0  0  0  0  0  0
   59.8310   26.0460   46.4910 H   0  0  0  0  0  0  0  0  0  0  0  0
   57.4865   23.8917   42.6405 H   0  0  0  0  0  0  0  0  0  0  0  0
   55.3067   22.6646   42.4728 H   0  0  0  0  0  0  0  0  0  0  0  0
   53.6230   22.8575   44.2723 H   0  0  0  0  0  0  0  0  0  0  0  0
   54.0551   24.2580   46.2834 H   0  0  0  0  0  0  0  0  0  0  0  0
   56.2190   25.4653   46.4351 H   0  0  0  0  0  0  0  0  0  0  0  0
   56.6440   27.4010   44.1960 H   0  0  0  0  0  0  0  0  0  0  0  0
   56.0791   29.4261   42.5918 H   0  0  0  0  0  0  0  0  0  0  0  0
   56.7953   31.0672   40.8406 H   0  0  0  0  0  0  0  0  0  0  0  0
   58.0575   33.0844   41.4481 H   0  0  0  0  0  0  0  0  0  0  0  0
   58.6594   33.5557   43.8258 H   0  0  0  0  0  0  0  0  0  0  0  0
   57.9540   31.9275   45.5802 H   0  0  0  0  0  0  0  0  0  0  0  0
   57.3980   30.8390   46.7220 H   0  0  0  0  0  0  0  0  0  0  0  0
   63.5640   32.4970   51.8320 H   0  0  0  0  0  0  0  0  0  0  0  0
  1  2  1  0
  2  3  1  0
  3  4  1  0
  4  5  2  0
  5  6  1  0
  6  7  2  0
  7  8  1  0
  8  9  1  0
  9 10  1  0
 10 11  1  0
 11 12  2  0
 12 13  1  0
 13 14  1  0
 14 15  1  0
 15 16  2  0
 16 17  1  0
 17 18  2  0
 18 19  1  0
 19 20  2  0
 20 21  1  0
 21 22  2  0
 15 23  1  0
 23 24  1  0
 24 25  2  0
 25 26  1  0
 26 27  2  0
 27 28  1  0
 28 29  2  0
 29 30  1  0
 30 31  2  0
 24 32  1  0
 32 33  1  0
 33 34  1  0
 34 35  2  0
  8 36  2  0
 36 37  1  0
 36  4  1  0
 34 10  1  0
 32 13  2  0
 22 17  1  0
 31 26  1  0
  1 38  1  0
  1 39  1  0
  1 40  1  0
  2 41  1  0
  2 42  1  0
  5 43  1  0
  6 44  1  0
  7 45  1  0
  9 46  1  0
  9 47  1  0
 11 48  1  0
 14 49  1  0
 18 50  1  0
 19 51  1  0
 20 52  1  0
 21 53  1  0
 22 54  1  0
 23 55  1  0
 27 56  1  0
 28 57  1  0
 29 58  1  0
 30 59  1  0
 31 60  1  0
 33 61  1  0
 37 62  1  0
M  END
>  <smiles>  (28) 
CCOc1cccc(CN2C=Nc3[nH]c(=Nc4ccccc4)[nH]c(=Nc4ccccc4)c3NC2=O)c1O

>  <score_type>  (28) 
oracle

>  <origin>  (28) 
adg

>  <m_score__min__energy>  (28) 
-10.279999999999999

>  <m_primary>  (28) 
energy

$$$$
28:0
     RDKit          3D

 47 50  0  0  1  0  0  0  0  0999 V2000
   55.5530   26.5260   46.0260 N   0  0  0  0  0  0  0  0  0  0  0  0
   56.6540   26.9080   45.9120 C   0  0  0  0  0  0  0  0  0  0  0  0
   58.0270   27.3630   45.7580 C   0  0  0  0  0  0  0  0  0  0  0  0
   58.9920   26.7760   46.5130 C   0  0  0  0  0  0  0  0  0  0  0  0
   60.2960   27.2000   46.3730 C   0  0  0  0  0  0  0  0  0  0  0  0
   63.2600   33.4290   49.2280 C   0  0  0  0  0  0  0  0  0  0  0  0
   62.1500   32.6110   49.3730 C   0  0  0  0  0  0  0  0  0  0  0  0
   61.7330   31.7370   48.3700 C   0  0  0  0  0  0  0  0  0  0  0  0
   60.5380   30.8640   48.5220 C   0  0  0  0  0  0  0  0  0  0  0  0
   59.3220   31.4090   48.1680 N   0  0  0  0  0  0  0  0  0  0  0  0
   58.8140   31.6790   47.0890 C   0  0  0  0  0  0  0  0  0  0  0  0
   58.0230   30.7710   46.4800 N   0  0  0  0  0  0  0  0  0  0  0  0
   57.3920   30.9710   45.3180 C   0  0  0  0  0  0  0  0  0  0  0  0
   56.6560   30.0630   44.7960 N   0  0  0  0  0  0  0  0  0  0  0  0
   57.2030   28.9480   44.0810 C   0  0  0  0  0  0  0  0  0  0  0  0
   58.3470   28.3670   44.8670 C   0  0  0  0  0  0  0  0  0  0  0  0
   59.6460   28.8230   44.6950 C   0  0  0  0  0  0  0  0  0  0  0  0
   60.6300   28.2120   45.4770 C   0  0  0  0  0  0  0  0  0  0  0  0
   64.0090   33.4160   48.0750 C   0  0  0  0  0  0  0  0  0  0  0  0
   63.6260   32.5700   47.0760 C   0  0  0  0  0  0  0  0  0  0  0  0
   62.5250   31.7620   47.2260 C   0  0  0  0  0  0  0  0  0  0  0  0
   58.9950   32.8940   46.4900 C   0  0  0  0  0  0  0  0  0  0  0  0
   59.7940   33.8180   47.0790 C   0  0  0  0  0  0  0  0  0  0  0  0
   59.9310   35.0470   46.3940 C   0  0  0  0  0  0  0  0  0  0  0  0
   59.2740   35.2230   45.2180 C   0  0  0  0  0  0  0  0  0  0  0  0
   58.4640   34.2830   44.6160 C   0  0  0  0  0  0  0  0  0  0  0  0
   58.3340   33.0850   45.2900 C   0  0  0  0  0  0  0  0  0  0  0  0
   57.5540   32.1560   44.7140 N   0  0  0  0  0  0  0  0  0  0  0  0
   58.7370   25.9761   47.2238 H   0  0  0  0  0  0  0  0  0  0  0  0
   61.0855   26.7313   46.9789 H   0  0  0  0  0  0  0  0  0  0  0  0
   63.5467   34.1008   50.0505 H   0  0  0  0  0  0  0  0  0  0  0  0
   61.5785   32.6530   50.3120 H   0  0  0  0  0  0  0  0  0  0  0  0
   60.4747   30.5673   49.5793 H   0  0  0  0  0  0  0  0  0  0  0  0
   60.6969   30.0328   47.8192 H   0  0  0  0  0  0  0  0  0  0  0  0
   57.8690   29.8220   46.9220 H   0  0  0  0  0  0  0  0  0  0  0  0
   57.5653   29.2836   43.0981 H   0  0  0  0  0  0  0  0  0  0  0  0
   56.4256   28.1826   43.9407 H   0  0  0  0  0  0  0  0  0  0  0  0
   59.8887   29.6235   43.9806 H   0  0  0  0  0  0  0  0  0  0  0  0
   61.6778   28.5335   45.3838 H   0  0  0  0  0  0  0  0  0  0  0  0
   64.8886   34.0668   47.9619 H   0  0  0  0  0  0  0  0  0  0  0  0
   64.2043   32.5343   46.1410 H   0  0  0  0  0  0  0  0  0  0  0  0
   62.2538   31.0962   46.3935 H   0  0  0  0  0  0  0  0  0  0  0  0
   60.3052   33.6227   48.0332 H   0  0  0  0  0  0  0  0  0  0  0  0
   60.5603   35.8490   46.8071 H   0  0  0  0  0  0  0  0  0  0  0  0
   59.3975   36.1892   44.7068 H   0  0  0  0  0  0  0  0  0  0  0  0
   57.9543   34.4753   43.6604 H   0  0  0  0  0  0  0  0  0  0  0  0
   57.0770   32.3510   43.8070 H   0  0  0  0  0  0  0  0  0  0  0  0
  1  2  3  0
  2  3  1  0
  3  4  2  0
  4  5  1  0
  5  6  2  0
  6  7  1  0
  7  8  2  0
  8  9  1  0
  9 10  1  0
 10 11  2  0
 11 12  1  0
 12 13  1  0
 13 14  2  0
 14 15  1  0
 15 16  1  0
 16 17  2  0
 17 18  1  0
 18 19  2  0
 19 20  1  0
 20 21  2  0
 13 22  1  0
 22 23  2  0
 23 24  1  0
 24 25  2  0
 25 26  1  0
 26 27  2  0
 27 28  1  0
  8  3  1  0
 28 11  1  0
 21 16  1  0
 27 22  1  0
  4 29  1  0
  5 30  1  0
  6 31  1  0
  7 32  1  0
  9 33  1  0
  9 34  1  0
 12 35  1  0
 15 36  1  0
 15 37  1  0
 17 38  1  0
 18 39  1  0
 19 40  1  0
 20 41  1  0
 21 42  1  0
 23 43  1  0
 24 44  1  0
 25 45  1  0
 26 46  1  0
 28 47  1  0
M  END
>  <smiles>  (29) 
N#Cc1ccccc1CN=c1[nH]c(=NCc2ccccc2)c2ccccc2[nH]1

>  <score_type>  (29) 
oracle

>  <origin>  (29) 
adg

>  <m_score__min__energy>  (29) 
-9.0600000000000005

>  <m_primary>  (29) 
energy

$$$$
29:0
     RDKit          3D

 46 49  0  0  0  0  0  0  0  0999 V2000
   56.1630   26.0300   46.3610 C   0  0  0  0  0  0  0  0  0  0  0  0
   57.2310   27.0820   46.4840 C   0  0  0  0  0  0  0  0  0  0  0  0
   58.3950   26.8200   47.2230 C   0  0  0  0  0  0  0  0  0  0  0  0
   59.4160   27.7770   47.3150 C   0  0  0  0  0  0  0  0  0  0  0  0
   60.6070   27.5040   48.0660 N   0  0  0  0  0  0  0  0  0  0  0  0
   60.7720   27.5410   49.3630 C   0  0  0  0  0  0  0  0  0  0  0  0
   60.8670   26.3500   50.0150 N   0  0  0  0  0  0  0  0  0  0  0  0
   61.0440   26.2560   51.3590 C   0  0  0  0  0  0  0  0  0  0  0  0
   61.1140   27.4070   52.1320 C   0  0  0  0  0  0  0  0  0  0  0  0
   61.0060   28.6510   51.5160 C   0  0  0  0  0  0  0  0  0  0  0  0
   60.8440   28.7430   50.1210 C   0  0  0  0  0  0  0  0  0  0  0  0
   60.6900   30.0230   49.4950 N   0  0  0  0  0  0  0  0  0  0  0  0
   59.4630   31.1860   49.8720 S   0  0  0  0  0  0  0  0  0  0  0  0
   59.7690   31.8160   51.1960 O   0  0  0  0  0  0  0  0  0  0  0  0
   58.1390   30.4860   49.9680 O   0  0  0  0  0  0  0  0  0  0  0  0
   59.4080   32.4330   48.6340 C   0  0  0  0  0  0  0  0  0  0  0  0
   58.2270   32.6580   47.9160 C   0  0  0  0  0  0  0  0  0  0  0  0
   58.1930   33.6170   46.8990 C   0  0  0  0  0  0  0  0  0  0  0  0
   59.3380   34.3650   46.5840 C   0  0  0  0  0  0  0  0  0  0  0  0
   59.3090   35.3330   45.5180 N   0  0  0  0  0  0  0  0  0  0  0  0
   58.6180   35.1310   44.4970 O   0  0  0  0  0  0  0  0  0  0  0  0
   60.0190   36.5070   45.6130 O   0  0  0  0  0  0  0  0  0  0  0  0
   60.5170   34.1420   47.3200 C   0  0  0  0  0  0  0  0  0  0  0  0
   60.5510   33.1840   48.3380 C   0  0  0  0  0  0  0  0  0  0  0  0
   59.2530   29.0290   46.7170 C   0  0  0  0  0  0  0  0  0  0  0  0
   58.1070   29.3020   45.9570 C   0  0  0  0  0  0  0  0  0  0  0  0
   57.9490   30.5310   45.3010 C   0  0  0  0  0  0  0  0  0  0  0  0
   56.8280   30.7560   44.5030 C   0  0  0  0  0  0  0  0  0  0  0  0
   55.8690   29.7480   44.3730 C   0  0  0  0  0  0  0  0  0  0  0  0
   54.8690   29.9230   43.6350 O   0  0  0  0  0  0  0  0  0  0  0  0
   56.0210   28.5690   45.0340 N   0  0  0  0  0  0  0  0  0  0  0  0
   57.1010   28.3170   45.8220 C   0  0  0  0  0  0  0  0  0  0  0  0
   55.8422   25.7140   47.3646 H   0  0  0  0  0  0  0  0  0  0  0  0
   55.3026   26.4432   45.8142 H   0  0  0  0  0  0  0  0  0  0  0  0
   56.5631   25.1635   45.8142 H   0  0  0  0  0  0  0  0  0  0  0  0
   58.5077   25.8533   47.7357 H   0  0  0  0  0  0  0  0  0  0  0  0
   61.1318   25.2680   51.8344 H   0  0  0  0  0  0  0  0  0  0  0  0
   61.2535   27.3369   53.2209 H   0  0  0  0  0  0  0  0  0  0  0  0
   61.0475   29.5673   52.1232 H   0  0  0  0  0  0  0  0  0  0  0  0
   57.3227   32.0782   48.1529 H   0  0  0  0  0  0  0  0  0  0  0  0
   57.2605   33.7867   46.3408 H   0  0  0  0  0  0  0  0  0  0  0  0
   61.4203   34.7270   47.0921 H   0  0  0  0  0  0  0  0  0  0  0  0
   61.4780   33.0204   48.9072 H   0  0  0  0  0  0  0  0  0  0  0  0
   60.0253   29.8021   46.8427 H   0  0  0  0  0  0  0  0  0  0  0  0
   58.7093   31.3176   45.4159 H   0  0  0  0  0  0  0  0  0  0  0  0
   56.7000   31.7161   43.9817 H   0  0  0  0  0  0  0  0  0  0  0  0
  1  2  1  0
  2  3  2  0
  3  4  1  0
  4  5  1  0
  5  6  2  3
  6  7  1  0
  7  8  1  0
  8  9  2  0
  9 10  1  0
 10 11  2  0
 11 12  1  0
 12 13  1  0
 13 14  2  0
 13 15  2  0
 13 16  1  0
 16 17  2  0
 17 18  1  0
 18 19  2  0
 19 20  1  0
 20 21  2  0
 20 22  1  0
 19 23  1  0
 23 24  2  0
  4 25  2  0
 25 26  1  0
 26 27  1  0
 27 28  2  0
 28 29  1  0
 29 30  2  0
 29 31  1  0
 31 32  1  0
 32  2  1  0
 11  6  1  0
 24 16  1  0
 32 26  2  0
  1 33  1  0
  1 34  1  0
  1 35  1  0
  3 36  1  0
  8 37  1  0
  9 38  1  0
 10 39  1  0
 17 40  1  0
 18 41  1  0
 23 42  1  0
 24 43  1  0
 25 44  1  0
 27 45  1  0
 28 46  1  0
M  CHG  5   7  -1  12  -1  20   1  22  -1  31  -1
M  END
>  <UniqueID>  (30) 
26

>  <SMILES>  (30) 
Cc1cc(N=c2[n-]cccc2[N-]S(=O)(=O)c2ccc([N+](=O)[O-])cc2)cc2ccc(=O)[n-]c12

>  <Energy>  (30) 
73.66484991705843

>  <Genealogy>  (30) 
Cc1cc(N=c2[n-]cccc2[N-]S(=O)(=O)c2ccc([N+](=O)[O-])cc2)cc2ccc(=O)[n-]c12 (protonated)
Cc1cc(N=c2[n-]cccc2[N-]S(=O)(=O)c2ccc([N+](=O)[O-])cc2)cc2ccc(=O)[n-]c12 (3D coordinates assigned)
Cc1cc(N=c2[n-]cccc2[N-]S(=O)(=O)c2ccc([N+](=O)[O-])cc2)cc2ccc(=O)[n-]c12 (optimized conformer: 73.66484991705843 kcal/mol)

>  <smiles>  (30) 
Cc1cc(N=c2[nH]cccc2NS(=O)(=O)c2ccc([N+](=O)[O-])cc2)cc2ccc(=O)[nH]c12

>  <score_type>  (30) 
oracle

>  <origin>  (30) 
adg

>  <m_score__min__energy>  (30) 
-14.06

>  <m_primary>  (30) 
energy

$$$$
30:0
     RDKit          3D

 41 42  0  0  0  0  0  0  0  0999 V2000
   58.9250   28.3680   47.3510 C   0  0  0  0  0  0  0  0  0  0  0  0
   58.9040   29.1040   46.0780 N   0  0  0  0  0  0  0  0  0  0  0  0
   60.2860   29.3490   45.6280 C   0  0  0  0  0  0  0  0  0  0  0  0
   58.1500   28.3380   45.0660 C   0  0  0  0  0  0  0  0  0  0  0  0
   56.6820   28.6070   45.1940 C   0  0  0  0  0  0  0  0  0  0  0  0
   55.9140   27.7000   45.6170 O   0  0  0  0  0  0  0  0  0  0  0  0
   56.1730   29.9070   44.8690 N   0  0  0  0  0  0  0  0  0  0  0  0
   56.9580   31.0610   44.5420 C   0  0  0  0  0  0  0  0  0  0  0  0
   57.3770   31.2390   43.2170 C   0  0  0  0  0  0  0  0  0  0  0  0
   58.1360   32.3570   42.8590 C   0  0  0  0  0  0  0  0  0  0  0  0
   58.4720   33.3130   43.8220 C   0  0  0  0  0  0  0  0  0  0  0  0
   58.0410   33.1570   45.1440 C   0  0  0  0  0  0  0  0  0  0  0  0
   58.4670   34.3890   46.3770 S   0  0  0  0  0  0  0  0  0  0  0  0
   60.0280   33.5880   46.7720 C   0  0  0  0  0  0  0  0  0  0  0  0
   61.2180   34.2250   46.3960 C   0  0  0  0  0  0  0  0  0  0  0  0
   62.4530   33.6250   46.6530 C   0  0  0  0  0  0  0  0  0  0  0  0
   62.5140   32.3820   47.2930 C   0  0  0  0  0  0  0  0  0  0  0  0
   63.7800   31.7680   47.5510 N   0  0  0  0  0  0  0  0  0  0  0  0
   61.3280   31.7460   47.6810 C   0  0  0  0  0  0  0  0  0  0  0  0
   60.0810   32.3410   47.4340 C   0  0  0  0  0  0  0  0  0  0  0  0
   58.8890   31.6730   47.8680 N   0  0  0  0  0  0  0  0  0  0  0  0
   57.2710   32.0420   45.5000 C   0  0  0  0  0  0  0  0  0  0  0  0
   58.9046   29.0819   48.1876 H   0  0  0  0  0  0  0  0  0  0  0  0
   58.0453   27.7102   47.4088 H   0  0  0  0  0  0  0  0  0  0  0  0
   59.8408   27.7614   47.4088 H   0  0  0  0  0  0  0  0  0  0  0  0
   60.9416   29.4652   46.5036 H   0  0  0  0  0  0  0  0  0  0  0  0
   60.6307   28.4980   45.0223 H   0  0  0  0  0  0  0  0  0  0  0  0
   60.3171   30.2667   45.0223 H   0  0  0  0  0  0  0  0  0  0  0  0
   58.4866   28.6350   44.0618 H   0  0  0  0  0  0  0  0  0  0  0  0
   58.3310   27.2645   45.2234 H   0  0  0  0  0  0  0  0  0  0  0  0
   57.1070   30.4944   42.4537 H   0  0  0  0  0  0  0  0  0  0  0  0
   58.4692   32.4846   41.8185 H   0  0  0  0  0  0  0  0  0  0  0  0
   59.0756   34.1884   43.5403 H   0  0  0  0  0  0  0  0  0  0  0  0
   61.1795   35.2037   45.8953 H   0  0  0  0  0  0  0  0  0  0  0  0
   63.3815   34.1317   46.3510 H   0  0  0  0  0  0  0  0  0  0  0  0
   63.9550   31.2620   48.4470 H   0  0  0  0  0  0  0  0  0  0  0  0
   64.5480   31.8100   46.8450 H   0  0  0  0  0  0  0  0  0  0  0  0
   61.3743   30.7693   48.1849 H   0  0  0  0  0  0  0  0  0  0  0  0
   58.3100   32.0310   48.6560 H   0  0  0  0  0  0  0  0  0  0  0  0
   58.5910   30.7780   47.4200 H   0  0  0  0  0  0  0  0  0  0  0  0
   56.9097   31.9333   46.5333 H   0  0  0  0  0  0  0  0  0  0  0  0
  1  2  1  0
  2  3  1  0
  2  4  1  0
  4  5  1  0
  5  6  2  0
  5  7  1  0
  7  8  1  0
  8  9  2  0
  9 10  1  0
 10 11  2  0
 11 12  1  0
 12 13  1  0
 13 14  1  0
 14 15  2  0
 15 16  1  0
 16 17  2  0
 17 18  1  0
 17 19  1  0
 19 20  2  0
 20 21  1  0
 12 22  2  0
 22  8  1  0
 20 14  1  0
  1 23  1  0
  1 24  1  0
  1 25  1  0
  3 26  1  0
  3 27  1  0
  3 28  1  0
  4 29  1  0
  4 30  1  0
  9 31  1  0
 10 32  1  0
 11 33  1  0
 15 34  1  0
 16 35  1  0
 18 36  1  0
 18 37  1  0
 19 38  1  0
 21 39  1  0
 21 40  1  0
 22 41  1  0
M  CHG  1   7  -1
M  END
>  <UniqueID>  (31) 
27

>  <SMILES>  (31) 
CN(C)CC(=O)[N-]c1cccc(Sc2ccc(N)cc2N)c1

>  <Energy>  (31) 
37.70982317615763

>  <Genealogy>  (31) 
CN(C)CC(=O)[N-]c1cccc(Sc2ccc(N)cc2N)c1 (protonated)
CN(C)CC(=O)[N-]c1cccc(Sc2ccc(N)cc2N)c1 (3D coordinates assigned)
CN(C)CC(=O)[N-]c1cccc(Sc2ccc(N)cc2N)c1 (optimized conformer: 37.70982317615763 kcal/mol)

>  <smiles>  (31) 
CN(C)CC(=O)Nc1cccc(Sc2ccc(N)cc2N)c1

>  <score_type>  (31) 
oracle

>  <origin>  (31) 
adg

>  <m_score__min__energy>  (31) 
-8.4399999999999995

>  <m_primary>  (31) 
energy

$$$$
31:0
     RDKit          3D

 39 41  0  0  1  0  0  0  0  0999 V2000
   60.8510   26.1760   46.5000 C   0  0  0  0  0  0  0  0  0  0  0  0
   59.5030   26.5300   45.9800 C   0  0  0  0  0  0  0  0  0  0  0  0
   59.3710   27.5560   45.0660 C   0  0  0  0  0  0  0  0  0  0  0  0
   58.1290   27.8960   44.5740 C   0  0  0  0  0  0  0  0  0  0  0  0
   57.9870   28.8480   43.7250 N   0  0  0  0  0  0  0  0  0  0  0  0
   56.8370   30.1280   43.8880 S   0  0  0  0  0  0  0  0  0  0  0  0
   56.5410   30.7990   42.5630 O   0  0  0  0  0  0  0  0  0  0  0  0
   55.5980   29.6480   44.5690 O   0  0  0  0  0  0  0  0  0  0  0  0
   57.6440   31.3730   44.8530 C   0  0  0  0  0  0  0  0  0  0  0  0
   57.8140   32.6490   44.3640 C   0  0  0  0  0  0  0  0  0  0  0  0
   58.4390   33.6570   45.0820 C   0  0  0  0  0  0  0  0  0  0  0  0
   58.9110   33.3590   46.3490 C   0  0  0  0  0  0  0  0  0  0  0  0
   58.7450   32.0670   46.8590 C   0  0  0  0  0  0  0  0  0  0  0  0
   58.1180   31.0840   46.1200 C   0  0  0  0  0  0  0  0  0  0  0  0
   59.2020   31.7610   48.0990 N   0  0  0  0  0  0  0  0  0  0  0  0
   59.8140   32.7370   48.8100 C   0  0  0  0  0  0  0  0  0  0  0  0
   59.9760   34.0080   48.3030 C   0  0  0  0  0  0  0  0  0  0  0  0
   60.5500   34.9220   48.9700 O   0  0  0  0  0  0  0  0  0  0  0  0
   59.5200   34.3230   47.0610 N   0  0  0  0  0  0  0  0  0  0  0  0
   59.6590   35.6290   46.4790 C   0  0  0  0  0  0  0  0  0  0  0  0
   57.0220   27.2260   44.9800 N   0  0  0  0  0  0  0  0  0  0  0  0
   57.1540   26.2160   45.8770 C   0  0  0  0  0  0  0  0  0  0  0  0
   55.9510   25.4460   46.3550 C   0  0  0  0  0  0  0  0  0  0  0  0
   58.3840   25.8900   46.3560 N   0  0  0  0  0  0  0  0  0  0  0  0
   60.8326   26.1808   47.5998 H   0  0  0  0  0  0  0  0  0  0  0  0
   61.1305   25.1740   46.1423 H   0  0  0  0  0  0  0  0  0  0  0  0
   61.5867   26.9114   46.1423 H   0  0  0  0  0  0  0  0  0  0  0  0
   60.2621   28.1055   44.7283 H   0  0  0  0  0  0  0  0  0  0  0  0
   57.4364   32.8793   43.3568 H   0  0  0  0  0  0  0  0  0  0  0  0
   58.5565   34.6648   44.6571 H   0  0  0  0  0  0  0  0  0  0  0  0
   57.9956   30.0737   46.5375 H   0  0  0  0  0  0  0  0  0  0  0  0
   60.1915   32.5097   49.8179 H   0  0  0  0  0  0  0  0  0  0  0  0
   59.7389   36.3801   47.2786 H   0  0  0  0  0  0  0  0  0  0  0  0
   60.5653   35.6584   45.8564 H   0  0  0  0  0  0  0  0  0  0  0  0
   58.7791   35.8485   45.8564 H   0  0  0  0  0  0  0  0  0  0  0  0
   56.0770   27.4740   44.6140 H   0  0  0  0  0  0  0  0  0  0  0  0
   55.9354   25.4360   47.4548 H   0  0  0  0  0  0  0  0  0  0  0  0
   55.0354   25.9263   45.9796 H   0  0  0  0  0  0  0  0  0  0  0  0
   56.0037   24.4134   45.9796 H   0  0  0  0  0  0  0  0  0  0  0  0
  1  2  1  0
  2  3  2  0
  3  4  1  0
  4  5  2  0
  5  6  1  0
  6  7  2  0
  6  8  2  0
  6  9  1  0
  9 10  2  0
 10 11  1  0
 11 12  2  0
 12 13  1  0
 13 14  2  0
 13 15  1  0
 15 16  2  0
 16 17  1  0
 17 18  2  0
 17 19  1  0
 19 20  1  0
  4 21  1  0
 21 22  1  0
 22 23  1  0
 22 24  2  0
 24  2  1  0
 14  9  1  0
 19 12  1  0
  1 25  1  0
  1 26  1  0
  1 27  1  0
  3 28  1  0
 10 29  1  0
 11 30  1  0
 14 31  1  0
 16 32  1  0
 20 33  1  0
 20 34  1  0
 20 35  1  0
 21 36  1  0
 23 37  1  0
 23 38  1  0
 23 39  1  0
M  END
>  <smiles>  (32) 
Cc1cc(=NS(=O)(=O)c2ccc3c(c2)ncc(=O)n3C)[nH]c(C)n1

>  <score_type>  (32) 
oracle

>  <origin>  (32) 
adg

>  <m_score__min__energy>  (32) 
-8.2100000000000009

>  <m_primary>  (32) 
energy

$$$$
32:0
     RDKit          3D

 56 58  0  0  1  0  0  0  0  0999 V2000
   58.7210   29.7800   50.6060 C   0  0  0  0  0  0  0  0  0  0  0  0
   59.6720   29.6530   49.5990 O   0  0  0  0  0  0  0  0  0  0  0  0
   60.4290   28.5250   49.8490 C   0  0  0  0  0  0  0  0  0  0  0  0
   61.5770   28.7270   50.7840 C   0  0  0  0  0  0  0  0  0  0  0  0
   61.9570   30.0780   51.0320 N   0  0  0  0  0  0  0  0  0  0  0  0
   62.0920   31.0920   50.0480 C   0  0  0  0  0  0  0  0  0  0  0  0
   61.8920   30.9010   48.8240 O   0  0  0  0  0  0  0  0  0  0  0  0
   62.4760   32.4350   50.4110 N   0  0  0  0  0  0  0  0  0  0  0  0
   62.6040   33.5680   49.1240 S   0  0  0  0  0  0  0  0  0  0  0  0
   62.9070   34.9590   49.6620 O   0  0  0  0  0  0  0  0  0  0  0  0
   63.7620   33.2470   48.2030 O   0  0  0  0  0  0  0  0  0  0  0  0
   61.1790   33.5960   48.1130 C   0  0  0  0  0  0  0  0  0  0  0  0
   59.9140   33.3610   48.6400 C   0  0  0  0  0  0  0  0  0  0  0  0
   58.8060   33.3920   47.8030 C   0  0  0  0  0  0  0  0  0  0  0  0
   58.9350   33.6530   46.4470 C   0  0  0  0  0  0  0  0  0  0  0  0
   56.4300   29.2110   44.6650 N   0  0  0  0  0  0  0  0  0  0  0  0
   57.0470   28.5670   45.6050 C   0  0  0  0  0  0  0  0  0  0  0  0
   57.1010   31.4800   45.2520 N   0  0  0  0  0  0  0  0  0  0  0  0
   56.8740   30.5230   44.3260 C   0  0  0  0  0  0  0  0  0  0  0  0
   57.7610   33.6670   45.6670 N   0  0  0  0  0  0  0  0  0  0  0  0
   57.5200   32.6960   44.8590 C   0  0  0  0  0  0  0  0  0  0  0  0
   57.0500   27.1930   45.7740 C   0  0  0  0  0  0  0  0  0  0  0  0
   57.8170   26.8990   46.8840 C   0  0  0  0  0  0  0  0  0  0  0  0
   58.1360   25.5800   47.4910 C   0  0  0  0  0  0  0  0  0  0  0  0
   58.2630   28.0680   47.3670 N   0  0  0  0  0  0  0  0  0  0  0  0
   57.8060   29.0500   46.6100 N   0  0  0  0  0  0  0  0  0  0  0  0
   57.0710   30.7880   42.9680 C   0  0  0  0  0  0  0  0  0  0  0  0
   57.4990   32.0370   42.5860 C   0  0  0  0  0  0  0  0  0  0  0  0
   57.7080   32.3200   41.1380 C   0  0  0  0  0  0  0  0  0  0  0  0
   57.7150   32.9650   43.5370 N   0  0  0  0  0  0  0  0  0  0  0  0
   60.1940   33.8870   45.9250 C   0  0  0  0  0  0  0  0  0  0  0  0
   61.3070   33.8560   46.7620 C   0  0  0  0  0  0  0  0  0  0  0  0
   59.2145   29.7141   51.5869 H   0  0  0  0  0  0  0  0  0  0  0  0
   58.2171   30.7534   50.5138 H   0  0  0  0  0  0  0  0  0  0  0  0
   57.9793   28.9729   50.5138 H   0  0  0  0  0  0  0  0  0  0  0  0
   59.7677   27.7597   50.2815 H   0  0  0  0  0  0  0  0  0  0  0  0
   60.8676   28.2302   48.8843 H   0  0  0  0  0  0  0  0  0  0  0  0
   61.3082   28.2716   51.7486 H   0  0  0  0  0  0  0  0  0  0  0  0
   62.4437   28.2636   50.2900 H   0  0  0  0  0  0  0  0  0  0  0  0
   62.1680   30.4030   52.0280 H   0  0  0  0  0  0  0  0  0  0  0  0
   62.6640   32.6840   51.4200 H   0  0  0  0  0  0  0  0  0  0  0  0
   59.7915   33.1519   49.7130 H   0  0  0  0  0  0  0  0  0  0  0  0
   57.8068   33.2059   48.2238 H   0  0  0  0  0  0  0  0  0  0  0  0
   56.5317   26.4626   45.1353 H   0  0  0  0  0  0  0  0  0  0  0  0
   58.1151   25.6663   48.5874 H   0  0  0  0  0  0  0  0  0  0  0  0
   57.3915   24.8377   47.1674 H   0  0  0  0  0  0  0  0  0  0  0  0
   59.1374   25.2600   47.1674 H   0  0  0  0  0  0  0  0  0  0  0  0
   58.8840   28.1710   48.2230 H   0  0  0  0  0  0  0  0  0  0  0  0
   57.9780   30.0830   46.7240 H   0  0  0  0  0  0  0  0  0  0  0  0
   56.8860   30.0076   42.2151 H   0  0  0  0  0  0  0  0  0  0  0  0
   58.3581   33.2003   41.0266 H   0  0  0  0  0  0  0  0  0  0  0  0
   58.1826   31.4507   40.6593 H   0  0  0  0  0  0  0  0  0  0  0  0
   56.7376   32.5179   40.6593 H   0  0  0  0  0  0  0  0  0  0  0  0
   58.0380   33.9030   43.2170 H   0  0  0  0  0  0  0  0  0  0  0  0
   60.3162   34.0970   44.8522 H   0  0  0  0  0  0  0  0  0  0  0  0
   62.3057   34.0418   46.3399 H   0  0  0  0  0  0  0  0  0  0  0  0
  1  2  1  0
  2  3  1  0
  3  4  1  0
  4  5  1  0
  5  6  1  0
  6  7  2  0
  6  8  1  0
  8  9  1  0
  9 10  2  0
  9 11  2  0
  9 12  1  0
 12 13  2  0
 13 14  1  0
 14 15  2  0
 15 16  1  0
 16 17  2  0
 17 18  1  0
 18 19  2  0
 19 20  1  0
 20 21  2  0
 21 22  1  0
 22 23  2  0
 23 24  1  0
 23 25  1  0
 25 26  1  0
 19 27  1  0
 27 28  2  0
 28 29  1  0
 28 30  1  0
 15 31  1  0
 31 32  2  0
 32 12  1  0
 30 17  1  0
 26 21  1  0
  1 33  1  0
  1 34  1  0
  1 35  1  0
  3 36  1  0
  3 37  1  0
  4 38  1  0
  4 39  1  0
  5 40  1  0
  8 41  1  0
 13 42  1  0
 14 43  1  0
 22 44  1  0
 24 45  1  0
 24 46  1  0
 24 47  1  0
 25 48  1  0
 26 49  1  0
 27 50  1  0
 29 51  1  0
 29 52  1  0
 29 53  1  0
 30 54  1  0
 31 55  1  0
 32 56  1  0
M  END
>  <smiles>  (33) 
COCCNC(=O)NS(=O)(=O)c1ccc(N=c2nc(N=c3cc(C)[nH][nH]3)cc(C)[nH]2)cc1

>  <score_type>  (33) 
oracle

>  <origin>  (33) 
adg

>  <m_score__min__energy>  (33) 
-10.029999999999999

>  <m_primary>  (33) 
energy

$$$$
33:0
     RDKit          3D

 33 36  0  0  0  0  0  0  0  0999 V2000
   56.7100   30.8870   42.2480 C   0  0  0  0  0  0  0  0  0  0  0  0
   57.2330   31.1440   43.6250 C   0  0  0  0  0  0  0  0  0  0  0  0
   57.5410   32.4120   44.0230 N   0  0  0  0  0  0  0  0  0  0  0  0
   58.0260   32.6620   45.2780 C   0  0  0  0  0  0  0  0  0  0  0  0
   58.3360   33.9700   45.6660 C   0  0  0  0  0  0  0  0  0  0  0  0
   58.8320   34.2210   46.9510 C   0  0  0  0  0  0  0  0  0  0  0  0
   59.0220   33.1670   47.8550 C   0  0  0  0  0  0  0  0  0  0  0  0
   59.6440   33.4950   49.4620 Cl  0  0  0  0  0  0  0  0  0  0  0  0
   58.7150   31.8530   47.4800 C   0  0  0  0  0  0  0  0  0  0  0  0
   58.2170   31.5980   46.1940 C   0  0  0  0  0  0  0  0  0  0  0  0
   57.8870   30.3200   45.7440 C   0  0  0  0  0  0  0  0  0  0  0  0
   57.9900   29.1620   46.4250 N   0  0  0  0  0  0  0  0  0  0  0  0
   57.5340   28.2670   45.5060 C   0  0  0  0  0  0  0  0  0  0  0  0
   57.5040   26.8070   45.7490 C   0  0  0  0  0  0  0  0  0  0  0  0
   58.7260   26.1090   45.7830 C   0  0  0  0  0  0  0  0  0  0  0  0
   58.7490   24.7210   45.9330 C   0  0  0  0  0  0  0  0  0  0  0  0
   57.5550   24.0100   46.0480 C   0  0  0  0  0  0  0  0  0  0  0  0
   56.3350   24.6890   46.0370 C   0  0  0  0  0  0  0  0  0  0  0  0
   56.2950   26.0830   45.9100 C   0  0  0  0  0  0  0  0  0  0  0  0
   55.0480   26.7060   45.9860 O   0  0  0  0  0  0  0  0  0  0  0  0
   57.1960   28.8430   44.3280 N   0  0  0  0  0  0  0  0  0  0  0  0
   57.4190   30.1300   44.5090 N   0  0  0  0  0  0  0  0  0  0  0  0
   55.7246   30.4028   42.3145 H   0  0  0  0  0  0  0  0  0  0  0  0
   56.6142   31.8407   41.7082 H   0  0  0  0  0  0  0  0  0  0  0  0
   57.4064   30.2285   41.7082 H   0  0  0  0  0  0  0  0  0  0  0  0
   58.1899   34.8017   44.9610 H   0  0  0  0  0  0  0  0  0  0  0  0
   59.0738   35.2508   47.2526 H   0  0  0  0  0  0  0  0  0  0  0  0
   58.8636   31.0260   48.1899 H   0  0  0  0  0  0  0  0  0  0  0  0
   59.6721   26.6625   45.6905 H   0  0  0  0  0  0  0  0  0  0  0  0
   59.7106   24.1875   45.9605 H   0  0  0  0  0  0  0  0  0  0  0  0
   57.5742   22.9147   46.1473 H   0  0  0  0  0  0  0  0  0  0  0  0
   55.3961   24.1234   46.1290 H   0  0  0  0  0  0  0  0  0  0  0  0
   54.3840   26.7190   45.2250 H   0  0  0  0  0  0  0  0  0  0  0  0
  1  2  1  0
  2  3  2  0
  3  4  1  0
  4  5  2  0
  5  6  1  0
  6  7  2  0
  7  8  1  0
  7  9  1  0
  9 10  2  0
 10 11  1  0
 11 12  2  0
 12 13  1  0
 13 14  1  0
 14 15  2  0
 15 16  1  0
 16 17  2  0
 17 18  1  0
 18 19  2  0
 19 20  1  0
 13 21  2  0
 21 22  1  0
 22  2  1  0
 10  4  1  0
 22 11  1  0
 19 14  1  0
  1 23  1  0
  1 24  1  0
  1 25  1  0
  5 26  1  0
  6 27  1  0
  9 28  1  0
 15 29  1  0
 16 30  1  0
 17 31  1  0
 18 32  1  0
 20 33  1  0
M  END
>  <UniqueID>  (34) 
28

>  <SMILES>  (34) 
Cc1nc2ccc(Cl)cc2c2nc(-c3ccccc3O)nn12

>  <Energy>  (34) 
83.76120321386973

>  <Genealogy>  (34) 
Cc1nc2ccc(Cl)cc2c2nc(-c3ccccc3O)nn12 (3D coordinates assigned)
Cc1nc2ccc(Cl)cc2c2nc(-c3ccccc3O)nn12 (optimized conformer: 83.76120321386973 kcal/mol)

>  <smiles>  (34) 
Cc1nc2ccc(Cl)cc2c2nc(-c3ccccc3O)nn12

>  <score_type>  (34) 
oracle

>  <origin>  (34) 
adg

>  <m_score__min__energy>  (34) 
-9.5600000000000005

>  <m_primary>  (34) 
energy

$$$$
34:0
     RDKit          3D

 48 50  0  0  0  0  0  0  0  0999 V2000
   60.8710   26.5840   46.7280 C   0  0  0  0  0  0  0  0  0  0  0  0
   59.7870   27.3430   46.0230 C   0  0  0  0  0  0  0  0  0  0  0  0
   58.4350   27.0590   46.2700 C   0  0  0  0  0  0  0  0  0  0  0  0
   57.4330   27.8130   45.6520 C   0  0  0  0  0  0  0  0  0  0  0  0
   57.7700   28.8720   44.8010 C   0  0  0  0  0  0  0  0  0  0  0  0
   56.4990   29.8750   44.1050 S   0  0  0  0  0  0  0  0  0  0  0  0
   56.6010   29.8160   42.6080 O   0  0  0  0  0  0  0  0  0  0  0  0
   55.1420   29.3630   44.5020 O   0  0  0  0  0  0  0  0  0  0  0  0
   56.6670   31.5230   44.6150 N   0  0  0  0  0  0  0  0  0  0  0  0
   57.6570   31.9930   45.5370 C   0  0  0  0  0  0  0  0  0  0  0  0
   57.8590   31.3310   46.5900 O   0  0  0  0  0  0  0  0  0  0  0  0
   58.4850   33.2200   45.2470 C   0  0  0  0  0  0  0  0  0  0  0  0
   59.7290   33.3420   46.1370 C   0  0  0  0  0  0  0  0  0  0  0  0
   60.3550   32.0380   46.3810 N   0  0  0  0  0  0  0  0  0  0  0  0
   61.2660   31.8210   47.4380 N   0  0  0  0  0  0  0  0  0  0  0  0
   60.9970   30.9110   48.4340 C   0  0  0  0  0  0  0  0  0  0  0  0
   59.7260   30.1060   48.4410 C   0  0  0  0  0  0  0  0  0  0  0  0
   61.8880   30.7300   49.4510 N   0  0  0  0  0  0  0  0  0  0  0  0
   63.0250   31.4690   49.5370 C   0  0  0  0  0  0  0  0  0  0  0  0
   63.9040   31.3020   50.6190 C   0  0  0  0  0  0  0  0  0  0  0  0
   65.0740   32.0620   50.7000 C   0  0  0  0  0  0  0  0  0  0  0  0
   65.3720   32.9960   49.7060 C   0  0  0  0  0  0  0  0  0  0  0  0
   64.4990   33.1810   48.6310 C   0  0  0  0  0  0  0  0  0  0  0  0
   63.3160   32.4220   48.5430 C   0  0  0  0  0  0  0  0  0  0  0  0
   62.4000   32.5860   47.4930 C   0  0  0  0  0  0  0  0  0  0  0  0
   62.6210   33.4450   46.5940 O   0  0  0  0  0  0  0  0  0  0  0  0
   59.1200   29.1550   44.5510 C   0  0  0  0  0  0  0  0  0  0  0  0
   60.1220   28.3940   45.1570 C   0  0  0  0  0  0  0  0  0  0  0  0
   60.7366   26.6781   47.8157 H   0  0  0  0  0  0  0  0  0  0  0  0
   60.8207   25.5228   46.4428 H   0  0  0  0  0  0  0  0  0  0  0  0
   61.8510   26.9943   46.4428 H   0  0  0  0  0  0  0  0  0  0  0  0
   58.1627   26.2402   46.9523 H   0  0  0  0  0  0  0  0  0  0  0  0
   56.3753   27.5730   45.8353 H   0  0  0  0  0  0  0  0  0  0  0  0
   58.8104   33.1805   44.1970 H   0  0  0  0  0  0  0  0  0  0  0  0
   57.8513   34.0949   45.4542 H   0  0  0  0  0  0  0  0  0  0  0  0
   60.4582   33.9997   45.6413 H   0  0  0  0  0  0  0  0  0  0  0  0
   59.4162   33.7575   47.1063 H   0  0  0  0  0  0  0  0  0  0  0  0
   59.9250   31.2070   45.9160 H   0  0  0  0  0  0  0  0  0  0  0  0
   59.4203   29.9124   49.4798 H   0  0  0  0  0  0  0  0  0  0  0  0
   58.9336   30.6673   47.9242 H   0  0  0  0  0  0  0  0  0  0  0  0
   59.8948   29.1498   47.9242 H   0  0  0  0  0  0  0  0  0  0  0  0
   61.6810   30.0220   50.1940 H   0  0  0  0  0  0  0  0  0  0  0  0
   63.6708   30.5699   51.4062 H   0  0  0  0  0  0  0  0  0  0  0  0
   65.7610   31.9241   51.5480 H   0  0  0  0  0  0  0  0  0  0  0  0
   66.2969   33.5880   49.7694 H   0  0  0  0  0  0  0  0  0  0  0  0
   64.7361   33.9207   47.8521 H   0  0  0  0  0  0  0  0  0  0  0  0
   59.3911   29.9794   43.8751 H   0  0  0  0  0  0  0  0  0  0  0  0
   61.1792   28.6201   44.9541 H   0  0  0  0  0  0  0  0  0  0  0  0
  1  2  1  0
  2  3  2  0
  3  4  1  0
  4  5  2  0
  5  6  1  0
  6  7  2  0
  6  8  2  0
  6  9  1  0
  9 10  1  0
 10 11  2  0
 10 12  1  0
 12 13  1  0
 13 14  1  0
 14 15  1  0
 15 16  1  0
 16 17  1  0
 16 18  2  0
 18 19  1  0
 19 20  2  0
 20 21  1  0
 21 22  2  0
 22 23  1  0
 23 24  2  0
 24 25  1  0
 25 26  2  0
  5 27  1  0
 27 28  2  0
 28  2  1  0
 25 15  1  0
 24 19  1  0
  1 29  1  0
  1 30  1  0
  1 31  1  0
  3 32  1  0
  4 33  1  0
 12 34  1  0
 12 35  1  0
 13 36  1  0
 13 37  1  0
 14 38  1  0
 17 39  1  0
 17 40  1  0
 17 41  1  0
 18 42  1  0
 20 43  1  0
 21 44  1  0
 22 45  1  0
 23 46  1  0
 27 47  1  0
 28 48  1  0
M  CHG  2   9  -1  18   1
M  END
>  <UniqueID>  (35) 
29

>  <SMILES>  (35) 
Cc1ccc(S(=O)(=O)[N-]C(=O)CCNn2c(C)[nH+]c3ccccc3c2=O)cc1

>  <Energy>  (35) 
54.07906647926287

>  <Genealogy>  (35) 
Cc1ccc(S(=O)(=O)[N-]C(=O)CCNn2c(C)[nH+]c3ccccc3c2=O)cc1 (protonated)
Cc1ccc(S(=O)(=O)[N-]C(=O)CCNn2c(C)[nH+]c3ccccc3c2=O)cc1 (3D coordinates assigned)
Cc1ccc(S(=O)(=O)[N-]C(=O)CCNn2c(C)[nH+]c3ccccc3c2=O)cc1 (optimized conformer: 54.07906647926287 kcal/mol)

>  <smiles>  (35) 
Cc1ccc(S(=O)(=O)NC(=O)CCNn2c(C)nc3ccccc3c2=O)cc1

>  <score_type>  (35) 
oracle

>  <origin>  (35) 
adg

>  <m_score__min__energy>  (35) 
-8.8399999999999999

>  <m_primary>  (35) 
energy

$$$$
35:0
     RDKit          3D

 46 48  0  0  0  0  0  0  0  0999 V2000
   55.3910   23.3390   43.0250 C   0  0  0  0  0  0  0  0  0  0  0  0
   56.5580   22.7660   43.3290 C   0  0  0  0  0  0  0  0  0  0  0  0
   57.1610   22.8820   44.7010 C   0  0  0  0  0  0  0  0  0  0  0  0
   56.8840   24.2010   45.2760 N   0  0  0  0  0  0  0  0  0  0  0  0
   56.3220   24.4800   46.4840 C   0  0  0  0  0  0  0  0  0  0  0  0
   55.8270   23.4380   47.4370 C   0  0  0  0  0  0  0  0  0  0  0  0
   56.2430   25.8100   46.7510 N   0  0  0  0  0  0  0  0  0  0  0  0
   56.7930   26.3690   45.6580 C   0  0  0  0  0  0  0  0  0  0  0  0
   56.9740   27.7270   45.4040 C   0  0  0  0  0  0  0  0  0  0  0  0
   57.5970   28.1020   44.1950 C   0  0  0  0  0  0  0  0  0  0  0  0
   57.7760   29.4980   43.9040 N   0  0  0  0  0  0  0  0  0  0  0  0
   56.7810   30.5040   44.1500 C   0  0  0  0  0  0  0  0  0  0  0  0
   55.6210   30.1840   44.5280 O   0  0  0  0  0  0  0  0  0  0  0  0
   57.1080   31.9510   43.9290 C   0  0  0  0  0  0  0  0  0  0  0  0
   58.4630   32.2220   44.2910 O   0  0  0  0  0  0  0  0  0  0  0  0
   58.8770   33.1290   45.2830 C   0  0  0  0  0  0  0  0  0  0  0  0
   59.2270   34.4620   44.9800 C   0  0  0  0  0  0  0  0  0  0  0  0
   59.6320   35.3330   45.9940 C   0  0  0  0  0  0  0  0  0  0  0  0
   59.6910   34.8910   47.3160 C   0  0  0  0  0  0  0  0  0  0  0  0
   59.3460   33.5750   47.6300 C   0  0  0  0  0  0  0  0  0  0  0  0
   58.9400   32.6880   46.6200 C   0  0  0  0  0  0  0  0  0  0  0  0
   58.5670   31.2730   46.9660 C   0  0  0  0  0  0  0  0  0  0  0  0
   57.9860   27.1000   43.2660 C   0  0  0  0  0  0  0  0  0  0  0  0
   57.7870   25.7370   43.5540 C   0  0  0  0  0  0  0  0  0  0  0  0
   57.1850   25.4110   44.7700 C   0  0  0  0  0  0  0  0  0  0  0  0
   54.9752   23.2362   42.0118 H   0  0  0  0  0  0  0  0  0  0  0  0
   54.8453   23.9139   43.7877 H   0  0  0  0  0  0  0  0  0  0  0  0
   57.0919   22.1944   42.5556 H   0  0  0  0  0  0  0  0  0  0  0  0
   56.7309   22.1064   45.3517 H   0  0  0  0  0  0  0  0  0  0  0  0
   58.2503   22.7512   44.6219 H   0  0  0  0  0  0  0  0  0  0  0  0
   55.9891   23.7793   48.4701 H   0  0  0  0  0  0  0  0  0  0  0  0
   54.7527   23.2697   47.2708 H   0  0  0  0  0  0  0  0  0  0  0  0
   56.3753   22.4990   47.2708 H   0  0  0  0  0  0  0  0  0  0  0  0
   56.6402   28.4862   46.1266 H   0  0  0  0  0  0  0  0  0  0  0  0
   58.6370   29.7830   43.3840 H   0  0  0  0  0  0  0  0  0  0  0  0
   56.9618   32.1964   42.8667 H   0  0  0  0  0  0  0  0  0  0  0  0
   56.4443   32.5640   44.5564 H   0  0  0  0  0  0  0  0  0  0  0  0
   59.1806   34.8170   43.9399 H   0  0  0  0  0  0  0  0  0  0  0  0
   59.9052   36.3701   45.7496 H   0  0  0  0  0  0  0  0  0  0  0  0
   60.0097   35.5802   48.1119 H   0  0  0  0  0  0  0  0  0  0  0  0
   59.3925   33.2313   48.6739 H   0  0  0  0  0  0  0  0  0  0  0  0
   58.5369   31.1587   48.0596 H   0  0  0  0  0  0  0  0  0  0  0  0
   57.5772   31.0415   46.5457 H   0  0  0  0  0  0  0  0  0  0  0  0
   59.3141   30.5836   46.5457 H   0  0  0  0  0  0  0  0  0  0  0  0
   58.4477   27.3927   42.3114 H   0  0  0  0  0  0  0  0  0  0  0  0
   58.0955   24.9550   42.8446 H   0  0  0  0  0  0  0  0  0  0  0  0
  1  2  2  0
  2  3  1  0
  3  4  1  0
  4  5  1  0
  5  6  1  0
  5  7  2  0
  7  8  1  0
  8  9  2  0
  9 10  1  0
 10 11  1  0
 11 12  1  0
 12 13  2  0
 12 14  1  0
 14 15  1  0
 15 16  1  0
 16 17  2  0
 17 18  1  0
 18 19  2  0
 19 20  1  0
 20 21  2  0
 21 22  1  0
 10 23  2  0
 23 24  1  0
 24 25  2  0
 25  4  1  0
 25  8  1  0
 21 16  1  0
  1 26  1  0
  1 27  1  0
  2 28  1  0
  3 29  1  0
  3 30  1  0
  6 31  1  0
  6 32  1  0
  6 33  1  0
  9 34  1  0
 11 35  1  0
 14 36  1  0
 14 37  1  0
 17 38  1  0
 18 39  1  0
 19 40  1  0
 20 41  1  0
 22 42  1  0
 22 43  1  0
 22 44  1  0
 23 45  1  0
 24 46  1  0
M  END
>  <UniqueID>  (36) 
30

>  <SMILES>  (36) 
C=CCn1c(C)nc2cc(NC(=O)COc3ccccc3C)ccc21

>  <Energy>  (36) 
82.66056461841634

>  <Genealogy>  (36) 
C=CCn1c(C)nc2cc(NC(=O)COc3ccccc3C)ccc21 (3D coordinates assigned)
C=CCn1c(C)nc2cc(NC(=O)COc3ccccc3C)ccc21 (optimized conformer: 82.66056461841634 kcal/mol)

>  <smiles>  (36) 
C=CCn1c(C)nc2cc(NC(=O)COc3ccccc3C)ccc21

>  <score_type>  (36) 
oracle

>  <origin>  (36) 
adg

>  <m_score__min__energy>  (36) 
-8.5

>  <m_primary>  (36) 
energy

$$$$
36:0
     RDKit          3D

 40 41  0  0  0  0  0  0  0  0999 V2000
   58.9810   31.3350   49.4830 C   0  0  0  0  0  0  0  0  0  0  0  0
   60.0520   30.6520   49.8930 C   0  0  0  0  0  0  0  0  0  0  0  0
   60.7390   29.6540   49.0030 C   0  0  0  0  0  0  0  0  0  0  0  0
   61.1110   30.2710   47.7190 N   0  0  0  0  0  0  0  0  0  0  0  0
   62.2250   31.2360   47.6960 C   0  0  0  0  0  0  0  0  0  0  0  0
   61.7820   32.5510   47.1160 C   0  0  0  0  0  0  0  0  0  0  0  0
   62.6530   33.5290   46.8510 C   0  0  0  0  0  0  0  0  0  0  0  0
   60.3620   29.9320   46.5230 C   0  0  0  0  0  0  0  0  0  0  0  0
   59.0920   30.4740   46.2610 C   0  0  0  0  0  0  0  0  0  0  0  0
   58.3990   30.0750   45.1080 C   0  0  0  0  0  0  0  0  0  0  0  0
   57.0490   30.6110   44.8100 C   0  0  0  0  0  0  0  0  0  0  0  0
   56.1410   29.8190   44.4440 O   0  0  0  0  0  0  0  0  0  0  0  0
   56.7500   32.0130   44.8790 N   0  0  0  0  0  0  0  0  0  0  0  0
   57.6300   33.0470   45.3470 C   0  0  0  0  0  0  0  0  0  0  0  0
   57.7320   33.2790   46.7250 C   0  0  0  0  0  0  0  0  0  0  0  0
   58.5790   34.2790   47.2110 C   0  0  0  0  0  0  0  0  0  0  0  0
   59.3390   35.0450   46.3240 C   0  0  0  0  0  0  0  0  0  0  0  0
   59.2620   34.8040   44.9490 C   0  0  0  0  0  0  0  0  0  0  0  0
   58.4180   33.8030   44.4600 C   0  0  0  0  0  0  0  0  0  0  0  0
   58.9920   29.2040   44.2430 N   0  0  0  0  0  0  0  0  0  0  0  0
   60.2250   28.6950   44.4990 C   0  0  0  0  0  0  0  0  0  0  0  0
   60.8910   29.0550   45.6260 N   0  0  0  0  0  0  0  0  0  0  0  0
   58.4993   32.0589   50.1567 H   0  0  0  0  0  0  0  0  0  0  0  0
   58.5801   31.1740   48.4714 H   0  0  0  0  0  0  0  0  0  0  0  0
   60.4416   30.8236   50.9073 H   0  0  0  0  0  0  0  0  0  0  0  0
   61.6472   29.2882   49.5044 H   0  0  0  0  0  0  0  0  0  0  0  0
   60.0486   28.8202   48.8078 H   0  0  0  0  0  0  0  0  0  0  0  0
   62.5831   31.3976   48.7234 H   0  0  0  0  0  0  0  0  0  0  0  0
   63.0312   30.8282   47.0686 H   0  0  0  0  0  0  0  0  0  0  0  0
   60.7145   32.7116   46.9047 H   0  0  0  0  0  0  0  0  0  0  0  0
   62.2995   34.4804   46.4268 H   0  0  0  0  0  0  0  0  0  0  0  0
   63.7236   33.3828   47.0570 H   0  0  0  0  0  0  0  0  0  0  0  0
   58.6458   31.2036   46.9528 H   0  0  0  0  0  0  0  0  0  0  0  0
   57.1428   32.6714   47.4276 H   0  0  0  0  0  0  0  0  0  0  0  0
   58.6472   34.4630   48.2934 H   0  0  0  0  0  0  0  0  0  0  0  0
   59.9981   35.8379   46.7073 H   0  0  0  0  0  0  0  0  0  0  0  0
   59.8662   35.4027   44.2515 H   0  0  0  0  0  0  0  0  0  0  0  0
   58.3697   33.6058   43.3789 H   0  0  0  0  0  0  0  0  0  0  0  0
   58.4980   28.9000   43.3740 H   0  0  0  0  0  0  0  0  0  0  0  0
   60.6850   27.9894   43.7915 H   0  0  0  0  0  0  0  0  0  0  0  0
  1  2  2  0
  2  3  1  0
  3  4  1  0
  4  5  1  0
  5  6  1  0
  6  7  2  0
  4  8  1  0
  8  9  2  0
  9 10  1  0
 10 11  1  0
 11 12  2  0
 11 13  1  0
 13 14  1  0
 14 15  2  0
 15 16  1  0
 16 17  2  0
 17 18  1  0
 18 19  2  0
 10 20  2  0
 20 21  1  0
 21 22  2  0
 22  8  1  0
 19 14  1  0
  1 23  1  0
  1 24  1  0
  2 25  1  0
  3 26  1  0
  3 27  1  0
  5 28  1  0
  5 29  1  0
  6 30  1  0
  7 31  1  0
  7 32  1  0
  9 33  1  0
 15 34  1  0
 16 35  1  0
 17 36  1  0
 18 37  1  0
 19 38  1  0
 20 39  1  0
 21 40  1  0
M  CHG  2  13  -1  20   1
M  END
>  <UniqueID>  (37) 
31

>  <SMILES>  (37) 
C=CCN(CC=C)c1cc(C(=O)[N-]c2ccccc2)[nH+]cn1

>  <Energy>  (37) 
41.02478895641446

>  <Genealogy>  (37) 
C=CCN(CC=C)c1cc(C(=O)[N-]c2ccccc2)[nH+]cn1 (protonated)
C=CCN(CC=C)c1cc(C(=O)[N-]c2ccccc2)[nH+]cn1 (3D coordinates assigned)
C=CCN(CC=C)c1cc(C(=O)[N-]c2ccccc2)[nH+]cn1 (optimized conformer: 41.02478895641446 kcal/mol)

>  <smiles>  (37) 
C=CCN(CC=C)c1cc(C(=O)Nc2ccccc2)ncn1

>  <score_type>  (37) 
oracle

>  <origin>  (37) 
adg

>  <m_score__min__energy>  (37) 
-7.2800000000000002

>  <m_primary>  (37) 
energy

$$$$
37:0
     RDKit          3D

 56 58  0  0  0  0  0  0  0  0999 V2000
   58.4850   32.1010   50.5810 C   0  0  0  0  0  0  0  0  0  0  0  0
   59.1330   31.6840   49.3840 O   0  0  0  0  0  0  0  0  0  0  0  0
   60.3320   32.2280   48.8970 C   0  0  0  0  0  0  0  0  0  0  0  0
   60.8330   33.4590   49.3640 C   0  0  0  0  0  0  0  0  0  0  0  0
   62.0500   33.9530   48.8840 C   0  0  0  0  0  0  0  0  0  0  0  0
   62.7780   33.2280   47.9400 C   0  0  0  0  0  0  0  0  0  0  0  0
   62.2880   32.0120   47.4630 C   0  0  0  0  0  0  0  0  0  0  0  0
   61.0610   31.5090   47.9280 C   0  0  0  0  0  0  0  0  0  0  0  0
   60.5560   30.2670   47.4080 N   0  0  0  0  0  0  0  0  0  0  0  0
   60.0850   29.2330   48.3340 C   0  0  0  0  0  0  0  0  0  0  0  0
   58.9050   28.4380   47.7360 C   0  0  0  0  0  0  0  0  0  0  0  0
   58.8760   28.4660   46.2580 N   0  0  0  0  0  0  0  0  0  0  0  0
   58.0310   27.3970   45.6800 C   0  0  0  0  0  0  0  0  0  0  0  0
   57.8230   27.5120   44.1590 C   0  0  0  0  0  0  0  0  0  0  0  0
   57.7380   28.9170   43.7690 N   0  0  0  0  0  0  0  0  0  0  0  0
   56.6470   29.7610   44.1660 C   0  0  0  0  0  0  0  0  0  0  0  0
   55.6920   29.2900   44.8410 O   0  0  0  0  0  0  0  0  0  0  0  0
   56.6640   31.2210   43.8320 C   0  0  0  0  0  0  0  0  0  0  0  0
   58.1040   31.7290   43.7370 C   0  0  0  0  0  0  0  0  0  0  0  0
   58.3850   32.7390   44.8170 C   0  0  0  0  0  0  0  0  0  0  0  0
   59.2030   33.8530   44.5540 C   0  0  0  0  0  0  0  0  0  0  0  0
   59.4450   34.7970   45.5560 C   0  0  0  0  0  0  0  0  0  0  0  0
   58.8650   34.6450   46.8180 C   0  0  0  0  0  0  0  0  0  0  0  0
   58.0410   33.5480   47.0810 C   0  0  0  0  0  0  0  0  0  0  0  0
   57.8000   32.5980   46.0850 C   0  0  0  0  0  0  0  0  0  0  0  0
   60.2140   28.5630   45.6520 C   0  0  0  0  0  0  0  0  0  0  0  0
   60.8150   29.9250   46.0020 C   0  0  0  0  0  0  0  0  0  0  0  0
   59.0514   31.7365   51.4507 H   0  0  0  0  0  0  0  0  0  0  0  0
   58.4375   33.1996   50.6086 H   0  0  0  0  0  0  0  0  0  0  0  0
   57.4654   31.6891   50.6086 H   0  0  0  0  0  0  0  0  0  0  0  0
   60.2644   34.0342   50.1095 H   0  0  0  0  0  0  0  0  0  0  0  0
   62.4344   34.9158   49.2517 H   0  0  0  0  0  0  0  0  0  0  0  0
   63.7392   33.6156   47.5715 H   0  0  0  0  0  0  0  0  0  0  0  0
   62.8653   31.4438   46.7188 H   0  0  0  0  0  0  0  0  0  0  0  0
   60.9121   28.5399   48.5475 H   0  0  0  0  0  0  0  0  0  0  0  0
   59.7402   29.7243   49.2558 H   0  0  0  0  0  0  0  0  0  0  0  0
   58.9858   27.3914   48.0647 H   0  0  0  0  0  0  0  0  0  0  0  0
   57.9776   28.9111   48.0911 H   0  0  0  0  0  0  0  0  0  0  0  0
   58.5075   26.4283   45.8910 H   0  0  0  0  0  0  0  0  0  0  0  0
   57.0381   27.4927   46.1436 H   0  0  0  0  0  0  0  0  0  0  0  0
   58.6702   27.0407   43.6392 H   0  0  0  0  0  0  0  0  0  0  0  0
   56.8864   27.0047   43.8843 H   0  0  0  0  0  0  0  0  0  0  0  0
   58.4920   29.3130   43.1640 H   0  0  0  0  0  0  0  0  0  0  0  0
   56.1597   31.3781   42.8671 H   0  0  0  0  0  0  0  0  0  0  0  0
   56.1415   31.7750   44.6258 H   0  0  0  0  0  0  0  0  0  0  0  0
   58.7944   30.8799   43.8484 H   0  0  0  0  0  0  0  0  0  0  0  0
   58.2451   32.2102   42.7579 H   0  0  0  0  0  0  0  0  0  0  0  0
   59.6528   33.9813   43.5584 H   0  0  0  0  0  0  0  0  0  0  0  0
   60.0935   35.6614   45.3505 H   0  0  0  0  0  0  0  0  0  0  0  0
   59.0573   35.3894   47.6047 H   0  0  0  0  0  0  0  0  0  0  0  0
   57.5812   33.4319   48.0735 H   0  0  0  0  0  0  0  0  0  0  0  0
   57.1493   31.7364   46.2955 H   0  0  0  0  0  0  0  0  0  0  0  0
   60.8574   27.7625   46.0461 H   0  0  0  0  0  0  0  0  0  0  0  0
   60.1386   28.4569   44.5597 H   0  0  0  0  0  0  0  0  0  0  0  0
   61.9015   29.8933   45.8333 H   0  0  0  0  0  0  0  0  0  0  0  0
   60.3491   30.6894   45.3628 H   0  0  0  0  0  0  0  0  0  0  0  0
  1  2  1  0
  2  3  1  0
  3  4  2  0
  4  5  1  0
  5  6  2  0
  6  7  1  0
  7  8  2  0
  8  9  1  0
  9 10  1  0
 10 11  1  0
 11 12  1  0
 12 13  1  0
 13 14  1  0
 14 15  1  0
 15 16  1  0
 16 17  2  0
 16 18  1  0
 18 19  1  0
 19 20  1  0
 20 21  2  0
 21 22  1  0
 22 23  2  0
 23 24  1  0
 24 25  2  0
 12 26  1  0
 26 27  1  0
  8  3  1  0
 27  9  1  0
 25 20  1  0
  1 28  1  0
  1 29  1  0
  1 30  1  0
  4 31  1  0
  5 32  1  0
  6 33  1  0
  7 34  1  0
 10 35  1  0
 10 36  1  0
 11 37  1  0
 11 38  1  0
 13 39  1  0
 13 40  1  0
 14 41  1  0
 14 42  1  0
 15 43  1  0
 18 44  1  0
 18 45  1  0
 19 46  1  0
 19 47  1  0
 21 48  1  0
 22 49  1  0
 23 50  1  0
 24 51  1  0
 25 52  1  0
 26 53  1  0
 26 54  1  0
 27 55  1  0
 27 56  1  0
M  END
>  <UniqueID>  (38) 
32

>  <SMILES>  (38) 
COc1ccccc1N1CCN(CCNC(=O)CCc2ccccc2)CC1

>  <Energy>  (38) 
62.137165016563515

>  <Genealogy>  (38) 
COc1ccccc1N1CCN(CCNC(=O)CCc2ccccc2)CC1 (3D coordinates assigned)
COc1ccccc1N1CCN(CCNC(=O)CCc2ccccc2)CC1 (nonaromatic ring conformer: 62.137165016563515 kcal/mol)

>  <smiles>  (38) 
COc1ccccc1N1CCN(CCNC(=O)CCc2ccccc2)CC1

>  <score_type>  (38) 
oracle

>  <origin>  (38) 
adg

>  <m_score__min__energy>  (38) 
-8.0899999999999999

>  <m_primary>  (38) 
energy

$$$$
38:0
     RDKit          3D

 45 48  0  0  0  0  0  0  0  0999 V2000
   59.6520   34.2090   49.2500 C   0  0  0  0  0  0  0  0  0  0  0  0
   59.2460   34.8760   48.0590 O   0  0  0  0  0  0  0  0  0  0  0  0
   58.9020   34.2240   46.8660 C   0  0  0  0  0  0  0  0  0  0  0  0
   59.3390   34.6860   45.5920 C   0  0  0  0  0  0  0  0  0  0  0  0
   58.9780   33.9980   44.4180 C   0  0  0  0  0  0  0  0  0  0  0  0
   58.1870   32.8620   44.5520 C   0  0  0  0  0  0  0  0  0  0  0  0
   57.7370   32.0580   43.5790 N   0  0  0  0  0  0  0  0  0  0  0  0
   57.0320   31.1290   44.2740 C   0  0  0  0  0  0  0  0  0  0  0  0
   56.1490   29.7940   43.4700 S   0  0  0  0  0  0  0  0  0  0  0  0
   57.5260   28.5990   43.5990 C   0  0  0  0  0  0  0  0  0  0  0  0
   58.3100   28.8010   44.8680 C   0  0  0  0  0  0  0  0  0  0  0  0
   57.7710   28.4170   46.1050 C   0  0  0  0  0  0  0  0  0  0  0  0
   58.5170   28.5620   47.2770 C   0  0  0  0  0  0  0  0  0  0  0  0
   59.8140   29.1000   47.2320 C   0  0  0  0  0  0  0  0  0  0  0  0
   60.6140   29.2490   48.4700 C   0  0  0  0  0  0  0  0  0  0  0  0
   61.0150   28.2200   49.0750 O   0  0  0  0  0  0  0  0  0  0  0  0
   60.8950   30.5350   49.0390 N   0  0  0  0  0  0  0  0  0  0  0  0
   61.7950   31.5140   48.4980 C   0  0  0  0  0  0  0  0  0  0  0  0
   61.4970   32.2090   47.3120 C   0  0  0  0  0  0  0  0  0  0  0  0
   62.4010   33.1450   46.8000 C   0  0  0  0  0  0  0  0  0  0  0  0
   63.6110   33.3820   47.4560 C   0  0  0  0  0  0  0  0  0  0  0  0
   63.9220   32.6800   48.6230 C   0  0  0  0  0  0  0  0  0  0  0  0
   63.0210   31.7430   49.1390 C   0  0  0  0  0  0  0  0  0  0  0  0
   63.3360   31.0680   50.2720 F   0  0  0  0  0  0  0  0  0  0  0  0
   60.3580   29.4710   45.9910 C   0  0  0  0  0  0  0  0  0  0  0  0
   59.6100   29.3250   44.8190 C   0  0  0  0  0  0  0  0  0  0  0  0
   57.0230   31.3080   45.6200 N   0  0  0  0  0  0  0  0  0  0  0  0
   57.7640   32.4150   45.7650 C   0  0  0  0  0  0  0  0  0  0  0  0
   58.0980   33.0680   46.9490 C   0  0  0  0  0  0  0  0  0  0  0  0
   59.3056   34.7781   50.1253 H   0  0  0  0  0  0  0  0  0  0  0  0
   59.2148   33.1999   49.2723 H   0  0  0  0  0  0  0  0  0  0  0  0
   60.7492   34.1338   49.2723 H   0  0  0  0  0  0  0  0  0  0  0  0
   59.9642   35.5885   45.5245 H   0  0  0  0  0  0  0  0  0  0  0  0
   59.3100   34.3468   43.4290 H   0  0  0  0  0  0  0  0  0  0  0  0
   57.1163   27.5782   43.5898 H   0  0  0  0  0  0  0  0  0  0  0  0
   58.2019   28.7554   42.7453 H   0  0  0  0  0  0  0  0  0  0  0  0
   56.7546   27.9991   46.1523 H   0  0  0  0  0  0  0  0  0  0  0  0
   58.0864   28.2531   48.2409 H   0  0  0  0  0  0  0  0  0  0  0  0
   60.5505   32.0158   46.7859 H   0  0  0  0  0  0  0  0  0  0  0  0
   62.1587   33.6955   45.8790 H   0  0  0  0  0  0  0  0  0  0  0  0
   64.3191   34.1214   47.0537 H   0  0  0  0  0  0  0  0  0  0  0  0
   64.8769   32.8645   49.1369 H   0  0  0  0  0  0  0  0  0  0  0  0
   61.3784   29.8787   45.9412 H   0  0  0  0  0  0  0  0  0  0  0  0
   60.0435   29.6228   43.8529 H   0  0  0  0  0  0  0  0  0  0  0  0
   57.7449   32.6930   47.9210 H   0  0  0  0  0  0  0  0  0  0  0  0
  1  2  1  0
  2  3  1  0
  3  4  2  0
  4  5  1  0
  5  6  2  0
  6  7  1  0
  7  8  1  0
  8  9  1  0
  9 10  1  0
 10 11  1  0
 11 12  2  0
 12 13  1  0
 13 14  2  0
 14 15  1  0
 15 16  2  0
 15 17  1  0
 17 18  1  0
 18 19  2  0
 19 20  1  0
 20 21  2  0
 21 22  1  0
 22 23  2  0
 23 24  1  0
 14 25  1  0
 25 26  2  0
  8 27  2  0
 27 28  1  0
 28 29  2  0
 29  3  1  0
 28  6  1  0
 26 11  1  0
 23 18  1  0
  1 30  1  0
  1 31  1  0
  1 32  1  0
  4 33  1  0
  5 34  1  0
 10 35  1  0
 10 36  1  0
 12 37  1  0
 13 38  1  0
 19 39  1  0
 20 40  1  0
 21 41  1  0
 22 42  1  0
 25 43  1  0
 26 44  1  0
 29 45  1  0
M  CHG  2   7  -1  17  -1
M  END
>  <UniqueID>  (39) 
33

>  <SMILES>  (39) 
COc1ccc2[n-]c(SCc3ccc(C(=O)[N-]c4ccccc4F)cc3)nc2c1

>  <Energy>  (39) 
85.79159144677365

>  <Genealogy>  (39) 
COc1ccc2[n-]c(SCc3ccc(C(=O)[N-]c4ccccc4F)cc3)nc2c1 (protonated)
COc1ccc2[n-]c(SCc3ccc(C(=O)[N-]c4ccccc4F)cc3)nc2c1 (3D coordinates assigned)
COc1ccc2[n-]c(SCc3ccc(C(=O)[N-]c4ccccc4F)cc3)nc2c1 (optimized conformer: 85.79159144677365 kcal/mol)

>  <smiles>  (39) 
COc1ccc2[nH]c(SCc3ccc(C(=O)Nc4ccccc4F)cc3)nc2c1

>  <score_type>  (39) 
oracle

>  <origin>  (39) 
adg

>  <m_score__min__energy>  (39) 
-11.56

>  <m_primary>  (39) 
energy

$$$$
39:0
     RDKit          3D

 46 49  0  0  0  0  0  0  0  0999 V2000
   57.7600   34.2910   45.9080 O   0  0  0  0  0  0  0  0  0  0  0  0
   58.2450   33.2360   46.3980 C   0  0  0  0  0  0  0  0  0  0  0  0
   58.9770   33.2960   47.7030 C   0  0  0  0  0  0  0  0  0  0  0  0
   60.4530   33.3380   47.4520 C   0  0  0  0  0  0  0  0  0  0  0  0
   61.0950   33.9500   46.3790 C   0  0  0  0  0  0  0  0  0  0  0  0
   62.4370   33.8700   46.5270 N   0  0  0  0  0  0  0  0  0  0  0  0
   62.6460   33.2280   47.6890 C   0  0  0  0  0  0  0  0  0  0  0  0
   63.8730   32.9330   48.2830 C   0  0  0  0  0  0  0  0  0  0  0  0
   63.8610   32.2720   49.5260 C   0  0  0  0  0  0  0  0  0  0  0  0
   62.6370   31.9310   50.1430 C   0  0  0  0  0  0  0  0  0  0  0  0
   61.4130   32.2450   49.5210 C   0  0  0  0  0  0  0  0  0  0  0  0
   61.4580   32.8920   48.2860 C   0  0  0  0  0  0  0  0  0  0  0  0
   58.1130   31.9850   45.7080 N   0  0  0  0  0  0  0  0  0  0  0  0
   57.6850   31.8790   44.3390 C   0  0  0  0  0  0  0  0  0  0  0  0
   58.1600   32.8020   43.3890 C   0  0  0  0  0  0  0  0  0  0  0  0
   57.8390   32.6610   42.0390 C   0  0  0  0  0  0  0  0  0  0  0  0
   57.0490   31.5920   41.6180 C   0  0  0  0  0  0  0  0  0  0  0  0
   56.5760   30.6620   42.5450 C   0  0  0  0  0  0  0  0  0  0  0  0
   56.8780   30.7930   43.9120 C   0  0  0  0  0  0  0  0  0  0  0  0
   56.3160   29.8110   44.8690 C   0  0  0  0  0  0  0  0  0  0  0  0
   55.1550   29.3490   44.6980 O   0  0  0  0  0  0  0  0  0  0  0  0
   57.1140   29.3440   45.9630 N   0  0  0  0  0  0  0  0  0  0  0  0
   57.7340   28.0540   46.0100 C   0  0  0  0  0  0  0  0  0  0  0  0
   56.9180   26.9150   45.9650 C   0  0  0  0  0  0  0  0  0  0  0  0
   57.4820   25.6380   46.0100 C   0  0  0  0  0  0  0  0  0  0  0  0
   58.8690   25.4890   46.0810 C   0  0  0  0  0  0  0  0  0  0  0  0
   59.6940   26.6160   46.0940 C   0  0  0  0  0  0  0  0  0  0  0  0
   59.1380   27.9010   46.0520 C   0  0  0  0  0  0  0  0  0  0  0  0
   60.3310   29.3980   45.9430 Br  0  0  0  0  0  0  0  0  0  0  0  0
   58.6734   34.1999   48.2514 H   0  0  0  0  0  0  0  0  0  0  0  0
   58.7339   32.4037   48.2986 H   0  0  0  0  0  0  0  0  0  0  0  0
   60.5837   34.4302   45.5316 H   0  0  0  0  0  0  0  0  0  0  0  0
   63.1600   34.2510   45.8770 H   0  0  0  0  0  0  0  0  0  0  0  0
   64.8200   33.2081   47.7957 H   0  0  0  0  0  0  0  0  0  0  0  0
   64.8109   32.0195   50.0199 H   0  0  0  0  0  0  0  0  0  0  0  0
   62.6398   31.4169   51.1155 H   0  0  0  0  0  0  0  0  0  0  0  0
   60.4533   31.9885   49.9935 H   0  0  0  0  0  0  0  0  0  0  0  0
   58.3560   31.1100   46.2240 H   0  0  0  0  0  0  0  0  0  0  0  0
   58.7905   33.6427   43.7141 H   0  0  0  0  0  0  0  0  0  0  0  0
   58.2091   33.3933   41.3063 H   0  0  0  0  0  0  0  0  0  0  0  0
   56.7980   31.4814   40.5528 H   0  0  0  0  0  0  0  0  0  0  0  0
   55.9602   29.8173   42.2024 H   0  0  0  0  0  0  0  0  0  0  0  0
   55.8261   27.0277   45.8938 H   0  0  0  0  0  0  0  0  0  0  0  0
   56.8338   24.7495   45.9895 H   0  0  0  0  0  0  0  0  0  0  0  0
   59.3120   24.4832   46.1267 H   0  0  0  0  0  0  0  0  0  0  0  0
   60.7863   26.4938   46.1375 H   0  0  0  0  0  0  0  0  0  0  0  0
  1  2  2  0
  2  3  1  0
  3  4  1  0
  4  5  2  0
  5  6  1  0
  6  7  1  0
  7  8  2  0
  8  9  1  0
  9 10  2  0
 10 11  1  0
 11 12  2  0
  2 13  1  0
 13 14  1  0
 14 15  2  0
 15 16  1  0
 16 17  2  0
 17 18  1  0
 18 19  2  0
 19 20  1  0
 20 21  2  0
 20 22  1  0
 22 23  1  0
 23 24  2  0
 24 25  1  0
 25 26  2  0
 26 27  1  0
 27 28  2  0
 28 29  1  0
 12  4  1  0
 19 14  1  0
 28 23  1  0
 12  7  1  0
  3 30  1  0
  3 31  1  0
  5 32  1  0
  6 33  1  0
  8 34  1  0
  9 35  1  0
 10 36  1  0
 11 37  1  0
 13 38  1  0
 15 39  1  0
 16 40  1  0
 17 41  1  0
 18 42  1  0
 24 43  1  0
 25 44  1  0
 26 45  1  0
 27 46  1  0
M  CHG  1  22  -1
M  END
>  <UniqueID>  (40) 
34

>  <SMILES>  (40) 
O=C(Cc1c[nH]c2ccccc12)Nc1ccccc1C(=O)[N-]c1ccccc1Br

>  <Energy>  (40) 
95.23883297876394

>  <Genealogy>  (40) 
O=C(Cc1c[nH]c2ccccc12)Nc1ccccc1C(=O)[N-]c1ccccc1Br (protonated)
O=C(Cc1c[nH]c2ccccc12)Nc1ccccc1C(=O)[N-]c1ccccc1Br (3D coordinates assigned)
O=C(Cc1c[nH]c2ccccc12)Nc1ccccc1C(=O)[N-]c1ccccc1Br (optimized conformer: 95.23883297876394 kcal/mol)

>  <smiles>  (40) 
O=C(Cc1c[nH]c2ccccc12)Nc1ccccc1C(=O)Nc1ccccc1Br

>  <score_type>  (40) 
oracle

>  <origin>  (40) 
adg

>  <m_score__min__energy>  (40) 
-11.26

>  <m_primary>  (40) 
energy

$$$$
40:0
     RDKit          3D

 48 51  0  0  0  0  0  0  0  0999 V2000
   65.2860   32.8530   50.0710 C   0  0  0  0  0  0  0  0  0  0  0  0
   64.2800   33.8340   49.8370 O   0  0  0  0  0  0  0  0  0  0  0  0
   63.1390   33.6240   49.0490 C   0  0  0  0  0  0  0  0  0  0  0  0
   63.3140   33.2760   47.7050 C   0  0  0  0  0  0  0  0  0  0  0  0
   62.2100   33.0560   46.8780 C   0  0  0  0  0  0  0  0  0  0  0  0
   60.9030   33.1820   47.3820 C   0  0  0  0  0  0  0  0  0  0  0  0
   59.7590   32.9550   46.5270 N   0  0  0  0  0  0  0  0  0  0  0  0
   59.5750   33.7420   45.3010 C   0  0  0  0  0  0  0  0  0  0  0  0
   58.7540   32.9440   44.2840 C   0  0  0  0  0  0  0  0  0  0  0  0
   57.4250   32.5470   44.8140 N   0  0  0  0  0  0  0  0  0  0  0  0
   56.8650   31.4010   44.0650 C   0  0  0  0  0  0  0  0  0  0  0  0
   57.3230   30.0900   44.6600 C   0  0  0  0  0  0  0  0  0  0  0  0
   58.6960   29.8230   44.7990 C   0  0  0  0  0  0  0  0  0  0  0  0
   59.1280   28.5980   45.3240 C   0  0  0  0  0  0  0  0  0  0  0  0
   60.4910   28.3100   45.4730 C   0  0  0  0  0  0  0  0  0  0  0  0
   60.8870   27.0790   46.0000 C   0  0  0  0  0  0  0  0  0  0  0  0
   59.9170   26.1460   46.3710 C   0  0  0  0  0  0  0  0  0  0  0  0
   58.5970   26.4360   46.2210 N   0  0  0  0  0  0  0  0  0  0  0  0
   58.1790   27.6270   45.7110 C   0  0  0  0  0  0  0  0  0  0  0  0
   56.8140   27.8890   45.5680 C   0  0  0  0  0  0  0  0  0  0  0  0
   56.3840   29.1130   45.0410 C   0  0  0  0  0  0  0  0  0  0  0  0
   55.0210   29.3490   44.8980 O   0  0  0  0  0  0  0  0  0  0  0  0
   57.3980   32.3030   46.2810 C   0  0  0  0  0  0  0  0  0  0  0  0
   58.7680   31.9220   46.8570 C   0  0  0  0  0  0  0  0  0  0  0  0
   60.7290   33.5330   48.7330 C   0  0  0  0  0  0  0  0  0  0  0  0
   61.8350   33.7520   49.5600 C   0  0  0  0  0  0  0  0  0  0  0  0
   65.4230   32.7194   51.1542 H   0  0  0  0  0  0  0  0  0  0  0  0
   64.9789   31.8980   49.6197 H   0  0  0  0  0  0  0  0  0  0  0  0
   66.2330   33.1840   49.6197 H   0  0  0  0  0  0  0  0  0  0  0  0
   64.3301   33.1748   47.2961 H   0  0  0  0  0  0  0  0  0  0  0  0
   62.3641   32.7820   45.8239 H   0  0  0  0  0  0  0  0  0  0  0  0
   59.0464   34.6757   45.5435 H   0  0  0  0  0  0  0  0  0  0  0  0
   60.5600   33.9721   44.8687 H   0  0  0  0  0  0  0  0  0  0  0  0
   58.6057   33.5627   43.3867 H   0  0  0  0  0  0  0  0  0  0  0  0
   59.3106   32.0239   44.0526 H   0  0  0  0  0  0  0  0  0  0  0  0
   55.7667   31.4489   44.1024 H   0  0  0  0  0  0  0  0  0  0  0  0
   57.2178   31.4561   43.0246 H   0  0  0  0  0  0  0  0  0  0  0  0
   59.4345   30.5791   44.4943 H   0  0  0  0  0  0  0  0  0  0  0  0
   61.2471   29.0516   45.1757 H   0  0  0  0  0  0  0  0  0  0  0  0
   61.9551   26.8462   46.1219 H   0  0  0  0  0  0  0  0  0  0  0  0
   60.2213   25.1737   46.7858 H   0  0  0  0  0  0  0  0  0  0  0  0
   56.0754   27.1319   45.8701 H   0  0  0  0  0  0  0  0  0  0  0  0
   57.0513   33.2193   46.7812 H   0  0  0  0  0  0  0  0  0  0  0  0
   56.7219   31.4536   46.4581 H   0  0  0  0  0  0  0  0  0  0  0  0
   58.6899   31.8287   47.9502 H   0  0  0  0  0  0  0  0  0  0  0  0
   59.0879   30.9638   46.4216 H   0  0  0  0  0  0  0  0  0  0  0  0
   59.7134   33.6362   49.1427 H   0  0  0  0  0  0  0  0  0  0  0  0
   61.6845   34.0256   50.6148 H   0  0  0  0  0  0  0  0  0  0  0  0
  1  2  1  0
  2  3  1  0
  3  4  2  0
  4  5  1  0
  5  6  2  0
  6  7  1  0
  7  8  1  0
  8  9  1  0
  9 10  1  0
 10 11  1  0
 11 12  1  0
 12 13  2  0
 13 14  1  0
 14 15  2  0
 15 16  1  0
 16 17  2  0
 17 18  1  0
 18 19  2  0
 19 20  1  0
 20 21  2  0
 21 22  1  0
 10 23  1  0
 23 24  1  0
  6 25  1  0
 25 26  2  0
 26  3  1  0
 24  7  1  0
 21 12  1  0
 19 14  1  0
  1 27  1  0
  1 28  1  0
  1 29  1  0
  4 30  1  0
  5 31  1  0
  8 32  1  0
  8 33  1  0
  9 34  1  0
  9 35  1  0
 11 36  1  0
 11 37  1  0
 13 38  1  0
 15 39  1  0
 16 40  1  0
 17 41  1  0
 20 42  1  0
 23 43  1  0
 23 44  1  0
 24 45  1  0
 24 46  1  0
 25 47  1  0
 26 48  1  0
M  CHG  1  22  -1
M  END
>  <UniqueID>  (41) 
35

>  <SMILES>  (41) 
COc1ccc(N2CCN(Cc3cc4cccnc4cc3[O-])CC2)cc1

>  <Energy>  (41) 
65.21024462102396

>  <Genealogy>  (41) 
COc1ccc(N2CCN(Cc3cc4cccnc4cc3[O-])CC2)cc1 (protonated)
COc1ccc(N2CCN(Cc3cc4cccnc4cc3[O-])CC2)cc1 (3D coordinates assigned)
COc1ccc(N2CCN(Cc3cc4cccnc4cc3[O-])CC2)cc1 (nonaromatic ring conformer: 65.21024462102396 kcal/mol)

>  <smiles>  (41) 
COc1ccc(N2CCN(Cc3cc4cccnc4cc3O)CC2)cc1

>  <score_type>  (41) 
oracle

>  <origin>  (41) 
adg

>  <m_score__min__energy>  (41) 
-11.07

>  <m_primary>  (41) 
energy

$$$$
41:0
     RDKit          3D

 56 59  0  0  1  0  0  0  0  0999 V2000
   58.0460   21.0820   43.0490 N   0  0  0  0  0  0  0  0  0  0  0  0
   56.7020   22.0340   43.6330 S   0  0  0  0  0  0  0  0  0  0  0  0
   55.8860   21.1400   44.5350 O   0  0  0  0  0  0  0  0  0  0  0  0
   55.8670   22.4570   42.4720 O   0  0  0  0  0  0  0  0  0  0  0  0
   57.2790   23.3840   44.5740 C   0  0  0  0  0  0  0  0  0  0  0  0
   58.5920   23.3460   45.0350 C   0  0  0  0  0  0  0  0  0  0  0  0
   59.1210   24.3850   45.7910 C   0  0  0  0  0  0  0  0  0  0  0  0
   58.2950   25.4380   46.0590 C   0  0  0  0  0  0  0  0  0  0  0  0
   56.9740   25.5090   45.6130 C   0  0  0  0  0  0  0  0  0  0  0  0
   56.2190   26.7190   45.9890 C   0  0  0  0  0  0  0  0  0  0  0  0
   56.9750   27.9450   45.8640 N   0  0  0  0  0  0  0  0  0  0  0  0
   56.5000   29.1270   45.2660 C   0  0  0  0  0  0  0  0  0  0  0  0
   55.3210   29.1820   44.7750 O   0  0  0  0  0  0  0  0  0  0  0  0
   57.2760   30.3590   45.1510 C   0  0  0  0  0  0  0  0  0  0  0  0
   58.3480   30.5600   45.9950 C   0  0  0  0  0  0  0  0  0  0  0  0
   59.1350   31.7100   45.9390 C   0  0  0  0  0  0  0  0  0  0  0  0
   58.8350   32.6820   45.0080 C   0  0  0  0  0  0  0  0  0  0  0  0
   59.6140   33.9420   44.8640 C   0  0  0  0  0  0  0  0  0  0  0  0
   59.1980   35.0170   45.8540 C   0  0  0  0  0  0  0  0  0  0  0  0
   59.5750   34.8850   47.1790 N   0  0  0  0  0  0  0  0  0  0  0  0
   60.0070   33.9320   47.8340 C   0  0  0  0  0  0  0  0  0  0  0  0
   59.1810   33.2950   48.6900 N   0  0  0  0  0  0  0  0  0  0  0  0
   59.5310   32.2210   49.4150 C   0  0  0  0  0  0  0  0  0  0  0  0
   60.7900   31.7670   49.2630 N   0  0  0  0  0  0  0  0  0  0  0  0
   61.6420   32.3800   48.4160 C   0  0  0  0  0  0  0  0  0  0  0  0
   62.9080   31.8590   48.3210 C   0  0  0  0  0  0  0  0  0  0  0  0
   63.7640   32.5090   47.4550 C   0  0  0  0  0  0  0  0  0  0  0  0
   63.4410   33.5990   46.7120 C   0  0  0  0  0  0  0  0  0  0  0  0
   62.1340   34.1270   46.8180 C   0  0  0  0  0  0  0  0  0  0  0  0
   61.2910   33.4870   47.6680 C   0  0  0  0  0  0  0  0  0  0  0  0
   57.7590   32.4680   44.1690 C   0  0  0  0  0  0  0  0  0  0  0  0
   56.9900   31.3250   44.2380 C   0  0  0  0  0  0  0  0  0  0  0  0
   56.4630   24.4720   44.8650 C   0  0  0  0  0  0  0  0  0  0  0  0
   58.6890   20.8230   43.8180 H   0  0  0  0  0  0  0  0  0  0  0  0
   57.7260   20.2200   42.5980 H   0  0  0  0  0  0  0  0  0  0  0  0
   59.2227   22.4770   44.7963 H   0  0  0  0  0  0  0  0  0  0  0  0
   60.1581   24.3600   46.1568 H   0  0  0  0  0  0  0  0  0  0  0  0
   58.6901   26.2728   46.6565 H   0  0  0  0  0  0  0  0  0  0  0  0
   55.3339   26.7904   45.3397 H   0  0  0  0  0  0  0  0  0  0  0  0
   55.9564   26.6134   47.0520 H   0  0  0  0  0  0  0  0  0  0  0  0
   57.9520   27.9640   46.2450 H   0  0  0  0  0  0  0  0  0  0  0  0
   58.5908   29.7863   46.7383 H   0  0  0  0  0  0  0  0  0  0  0  0
   59.9829   31.8398   46.6276 H   0  0  0  0  0  0  0  0  0  0  0  0
   60.6788   33.7150   45.0208 H   0  0  0  0  0  0  0  0  0  0  0  0
   59.4204   34.3335   43.8544 H   0  0  0  0  0  0  0  0  0  0  0  0
   59.6152   35.9684   45.4924 H   0  0  0  0  0  0  0  0  0  0  0  0
   58.1008   34.9434   45.8811 H   0  0  0  0  0  0  0  0  0  0  0  0
   58.2010   33.6350   48.8200 H   0  0  0  0  0  0  0  0  0  0  0  0
   58.8226   31.7342   50.1014 H   0  0  0  0  0  0  0  0  0  0  0  0
   63.2214   30.9775   48.8995 H   0  0  0  0  0  0  0  0  0  0  0  0
   64.7861   32.1139   47.3593 H   0  0  0  0  0  0  0  0  0  0  0  0
   64.1808   34.0612   46.0419 H   0  0  0  0  0  0  0  0  0  0  0  0
   61.8170   35.0092   46.2425 H   0  0  0  0  0  0  0  0  0  0  0  0
   57.5070   33.2343   43.4211 H   0  0  0  0  0  0  0  0  0  0  0  0
   56.1410   31.1944   43.5509 H   0  0  0  0  0  0  0  0  0  0  0  0
   55.4248   24.5036   44.5030 H   0  0  0  0  0  0  0  0  0  0  0  0
  1  2  1  0
  2  3  2  0
  2  4  2  0
  2  5  1  0
  5  6  2  0
  6  7  1  0
  7  8  2  0
  8  9  1  0
  9 10  1  0
 10 11  1  0
 11 12  1  0
 12 13  2  0
 12 14  1  0
 14 15  2  0
 15 16  1  0
 16 17  2  0
 17 18  1  0
 18 19  1  0
 19 20  1  0
 20 21  2  0
 21 22  1  0
 22 23  1  0
 23 24  2  0
 24 25  1  0
 25 26  2  0
 26 27  1  0
 27 28  2  0
 28 29  1  0
 29 30  2  0
 17 31  1  0
 31 32  2  0
  9 33  2  0
 33  5  1  0
 32 14  1  0
 30 21  1  0
 30 25  1  0
  1 34  1  0
  1 35  1  0
  6 36  1  0
  7 37  1  0
  8 38  1  0
 10 39  1  0
 10 40  1  0
 11 41  1  0
 15 42  1  0
 16 43  1  0
 18 44  1  0
 18 45  1  0
 19 46  1  0
 19 47  1  0
 22 48  1  0
 23 49  1  0
 26 50  1  0
 27 51  1  0
 28 52  1  0
 29 53  1  0
 31 54  1  0
 32 55  1  0
 33 56  1  0
M  END
>  <smiles>  (42) 
NS(=O)(=O)c1cccc(CNC(=O)c2ccc(CCN=c3[nH]cnc4ccccc34)cc2)c1

>  <score_type>  (42) 
oracle

>  <origin>  (42) 
adg

>  <m_score__min__energy>  (42) 
-10.31

>  <m_primary>  (42) 
energy

$$$$
42:0
     RDKit          3D

 48 51  0  0  0  0  0  0  0  0999 V2000
   59.3570   33.7840   54.1190 C   0  0  0  0  0  0  0  0  0  0  0  0
   58.9510   33.2790   52.8510 O   0  0  0  0  0  0  0  0  0  0  0  0
   59.7390   33.3210   51.6900 C   0  0  0  0  0  0  0  0  0  0  0  0
   61.0300   32.8030   51.7490 C   0  0  0  0  0  0  0  0  0  0  0  0
   61.8540   32.8270   50.6250 C   0  0  0  0  0  0  0  0  0  0  0  0
   61.4060   33.3630   49.4000 C   0  0  0  0  0  0  0  0  0  0  0  0
   60.0860   33.8650   49.3290 C   0  0  0  0  0  0  0  0  0  0  0  0
   59.2730   33.8560   50.4790 C   0  0  0  0  0  0  0  0  0  0  0  0
   59.5210   34.4510   48.0650 C   0  0  0  0  0  0  0  0  0  0  0  0
   59.6310   33.5510   46.9090 N   0  0  0  0  0  0  0  0  0  0  0  0
   59.1850   31.8760   47.1720 S   0  0  0  0  0  0  0  0  0  0  0  0
   60.4330   31.0780   47.4230 O   0  0  0  0  0  0  0  0  0  0  0  0
   58.3070   31.7640   48.3880 O   0  0  0  0  0  0  0  0  0  0  0  0
   58.3910   31.2040   45.7400 C   0  0  0  0  0  0  0  0  0  0  0  0
   58.3830   31.9760   44.5690 C   0  0  0  0  0  0  0  0  0  0  0  0
   57.7670   31.5040   43.4030 C   0  0  0  0  0  0  0  0  0  0  0  0
   57.7190   32.3540   42.1680 C   0  0  0  0  0  0  0  0  0  0  0  0
   57.1380   30.2550   43.4150 C   0  0  0  0  0  0  0  0  0  0  0  0
   57.1440   29.4740   44.5710 C   0  0  0  0  0  0  0  0  0  0  0  0
   57.7670   29.9370   45.7470 C   0  0  0  0  0  0  0  0  0  0  0  0
   57.7650   29.1730   46.9250 O   0  0  0  0  0  0  0  0  0  0  0  0
   58.8340   28.3370   47.3520 C   0  0  0  0  0  0  0  0  0  0  0  0
   60.8770   33.7090   46.1560 C   0  0  0  0  0  0  0  0  0  0  0  0
   62.1470   33.4950   46.9400 C   0  0  0  0  0  0  0  0  0  0  0  0
   63.3360   33.4360   46.3080 N   0  0  0  0  0  0  0  0  0  0  0  0
   64.2260   33.2890   47.2720 N   0  0  0  0  0  0  0  0  0  0  0  0
   63.6360   33.2620   48.4520 N   0  0  0  0  0  0  0  0  0  0  0  0
   62.3280   33.3950   48.2850 N   0  0  0  0  0  0  0  0  0  0  0  0
   58.8829   33.1943   54.9174 H   0  0  0  0  0  0  0  0  0  0  0  0
   60.4508   33.7112   54.2095 H   0  0  0  0  0  0  0  0  0  0  0  0
   59.0509   34.8367   54.2095 H   0  0  0  0  0  0  0  0  0  0  0  0
   61.4025   32.3715   52.6898 H   0  0  0  0  0  0  0  0  0  0  0  0
   62.8735   32.4199   50.6949 H   0  0  0  0  0  0  0  0  0  0  0  0
   58.2571   34.2747   50.4273 H   0  0  0  0  0  0  0  0  0  0  0  0
   58.4577   34.6790   48.2304 H   0  0  0  0  0  0  0  0  0  0  0  0
   60.1064   35.3530   47.8333 H   0  0  0  0  0  0  0  0  0  0  0  0
   58.8664   32.9641   44.5663 H   0  0  0  0  0  0  0  0  0  0  0  0
   57.6591   33.4143   42.4547 H   0  0  0  0  0  0  0  0  0  0  0  0
   58.6281   32.1862   41.5718 H   0  0  0  0  0  0  0  0  0  0  0  0
   56.8346   32.0849   41.5718 H   0  0  0  0  0  0  0  0  0  0  0  0
   56.6359   29.8865   42.5083 H   0  0  0  0  0  0  0  0  0  0  0  0
   56.6577   28.4873   44.5644 H   0  0  0  0  0  0  0  0  0  0  0  0
   58.8643   28.3133   48.4513 H   0  0  0  0  0  0  0  0  0  0  0  0
   58.6788   27.3182   46.9674 H   0  0  0  0  0  0  0  0  0  0  0  0
   59.7854   28.7331   46.9674 H   0  0  0  0  0  0  0  0  0  0  0  0
   60.8653   32.9853   45.3277 H   0  0  0  0  0  0  0  0  0  0  0  0
   60.8992   34.7595   45.8306 H   0  0  0  0  0  0  0  0  0  0  0  0
   65.2550   33.2060   47.1220 H   0  0  0  0  0  0  0  0  0  0  0  0
  1  2  1  0
  2  3  1  0
  3  4  2  0
  4  5  1  0
  5  6  2  0
  6  7  1  0
  7  8  2  0
  7  9  1  0
  9 10  1  0
 10 11  1  0
 11 12  2  0
 11 13  2  0
 11 14  1  0
 14 15  2  0
 15 16  1  0
 16 17  1  0
 16 18  2  0
 18 19  1  0
 19 20  2  0
 20 21  1  0
 21 22  1  0
 10 23  1  0
 23 24  1  0
 24 25  2  0
 25 26  1  0
 26 27  2  0
 27 28  1  0
  8  3  1  0
 20 14  1  0
 28 24  1  0
 28  6  1  0
  1 29  1  0
  1 30  1  0
  1 31  1  0
  4 32  1  0
  5 33  1  0
  8 34  1  0
  9 35  1  0
  9 36  1  0
 15 37  1  0
 17 38  1  0
 17 39  1  0
 17 40  1  0
 18 41  1  0
 19 42  1  0
 22 43  1  0
 22 44  1  0
 22 45  1  0
 23 46  1  0
 23 47  1  0
 26 48  1  0
M  CHG  1  26   1
M  END
>  <UniqueID>  (43) 
36

>  <SMILES>  (43) 
COc1ccc2c(c1)CN(S(=O)(=O)c1cc(C)ccc1OC)Cc1n[nH+]nn1-2

>  <Energy>  (43) 
104.12045905009667

>  <Genealogy>  (43) 
COc1ccc2c(c1)CN(S(=O)(=O)c1cc(C)ccc1OC)Cc1n[nH+]nn1-2 (protonated)
COc1ccc2c(c1)CN(S(=O)(=O)c1cc(C)ccc1OC)Cc1n[nH+]nn1-2 (3D coordinates assigned)
COc1ccc2c(c1)CN(S(=O)(=O)c1cc(C)ccc1OC)Cc1n[nH+]nn1-2 (nonaromatic ring conformer: 104.12045905009667 kcal/mol)

>  <smiles>  (43) 
COc1ccc2c(c1)CN(S(=O)(=O)c1cc(C)ccc1OC)Cc1nnnn1-2

>  <score_type>  (43) 
oracle

>  <origin>  (43) 
adg

>  <m_score__min__energy>  (43) 
-7.3899999999999997

>  <m_primary>  (43) 
energy

$$$$
43:0
     RDKit          3D

 54 56  0  0  0  0  0  0  0  0999 V2000
   66.4370   32.2700   50.5850 C   0  0  0  0  0  0  0  0  0  0  0  0
   65.5430   32.7110   49.5210 N   0  0  0  0  0  0  0  0  0  0  0  0
   64.1180   32.7300   49.6950 C   0  0  0  0  0  0  0  0  0  0  0  0
   63.6300   32.4920   50.8340 O   0  0  0  0  0  0  0  0  0  0  0  0
   63.2100   33.0400   48.5650 C   0  0  0  0  0  0  0  0  0  0  0  0
   63.7000   33.6010   47.3730 C   0  0  0  0  0  0  0  0  0  0  0  0
   62.8330   33.8780   46.3140 C   0  0  0  0  0  0  0  0  0  0  0  0
   61.4700   33.5980   46.4280 C   0  0  0  0  0  0  0  0  0  0  0  0
   60.9560   33.0390   47.6100 C   0  0  0  0  0  0  0  0  0  0  0  0
   59.4800   32.7110   47.7420 C   0  0  1  0  0  0  0  0  0  0  0  0
   58.8850   32.2930   46.4020 C   0  0  0  0  0  0  0  0  0  0  0  0
   58.4500   33.3760   45.4750 C   0  0  0  0  0  0  0  0  0  0  0  0
   57.0630   33.9370   45.5290 C   0  0  0  0  0  0  0  0  0  0  0  0
   59.2380   33.7940   44.5850 O   0  0  0  0  0  0  0  0  0  0  0  0
   58.7920   30.9800   46.0570 C   0  0  0  0  0  0  0  0  0  0  0  0
   58.4110   30.5760   44.6450 C   0  0  0  0  0  0  0  0  0  0  0  0
   59.0280   29.9510   47.0510 N   0  0  0  0  0  0  0  0  0  0  0  0
   59.0090   28.5560   46.7080 C   0  0  0  0  0  0  0  0  0  0  0  0
   60.2080   27.8660   46.4900 C   0  0  0  0  0  0  0  0  0  0  0  0
   60.1860   26.5080   46.1650 C   0  0  0  0  0  0  0  0  0  0  0  0
   58.9660   25.8360   46.0430 C   0  0  0  0  0  0  0  0  0  0  0  0
   57.7520   26.5230   46.2250 C   0  0  0  0  0  0  0  0  0  0  0  0
   56.4380   25.7910   46.1420 C   0  0  0  0  0  0  0  0  0  0  0  0
   56.2270   25.0310   47.2800 F   0  0  0  0  0  0  0  0  0  0  0  0
   56.4200   24.9430   45.0480 F   0  0  0  0  0  0  0  0  0  0  0  0
   55.4120   26.7090   46.0180 F   0  0  0  0  0  0  0  0  0  0  0  0
   57.7860   27.8840   46.5790 C   0  0  0  0  0  0  0  0  0  0  0  0
   59.2040   30.3140   48.4280 C   0  0  0  0  0  0  0  0  0  0  0  0
   59.2620   29.4230   49.3190 O   0  0  0  0  0  0  0  0  0  0  0  0
   59.2940   31.6970   48.7860 N   0  0  0  0  0  0  0  0  0  0  0  0
   59.3600   32.0810   50.1990 C   0  0  0  0  0  0  0  0  0  0  0  0
   61.8370   32.7480   48.6670 C   0  0  0  0  0  0  0  0  0  0  0  0
   65.9831   32.4939   51.5616 H   0  0  0  0  0  0  0  0  0  0  0  0
   66.6039   31.1862   50.4980 H   0  0  0  0  0  0  0  0  0  0  0  0
   67.3985   32.7972   50.4980 H   0  0  0  0  0  0  0  0  0  0  0  0
   65.9710   33.0610   48.6340 H   0  0  0  0  0  0  0  0  0  0  0  0
   64.7728   33.8231   47.2738 H   0  0  0  0  0  0  0  0  0  0  0  0
   63.2257   34.3188   45.3858 H   0  0  0  0  0  0  0  0  0  0  0  0
   60.7947   33.8163   45.5876 H   0  0  0  0  0  0  0  0  0  0  0  0
   58.9312   33.6137   48.0485 H   0  0  0  0  0  0  0  0  0  0  0  0
   56.7580   34.0604   46.5786 H   0  0  0  0  0  0  0  0  0  0  0  0
   57.0427   34.9140   45.0240 H   0  0  0  0  0  0  0  0  0  0  0  0
   56.3692   33.2488   45.0240 H   0  0  0  0  0  0  0  0  0  0  0  0
   57.6568   29.7762   44.6834 H   0  0  0  0  0  0  0  0  0  0  0  0
   57.9966   31.4457   44.1140 H   0  0  0  0  0  0  0  0  0  0  0  0
   59.3034   30.2132   44.1140 H   0  0  0  0  0  0  0  0  0  0  0  0
   61.1689   28.3947   46.5749 H   0  0  0  0  0  0  0  0  0  0  0  0
   61.1298   25.9663   46.0048 H   0  0  0  0  0  0  0  0  0  0  0  0
   58.9554   24.7626   45.8030 H   0  0  0  0  0  0  0  0  0  0  0  0
   56.8449   28.4253   46.7560 H   0  0  0  0  0  0  0  0  0  0  0  0
   59.2072   31.1917   50.8282 H   0  0  0  0  0  0  0  0  0  0  0  0
   60.3464   32.5176   50.4146 H   0  0  0  0  0  0  0  0  0  0  0  0
   58.5760   32.8219   50.4146 H   0  0  0  0  0  0  0  0  0  0  0  0
   61.4476   32.2858   49.5861 H   0  0  0  0  0  0  0  0  0  0  0  0
  1  2  1  0
  2  3  1  0
  3  4  2  0
  3  5  1  0
  5  6  2  0
  6  7  1  0
  7  8  2  0
  8  9  1  0
  9 10  1  0
 10 11  1  0
 11 12  1  0
 12 13  1  0
 12 14  2  0
 11 15  2  0
 15 16  1  0
 15 17  1  0
 17 18  1  0
 18 19  2  0
 19 20  1  0
 20 21  2  0
 21 22  1  0
 22 23  1  0
 23 24  1  0
 23 25  1  0
 23 26  1  0
 22 27  2  0
 17 28  1  0
 28 29  2  0
 28 30  1  0
 30 31  1  0
  9 32  2  0
 32  5  1  0
 30 10  1  0
 27 18  1  0
  1 33  1  0
  1 34  1  0
  1 35  1  0
  2 36  1  0
  6 37  1  0
  7 38  1  0
  8 39  1  0
 10 40  1  1
 13 41  1  0
 13 42  1  0
 13 43  1  0
 16 44  1  0
 16 45  1  0
 16 46  1  0
 19 47  1  0
 20 48  1  0
 21 49  1  0
 27 50  1  0
 31 51  1  0
 31 52  1  0
 31 53  1  0
 32 54  1  0
M  END
>  <UniqueID>  (44) 
37

>  <SMILES>  (44) 
CNC(=O)c1cccc([C@H]2C(C(C)=O)=C(C)N(c3cccc(C(F)(F)F)c3)C(=O)N2C)c1

>  <Energy>  (44) 
67.6268803446249

>  <Genealogy>  (44) 
CNC(=O)c1cccc([C@H]2C(C(C)=O)=C(C)N(c3cccc(C(F)(F)F)c3)C(=O)N2C)c1 (chirality)
CNC(=O)c1cccc([C@H]2C(C(C)=O)=C(C)N(c3cccc(C(F)(F)F)c3)C(=O)N2C)c1 (3D coordinates assigned)
CNC(=O)c1cccc([C@H]2C(C(C)=O)=C(C)N(c3cccc(C(F)(F)F)c3)C(=O)N2C)c1 (nonaromatic ring conformer: 67.6268803446249 kcal/mol)

>  <smiles>  (44) 
CNC(=O)c1cccc(C2C(C(C)=O)=C(C)N(c3cccc(C(F)(F)F)c3)C(=O)N2C)c1

>  <score_type>  (44) 
oracle

>  <origin>  (44) 
adg

>  <m_score__min__energy>  (44) 
-9.0099999999999998

>  <m_primary>  (44) 
energy

$$$$
44:0
     RDKit          3D

 45 48  0  0  0  0  0  0  0  0999 V2000
   59.6527   26.7352   47.3176 H   0  0  0  0  0  0  0  0  0  0  0  0
   59.0240   27.6290   47.4430 C   0  0  0  0  0  0  0  0  0  0  0  0
   59.3330   28.5140   48.3410 N   0  0  0  0  0  0  0  0  0  0  0  0
   60.1800   29.6620   48.1730 C   0  0  0  0  0  0  0  0  0  0  0  0
   60.8820   29.9280   46.9780 C   0  0  0  0  0  0  0  0  0  0  0  0
   60.7982   29.2365   46.1266 H   0  0  0  0  0  0  0  0  0  0  0  0
   61.6840   31.0690   46.8740 C   0  0  0  0  0  0  0  0  0  0  0  0
   62.2287   31.2708   45.9399 H   0  0  0  0  0  0  0  0  0  0  0  0
   61.7980   31.9560   47.9510 C   0  0  0  0  0  0  0  0  0  0  0  0
   62.7950   33.4010   47.8130 S   0  0  0  0  0  0  0  0  0  0  0  0
   62.3760   34.4130   48.8400 O   0  0  0  0  0  0  0  0  0  0  0  0
   62.6240   34.0030   46.4460 O   0  0  0  0  0  0  0  0  0  0  0  0
   64.4550   32.9850   48.0590 N   0  0  0  0  0  0  0  0  0  0  0  0
   64.4870   31.9590   48.2480 H   0  0  0  0  0  0  0  0  0  0  0  0
   64.9460   33.1400   47.1490 H   0  0  0  0  0  0  0  0  0  0  0  0
   61.0890   31.7030   49.1320 C   0  0  0  0  0  0  0  0  0  0  0  0
   61.1652   32.4021   49.9778 H   0  0  0  0  0  0  0  0  0  0  0  0
   60.2850   30.5650   49.2390 C   0  0  0  0  0  0  0  0  0  0  0  0
   59.7291   30.3764   50.1693 H   0  0  0  0  0  0  0  0  0  0  0  0
   57.8370   27.8140   46.5910 C   0  0  0  0  0  0  0  0  0  0  0  0
   56.7830   26.9210   46.4520 C   0  0  0  0  0  0  0  0  0  0  0  0
   56.7030   25.6880   47.0860 O   0  0  0  0  0  0  0  0  0  0  0  0
   55.8170   27.3860   45.6260 N   0  0  0  0  0  0  0  0  0  0  0  0
   56.2720   28.5930   45.2370 C   0  0  0  0  0  0  0  0  0  0  0  0
   55.6290   29.4780   44.3770 C   0  0  0  0  0  0  0  0  0  0  0  0
   54.6534   29.2272   43.9350 H   0  0  0  0  0  0  0  0  0  0  0  0
   56.2590   30.7010   44.0880 C   0  0  0  0  0  0  0  0  0  0  0  0
   55.7713   31.4168   43.4099 H   0  0  0  0  0  0  0  0  0  0  0  0
   57.5170   31.0230   44.6610 C   0  0  0  0  0  0  0  0  0  0  0  0
   58.1760   32.3120   44.3280 C   0  0  0  0  0  0  0  0  0  0  0  0
   58.3400   32.6170   43.1160 O   0  0  0  0  0  0  0  0  0  0  0  0
   58.6590   33.2490   45.3720 C   0  0  0  0  0  0  0  0  0  0  0  0
   58.4580   32.9790   46.7390 C   0  0  0  0  0  0  0  0  0  0  0  0
   57.9316   32.0624   47.0435 H   0  0  0  0  0  0  0  0  0  0  0  0
   58.9230   33.8680   47.7110 C   0  0  0  0  0  0  0  0  0  0  0  0
   58.7736   33.6427   48.7773 H   0  0  0  0  0  0  0  0  0  0  0  0
   59.5770   35.0420   47.3320 C   0  0  0  0  0  0  0  0  0  0  0  0
   59.9464   35.7383   48.0993 H   0  0  0  0  0  0  0  0  0  0  0  0
   59.7620   35.3320   45.9780 C   0  0  0  0  0  0  0  0  0  0  0  0
   60.2723   36.2597   45.6796 H   0  0  0  0  0  0  0  0  0  0  0  0
   59.2990   34.4440   45.0010 C   0  0  0  0  0  0  0  0  0  0  0  0
   59.4367   34.6826   43.9360 H   0  0  0  0  0  0  0  0  0  0  0  0
   58.1500   30.0880   45.5130 C   0  0  0  0  0  0  0  0  0  0  0  0
   59.1394   30.3002   45.9444 H   0  0  0  0  0  0  0  0  0  0  0  0
   57.4910   28.8900   45.7940 C   0  0  0  0  0  0  0  0  0  0  0  0
  1  2  1  0
  2  3  2  0
  3  4  1  0
  4  5  2  0
  5  6  1  0
  5  7  1  0
  7  8  1  0
  7  9  2  0
  9 10  1  0
 10 11  2  0
 10 12  2  0
 10 13  1  0
 13 14  1  0
 13 15  1  0
  9 16  1  0
 16 17  1  0
 16 18  2  0
 18 19  1  0
  2 20  1  0
 20 21  2  0
 21 22  1  0
 21 23  1  0
 23 24  1  0
 24 25  2  0
 25 26  1  0
 25 27  1  0
 27 28  1  0
 27 29  2  0
 29 30  1  0
 30 31  2  0
 30 32  1  0
 32 33  2  0
 33 34  1  0
 33 35  1  0
 35 36  1  0
 35 37  2  0
 37 38  1  0
 37 39  1  0
 39 40  1  0
 39 41  2  0
 41 42  1  0
 29 43  1  0
 43 44  1  0
 43 45  2  0
 18  4  1  0
 45 20  1  0
 45 24  1  0
 41 32  1  0
M  CHG  2  22  -1  23  -1
M  END
>  <UniqueID>  (45) 
38

>  <SMILES>  (45) 
NS(=O)(=O)c1ccc(/N=C/c2c([O-])[n-]c3ccc(C(=O)c4ccccc4)cc23)cc1

>  <Energy>  (45) 
89.27275268514366

>  <Genealogy>  (45) 
NS(=O)(=O)c1ccc(N=Cc2c([O-])[n-]c3ccc(C(=O)c4ccccc4)cc23)cc1 (protonated)
NS(=O)(=O)c1ccc(/N=C/c2c([O-])[n-]c3ccc(C(=O)c4ccccc4)cc23)cc1 (cis-trans isomerization)
NS(=O)(=O)c1ccc(/N=C/c2c([O-])[n-]c3ccc(C(=O)c4ccccc4)cc23)cc1 (3D coordinates assigned)
NS(=O)(=O)c1ccc(/N=C/c2c([O-])[n-]c3ccc(C(=O)c4ccccc4)cc23)cc1 (optimized conformer: 89.27275268514366 kcal/mol)

>  <smiles>  (45) 
NS(=O)(=O)c1ccc(N=Cc2c(O)[nH]c3ccc(C(=O)c4ccccc4)cc23)cc1

>  <score_type>  (45) 
oracle

>  <origin>  (45) 
adg

>  <m_score__min__energy>  (45) 
-14.68

>  <m_primary>  (45) 
energy

$$$$
45:0
     RDKit          3D

 58 62  0  0  0  0  0  0  0  0999 V2000
   59.8903   27.7048   46.0886 H   0  0  0  0  0  0  0  0  0  0  0  0
   59.3010   28.6020   46.3290 C   0  0  0  0  0  0  0  0  0  0  0  0
   58.2660   28.9110   45.5230 C   0  0  0  0  0  0  0  0  0  0  0  0
   58.3350   30.1460   44.6990 C   0  0  0  0  0  0  0  0  0  0  0  0
   59.1800   30.1980   43.7630 O   0  0  0  0  0  0  0  0  0  0  0  0
   57.4440   31.3100   44.9400 C   0  0  0  0  0  0  0  0  0  0  0  0
   56.2480   31.2720   44.5450 O   0  0  0  0  0  0  0  0  0  0  0  0
   57.9180   32.5400   45.6130 C   0  0  0  0  0  0  0  0  0  0  0  0
   58.5690   32.6620   46.8310 C   0  0  0  0  0  0  0  0  0  0  0  0
   58.8039   31.8516   47.5367 H   0  0  0  0  0  0  0  0  0  0  0  0
   58.8570   33.9700   46.9790 N   0  0  0  0  0  0  0  0  0  0  0  0
   59.5960   34.5780   48.0800 C   0  0  0  0  0  0  0  0  0  0  0  0
   59.4898   35.6717   48.0291 H   0  0  0  0  0  0  0  0  0  0  0  0
   59.1918   34.2060   49.0330 H   0  0  0  0  0  0  0  0  0  0  0  0
   61.0540   34.2150   47.9890 C   0  0  0  0  0  0  0  0  0  0  0  0
   61.8580   34.2260   49.1420 C   0  0  0  0  0  0  0  0  0  0  0  0
   61.4272   34.5293   50.1076 H   0  0  0  0  0  0  0  0  0  0  0  0
   63.2030   33.8530   49.0660 C   0  0  0  0  0  0  0  0  0  0  0  0
   63.8261   33.8584   49.9725 H   0  0  0  0  0  0  0  0  0  0  0  0
   63.7580   33.4730   47.8400 C   0  0  0  0  0  0  0  0  0  0  0  0
   64.8203   33.1938   47.7799 H   0  0  0  0  0  0  0  0  0  0  0  0
   62.9620   33.4480   46.6900 C   0  0  0  0  0  0  0  0  0  0  0  0
   63.3966   33.1404   45.7274 H   0  0  0  0  0  0  0  0  0  0  0  0
   61.6130   33.8140   46.7630 C   0  0  0  0  0  0  0  0  0  0  0  0
   60.9881   33.7878   45.8581 H   0  0  0  0  0  0  0  0  0  0  0  0
   58.4260   34.6260   45.9100 N   0  0  0  0  0  0  0  0  0  0  0  0
   57.8490   33.7770   45.0750 N   0  0  0  0  0  0  0  0  0  0  0  0
   57.4410   34.0440   44.1500 H   0  0  0  0  0  0  0  0  0  0  0  0
   57.0000   28.1560   45.6040 C   0  0  0  0  0  0  0  0  0  0  0  0
   55.9410   28.6940   45.1860 O   0  0  0  0  0  0  0  0  0  0  0  0
   56.9550   26.8010   46.1780 C   0  0  0  0  0  0  0  0  0  0  0  0
   58.0330   26.0870   46.5940 N   0  0  0  0  0  0  0  0  0  0  0  0
   57.5980   24.8710   46.9450 N   0  0  0  0  0  0  0  0  0  0  0  0
   56.2640   24.9160   46.7910 C   0  0  0  0  0  0  0  0  0  0  0  0
   55.4260   23.9110   46.4830 N   0  0  0  0  0  0  0  0  0  0  0  0
   54.4490   24.6090   45.8250 C   0  0  0  0  0  0  0  0  0  0  0  0
   53.5202   24.1463   45.4601 H   0  0  0  0  0  0  0  0  0  0  0  0
   54.7370   25.9330   45.6650 N   0  0  0  0  0  0  0  0  0  0  0  0
   55.8510   26.0690   46.3510 N   0  0  0  0  0  0  0  0  0  0  0  0
   59.6950   29.3900   47.5140 C   0  0  0  0  0  0  0  0  0  0  0  0
   58.8390   29.4540   48.6180 C   0  0  0  0  0  0  0  0  0  0  0  0
   57.8964   28.8870   48.6131 H   0  0  0  0  0  0  0  0  0  0  0  0
   59.1750   30.2350   49.7280 C   0  0  0  0  0  0  0  0  0  0  0  0
   58.4960   30.2703   50.5927 H   0  0  0  0  0  0  0  0  0  0  0  0
   60.3750   30.9790   49.7530 C   0  0  0  0  0  0  0  0  0  0  0  0
   60.7150   31.8090   50.8940 N   0  0  0  0  0  0  0  0  0  0  0  0
   62.0210   31.6830   51.5470 C   0  0  0  0  0  0  0  0  0  0  0  0
   61.8878   31.6959   52.6388 H   0  0  0  0  0  0  0  0  0  0  0  0
   62.4915   30.7353   51.2461 H   0  0  0  0  0  0  0  0  0  0  0  0
   62.6640   32.5233   51.2461 H   0  0  0  0  0  0  0  0  0  0  0  0
   59.7530   32.7880   51.4140 C   0  0  0  0  0  0  0  0  0  0  0  0
   59.7702   32.7705   52.5137 H   0  0  0  0  0  0  0  0  0  0  0  0
   60.0245   33.7931   51.0590 H   0  0  0  0  0  0  0  0  0  0  0  0
   58.7433   32.5341   51.0590 H   0  0  0  0  0  0  0  0  0  0  0  0
   61.2210   30.9150   48.6270 C   0  0  0  0  0  0  0  0  0  0  0  0
   62.1656   31.4786   48.6241 H   0  0  0  0  0  0  0  0  0  0  0  0
   60.8740   30.1450   47.5160 C   0  0  0  0  0  0  0  0  0  0  0  0
   61.5322   30.1312   46.6347 H   0  0  0  0  0  0  0  0  0  0  0  0
  1  2  1  0
  2  3  2  0
  3  4  1  0
  4  5  2  0
  4  6  1  0
  6  7  2  0
  6  8  1  0
  8  9  2  0
  9 10  1  0
  9 11  1  0
 11 12  1  0
 12 13  1  0
 12 14  1  0
 12 15  1  0
 15 16  2  0
 16 17  1  0
 16 18  1  0
 18 19  1  0
 18 20  2  0
 20 21  1  0
 20 22  1  0
 22 23  1  0
 22 24  2  0
 24 25  1  0
 11 26  1  0
 26 27  2  0
 27 28  1  0
  3 29  1  0
 29 30  2  0
 29 31  1  0
 31 32  2  0
 32 33  1  0
 33 34  2  0
 34 35  1  0
 35 36  1  0
 36 37  1  0
 36 38  2  0
 38 39  1  0
  2 40  1  0
 40 41  2  0
 41 42  1  0
 41 43  1  0
 43 44  1  0
 43 45  2  0
 45 46  1  0
 46 47  1  0
 47 48  1  0
 47 49  1  0
 47 50  1  0
 46 51  1  0
 51 52  1  0
 51 53  1  0
 51 54  1  0
 45 55  1  0
 55 56  1  0
 55 57  2  0
 57 58  1  0
 27  8  1  0
 39 31  1  0
 57 40  1  0
 24 15  1  0
 39 34  1  0
M  CHG  2  27   1  35  -1
M  END
>  <UniqueID>  (46) 
39

>  <SMILES>  (46) 
CN(C)c1ccc(/C=C(/C(=O)C(=O)c2cn(Cc3ccccc3)n[nH+]2)C(=O)c2nnc3[n-]cnn23)cc1

>  <Energy>  (46) 
221.24558652486627

>  <Genealogy>  (46) 
CN(C)c1ccc(C=C(C(=O)C(=O)c2cn(Cc3ccccc3)n[nH+]2)C(=O)c2nnc3[n-]cnn23)cc1 (protonated)
CN(C)c1ccc(/C=C(/C(=O)C(=O)c2cn(Cc3ccccc3)n[nH+]2)C(=O)c2nnc3[n-]cnn23)cc1 (cis-trans isomerization)
CN(C)c1ccc(/C=C(/C(=O)C(=O)c2cn(Cc3ccccc3)n[nH+]2)C(=O)c2nnc3[n-]cnn23)cc1 (3D coordinates assigned)
CN(C)c1ccc(/C=C(/C(=O)C(=O)c2cn(Cc3ccccc3)n[nH+]2)C(=O)c2nnc3[n-]cnn23)cc1 (optimized conformer: 221.24558652486627 kcal/mol)

>  <smiles>  (46) 
CN(C)c1ccc(C=C(C(=O)C(=O)c2cn(Cc3ccccc3)nn2)C(=O)c2nnc3[nH]cnn23)cc1

>  <score_type>  (46) 
oracle

>  <origin>  (46) 
adg

>  <m_score__min__energy>  (46) 
-10.949999999999999

>  <m_primary>  (46) 
energy

$$$$
46:0
     RDKit          3D

 44 47  0  0  0  0  0  0  0  0999 V2000
   56.7170   19.4100   46.0390 C   0  0  0  0  0  0  0  0  0  0  0  0
   57.3350   19.8670   47.2860 N   0  0  0  0  0  0  0  0  0  0  0  0
   58.4800   19.1550   47.8610 C   0  0  0  0  0  0  0  0  0  0  0  0
   56.8020   21.0240   47.9530 C   0  0  0  0  0  0  0  0  0  0  0  0
   57.3390   21.4400   49.0160 O   0  0  0  0  0  0  0  0  0  0  0  0
   55.7210   21.7140   47.3860 O   0  0  0  0  0  0  0  0  0  0  0  0
   55.7510   23.0430   46.9370 C   0  0  0  0  0  0  0  0  0  0  0  0
   56.7550   23.8880   47.4200 C   0  0  0  0  0  0  0  0  0  0  0  0
   56.8300   25.2170   46.9970 C   0  0  0  0  0  0  0  0  0  0  0  0
   55.8970   25.7260   46.0820 C   0  0  0  0  0  0  0  0  0  0  0  0
   56.0100   27.0910   45.6430 N   0  0  0  0  0  0  0  0  0  0  0  0
   57.2490   27.8190   45.5990 C   0  0  0  0  0  0  0  0  0  0  0  0
   58.3480   27.2100   45.6890 O   0  0  0  0  0  0  0  0  0  0  0  0
   57.2510   29.2800   45.4100 C   0  0  0  0  0  0  0  0  0  0  0  0
   56.2140   29.8850   44.7370 N   0  0  0  0  0  0  0  0  0  0  0  0
   56.1790   31.2100   44.5390 N   0  0  0  0  0  0  0  0  0  0  0  0
   57.1970   31.9580   45.0190 C   0  0  0  0  0  0  0  0  0  0  0  0
   57.3440   33.2950   44.9230 N   0  0  0  0  0  0  0  0  0  0  0  0
   58.5170   33.5400   45.5580 C   0  0  0  0  0  0  0  0  0  0  0  0
   59.1330   34.7760   45.7420 C   0  0  0  0  0  0  0  0  0  0  0  0
   60.3590   34.8050   46.4350 C   0  0  0  0  0  0  0  0  0  0  0  0
   60.9380   33.6130   46.9260 C   0  0  0  0  0  0  0  0  0  0  0  0
   60.3010   32.3730   46.7300 C   0  0  0  0  0  0  0  0  0  0  0  0
   59.0920   32.3760   46.0410 C   0  0  0  0  0  0  0  0  0  0  0  0
   58.2290   31.3710   45.6860 C   0  0  0  0  0  0  0  0  0  0  0  0
   58.2830   30.0380   45.8940 N   0  0  0  0  0  0  0  0  0  0  0  0
   54.9120   24.8670   45.5630 C   0  0  0  0  0  0  0  0  0  0  0  0
   54.8380   23.5360   45.9870 C   0  0  0  0  0  0  0  0  0  0  0  0
   55.8525   18.7707   46.2710 H   0  0  0  0  0  0  0  0  0  0  0  0
   56.3832   20.2802   45.4548 H   0  0  0  0  0  0  0  0  0  0  0  0
   57.4512   18.8359   45.4548 H   0  0  0  0  0  0  0  0  0  0  0  0
   58.4209   19.1917   48.9588 H   0  0  0  0  0  0  0  0  0  0  0  0
   58.4649   18.1068   47.5279 H   0  0  0  0  0  0  0  0  0  0  0  0
   59.4134   19.6322   47.5279 H   0  0  0  0  0  0  0  0  0  0  0  0
   57.4924   23.5026   48.1396 H   0  0  0  0  0  0  0  0  0  0  0  0
   57.6266   25.8692   47.3844 H   0  0  0  0  0  0  0  0  0  0  0  0
   55.1550   27.5470   45.2510 H   0  0  0  0  0  0  0  0  0  0  0  0
   56.7020   33.9810   44.4650 H   0  0  0  0  0  0  0  0  0  0  0  0
   58.6763   35.7002   45.3582 H   0  0  0  0  0  0  0  0  0  0  0  0
   60.8710   35.7653   46.5956 H   0  0  0  0  0  0  0  0  0  0  0  0
   61.8953   33.6545   47.4663 H   0  0  0  0  0  0  0  0  0  0  0  0
   60.7417   31.4382   47.1068 H   0  0  0  0  0  0  0  0  0  0  0  0
   54.1951   25.2441   44.8188 H   0  0  0  0  0  0  0  0  0  0  0  0
   54.0630   22.8723   45.5760 H   0  0  0  0  0  0  0  0  0  0  0  0
  1  2  1  0
  2  3  1  0
  2  4  1  0
  4  5  2  0
  4  6  1  0
  6  7  1  0
  7  8  2  0
  8  9  1  0
  9 10  2  0
 10 11  1  0
 11 12  1  0
 12 13  2  0
 12 14  1  0
 14 15  2  0
 15 16  1  0
 16 17  2  0
 17 18  1  0
 18 19  1  0
 19 20  2  0
 20 21  1  0
 21 22  2  0
 22 23  1  0
 23 24  2  0
 24 25  1  0
 25 26  2  0
 10 27  1  0
 27 28  2  0
 28  7  1  0
 26 14  1  0
 25 17  1  0
 24 19  1  0
  1 29  1  0
  1 30  1  0
  1 31  1  0
  3 32  1  0
  3 33  1  0
  3 34  1  0
  8 35  1  0
  9 36  1  0
 11 37  1  0
 18 38  1  0
 20 39  1  0
 21 40  1  0
 22 41  1  0
 23 42  1  0
 27 43  1  0
 28 44  1  0
M  END
>  <UniqueID>  (47) 
40

>  <SMILES>  (47) 
CN(C)C(=O)Oc1ccc(NC(=O)c2nnc3[nH]c4ccccc4c3n2)cc1

>  <Energy>  (47) 
98.93733912927868

>  <Genealogy>  (47) 
CN(C)C(=O)Oc1ccc(NC(=O)c2nnc3[nH]c4ccccc4c3n2)cc1 (3D coordinates assigned)
CN(C)C(=O)Oc1ccc(NC(=O)c2nnc3[nH]c4ccccc4c3n2)cc1 (optimized conformer: 98.93733912927868 kcal/mol)

>  <smiles>  (47) 
CN(C)C(=O)Oc1ccc(NC(=O)c2nnc3[nH]c4ccccc4c3n2)cc1

>  <score_type>  (47) 
oracle

>  <origin>  (47) 
adg

>  <m_score__min__energy>  (47) 
-8.4700000000000006

>  <m_primary>  (47) 
energy

$$$$
47:0
     RDKit          3D

 37 39  0  0  1  0  0  0  0  0999 V2000
   57.8090   32.3470   41.5350 C   0  0  0  0  0  0  0  0  0  0  0  0
   57.0170   31.3360   42.3430 C   0  0  0  0  0  0  0  0  0  0  0  0
   57.6070   31.1820   43.7090 C   0  0  0  0  0  0  0  0  0  0  0  0
   57.4140   32.1080   44.6420 N   0  0  0  0  0  0  0  0  0  0  0  0
   57.9530   31.9570   45.8780 C   0  0  0  0  0  0  0  0  0  0  0  0
   57.7250   32.8730   46.6960 N   0  0  0  0  0  0  0  0  0  0  0  0
   58.1590   34.2040   46.6140 C   0  0  0  0  0  0  0  0  0  0  0  0
   59.5850   34.0670   47.1640 C   0  0  0  0  0  0  0  0  0  0  0  0
   59.7980   34.0960   48.5360 C   0  0  0  0  0  0  0  0  0  0  0  0
   61.0770   33.9570   49.0270 C   0  0  0  0  0  0  0  0  0  0  0  0
   62.0850   33.7950   48.1130 C   0  0  0  0  0  0  0  0  0  0  0  0
   61.9230   33.7610   46.7520 C   0  0  0  0  0  0  0  0  0  0  0  0
   60.6430   33.8990   46.2670 C   0  0  0  0  0  0  0  0  0  0  0  0
   58.7010   30.8590   46.1930 C   0  0  0  0  0  0  0  0  0  0  0  0
   59.2360   30.7130   47.4290 C   0  0  0  0  0  0  0  0  0  0  0  0
   59.9920   29.5320   47.6360 C   0  0  0  0  0  0  0  0  0  0  0  0
   60.1420   28.6330   46.6320 C   0  0  0  0  0  0  0  0  0  0  0  0
   59.6010   28.7760   45.3740 C   0  0  0  0  0  0  0  0  0  0  0  0
   58.8610   29.9300   45.1700 C   0  0  0  0  0  0  0  0  0  0  0  0
   58.3280   30.0800   43.9470 N   0  0  0  0  0  0  0  0  0  0  0  0
   58.3410   33.0261   42.2176 H   0  0  0  0  0  0  0  0  0  0  0  0
   58.5371   31.8201   40.9008 H   0  0  0  0  0  0  0  0  0  0  0  0
   57.1231   32.9278   40.9008 H   0  0  0  0  0  0  0  0  0  0  0  0
   55.9764   31.6806   42.4345 H   0  0  0  0  0  0  0  0  0  0  0  0
   57.0499   30.3642   41.8288 H   0  0  0  0  0  0  0  0  0  0  0  0
   58.1572   34.5686   45.5762 H   0  0  0  0  0  0  0  0  0  0  0  0
   57.5274   34.9263   47.1520 H   0  0  0  0  0  0  0  0  0  0  0  0
   58.9513   34.2290   49.2254 H   0  0  0  0  0  0  0  0  0  0  0  0
   61.2810   33.9753   50.1078 H   0  0  0  0  0  0  0  0  0  0  0  0
   63.1074   33.6831   48.5030 H   0  0  0  0  0  0  0  0  0  0  0  0
   62.7807   33.6289   46.0760 H   0  0  0  0  0  0  0  0  0  0  0  0
   60.4543   33.8773   45.1835 H   0  0  0  0  0  0  0  0  0  0  0  0
   59.0929   31.4628   48.2211 H   0  0  0  0  0  0  0  0  0  0  0  0
   60.4585   29.3442   48.6143 H   0  0  0  0  0  0  0  0  0  0  0  0
   60.7353   27.7295   46.8361 H   0  0  0  0  0  0  0  0  0  0  0  0
   59.7464   28.0247   44.5838 H   0  0  0  0  0  0  0  0  0  0  0  0
   58.4610   29.3690   43.1910 H   0  0  0  0  0  0  0  0  0  0  0  0
  1  2  1  0
  2  3  1  0
  3  4  2  0
  4  5  1  0
  5  6  2  0
  6  7  1  0
  7  8  1  0
  8  9  2  0
  9 10  1  0
 10 11  2  0
 11 12  1  0
 12 13  2  0
  5 14  1  0
 14 15  2  0
 15 16  1  0
 16 17  2  0
 17 18  1  0
 18 19  2  0
 19 20  1  0
 20  3  1  0
 13  8  1  0
 19 14  1  0
  1 21  1  0
  1 22  1  0
  1 23  1  0
  2 24  1  0
  2 25  1  0
  7 26  1  0
  7 27  1  0
  9 28  1  0
 10 29  1  0
 11 30  1  0
 12 31  1  0
 13 32  1  0
 15 33  1  0
 16 34  1  0
 17 35  1  0
 18 36  1  0
 20 37  1  0
M  END
>  <smiles>  (48) 
CCc1nc(=NCc2ccccc2)c2ccccc2[nH]1

>  <score_type>  (48) 
oracle

>  <origin>  (48) 
adg

>  <m_score__min__energy>  (48) 
-7.2999999999999998

>  <m_primary>  (48) 
energy

$$$$
48:0
     RDKit          3D

 50 53  0  0  0  0  0  0  0  0999 V2000
   58.3271   30.6534   43.0524 H   0  0  0  0  0  0  0  0  0  0  0  0
   57.9900   30.7250   44.0970 C   0  0  0  0  0  0  0  0  0  0  0  0
   57.1390   31.8640   44.4900 C   0  0  0  0  0  0  0  0  0  0  0  0
   57.3800   28.3480   45.4680 S   0  0  0  0  0  0  0  0  0  0  0  0
   58.5060   28.0050   46.8990 C   0  0  0  0  0  0  0  0  0  0  0  0
   58.8353   26.9555   46.8865 H   0  0  0  0  0  0  0  0  0  0  0  0
   58.0035   28.1711   47.8633 H   0  0  0  0  0  0  0  0  0  0  0  0
   59.6650   28.9150   46.7170 C   0  0  0  0  0  0  0  0  0  0  0  0
   59.5800   29.8290   45.7390 C   0  0  0  0  0  0  0  0  0  0  0  0
   60.3930   30.8640   46.0150 N   0  0  0  0  0  0  0  0  0  0  0  0
   61.0080   30.5170   47.1440 N   0  0  0  0  0  0  0  0  0  0  0  0
   61.9250   31.3770   47.8430 C   0  0  0  0  0  0  0  0  0  0  0  0
   62.6660   32.3290   47.1210 C   0  0  0  0  0  0  0  0  0  0  0  0
   62.5485   32.3972   46.0294 H   0  0  0  0  0  0  0  0  0  0  0  0
   63.5490   33.1880   47.7760 C   0  0  0  0  0  0  0  0  0  0  0  0
   64.1182   33.9339   47.2019 H   0  0  0  0  0  0  0  0  0  0  0  0
   63.7100   33.1010   49.1580 C   0  0  0  0  0  0  0  0  0  0  0  0
   64.4011   33.7838   49.6740 H   0  0  0  0  0  0  0  0  0  0  0  0
   62.9960   32.1490   49.8890 C   0  0  0  0  0  0  0  0  0  0  0  0
   63.1313   32.0836   50.9787 H   0  0  0  0  0  0  0  0  0  0  0  0
   62.1030   31.2710   49.2410 C   0  0  0  0  0  0  0  0  0  0  0  0
   61.4080   30.2680   49.9380 O   0  0  0  0  0  0  0  0  0  0  0  0
   60.4050   30.4800   50.9310 C   0  0  0  0  0  0  0  0  0  0  0  0
   60.4641   31.5190   51.2872 H   0  0  0  0  0  0  0  0  0  0  0  0
   60.5778   29.7801   51.7618 H   0  0  0  0  0  0  0  0  0  0  0  0
   59.0150   30.2260   50.3590 C   0  0  0  0  0  0  0  0  0  0  0  0
   58.2979   30.0950   51.1827 H   0  0  0  0  0  0  0  0  0  0  0  0
   58.7106   31.0834   49.7408 H   0  0  0  0  0  0  0  0  0  0  0  0
   59.0335   29.3164   49.7408 H   0  0  0  0  0  0  0  0  0  0  0  0
   60.5520   29.3590   47.6170 N   0  0  0  0  0  0  0  0  0  0  0  0
   60.7270   28.9710   48.5710 H   0  0  0  0  0  0  0  0  0  0  0  0
   58.3680   29.7760   44.9600 C   0  0  0  0  0  0  0  0  0  0  0  0
   56.0521   31.7243   44.5853 H   0  0  0  0  0  0  0  0  0  0  0  0
   57.6770   33.0670   44.7320 C   0  0  0  0  0  0  0  0  0  0  0  0
   57.5655   33.8477   43.9651 H   0  0  0  0  0  0  0  0  0  0  0  0
   58.4140   33.4080   45.9730 C   0  0  0  0  0  0  0  0  0  0  0  0
   58.1230   32.6920   47.1460 C   0  0  0  0  0  0  0  0  0  0  0  0
   57.3666   31.8937   47.1234 H   0  0  0  0  0  0  0  0  0  0  0  0
   58.7850   32.9840   48.3410 C   0  0  0  0  0  0  0  0  0  0  0  0
   58.5523   32.4075   49.2485 H   0  0  0  0  0  0  0  0  0  0  0  0
   59.7410   34.0030   48.3930 C   0  0  0  0  0  0  0  0  0  0  0  0
   60.3800   34.2570   49.6170 O   0  0  0  0  0  0  0  0  0  0  0  0
   59.8910   33.8280   50.8830 C   0  0  0  0  0  0  0  0  0  0  0  0
   60.4584   34.3258   51.6831 H   0  0  0  0  0  0  0  0  0  0  0  0
   58.8260   34.0885   50.9721 H   0  0  0  0  0  0  0  0  0  0  0  0
   60.0106   32.7382   50.9721 H   0  0  0  0  0  0  0  0  0  0  0  0
   60.0270   34.7360   47.2270 C   0  0  0  0  0  0  0  0  0  0  0  0
   60.7746   35.5423   47.2572 H   0  0  0  0  0  0  0  0  0  0  0  0
   59.3660   34.4450   46.0300 C   0  0  0  0  0  0  0  0  0  0  0  0
   59.5908   35.0300   45.1260 H   0  0  0  0  0  0  0  0  0  0  0  0
  1  2  1  0
  2  3  2  0
  3  4  1  0
  4  5  1  0
  5  6  1  0
  5  7  1  0
  5  8  1  0
  8  9  1  0
  9 10  2  0
 10 11  1  0
 11 12  1  0
 12 13  2  0
 13 14  1  0
 13 15  1  0
 15 16  1  0
 15 17  2  0
 17 18  1  0
 17 19  1  0
 19 20  1  0
 19 21  2  0
 21 22  1  0
 22 23  1  0
 23 24  1  0
 23 25  1  0
 23 26  1  0
 26 27  1  0
 26 28  1  0
 26 29  1  0
 11 30  1  0
 30 31  1  0
  2 32  1  0
 32 33  1  0
 32 34  2  0
 34 35  1  0
 34 36  1  0
 36 37  2  0
 37 38  1  0
 37 39  1  0
 39 40  1  0
 39 41  2  0
 41 42  1  0
 42 43  1  0
 43 44  1  0
 43 45  1  0
 43 46  1  0
 41 47  1  0
 47 48  1  0
 47 49  2  0
 49 50  1  0
  9  3  1  0
 21 12  1  0
 49 36  1  0
 30  8  2  0
M  CHG  1  30   1
M  END
>  <UniqueID>  (49) 
41

>  <SMILES>  (49) 
CCOc1ccccc1-n1nc2c([nH+]1)CS/C2=C\C=C\c1ccc(OC)cc1

>  <Energy>  (49) 
114.9217809665558

>  <Genealogy>  (49) 
CCOc1ccccc1-n1nc2c([nH+]1)CSC2=CC=Cc1ccc(OC)cc1 (protonated)
CCOc1ccccc1-n1nc2c([nH+]1)CS/C2=C\C=C\c1ccc(OC)cc1 (cis-trans isomerization)
CCOc1ccccc1-n1nc2c([nH+]1)CS/C2=C\C=C\c1ccc(OC)cc1 (3D coordinates assigned)
CCOc1ccccc1-n1nc2c([nH+]1)CS/C2=C\C=C\c1ccc(OC)cc1 (nonaromatic ring conformer: 114.9217809665558 kcal/mol)

>  <smiles>  (49) 
CCOc1ccccc1-n1nc2c(n1)C(=CC=Cc1ccc(OC)cc1)SC2

>  <score_type>  (49) 
oracle

>  <origin>  (49) 
adg

>  <m_score__min__energy>  (49) 
-7.4500000000000002

>  <m_primary>  (49) 
energy

$$$$
49:0
     RDKit          3D

 44 46  0  0  0  0  0  0  0  0999 V2000
   59.3110   33.7380   48.5740 C   0  0  0  0  0  0  0  0  0  0  0  0
   58.9600   33.6330   47.1190 C   0  0  0  0  0  0  0  0  0  0  0  0
   59.6530   34.3980   46.1700 C   0  0  0  0  0  0  0  0  0  0  0  0
   59.3020   34.3290   44.8200 C   0  0  0  0  0  0  0  0  0  0  0  0
   58.2490   33.5060   44.4110 C   0  0  0  0  0  0  0  0  0  0  0  0
   57.5330   32.7480   45.3450 C   0  0  0  0  0  0  0  0  0  0  0  0
   56.4810   31.9440   44.8750 O   0  0  0  0  0  0  0  0  0  0  0  0
   56.6120   30.8440   43.9710 C   0  0  0  0  0  0  0  0  0  0  0  0
   56.3580   29.5340   44.6710 C   0  0  0  0  0  0  0  0  0  0  0  0
   55.1810   29.0970   44.7670 O   0  0  0  0  0  0  0  0  0  0  0  0
   57.4300   28.7400   45.1990 N   0  0  0  0  0  0  0  0  0  0  0  0
   58.4870   29.1940   46.0560 C   0  0  0  0  0  0  0  0  0  0  0  0
   58.3100   29.3190   47.4440 C   0  0  0  0  0  0  0  0  0  0  0  0
   59.3690   29.7360   48.2550 C   0  0  0  0  0  0  0  0  0  0  0  0
   60.6300   30.0000   47.6960 C   0  0  0  0  0  0  0  0  0  0  0  0
   61.7280   30.4570   48.5060 N   0  0  0  0  0  0  0  0  0  0  0  0
   62.4250   31.6980   48.3030 C   0  0  0  0  0  0  0  0  0  0  0  0
   62.3500   32.7000   49.2830 C   0  0  0  0  0  0  0  0  0  0  0  0
   62.9980   33.9250   49.0950 C   0  0  0  0  0  0  0  0  0  0  0  0
   63.7120   34.1650   47.9180 C   0  0  0  0  0  0  0  0  0  0  0  0
   63.7740   33.1830   46.9250 C   0  0  0  0  0  0  0  0  0  0  0  0
   63.1270   31.9570   47.1110 C   0  0  0  0  0  0  0  0  0  0  0  0
   60.8050   29.8680   46.3110 C   0  0  0  0  0  0  0  0  0  0  0  0
   59.7460   29.4500   45.5000 C   0  0  0  0  0  0  0  0  0  0  0  0
   57.8930   32.8200   46.7070 C   0  0  0  0  0  0  0  0  0  0  0  0
   58.4333   33.4754   49.1828 H   0  0  0  0  0  0  0  0  0  0  0  0
   60.1359   33.0473   48.8030 H   0  0  0  0  0  0  0  0  0  0  0  0
   59.6211   34.7682   48.8030 H   0  0  0  0  0  0  0  0  0  0  0  0
   60.4756   35.0545   46.4898 H   0  0  0  0  0  0  0  0  0  0  0  0
   59.8550   34.9232   44.0776 H   0  0  0  0  0  0  0  0  0  0  0  0
   57.9805   33.4534   43.3456 H   0  0  0  0  0  0  0  0  0  0  0  0
   55.8849   30.9618   43.1540 H   0  0  0  0  0  0  0  0  0  0  0  0
   57.6387   30.8362   43.5764 H   0  0  0  0  0  0  0  0  0  0  0  0
   57.3335   29.0876   47.8945 H   0  0  0  0  0  0  0  0  0  0  0  0
   59.2140   29.8581   49.3372 H   0  0  0  0  0  0  0  0  0  0  0  0
   62.0390   29.8450   49.2950 H   0  0  0  0  0  0  0  0  0  0  0  0
   61.7777   32.5206   50.2051 H   0  0  0  0  0  0  0  0  0  0  0  0
   62.9456   34.6999   49.8740 H   0  0  0  0  0  0  0  0  0  0  0  0
   64.2254   35.1269   47.7728 H   0  0  0  0  0  0  0  0  0  0  0  0
   64.3320   33.3746   45.9966 H   0  0  0  0  0  0  0  0  0  0  0  0
   63.1670   31.1916   46.3219 H   0  0  0  0  0  0  0  0  0  0  0  0
   61.7822   30.0949   45.8597 H   0  0  0  0  0  0  0  0  0  0  0  0
   59.9028   29.3215   44.4188 H   0  0  0  0  0  0  0  0  0  0  0  0
   57.3333   32.2347   47.4514 H   0  0  0  0  0  0  0  0  0  0  0  0
  1  2  1  0
  2  3  2  0
  3  4  1  0
  4  5  2  0
  5  6  1  0
  6  7  1  0
  7  8  1  0
  8  9  1  0
  9 10  2  0
  9 11  1  0
 11 12  1  0
 12 13  2  0
 13 14  1  0
 14 15  2  0
 15 16  1  0
 16 17  1  0
 17 18  2  0
 18 19  1  0
 19 20  2  0
 20 21  1  0
 21 22  2  0
 15 23  1  0
 23 24  2  0
  6 25  2  0
 25  2  1  0
 24 12  1  0
 22 17  1  0
  1 26  1  0
  1 27  1  0
  1 28  1  0
  3 29  1  0
  4 30  1  0
  5 31  1  0
  8 32  1  0
  8 33  1  0
 13 34  1  0
 14 35  1  0
 16 36  1  0
 18 37  1  0
 19 38  1  0
 20 39  1  0
 21 40  1  0
 22 41  1  0
 23 42  1  0
 24 43  1  0
 25 44  1  0
M  CHG  1  11  -1
M  END
>  <UniqueID>  (50) 
42

>  <SMILES>  (50) 
Cc1cccc(OCC(=O)[N-]c2ccc(Nc3ccccc3)cc2)c1

>  <Energy>  (50) 
56.715250432411764

>  <Genealogy>  (50) 
Cc1cccc(OCC(=O)[N-]c2ccc(Nc3ccccc3)cc2)c1 (protonated)
Cc1cccc(OCC(=O)[N-]c2ccc(Nc3ccccc3)cc2)c1 (3D coordinates assigned)
Cc1cccc(OCC(=O)[N-]c2ccc(Nc3ccccc3)cc2)c1 (optimized conformer: 56.715250432411764 kcal/mol)

>  <smiles>  (50) 
Cc1cccc(OCC(=O)Nc2ccc(Nc3ccccc3)cc2)c1

>  <score_type>  (50) 
oracle

>  <origin>  (50) 
adg

>  <m_score__min__energy>  (50) 
-9.6500000000000004

>  <m_primary>  (50) 
energy

$$$$
50:0
     RDKit          3D

 38 41  0  0  0  0  0  0  0  0999 V2000
   58.0610   32.0020   42.5610 C   0  0  0  0  0  0  0  0  0  0  0  0
   57.9110   31.3910   43.8890 N   0  0  0  0  0  0  0  0  0  0  0  0
   57.2400   30.1180   44.0000 C   0  0  0  0  0  0  0  0  0  0  0  0
   56.4570   29.7720   43.0670 O   0  0  0  0  0  0  0  0  0  0  0  0
   57.4500   29.1670   45.1390 C   0  0  0  0  0  0  0  0  0  0  0  0
   56.5870   28.0590   45.2560 C   0  0  0  0  0  0  0  0  0  0  0  0
   56.7940   27.0750   46.2190 C   0  0  0  0  0  0  0  0  0  0  0  0
   55.9440   25.9610   46.2390 O   0  0  0  0  0  0  0  0  0  0  0  0
   56.0170   24.8440   45.3900 C   0  0  0  0  0  0  0  0  0  0  0  0
   57.0090   24.6470   44.4110 C   0  0  0  0  0  0  0  0  0  0  0  0
   56.8690   23.4460   43.7210 C   0  0  0  0  0  0  0  0  0  0  0  0
   55.5210   22.6410   44.3350 S   0  0  0  0  0  0  0  0  0  0  0  0
   55.1100   23.7990   45.4890 C   0  0  0  0  0  0  0  0  0  0  0  0
   57.8890   27.2020   47.0790 C   0  0  0  0  0  0  0  0  0  0  0  0
   58.7160   28.2710   46.9720 N   0  0  0  0  0  0  0  0  0  0  0  0
   58.5340   29.2560   46.0480 C   0  0  0  0  0  0  0  0  0  0  0  0
   59.4700   30.3470   46.0220 N   0  0  0  0  0  0  0  0  0  0  0  0
   60.8670   30.1020   46.3820 C   0  0  0  0  0  0  0  0  0  0  0  0
   58.9670   31.6880   46.0930 C   0  0  0  0  0  0  0  0  0  0  0  0
   59.3220   32.4950   47.1340 N   0  0  0  0  0  0  0  0  0  0  0  0
   58.9170   33.7910   47.2070 C   0  0  0  0  0  0  0  0  0  0  0  0
   58.1230   34.3360   46.1950 C   0  0  0  0  0  0  0  0  0  0  0  0
   57.7540   33.5320   45.1170 C   0  0  0  0  0  0  0  0  0  0  0  0
   58.1780   32.1920   45.0530 C   0  0  0  0  0  0  0  0  0  0  0  0
   58.3219   33.0647   42.6737 H   0  0  0  0  0  0  0  0  0  0  0  0
   58.8589   31.4852   42.0076 H   0  0  0  0  0  0  0  0  0  0  0  0
   57.1145   31.9135   42.0076 H   0  0  0  0  0  0  0  0  0  0  0  0
   55.7308   27.9696   44.5712 H   0  0  0  0  0  0  0  0  0  0  0  0
   57.8140   25.3695   44.2112 H   0  0  0  0  0  0  0  0  0  0  0  0
   57.5244   23.0848   42.9148 H   0  0  0  0  0  0  0  0  0  0  0  0
   54.2700   23.7369   46.1964 H   0  0  0  0  0  0  0  0  0  0  0  0
   58.0797   26.4340   47.8430 H   0  0  0  0  0  0  0  0  0  0  0  0
   60.9657   30.0847   47.4774 H   0  0  0  0  0  0  0  0  0  0  0  0
   61.1876   29.1339   45.9696 H   0  0  0  0  0  0  0  0  0  0  0  0
   61.4979   30.9032   45.9696 H   0  0  0  0  0  0  0  0  0  0  0  0
   59.2152   34.4117   48.0648 H   0  0  0  0  0  0  0  0  0  0  0  0
   57.7936   35.3842   46.2477 H   0  0  0  0  0  0  0  0  0  0  0  0
   57.1286   33.9474   44.3130 H   0  0  0  0  0  0  0  0  0  0  0  0
  1  2  1  0
  2  3  1  0
  3  4  2  0
  3  5  1  0
  5  6  2  0
  6  7  1  0
  7  8  1  0
  8  9  1  0
  9 10  1  0
 10 11  2  0
 11 12  1  0
 12 13  1  0
  7 14  2  0
 14 15  1  0
 15 16  2  0
 16 17  1  0
 17 18  1  0
 17 19  1  0
 19 20  2  0
 20 21  1  0
 21 22  2  0
 22 23  1  0
 23 24  2  0
 24  2  1  0
 16  5  1  0
 24 19  1  0
 13  9  2  0
  1 25  1  0
  1 26  1  0
  1 27  1  0
  6 28  1  0
 10 29  1  0
 11 30  1  0
 13 31  1  0
 14 32  1  0
 18 33  1  0
 18 34  1  0
 18 35  1  0
 21 36  1  0
 22 37  1  0
 23 38  1  0
M  END
>  <UniqueID>  (51) 
43

>  <SMILES>  (51) 
CN1C(=O)c2cc(Oc3ccsc3)cnc2N(C)c2ncccc21

>  <Energy>  (51) 
97.04557443247356

>  <Genealogy>  (51) 
CN1C(=O)c2cc(Oc3ccsc3)cnc2N(C)c2ncccc21 (3D coordinates assigned)
CN1C(=O)c2cc(Oc3ccsc3)cnc2N(C)c2ncccc21 (nonaromatic ring conformer: 97.04557443247356 kcal/mol)

>  <smiles>  (51) 
CN1C(=O)c2cc(Oc3ccsc3)cnc2N(C)c2ncccc21

>  <score_type>  (51) 
oracle

>  <origin>  (51) 
adg

>  <m_score__min__energy>  (51) 
-7.2599999999999998

>  <m_primary>  (51) 
energy

$$$$
51:0
     RDKit          3D

 42 44  0  0  0  0  0  0  0  0999 V2000
   57.2640   24.7030   48.0850 N   0  0  0  0  0  0  0  0  0  0  0  0
   56.9850   24.1510   46.7920 C   0  0  0  0  0  0  0  0  0  0  0  0
   56.7640   22.7730   46.6680 C   0  0  0  0  0  0  0  0  0  0  0  0
   56.4140   22.2170   45.4360 C   0  0  0  0  0  0  0  0  0  0  0  0
   56.2720   23.0310   44.2990 C   0  0  0  0  0  0  0  0  0  0  0  0
   55.8990   22.4630   43.0320 N   0  0  0  0  0  0  0  0  0  0  0  0
   56.4480   21.4240   42.6120 O   0  0  0  0  0  0  0  0  0  0  0  0
   54.9180   23.0510   42.2630 O   0  0  0  0  0  0  0  0  0  0  0  0
   56.5030   24.4110   44.4210 C   0  0  0  0  0  0  0  0  0  0  0  0
   56.8790   24.9750   45.6490 C   0  0  0  0  0  0  0  0  0  0  0  0
   57.1320   26.3850   45.7120 N   0  0  0  0  0  0  0  0  0  0  0  0
   58.3710   26.9180   46.2060 C   0  0  0  0  0  0  0  0  0  0  0  0
   59.2540   26.1500   46.6760 O   0  0  0  0  0  0  0  0  0  0  0  0
   58.6510   28.3870   46.1170 C   0  0  0  0  0  0  0  0  0  0  0  0
   57.4150   29.1430   46.2780 N   0  0  0  0  0  0  0  0  0  0  0  0
   56.6020   29.5800   45.1820 C   0  0  0  0  0  0  0  0  0  0  0  0
   55.5390   28.9650   44.8970 O   0  0  0  0  0  0  0  0  0  0  0  0
   57.0440   30.7090   44.3340 C   0  0  0  0  0  0  0  0  0  0  0  0
   56.8710   30.5900   42.9440 C   0  0  0  0  0  0  0  0  0  0  0  0
   57.3380   31.5780   42.0790 C   0  0  0  0  0  0  0  0  0  0  0  0
   57.9810   32.7070   42.5810 C   0  0  0  0  0  0  0  0  0  0  0  0
   58.1400   32.8720   43.9630 C   0  0  0  0  0  0  0  0  0  0  0  0
   58.7640   34.0270   44.4620 C   0  0  0  0  0  0  0  0  0  0  0  0
   58.8940   34.2190   45.8380 C   0  0  0  0  0  0  0  0  0  0  0  0
   58.3950   33.2670   46.7270 C   0  0  0  0  0  0  0  0  0  0  0  0
   57.7770   32.1090   46.2490 C   0  0  0  0  0  0  0  0  0  0  0  0
   57.6590   31.8770   44.8600 C   0  0  0  0  0  0  0  0  0  0  0  0
   57.8140   25.5870   48.1770 H   0  0  0  0  0  0  0  0  0  0  0  0
   56.9910   24.2090   48.9630 H   0  0  0  0  0  0  0  0  0  0  0  0
   56.8672   22.1231   47.5495 H   0  0  0  0  0  0  0  0  0  0  0  0
   56.2480   21.1327   45.3545 H   0  0  0  0  0  0  0  0  0  0  0  0
   56.3873   25.0594   43.5400 H   0  0  0  0  0  0  0  0  0  0  0  0
   56.4970   27.0190   45.1760 H   0  0  0  0  0  0  0  0  0  0  0  0
   59.3575   28.6715   46.9106 H   0  0  0  0  0  0  0  0  0  0  0  0
   59.0849   28.6118   45.1315 H   0  0  0  0  0  0  0  0  0  0  0  0
   56.3607   29.7060   42.5339 H   0  0  0  0  0  0  0  0  0  0  0  0
   57.1980   31.4655   40.9938 H   0  0  0  0  0  0  0  0  0  0  0  0
   58.3653   33.4717   41.8899 H   0  0  0  0  0  0  0  0  0  0  0  0
   59.1522   34.7840   43.7647 H   0  0  0  0  0  0  0  0  0  0  0  0
   59.3906   35.1222   46.2221 H   0  0  0  0  0  0  0  0  0  0  0  0
   58.4887   33.4291   47.8110 H   0  0  0  0  0  0  0  0  0  0  0  0
   57.3785   31.3708   46.9605 H   0  0  0  0  0  0  0  0  0  0  0  0
  1  2  1  0
  2  3  2  0
  3  4  1  0
  4  5  2  0
  5  6  1  0
  6  7  2  0
  6  8  1  0
  5  9  1  0
  9 10  2  0
 10 11  1  0
 11 12  1  0
 12 13  2  0
 12 14  1  0
 14 15  1  0
 15 16  1  0
 16 17  2  0
 16 18  1  0
 18 19  2  0
 19 20  1  0
 20 21  2  0
 21 22  1  0
 22 23  2  0
 23 24  1  0
 24 25  2  0
 25 26  1  0
 26 27  2  0
 10  2  1  0
 27 18  1  0
 27 22  1  0
  1 28  1  0
  1 29  1  0
  3 30  1  0
  4 31  1  0
  9 32  1  0
 11 33  1  0
 14 34  1  0
 14 35  1  0
 19 36  1  0
 20 37  1  0
 21 38  1  0
 23 39  1  0
 24 40  1  0
 25 41  1  0
 26 42  1  0
M  CHG  3   6   1   8  -1  15  -1
M  END
>  <UniqueID>  (52) 
44

>  <SMILES>  (52) 
Nc1ccc([N+](=O)[O-])cc1NC(=O)C[N-]C(=O)c1cccc2ccccc12

>  <Energy>  (52) 
58.54724358591837

>  <Genealogy>  (52) 
Nc1ccc([N+](=O)[O-])cc1NC(=O)C[N-]C(=O)c1cccc2ccccc12 (protonated)
Nc1ccc([N+](=O)[O-])cc1NC(=O)C[N-]C(=O)c1cccc2ccccc12 (3D coordinates assigned)
Nc1ccc([N+](=O)[O-])cc1NC(=O)C[N-]C(=O)c1cccc2ccccc12 (optimized conformer: 58.54724358591837 kcal/mol)

>  <smiles>  (52) 
Nc1ccc([N+](=O)[O-])cc1NC(=O)CNC(=O)c1cccc2ccccc12

>  <score_type>  (52) 
oracle

>  <origin>  (52) 
adg

>  <m_score__min__energy>  (52) 
-10.289999999999999

>  <m_primary>  (52) 
energy

$$$$
52:0
     RDKit          3D

 34 37  0  0  0  0  0  0  0  0999 V2000
   55.1740   28.6510   45.6290 H   0  0  0  0  0  0  0  0  0  0  0  0
   55.1400   29.3670   44.8690 N   0  0  0  0  0  0  0  0  0  0  0  0
   56.7440   29.5100   44.2420 S   0  0  0  0  0  0  0  0  0  0  0  0
   56.6790   29.8610   42.7820 O   0  0  0  0  0  0  0  0  0  0  0  0
   57.4610   28.1970   44.3900 O   0  0  0  0  0  0  0  0  0  0  0  0
   57.6100   30.7660   45.1220 C   0  0  0  0  0  0  0  0  0  0  0  0
   57.7800   32.0360   44.5560 C   0  0  0  0  0  0  0  0  0  0  0  0
   57.3787   32.2484   43.5541 H   0  0  0  0  0  0  0  0  0  0  0  0
   58.4590   33.0350   45.2620 C   0  0  0  0  0  0  0  0  0  0  0  0
   58.6051   34.0242   44.8036 H   0  0  0  0  0  0  0  0  0  0  0  0
   58.9540   32.7850   46.5480 C   0  0  0  0  0  0  0  0  0  0  0  0
   59.6720   33.8300   47.2240 N   0  0  0  0  0  0  0  0  0  0  0  0
   60.7410   33.6940   47.9560 C   0  0  0  0  0  0  0  0  0  0  0  0
   60.6860   33.6870   49.3240 N   0  0  0  0  0  0  0  0  0  0  0  0
   61.8140   33.5710   50.0930 C   0  0  0  0  0  0  0  0  0  0  0  0
   61.7240   33.5580   51.4880 C   0  0  0  0  0  0  0  0  0  0  0  0
   60.7426   33.6411   51.9778 H   0  0  0  0  0  0  0  0  0  0  0  0
   62.8850   33.4390   52.2600 C   0  0  0  0  0  0  0  0  0  0  0  0
   62.8135   33.4295   53.3576 H   0  0  0  0  0  0  0  0  0  0  0  0
   64.1370   33.3320   51.6430 C   0  0  0  0  0  0  0  0  0  0  0  0
   65.0439   33.2380   52.2584 H   0  0  0  0  0  0  0  0  0  0  0  0
   64.2410   33.3440   50.2470 C   0  0  0  0  0  0  0  0  0  0  0  0
   65.2261   33.2606   49.7647 H   0  0  0  0  0  0  0  0  0  0  0  0
   63.0810   33.4630   49.4670 C   0  0  0  0  0  0  0  0  0  0  0  0
   63.0980   33.4840   48.1070 N   0  0  0  0  0  0  0  0  0  0  0  0
   61.9980   33.5970   47.3620 C   0  0  0  0  0  0  0  0  0  0  0  0
   62.3060   33.5960   46.0500 N   0  0  0  0  0  0  0  0  0  0  0  0
   63.6340   33.4800   46.0220 N   0  0  0  0  0  0  0  0  0  0  0  0
   64.1080   33.4120   47.2610 N   0  0  0  0  0  0  0  0  0  0  0  0
   65.1180   33.3190   47.5060 H   0  0  0  0  0  0  0  0  0  0  0  0
   58.8020   31.5010   47.1040 C   0  0  0  0  0  0  0  0  0  0  0  0
   59.2185   31.2819   48.0983 H   0  0  0  0  0  0  0  0  0  0  0  0
   58.1240   30.5030   46.3980 C   0  0  0  0  0  0  0  0  0  0  0  0
   57.9937   29.5071   46.8465 H   0  0  0  0  0  0  0  0  0  0  0  0
  1  2  1  0
  2  3  1  0
  3  4  2  0
  3  5  2  0
  3  6  1  0
  6  7  2  0
  7  8  1  0
  7  9  1  0
  9 10  1  0
  9 11  2  0
 11 12  1  0
 12 13  2  0
 13 14  1  0
 14 15  1  0
 15 16  2  0
 16 17  1  0
 16 18  1  0
 18 19  1  0
 18 20  2  0
 20 21  1  0
 20 22  1  0
 22 23  1  0
 22 24  2  0
 24 25  1  0
 25 26  1  0
 26 27  2  0
 27 28  1  0
 28 29  2  0
 29 30  1  0
 11 31  1  0
 31 32  1  0
 31 33  2  0
 33 34  1  0
 33  6  1  0
 26 13  1  0
 24 15  1  0
 29 25  1  0
M  CHG  3   2  -1  14  -1  29   1
M  END
>  <UniqueID>  (53) 
45

>  <SMILES>  (53) 
[NH-]S(=O)(=O)c1ccc(/N=c2\[n-]c3ccccc3n3[nH+]nnc23)cc1

>  <Energy>  (53) 
97.45652952675877

>  <Genealogy>  (53) 
[NH-]S(=O)(=O)c1ccc(N=c2[n-]c3ccccc3n3[nH+]nnc23)cc1 (protonated)
[NH-]S(=O)(=O)c1ccc(/N=c2\[n-]c3ccccc3n3[nH+]nnc23)cc1 (cis-trans isomerization)
[NH-]S(=O)(=O)c1ccc(/N=c2\[n-]c3ccccc3n3[nH+]nnc23)cc1 (3D coordinates assigned)
[NH-]S(=O)(=O)c1ccc(/N=c2\[n-]c3ccccc3n3[nH+]nnc23)cc1 (optimized conformer: 97.45652952675877 kcal/mol)

>  <smiles>  (53) 
NS(=O)(=O)c1ccc(N=c2[nH]c3ccccc3n3nnnc23)cc1

>  <score_type>  (53) 
oracle

>  <origin>  (53) 
adg

>  <m_score__min__energy>  (53) 
-11.119999999999999

>  <m_primary>  (53) 
energy

$$$$
53:0
     RDKit          3D

 56 60  0  0  0  0  0  0  0  0999 V2000
   56.6680   34.5740   44.8660 C   0  0  0  0  0  0  0  0  0  0  0  0
   57.4220   33.3520   45.2780 C   0  0  0  0  0  0  0  0  0  0  0  0
   56.9250   32.1340   45.1630 O   0  0  0  0  0  0  0  0  0  0  0  0
   57.8440   31.2900   45.5610 C   0  0  0  0  0  0  0  0  0  0  0  0
   57.7620   29.9000   45.5850 C   0  0  0  0  0  0  0  0  0  0  0  0
   58.8870   29.1820   46.0270 C   0  0  0  0  0  0  0  0  0  0  0  0
   60.0540   29.8640   46.4380 C   0  0  0  0  0  0  0  0  0  0  0  0
   60.1050   31.2700   46.4080 C   0  0  0  0  0  0  0  0  0  0  0  0
   58.9760   31.9550   45.9550 C   0  0  0  0  0  0  0  0  0  0  0  0
   58.7280   33.3030   45.7770 C   0  0  0  0  0  0  0  0  0  0  0  0
   59.7290   34.4260   45.8710 C   0  0  0  0  0  0  0  0  0  0  0  0
   60.3670   34.4110   47.1890 N   0  0  0  0  0  0  0  0  0  0  0  0
   59.7150   34.5120   48.3740 C   0  0  0  0  0  0  0  0  0  0  0  0
   60.4880   34.1480   49.4250 N   0  0  0  0  0  0  0  0  0  0  0  0
   59.9920   33.8460   50.7670 C   0  0  0  0  0  0  0  0  0  0  0  0
   59.2940   32.5120   50.7490 C   0  0  0  0  0  0  0  0  0  0  0  0
   59.8350   31.4450   50.0160 C   0  0  0  0  0  0  0  0  0  0  0  0
   59.2580   30.1790   50.0900 C   0  0  0  0  0  0  0  0  0  0  0  0
   58.1430   29.9600   50.9030 C   0  0  0  0  0  0  0  0  0  0  0  0
   57.5880   31.0110   51.6620 C   0  0  0  0  0  0  0  0  0  0  0  0
   56.4440   30.7800   52.5250 N   0  0  0  0  0  0  0  0  0  0  0  0
   55.0800   30.8280   51.9860 C   0  0  0  0  0  0  0  0  0  0  0  0
   56.6350   30.4870   53.9520 C   0  0  0  0  0  0  0  0  0  0  0  0
   58.1800   32.2890   51.5720 C   0  0  0  0  0  0  0  0  0  0  0  0
   61.6710   33.8040   48.8750 C   0  0  0  0  0  0  0  0  0  0  0  0
   62.8040   33.2700   49.4930 C   0  0  0  0  0  0  0  0  0  0  0  0
   63.8990   32.9370   48.6740 C   0  0  0  0  0  0  0  0  0  0  0  0
   63.8350   33.1290   47.2780 C   0  0  0  0  0  0  0  0  0  0  0  0
   62.6720   33.6520   46.6820 C   0  0  0  0  0  0  0  0  0  0  0  0
   61.6010   33.9760   47.5180 C   0  0  0  0  0  0  0  0  0  0  0  0
   56.3327   35.1174   45.7617 H   0  0  0  0  0  0  0  0  0  0  0  0
   57.3224   35.2239   44.2664 H   0  0  0  0  0  0  0  0  0  0  0  0
   55.7937   34.2806   44.2664 H   0  0  0  0  0  0  0  0  0  0  0  0
   56.8458   29.3802   45.2681 H   0  0  0  0  0  0  0  0  0  0  0  0
   58.8584   28.0827   46.0530 H   0  0  0  0  0  0  0  0  0  0  0  0
   60.9281   29.2925   46.7836 H   0  0  0  0  0  0  0  0  0  0  0  0
   61.0059   31.8121   46.7312 H   0  0  0  0  0  0  0  0  0  0  0  0
   60.4956   34.2984   45.0925 H   0  0  0  0  0  0  0  0  0  0  0  0
   59.2125   35.3866   45.7278 H   0  0  0  0  0  0  0  0  0  0  0  0
   58.6734   34.8520   48.4709 H   0  0  0  0  0  0  0  0  0  0  0  0
   60.8360   33.8100   51.4716 H   0  0  0  0  0  0  0  0  0  0  0  0
   59.2863   34.6278   51.0845 H   0  0  0  0  0  0  0  0  0  0  0  0
   60.7179   31.6086   49.3806 H   0  0  0  0  0  0  0  0  0  0  0  0
   59.6819   29.3487   49.5061 H   0  0  0  0  0  0  0  0  0  0  0  0
   57.6934   28.9573   50.9515 H   0  0  0  0  0  0  0  0  0  0  0  0
   54.3585   30.8534   52.8159 H   0  0  0  0  0  0  0  0  0  0  0  0
   54.9611   31.7309   51.3690 H   0  0  0  0  0  0  0  0  0  0  0  0
   54.8979   29.9357   51.3690 H   0  0  0  0  0  0  0  0  0  0  0  0
   56.1326   31.2577   54.5550 H   0  0  0  0  0  0  0  0  0  0  0  0
   56.2053   29.5015   54.1847 H   0  0  0  0  0  0  0  0  0  0  0  0
   57.7101   30.4824   54.1847 H   0  0  0  0  0  0  0  0  0  0  0  0
   57.7618   33.1224   52.1557 H   0  0  0  0  0  0  0  0  0  0  0  0
   62.8392   33.1152   50.5815 H   0  0  0  0  0  0  0  0  0  0  0  0
   64.8125   32.5235   49.1263 H   0  0  0  0  0  0  0  0  0  0  0  0
   64.7001   32.8682   46.6507 H   0  0  0  0  0  0  0  0  0  0  0  0
   62.6087   33.8006   45.5939 H   0  0  0  0  0  0  0  0  0  0  0  0
  1  2  1  0
  2  3  1  0
  3  4  1  0
  4  5  2  0
  5  6  1  0
  6  7  2  0
  7  8  1  0
  8  9  2  0
  9 10  1  0
 10 11  1  0
 11 12  1  0
 12 13  1  0
 13 14  2  0
 14 15  1  0
 15 16  1  0
 16 17  2  0
 17 18  1  0
 18 19  2  0
 19 20  1  0
 20 21  1  0
 21 22  1  0
 21 23  1  0
 20 24  2  0
 14 25  1  0
 25 26  2  0
 26 27  1  0
 27 28  2  0
 28 29  1  0
 29 30  2  0
 10  2  2  0
 30 12  1  0
  9  4  1  0
 24 16  1  0
 30 25  1  0
  1 31  1  0
  1 32  1  0
  1 33  1  0
  5 34  1  0
  6 35  1  0
  7 36  1  0
  8 37  1  0
 11 38  1  0
 11 39  1  0
 13 40  1  0
 15 41  1  0
 15 42  1  0
 17 43  1  0
 18 44  1  0
 19 45  1  0
 22 46  1  0
 22 47  1  0
 22 48  1  0
 23 49  1  0
 23 50  1  0
 23 51  1  0
 24 52  1  0
 26 53  1  0
 27 54  1  0
 28 55  1  0
 29 56  1  0
M  CHG  1  14   1
M  END
>  <UniqueID>  (54) 
46

>  <SMILES>  (54) 
Cc1oc2ccccc2c1Cn1c[n+](Cc2cccc(N(C)C)c2)c2ccccc21

>  <Energy>  (54) 
130.48508346655194

>  <Genealogy>  (54) 
Cc1oc2ccccc2c1Cn1c[n+](Cc2cccc(N(C)C)c2)c2ccccc21 (3D coordinates assigned)
Cc1oc2ccccc2c1Cn1c[n+](Cc2cccc(N(C)C)c2)c2ccccc21 (optimized conformer: 130.48508346655194 kcal/mol)

>  <smiles>  (54) 
Cc1oc2ccccc2c1Cn1c[n+](Cc2cccc(N(C)C)c2)c2ccccc21

>  <score_type>  (54) 
oracle

>  <origin>  (54) 
adg

>  <m_score__min__energy>  (54) 
-7.3099999999999996

>  <m_primary>  (54) 
energy

$$$$
54:0
     RDKit          3D

 25 26  0  0  0  0  0  0  0  0999 V2000
   53.9090   29.0830   53.4270 O   0  0  0  0  0  0  0  0  0  0  0  0
   54.2220   29.7290   52.3890 C   0  0  0  0  0  0  0  0  0  0  0  0
   55.5600   29.7980   51.9750 O   0  0  0  0  0  0  0  0  0  0  0  0
   56.4920   30.7620   52.3900 C   0  0  0  0  0  0  0  0  0  0  0  0
   56.9280   30.8620   53.7260 C   0  0  0  0  0  0  0  0  0  0  0  0
   57.8480   31.8480   54.0930 C   0  0  0  0  0  0  0  0  0  0  0  0
   58.3330   32.7460   53.1380 C   0  0  0  0  0  0  0  0  0  0  0  0
   57.8900   32.6640   51.8150 C   0  0  0  0  0  0  0  0  0  0  0  0
   56.9690   31.6800   51.4460 C   0  0  0  0  0  0  0  0  0  0  0  0
   53.1690   30.3660   51.5680 C   0  0  0  0  0  0  0  0  0  0  0  0
   52.7310   29.7690   50.3710 C   0  0  0  0  0  0  0  0  0  0  0  0
   51.7330   30.3770   49.6010 C   0  0  0  0  0  0  0  0  0  0  0  0
   51.3080   29.7800   48.4190 O   0  0  0  0  0  0  0  0  0  0  0  0
   51.1630   31.5820   50.0180 C   0  0  0  0  0  0  0  0  0  0  0  0
   51.5880   32.1830   51.2050 C   0  0  0  0  0  0  0  0  0  0  0  0
   51.0190   33.3820   51.6190 O   0  0  0  0  0  0  0  0  0  0  0  0
   52.5860   31.5790   51.9790 C   0  0  0  0  0  0  0  0  0  0  0  0
   56.5432   30.1621   54.4823 H   0  0  0  0  0  0  0  0  0  0  0  0
   58.1912   31.9175   55.1358 H   0  0  0  0  0  0  0  0  0  0  0  0
   59.0627   33.5166   53.4274 H   0  0  0  0  0  0  0  0  0  0  0  0
   58.2664   33.3742   51.0640 H   0  0  0  0  0  0  0  0  0  0  0  0
   56.6158   31.6260   50.4056 H   0  0  0  0  0  0  0  0  0  0  0  0
   53.1756   28.8192   50.0389 H   0  0  0  0  0  0  0  0  0  0  0  0
   50.3788   32.0581   49.4111 H   0  0  0  0  0  0  0  0  0  0  0  0
   52.9163   32.0554   52.9138 H   0  0  0  0  0  0  0  0  0  0  0  0
  1  2  2  0
  2  3  1  0
  3  4  1  0
  4  5  2  0
  5  6  1  0
  6  7  2  0
  7  8  1  0
  8  9  2  0
  2 10  1  0
 10 11  2  0
 11 12  1  0
 12 13  1  0
 12 14  2  0
 14 15  1  0
 15 16  1  0
 15 17  2  0
  9  4  1  0
 17 10  1  0
  5 18  1  0
  6 19  1  0
  7 20  1  0
  8 21  1  0
  9 22  1  0
 11 23  1  0
 14 24  1  0
 17 25  1  0
M  CHG  2  13  -1  16  -1
M  END
>  <UniqueID>  (55) 
47

>  <SMILES>  (55) 
O=C(Oc1ccccc1)c1cc([O-])cc([O-])c1

>  <Energy>  (55) 
31.226207663037613

>  <Genealogy>  (55) 
O=C(Oc1ccccc1)c1cc([O-])cc([O-])c1 (protonated)
O=C(Oc1ccccc1)c1cc([O-])cc([O-])c1 (3D coordinates assigned)
O=C(Oc1ccccc1)c1cc([O-])cc([O-])c1 (optimized conformer: 31.226207663037613 kcal/mol)

>  <smiles>  (55) 
O=C(Oc1ccccc1)c1cc(O)cc(O)c1

>  <score_type>  (55) 
oracle

>  <origin>  (55) 
adg

>  <m_score__min__energy>  (55) 
-11.82

>  <m_primary>  (55) 
energy

$$$$
55:0
     RDKit          3D

 47 50  0  0  0  0  0  0  0  0999 V2000
   61.4760   26.1920   52.3720 C   0  0  0  0  0  0  0  0  0  0  0  0
   61.3520   27.6070   52.2860 O   0  0  0  0  0  0  0  0  0  0  0  0
   60.7840   28.2880   51.1990 C   0  0  0  0  0  0  0  0  0  0  0  0
   60.1620   29.5430   51.3370 C   0  0  0  0  0  0  0  0  0  0  0  0
   59.6070   30.1800   50.2230 C   0  0  0  0  0  0  0  0  0  0  0  0
   59.6520   29.5760   48.9550 C   0  0  0  0  0  0  0  0  0  0  0  0
   59.0490   30.2780   47.7990 C   0  0  0  0  0  0  0  0  0  0  0  0
   58.3190   29.5840   46.8230 C   0  0  0  0  0  0  0  0  0  0  0  0
   57.7280   30.2750   45.7540 C   0  0  0  0  0  0  0  0  0  0  0  0
   56.9100   29.5030   44.7930 C   0  0  0  0  0  0  0  0  0  0  0  0
   56.9870   29.7640   43.5620 O   0  0  0  0  0  0  0  0  0  0  0  0
   56.1320   28.3880   45.2490 N   0  0  0  0  0  0  0  0  0  0  0  0
   56.6370   27.1040   45.6480 C   0  0  0  0  0  0  0  0  0  0  0  0
   58.0150   26.8210   45.6540 C   0  0  0  0  0  0  0  0  0  0  0  0
   58.4780   25.5510   46.0340 C   0  0  0  0  0  0  0  0  0  0  0  0
   59.9460   25.2440   46.0060 C   0  0  0  0  0  0  0  0  0  0  0  0
   57.5540   24.5490   46.3630 C   0  0  0  0  0  0  0  0  0  0  0  0
   56.1840   24.8190   46.3330 C   0  0  0  0  0  0  0  0  0  0  0  0
   55.7250   26.0890   45.9720 C   0  0  0  0  0  0  0  0  0  0  0  0
   54.3580   26.3400   45.9410 O   0  0  0  0  0  0  0  0  0  0  0  0
   57.9060   31.6790   45.6590 C   0  0  0  0  0  0  0  0  0  0  0  0
   57.4270   32.4420   44.5710 C   0  0  0  0  0  0  0  0  0  0  0  0
   57.6180   33.8260   44.5390 C   0  0  0  0  0  0  0  0  0  0  0  0
   58.2980   34.4680   45.5740 C   0  0  0  0  0  0  0  0  0  0  0  0
   58.8060   33.7270   46.6430 C   0  0  0  0  0  0  0  0  0  0  0  0
   58.6260   32.3390   46.6850 C   0  0  0  0  0  0  0  0  0  0  0  0
   59.1620   31.6290   47.7110 N   0  0  0  0  0  0  0  0  0  0  0  0
   60.2970   28.3290   48.8160 C   0  0  0  0  0  0  0  0  0  0  0  0
   60.4240   27.7240   47.5700 O   0  0  0  0  0  0  0  0  0  0  0  0
   60.8460   27.6930   49.9350 C   0  0  0  0  0  0  0  0  0  0  0  0
   61.5025   25.8898   53.4294 H   0  0  0  0  0  0  0  0  0  0  0  0
   60.6160   25.7178   51.8766 H   0  0  0  0  0  0  0  0  0  0  0  0
   62.4054   25.8746   51.8766 H   0  0  0  0  0  0  0  0  0  0  0  0
   60.1123   30.0244   52.3248 H   0  0  0  0  0  0  0  0  0  0  0  0
   59.1301   31.1643   50.3404 H   0  0  0  0  0  0  0  0  0  0  0  0
   58.2091   28.4919   46.8958 H   0  0  0  0  0  0  0  0  0  0  0  0
   58.7342   27.5994   45.3592 H   0  0  0  0  0  0  0  0  0  0  0  0
   60.3238   25.1650   47.0361 H   0  0  0  0  0  0  0  0  0  0  0  0
   60.1115   24.2918   45.4807 H   0  0  0  0  0  0  0  0  0  0  0  0
   60.4792   26.0501   45.4807 H   0  0  0  0  0  0  0  0  0  0  0  0
   57.9092   23.5470   46.6456 H   0  0  0  0  0  0  0  0  0  0  0  0
   55.4638   24.0296   46.5943 H   0  0  0  0  0  0  0  0  0  0  0  0
   56.9004   31.9437   43.7438 H   0  0  0  0  0  0  0  0  0  0  0  0
   57.2300   34.4123   43.6930 H   0  0  0  0  0  0  0  0  0  0  0  0
   58.4342   35.5592   45.5480 H   0  0  0  0  0  0  0  0  0  0  0  0
   59.3488   34.2348   47.4539 H   0  0  0  0  0  0  0  0  0  0  0  0
   61.3322   26.7131   49.8190 H   0  0  0  0  0  0  0  0  0  0  0  0
  1  2  1  0
  2  3  1  0
  3  4  2  0
  4  5  1  0
  5  6  2  0
  6  7  1  0
  7  8  2  0
  8  9  1  0
  9 10  1  0
 10 11  2  0
 10 12  1  0
 12 13  1  0
 13 14  2  0
 14 15  1  0
 15 16  1  0
 15 17  2  0
 17 18  1  0
 18 19  2  0
 19 20  1  0
  9 21  2  0
 21 22  1  0
 22 23  2  0
 23 24  1  0
 24 25  2  0
 25 26  1  0
 26 27  2  0
  6 28  1  0
 28 29  1  0
 28 30  2  0
 30  3  1  0
 27  7  1  0
 19 13  1  0
 26 21  1  0
  1 31  1  0
  1 32  1  0
  1 33  1  0
  4 34  1  0
  5 35  1  0
  8 36  1  0
 14 37  1  0
 16 38  1  0
 16 39  1  0
 16 40  1  0
 17 41  1  0
 18 42  1  0
 22 43  1  0
 23 44  1  0
 24 45  1  0
 25 46  1  0
 30 47  1  0
M  CHG  3  12  -1  20  -1  29  -1
M  END
>  <UniqueID>  (56) 
48

>  <SMILES>  (56) 
COc1ccc(-c2cc(C(=O)[N-]c3cc(C)ccc3[O-])c3ccccc3n2)c([O-])c1

>  <Energy>  (56) 
70.07265630294962

>  <Genealogy>  (56) 
COc1ccc(-c2cc(C(=O)[N-]c3cc(C)ccc3[O-])c3ccccc3n2)c([O-])c1 (protonated)
COc1ccc(-c2cc(C(=O)[N-]c3cc(C)ccc3[O-])c3ccccc3n2)c([O-])c1 (3D coordinates assigned)
COc1ccc(-c2cc(C(=O)[N-]c3cc(C)ccc3[O-])c3ccccc3n2)c([O-])c1 (optimized conformer: 70.07265630294962 kcal/mol)

>  <smiles>  (56) 
COc1ccc(-c2cc(C(=O)Nc3cc(C)ccc3O)c3ccccc3n2)c(O)c1

>  <score_type>  (56) 
oracle

>  <origin>  (56) 
adg

>  <m_score__min__energy>  (56) 
-15.140000000000001

>  <m_primary>  (56) 
energy

$$$$
56:0
     RDKit          3D

 22 23  0  0  0  0  0  0  0  0999 V2000
   60.0980   28.9180   47.2090 H   0  0  0  0  0  0  0  0  0  0  0  0
   59.9250   29.9020   46.9180 N   0  0  0  0  0  0  0  0  0  0  0  0
   58.8930   30.3450   46.2580 C   0  0  0  0  0  0  0  0  0  0  0  0
   57.8780   29.4290   45.9090 C   0  0  0  0  0  0  0  0  0  0  0  0
   58.0000   28.0350   46.2860 C   0  0  0  0  0  0  0  0  0  0  0  0
   58.0970   26.9230   46.5880 N   0  0  0  0  0  0  0  0  0  0  0  0
   56.7480   29.8730   45.1960 C   0  0  0  0  0  0  0  0  0  0  0  0
   55.6980   28.9660   44.8270 N   0  0  0  0  0  0  0  0  0  0  0  0
   55.8460   28.2750   44.0580 H   0  0  0  0  0  0  0  0  0  0  0  0
   54.7700   28.9640   45.3040 H   0  0  0  0  0  0  0  0  0  0  0  0
   56.6410   31.1830   44.8470 N   0  0  0  0  0  0  0  0  0  0  0  0
   55.7930   31.4900   44.3160 H   0  0  0  0  0  0  0  0  0  0  0  0
   57.5970   32.1010   45.1610 C   0  0  0  0  0  0  0  0  0  0  0  0
   57.4270   33.4400   44.7720 C   0  0  0  0  0  0  0  0  0  0  0  0
   56.5250   33.7367   44.2168 H   0  0  0  0  0  0  0  0  0  0  0  0
   58.3920   34.3950   45.0840 C   0  0  0  0  0  0  0  0  0  0  0  0
   58.2506   35.4408   44.7738 H   0  0  0  0  0  0  0  0  0  0  0  0
   59.5350   34.0270   45.7880 C   0  0  0  0  0  0  0  0  0  0  0  0
   60.2942   34.7843   46.0330 H   0  0  0  0  0  0  0  0  0  0  0  0
   59.7230   32.7010   46.1850 C   0  0  0  0  0  0  0  0  0  0  0  0
   60.6307   32.4233   46.7408 H   0  0  0  0  0  0  0  0  0  0  0  0
   58.7580   31.7100   45.8800 C   0  0  0  0  0  0  0  0  0  0  0  0
  1  2  1  0
  2  3  2  0
  3  4  1  0
  4  5  1  0
  5  6  3  0
  4  7  2  0
  7  8  1  0
  8  9  1  0
  8 10  1  0
  7 11  1  0
 11 12  1  0
 11 13  1  0
 13 14  2  0
 14 15  1  0
 14 16  1  0
 16 17  1  0
 16 18  2  0
 18 19  1  0
 18 20  1  0
 20 21  1  0
 20 22  2  0
 22  3  1  0
 22 13  1  0
M  END
>  <UniqueID>  (57) 
49

>  <SMILES>  (57) 
[H]/N=c1/c(C#N)c(N)[nH]c2ccccc12

>  <Energy>  (57) 
32.44453310586314

>  <Genealogy>  (57) 
[H]/N=c1/c(C#N)c(N)[nH]c2ccccc12 (cis-trans isomerization)
[H]/N=c1/c(C#N)c(N)[nH]c2ccccc12 (3D coordinates assigned)
[H]/N=c1/c(C#N)c(N)[nH]c2ccccc12 (optimized conformer: 32.44453310586314 kcal/mol)

>  <smiles>  (57) 
N#Cc1c(N)[nH]c2ccccc2c1=N

>  <score_type>  (57) 
oracle

>  <origin>  (57) 
adg

>  <m_score__min__energy>  (57) 
-5.2300000000000004

>  <m_primary>  (57) 
energy

$$$$
57:0
     RDKit          3D

 39 42  0  0  0  0  0  0  0  0999 V2000
   65.8780   32.7180   50.0860 C   0  0  0  0  0  0  0  0  0  0  0  0
   64.5950   32.7420   49.3250 C   0  0  0  0  0  0  0  0  0  0  0  0
   63.3970   32.1920   49.7560 C   0  0  0  0  0  0  0  0  0  0  0  0
   62.5060   32.4670   48.7440 C   0  0  0  0  0  0  0  0  0  0  0  0
   63.1930   33.1780   47.7890 C   0  0  0  0  0  0  0  0  0  0  0  0
   64.4450   33.3220   48.1520 O   0  0  0  0  0  0  0  0  0  0  0  0
   62.5770   33.6660   46.5110 C   0  0  0  0  0  0  0  0  0  0  0  0
   61.0390   33.6670   46.6270 C   0  0  0  0  0  0  0  0  0  0  0  0
   60.5730   32.4440   47.3000 N   0  0  0  0  0  0  0  0  0  0  0  0
   60.2090   31.3200   46.4920 C   0  0  0  0  0  0  0  0  0  0  0  0
   61.0600   30.2610   46.3760 N   0  0  0  0  0  0  0  0  0  0  0  0
   60.7500   29.1800   45.6010 C   0  0  0  0  0  0  0  0  0  0  0  0
   59.5680   29.1490   44.9250 N   0  0  0  0  0  0  0  0  0  0  0  0
   58.7380   30.1850   45.0430 N   0  0  0  0  0  0  0  0  0  0  0  0
   57.5280   30.3770   44.4910 C   0  0  0  0  0  0  0  0  0  0  0  0
   56.8440   29.4100   43.5790 C   0  0  0  0  0  0  0  0  0  0  0  0
   56.9870   31.5600   44.8700 N   0  0  0  0  0  0  0  0  0  0  0  0
   57.9120   32.1170   45.6930 C   0  0  0  0  0  0  0  0  0  0  0  0
   57.7190   33.4460   46.3610 C   0  0  0  0  0  0  0  0  0  0  0  0
   56.3850   33.8070   46.3170 F   0  0  0  0  0  0  0  0  0  0  0  0
   58.4590   34.4120   45.7070 F   0  0  0  0  0  0  0  0  0  0  0  0
   58.1130   33.3710   47.6830 F   0  0  0  0  0  0  0  0  0  0  0  0
   59.0000   31.2590   45.7920 C   0  0  0  0  0  0  0  0  0  0  0  0
   61.0350   32.2030   48.6760 C   0  0  0  0  0  0  0  0  0  0  0  0
   65.6644   32.7220   51.1651 H   0  0  0  0  0  0  0  0  0  0  0  0
   66.4410   31.8092   49.8270 H   0  0  0  0  0  0  0  0  0  0  0  0
   66.4746   33.6051   49.8270 H   0  0  0  0  0  0  0  0  0  0  0  0
   63.2025   31.6558   50.6966 H   0  0  0  0  0  0  0  0  0  0  0  0
   62.9266   34.6887   46.3066 H   0  0  0  0  0  0  0  0  0  0  0  0
   62.8745   32.9962   45.6907 H   0  0  0  0  0  0  0  0  0  0  0  0
   60.7203   34.5444   47.2088 H   0  0  0  0  0  0  0  0  0  0  0  0
   60.6057   33.7047   45.6167 H   0  0  0  0  0  0  0  0  0  0  0  0
   61.4526   28.3372   45.5230 H   0  0  0  0  0  0  0  0  0  0  0  0
   59.3230   28.3250   44.3300 H   0  0  0  0  0  0  0  0  0  0  0  0
   56.3109   28.6563   44.1770 H   0  0  0  0  0  0  0  0  0  0  0  0
   56.1257   29.9497   42.9444 H   0  0  0  0  0  0  0  0  0  0  0  0
   57.5922   28.9124   42.9444 H   0  0  0  0  0  0  0  0  0  0  0  0
   60.5063   32.8763   49.3667 H   0  0  0  0  0  0  0  0  0  0  0  0
   60.8287   31.1612   48.9624 H   0  0  0  0  0  0  0  0  0  0  0  0
  1  2  1  0
  2  3  2  0
  3  4  1  0
  4  5  2  0
  5  6  1  0
  5  7  1  0
  7  8  1  0
  8  9  1  0
  9 10  1  0
 10 11  2  0
 11 12  1  0
 12 13  2  0
 13 14  1  0
 14 15  1  0
 15 16  1  0
 15 17  2  0
 17 18  1  0
 18 19  1  0
 19 20  1  0
 19 21  1  0
 19 22  1  0
 18 23  2  0
  9 24  1  0
  6  2  1  0
 23 10  1  0
 24  4  1  0
 23 14  1  0
  1 25  1  0
  1 26  1  0
  1 27  1  0
  3 28  1  0
  7 29  1  0
  7 30  1  0
  8 31  1  0
  8 32  1  0
 12 33  1  0
 13 34  1  0
 16 35  1  0
 16 36  1  0
 16 37  1  0
 24 38  1  0
 24 39  1  0
M  CHG  1  13   1
M  END
>  <UniqueID>  (58) 
50

>  <SMILES>  (58) 
Cc1cc2c(o1)CCN(c1nc[nH+]n3c(C)nc(C(F)(F)F)c13)C2

>  <Energy>  (58) 
114.2272458133366

>  <Genealogy>  (58) 
Cc1cc2c(o1)CCN(c1nc[nH+]n3c(C)nc(C(F)(F)F)c13)C2 (protonated)
Cc1cc2c(o1)CCN(c1nc[nH+]n3c(C)nc(C(F)(F)F)c13)C2 (3D coordinates assigned)
Cc1cc2c(o1)CCN(c1nc[nH+]n3c(C)nc(C(F)(F)F)c13)C2 (nonaromatic ring conformer: 114.2272458133366 kcal/mol)

>  <smiles>  (58) 
Cc1cc2c(o1)CCN(c1ncnn3c(C)nc(C(F)(F)F)c13)C2

>  <score_type>  (58) 
oracle

>  <origin>  (58) 
adg

>  <m_score__min__energy>  (58) 
-5.5800000000000001

>  <m_primary>  (58) 
energy

$$$$
58:0
     RDKit          3D

 42 44  0  0  1  0  0  0  0  0999 V2000
   57.1720   21.8210   44.5080 C   0  0  0  0  0  0  0  0  0  0  0  0
   58.2760   22.7000   44.8900 N   0  0  0  0  0  0  0  0  0  0  0  0
   59.6510   22.2280   44.8830 C   0  0  0  0  0  0  0  0  0  0  0  0
   58.0240   24.0440   45.2790 C   0  0  0  0  0  0  0  0  0  0  0  0
   56.7330   24.5770   45.2430 C   0  0  0  0  0  0  0  0  0  0  0  0
   56.5260   25.8810   45.6250 C   0  0  0  0  0  0  0  0  0  0  0  0
   57.5660   26.7090   46.0550 C   0  0  0  0  0  0  0  0  0  0  0  0
   57.2640   28.0480   46.4340 N   0  0  0  0  0  0  0  0  0  0  0  0
   57.0050   28.9760   45.5460 C   0  0  0  0  0  0  0  0  0  0  0  0
   55.8400   28.8900   44.8660 N   0  0  0  0  0  0  0  0  0  0  0  0
   55.5100   29.8140   43.9360 C   0  0  0  0  0  0  0  0  0  0  0  0
   56.4110   30.8350   43.7220 C   0  0  0  0  0  0  0  0  0  0  0  0
   57.5990   30.9250   44.4130 C   0  0  0  0  0  0  0  0  0  0  0  0
   58.3720   31.8990   44.1530 N   0  0  0  0  0  0  0  0  0  0  0  0
   58.7040   32.8530   45.1550 C   0  0  0  0  0  0  0  0  0  0  0  0
   58.9360   34.1700   44.7400 C   0  0  0  0  0  0  0  0  0  0  0  0
   59.2650   35.1410   45.6740 C   0  0  0  0  0  0  0  0  0  0  0  0
   59.3710   34.8360   47.0220 C   0  0  0  0  0  0  0  0  0  0  0  0
   59.1370   33.5160   47.4220 C   0  0  0  0  0  0  0  0  0  0  0  0
   59.2630   33.0820   49.1300 Cl  0  0  0  0  0  0  0  0  0  0  0  0
   58.8090   32.5390   46.4950 C   0  0  0  0  0  0  0  0  0  0  0  0
   57.8750   29.9900   45.3170 N   0  0  0  0  0  0  0  0  0  0  0  0
   58.8230   26.1810   46.0870 C   0  0  0  0  0  0  0  0  0  0  0  0
   59.0400   24.8730   45.7050 C   0  0  0  0  0  0  0  0  0  0  0  0
   56.6831   21.4318   45.4133 H   0  0  0  0  0  0  0  0  0  0  0  0
   56.4417   22.3876   43.9117 H   0  0  0  0  0  0  0  0  0  0  0  0
   57.5605   20.9823   43.9117 H   0  0  0  0  0  0  0  0  0  0  0  0
   60.0025   22.1073   45.9183 H   0  0  0  0  0  0  0  0  0  0  0  0
   59.7038   21.2603   44.3627 H   0  0  0  0  0  0  0  0  0  0  0  0
   60.2870   22.9593   44.3627 H   0  0  0  0  0  0  0  0  0  0  0  0
   55.8874   23.9568   44.9110 H   0  0  0  0  0  0  0  0  0  0  0  0
   55.5044   26.2875   45.5909 H   0  0  0  0  0  0  0  0  0  0  0  0
   55.1440   28.1270   45.0120 H   0  0  0  0  0  0  0  0  0  0  0  0
   54.5654   29.7538   43.3755 H   0  0  0  0  0  0  0  0  0  0  0  0
   56.1729   31.6048   42.9732 H   0  0  0  0  0  0  0  0  0  0  0  0
   58.8575   34.4340   43.6751 H   0  0  0  0  0  0  0  0  0  0  0  0
   59.4453   36.1730   45.3386 H   0  0  0  0  0  0  0  0  0  0  0  0
   59.6321   35.6111   47.7575 H   0  0  0  0  0  0  0  0  0  0  0  0
   58.6312   31.5063   46.8296 H   0  0  0  0  0  0  0  0  0  0  0  0
   58.7620   30.0540   45.8370 H   0  0  0  0  0  0  0  0  0  0  0  0
   59.6685   26.8013   46.4192 H   0  0  0  0  0  0  0  0  0  0  0  0
   60.0650   24.4756   45.7418 H   0  0  0  0  0  0  0  0  0  0  0  0
  1  2  1  0
  2  3  1  0
  2  4  1  0
  4  5  2  0
  5  6  1  0
  6  7  2  0
  7  8  1  0
  8  9  2  0
  9 10  1  0
 10 11  1  0
 11 12  2  0
 12 13  1  0
 13 14  2  0
 14 15  1  0
 15 16  2  0
 16 17  1  0
 17 18  2  0
 18 19  1  0
 19 20  1  0
 19 21  2  0
 13 22  1  0
  7 23  1  0
 23 24  2  0
 24  4  1  0
 22  9  1  0
 21 15  1  0
  1 25  1  0
  1 26  1  0
  1 27  1  0
  3 28  1  0
  3 29  1  0
  3 30  1  0
  5 31  1  0
  6 32  1  0
 10 33  1  0
 11 34  1  0
 12 35  1  0
 16 36  1  0
 17 37  1  0
 18 38  1  0
 21 39  1  0
 22 40  1  0
 23 41  1  0
 24 42  1  0
M  END
>  <smiles>  (59) 
CN(C)c1ccc(N=c2[nH]ccc(=Nc3cccc(Cl)c3)[nH]2)cc1

>  <score_type>  (59) 
oracle

>  <origin>  (59) 
adg

>  <m_score__min__energy>  (59) 
-7.7999999999999998

>  <m_primary>  (59) 
energy

$$$$
59:0
     RDKit          3D

 44 47  0  0  1  0  0  0  0  0999 V2000
   57.9460   28.4940   45.8430 O   0  0  0  0  0  0  0  0  0  0  0  0
   58.1070   28.6150   44.6180 C   0  0  0  0  0  0  0  0  0  0  0  0
   58.1280   27.4630   43.8040 N   0  0  0  0  0  0  0  0  0  0  0  0
   57.9850   26.1270   44.2070 C   0  0  0  0  0  0  0  0  0  0  0  0
   58.5120   25.7550   45.4510 C   0  0  0  0  0  0  0  0  0  0  0  0
   58.4210   24.4700   45.9340 C   0  0  0  0  0  0  0  0  0  0  0  0
   57.8020   23.4720   45.2130 C   0  0  0  0  0  0  0  0  0  0  0  0
   57.2800   23.8250   43.9870 C   0  0  0  0  0  0  0  0  0  0  0  0
   56.4760   22.5810   43.0260 Cl  0  0  0  0  0  0  0  0  0  0  0  0
   57.3720   25.1210   43.5030 C   0  0  0  0  0  0  0  0  0  0  0  0
   58.2650   29.9040   44.0680 N   0  0  0  0  0  0  0  0  0  0  0  0
   58.2650   31.1300   44.7450 C   0  0  0  0  0  0  0  0  0  0  0  0
   57.3710   32.1580   44.5800 C   0  0  0  0  0  0  0  0  0  0  0  0
   57.4460   33.3480   45.3000 C   0  0  0  0  0  0  0  0  0  0  0  0
   58.4390   33.5550   46.2320 C   0  0  0  0  0  0  0  0  0  0  0  0
   58.5150   34.6850   46.9200 N   0  0  0  0  0  0  0  0  0  0  0  0
   59.5060   34.8250   47.8110 C   0  0  0  0  0  0  0  0  0  0  0  0
   60.4260   33.8690   48.0400 N   0  0  0  0  0  0  0  0  0  0  0  0
   60.3400   32.7220   47.3330 C   0  0  0  0  0  0  0  0  0  0  0  0
   61.1980   31.8020   47.5310 N   0  0  0  0  0  0  0  0  0  0  0  0
   62.3950   32.0240   48.2850 C   0  0  0  0  0  0  0  0  0  0  0  0
   62.5780   31.3110   49.4700 C   0  0  0  0  0  0  0  0  0  0  0  0
   63.7200   31.5020   50.2190 C   0  0  0  0  0  0  0  0  0  0  0  0
   64.6780   32.3950   49.8000 C   0  0  0  0  0  0  0  0  0  0  0  0
   66.1580   32.6890   50.7090 Cl  0  0  0  0  0  0  0  0  0  0  0  0
   64.4900   33.0980   48.6270 C   0  0  0  0  0  0  0  0  0  0  0  0
   63.3630   32.9250   47.8650 C   0  0  0  0  0  0  0  0  0  0  0  0
   63.0870   33.7930   46.3760 Cl  0  0  0  0  0  0  0  0  0  0  0  0
   59.3450   32.5340   46.4110 C   0  0  0  0  0  0  0  0  0  0  0  0
   59.2690   31.3590   45.6980 C   0  0  0  0  0  0  0  0  0  0  0  0
   58.2690   27.6400   42.7650 H   0  0  0  0  0  0  0  0  0  0  0  0
   59.0163   26.5174   46.0630 H   0  0  0  0  0  0  0  0  0  0  0  0
   58.8521   24.2339   46.9180 H   0  0  0  0  0  0  0  0  0  0  0  0
   57.7280   22.4439   45.5971 H   0  0  0  0  0  0  0  0  0  0  0  0
   56.9378   25.3513   42.5189 H   0  0  0  0  0  0  0  0  0  0  0  0
   58.3970   29.9400   43.0150 H   0  0  0  0  0  0  0  0  0  0  0  0
   56.5597   32.0369   43.8471 H   0  0  0  0  0  0  0  0  0  0  0  0
   56.6995   34.1359   45.1213 H   0  0  0  0  0  0  0  0  0  0  0  0
   57.8090   35.4350   46.7540 H   0  0  0  0  0  0  0  0  0  0  0  0
   59.5708   35.7635   48.3812 H   0  0  0  0  0  0  0  0  0  0  0  0
   61.8119   30.5970   49.8067 H   0  0  0  0  0  0  0  0  0  0  0  0
   63.8648   30.9392   51.1530 H   0  0  0  0  0  0  0  0  0  0  0  0
   65.2596   33.8113   48.2969 H   0  0  0  0  0  0  0  0  0  0  0  0
   60.0187   30.5752   45.8811 H   0  0  0  0  0  0  0  0  0  0  0  0
  1  2  2  0
  2  3  1  0
  3  4  1  0
  4  5  2  0
  5  6  1  0
  6  7  2  0
  7  8  1  0
  8  9  1  0
  8 10  2  0
  2 11  1  0
 11 12  1  0
 12 13  2  0
 13 14  1  0
 14 15  2  0
 15 16  1  0
 16 17  1  0
 17 18  2  0
 18 19  1  0
 19 20  2  0
 20 21  1  0
 21 22  2  0
 22 23  1  0
 23 24  2  0
 24 25  1  0
 24 26  1  0
 26 27  2  0
 27 28  1  0
 19 29  1  0
 29 30  2  0
 10  4  1  0
 30 12  1  0
 29 15  1  0
 27 21  1  0
  3 31  1  0
  5 32  1  0
  6 33  1  0
  7 34  1  0
 10 35  1  0
 11 36  1  0
 13 37  1  0
 14 38  1  0
 16 39  1  0
 17 40  1  0
 22 41  1  0
 23 42  1  0
 26 43  1  0
 30 44  1  0
M  END
>  <smiles>  (60) 
O=C(Nc1cccc(Cl)c1)Nc1ccc2[nH]cnc(=Nc3ccc(Cl)cc3Cl)c2c1

>  <score_type>  (60) 
oracle

>  <origin>  (60) 
adg

>  <m_score__min__energy>  (60) 
-9.4399999999999995

>  <m_primary>  (60) 
energy

$$$$
60:0
     RDKit          3D

 54 57  0  0  0  0  0  0  0  0999 V2000
   59.3410   33.4840   50.8610 C   0  0  0  0  0  0  0  0  0  0  0  0
   60.7570   33.1010   50.8430 N   0  0  0  0  0  0  0  0  0  0  0  0
   61.4130   32.7390   52.1020 C   0  0  0  0  0  0  0  0  0  0  0  0
   61.4920   32.9900   49.6030 C   0  0  0  0  0  0  0  0  0  0  0  0
   62.4980   33.9300   49.2750 C   0  0  0  0  0  0  0  0  0  0  0  0
   63.2310   33.8130   48.0780 C   0  0  0  0  0  0  0  0  0  0  0  0
   62.9790   32.7580   47.1900 C   0  0  0  0  0  0  0  0  0  0  0  0
   61.9880   31.8390   47.5260 C   0  0  0  0  0  0  0  0  0  0  0  0
   61.4780   30.4890   46.6660 S   0  0  0  0  0  0  0  0  0  0  0  0
   60.3240   30.0880   47.8390 C   0  0  0  0  0  0  0  0  0  0  0  0
   59.4460   28.9130   47.7800 C   0  0  0  0  0  0  0  0  0  0  0  0
   58.5560   28.7500   48.6590 O   0  0  0  0  0  0  0  0  0  0  0  0
   59.5700   27.9540   46.7260 N   0  0  0  0  0  0  0  0  0  0  0  0
   58.6740   26.8120   46.5790 C   0  0  0  0  0  0  0  0  0  0  0  0
   57.3960   27.2320   45.8250 C   0  0  2  0  0  0  0  0  0  0  0  0
   57.0520   28.6470   46.0800 N   0  0  0  0  0  0  0  0  0  0  0  0
   56.8560   29.5370   44.5990 S   0  0  0  0  0  0  0  0  0  0  0  0
   57.3960   28.7270   43.4520 O   0  0  0  0  0  0  0  0  0  0  0  0
   55.3910   29.7730   44.3600 O   0  0  0  0  0  0  0  0  0  0  0  0
   57.6740   31.0960   44.6800 C   0  0  0  0  0  0  0  0  0  0  0  0
   57.9160   31.8350   43.5150 C   0  0  0  0  0  0  0  0  0  0  0  0
   58.4720   33.1160   43.5930 C   0  0  0  0  0  0  0  0  0  0  0  0
   58.7940   33.6690   44.8400 C   0  0  0  0  0  0  0  0  0  0  0  0
   59.3190   34.9670   44.9320 C   0  0  0  0  0  0  0  0  0  0  0  0
   59.6410   35.5030   46.1820 C   0  0  0  0  0  0  0  0  0  0  0  0
   59.4490   34.7510   47.3430 C   0  0  0  0  0  0  0  0  0  0  0  0
   58.9150   33.4610   47.2650 C   0  0  0  0  0  0  0  0  0  0  0  0
   58.5800   32.9110   46.0170 C   0  0  0  0  0  0  0  0  0  0  0  0
   58.0240   31.6270   45.9280 C   0  0  0  0  0  0  0  0  0  0  0  0
   56.2400   26.3660   46.2470 C   0  0  0  0  0  0  0  0  0  0  0  0
   55.0550   26.7140   45.9960 O   0  0  0  0  0  0  0  0  0  0  0  0
   56.4690   25.1950   46.9590 O   0  0  0  0  0  0  0  0  0  0  0  0
   60.3320   30.9550   48.8790 N   0  0  0  0  0  0  0  0  0  0  0  0
   61.2500   31.9400   48.6990 C   0  0  0  0  0  0  0  0  0  0  0  0
   58.9994   33.5764   51.9025 H   0  0  0  0  0  0  0  0  0  0  0  0
   59.2154   34.4484   50.3470 H   0  0  0  0  0  0  0  0  0  0  0  0
   58.7464   32.7144   50.3470 H   0  0  0  0  0  0  0  0  0  0  0  0
   60.7969   33.0790   52.9475 H   0  0  0  0  0  0  0  0  0  0  0  0
   61.5334   31.6467   52.1519 H   0  0  0  0  0  0  0  0  0  0  0  0
   62.4013   33.2195   52.1519 H   0  0  0  0  0  0  0  0  0  0  0  0
   62.7099   34.7617   49.9630 H   0  0  0  0  0  0  0  0  0  0  0  0
   64.0069   34.5549   47.8382 H   0  0  0  0  0  0  0  0  0  0  0  0
   63.5481   32.6588   46.2539 H   0  0  0  0  0  0  0  0  0  0  0  0
   59.1855   26.0191   46.0136 H   0  0  0  0  0  0  0  0  0  0  0  0
   58.3969   26.4421   47.5772 H   0  0  0  0  0  0  0  0  0  0  0  0
   57.5925   27.1073   44.7499 H   0  0  0  0  0  0  0  0  0  0  0  0
   57.7850   29.1280   46.6530 H   0  0  0  0  0  0  0  0  0  0  0  0
   57.6674   31.4055   42.5333 H   0  0  0  0  0  0  0  0  0  0  0  0
   58.6570   33.6908   42.6736 H   0  0  0  0  0  0  0  0  0  0  0  0
   59.4771   35.5625   44.0207 H   0  0  0  0  0  0  0  0  0  0  0  0
   60.0478   36.5226   46.2517 H   0  0  0  0  0  0  0  0  0  0  0  0
   59.7186   35.1747   48.3217 H   0  0  0  0  0  0  0  0  0  0  0  0
   58.7570   32.8759   48.1830 H   0  0  0  0  0  0  0  0  0  0  0  0
   57.8622   31.0349   46.8408 H   0  0  0  0  0  0  0  0  0  0  0  0
  1  2  1  0
  2  3  1  0
  2  4  1  0
  4  5  2  0
  5  6  1  0
  6  7  2  0
  7  8  1  0
  8  9  1  0
  9 10  1  0
 10 11  1  0
 11 12  2  0
 11 13  1  0
 13 14  1  0
 14 15  1  0
 15 16  1  0
 16 17  1  0
 17 18  2  0
 17 19  2  0
 17 20  1  0
 20 21  2  0
 21 22  1  0
 22 23  2  0
 23 24  1  0
 24 25  2  0
 25 26  1  0
 26 27  2  0
 27 28  1  0
 28 29  2  0
 15 30  1  0
 30 31  2  0
 30 32  1  0
 10 33  2  0
 33 34  1  0
 34  4  1  0
 34  8  2  0
 29 20  1  0
 28 23  1  0
  1 35  1  0
  1 36  1  0
  1 37  1  0
  3 38  1  0
  3 39  1  0
  3 40  1  0
  5 41  1  0
  6 42  1  0
  7 43  1  0
 14 44  1  0
 14 45  1  0
 15 46  1  6
 16 47  1  0
 21 48  1  0
 22 49  1  0
 24 50  1  0
 25 51  1  0
 26 52  1  0
 27 53  1  0
 29 54  1  0
M  CHG  2  13  -1  32  -1
M  END
>  <UniqueID>  (61) 
51

>  <SMILES>  (61) 
CN(C)c1cccc2sc(C(=O)[N-]C[C@H](NS(=O)(=O)c3ccc4ccccc4c3)C(=O)[O-])nc12

>  <Energy>  (61) 
90.99525142788028

>  <Genealogy>  (61) 
CN(C)c1cccc2sc(C(=O)[N-]CC(NS(=O)(=O)c3ccc4ccccc4c3)C(=O)[O-])nc12 (protonated)
CN(C)c1cccc2sc(C(=O)[N-]C[C@H](NS(=O)(=O)c3ccc4ccccc4c3)C(=O)[O-])nc12 (chirality)
CN(C)c1cccc2sc(C(=O)[N-]C[C@H](NS(=O)(=O)c3ccc4ccccc4c3)C(=O)[O-])nc12 (3D coordinates assigned)
CN(C)c1cccc2sc(C(=O)[N-]C[C@H](NS(=O)(=O)c3ccc4ccccc4c3)C(=O)[O-])nc12 (optimized conformer: 90.99525142788028 kcal/mol)

>  <smiles>  (61) 
CN(C)c1cccc2sc(C(=O)NCC(NS(=O)(=O)c3ccc4ccccc4c3)C(=O)O)nc12

>  <score_type>  (61) 
oracle

>  <origin>  (61) 
adg

>  <m_score__min__energy>  (61) 
-13.99

>  <m_primary>  (61) 
energy

$$$$
61:0
     RDKit          3D

 49 51  0  0  0  0  0  0  0  0999 V2000
   57.0220   31.2120   42.5410 C   0  0  0  0  0  0  0  0  0  0  0  0
   57.8280   32.3570   43.1420 C   0  0  0  0  0  0  0  0  0  0  0  0
   57.6040   32.4300   44.9130 S   0  0  0  0  0  0  0  0  0  0  0  0
   57.0410   31.1150   45.3790 O   0  0  0  0  0  0  0  0  0  0  0  0
   56.6280   33.5250   45.2460 O   0  0  0  0  0  0  0  0  0  0  0  0
   59.1340   32.7370   45.7020 N   0  0  0  0  0  0  0  0  0  0  0  0
   59.6480   34.0920   45.3680 C   0  0  0  0  0  0  0  0  0  0  0  0
   59.9400   34.9710   46.5940 C   0  0  0  0  0  0  0  0  0  0  0  0
   60.8200   34.2290   47.6050 C   0  0  0  0  0  0  0  0  0  0  0  0
   60.3180   32.7890   47.8920 C   0  0  2  0  0  0  0  0  0  0  0  0
   61.3750   31.7650   47.5670 C   0  0  0  0  0  0  0  0  0  0  0  0
   62.4880   32.1330   47.1010 O   0  0  0  0  0  0  0  0  0  0  0  0
   61.0780   30.3720   47.7300 N   0  0  0  0  0  0  0  0  0  0  0  0
   60.0270   29.6490   47.0740 C   0  0  0  0  0  0  0  0  0  0  0  0
   59.1480   28.8880   47.8510 C   0  0  0  0  0  0  0  0  0  0  0  0
   58.1240   28.1520   47.2470 C   0  0  0  0  0  0  0  0  0  0  0  0
   57.9680   28.1630   45.8560 C   0  0  0  0  0  0  0  0  0  0  0  0
   56.9390   27.4000   45.2850 O   0  0  0  0  0  0  0  0  0  0  0  0
   56.7270   26.0300   45.4940 C   0  0  0  0  0  0  0  0  0  0  0  0
   57.6950   25.0670   45.1540 C   0  0  0  0  0  0  0  0  0  0  0  0
   57.4220   23.7150   45.3700 C   0  0  0  0  0  0  0  0  0  0  0  0
   56.1900   23.3310   45.9050 C   0  0  0  0  0  0  0  0  0  0  0  0
   55.2430   24.3110   46.2100 C   0  0  0  0  0  0  0  0  0  0  0  0
   55.5290   25.6240   45.9960 N   0  0  0  0  0  0  0  0  0  0  0  0
   58.8760   28.8930   45.0700 C   0  0  0  0  0  0  0  0  0  0  0  0
   59.8980   29.6310   45.6740 C   0  0  0  0  0  0  0  0  0  0  0  0
   59.0070   32.4680   47.1470 C   0  0  0  0  0  0  0  0  0  0  0  0
   56.5926   30.6020   43.3494 H   0  0  0  0  0  0  0  0  0  0  0  0
   56.2113   31.6207   41.9199 H   0  0  0  0  0  0  0  0  0  0  0  0
   57.6802   30.5867   41.9199 H   0  0  0  0  0  0  0  0  0  0  0  0
   58.8942   32.2031   42.9195 H   0  0  0  0  0  0  0  0  0  0  0  0
   57.4777   33.3029   42.7032 H   0  0  0  0  0  0  0  0  0  0  0  0
   60.5802   33.9766   44.7955 H   0  0  0  0  0  0  0  0  0  0  0  0
   58.8579   34.5990   44.7947 H   0  0  0  0  0  0  0  0  0  0  0  0
   60.4595   35.8837   46.2667 H   0  0  0  0  0  0  0  0  0  0  0  0
   58.9857   35.2235   47.0792 H   0  0  0  0  0  0  0  0  0  0  0  0
   61.8434   34.1720   47.2057 H   0  0  0  0  0  0  0  0  0  0  0  0
   60.7834   34.7886   48.5513 H   0  0  0  0  0  0  0  0  0  0  0  0
   60.1052   32.7398   48.9701 H   0  0  0  0  0  0  0  0  0  0  0  0
   59.2629   28.8683   48.9448 H   0  0  0  0  0  0  0  0  0  0  0  0
   57.4364   27.5603   47.8692 H   0  0  0  0  0  0  0  0  0  0  0  0
   58.6581   25.3766   44.7220 H   0  0  0  0  0  0  0  0  0  0  0  0
   58.1754   22.9537   45.1194 H   0  0  0  0  0  0  0  0  0  0  0  0
   55.9683   22.2686   46.0840 H   0  0  0  0  0  0  0  0  0  0  0  0
   54.2656   24.0214   46.6233 H   0  0  0  0  0  0  0  0  0  0  0  0
   58.7820   28.8836   43.9741 H   0  0  0  0  0  0  0  0  0  0  0  0
   60.6042   30.2000   45.0515 H   0  0  0  0  0  0  0  0  0  0  0  0
   58.7619   31.4058   47.2939 H   0  0  0  0  0  0  0  0  0  0  0  0
   58.2106   33.1098   47.5518 H   0  0  0  0  0  0  0  0  0  0  0  0
  1  2  1  0
  2  3  1  0
  3  4  2  0
  3  5  2  0
  3  6  1  0
  6  7  1  0
  7  8  1  0
  8  9  1  0
  9 10  1  0
 10 11  1  0
 11 12  2  0
 11 13  1  0
 13 14  1  0
 14 15  2  0
 15 16  1  0
 16 17  2  0
 17 18  1  0
 18 19  1  0
 19 20  2  0
 20 21  1  0
 21 22  2  0
 22 23  1  0
 23 24  2  0
 17 25  1  0
 25 26  2  0
 10 27  1  0
 27  6  1  0
 26 14  1  0
 24 19  1  0
  1 28  1  0
  1 29  1  0
  1 30  1  0
  2 31  1  0
  2 32  1  0
  7 33  1  0
  7 34  1  0
  8 35  1  0
  8 36  1  0
  9 37  1  0
  9 38  1  0
 10 39  1  1
 15 40  1  0
 16 41  1  0
 20 42  1  0
 21 43  1  0
 22 44  1  0
 23 45  1  0
 25 46  1  0
 26 47  1  0
 27 48  1  0
 27 49  1  0
M  CHG  1  13  -1
M  END
>  <UniqueID>  (62) 
52

>  <SMILES>  (62) 
CCS(=O)(=O)N1CCC[C@H](C(=O)[N-]c2ccc(Oc3ccccn3)cc2)C1

>  <Energy>  (62) 
60.354703920352485

>  <Genealogy>  (62) 
CCS(=O)(=O)N1CCCC(C(=O)[N-]c2ccc(Oc3ccccn3)cc2)C1 (protonated)
CCS(=O)(=O)N1CCC[C@H](C(=O)[N-]c2ccc(Oc3ccccn3)cc2)C1 (chirality)
CCS(=O)(=O)N1CCC[C@H](C(=O)[N-]c2ccc(Oc3ccccn3)cc2)C1 (3D coordinates assigned)
CCS(=O)(=O)N1CCC[C@H](C(=O)[N-]c2ccc(Oc3ccccn3)cc2)C1 (nonaromatic ring conformer: 60.354703920352485 kcal/mol)

>  <smiles>  (62) 
CCS(=O)(=O)N1CCCC(C(=O)Nc2ccc(Oc3ccccn3)cc2)C1

>  <score_type>  (62) 
oracle

>  <origin>  (62) 
adg

>  <m_score__min__energy>  (62) 
-11.16

>  <m_primary>  (62) 
energy

$$$$
62:0
     RDKit          3D

 53 56  0  0  0  0  0  0  0  0999 V2000
   60.6200   31.5970   51.2460 O   0  0  0  0  0  0  0  0  0  0  0  0
   60.1190   31.9390   50.1420 C   0  0  0  0  0  0  0  0  0  0  0  0
   59.7920   33.3150   49.8950 N   0  0  0  0  0  0  0  0  0  0  0  0
   60.3140   34.1480   48.8070 C   0  0  0  0  0  0  0  0  0  0  0  0
   61.7900   33.8510   48.5930 C   0  0  0  0  0  0  0  0  0  0  0  0
   62.6530   33.8370   49.7040 C   0  0  0  0  0  0  0  0  0  0  0  0
   64.0070   33.5280   49.5470 C   0  0  0  0  0  0  0  0  0  0  0  0
   64.5140   33.2180   48.2830 C   0  0  0  0  0  0  0  0  0  0  0  0
   63.6660   33.2120   47.1740 C   0  0  0  0  0  0  0  0  0  0  0  0
   62.3110   33.5190   47.3250 C   0  0  0  0  0  0  0  0  0  0  0  0
   59.4690   34.0770   47.5370 C   0  0  0  0  0  0  0  0  0  0  0  0
   59.7650   34.9400   46.4630 C   0  0  0  0  0  0  0  0  0  0  0  0
   58.9820   34.9320   45.3040 C   0  0  0  0  0  0  0  0  0  0  0  0
   57.8760   34.0870   45.2120 C   0  0  0  0  0  0  0  0  0  0  0  0
   57.5430   33.2580   46.2830 C   0  0  0  0  0  0  0  0  0  0  0  0
   58.3210   33.2600   47.4450 C   0  0  0  0  0  0  0  0  0  0  0  0
   59.8870   30.9220   49.0900 C   0  0  0  0  0  0  0  0  0  0  0  0
   60.8140   30.7480   48.0470 C   0  0  0  0  0  0  0  0  0  0  0  0
   60.5950   29.7870   47.0560 C   0  0  0  0  0  0  0  0  0  0  0  0
   59.4520   28.9830   47.0840 C   0  0  0  0  0  0  0  0  0  0  0  0
   59.2800   28.0340   46.0670 O   0  0  0  0  0  0  0  0  0  0  0  0
   58.6220   28.2870   44.8270 C   0  0  0  0  0  0  0  0  0  0  0  0
   57.7380   29.5340   44.9450 C   0  0  1  0  0  0  0  0  0  0  0  0
   57.8710   30.4530   43.7320 C   0  0  0  0  0  0  0  0  0  0  0  0
   56.5800   30.2540   42.9990 C   0  0  0  0  0  0  0  0  0  0  0  0
   55.6420   29.7880   44.0890 C   0  0  0  0  0  0  0  0  0  0  0  0
   56.3900   29.1390   45.0910 O   0  0  0  0  0  0  0  0  0  0  0  0
   58.5200   29.1520   48.1250 C   0  0  0  0  0  0  0  0  0  0  0  0
   58.7370   30.1130   49.1170 C   0  0  0  0  0  0  0  0  0  0  0  0
   60.2342   35.2032   49.1072 H   0  0  0  0  0  0  0  0  0  0  0  0
   62.2591   34.0711   50.7040 H   0  0  0  0  0  0  0  0  0  0  0  0
   64.6749   33.5290   50.4210 H   0  0  0  0  0  0  0  0  0  0  0  0
   65.5808   32.9787   48.1614 H   0  0  0  0  0  0  0  0  0  0  0  0
   64.0652   32.9651   46.1792 H   0  0  0  0  0  0  0  0  0  0  0  0
   61.6461   33.5016   46.4488 H   0  0  0  0  0  0  0  0  0  0  0  0
   60.6208   35.6271   46.5369 H   0  0  0  0  0  0  0  0  0  0  0  0
   59.2389   35.5934   44.4634 H   0  0  0  0  0  0  0  0  0  0  0  0
   57.2672   34.0745   44.2959 H   0  0  0  0  0  0  0  0  0  0  0  0
   56.6645   32.5997   46.2134 H   0  0  0  0  0  0  0  0  0  0  0  0
   58.0366   32.6204   48.2936 H   0  0  0  0  0  0  0  0  0  0  0  0
   61.7185   31.3730   48.0108 H   0  0  0  0  0  0  0  0  0  0  0  0
   61.3291   29.6622   46.2464 H   0  0  0  0  0  0  0  0  0  0  0  0
   59.3751   28.4478   44.0416 H   0  0  0  0  0  0  0  0  0  0  0  0
   57.9925   27.4222   44.5702 H   0  0  0  0  0  0  0  0  0  0  0  0
   58.0724   30.0991   45.8275 H   0  0  0  0  0  0  0  0  0  0  0  0
   57.9884   31.5013   44.0440 H   0  0  0  0  0  0  0  0  0  0  0  0
   58.7531   30.2241   43.1159 H   0  0  0  0  0  0  0  0  0  0  0  0
   56.2298   31.1957   42.5512 H   0  0  0  0  0  0  0  0  0  0  0  0
   56.6602   29.5448   42.1620 H   0  0  0  0  0  0  0  0  0  0  0  0
   55.1197   30.6542   44.5214 H   0  0  0  0  0  0  0  0  0  0  0  0
   54.9006   29.0922   43.6691 H   0  0  0  0  0  0  0  0  0  0  0  0
   57.6167   28.5251   48.1583 H   0  0  0  0  0  0  0  0  0  0  0  0
   58.0018   30.2374   49.9257 H   0  0  0  0  0  0  0  0  0  0  0  0
  1  2  2  0
  2  3  1  0
  3  4  1  0
  4  5  1  0
  5  6  2  0
  6  7  1  0
  7  8  2  0
  8  9  1  0
  9 10  2  0
  4 11  1  0
 11 12  2  0
 12 13  1  0
 13 14  2  0
 14 15  1  0
 15 16  2  0
  2 17  1  0
 17 18  2  0
 18 19  1  0
 19 20  2  0
 20 21  1  0
 21 22  1  0
 22 23  1  0
 23 24  1  0
 24 25  1  0
 25 26  1  0
 26 27  1  0
 20 28  1  0
 28 29  2  0
 10  5  1  0
 16 11  1  0
 29 17  1  0
 27 23  1  0
  4 30  1  0
  6 31  1  0
  7 32  1  0
  8 33  1  0
  9 34  1  0
 10 35  1  0
 12 36  1  0
 13 37  1  0
 14 38  1  0
 15 39  1  0
 16 40  1  0
 18 41  1  0
 19 42  1  0
 22 43  1  0
 22 44  1  0
 23 45  1  1
 24 46  1  0
 24 47  1  0
 25 48  1  0
 25 49  1  0
 26 50  1  0
 26 51  1  0
 28 52  1  0
 29 53  1  0
M  CHG  1   3  -1
M  END
>  <UniqueID>  (63) 
53

>  <SMILES>  (63) 
O=C([N-]C(c1ccccc1)c1ccccc1)c1ccc(OC[C@H]2CCCO2)cc1

>  <Energy>  (63) 
59.27213302188734

>  <Genealogy>  (63) 
O=C([N-]C(c1ccccc1)c1ccccc1)c1ccc(OCC2CCCO2)cc1 (protonated)
O=C([N-]C(c1ccccc1)c1ccccc1)c1ccc(OC[C@H]2CCCO2)cc1 (chirality)
O=C([N-]C(c1ccccc1)c1ccccc1)c1ccc(OC[C@H]2CCCO2)cc1 (3D coordinates assigned)
O=C([N-]C(c1ccccc1)c1ccccc1)c1ccc(OC[C@H]2CCCO2)cc1 (nonaromatic ring conformer: 59.27213302188734 kcal/mol)

>  <smiles>  (63) 
O=C(NC(c1ccccc1)c1ccccc1)c1ccc(OCC2CCCO2)cc1

>  <score_type>  (63) 
oracle

>  <origin>  (63) 
adg

>  <m_score__min__energy>  (63) 
-9.9000000000000004

>  <m_primary>  (63) 
energy

$$$$
63:0
     RDKit          3D

 46 48  0  0  0  0  0  0  0  0999 V2000
   56.3920   29.2280   42.7196 H   0  0  0  0  0  0  0  0  0  0  0  0
   57.1510   29.4440   43.4860 C   0  0  0  0  0  0  0  0  0  0  0  0
   57.1410   30.6420   44.1210 N   0  0  0  0  0  0  0  0  0  0  0  0
   58.0460   30.9680   45.0800 C   0  0  0  0  0  0  0  0  0  0  0  0
   57.9850   32.2680   45.7140 N   0  0  0  0  0  0  0  0  0  0  0  0
   58.3120   32.4330   47.1380 C   0  0  0  0  0  0  0  0  0  0  0  0
   57.4932   32.0188   47.7447 H   0  0  0  0  0  0  0  0  0  0  0  0
   59.2532   31.9021   47.3435 H   0  0  0  0  0  0  0  0  0  0  0  0
   58.5010   33.9170   47.4960 C   0  0  0  0  0  0  0  0  0  0  0  0
   57.5119   34.3843   47.6114 H   0  0  0  0  0  0  0  0  0  0  0  0
   59.0759   33.9726   48.4322 H   0  0  0  0  0  0  0  0  0  0  0  0
   59.2540   34.6420   46.4500 N   0  0  0  0  0  0  0  0  0  0  0  0
   60.6670   34.2270   46.4070 C   0  0  0  0  0  0  0  0  0  0  0  0
   61.0477   34.1152   47.4329 H   0  0  0  0  0  0  0  0  0  0  0  0
   60.7510   33.2662   45.8780 H   0  0  0  0  0  0  0  0  0  0  0  0
   61.2572   34.9897   45.8780 H   0  0  0  0  0  0  0  0  0  0  0  0
   58.6180   34.5790   45.1070 C   0  0  0  0  0  0  0  0  0  0  0  0
   58.1218   35.5416   44.9141 H   0  0  0  0  0  0  0  0  0  0  0  0
   59.4199   34.3627   44.3858 H   0  0  0  0  0  0  0  0  0  0  0  0
   57.5730   33.4580   44.9590 C   0  0  0  0  0  0  0  0  0  0  0  0
   56.6049   33.8127   45.3423 H   0  0  0  0  0  0  0  0  0  0  0  0
   57.4851   33.1917   43.8953 H   0  0  0  0  0  0  0  0  0  0  0  0
   59.0320   30.0290   45.4240 C   0  0  0  0  0  0  0  0  0  0  0  0
   59.7676   30.2760   46.2037 H   0  0  0  0  0  0  0  0  0  0  0  0
   59.0920   28.7800   44.7870 C   0  0  0  0  0  0  0  0  0  0  0  0
   60.0600   27.9830   45.1620 N   0  0  0  0  0  0  0  0  0  0  0  0
   60.0680   26.7900   46.0090 C   0  0  0  0  0  0  0  0  0  0  0  0
   60.3763   27.0775   47.0250 H   0  0  0  0  0  0  0  0  0  0  0  0
   60.7707   26.0661   45.5707 H   0  0  0  0  0  0  0  0  0  0  0  0
   58.7080   26.1380   46.0780 C   0  0  0  0  0  0  0  0  0  0  0  0
   57.6230   26.8420   46.6220 C   0  0  0  0  0  0  0  0  0  0  0  0
   57.7618   27.8779   46.9648 H   0  0  0  0  0  0  0  0  0  0  0  0
   56.3670   26.2380   46.7320 C   0  0  0  0  0  0  0  0  0  0  0  0
   55.5193   26.8062   47.1425 H   0  0  0  0  0  0  0  0  0  0  0  0
   56.1840   24.9050   46.3190 C   0  0  0  0  0  0  0  0  0  0  0  0
   54.9420   24.2540   46.4050 O   0  0  0  0  0  0  0  0  0  0  0  0
   54.0530   24.0740   45.3080 C   0  0  0  0  0  0  0  0  0  0  0  0
   53.0406   23.8690   45.6863 H   0  0  0  0  0  0  0  0  0  0  0  0
   54.0374   24.9872   44.6950 H   0  0  0  0  0  0  0  0  0  0  0  0
   54.3939   23.2267   44.6950 H   0  0  0  0  0  0  0  0  0  0  0  0
   57.2730   24.1930   45.8060 C   0  0  0  0  0  0  0  0  0  0  0  0
   57.1401   23.1489   45.4864 H   0  0  0  0  0  0  0  0  0  0  0  0
   58.5290   24.7970   45.6960 C   0  0  0  0  0  0  0  0  0  0  0  0
   59.3816   24.2200   45.3085 H   0  0  0  0  0  0  0  0  0  0  0  0
   58.1160   28.4800   43.7950 C   0  0  0  0  0  0  0  0  0  0  0  0
   57.9690   26.9580   42.9240 Cl  0  0  0  0  0  0  0  0  0  0  0  0
  1  2  1  0
  2  3  1  0
  3  4  1  0
  4  5  1  0
  5  6  1  0
  6  7  1  0
  6  8  1  0
  6  9  1  0
  9 10  1  0
  9 11  1  0
  9 12  1  0
 12 13  1  0
 13 14  1  0
 13 15  1  0
 13 16  1  0
 12 17  1  0
 17 18  1  0
 17 19  1  0
 17 20  1  0
 20 21  1  0
 20 22  1  0
  4 23  2  0
 23 24  1  0
 23 25  1  0
 25 26  2  0
 26 27  1  0
 27 28  1  0
 27 29  1  0
 27 30  1  0
 30 31  2  0
 31 32  1  0
 31 33  1  0
 33 34  1  0
 33 35  2  0
 35 36  1  0
 36 37  1  0
 37 38  1  0
 37 39  1  0
 37 40  1  0
 35 41  1  0
 41 42  1  0
 41 43  2  0
 43 44  1  0
 25 45  1  0
 45 46  1  0
 45  2  2  0
 20  5  1  0
 43 30  1  0
M  CHG  1   3  -1
M  END
>  <UniqueID>  (64) 
54

>  <SMILES>  (64) 
COc1ccc(C/N=c2/cc(N3CCN(C)CC3)[n-]cc2Cl)cc1

>  <Energy>  (64) 
67.26839311599157

>  <Genealogy>  (64) 
COc1ccc(CN=c2cc(N3CCN(C)CC3)[n-]cc2Cl)cc1 (protonated)
COc1ccc(C/N=c2/cc(N3CCN(C)CC3)[n-]cc2Cl)cc1 (cis-trans isomerization)
COc1ccc(C/N=c2/cc(N3CCN(C)CC3)[n-]cc2Cl)cc1 (3D coordinates assigned)
COc1ccc(C/N=c2/cc(N3CCN(C)CC3)[n-]cc2Cl)cc1 (nonaromatic ring conformer: 67.26839311599157 kcal/mol)

>  <smiles>  (64) 
COc1ccc(CN=c2cc(N3CCN(C)CC3)[nH]cc2Cl)cc1

>  <score_type>  (64) 
oracle

>  <origin>  (64) 
adg

>  <m_score__min__energy>  (64) 
-8.25

>  <m_primary>  (64) 
energy

$$$$
64:0
     RDKit          3D

 57 60  0  0  0  0  0  0  0  0999 V2000
   61.7010   24.7770   51.6240 O   0  0  0  0  0  0  0  0  0  0  0  0
   62.2770   25.7110   52.2450 C   0  0  0  0  0  0  0  0  0  0  0  0
   63.4300   25.3970   53.1450 C   0  0  0  0  0  0  0  0  0  0  0  0
   64.0030   26.6390   53.6480 N   0  0  0  0  0  0  0  0  0  0  0  0
   64.5220   27.6890   52.8230 C   0  0  0  0  0  0  0  0  0  0  0  0
   63.9810   28.8240   52.8740 O   0  0  0  0  0  0  0  0  0  0  0  0
   65.6580   27.4770   51.9040 C   0  0  0  0  0  0  0  0  0  0  0  0
   65.8900   26.2160   51.3280 C   0  0  0  0  0  0  0  0  0  0  0  0
   66.9830   26.0190   50.4800 C   0  0  0  0  0  0  0  0  0  0  0  0
   67.8570   27.0760   50.2060 C   0  0  0  0  0  0  0  0  0  0  0  0
   68.9180   26.8830   49.3830 F   0  0  0  0  0  0  0  0  0  0  0  0
   67.6440   28.3280   50.7910 C   0  0  0  0  0  0  0  0  0  0  0  0
   66.5530   28.5260   51.6450 C   0  0  0  0  0  0  0  0  0  0  0  0
   61.8300   27.0640   52.0940 N   0  0  0  0  0  0  0  0  0  0  0  0
   60.7010   27.4010   51.2240 C   0  0  0  0  0  0  0  0  0  0  0  0
   60.7710   26.7480   49.8540 C   0  0  0  0  0  0  0  0  0  0  0  0
   60.9930   28.0310   49.1620 N   0  0  0  0  0  0  0  0  0  0  0  0
   59.8730   28.4010   48.2620 C   0  0  2  0  0  0  0  0  0  0  0  0
   59.9670   27.5990   46.9450 C   0  0  0  0  0  0  0  0  0  0  0  0
   58.7760   27.8850   46.0080 C   0  0  0  0  0  0  0  0  0  0  0  0
   58.2220   29.3240   46.1480 C   0  0  2  0  0  0  0  0  0  0  0  0
   57.5280   29.7780   44.8710 C   0  0  0  0  0  0  0  0  0  0  0  0
   58.1300   30.7470   44.0410 C   0  0  0  0  0  0  0  0  0  0  0  0
   57.5030   31.1660   42.8650 C   0  0  0  0  0  0  0  0  0  0  0  0
   58.0910   32.1030   42.0810 F   0  0  0  0  0  0  0  0  0  0  0  0
   56.2720   30.6210   42.4950 C   0  0  0  0  0  0  0  0  0  0  0  0
   55.6670   29.6550   43.3010 C   0  0  0  0  0  0  0  0  0  0  0  0
   56.2860   29.2290   44.4810 C   0  0  0  0  0  0  0  0  0  0  0  0
   55.6560   28.2590   45.2550 O   0  0  0  0  0  0  0  0  0  0  0  0
   59.3280   30.3070   46.5780 C   0  0  0  0  0  0  0  0  0  0  0  0
   59.9140   29.9260   47.9540 C   0  0  0  0  0  0  0  0  0  0  0  0
   60.9140   28.7030   50.4720 C   0  0  0  0  0  0  0  0  0  0  0  0
   63.0803   24.7854   53.9898 H   0  0  0  0  0  0  0  0  0  0  0  0
   64.1944   24.8406   52.5827 H   0  0  0  0  0  0  0  0  0  0  0  0
   65.2082   25.3807   51.5457 H   0  0  0  0  0  0  0  0  0  0  0  0
   67.1562   25.0315   50.0274 H   0  0  0  0  0  0  0  0  0  0  0  0
   68.3344   29.1579   50.5799 H   0  0  0  0  0  0  0  0  0  0  0  0
   66.3966   29.5081   52.1151 H   0  0  0  0  0  0  0  0  0  0  0  0
   62.3640   27.8220   52.5770 H   0  0  0  0  0  0  0  0  0  0  0  0
   59.8686   27.2293   51.9223 H   0  0  0  0  0  0  0  0  0  0  0  0
   61.6100   26.0445   49.7484 H   0  0  0  0  0  0  0  0  0  0  0  0
   59.9348   26.1112   49.5296 H   0  0  0  0  0  0  0  0  0  0  0  0
   58.9230   28.1626   48.7627 H   0  0  0  0  0  0  0  0  0  0  0  0
   60.8989   27.8725   46.4284 H   0  0  0  0  0  0  0  0  0  0  0  0
   59.9513   26.5284   47.1973 H   0  0  0  0  0  0  0  0  0  0  0  0
   59.1051   27.7366   44.9689 H   0  0  0  0  0  0  0  0  0  0  0  0
   57.9668   27.1944   46.2876 H   0  0  0  0  0  0  0  0  0  0  0  0
   57.4629   29.3158   46.9441 H   0  0  0  0  0  0  0  0  0  0  0  0
   59.1026   31.1768   44.3226 H   0  0  0  0  0  0  0  0  0  0  0  0
   55.7792   30.9525   41.5691 H   0  0  0  0  0  0  0  0  0  0  0  0
   54.6978   29.2262   43.0065 H   0  0  0  0  0  0  0  0  0  0  0  0
   60.1332   30.2903   45.8287 H   0  0  0  0  0  0  0  0  0  0  0  0
   58.8880   31.3122   46.6547 H   0  0  0  0  0  0  0  0  0  0  0  0
   60.9625   30.2569   47.9865 H   0  0  0  0  0  0  0  0  0  0  0  0
   59.2889   30.4197   48.7126 H   0  0  0  0  0  0  0  0  0  0  0  0
   61.8424   29.2219   50.7527 H   0  0  0  0  0  0  0  0  0  0  0  0
   60.1835   29.5146   50.6052 H   0  0  0  0  0  0  0  0  0  0  0  0
  1  2  2  0
  2  3  1  0
  3  4  1  0
  4  5  1  0
  5  6  2  0
  5  7  1  0
  7  8  2  0
  8  9  1  0
  9 10  2  0
 10 11  1  0
 10 12  1  0
 12 13  2  0
  2 14  1  0
 14 15  1  0
 15 16  1  0
 16 17  1  0
 17 18  1  0
 18 19  1  0
 19 20  1  0
 20 21  1  0
 21 22  1  0
 22 23  2  0
 23 24  1  0
 24 25  1  0
 24 26  2  0
 26 27  1  0
 27 28  2  0
 28 29  1  0
 21 30  1  0
 30 31  1  0
 17 32  1  0
 13  7  1  0
 32 15  1  0
 31 18  1  0
 28 22  1  0
  3 33  1  0
  3 34  1  0
  8 35  1  0
  9 36  1  0
 12 37  1  0
 13 38  1  0
 14 39  1  0
 15 40  1  0
 16 41  1  0
 16 42  1  0
 18 43  1  1
 19 44  1  0
 19 45  1  0
 20 46  1  0
 20 47  1  0
 21 48  1  1
 23 49  1  0
 26 50  1  0
 27 51  1  0
 30 52  1  0
 30 53  1  0
 31 54  1  0
 31 55  1  0
 32 56  1  0
 32 57  1  0
M  CHG  2   4  -1  29  -1
M  END
>  <UniqueID>  (65) 
55

>  <SMILES>  (65) 
O=C(C[N-]C(=O)c1ccc(F)cc1)NC1CN(C2CCC(c3cc(F)ccc3[O-])CC2)C1

>  <Energy>  (65) 
137.00897199525235

>  <Genealogy>  (65) 
O=C(C[N-]C(=O)c1ccc(F)cc1)NC1CN(C2CCC(c3cc(F)ccc3[O-])CC2)C1 (protonated)
O=C(C[N-]C(=O)c1ccc(F)cc1)NC1CN(C2CCC(c3cc(F)ccc3[O-])CC2)C1 (3D coordinates assigned)
O=C(C[N-]C(=O)c1ccc(F)cc1)NC1CN(C2CCC(c3cc(F)ccc3[O-])CC2)C1 (nonaromatic ring conformer: 137.00897199525235 kcal/mol)

>  <smiles>  (65) 
O=C(CNC(=O)c1ccc(F)cc1)NC1CN(C2CCC(c3cc(F)ccc3O)CC2)C1

>  <score_type>  (65) 
oracle

>  <origin>  (65) 
adg

>  <m_score__min__energy>  (65) 
-12.92

>  <m_primary>  (65) 
energy

$$$$
65:0
     RDKit          3D

 30 31  0  0  0  0  0  0  0  0999 V2000
   59.3420   29.1570   45.0470 O   0  0  0  0  0  0  0  0  0  0  0  0
   58.4200   29.0760   46.2300 S   0  0  0  0  0  0  0  0  0  0  0  0
   57.3150   28.0950   45.9530 O   0  0  0  0  0  0  0  0  0  0  0  0
   57.7430   30.6180   46.5340 O   0  0  0  0  0  0  0  0  0  0  0  0
   58.0960   31.8020   45.8680 C   0  0  0  0  0  0  0  0  0  0  0  0
   58.8390   32.8200   46.4970 C   0  0  0  0  0  0  0  0  0  0  0  0
   59.2240   33.9590   45.7850 C   0  0  0  0  0  0  0  0  0  0  0  0
   58.8780   34.0930   44.4400 C   0  0  0  0  0  0  0  0  0  0  0  0
   58.1350   33.0970   43.8050 C   0  0  0  0  0  0  0  0  0  0  0  0
   57.7160   31.9620   44.5160 C   0  0  0  0  0  0  0  0  0  0  0  0
   56.9340   30.9310   43.8000 C   0  0  0  0  0  0  0  0  0  0  0  0
   55.7200   30.6140   44.1320 N   0  0  0  0  0  0  0  0  0  0  0  0
   55.4380   29.6610   45.0840 O   0  0  0  0  0  0  0  0  0  0  0  0
   59.3300   28.5440   47.6380 C   0  0  0  0  0  0  0  0  0  0  0  0
   59.5130   29.4000   48.7340 C   0  0  0  0  0  0  0  0  0  0  0  0
   60.2400   28.9670   49.8470 C   0  0  0  0  0  0  0  0  0  0  0  0
   60.7890   27.6830   49.8700 C   0  0  0  0  0  0  0  0  0  0  0  0
   60.6120   26.8280   48.7780 C   0  0  0  0  0  0  0  0  0  0  0  0
   59.8860   27.2580   47.6630 C   0  0  0  0  0  0  0  0  0  0  0  0
   59.1181   32.7176   47.5561 H   0  0  0  0  0  0  0  0  0  0  0  0
   59.8005   34.7509   46.2855 H   0  0  0  0  0  0  0  0  0  0  0  0
   59.1916   34.9857   43.8790 H   0  0  0  0  0  0  0  0  0  0  0  0
   57.8763   33.2022   42.7410 H   0  0  0  0  0  0  0  0  0  0  0  0
   57.4008   30.4110   42.9505 H   0  0  0  0  0  0  0  0  0  0  0  0
   55.8530   29.7270   46.0050 H   0  0  0  0  0  0  0  0  0  0  0  0
   59.0842   30.4128   48.7178 H   0  0  0  0  0  0  0  0  0  0  0  0
   60.3799   29.6391   50.7065 H   0  0  0  0  0  0  0  0  0  0  0  0
   61.3604   27.3445   50.7469 H   0  0  0  0  0  0  0  0  0  0  0  0
   61.0441   25.8166   48.7960 H   0  0  0  0  0  0  0  0  0  0  0  0
   59.7510   26.5851   46.8034 H   0  0  0  0  0  0  0  0  0  0  0  0
  1  2  2  0
  2  3  2  0
  2  4  1  0
  4  5  1  0
  5  6  2  0
  6  7  1  0
  7  8  2  0
  8  9  1  0
  9 10  2  0
 10 11  1  0
 11 12  2  3
 12 13  1  0
  2 14  1  0
 14 15  2  0
 15 16  1  0
 16 17  2  0
 17 18  1  0
 18 19  2  0
 10  5  1  0
 19 14  1  0
  6 20  1  0
  7 21  1  0
  8 22  1  0
  9 23  1  0
 11 24  1  0
 13 25  1  0
 15 26  1  0
 16 27  1  0
 17 28  1  0
 18 29  1  0
 19 30  1  0
M  END
>  <UniqueID>  (66) 
56

>  <SMILES>  (66) 
O=S(=O)(Oc1ccccc1C=NO)c1ccccc1

>  <Energy>  (66) 
36.407967073880606

>  <Genealogy>  (66) 
O=S(=O)(Oc1ccccc1C=NO)c1ccccc1 (3D coordinates assigned)
O=S(=O)(Oc1ccccc1C=NO)c1ccccc1 (optimized conformer: 36.407967073880606 kcal/mol)

>  <smiles>  (66) 
O=S(=O)(Oc1ccccc1C=NO)c1ccccc1

>  <score_type>  (66) 
oracle

>  <origin>  (66) 
adg

>  <m_score__min__energy>  (66) 
-8.3900000000000006

>  <m_primary>  (66) 
energy

$$$$
66:0
     RDKit          3D

 62 64  0  0  0  0  0  0  0  0999 V2000
   57.4280   25.7460   46.6270 C   0  0  0  0  0  0  0  0  0  0  0  0
   58.8180   26.3560   46.4900 C   0  0  0  0  0  0  0  0  0  0  0  0
   58.8480   27.7640   47.0380 C   0  0  0  0  0  0  0  0  0  0  0  0
   59.3460   27.9600   48.3390 C   0  0  0  0  0  0  0  0  0  0  0  0
   59.3880   29.2390   48.9100 C   0  0  0  0  0  0  0  0  0  0  0  0
   59.9330   29.4310   50.2990 C   0  0  0  0  0  0  0  0  0  0  0  0
   59.3160   30.5930   50.9300 N   0  0  0  0  0  0  0  0  0  0  0  0
   58.0630   30.5150   51.6250 C   0  0  0  0  0  0  0  0  0  0  0  0
   57.4670   29.4110   51.7410 O   0  0  0  0  0  0  0  0  0  0  0  0
   57.4550   31.7470   52.2240 C   0  0  0  0  0  0  0  0  0  0  0  0
   58.3690   32.8080   52.1890 O   0  0  0  0  0  0  0  0  0  0  0  0
   58.9000   30.3300   48.1850 C   0  0  0  0  0  0  0  0  0  0  0  0
   58.3820   30.1480   46.9030 C   0  0  0  0  0  0  0  0  0  0  0  0
   58.3440   28.8740   46.3140 C   0  0  0  0  0  0  0  0  0  0  0  0
   57.7940   28.7500   44.9080 C   0  0  0  0  0  0  0  0  0  0  0  0
   56.6850   29.6760   44.6720 N   0  0  0  0  0  0  0  0  0  0  0  0
   56.8200   30.9910   44.1250 C   0  0  0  0  0  0  0  0  0  0  0  0
   57.0140   31.1510   42.8830 O   0  0  0  0  0  0  0  0  0  0  0  0
   56.7350   32.1160   45.0120 N   0  0  0  0  0  0  0  0  0  0  0  0
   57.6900   32.9500   45.3100 C   0  0  0  0  0  0  0  0  0  0  0  0
   58.4680   32.7730   46.4150 N   0  0  0  0  0  0  0  0  0  0  0  0
   59.4240   33.6760   46.7740 C   0  0  0  0  0  0  0  0  0  0  0  0
   60.2120   33.4490   47.9630 N   0  0  0  0  0  0  0  0  0  0  0  0
   59.6560   33.2150   49.2480 C   0  0  0  0  0  0  0  0  0  0  0  0
   58.4900   32.7780   49.4520 O   0  0  0  0  0  0  0  0  0  0  0  0
   60.5120   33.5380   50.2680 O   0  0  0  0  0  0  0  0  0  0  0  0
   61.7470   33.9780   49.7340 C   0  0  0  0  0  0  0  0  0  0  0  0
   61.5710   33.9700   48.1840 C   0  0  1  0  0  0  0  0  0  0  0  0
   62.6700   33.1040   47.4920 C   0  0  0  0  0  0  0  0  0  0  0  0
   63.7190   32.6380   48.5180 C   0  0  0  0  0  0  0  0  0  0  0  0
   63.3910   33.8410   46.3550 C   0  0  0  0  0  0  0  0  0  0  0  0
   59.6000   34.8230   45.9870 C   0  0  0  0  0  0  0  0  0  0  0  0
   58.8090   34.9850   44.8510 C   0  0  0  0  0  0  0  0  0  0  0  0
   57.8720   34.0510   44.5360 N   0  0  0  0  0  0  0  0  0  0  0  0
   57.1790   25.6367   47.6928 H   0  0  0  0  0  0  0  0  0  0  0  0
   56.6900   26.4030   46.1435 H   0  0  0  0  0  0  0  0  0  0  0  0
   57.4118   24.7581   46.1435 H   0  0  0  0  0  0  0  0  0  0  0  0
   59.5384   25.7381   47.0461 H   0  0  0  0  0  0  0  0  0  0  0  0
   59.0823   26.3896   45.4228 H   0  0  0  0  0  0  0  0  0  0  0  0
   59.7078   27.0965   48.9166 H   0  0  0  0  0  0  0  0  0  0  0  0
   59.7181   28.5351   50.9000 H   0  0  0  0  0  0  0  0  0  0  0  0
   61.0193   29.5925   50.2375 H   0  0  0  0  0  0  0  0  0  0  0  0
   59.7910   31.5230   50.8510 H   0  0  0  0  0  0  0  0  0  0  0  0
   56.5569   32.0230   51.6520 H   0  0  0  0  0  0  0  0  0  0  0  0
   57.1872   31.5405   53.2707 H   0  0  0  0  0  0  0  0  0  0  0  0
   58.7950   32.7840   51.2910 H   0  0  0  0  0  0  0  0  0  0  0  0
   58.9247   31.3367   48.6277 H   0  0  0  0  0  0  0  0  0  0  0  0
   57.9978   31.0148   46.3454 H   0  0  0  0  0  0  0  0  0  0  0  0
   58.5988   28.9688   44.1907 H   0  0  0  0  0  0  0  0  0  0  0  0
   57.4157   27.7252   44.7791 H   0  0  0  0  0  0  0  0  0  0  0  0
   61.9763   34.9941   50.0876 H   0  0  0  0  0  0  0  0  0  0  0  0
   62.5770   33.3286   50.0491 H   0  0  0  0  0  0  0  0  0  0  0  0
   61.6886   34.9700   47.7411 H   0  0  0  0  0  0  0  0  0  0  0  0
   62.1434   32.2415   47.0574 H   0  0  0  0  0  0  0  0  0  0  0  0
   63.3372   32.8076   49.5356 H   0  0  0  0  0  0  0  0  0  0  0  0
   63.9200   31.5659   48.3757 H   0  0  0  0  0  0  0  0  0  0  0  0
   64.6493   33.2075   48.3757 H   0  0  0  0  0  0  0  0  0  0  0  0
   64.1005   34.5662   46.7800 H   0  0  0  0  0  0  0  0  0  0  0  0
   63.9366   33.1144   45.7350 H   0  0  0  0  0  0  0  0  0  0  0  0
   62.6526   34.3706   45.7350 H   0  0  0  0  0  0  0  0  0  0  0  0
   60.3485   35.5810   46.2611 H   0  0  0  0  0  0  0  0  0  0  0  0
   58.9426   35.8683   44.2092 H   0  0  0  0  0  0  0  0  0  0  0  0
  1  2  1  0
  2  3  1  0
  3  4  2  0
  4  5  1  0
  5  6  1  0
  6  7  1  0
  7  8  1  0
  8  9  2  0
  8 10  1  0
 10 11  1  0
  5 12  2  0
 12 13  1  0
 13 14  2  0
 14 15  1  0
 15 16  1  0
 16 17  1  0
 17 18  2  0
 17 19  1  0
 19 20  2  3
 20 21  1  0
 21 22  2  0
 22 23  1  0
 23 24  1  0
 24 25  2  0
 24 26  1  0
 26 27  1  0
 27 28  1  0
 28 29  1  0
 29 30  1  0
 29 31  1  0
 22 32  1  0
 32 33  2  0
 33 34  1  0
 14  3  1  0
 34 20  1  0
 28 23  1  0
  1 35  1  0
  1 36  1  0
  1 37  1  0
  2 38  1  0
  2 39  1  0
  4 40  1  0
  6 41  1  0
  6 42  1  0
  7 43  1  0
 10 44  1  0
 10 45  1  0
 11 46  1  0
 12 47  1  0
 13 48  1  0
 15 49  1  0
 15 50  1  0
 27 51  1  0
 27 52  1  0
 28 53  1  6
 29 54  1  0
 30 55  1  0
 30 56  1  0
 30 57  1  0
 31 58  1  0
 31 59  1  0
 31 60  1  0
 32 61  1  0
 33 62  1  0
M  CHG  2  16  -1  34  -1
M  END
>  <UniqueID>  (67) 
57

>  <SMILES>  (67) 
CCc1cc(CNC(=O)CO)ccc1C[N-]C(=O)N=c1nc(N2C(=O)OC[C@H]2C(C)C)cc[n-]1

>  <Energy>  (67) 
75.59898263933938

>  <Genealogy>  (67) 
CCc1cc(CNC(=O)CO)ccc1C[N-]C(=O)N=c1nc(N2C(=O)OCC2C(C)C)cc[n-]1 (protonated)
CCc1cc(CNC(=O)CO)ccc1C[N-]C(=O)N=c1nc(N2C(=O)OC[C@H]2C(C)C)cc[n-]1 (chirality)
CCc1cc(CNC(=O)CO)ccc1C[N-]C(=O)N=c1nc(N2C(=O)OC[C@H]2C(C)C)cc[n-]1 (3D coordinates assigned)
CCc1cc(CNC(=O)CO)ccc1C[N-]C(=O)N=c1nc(N2C(=O)OC[C@H]2C(C)C)cc[n-]1 (nonaromatic ring conformer: 75.59898263933938 kcal/mol)

>  <smiles>  (67) 
CCc1cc(CNC(=O)CO)ccc1CNC(=O)N=c1nc(N2C(=O)OCC2C(C)C)cc[nH]1

>  <score_type>  (67) 
oracle

>  <origin>  (67) 
adg

>  <m_score__min__energy>  (67) 
-10.949999999999999

>  <m_primary>  (67) 
energy

$$$$
67:0
     RDKit          3D

 64 66  0  0  0  0  0  0  0  0999 V2000
   59.1720   34.9510   45.2250 C   0  0  0  0  0  0  0  0  0  0  0  0
   58.0970   33.9500   44.8040 C   0  0  0  0  0  0  0  0  0  0  0  0
   57.8050   32.9220   45.9070 C   0  0  0  0  0  0  0  0  0  0  0  0
   58.8020   31.8400   45.9230 N   0  0  0  0  0  0  0  0  0  0  0  0
   60.1400   32.1310   46.4610 C   0  0  0  0  0  0  0  0  0  0  0  0
   60.0870   32.4810   47.9290 C   0  0  0  0  0  0  0  0  0  0  0  0
   60.1630   31.4750   48.9060 C   0  0  0  0  0  0  0  0  0  0  0  0
   60.1810   31.8090   50.2650 C   0  0  0  0  0  0  0  0  0  0  0  0
   60.1290   33.1520   50.6640 C   0  0  0  0  0  0  0  0  0  0  0  0
   60.1750   33.4920   52.0610 N   0  0  0  0  0  0  0  0  0  0  0  0
   61.4500   33.5620   52.7820 C   0  0  0  0  0  0  0  0  0  0  0  0
   62.6010   33.3750   51.8460 C   0  0  0  0  0  0  0  0  0  0  0  0
   63.1600   32.2500   51.7520 O   0  0  0  0  0  0  0  0  0  0  0  0
   63.0750   34.4470   51.1030 O   0  0  0  0  0  0  0  0  0  0  0  0
   58.6950   33.5980   52.9720 S   0  0  0  0  0  0  0  0  0  0  0  0
   57.8150   34.6920   52.4350 O   0  0  0  0  0  0  0  0  0  0  0  0
   59.0300   33.9050   54.4050 O   0  0  0  0  0  0  0  0  0  0  0  0
   57.8280   32.0670   52.8470 C   0  0  0  0  0  0  0  0  0  0  0  0
   56.5080   32.0450   52.3710 C   0  0  0  0  0  0  0  0  0  0  0  0
   55.8030   30.8380   52.2960 C   0  0  0  0  0  0  0  0  0  0  0  0
   54.1520   30.8220   51.7030 Cl  0  0  0  0  0  0  0  0  0  0  0  0
   56.4130   29.6480   52.6970 C   0  0  0  0  0  0  0  0  0  0  0  0
   57.7290   29.6580   53.1670 C   0  0  0  0  0  0  0  0  0  0  0  0
   58.4520   30.8670   53.2440 C   0  0  0  0  0  0  0  0  0  0  0  0
   59.7770   30.9140   53.7100 O   0  0  0  0  0  0  0  0  0  0  0  0
   60.8450   30.1140   53.2120 C   0  0  0  0  0  0  0  0  0  0  0  0
   60.0470   34.1600   49.6880 C   0  0  0  0  0  0  0  0  0  0  0  0
   60.0280   33.8260   48.3310 C   0  0  0  0  0  0  0  0  0  0  0  0
   58.3270   30.4810   45.8990 C   0  0  0  0  0  0  0  0  0  0  0  0
   57.3310   30.1040   44.9880 C   0  0  0  0  0  0  0  0  0  0  0  0
   56.8300   28.7980   44.9920 C   0  0  0  0  0  0  0  0  0  0  0  0
   57.3430   27.8470   45.8870 C   0  0  0  0  0  0  0  0  0  0  0  0
   56.6760   26.2190   45.9060 S   0  0  0  0  0  0  0  0  0  0  0  0
   54.9490   26.2840   45.9990 N   0  0  0  0  0  0  0  0  0  0  0  0
   57.2100   25.4690   47.0950 O   0  0  0  0  0  0  0  0  0  0  0  0
   57.0660   25.5080   44.6400 O   0  0  0  0  0  0  0  0  0  0  0  0
   58.3600   28.2150   46.7800 C   0  0  0  0  0  0  0  0  0  0  0  0
   58.8280   29.5330   46.8060 C   0  0  0  0  0  0  0  0  0  0  0  0
   59.2208   34.9965   46.3230 H   0  0  0  0  0  0  0  0  0  0  0  0
   60.1466   34.6313   44.8275 H   0  0  0  0  0  0  0  0  0  0  0  0
   58.9225   35.9459   44.8275 H   0  0  0  0  0  0  0  0  0  0  0  0
   57.1712   34.4982   44.5753 H   0  0  0  0  0  0  0  0  0  0  0  0
   58.4656   33.4064   43.9216 H   0  0  0  0  0  0  0  0  0  0  0  0
   57.8174   33.4321   46.8815 H   0  0  0  0  0  0  0  0  0  0  0  0
   56.8196   32.4761   45.7068 H   0  0  0  0  0  0  0  0  0  0  0  0
   60.7781   31.2449   46.3285 H   0  0  0  0  0  0  0  0  0  0  0  0
   60.5483   32.9953   45.9166 H   0  0  0  0  0  0  0  0  0  0  0  0
   60.2086   30.4190   48.6015 H   0  0  0  0  0  0  0  0  0  0  0  0
   60.2362   31.0142   51.0235 H   0  0  0  0  0  0  0  0  0  0  0  0
   61.5362   34.5453   53.2674 H   0  0  0  0  0  0  0  0  0  0  0  0
   61.4738   32.7599   53.5343 H   0  0  0  0  0  0  0  0  0  0  0  0
   56.0247   32.9813   52.0551 H   0  0  0  0  0  0  0  0  0  0  0  0
   55.8566   28.7006   52.6429 H   0  0  0  0  0  0  0  0  0  0  0  0
   58.2046   28.7165   53.4791 H   0  0  0  0  0  0  0  0  0  0  0  0
   61.4102   29.6907   54.0554 H   0  0  0  0  0  0  0  0  0  0  0  0
   60.4364   29.2979   52.5980 H   0  0  0  0  0  0  0  0  0  0  0  0
   61.5133   30.7356   52.5980 H   0  0  0  0  0  0  0  0  0  0  0  0
   59.9976   35.2156   49.9933 H   0  0  0  0  0  0  0  0  0  0  0  0
   59.9665   34.6209   47.5731 H   0  0  0  0  0  0  0  0  0  0  0  0
   56.9417   30.8379   44.2670 H   0  0  0  0  0  0  0  0  0  0  0  0
   56.0309   28.5155   44.2909 H   0  0  0  0  0  0  0  0  0  0  0  0
   54.7080   27.0840   46.6310 H   0  0  0  0  0  0  0  0  0  0  0  0
   58.7903   27.4660   47.4610 H   0  0  0  0  0  0  0  0  0  0  0  0
   59.5920   29.8283   47.5403 H   0  0  0  0  0  0  0  0  0  0  0  0
  1  2  1  0
  2  3  1  0
  3  4  1  0
  4  5  1  0
  5  6  1  0
  6  7  2  0
  7  8  1  0
  8  9  2  0
  9 10  1  0
 10 11  1  0
 11 12  1  0
 12 13  2  0
 12 14  1  0
 10 15  1  0
 15 16  2  0
 15 17  2  0
 15 18  1  0
 18 19  2  0
 19 20  1  0
 20 21  1  0
 20 22  2  0
 22 23  1  0
 23 24  2  0
 24 25  1  0
 25 26  1  0
  9 27  1  0
 27 28  2  0
  4 29  1  0
 29 30  2  0
 30 31  1  0
 31 32  2  0
 32 33  1  0
 33 34  1  0
 33 35  2  0
 33 36  2  0
 32 37  1  0
 37 38  2  0
 28  6  1  0
 38 29  1  0
 24 18  1  0
  1 39  1  0
  1 40  1  0
  1 41  1  0
  2 42  1  0
  2 43  1  0
  3 44  1  0
  3 45  1  0
  5 46  1  0
  5 47  1  0
  7 48  1  0
  8 49  1  0
 11 50  1  0
 11 51  1  0
 19 52  1  0
 22 53  1  0
 23 54  1  0
 26 55  1  0
 26 56  1  0
 26 57  1  0
 27 58  1  0
 28 59  1  0
 30 60  1  0
 31 61  1  0
 34 62  1  0
 37 63  1  0
 38 64  1  0
M  CHG  2  14  -1  34  -1
M  END
>  <UniqueID>  (68) 
58

>  <SMILES>  (68) 
CCCN(Cc1ccc(N(CC(=O)[O-])S(=O)(=O)c2cc(Cl)ccc2OC)cc1)c1ccc(S([NH-])(=O)=O)cc1

>  <Energy>  (68) 
66.35673414719011

>  <Genealogy>  (68) 
CCCN(Cc1ccc(N(CC(=O)[O-])S(=O)(=O)c2cc(Cl)ccc2OC)cc1)c1ccc(S([NH-])(=O)=O)cc1 (protonated)
CCCN(Cc1ccc(N(CC(=O)[O-])S(=O)(=O)c2cc(Cl)ccc2OC)cc1)c1ccc(S([NH-])(=O)=O)cc1 (3D coordinates assigned)
CCCN(Cc1ccc(N(CC(=O)[O-])S(=O)(=O)c2cc(Cl)ccc2OC)cc1)c1ccc(S([NH-])(=O)=O)cc1 (optimized conformer: 66.35673414719011 kcal/mol)

>  <smiles>  (68) 
CCCN(Cc1ccc(N(CC(=O)O)S(=O)(=O)c2cc(Cl)ccc2OC)cc1)c1ccc(S(N)(=O)=O)cc1

>  <score_type>  (68) 
oracle

>  <origin>  (68) 
adg

>  <m_score__min__energy>  (68) 
-13.19

>  <m_primary>  (68) 
energy

$$$$
68:0
     RDKit          3D

 51 53  0  0  0  0  0  0  0  0999 V2000
   63.0670   34.0850   50.3310 C   0  0  0  0  0  0  0  0  0  0  0  0
   62.5620   34.5810   49.0960 O   0  0  0  0  0  0  0  0  0  0  0  0
   61.4600   34.0410   48.4160 C   0  0  0  0  0  0  0  0  0  0  0  0
   60.3270   33.6920   49.1570 C   0  0  0  0  0  0  0  0  0  0  0  0
   59.2130   33.1300   48.5280 C   0  0  0  0  0  0  0  0  0  0  0  0
   59.2160   32.9000   47.1450 C   0  0  0  0  0  0  0  0  0  0  0  0
   58.0690   32.2820   46.5340 N   0  0  0  0  0  0  0  0  0  0  0  0
   57.4310   32.7570   45.3030 C   0  0  0  0  0  0  0  0  0  0  0  0
   56.8500   31.5990   44.4880 C   0  0  0  0  0  0  0  0  0  0  0  0
   57.0540   30.3370   45.1870 N   0  0  0  0  0  0  0  0  0  0  0  0
   56.1970   29.2050   45.0080 C   0  0  0  0  0  0  0  0  0  0  0  0
   55.0670   29.3410   44.4660 O   0  0  0  0  0  0  0  0  0  0  0  0
   56.6690   27.8400   45.4240 C   0  0  1  0  0  0  0  0  0  0  0  0
   57.7660   27.9430   46.4960 C   0  0  0  0  0  0  0  0  0  0  0  0
   59.0770   28.3900   45.9150 C   0  0  0  0  0  0  0  0  0  0  0  0
   59.9670   29.2780   46.4860 C   0  0  0  0  0  0  0  0  0  0  0  0
   61.0470   29.3390   45.6280 C   0  0  0  0  0  0  0  0  0  0  0  0
   60.8510   28.5220   44.5760 N   0  0  0  0  0  0  0  0  0  0  0  0
   59.6550   27.9320   44.7490 C   0  0  0  0  0  0  0  0  0  0  0  0
   55.5490   27.0750   45.9640 N   0  0  0  0  0  0  0  0  0  0  0  0
   55.3810   25.6660   45.7700 C   0  0  0  0  0  0  0  0  0  0  0  0
   54.2370   25.1460   45.8490 O   0  0  0  0  0  0  0  0  0  0  0  0
   56.5500   24.8310   45.4700 C   0  0  0  0  0  0  0  0  0  0  0  0
   57.7070   24.7370   46.2340 C   0  0  0  0  0  0  0  0  0  0  0  0
   58.6540   23.8570   45.6940 C   0  0  0  0  0  0  0  0  0  0  0  0
   58.2460   23.2580   44.5100 C   0  0  0  0  0  0  0  0  0  0  0  0
   56.7080   23.8240   44.1320 S   0  0  0  0  0  0  0  0  0  0  0  0
   60.3440   33.2760   46.3940 C   0  0  0  0  0  0  0  0  0  0  0  0
   61.4590   33.8360   47.0240 C   0  0  0  0  0  0  0  0  0  0  0  0
   62.5551   34.5877   51.1648 H   0  0  0  0  0  0  0  0  0  0  0  0
   62.8887   33.0012   50.3913 H   0  0  0  0  0  0  0  0  0  0  0  0
   64.1474   34.2828   50.3913 H   0  0  0  0  0  0  0  0  0  0  0  0
   60.3124   33.8612   50.2438 H   0  0  0  0  0  0  0  0  0  0  0  0
   58.3263   32.8658   49.1229 H   0  0  0  0  0  0  0  0  0  0  0  0
   57.7280   31.3750   46.9250 H   0  0  0  0  0  0  0  0  0  0  0  0
   56.6193   33.4511   45.5662 H   0  0  0  0  0  0  0  0  0  0  0  0
   58.1943   33.2601   44.6912 H   0  0  0  0  0  0  0  0  0  0  0  0
   55.7721   31.7629   44.3419 H   0  0  0  0  0  0  0  0  0  0  0  0
   57.3597   31.5554   43.5142 H   0  0  0  0  0  0  0  0  0  0  0  0
   57.0810   27.3344   44.5382 H   0  0  0  0  0  0  0  0  0  0  0  0
   57.4497   28.6686   47.2598 H   0  0  0  0  0  0  0  0  0  0  0  0
   57.9100   26.9440   46.9334 H   0  0  0  0  0  0  0  0  0  0  0  0
   59.8412   29.8253   47.4318 H   0  0  0  0  0  0  0  0  0  0  0  0
   61.9386   29.9646   45.7817 H   0  0  0  0  0  0  0  0  0  0  0  0
   61.5090   28.3630   43.7810 H   0  0  0  0  0  0  0  0  0  0  0  0
   59.2061   27.1965   44.0652 H   0  0  0  0  0  0  0  0  0  0  0  0
   57.8634   25.2967   47.1679 H   0  0  0  0  0  0  0  0  0  0  0  0
   59.6288   23.6594   46.1638 H   0  0  0  0  0  0  0  0  0  0  0  0
   58.8293   22.5361   43.9196 H   0  0  0  0  0  0  0  0  0  0  0  0
   60.3489   33.1285   45.3040 H   0  0  0  0  0  0  0  0  0  0  0  0
   62.3400   34.1178   46.4286 H   0  0  0  0  0  0  0  0  0  0  0  0
  1  2  1  0
  2  3  1  0
  3  4  2  0
  4  5  1  0
  5  6  2  0
  6  7  1  0
  7  8  1  0
  8  9  1  0
  9 10  1  0
 10 11  1  0
 11 12  2  0
 11 13  1  0
 13 14  1  0
 14 15  1  0
 15 16  1  0
 16 17  2  0
 17 18  1  0
 18 19  1  0
 13 20  1  0
 20 21  1  0
 21 22  2  0
 21 23  1  0
 23 24  2  0
 24 25  1  0
 25 26  2  0
 26 27  1  0
  6 28  1  0
 28 29  2  0
 29  3  1  0
 19 15  2  0
 27 23  1  0
  1 30  1  0
  1 31  1  0
  1 32  1  0
  4 33  1  0
  5 34  1  0
  7 35  1  0
  8 36  1  0
  8 37  1  0
  9 38  1  0
  9 39  1  0
 13 40  1  6
 14 41  1  0
 14 42  1  0
 16 43  1  0
 17 44  1  0
 18 45  1  0
 19 46  1  0
 24 47  1  0
 25 48  1  0
 26 49  1  0
 28 50  1  0
 29 51  1  0
M  CHG  2  10  -1  20  -1
M  END
>  <UniqueID>  (69) 
59

>  <SMILES>  (69) 
COc1ccc(NCC[N-]C(=O)[C@@H](Cc2cc[nH]c2)[N-]C(=O)c2cccs2)cc1

>  <Energy>  (69) 
89.67937307305814

>  <Genealogy>  (69) 
COc1ccc(NCC[N-]C(=O)C(Cc2cc[nH]c2)[N-]C(=O)c2cccs2)cc1 (protonated)
COc1ccc(NCC[N-]C(=O)[C@@H](Cc2cc[nH]c2)[N-]C(=O)c2cccs2)cc1 (chirality)
COc1ccc(NCC[N-]C(=O)[C@@H](Cc2cc[nH]c2)[N-]C(=O)c2cccs2)cc1 (3D coordinates assigned)
COc1ccc(NCC[N-]C(=O)[C@@H](Cc2cc[nH]c2)[N-]C(=O)c2cccs2)cc1 (optimized conformer: 89.67937307305814 kcal/mol)

>  <smiles>  (69) 
COc1ccc(NCCNC(=O)C(Cc2cc[nH]c2)NC(=O)c2cccs2)cc1

>  <score_type>  (69) 
oracle

>  <origin>  (69) 
adg

>  <m_score__min__energy>  (69) 
-12.130000000000001

>  <m_primary>  (69) 
energy

$$$$
69:0
     RDKit          3D

 50 53  0  0  0  0  0  0  0  0999 V2000
   62.9730   32.4600   47.1680 C   0  0  0  0  0  0  0  0  0  0  0  0
   62.1670   31.3620   47.7950 C   0  0  0  0  0  0  0  0  0  0  0  0
   62.0320   31.2970   49.1880 C   0  0  0  0  0  0  0  0  0  0  0  0
   61.2460   30.2970   49.7560 C   0  0  0  0  0  0  0  0  0  0  0  0
   60.5930   29.3760   48.9370 C   0  0  0  0  0  0  0  0  0  0  0  0
   60.7370   29.4690   47.5450 C   0  0  0  0  0  0  0  0  0  0  0  0
   60.0060   28.5030   46.6500 C   0  0  0  0  0  0  0  0  0  0  0  0
   59.8150   29.0740   45.2970 N   0  0  0  0  0  0  0  0  0  0  0  0
   59.0130   28.2060   44.4060 C   0  0  0  0  0  0  0  0  0  0  0  0
   57.5290   28.1430   44.8160 C   0  0  0  0  0  0  0  0  0  0  0  0
   57.0100   29.4740   45.3840 C   0  0  0  0  0  0  0  0  0  0  0  0
   57.8520   30.6600   44.8960 C   0  0  1  0  0  0  0  0  0  0  0  0
   57.3150   31.9230   45.4200 N   0  0  0  0  0  0  0  0  0  0  0  0
   58.1520   33.0510   45.7390 C   0  0  0  0  0  0  0  0  0  0  0  0
   58.4730   33.9900   44.7410 C   0  0  0  0  0  0  0  0  0  0  0  0
   59.2470   35.1120   45.0370 C   0  0  0  0  0  0  0  0  0  0  0  0
   59.7120   35.3230   46.3340 C   0  0  0  0  0  0  0  0  0  0  0  0
   59.4150   34.4010   47.3460 C   0  0  0  0  0  0  0  0  0  0  0  0
   59.8930   34.6000   48.6490 C   0  0  0  0  0  0  0  0  0  0  0  0
   59.6220   33.6910   49.6220 N   0  0  0  0  0  0  0  0  0  0  0  0
   58.8940   32.5730   49.3720 C   0  0  0  0  0  0  0  0  0  0  0  0
   58.3930   32.3290   48.0920 C   0  0  0  0  0  0  0  0  0  0  0  0
   58.6350   33.2520   47.0570 C   0  0  0  0  0  0  0  0  0  0  0  0
   59.3300   30.4810   45.3300 C   0  0  0  0  0  0  0  0  0  0  0  0
   61.5070   30.4600   47.0080 N   0  0  0  0  0  0  0  0  0  0  0  0
   63.4267   33.0781   47.9567 H   0  0  0  0  0  0  0  0  0  0  0  0
   63.7658   32.0222   46.5436 H   0  0  0  0  0  0  0  0  0  0  0  0
   62.3178   33.0852   46.5436 H   0  0  0  0  0  0  0  0  0  0  0  0
   62.5432   32.0306   49.8287 H   0  0  0  0  0  0  0  0  0  0  0  0
   61.1404   30.2338   50.8491 H   0  0  0  0  0  0  0  0  0  0  0  0
   59.9707   28.5839   49.3789 H   0  0  0  0  0  0  0  0  0  0  0  0
   60.5903   27.5745   46.5695 H   0  0  0  0  0  0  0  0  0  0  0  0
   59.0174   28.2993   47.0873 H   0  0  0  0  0  0  0  0  0  0  0  0
   59.0785   28.5982   43.3804 H   0  0  0  0  0  0  0  0  0  0  0  0
   59.4215   27.1872   44.4786 H   0  0  0  0  0  0  0  0  0  0  0  0
   56.9307   27.8817   43.9307 H   0  0  0  0  0  0  0  0  0  0  0  0
   57.4367   27.3864   45.6091 H   0  0  0  0  0  0  0  0  0  0  0  0
   55.9683   29.6184   45.0613 H   0  0  0  0  0  0  0  0  0  0  0  0
   57.0777   29.4309   46.4811 H   0  0  0  0  0  0  0  0  0  0  0  0
   57.8075   30.6931   43.7974 H   0  0  0  0  0  0  0  0  0  0  0  0
   56.2900   31.9980   45.6050 H   0  0  0  0  0  0  0  0  0  0  0  0
   58.1088   33.8371   43.7144 H   0  0  0  0  0  0  0  0  0  0  0  0
   59.4915   35.8335   44.2434 H   0  0  0  0  0  0  0  0  0  0  0  0
   60.3133   36.2151   46.5633 H   0  0  0  0  0  0  0  0  0  0  0  0
   60.4889   35.4942   48.8842 H   0  0  0  0  0  0  0  0  0  0  0  0
   58.6977   31.8554   50.1823 H   0  0  0  0  0  0  0  0  0  0  0  0
   57.8104   31.4175   47.8926 H   0  0  0  0  0  0  0  0  0  0  0  0
   59.9612   31.0783   44.6556 H   0  0  0  0  0  0  0  0  0  0  0  0
   59.3912   30.8094   46.3780 H   0  0  0  0  0  0  0  0  0  0  0  0
   61.5900   30.5380   45.9680 H   0  0  0  0  0  0  0  0  0  0  0  0
  1  2  1  0
  2  3  2  0
  3  4  1  0
  4  5  2  0
  5  6  1  0
  6  7  1  0
  7  8  1  0
  8  9  1  0
  9 10  1  0
 10 11  1  0
 11 12  1  0
 12 13  1  0
 13 14  1  0
 14 15  2  0
 15 16  1  0
 16 17  2  0
 17 18  1  0
 18 19  2  0
 19 20  1  0
 20 21  2  0
 21 22  1  0
 22 23  2  0
 12 24  1  0
  6 25  2  0
 25  2  1  0
 24  8  1  0
 23 14  1  0
 23 18  1  0
  1 26  1  0
  1 27  1  0
  1 28  1  0
  3 29  1  0
  4 30  1  0
  5 31  1  0
  7 32  1  0
  7 33  1  0
  9 34  1  0
  9 35  1  0
 10 36  1  0
 10 37  1  0
 11 38  1  0
 11 39  1  0
 12 40  1  6
 13 41  1  0
 15 42  1  0
 16 43  1  0
 17 44  1  0
 19 45  1  0
 21 46  1  0
 22 47  1  0
 24 48  1  0
 24 49  1  0
 25 50  1  0
M  CHG  1  25   1
M  END
>  <UniqueID>  (70) 
60

>  <SMILES>  (70) 
Cc1cccc(CN2CCC[C@@H](Nc3cccc4cnccc34)C2)[nH+]1

>  <Energy>  (70) 
69.28294678456852

>  <Genealogy>  (70) 
Cc1cccc(CN2CCCC(Nc3cccc4cnccc34)C2)[nH+]1 (protonated)
Cc1cccc(CN2CCC[C@@H](Nc3cccc4cnccc34)C2)[nH+]1 (chirality)
Cc1cccc(CN2CCC[C@@H](Nc3cccc4cnccc34)C2)[nH+]1 (3D coordinates assigned)
Cc1cccc(CN2CCC[C@@H](Nc3cccc4cnccc34)C2)[nH+]1 (nonaromatic ring conformer: 69.28294678456852 kcal/mol)

>  <smiles>  (70) 
Cc1cccc(CN2CCCC(Nc3cccc4cnccc34)C2)n1

>  <score_type>  (70) 
oracle

>  <origin>  (70) 
adg

>  <m_score__min__energy>  (70) 
-6.5499999999999998

>  <m_primary>  (70) 
energy

$$$$
70:0
     RDKit          3D

 41 43  0  0  0  0  0  0  0  0999 V2000
   65.0360   33.0850   49.7370 C   0  0  0  0  0  0  0  0  0  0  0  0
   63.5840   32.8510   49.4400 C   0  0  0  0  0  0  0  0  0  0  0  0
   62.7050   33.9420   49.3420 C   0  0  0  0  0  0  0  0  0  0  0  0
   61.3450   33.7300   49.0970 C   0  0  0  0  0  0  0  0  0  0  0  0
   60.8490   32.4300   48.9530 C   0  0  0  0  0  0  0  0  0  0  0  0
   59.1120   32.1950   48.6370 S   0  0  0  0  0  0  0  0  0  0  0  0
   58.9340   30.6770   48.2390 N   0  0  0  0  0  0  0  0  0  0  0  0
   59.5720   30.0650   46.7680 S   0  0  0  0  0  0  0  0  0  0  0  0
   60.7710   30.8800   46.3720 O   0  0  0  0  0  0  0  0  0  0  0  0
   59.9980   28.6370   46.9650 O   0  0  0  0  0  0  0  0  0  0  0  0
   58.3490   30.1230   45.4990 C   0  0  0  0  0  0  0  0  0  0  0  0
   58.4560   31.0420   44.4430 C   0  0  0  0  0  0  0  0  0  0  0  0
   57.4470   31.1240   43.4780 C   0  0  0  0  0  0  0  0  0  0  0  0
   56.3290   30.2910   43.5620 C   0  0  0  0  0  0  0  0  0  0  0  0
   56.2210   29.3710   44.6090 C   0  0  0  0  0  0  0  0  0  0  0  0
   57.2270   29.2870   45.5760 C   0  0  0  0  0  0  0  0  0  0  0  0
   58.7190   33.1400   47.1790 C   0  0  0  0  0  0  0  0  0  0  0  0
   57.3870   33.2160   46.7510 C   0  0  0  0  0  0  0  0  0  0  0  0
   57.0590   33.9340   45.5960 C   0  0  0  0  0  0  0  0  0  0  0  0
   58.0620   34.5800   44.8660 C   0  0  0  0  0  0  0  0  0  0  0  0
   59.3930   34.5070   45.2890 C   0  0  0  0  0  0  0  0  0  0  0  0
   59.7230   33.7880   46.4430 C   0  0  0  0  0  0  0  0  0  0  0  0
   61.7200   31.3370   49.0650 C   0  0  0  0  0  0  0  0  0  0  0  0
   63.0820   31.5470   49.3120 C   0  0  0  0  0  0  0  0  0  0  0  0
   65.1882   33.1095   50.8261 H   0  0  0  0  0  0  0  0  0  0  0  0
   65.6351   32.2718   49.3013 H   0  0  0  0  0  0  0  0  0  0  0  0
   65.3493   34.0452   49.3013 H   0  0  0  0  0  0  0  0  0  0  0  0
   63.0879   34.9666   49.4584 H   0  0  0  0  0  0  0  0  0  0  0  0
   60.6623   34.5888   49.0172 H   0  0  0  0  0  0  0  0  0  0  0  0
   59.3355   31.6991   44.3745 H   0  0  0  0  0  0  0  0  0  0  0  0
   57.5340   31.8453   42.6520 H   0  0  0  0  0  0  0  0  0  0  0  0
   55.5340   30.3588   42.8048 H   0  0  0  0  0  0  0  0  0  0  0  0
   55.3426   28.7118   44.6721 H   0  0  0  0  0  0  0  0  0  0  0  0
   57.1377   28.5630   46.3993 H   0  0  0  0  0  0  0  0  0  0  0  0
   56.5969   32.7096   47.3248 H   0  0  0  0  0  0  0  0  0  0  0  0
   56.0124   33.9905   45.2620 H   0  0  0  0  0  0  0  0  0  0  0  0
   57.8038   35.1458   43.9587 H   0  0  0  0  0  0  0  0  0  0  0  0
   60.1811   35.0153   44.7140 H   0  0  0  0  0  0  0  0  0  0  0  0
   60.7705   33.7306   46.7738 H   0  0  0  0  0  0  0  0  0  0  0  0
   61.3327   30.3130   48.9586 H   0  0  0  0  0  0  0  0  0  0  0  0
   63.7610   30.6867   49.4061 H   0  0  0  0  0  0  0  0  0  0  0  0
  1  2  1  0
  2  3  2  0
  3  4  1  0
  4  5  2  0
  6  5  1  6
  6  7  2  3
  7  8  1  0
  8  9  2  0
  8 10  2  0
  8 11  1  0
 11 12  2  0
 12 13  1  0
 13 14  2  0
 14 15  1  0
 15 16  2  0
  6 17  1  0
 17 18  2  0
 18 19  1  0
 19 20  2  0
 20 21  1  0
 21 22  2  0
  5 23  1  0
 23 24  2  0
 24  2  1  0
 16 11  1  0
 22 17  1  0
  1 25  1  0
  1 26  1  0
  1 27  1  0
  3 28  1  0
  4 29  1  0
 12 30  1  0
 13 31  1  0
 14 32  1  0
 15 33  1  0
 16 34  1  0
 18 35  1  0
 19 36  1  0
 20 37  1  0
 21 38  1  0
 22 39  1  0
 23 40  1  0
 24 41  1  0
M  END
>  <UniqueID>  (71) 
61

>  <SMILES>  (71) 
Cc1ccc([S@](=NS(=O)(=O)c2ccccc2)c2ccccc2)cc1

>  <Energy>  (71) 
42.394564174816246

>  <Genealogy>  (71) 
Cc1ccc([S@](=NS(=O)(=O)c2ccccc2)c2ccccc2)cc1 (chirality)
Cc1ccc([S@](=NS(=O)(=O)c2ccccc2)c2ccccc2)cc1 (3D coordinates assigned)
Cc1ccc([S@](=NS(=O)(=O)c2ccccc2)c2ccccc2)cc1 (optimized conformer: 42.394564174816246 kcal/mol)

>  <smiles>  (71) 
Cc1ccc(S(=NS(=O)(=O)c2ccccc2)c2ccccc2)cc1

>  <score_type>  (71) 
oracle

>  <origin>  (71) 
adg

>  <m_score__min__energy>  (71) 
-8.1899999999999995

>  <m_primary>  (71) 
energy

$$$$
71:0
     RDKit          3D

 49 51  0  0  0  0  0  0  0  0999 V2000
   56.2000   26.3500   45.9940 C   0  0  0  0  0  0  0  0  0  0  0  0
   57.2310   25.9110   45.2660 C   0  0  0  0  0  0  0  0  0  0  0  0
   58.3350   26.8290   44.8220 C   0  0  0  0  0  0  0  0  0  0  0  0
   58.9560   27.5370   46.0040 C   0  0  0  0  0  0  0  0  0  0  0  0
   59.1940   26.8110   47.1820 C   0  0  0  0  0  0  0  0  0  0  0  0
   59.7590   27.4300   48.2940 C   0  0  0  0  0  0  0  0  0  0  0  0
   60.0720   28.7870   48.2570 C   0  0  0  0  0  0  0  0  0  0  0  0
   59.8460   29.5430   47.0940 C   0  0  0  0  0  0  0  0  0  0  0  0
   60.0620   31.0080   47.1360 C   0  0  0  0  0  0  0  0  0  0  0  0
   60.3680   31.6000   46.0650 O   0  0  0  0  0  0  0  0  0  0  0  0
   59.8950   31.8060   48.3810 C   0  0  0  0  0  0  0  0  0  0  0  0
   58.8450   31.5090   49.2690 C   0  0  0  0  0  0  0  0  0  0  0  0
   58.6670   32.2600   50.4350 C   0  0  0  0  0  0  0  0  0  0  0  0
   59.5280   33.3210   50.7240 C   0  0  0  0  0  0  0  0  0  0  0  0
   60.5710   33.6310   49.8490 C   0  0  0  0  0  0  0  0  0  0  0  0
   60.7550   32.8820   48.6820 C   0  0  0  0  0  0  0  0  0  0  0  0
   59.2990   28.9110   45.9490 C   0  0  0  0  0  0  0  0  0  0  0  0
   59.0830   29.6510   44.7390 N   0  0  0  0  0  0  0  0  0  0  0  0
   57.4930   30.0120   44.1360 S   0  0  0  0  0  0  0  0  0  0  0  0
   56.4870   29.8190   45.2360 O   0  0  0  0  0  0  0  0  0  0  0  0
   57.1730   29.0560   43.0210 O   0  0  0  0  0  0  0  0  0  0  0  0
   57.3480   31.6860   43.5110 C   0  0  0  0  0  0  0  0  0  0  0  0
   57.8430   32.7130   44.4960 C   0  0  0  0  0  0  0  0  0  0  0  0
   57.3290   32.7540   45.8040 C   0  0  0  0  0  0  0  0  0  0  0  0
   57.7930   33.7100   46.7130 C   0  0  0  0  0  0  0  0  0  0  0  0
   58.7800   34.6210   46.3300 C   0  0  0  0  0  0  0  0  0  0  0  0
   59.3140   34.5700   45.0420 C   0  0  0  0  0  0  0  0  0  0  0  0
   58.8560   33.6150   44.1290 C   0  0  0  0  0  0  0  0  0  0  0  0
   55.4080   25.6519   46.3029 H   0  0  0  0  0  0  0  0  0  0  0  0
   56.1433   27.4095   46.2843 H   0  0  0  0  0  0  0  0  0  0  0  0
   57.2728   24.8486   44.9840 H   0  0  0  0  0  0  0  0  0  0  0  0
   59.1087   26.2396   44.3081 H   0  0  0  0  0  0  0  0  0  0  0  0
   57.9124   27.5839   44.1426 H   0  0  0  0  0  0  0  0  0  0  0  0
   58.9318   25.7437   47.2268 H   0  0  0  0  0  0  0  0  0  0  0  0
   59.9588   26.8458   49.2044 H   0  0  0  0  0  0  0  0  0  0  0  0
   60.5003   29.2715   49.1468 H   0  0  0  0  0  0  0  0  0  0  0  0
   58.1586   30.6794   49.0443 H   0  0  0  0  0  0  0  0  0  0  0  0
   57.8471   32.0146   51.1261 H   0  0  0  0  0  0  0  0  0  0  0  0
   59.3845   33.9121   51.6405 H   0  0  0  0  0  0  0  0  0  0  0  0
   61.2495   34.4660   50.0779 H   0  0  0  0  0  0  0  0  0  0  0  0
   61.5760   33.1341   47.9947 H   0  0  0  0  0  0  0  0  0  0  0  0
   59.8740   30.1980   44.3350 H   0  0  0  0  0  0  0  0  0  0  0  0
   57.9383   31.7701   42.5867 H   0  0  0  0  0  0  0  0  0  0  0  0
   56.2815   31.8840   43.3283 H   0  0  0  0  0  0  0  0  0  0  0  0
   56.5593   32.0316   46.1134 H   0  0  0  0  0  0  0  0  0  0  0  0
   57.3798   33.7446   47.7318 H   0  0  0  0  0  0  0  0  0  0  0  0
   59.1362   35.3785   47.0436 H   0  0  0  0  0  0  0  0  0  0  0  0
   60.0971   35.2827   44.7441 H   0  0  0  0  0  0  0  0  0  0  0  0
   59.2905   33.5697   43.1195 H   0  0  0  0  0  0  0  0  0  0  0  0
  1  2  2  0
  2  3  1  0
  3  4  1  0
  4  5  2  0
  5  6  1  0
  6  7  2  0
  7  8  1  0
  8  9  1  0
  9 10  2  0
  9 11  1  0
 11 12  2  0
 12 13  1  0
 13 14  2  0
 14 15  1  0
 15 16  2  0
  8 17  2  0
 17 18  1  0
 18 19  1  0
 19 20  2  0
 19 21  2  0
 19 22  1  0
 22 23  1  0
 23 24  2  0
 24 25  1  0
 25 26  2  0
 26 27  1  0
 27 28  2  0
 17  4  1  0
 28 23  1  0
 16 11  1  0
  1 29  1  0
  1 30  1  0
  2 31  1  0
  3 32  1  0
  3 33  1  0
  5 34  1  0
  6 35  1  0
  7 36  1  0
 12 37  1  0
 13 38  1  0
 14 39  1  0
 15 40  1  0
 16 41  1  0
 18 42  1  0
 22 43  1  0
 22 44  1  0
 24 45  1  0
 25 46  1  0
 26 47  1  0
 27 48  1  0
 28 49  1  0
M  END
>  <UniqueID>  (72) 
62

>  <SMILES>  (72) 
C=CCc1cccc(C(=O)c2ccccc2)c1NS(=O)(=O)Cc1ccccc1

>  <Energy>  (72) 
54.202664840303285

>  <Genealogy>  (72) 
C=CCc1cccc(C(=O)c2ccccc2)c1NS(=O)(=O)Cc1ccccc1 (3D coordinates assigned)
C=CCc1cccc(C(=O)c2ccccc2)c1NS(=O)(=O)Cc1ccccc1 (optimized conformer: 54.202664840303285 kcal/mol)

>  <smiles>  (72) 
C=CCc1cccc(C(=O)c2ccccc2)c1NS(=O)(=O)Cc1ccccc1

>  <score_type>  (72) 
oracle

>  <origin>  (72) 
adg

>  <m_score__min__energy>  (72) 
-8.9900000000000002

>  <m_primary>  (72) 
energy

$$$$
72:0
     RDKit          3D

 36 37  0  0  0  0  0  0  0  0999 V2000
   55.1560   29.5580   45.0690 N   0  0  0  0  0  0  0  0  0  0  0  0
   56.1010   29.8150   44.0330 C   0  0  0  0  0  0  0  0  0  0  0  0
   55.9530   29.2740   42.9040 O   0  0  0  0  0  0  0  0  0  0  0  0
   57.2490   30.7540   44.2800 C   0  0  2  0  0  0  0  0  0  0  0  0
   58.5760   29.9900   44.1420 C   0  0  0  0  0  0  0  0  0  0  0  0
   58.8700   29.1410   45.3600 C   0  0  0  0  0  0  0  0  0  0  0  0
   59.7700   29.6430   46.3180 C   0  0  0  0  0  0  0  0  0  0  0  0
   60.0960   28.8960   47.4510 C   0  0  0  0  0  0  0  0  0  0  0  0
   59.5290   27.6380   47.6460 C   0  0  0  0  0  0  0  0  0  0  0  0
   58.6240   27.1290   46.7150 C   0  0  0  0  0  0  0  0  0  0  0  0
   58.2730   27.8700   45.5750 C   0  0  0  0  0  0  0  0  0  0  0  0
   57.3010   27.3200   44.6730 N   0  0  0  0  0  0  0  0  0  0  0  0
   57.1350   31.3540   45.6090 N   0  0  0  0  0  0  0  0  0  0  0  0
   57.3720   32.7430   45.8710 C   0  0  0  0  0  0  0  0  0  0  0  0
   56.7120   33.6240   45.2570 O   0  0  0  0  0  0  0  0  0  0  0  0
   58.3470   33.1510   46.9030 C   0  0  0  0  0  0  0  0  0  0  0  0
   58.3300   32.5000   48.1490 C   0  0  0  0  0  0  0  0  0  0  0  0
   59.2520   32.8420   49.1420 C   0  0  0  0  0  0  0  0  0  0  0  0
   60.1950   33.8420   48.9060 C   0  0  0  0  0  0  0  0  0  0  0  0
   60.2110   34.5110   47.6810 C   0  0  0  0  0  0  0  0  0  0  0  0
   59.2920   34.1790   46.6790 C   0  0  0  0  0  0  0  0  0  0  0  0
   59.3000   35.1360   45.2030 Cl  0  0  0  0  0  0  0  0  0  0  0  0
   55.1850   28.6670   45.6110 H   0  0  0  0  0  0  0  0  0  0  0  0
   57.2244   31.5632   43.5353 H   0  0  0  0  0  0  0  0  0  0  0  0
   58.5196   29.3367   43.2588 H   0  0  0  0  0  0  0  0  0  0  0  0
   59.3846   30.7287   44.0392 H   0  0  0  0  0  0  0  0  0  0  0  0
   60.2217   30.6353   46.1724 H   0  0  0  0  0  0  0  0  0  0  0  0
   60.8017   29.3009   48.1913 H   0  0  0  0  0  0  0  0  0  0  0  0
   59.7953   27.0465   48.5343 H   0  0  0  0  0  0  0  0  0  0  0  0
   58.1800   26.1355   46.8755 H   0  0  0  0  0  0  0  0  0  0  0  0
   56.4060   27.8280   44.4920 H   0  0  0  0  0  0  0  0  0  0  0  0
   57.4800   26.4690   44.0990 H   0  0  0  0  0  0  0  0  0  0  0  0
   57.5847   31.7148   48.3439 H   0  0  0  0  0  0  0  0  0  0  0  0
   59.2339   32.3217   50.1110 H   0  0  0  0  0  0  0  0  0  0  0  0
   60.9261   34.1035   49.6851 H   0  0  0  0  0  0  0  0  0  0  0  0
   60.9512   35.3048   47.5019 H   0  0  0  0  0  0  0  0  0  0  0  0
  1  2  1  0
  2  3  2  0
  2  4  1  0
  4  5  1  0
  5  6  1  0
  6  7  2  0
  7  8  1  0
  8  9  2  0
  9 10  1  0
 10 11  2  0
 11 12  1  0
  4 13  1  0
 13 14  1  0
 14 15  2  0
 14 16  1  0
 16 17  2  0
 17 18  1  0
 18 19  2  0
 19 20  1  0
 20 21  2  0
 21 22  1  0
 11  6  1  0
 21 16  1  0
  1 23  1  0
  4 24  1  6
  5 25  1  0
  5 26  1  0
  7 27  1  0
  8 28  1  0
  9 29  1  0
 10 30  1  0
 12 31  1  0
 12 32  1  0
 17 33  1  0
 18 34  1  0
 19 35  1  0
 20 36  1  0
M  CHG  2   1  -1  13  -1
M  END
>  <UniqueID>  (73) 
63

>  <SMILES>  (73) 
[NH-]C(=O)[C@H](Cc1ccccc1N)[N-]C(=O)c1ccccc1Cl

>  <Energy>  (73) 
37.71155700567691

>  <Genealogy>  (73) 
[NH-]C(=O)C(Cc1ccccc1N)[N-]C(=O)c1ccccc1Cl (protonated)
[NH-]C(=O)[C@H](Cc1ccccc1N)[N-]C(=O)c1ccccc1Cl (chirality)
[NH-]C(=O)[C@H](Cc1ccccc1N)[N-]C(=O)c1ccccc1Cl (3D coordinates assigned)
[NH-]C(=O)[C@H](Cc1ccccc1N)[N-]C(=O)c1ccccc1Cl (optimized conformer: 37.71155700567691 kcal/mol)

>  <smiles>  (73) 
NC(=O)C(Cc1ccccc1N)NC(=O)c1ccccc1Cl

>  <score_type>  (73) 
oracle

>  <origin>  (73) 
adg

>  <m_score__min__energy>  (73) 
-11.880000000000001

>  <m_primary>  (73) 
energy

$$$$
73:0
     RDKit          3D

 39 41  0  0  0  0  0  0  0  0999 V2000
   58.2426   25.0239   44.8628 H   0  0  0  0  0  0  0  0  0  0  0  0
   57.9360   26.0730   44.7390 C   0  0  0  0  0  0  0  0  0  0  0  0
   57.3050   26.7460   45.7900 C   0  0  0  0  0  0  0  0  0  0  0  0
   57.1176   26.2264   46.7412 H   0  0  0  0  0  0  0  0  0  0  0  0
   56.9120   28.0790   45.6330 C   0  0  0  0  0  0  0  0  0  0  0  0
   56.4178   28.6070   46.4619 H   0  0  0  0  0  0  0  0  0  0  0  0
   57.1470   28.7440   44.4200 C   0  0  0  0  0  0  0  0  0  0  0  0
   56.6480   30.4200   44.2120 S   0  0  0  0  0  0  0  0  0  0  0  0
   57.2450   31.0020   42.9610 O   0  0  0  0  0  0  0  0  0  0  0  0
   55.1500   30.4690   44.1050 O   0  0  0  0  0  0  0  0  0  0  0  0
   57.1480   31.3690   45.5780 N   0  0  0  0  0  0  0  0  0  0  0  0
   58.0560   32.3070   45.6000 C   0  0  0  0  0  0  0  0  0  0  0  0
   58.1290   33.2820   44.5810 C   0  0  0  0  0  0  0  0  0  0  0  0
   57.4140   33.2595   43.7453 H   0  0  0  0  0  0  0  0  0  0  0  0
   59.1060   34.2710   44.6350 C   0  0  0  0  0  0  0  0  0  0  0  0
   59.1675   35.0287   43.8399 H   0  0  0  0  0  0  0  0  0  0  0  0
   60.0040   34.3000   45.6950 C   0  0  0  0  0  0  0  0  0  0  0  0
   60.7769   35.0810   45.7468 H   0  0  0  0  0  0  0  0  0  0  0  0
   59.9160   33.3300   46.6920 C   0  0  0  0  0  0  0  0  0  0  0  0
   60.6221   33.3536   47.5351 H   0  0  0  0  0  0  0  0  0  0  0  0
   58.9630   32.3480   46.6370 N   0  0  0  0  0  0  0  0  0  0  0  0
   58.9060   31.3650   47.7360 C   0  0  0  0  0  0  0  0  0  0  0  0
   59.4905   31.7404   48.5889 H   0  0  0  0  0  0  0  0  0  0  0  0
   57.8564   31.2205   48.0318 H   0  0  0  0  0  0  0  0  0  0  0  0
   59.4740   30.0440   47.2880 C   0  0  0  0  0  0  0  0  0  0  0  0
   59.3980   28.9220   48.1310 C   0  0  0  0  0  0  0  0  0  0  0  0
   58.9434   29.0158   49.1283 H   0  0  0  0  0  0  0  0  0  0  0  0
   59.8980   27.6870   47.7070 C   0  0  0  0  0  0  0  0  0  0  0  0
   59.8392   26.8131   48.3725 H   0  0  0  0  0  0  0  0  0  0  0  0
   60.4720   27.5610   46.4400 C   0  0  0  0  0  0  0  0  0  0  0  0
   60.9540   26.3620   46.0290 F   0  0  0  0  0  0  0  0  0  0  0  0
   60.5470   28.6710   45.5930 C   0  0  0  0  0  0  0  0  0  0  0  0
   60.9986   28.5710   44.5950 H   0  0  0  0  0  0  0  0  0  0  0  0
   60.0490   29.9070   46.0130 C   0  0  0  0  0  0  0  0  0  0  0  0
   60.1073   30.7771   45.3425 H   0  0  0  0  0  0  0  0  0  0  0  0
   57.7850   28.0660   43.3710 C   0  0  0  0  0  0  0  0  0  0  0  0
   57.9774   28.5839   42.4198 H   0  0  0  0  0  0  0  0  0  0  0  0
   58.1770   26.7340   43.5310 C   0  0  0  0  0  0  0  0  0  0  0  0
   58.6757   26.2052   42.7054 H   0  0  0  0  0  0  0  0  0  0  0  0
  1  2  1  0
  2  3  2  0
  3  4  1  0
  3  5  1  0
  5  6  1  0
  5  7  2  0
  7  8  1  0
  8  9  2  0
  8 10  2  0
  8 11  1  0
 11 12  2  0
 12 13  1  0
 13 14  1  0
 13 15  2  0
 15 16  1  0
 15 17  1  0
 17 18  1  0
 17 19  2  0
 19 20  1  0
 19 21  1  0
 21 22  1  0
 22 23  1  0
 22 24  1  0
 22 25  1  0
 25 26  2  0
 26 27  1  0
 26 28  1  0
 28 29  1  0
 28 30  2  0
 30 31  1  0
 30 32  1  0
 32 33  1  0
 32 34  2  0
 34 35  1  0
  7 36  1  0
 36 37  1  0
 36 38  2  0
 38 39  1  0
 38  2  1  0
 21 12  1  0
 34 25  1  0
M  END
>  <UniqueID>  (74) 
64

>  <SMILES>  (74) 
O=S(=O)(/N=c1\ccccn1Cc1ccc(F)cc1)c1ccccc1

>  <Energy>  (74) 
48.794447926203034

>  <Genealogy>  (74) 
O=S(=O)(/N=c1\ccccn1Cc1ccc(F)cc1)c1ccccc1 (cis-trans isomerization)
O=S(=O)(/N=c1\ccccn1Cc1ccc(F)cc1)c1ccccc1 (3D coordinates assigned)
O=S(=O)(/N=c1\ccccn1Cc1ccc(F)cc1)c1ccccc1 (optimized conformer: 48.794447926203034 kcal/mol)

>  <smiles>  (74) 
O=S(=O)(N=c1ccccn1Cc1ccc(F)cc1)c1ccccc1

>  <score_type>  (74) 
oracle

>  <origin>  (74) 
adg

>  <m_score__min__energy>  (74) 
-7.8200000000000003

>  <m_primary>  (74) 
energy

$$$$
74:0
     RDKit          3D

 47 49  0  0  0  0  0  0  0  0999 V2000
   55.1060   25.2160   45.6480 C   0  0  0  0  0  0  0  0  0  0  0  0
   55.3930   26.5650   45.9900 O   0  0  0  0  0  0  0  0  0  0  0  0
   56.6920   27.0860   45.9930 C   0  0  0  0  0  0  0  0  0  0  0  0
   57.6360   26.4250   46.5100 O   0  0  0  0  0  0  0  0  0  0  0  0
   56.9580   28.4080   45.3850 C   0  0  0  0  0  0  0  0  0  0  0  0
   55.9080   29.1550   44.8230 C   0  0  0  0  0  0  0  0  0  0  0  0
   56.1550   30.4030   44.2430 C   0  0  0  0  0  0  0  0  0  0  0  0
   57.4600   30.9290   44.2180 C   0  0  0  0  0  0  0  0  0  0  0  0
   57.7630   32.1790   43.6530 O   0  0  0  0  0  0  0  0  0  0  0  0
   57.4260   33.4450   44.2210 C   0  0  0  0  0  0  0  0  0  0  0  0
   58.2900   33.7430   45.4180 C   0  0  0  0  0  0  0  0  0  0  0  0
   59.3520   34.6560   45.3220 C   0  0  0  0  0  0  0  0  0  0  0  0
   60.1560   34.9220   46.4350 C   0  0  0  0  0  0  0  0  0  0  0  0
   59.9260   34.2670   47.6500 C   0  0  0  0  0  0  0  0  0  0  0  0
   60.7460   34.5730   48.7460 O   0  0  0  0  0  0  0  0  0  0  0  0
   62.0350   34.0660   48.9640 C   0  0  0  0  0  0  0  0  0  0  0  0
   62.7910   33.4830   47.9310 C   0  0  0  0  0  0  0  0  0  0  0  0
   64.0800   33.0040   48.1830 C   0  0  0  0  0  0  0  0  0  0  0  0
   64.6380   33.1120   49.4710 C   0  0  0  0  0  0  0  0  0  0  0  0
   65.9230   32.6410   49.7770 O   0  0  0  0  0  0  0  0  0  0  0  0
   66.6970   33.0810   50.8880 C   0  0  0  0  0  0  0  0  0  0  0  0
   63.8890   33.7120   50.4900 C   0  0  0  0  0  0  0  0  0  0  0  0
   62.6000   34.1900   50.2370 C   0  0  0  0  0  0  0  0  0  0  0  0
   58.8560   33.3590   47.7500 C   0  0  0  0  0  0  0  0  0  0  0  0
   58.0530   33.0910   46.6380 C   0  0  0  0  0  0  0  0  0  0  0  0
   58.5050   30.1850   44.7750 C   0  0  0  0  0  0  0  0  0  0  0  0
   58.2600   28.9370   45.3540 C   0  0  0  0  0  0  0  0  0  0  0  0
   54.9800   24.6238   46.5664 H   0  0  0  0  0  0  0  0  0  0  0  0
   54.1794   25.1769   45.0564 H   0  0  0  0  0  0  0  0  0  0  0  0
   55.9364   24.8031   45.0564 H   0  0  0  0  0  0  0  0  0  0  0  0
   54.8837   28.7544   44.8397 H   0  0  0  0  0  0  0  0  0  0  0  0
   55.3252   30.9765   43.8041 H   0  0  0  0  0  0  0  0  0  0  0  0
   57.5745   34.2301   43.4650 H   0  0  0  0  0  0  0  0  0  0  0  0
   56.3748   33.4172   44.5440 H   0  0  0  0  0  0  0  0  0  0  0  0
   59.5527   35.1643   44.3674 H   0  0  0  0  0  0  0  0  0  0  0  0
   60.9753   35.6516   46.3547 H   0  0  0  0  0  0  0  0  0  0  0  0
   62.3658   33.4036   46.9196 H   0  0  0  0  0  0  0  0  0  0  0  0
   64.6606   32.5408   47.3716 H   0  0  0  0  0  0  0  0  0  0  0  0
   66.1928   32.7944   51.8227 H   0  0  0  0  0  0  0  0  0  0  0  0
   67.6920   32.6135   50.8499 H   0  0  0  0  0  0  0  0  0  0  0  0
   66.8042   34.1751   50.8499 H   0  0  0  0  0  0  0  0  0  0  0  0
   64.3183   33.8082   51.4982 H   0  0  0  0  0  0  0  0  0  0  0  0
   62.0261   34.6671   51.0451 H   0  0  0  0  0  0  0  0  0  0  0  0
   58.6506   32.8579   48.7074 H   0  0  0  0  0  0  0  0  0  0  0  0
   57.2306   32.3650   46.7194 H   0  0  0  0  0  0  0  0  0  0  0  0
   59.5292   30.5859   44.7572 H   0  0  0  0  0  0  0  0  0  0  0  0
   59.0924   28.3642   45.7888 H   0  0  0  0  0  0  0  0  0  0  0  0
  1  2  1  0
  2  3  1  0
  3  4  2  0
  3  5  1  0
  5  6  2  0
  6  7  1  0
  7  8  2  0
  8  9  1  0
  9 10  1  0
 10 11  1  0
 11 12  2  0
 12 13  1  0
 13 14  2  0
 14 15  1  0
 15 16  1  0
 16 17  2  0
 17 18  1  0
 18 19  2  0
 19 20  1  0
 20 21  1  0
 19 22  1  0
 22 23  2  0
 14 24  1  0
 24 25  2  0
  8 26  1  0
 26 27  2  0
 27  5  1  0
 25 11  1  0
 23 16  1  0
  1 28  1  0
  1 29  1  0
  1 30  1  0
  6 31  1  0
  7 32  1  0
 10 33  1  0
 10 34  1  0
 12 35  1  0
 13 36  1  0
 17 37  1  0
 18 38  1  0
 21 39  1  0
 21 40  1  0
 21 41  1  0
 22 42  1  0
 23 43  1  0
 24 44  1  0
 25 45  1  0
 26 46  1  0
 27 47  1  0
M  END
>  <UniqueID>  (75) 
65

>  <SMILES>  (75) 
COC(=O)c1ccc(OCc2ccc(Oc3ccc(OC)cc3)cc2)cc1

>  <Energy>  (75) 
53.39331701539787

>  <Genealogy>  (75) 
COC(=O)c1ccc(OCc2ccc(Oc3ccc(OC)cc3)cc2)cc1 (3D coordinates assigned)
COC(=O)c1ccc(OCc2ccc(Oc3ccc(OC)cc3)cc2)cc1 (optimized conformer: 53.39331701539787 kcal/mol)

>  <smiles>  (75) 
COC(=O)c1ccc(OCc2ccc(Oc3ccc(OC)cc3)cc2)cc1

>  <score_type>  (75) 
oracle

>  <origin>  (75) 
adg

>  <m_score__min__energy>  (75) 
-7.7999999999999998

>  <m_primary>  (75) 
energy

$$$$
75:0
     RDKit          3D

 75 79  0  0  1  0  0  0  0  0999 V2000
   50.1930   27.7930   53.6320 C   0  0  0  0  0  0  0  0  0  0  0  0
   50.3590   29.0860   53.4170 C   0  0  0  0  0  0  0  0  0  0  0  0
   51.7280   29.5660   53.2900 C   0  0  0  0  0  0  0  0  0  0  0  0
   51.9550   30.7330   53.7270 O   0  0  0  0  0  0  0  0  0  0  0  0
   52.7640   28.7700   52.7030 N   0  0  0  0  0  0  0  0  0  0  0  0
   54.0510   29.3930   52.6540 C   0  0  0  0  0  0  0  0  0  0  0  0
   55.1120   28.9250   53.4280 C   0  0  0  0  0  0  0  0  0  0  0  0
   56.3680   29.5150   53.3600 C   0  0  0  0  0  0  0  0  0  0  0  0
   56.5170   30.5830   52.4940 C   0  0  0  0  0  0  0  0  0  0  0  0
   57.7510   31.2440   52.2990 N   0  0  0  0  0  0  0  0  0  0  0  0
   58.4800   31.2490   51.2640 C   0  0  0  0  0  0  0  0  0  0  0  0
   59.0860   30.1290   50.8540 N   0  0  0  0  0  0  0  0  0  0  0  0
   59.8450   30.1900   49.7540 C   0  0  0  0  0  0  0  0  0  0  0  0
   60.6820   28.7280   49.1910 S   0  0  0  0  0  0  0  0  0  0  0  0
   59.8890   27.9060   47.8320 C   0  0  0  0  0  0  0  0  0  0  0  0
   60.4380   26.7160   47.3910 C   0  0  0  0  0  0  0  0  0  0  0  0
   59.9080   25.9760   46.3520 C   0  0  0  0  0  0  0  0  0  0  0  0
   58.7770   26.4690   45.7460 C   0  0  0  0  0  0  0  0  0  0  0  0
   58.2040   27.6680   46.1740 C   0  0  0  0  0  0  0  0  0  0  0  0
   56.9850   28.0670   45.4700 C   0  0  0  0  0  0  0  0  0  0  0  0
   55.8880   27.4640   45.5990 O   0  0  0  0  0  0  0  0  0  0  0  0
   57.1130   29.2090   44.6060 N   0  0  0  0  0  0  0  0  0  0  0  0
   58.3420   29.9320   44.4200 C   0  0  0  0  0  0  0  0  0  0  0  0
   58.0000   31.3940   44.2040 C   0  0  0  0  0  0  0  0  0  0  0  0
   57.2070   31.5850   43.0060 N   0  0  0  0  0  0  0  0  0  0  0  0
   58.0150   32.1410   41.9330 C   0  0  0  0  0  0  0  0  0  0  0  0
   56.5300   30.3670   42.6110 C   0  0  0  0  0  0  0  0  0  0  0  0
   55.9540   29.7080   43.8450 C   0  0  0  0  0  0  0  0  0  0  0  0
   58.7540   28.3810   47.2070 C   0  0  0  0  0  0  0  0  0  0  0  0
   60.0390   31.3500   49.0100 C   0  0  0  0  0  0  0  0  0  0  0  0
   60.8670   31.4150   47.8040 C   0  0  0  0  0  0  0  0  0  0  0  0
   59.4000   32.4750   49.4660 C   0  0  0  0  0  0  0  0  0  0  0  0
   59.4610   33.6110   48.9120 N   0  0  0  0  0  0  0  0  0  0  0  0
   59.0110   33.9810   47.6390 C   0  0  0  0  0  0  0  0  0  0  0  0
   59.7480   34.7020   46.7180 C   0  0  0  0  0  0  0  0  0  0  0  0
   59.3380   34.9990   45.4560 C   0  0  0  0  0  0  0  0  0  0  0  0
   58.1120   34.5800   45.0030 C   0  0  0  0  0  0  0  0  0  0  0  0
   57.3330   33.8520   45.8830 C   0  0  0  0  0  0  0  0  0  0  0  0
   57.7470   33.5460   47.1720 C   0  0  0  0  0  0  0  0  0  0  0  0
   58.6280   32.4000   50.5910 N   0  0  0  0  0  0  0  0  0  0  0  0
   55.4460   31.0400   51.7280 C   0  0  0  0  0  0  0  0  0  0  0  0
   54.1970   30.4500   51.7980 C   0  0  0  0  0  0  0  0  0  0  0  0
   49.1794   27.3783   53.7356 H   0  0  0  0  0  0  0  0  0  0  0  0
   51.0684   27.1311   53.7074 H   0  0  0  0  0  0  0  0  0  0  0  0
   49.5010   29.7697   53.3374 H   0  0  0  0  0  0  0  0  0  0  0  0
   52.5720   27.8120   52.3520 H   0  0  0  0  0  0  0  0  0  0  0  0
   54.9517   28.0729   54.1050 H   0  0  0  0  0  0  0  0  0  0  0  0
   57.2077   29.1485   53.9687 H   0  0  0  0  0  0  0  0  0  0  0  0
   58.9240   29.2760   51.4270 H   0  0  0  0  0  0  0  0  0  0  0  0
   61.3419   26.3399   47.8926 H   0  0  0  0  0  0  0  0  0  0  0  0
   60.3707   25.0335   46.0239 H   0  0  0  0  0  0  0  0  0  0  0  0
   58.3185   25.9129   44.9150 H   0  0  0  0  0  0  0  0  0  0  0  0
   58.9762   29.8252   45.3124 H   0  0  0  0  0  0  0  0  0  0  0  0
   58.8896   29.5362   43.5520 H   0  0  0  0  0  0  0  0  0  0  0  0
   57.4303   31.7593   45.0712 H   0  0  0  0  0  0  0  0  0  0  0  0
   58.9398   31.9536   44.0874 H   0  0  0  0  0  0  0  0  0  0  0  0
   58.8494   32.7152   42.3621 H   0  0  0  0  0  0  0  0  0  0  0  0
   58.4126   31.3244   41.3125 H   0  0  0  0  0  0  0  0  0  0  0  0
   57.3944   32.8042   41.3125 H   0  0  0  0  0  0  0  0  0  0  0  0
   55.7194   30.6061   41.9069 H   0  0  0  0  0  0  0  0  0  0  0  0
   57.2412   29.6859   42.1207 H   0  0  0  0  0  0  0  0  0  0  0  0
   55.3886   30.4387   44.4419 H   0  0  0  0  0  0  0  0  0  0  0  0
   55.2579   28.8968   43.5856 H   0  0  0  0  0  0  0  0  0  0  0  0
   58.2943   29.3248   47.5355 H   0  0  0  0  0  0  0  0  0  0  0  0
   61.9258   31.4981   48.0902 H   0  0  0  0  0  0  0  0  0  0  0  0
   60.7189   30.5025   47.2079 H   0  0  0  0  0  0  0  0  0  0  0  0
   60.5783   32.2932   47.2079 H   0  0  0  0  0  0  0  0  0  0  0  0
   60.7397   35.0621   47.0292 H   0  0  0  0  0  0  0  0  0  0  0  0
   59.9948   35.5803   44.7922 H   0  0  0  0  0  0  0  0  0  0  0  0
   57.7649   34.8130   43.9855 H   0  0  0  0  0  0  0  0  0  0  0  0
   56.3456   33.5012   45.5483 H   0  0  0  0  0  0  0  0  0  0  0  0
   57.0900   32.9628   47.8339 H   0  0  0  0  0  0  0  0  0  0  0  0
   58.1340   33.2470   50.9480 H   0  0  0  0  0  0  0  0  0  0  0  0
   55.5981   31.8926   51.0498 H   0  0  0  0  0  0  0  0  0  0  0  0
   53.3559   30.8156   51.1905 H   0  0  0  0  0  0  0  0  0  0  0  0
  1  2  2  0
  2  3  1  0
  3  4  2  0
  3  5  1  0
  5  6  1  0
  6  7  2  0
  7  8  1  0
  8  9  2  0
  9 10  1  0
 10 11  2  0
 11 12  1  0
 12 13  1  0
 13 14  1  0
 14 15  1  0
 15 16  2  0
 16 17  1  0
 17 18  2  0
 18 19  1  0
 19 20  1  0
 20 21  2  0
 20 22  1  0
 22 23  1  0
 23 24  1  0
 24 25  1  0
 25 26  1  0
 25 27  1  0
 27 28  1  0
 19 29  2  0
 13 30  2  0
 30 31  1  0
 30 32  1  0
 32 33  2  0
 33 34  1  0
 34 35  2  0
 35 36  1  0
 36 37  2  0
 37 38  1  0
 38 39  2  0
 32 40  1  0
  9 41  1  0
 41 42  2  0
 42  6  1  0
 40 11  1  0
 29 15  1  0
 39 34  1  0
 28 22  1  0
  1 43  1  0
  1 44  1  0
  2 45  1  0
  5 46  1  0
  7 47  1  0
  8 48  1  0
 12 49  1  0
 16 50  1  0
 17 51  1  0
 18 52  1  0
 23 53  1  0
 23 54  1  0
 24 55  1  0
 24 56  1  0
 26 57  1  0
 26 58  1  0
 26 59  1  0
 27 60  1  0
 27 61  1  0
 28 62  1  0
 28 63  1  0
 29 64  1  0
 31 65  1  0
 31 66  1  0
 31 67  1  0
 35 68  1  0
 36 69  1  0
 37 70  1  0
 38 71  1  0
 39 72  1  0
 40 73  1  0
 41 74  1  0
 42 75  1  0
M  END
>  <smiles>  (76) 
C=CC(=O)Nc1ccc(N=c2[nH]c(Sc3cccc(C(=O)N4CCN(C)CC4)c3)c(C)c(=Nc3ccccc3)[nH]2)cc1

>  <score_type>  (76) 
oracle

>  <origin>  (76) 
adg

>  <m_score__min__energy>  (76) 
-11.359999999999999

>  <m_primary>  (76) 
energy

$$$$
76:0
     RDKit          3D

 35 37  0  0  0  0  0  0  0  0999 V2000
   59.7319   24.5128   46.4094 H   0  0  0  0  0  0  0  0  0  0  0  0
   59.1150   25.3870   46.1540 C   0  0  0  0  0  0  0  0  0  0  0  0
   59.3170   26.9460   46.7550 S   0  0  0  0  0  0  0  0  0  0  0  0
   58.0100   27.5660   45.8900 C   0  0  0  0  0  0  0  0  0  0  0  0
   57.6020   28.8030   45.8850 N   0  0  0  0  0  0  0  0  0  0  0  0
   56.6950   29.4040   44.9470 C   0  0  0  0  0  0  0  0  0  0  0  0
   55.5200   28.9560   44.8740 O   0  0  0  0  0  0  0  0  0  0  0  0
   57.0750   30.5560   44.0970 C   0  0  0  0  0  0  0  0  0  0  0  0
   56.7350   30.5200   42.7340 C   0  0  0  0  0  0  0  0  0  0  0  0
   56.1759   29.6610   42.3345 H   0  0  0  0  0  0  0  0  0  0  0  0
   57.1000   31.5640   41.8820 C   0  0  0  0  0  0  0  0  0  0  0  0
   56.8325   31.5223   40.8158 H   0  0  0  0  0  0  0  0  0  0  0  0
   57.8030   32.6590   42.3810 C   0  0  0  0  0  0  0  0  0  0  0  0
   58.1017   33.4738   41.7051 H   0  0  0  0  0  0  0  0  0  0  0  0
   58.1290   32.7240   43.7370 C   0  0  0  0  0  0  0  0  0  0  0  0
   58.6865   33.5903   44.1227 H   0  0  0  0  0  0  0  0  0  0  0  0
   57.7510   31.6920   44.6140 C   0  0  0  0  0  0  0  0  0  0  0  0
   58.0950   31.8240   46.0750 C   0  0  0  0  0  0  0  0  0  0  0  0
   57.2399   31.4959   46.6841 H   0  0  0  0  0  0  0  0  0  0  0  0
   58.9699   31.1977   46.3037 H   0  0  0  0  0  0  0  0  0  0  0  0
   58.3264   32.8748   46.3037 H   0  0  0  0  0  0  0  0  0  0  0  0
   57.4290   26.6120   45.1350 N   0  0  0  0  0  0  0  0  0  0  0  0
   56.5940   26.7930   44.5330 H   0  0  0  0  0  0  0  0  0  0  0  0
   58.0280   25.3940   45.2740 C   0  0  0  0  0  0  0  0  0  0  0  0
   57.5620   24.1880   44.5460 C   0  0  0  0  0  0  0  0  0  0  0  0
   56.4300   24.2450   43.7100 C   0  0  0  0  0  0  0  0  0  0  0  0
   55.8840   25.1929   43.5941 H   0  0  0  0  0  0  0  0  0  0  0  0
   55.9950   23.1050   43.0260 C   0  0  0  0  0  0  0  0  0  0  0  0
   55.1094   23.1594   42.3759 H   0  0  0  0  0  0  0  0  0  0  0  0
   56.6830   21.8980   43.1670 C   0  0  0  0  0  0  0  0  0  0  0  0
   56.3407   21.0033   42.6263 H   0  0  0  0  0  0  0  0  0  0  0  0
   57.8050   21.8270   43.9940 C   0  0  0  0  0  0  0  0  0  0  0  0
   58.3447   20.8750   44.1058 H   0  0  0  0  0  0  0  0  0  0  0  0
   58.2450   22.9630   44.6810 C   0  0  0  0  0  0  0  0  0  0  0  0
   59.1301   22.8997   45.3310 H   0  0  0  0  0  0  0  0  0  0  0  0
  1  2  1  0
  2  3  1  0
  3  4  1  0
  4  5  2  0
  5  6  1  0
  6  7  2  0
  6  8  1  0
  8  9  2  0
  9 10  1  0
  9 11  1  0
 11 12  1  0
 11 13  2  0
 13 14  1  0
 13 15  1  0
 15 16  1  0
 15 17  2  0
 17 18  1  0
 18 19  1  0
 18 20  1  0
 18 21  1  0
  4 22  1  0
 22 23  1  0
 22 24  1  0
 24 25  1  0
 25 26  2  0
 26 27  1  0
 26 28  1  0
 28 29  1  0
 28 30  2  0
 30 31  1  0
 30 32  1  0
 32 33  1  0
 32 34  2  0
 34 35  1  0
 24  2  2  0
 34 25  1  0
 17  8  1  0
M  END
>  <UniqueID>  (77) 
66

>  <SMILES>  (77) 
Cc1ccccc1C(=O)/N=c1/[nH]c(-c2ccccc2)cs1

>  <Energy>  (77) 
81.58141776301265

>  <Genealogy>  (77) 
Cc1ccccc1C(=O)/N=c1/[nH]c(-c2ccccc2)cs1 (cis-trans isomerization)
Cc1ccccc1C(=O)/N=c1/[nH]c(-c2ccccc2)cs1 (3D coordinates assigned)
Cc1ccccc1C(=O)/N=c1/[nH]c(-c2ccccc2)cs1 (optimized conformer: 81.58141776301265 kcal/mol)

>  <smiles>  (77) 
Cc1ccccc1C(=O)N=c1[nH]c(-c2ccccc2)cs1

>  <score_type>  (77) 
oracle

>  <origin>  (77) 
adg

>  <m_score__min__energy>  (77) 
-8.0800000000000001

>  <m_primary>  (77) 
energy

$$$$
77:0
     RDKit          3D

 44 46  0  0  0  0  0  0  0  0999 V2000
   58.1220   26.8920   42.7880 C   0  0  0  0  0  0  0  0  0  0  0  0
   57.8290   27.4190   44.1150 N   0  0  0  0  0  0  0  0  0  0  0  0
   57.6530   28.8220   44.3530 C   0  0  0  0  0  0  0  0  0  0  0  0
   56.4170   29.4060   44.0450 C   0  0  0  0  0  0  0  0  0  0  0  0
   56.2470   30.7900   44.1160 C   0  0  0  0  0  0  0  0  0  0  0  0
   57.3250   31.6080   44.4540 C   0  0  0  0  0  0  0  0  0  0  0  0
   58.5700   31.0420   44.7400 C   0  0  0  0  0  0  0  0  0  0  0  0
   58.7380   29.6480   44.7280 C   0  0  0  0  0  0  0  0  0  0  0  0
   60.3580   28.9340   45.0770 S   0  0  0  0  0  0  0  0  0  0  0  0
   60.4040   29.3650   46.8300 C   0  0  0  0  0  0  0  0  0  0  0  0
   60.6790   30.6970   47.1710 C   0  0  0  0  0  0  0  0  0  0  0  0
   60.8020   31.0760   48.5100 C   0  0  0  0  0  0  0  0  0  0  0  0
   60.6620   30.1240   49.5190 C   0  0  0  0  0  0  0  0  0  0  0  0
   60.3950   28.7930   49.1940 C   0  0  0  0  0  0  0  0  0  0  0  0
   60.2610   28.4020   47.8520 C   0  0  0  0  0  0  0  0  0  0  0  0
   59.8830   27.0570   47.5410 N   0  0  0  0  0  0  0  0  0  0  0  0
   58.5950   26.7060   47.0270 C   0  0  0  0  0  0  0  0  0  0  0  0
   57.6720   27.5650   46.9830 O   0  0  0  0  0  0  0  0  0  0  0  0
   58.3790   25.3770   46.5350 N   0  0  0  0  0  0  0  0  0  0  0  0
   57.1910   24.8840   45.8990 C   0  0  0  0  0  0  0  0  0  0  0  0
   55.9110   25.3630   46.2370 C   0  0  0  0  0  0  0  0  0  0  0  0
   54.7750   24.8290   45.6190 C   0  0  0  0  0  0  0  0  0  0  0  0
   54.9040   23.8130   44.6690 C   0  0  0  0  0  0  0  0  0  0  0  0
   56.1730   23.3170   44.3420 C   0  0  0  0  0  0  0  0  0  0  0  0
   56.3080   22.2650   43.3700 C   0  0  0  0  0  0  0  0  0  0  0  0
   56.4170   21.4170   42.5900 N   0  0  0  0  0  0  0  0  0  0  0  0
   57.3120   23.8480   44.9640 C   0  0  0  0  0  0  0  0  0  0  0  0
   58.6545   25.9342   42.8832 H   0  0  0  0  0  0  0  0  0  0  0  0
   57.1813   26.7356   42.2397 H   0  0  0  0  0  0  0  0  0  0  0  0
   58.7513   27.6085   42.2397 H   0  0  0  0  0  0  0  0  0  0  0  0
   58.0380   26.8090   44.9370 H   0  0  0  0  0  0  0  0  0  0  0  0
   55.5728   28.7681   43.7445 H   0  0  0  0  0  0  0  0  0  0  0  0
   55.2633   31.2351   43.9055 H   0  0  0  0  0  0  0  0  0  0  0  0
   57.1949   32.6995   44.4954 H   0  0  0  0  0  0  0  0  0  0  0  0
   59.4246   31.6930   44.9762 H   0  0  0  0  0  0  0  0  0  0  0  0
   60.7989   31.4496   46.3778 H   0  0  0  0  0  0  0  0  0  0  0  0
   61.0092   32.1250   48.7681 H   0  0  0  0  0  0  0  0  0  0  0  0
   60.7621   30.4223   50.5730 H   0  0  0  0  0  0  0  0  0  0  0  0
   60.2889   28.0457   49.9942 H   0  0  0  0  0  0  0  0  0  0  0  0
   60.6010   26.3080   47.6430 H   0  0  0  0  0  0  0  0  0  0  0  0
   55.8038   26.1589   46.9887 H   0  0  0  0  0  0  0  0  0  0  0  0
   53.7773   25.2104   45.8820 H   0  0  0  0  0  0  0  0  0  0  0  0
   54.0095   23.4024   44.1777 H   0  0  0  0  0  0  0  0  0  0  0  0
   58.3065   23.4486   44.7162 H   0  0  0  0  0  0  0  0  0  0  0  0
  1  2  1  0
  2  3  1  0
  3  4  2  0
  4  5  1  0
  5  6  2  0
  6  7  1  0
  7  8  2  0
  8  9  1  0
  9 10  1  0
 10 11  2  0
 11 12  1  0
 12 13  2  0
 13 14  1  0
 14 15  2  0
 15 16  1  0
 16 17  1  0
 17 18  2  0
 17 19  1  0
 19 20  1  0
 20 21  2  0
 21 22  1  0
 22 23  2  0
 23 24  1  0
 24 25  1  0
 25 26  3  0
 24 27  2  0
  8  3  1  0
 15 10  1  0
 27 20  1  0
  1 28  1  0
  1 29  1  0
  1 30  1  0
  2 31  1  0
  4 32  1  0
  5 33  1  0
  6 34  1  0
  7 35  1  0
 11 36  1  0
 12 37  1  0
 13 38  1  0
 14 39  1  0
 16 40  1  0
 21 41  1  0
 22 42  1  0
 23 43  1  0
 27 44  1  0
M  CHG  1  19  -1
M  END
>  <UniqueID>  (78) 
67

>  <SMILES>  (78) 
CNc1ccccc1Sc1ccccc1NC(=O)[N-]c1cccc(C#N)c1

>  <Energy>  (78) 
59.68038794347972

>  <Genealogy>  (78) 
CNc1ccccc1Sc1ccccc1NC(=O)[N-]c1cccc(C#N)c1 (protonated)
CNc1ccccc1Sc1ccccc1NC(=O)[N-]c1cccc(C#N)c1 (3D coordinates assigned)
CNc1ccccc1Sc1ccccc1NC(=O)[N-]c1cccc(C#N)c1 (optimized conformer: 59.68038794347972 kcal/mol)

>  <smiles>  (78) 
CNc1ccccc1Sc1ccccc1NC(=O)Nc1cccc(C#N)c1

>  <score_type>  (78) 
oracle

>  <origin>  (78) 
adg

>  <m_score__min__energy>  (78) 
-10.27

>  <m_primary>  (78) 
energy

$$$$
78:0
     RDKit          3D

 37 39  0  0  0  0  0  0  0  0999 V2000
   55.1810   29.1940   44.8740 O   0  0  0  0  0  0  0  0  0  0  0  0
   56.3980   29.4230   44.6420 C   0  0  0  0  0  0  0  0  0  0  0  0
   56.7930   30.6020   43.9300 N   0  0  0  0  0  0  0  0  0  0  0  0
   57.5710   31.6780   44.4670 C   0  0  0  0  0  0  0  0  0  0  0  0
   57.7610   31.7410   45.8540 C   0  0  0  0  0  0  0  0  0  0  0  0
   58.5200   32.7710   46.4180 C   0  0  0  0  0  0  0  0  0  0  0  0
   59.0750   33.7570   45.6010 C   0  0  0  0  0  0  0  0  0  0  0  0
   58.8640   33.7220   44.2200 C   0  0  0  0  0  0  0  0  0  0  0  0
   58.1090   32.6910   43.6490 C   0  0  0  0  0  0  0  0  0  0  0  0
   57.8580   32.7220   42.3160 F   0  0  0  0  0  0  0  0  0  0  0  0
   57.4260   28.4450   45.0570 C   0  0  0  0  0  0  0  0  0  0  0  0
   58.7760   28.7330   44.7860 C   0  0  0  0  0  0  0  0  0  0  0  0
   59.7870   27.8890   45.2470 C   0  0  0  0  0  0  0  0  0  0  0  0
   59.4660   26.7510   45.9850 C   0  0  0  0  0  0  0  0  0  0  0  0
   58.1310   26.4390   46.2440 C   0  0  0  0  0  0  0  0  0  0  0  0
   57.1010   27.2560   45.7580 C   0  0  0  0  0  0  0  0  0  0  0  0
   55.7470   26.8290   45.9750 N   0  0  0  0  0  0  0  0  0  0  0  0
   55.1950   25.5510   45.6230 C   0  0  0  0  0  0  0  0  0  0  0  0
   53.9500   25.3850   45.7210 O   0  0  0  0  0  0  0  0  0  0  0  0
   56.0500   24.4160   45.1980 C   0  0  0  0  0  0  0  0  0  0  0  0
   56.1880   24.1180   43.8330 C   0  0  0  0  0  0  0  0  0  0  0  0
   56.9800   23.0470   43.4220 C   0  0  0  0  0  0  0  0  0  0  0  0
   57.6410   22.2800   44.3790 C   0  0  0  0  0  0  0  0  0  0  0  0
   57.5110   22.5770   45.6980 N   0  0  0  0  0  0  0  0  0  0  0  0
   56.7460   23.6160   46.1320 C   0  0  0  0  0  0  0  0  0  0  0  0
   56.6080   23.8670   47.8670 Cl  0  0  0  0  0  0  0  0  0  0  0  0
   57.3104   30.9756   46.5029 H   0  0  0  0  0  0  0  0  0  0  0  0
   58.6797   32.8042   47.5058 H   0  0  0  0  0  0  0  0  0  0  0  0
   59.6790   34.5623   46.0444 H   0  0  0  0  0  0  0  0  0  0  0  0
   59.2926   34.5071   43.5798 H   0  0  0  0  0  0  0  0  0  0  0  0
   59.0367   29.6306   44.2061 H   0  0  0  0  0  0  0  0  0  0  0  0
   60.8394   28.1222   45.0276 H   0  0  0  0  0  0  0  0  0  0  0  0
   60.2662   26.0981   46.3637 H   0  0  0  0  0  0  0  0  0  0  0  0
   57.8847   25.5443   46.8346 H   0  0  0  0  0  0  0  0  0  0  0  0
   55.6682   24.7331   43.0836 H   0  0  0  0  0  0  0  0  0  0  0  0
   57.0821   22.8098   42.3527 H   0  0  0  0  0  0  0  0  0  0  0  0
   58.2690   21.4328   44.0660 H   0  0  0  0  0  0  0  0  0  0  0  0
  1  2  2  0
  2  3  1  0
  3  4  1  0
  4  5  2  0
  5  6  1  0
  6  7  2  0
  7  8  1  0
  8  9  2  0
  9 10  1  0
  2 11  1  0
 11 12  2  0
 12 13  1  0
 13 14  2  0
 14 15  1  0
 15 16  2  0
 16 17  1  0
 17 18  1  0
 18 19  2  0
 18 20  1  0
 20 21  2  0
 21 22  1  0
 22 23  2  0
 23 24  1  0
 24 25  2  0
 25 26  1  0
  9  4  1  0
 16 11  1  0
 25 20  1  0
  5 27  1  0
  6 28  1  0
  7 29  1  0
  8 30  1  0
 12 31  1  0
 13 32  1  0
 14 33  1  0
 15 34  1  0
 21 35  1  0
 22 36  1  0
 23 37  1  0
M  CHG  2   3  -1  17  -1
M  END
>  <UniqueID>  (79) 
68

>  <SMILES>  (79) 
O=C([N-]c1ccccc1F)c1ccccc1[N-]C(=O)c1cccnc1Cl

>  <Energy>  (79) 
58.770366352763084

>  <Genealogy>  (79) 
O=C([N-]c1ccccc1F)c1ccccc1[N-]C(=O)c1cccnc1Cl (protonated)
O=C([N-]c1ccccc1F)c1ccccc1[N-]C(=O)c1cccnc1Cl (3D coordinates assigned)
O=C([N-]c1ccccc1F)c1ccccc1[N-]C(=O)c1cccnc1Cl (optimized conformer: 58.770366352763084 kcal/mol)

>  <smiles>  (79) 
O=C(Nc1ccccc1F)c1ccccc1NC(=O)c1cccnc1Cl

>  <score_type>  (79) 
oracle

>  <origin>  (79) 
adg

>  <m_score__min__energy>  (79) 
-12.220000000000001

>  <m_primary>  (79) 
energy

$$$$
79:0
     RDKit          3D

 46 48  0  0  0  0  0  0  0  0999 V2000
   57.7800   32.4070   43.1350 C   0  0  0  0  0  0  0  0  0  0  0  0
   58.3580   32.8990   44.4300 C   0  0  0  0  0  0  0  0  0  0  0  0
   58.8520   34.1980   44.5300 C   0  0  0  0  0  0  0  0  0  0  0  0
   59.3320   34.6610   45.7520 C   0  0  0  0  0  0  0  0  0  0  0  0
   59.3280   33.8570   46.8610 N   0  0  0  0  0  0  0  0  0  0  0  0
   59.8410   34.4100   48.1290 C   0  0  0  0  0  0  0  0  0  0  0  0
   61.2590   33.9630   48.3680 C   0  0  0  0  0  0  0  0  0  0  0  0
   61.8300   34.0540   49.6490 C   0  0  0  0  0  0  0  0  0  0  0  0
   63.1540   33.6570   49.8600 C   0  0  0  0  0  0  0  0  0  0  0  0
   63.9160   33.1630   48.7970 C   0  0  0  0  0  0  0  0  0  0  0  0
   65.2000   32.7800   49.0030 F   0  0  0  0  0  0  0  0  0  0  0  0
   63.3530   33.0650   47.5200 C   0  0  0  0  0  0  0  0  0  0  0  0
   62.0300   33.4620   47.3060 C   0  0  0  0  0  0  0  0  0  0  0  0
   58.8390   32.5700   46.7950 C   0  0  0  0  0  0  0  0  0  0  0  0
   58.8170   31.8410   47.8820 N   0  0  0  0  0  0  0  0  0  0  0  0
   59.5290   30.6280   48.1750 C   0  0  0  0  0  0  0  0  0  0  0  0
   59.8450   30.3320   49.3590 O   0  0  0  0  0  0  0  0  0  0  0  0
   59.8060   29.6760   47.0940 C   0  0  0  0  0  0  0  0  0  0  0  0
   60.6480   29.9660   46.2030 O   0  0  0  0  0  0  0  0  0  0  0  0
   59.1240   28.4170   47.0610 N   0  0  0  0  0  0  0  0  0  0  0  0
   58.8380   27.6870   45.8300 C   0  0  0  0  0  0  0  0  0  0  0  0
   57.8140   28.4250   45.0110 C   0  0  0  0  0  0  0  0  0  0  0  0
   57.7890   28.2840   43.6170 C   0  0  0  0  0  0  0  0  0  0  0  0
   56.8220   28.9540   42.8640 C   0  0  0  0  0  0  0  0  0  0  0  0
   55.8850   29.7580   43.5160 C   0  0  0  0  0  0  0  0  0  0  0  0
   55.9180   29.8810   44.8690 N   0  0  0  0  0  0  0  0  0  0  0  0
   56.8490   29.2390   45.6240 C   0  0  0  0  0  0  0  0  0  0  0  0
   58.3280   32.0890   45.5690 C   0  0  0  0  0  0  0  0  0  0  0  0
   56.9575   31.7069   43.3431 H   0  0  0  0  0  0  0  0  0  0  0  0
   57.3973   33.2607   42.5564 H   0  0  0  0  0  0  0  0  0  0  0  0
   58.5616   31.8929   42.5564 H   0  0  0  0  0  0  0  0  0  0  0  0
   58.8627   34.8546   43.6475 H   0  0  0  0  0  0  0  0  0  0  0  0
   59.7201   35.6874   45.8281 H   0  0  0  0  0  0  0  0  0  0  0  0
   59.8115   35.5086   48.0823 H   0  0  0  0  0  0  0  0  0  0  0  0
   59.2112   34.0467   48.9544 H   0  0  0  0  0  0  0  0  0  0  0  0
   61.2330   34.4390   50.4889 H   0  0  0  0  0  0  0  0  0  0  0  0
   63.5968   33.7335   50.8640 H   0  0  0  0  0  0  0  0  0  0  0  0
   63.9520   32.6752   46.6837 H   0  0  0  0  0  0  0  0  0  0  0  0
   61.5903   33.3817   46.3009 H   0  0  0  0  0  0  0  0  0  0  0  0
   59.7643   27.5840   45.2457 H   0  0  0  0  0  0  0  0  0  0  0  0
   58.4421   26.6934   46.0870 H   0  0  0  0  0  0  0  0  0  0  0  0
   58.5312   27.6455   43.1156 H   0  0  0  0  0  0  0  0  0  0  0  0
   56.7989   28.8494   41.7692 H   0  0  0  0  0  0  0  0  0  0  0  0
   55.1195   30.2922   42.9341 H   0  0  0  0  0  0  0  0  0  0  0  0
   56.8458   29.3579   46.7175 H   0  0  0  0  0  0  0  0  0  0  0  0
   57.9056   31.0750   45.5104 H   0  0  0  0  0  0  0  0  0  0  0  0
  1  2  1  0
  2  3  1  0
  3  4  2  0
  4  5  1  0
  5  6  1  0
  6  7  1  0
  7  8  2  0
  8  9  1  0
  9 10  2  0
 10 11  1  0
 10 12  1  0
 12 13  2  0
  5 14  1  0
 14 15  2  3
 15 16  1  0
 16 17  2  0
 16 18  1  0
 18 19  2  0
 18 20  1  0
 20 21  1  0
 21 22  1  0
 22 23  2  0
 23 24  1  0
 24 25  2  0
 25 26  1  0
 26 27  2  0
 14 28  1  0
 28  2  2  0
 13  7  1  0
 27 22  1  0
  1 29  1  0
  1 30  1  0
  1 31  1  0
  3 32  1  0
  4 33  1  0
  6 34  1  0
  6 35  1  0
  8 36  1  0
  9 37  1  0
 12 38  1  0
 13 39  1  0
 21 40  1  0
 21 41  1  0
 23 42  1  0
 24 43  1  0
 25 44  1  0
 27 45  1  0
 28 46  1  0
M  CHG  1  20  -1
M  END
>  <UniqueID>  (80) 
69

>  <SMILES>  (80) 
Cc1ccn(Cc2ccc(F)cc2)c(=NC(=O)C(=O)[N-]Cc2cccnc2)c1

>  <Energy>  (80) 
54.02569383996404

>  <Genealogy>  (80) 
Cc1ccn(Cc2ccc(F)cc2)c(=NC(=O)C(=O)[N-]Cc2cccnc2)c1 (protonated)
Cc1ccn(Cc2ccc(F)cc2)c(=NC(=O)C(=O)[N-]Cc2cccnc2)c1 (3D coordinates assigned)
Cc1ccn(Cc2ccc(F)cc2)c(=NC(=O)C(=O)[N-]Cc2cccnc2)c1 (optimized conformer: 54.02569383996404 kcal/mol)

>  <smiles>  (80) 
Cc1ccn(Cc2ccc(F)cc2)c(=NC(=O)C(=O)NCc2cccnc2)c1

>  <score_type>  (80) 
oracle

>  <origin>  (80) 
adg

>  <m_score__min__energy>  (80) 
-9.7100000000000009

>  <m_primary>  (80) 
energy

$$$$
80:0
     RDKit          3D

 21 22  0  0  0  0  0  0  0  0999 V2000
   59.4190   28.6090   45.1290 H   0  0  0  0  0  0  0  0  0  0  0  0
   58.9090   29.2820   44.5150 N   0  0  0  0  0  0  0  0  0  0  0  0
   57.6160   29.3740   44.4880 C   0  0  0  0  0  0  0  0  0  0  0  0
   56.9070   30.3780   43.8720 C   0  0  0  0  0  0  0  0  0  0  0  0
   57.4200   31.4960   43.1250 C   0  0  0  0  0  0  0  0  0  0  0  0
   57.8330   32.3950   42.5240 N   0  0  0  0  0  0  0  0  0  0  0  0
   55.5850   30.0950   44.1460 C   0  0  0  0  0  0  0  0  0  0  0  0
   54.7234   30.6926   43.8136 H   0  0  0  0  0  0  0  0  0  0  0  0
   55.5160   28.9680   44.8870 N   0  0  0  0  0  0  0  0  0  0  0  0
   56.7520   28.5340   45.1000 N   0  0  0  0  0  0  0  0  0  0  0  0
   57.0490   27.3130   45.7990 C   0  0  0  0  0  0  0  0  0  0  0  0
   58.0900   27.2370   46.5060 O   0  0  0  0  0  0  0  0  0  0  0  0
   56.1890   26.1190   45.6650 C   0  0  0  0  0  0  0  0  0  0  0  0
   54.8690   26.2080   45.9860 N   0  0  0  0  0  0  0  0  0  0  0  0
   54.0450   25.1650   45.8700 N   0  0  0  0  0  0  0  0  0  0  0  0
   54.4850   23.9630   45.4180 C   0  0  0  0  0  0  0  0  0  0  0  0
   53.6860   22.9950   45.3200 O   0  0  0  0  0  0  0  0  0  0  0  0
   55.8230   23.8110   45.0600 C   0  0  0  0  0  0  0  0  0  0  0  0
   56.1944   22.8442   44.6893 H   0  0  0  0  0  0  0  0  0  0  0  0
   56.6850   24.9010   45.1780 C   0  0  0  0  0  0  0  0  0  0  0  0
   57.7430   24.8063   44.8920 H   0  0  0  0  0  0  0  0  0  0  0  0
  1  2  1  0
  2  3  2  0
  3  4  1  0
  4  5  1  0
  5  6  3  0
  4  7  2  0
  7  8  1  0
  7  9  1  0
  9 10  1  0
 10 11  1  0
 11 12  2  0
 11 13  1  0
 13 14  2  0
 14 15  1  0
 15 16  1  0
 16 17  2  0
 16 18  1  0
 18 19  1  0
 18 20  2  0
 20 21  1  0
 10  3  1  0
 20 13  1  0
M  CHG  2   9  -1  15  -1
M  END
>  <UniqueID>  (81) 
70

>  <SMILES>  (81) 
[H]/N=c1/c(C#N)c[n-]n1C(=O)c1ccc(=O)[n-]n1

>  <Energy>  (81) 
61.06257382801462

>  <Genealogy>  (81) 
N#Cc1c[n-]n(C(=O)c2ccc(=O)[n-]n2)c1=N (protonated)
[H]/N=c1/c(C#N)c[n-]n1C(=O)c1ccc(=O)[n-]n1 (cis-trans isomerization)
[H]/N=c1/c(C#N)c[n-]n1C(=O)c1ccc(=O)[n-]n1 (3D coordinates assigned)
[H]/N=c1/c(C#N)c[n-]n1C(=O)c1ccc(=O)[n-]n1 (optimized conformer: 61.06257382801462 kcal/mol)

>  <smiles>  (81) 
N#Cc1c[nH]n(C(=O)c2ccc(=O)[nH]n2)c1=N

>  <score_type>  (81) 
oracle

>  <origin>  (81) 
adg

>  <m_score__min__energy>  (81) 
-10.31

>  <m_primary>  (81) 
energy

$$$$
81:0
     RDKit          3D

 32 34  0  0  0  0  0  0  0  0999 V2000
   58.5190   31.3050   44.3590 O   0  0  0  0  0  0  0  0  0  0  0  0
   57.6220   30.4340   44.5190 C   0  0  0  0  0  0  0  0  0  0  0  0
   56.3580   30.6770   43.9740 C   0  0  0  0  0  0  0  0  0  0  0  0
   55.3350   29.7510   44.1610 C   0  0  0  0  0  0  0  0  0  0  0  0
   55.5600   28.6240   44.8790 N   0  0  0  0  0  0  0  0  0  0  0  0
   56.7740   28.3450   45.4250 C   0  0  0  0  0  0  0  0  0  0  0  0
   56.9350   27.1740   46.1730 C   0  0  0  0  0  0  0  0  0  0  0  0
   55.8920   26.3230   46.3460 F   0  0  0  0  0  0  0  0  0  0  0  0
   58.1660   26.8760   46.7520 C   0  0  0  0  0  0  0  0  0  0  0  0
   59.2490   27.7370   46.5810 C   0  0  0  0  0  0  0  0  0  0  0  0
   59.1210   28.9140   45.8270 C   0  0  0  0  0  0  0  0  0  0  0  0
   60.2760   29.7460   45.6450 N   0  0  0  0  0  0  0  0  0  0  0  0
   60.8700   30.5040   46.7450 C   0  0  0  0  0  0  0  0  0  0  0  0
   60.1630   31.8220   46.9040 C   0  0  0  0  0  0  0  0  0  0  0  0
   60.8020   33.0150   46.5280 C   0  0  0  0  0  0  0  0  0  0  0  0
   60.1260   34.2350   46.6210 C   0  0  0  0  0  0  0  0  0  0  0  0
   58.8060   34.2720   47.0790 C   0  0  0  0  0  0  0  0  0  0  0  0
   58.1590   33.0870   47.4410 C   0  0  0  0  0  0  0  0  0  0  0  0
   58.8310   31.8650   47.3500 C   0  0  0  0  0  0  0  0  0  0  0  0
   57.8630   29.2410   45.2460 C   0  0  0  0  0  0  0  0  0  0  0  0
   56.1721   31.5964   43.3995 H   0  0  0  0  0  0  0  0  0  0  0  0
   54.3420   29.9347   43.7249 H   0  0  0  0  0  0  0  0  0  0  0  0
   58.2842   25.9580   47.3464 H   0  0  0  0  0  0  0  0  0  0  0  0
   60.2164   27.4908   47.0430 H   0  0  0  0  0  0  0  0  0  0  0  0
   60.6890   29.8450   44.6890 H   0  0  0  0  0  0  0  0  0  0  0  0
   60.7775   29.9266   47.6767 H   0  0  0  0  0  0  0  0  0  0  0  0
   61.9315   30.6887   46.5236 H   0  0  0  0  0  0  0  0  0  0  0  0
   61.8380   32.9891   46.1591 H   0  0  0  0  0  0  0  0  0  0  0  0
   60.6337   35.1674   46.3333 H   0  0  0  0  0  0  0  0  0  0  0  0
   58.2765   35.2332   47.1545 H   0  0  0  0  0  0  0  0  0  0  0  0
   57.1190   33.1164   47.7982 H   0  0  0  0  0  0  0  0  0  0  0  0
   58.3157   30.9339   47.6283 H   0  0  0  0  0  0  0  0  0  0  0  0
  1  2  2  0
  2  3  1  0
  3  4  2  0
  4  5  1  0
  5  6  1  0
  6  7  2  0
  7  8  1  0
  7  9  1  0
  9 10  2  0
 10 11  1  0
 11 12  1  0
 12 13  1  0
 13 14  1  0
 14 15  2  0
 15 16  1  0
 16 17  2  0
 17 18  1  0
 18 19  2  0
 11 20  2  0
 20  2  1  0
 20  6  1  0
 19 14  1  0
  3 21  1  0
  4 22  1  0
  9 23  1  0
 10 24  1  0
 12 25  1  0
 13 26  1  0
 13 27  1  0
 15 28  1  0
 16 29  1  0
 17 30  1  0
 18 31  1  0
 19 32  1  0
M  CHG  1   5  -1
M  END
>  <UniqueID>  (82) 
71

>  <SMILES>  (82) 
O=c1cc[n-]c2c(F)ccc(NCc3ccccc3)c12

>  <Energy>  (82) 
44.1999085536213

>  <Genealogy>  (82) 
O=c1cc[n-]c2c(F)ccc(NCc3ccccc3)c12 (protonated)
O=c1cc[n-]c2c(F)ccc(NCc3ccccc3)c12 (3D coordinates assigned)
O=c1cc[n-]c2c(F)ccc(NCc3ccccc3)c12 (optimized conformer: 44.1999085536213 kcal/mol)

>  <smiles>  (82) 
O=c1cc[nH]c2c(F)ccc(NCc3ccccc3)c12

>  <score_type>  (82) 
oracle

>  <origin>  (82) 
adg

>  <m_score__min__energy>  (82) 
-8.8100000000000005

>  <m_primary>  (82) 
energy

$$$$
82:0
     RDKit          3D

 47 49  0  0  0  0  0  0  0  0999 V2000
   57.2320   24.9770   43.2430 C   0  0  0  0  0  0  0  0  0  0  0  0
   57.7280   25.4840   44.4770 O   0  0  0  0  0  0  0  0  0  0  0  0
   57.9020   26.8480   44.7640 C   0  0  0  0  0  0  0  0  0  0  0  0
   59.0980   27.5260   44.4710 C   0  0  0  0  0  0  0  0  0  0  0  0
   59.2340   28.8820   44.7710 C   0  0  0  0  0  0  0  0  0  0  0  0
   58.1820   29.5910   45.3680 C   0  0  0  0  0  0  0  0  0  0  0  0
   58.3570   31.0320   45.6750 C   0  0  0  0  0  0  0  0  0  0  0  0
   59.3850   31.5610   46.3740 N   0  0  0  0  0  0  0  0  0  0  0  0
   59.1280   32.8810   46.4000 C   0  0  0  0  0  0  0  0  0  0  0  0
   60.0120   33.9120   47.0340 C   0  0  0  0  0  0  0  0  0  0  0  0
   61.1970   33.2690   47.6420 N   0  0  0  0  0  0  0  0  0  0  0  0
   62.4410   33.8110   47.0550 C   0  0  0  0  0  0  0  0  0  0  0  0
   63.6780   32.9310   47.3150 C   0  0  0  0  0  0  0  0  0  0  0  0
   63.8250   32.3940   48.7590 C   0  0  0  0  0  0  0  0  0  0  0  0
   63.6230   33.4180   49.7920 N   0  0  0  0  0  0  0  0  0  0  0  0
   62.2920   34.0620   49.8150 C   0  0  0  0  0  0  0  0  0  0  0  0
   61.1430   33.2830   49.1250 C   0  0  0  0  0  0  0  0  0  0  0  0
   57.9580   33.1180   45.7140 C   0  0  0  0  0  0  0  0  0  0  0  0
   57.5090   31.9620   45.2850 O   0  0  0  0  0  0  0  0  0  0  0  0
   56.9840   28.9140   45.6620 C   0  0  0  0  0  0  0  0  0  0  0  0
   56.8400   27.5440   45.3620 C   0  0  0  0  0  0  0  0  0  0  0  0
   55.6590   26.8390   45.6440 O   0  0  0  0  0  0  0  0  0  0  0  0
   55.6070   25.4760   46.0520 C   0  0  0  0  0  0  0  0  0  0  0  0
   56.4754   24.2037   43.4419 H   0  0  0  0  0  0  0  0  0  0  0  0
   56.7766   25.7958   42.6667 H   0  0  0  0  0  0  0  0  0  0  0  0
   58.0606   24.5397   42.6667 H   0  0  0  0  0  0  0  0  0  0  0  0
   59.9324   26.9839   44.0020 H   0  0  0  0  0  0  0  0  0  0  0  0
   60.1758   29.3998   44.5368 H   0  0  0  0  0  0  0  0  0  0  0  0
   60.2080   31.0810   46.7990 H   0  0  0  0  0  0  0  0  0  0  0  0
   60.3415   34.6285   46.2671 H   0  0  0  0  0  0  0  0  0  0  0  0
   59.4460   34.4341   47.8195 H   0  0  0  0  0  0  0  0  0  0  0  0
   62.3016   33.9029   45.9678 H   0  0  0  0  0  0  0  0  0  0  0  0
   62.6287   34.7825   47.5355 H   0  0  0  0  0  0  0  0  0  0  0  0
   63.6274   32.0670   46.6361 H   0  0  0  0  0  0  0  0  0  0  0  0
   64.5499   33.5797   47.1450 H   0  0  0  0  0  0  0  0  0  0  0  0
   63.0826   31.5965   48.9104 H   0  0  0  0  0  0  0  0  0  0  0  0
   64.8579   32.0305   48.8637 H   0  0  0  0  0  0  0  0  0  0  0  0
   64.3890   34.1300   49.7630 H   0  0  0  0  0  0  0  0  0  0  0  0
   62.0104   34.2131   50.8675 H   0  0  0  0  0  0  0  0  0  0  0  0
   62.4049   34.9921   49.2386 H   0  0  0  0  0  0  0  0  0  0  0  0
   61.1769   32.2416   49.4776 H   0  0  0  0  0  0  0  0  0  0  0  0
   60.2128   33.8050   49.3939 H   0  0  0  0  0  0  0  0  0  0  0  0
   57.4854   34.0984   45.5545 H   0  0  0  0  0  0  0  0  0  0  0  0
   56.1514   29.4592   46.1306 H   0  0  0  0  0  0  0  0  0  0  0  0
   55.6049   25.4220   47.1507 H   0  0  0  0  0  0  0  0  0  0  0  0
   54.6904   25.0107   45.6603 H   0  0  0  0  0  0  0  0  0  0  0  0
   56.4854   24.9422   45.6603 H   0  0  0  0  0  0  0  0  0  0  0  0
  1  2  1  0
  2  3  1  0
  3  4  2  0
  4  5  1  0
  5  6  2  0
  6  7  1  0
  7  8  2  0
  8  9  1  0
  9 10  1  0
 10 11  1  0
 11 12  1  0
 12 13  1  0
 13 14  1  0
 14 15  1  0
 15 16  1  0
 16 17  1  0
  9 18  2  0
 18 19  1  0
  6 20  1  0
 20 21  2  0
 21 22  1  0
 22 23  1  0
 21  3  1  0
 19  7  1  0
 17 11  1  0
  1 24  1  0
  1 25  1  0
  1 26  1  0
  4 27  1  0
  5 28  1  0
  8 29  1  0
 10 30  1  0
 10 31  1  0
 12 32  1  0
 12 33  1  0
 13 34  1  0
 13 35  1  0
 14 36  1  0
 14 37  1  0
 15 38  1  0
 16 39  1  0
 16 40  1  0
 17 41  1  0
 17 42  1  0
 18 43  1  0
 20 44  1  0
 23 45  1  0
 23 46  1  0
 23 47  1  0
M  CHG  1   8   1
M  END
>  <UniqueID>  (83) 
72

>  <SMILES>  (83) 
COc1ccc(-c2[nH+]c(CN3CCCNCC3)co2)cc1OC

>  <Energy>  (83) 
96.67603256705107

>  <Genealogy>  (83) 
COc1ccc(-c2[nH+]c(CN3CCCNCC3)co2)cc1OC (protonated)
COc1ccc(-c2[nH+]c(CN3CCCNCC3)co2)cc1OC (3D coordinates assigned)
COc1ccc(-c2[nH+]c(CN3CCCNCC3)co2)cc1OC (nonaromatic ring conformer: 96.67603256705107 kcal/mol)

>  <smiles>  (83) 
COc1ccc(-c2nc(CN3CCCNCC3)co2)cc1OC

>  <score_type>  (83) 
oracle

>  <origin>  (83) 
adg

>  <m_score__min__energy>  (83) 
-3.0699999999999998

>  <m_primary>  (83) 
energy

$$$$
83:0
     RDKit          3D

 50 52  0  0  0  0  0  0  0  0999 V2000
   56.9900   21.0410   42.9990 C   0  0  0  0  0  0  0  0  0  0  0  0
   55.8950   21.5780   43.7340 O   0  0  0  0  0  0  0  0  0  0  0  0
   55.8660   22.8690   44.2850 C   0  0  0  0  0  0  0  0  0  0  0  0
   56.9030   23.7950   44.0710 C   0  0  0  0  0  0  0  0  0  0  0  0
   56.8500   25.0620   44.6500 C   0  0  0  0  0  0  0  0  0  0  0  0
   55.7670   25.4230   45.4670 C   0  0  0  0  0  0  0  0  0  0  0  0
   55.6950   26.7140   46.0920 N   0  0  0  0  0  0  0  0  0  0  0  0
   56.2670   27.9230   45.5720 C   0  0  0  0  0  0  0  0  0  0  0  0
   55.5420   28.6940   44.8900 O   0  0  0  0  0  0  0  0  0  0  0  0
   57.6730   28.2990   45.8390 C   0  0  0  0  0  0  0  0  0  0  0  0
   58.4200   28.8880   44.8930 C   0  0  0  0  0  0  0  0  0  0  0  0
   59.8160   29.3210   45.2220 C   0  0  0  0  0  0  0  0  0  0  0  0
   59.8390   29.8910   46.5770 N   0  0  0  0  0  0  0  0  0  0  0  0
   60.3820   31.2040   46.7930 C   0  0  0  0  0  0  0  0  0  0  0  0
   61.7220   31.3450   47.1890 C   0  0  0  0  0  0  0  0  0  0  0  0
   62.2750   32.6120   47.3750 C   0  0  0  0  0  0  0  0  0  0  0  0
   61.4950   33.7510   47.1670 C   0  0  0  0  0  0  0  0  0  0  0  0
   60.1600   33.6250   46.7780 C   0  0  0  0  0  0  0  0  0  0  0  0
   59.5880   32.3500   46.5910 C   0  0  0  0  0  0  0  0  0  0  0  0
   58.2440   32.1850   46.2210 O   0  0  0  0  0  0  0  0  0  0  0  0
   57.5280   33.0700   45.3660 C   0  0  0  0  0  0  0  0  0  0  0  0
   59.1070   29.2300   47.6740 C   0  0  0  0  0  0  0  0  0  0  0  0
   58.2990   28.0130   47.1810 C   0  0  0  0  0  0  0  0  0  0  0  0
   54.7160   24.5190   45.6540 C   0  0  0  0  0  0  0  0  0  0  0  0
   54.7620   23.2360   45.0720 C   0  0  0  0  0  0  0  0  0  0  0  0
   53.7350   22.2970   45.2580 O   0  0  0  0  0  0  0  0  0  0  0  0
   53.5750   21.4960   46.4240 C   0  0  0  0  0  0  0  0  0  0  0  0
   57.7526   20.6670   43.6980 H   0  0  0  0  0  0  0  0  0  0  0  0
   56.6362   20.2142   42.3656 H   0  0  0  0  0  0  0  0  0  0  0  0
   57.4271   21.8270   42.3656 H   0  0  0  0  0  0  0  0  0  0  0  0
   57.7619   23.5174   43.4423 H   0  0  0  0  0  0  0  0  0  0  0  0
   57.6607   25.7823   44.4658 H   0  0  0  0  0  0  0  0  0  0  0  0
   58.0112   29.0515   43.8850 H   0  0  0  0  0  0  0  0  0  0  0  0
   60.4906   28.4534   45.1764 H   0  0  0  0  0  0  0  0  0  0  0  0
   60.1484   30.0784   44.4969 H   0  0  0  0  0  0  0  0  0  0  0  0
   62.3399   30.4499   47.3537 H   0  0  0  0  0  0  0  0  0  0  0  0
   63.3254   32.7137   47.6855 H   0  0  0  0  0  0  0  0  0  0  0  0
   61.9331   34.7498   47.3099 H   0  0  0  0  0  0  0  0  0  0  0  0
   59.5505   34.5264   46.6164 H   0  0  0  0  0  0  0  0  0  0  0  0
   56.9519   33.7821   45.9750 H   0  0  0  0  0  0  0  0  0  0  0  0
   58.2377   33.6207   44.7312 H   0  0  0  0  0  0  0  0  0  0  0  0
   56.8412   32.4909   44.7312 H   0  0  0  0  0  0  0  0  0  0  0  0
   59.8307   28.8925   48.4306 H   0  0  0  0  0  0  0  0  0  0  0  0
   58.3990   29.9584   48.0961 H   0  0  0  0  0  0  0  0  0  0  0  0
   58.9704   27.1465   47.0893 H   0  0  0  0  0  0  0  0  0  0  0  0
   57.5001   27.8006   47.9066 H   0  0  0  0  0  0  0  0  0  0  0  0
   53.8462   24.8118   46.2604 H   0  0  0  0  0  0  0  0  0  0  0  0
   53.7002   22.1227   47.3193 H   0  0  0  0  0  0  0  0  0  0  0  0
   52.5699   21.0492   46.4268 H   0  0  0  0  0  0  0  0  0  0  0  0
   54.3313   20.6973   46.4268 H   0  0  0  0  0  0  0  0  0  0  0  0
  1  2  1  0
  2  3  1  0
  3  4  2  0
  4  5  1  0
  5  6  2  0
  6  7  1  0
  7  8  1  0
  8  9  2  0
  8 10  1  0
 10 11  2  0
 11 12  1  0
 12 13  1  0
 13 14  1  0
 14 15  2  0
 15 16  1  0
 16 17  2  0
 17 18  1  0
 18 19  2  0
 19 20  1  0
 20 21  1  0
 13 22  1  0
 22 23  1  0
  6 24  1  0
 24 25  2  0
 25 26  1  0
 26 27  1  0
 25  3  1  0
 23 10  1  0
 19 14  1  0
  1 28  1  0
  1 29  1  0
  1 30  1  0
  4 31  1  0
  5 32  1  0
 11 33  1  0
 12 34  1  0
 12 35  1  0
 15 36  1  0
 16 37  1  0
 17 38  1  0
 18 39  1  0
 21 40  1  0
 21 41  1  0
 21 42  1  0
 22 43  1  0
 22 44  1  0
 23 45  1  0
 23 46  1  0
 24 47  1  0
 27 48  1  0
 27 49  1  0
 27 50  1  0
M  CHG  1   7  -1
M  END
>  <UniqueID>  (84) 
73

>  <SMILES>  (84) 
COc1ccc([N-]C(=O)C2=CCN(c3ccccc3OC)CC2)cc1OC

>  <Energy>  (84) 
60.986476907232536

>  <Genealogy>  (84) 
COc1ccc([N-]C(=O)C2=CCN(c3ccccc3OC)CC2)cc1OC (protonated)
COc1ccc([N-]C(=O)C2=CCN(c3ccccc3OC)CC2)cc1OC (3D coordinates assigned)
COc1ccc([N-]C(=O)C2=CCN(c3ccccc3OC)CC2)cc1OC (nonaromatic ring conformer: 60.986476907232536 kcal/mol)

>  <smiles>  (84) 
COc1ccc(NC(=O)C2=CCN(c3ccccc3OC)CC2)cc1OC

>  <score_type>  (84) 
oracle

>  <origin>  (84) 
adg

>  <m_score__min__energy>  (84) 
-9.9700000000000006

>  <m_primary>  (84) 
energy

$$$$
84:0
     RDKit          3D

 37 39  0  0  0  0  0  0  0  0999 V2000
   60.0190   35.9870   46.0420 O   0  0  0  0  0  0  0  0  0  0  0  0
   59.4240   34.8910   45.8520 C   0  0  0  0  0  0  0  0  0  0  0  0
   58.8920   34.6120   44.5940 C   0  0  0  0  0  0  0  0  0  0  0  0
   58.2450   33.4010   44.3780 C   0  0  0  0  0  0  0  0  0  0  0  0
   58.1410   32.4810   45.4290 C   0  0  0  0  0  0  0  0  0  0  0  0
   57.4780   31.2080   45.2660 N   0  0  0  0  0  0  0  0  0  0  0  0
   57.7820   30.0740   46.1520 C   0  0  0  0  0  0  0  0  0  0  0  0
   57.4890   28.7490   45.4440 C   0  0  0  0  0  0  0  0  0  0  0  0
   56.1880   28.7490   44.8910 O   0  0  0  0  0  0  0  0  0  0  0  0
   56.1120   29.7140   43.8620 C   0  0  0  0  0  0  0  0  0  0  0  0
   56.2710   31.1260   44.4310 C   0  0  0  0  0  0  0  0  0  0  0  0
   58.6860   32.8070   46.6330 N   0  0  0  0  0  0  0  0  0  0  0  0
   59.3020   33.9710   46.8590 N   0  0  0  0  0  0  0  0  0  0  0  0
   59.8490   34.2190   48.2010 C   0  0  0  0  0  0  0  0  0  0  0  0
   60.6980   33.0520   48.6730 C   0  0  0  0  0  0  0  0  0  0  0  0
   61.9530   32.7940   48.0680 C   0  0  0  0  0  0  0  0  0  0  0  0
   62.6220   33.8330   46.8120 Cl  0  0  0  0  0  0  0  0  0  0  0  0
   62.7220   31.7010   48.4780 C   0  0  0  0  0  0  0  0  0  0  0  0
   62.2690   30.8590   49.4900 C   0  0  0  0  0  0  0  0  0  0  0  0
   61.0460   31.1100   50.1110 C   0  0  0  0  0  0  0  0  0  0  0  0
   60.2600   32.1980   49.7180 C   0  0  0  0  0  0  0  0  0  0  0  0
   58.7500   32.4560   50.5900 Cl  0  0  0  0  0  0  0  0  0  0  0  0
   58.9836   35.3446   43.7786 H   0  0  0  0  0  0  0  0  0  0  0  0
   57.8188   33.1674   43.3912 H   0  0  0  0  0  0  0  0  0  0  0  0
   58.8453   30.1078   46.4319 H   0  0  0  0  0  0  0  0  0  0  0  0
   57.1517   30.1449   47.0507 H   0  0  0  0  0  0  0  0  0  0  0  0
   58.2229   28.6015   44.6380 H   0  0  0  0  0  0  0  0  0  0  0  0
   57.5577   27.9346   46.1803 H   0  0  0  0  0  0  0  0  0  0  0  0
   56.9130   29.5268   43.1316 H   0  0  0  0  0  0  0  0  0  0  0  0
   55.1276   29.6370   43.3773 H   0  0  0  0  0  0  0  0  0  0  0  0
   56.3543   31.8439   43.6017 H   0  0  0  0  0  0  0  0  0  0  0  0
   55.3924   31.3632   45.0488 H   0  0  0  0  0  0  0  0  0  0  0  0
   60.4703   35.1263   48.1730 H   0  0  0  0  0  0  0  0  0  0  0  0
   59.0099   34.3445   48.9011 H   0  0  0  0  0  0  0  0  0  0  0  0
   63.6919   31.5048   47.9976 H   0  0  0  0  0  0  0  0  0  0  0  0
   62.8760   29.9955   49.7998 H   0  0  0  0  0  0  0  0  0  0  0  0
   60.6967   30.4471   50.9163 H   0  0  0  0  0  0  0  0  0  0  0  0
  1  2  2  0
  2  3  1  0
  3  4  2  0
  4  5  1  0
  5  6  1  0
  6  7  1  0
  7  8  1  0
  8  9  1  0
  9 10  1  0
 10 11  1  0
  5 12  2  0
 12 13  1  0
 13 14  1  0
 14 15  1  0
 15 16  2  0
 16 17  1  0
 16 18  1  0
 18 19  2  0
 19 20  1  0
 20 21  2  0
 21 22  1  0
 13  2  1  0
 21 15  1  0
 11  6  1  0
  3 23  1  0
  4 24  1  0
  7 25  1  0
  7 26  1  0
  8 27  1  0
  8 28  1  0
 10 29  1  0
 10 30  1  0
 11 31  1  0
 11 32  1  0
 14 33  1  0
 14 34  1  0
 18 35  1  0
 19 36  1  0
 20 37  1  0
M  END
>  <UniqueID>  (85) 
74

>  <SMILES>  (85) 
O=c1ccc(N2CCOCC2)nn1Cc1c(Cl)cccc1Cl

>  <Energy>  (85) 
47.35588866525122

>  <Genealogy>  (85) 
O=c1ccc(N2CCOCC2)nn1Cc1c(Cl)cccc1Cl (3D coordinates assigned)
O=c1ccc(N2CCOCC2)nn1Cc1c(Cl)cccc1Cl (nonaromatic ring conformer: 47.35588866525122 kcal/mol)

>  <smiles>  (85) 
O=c1ccc(N2CCOCC2)nn1Cc1c(Cl)cccc1Cl

>  <score_type>  (85) 
oracle

>  <origin>  (85) 
adg

>  <m_score__min__energy>  (85) 
-7.0599999999999996

>  <m_primary>  (85) 
energy

$$$$
85:0
     RDKit          3D

 41 43  0  0  0  0  0  0  0  0999 V2000
   62.6740   31.2350   49.5140 C   0  0  0  0  0  0  0  0  0  0  0  0
   61.6640   30.8740   48.4600 C   0  0  0  0  0  0  0  0  0  0  0  0
   61.0960   29.6340   48.4680 N   0  0  0  0  0  0  0  0  0  0  0  0
   60.1520   29.2780   47.5560 C   0  0  0  0  0  0  0  0  0  0  0  0
   59.7510   30.1970   46.5730 C   0  0  0  0  0  0  0  0  0  0  0  0
   58.7060   29.8740   45.5690 C   0  0  0  0  0  0  0  0  0  0  0  0
   58.8010   28.7430   44.7370 C   0  0  0  0  0  0  0  0  0  0  0  0
   57.8060   28.4800   43.7920 C   0  0  0  0  0  0  0  0  0  0  0  0
   56.7200   29.3470   43.6810 C   0  0  0  0  0  0  0  0  0  0  0  0
   56.6390   30.4410   44.4820 N   0  0  0  0  0  0  0  0  0  0  0  0
   57.5960   30.7240   45.4070 C   0  0  0  0  0  0  0  0  0  0  0  0
   60.3300   31.4280   46.5610 N   0  0  0  0  0  0  0  0  0  0  0  0
   61.2860   31.7890   47.4570 C   0  0  0  0  0  0  0  0  0  0  0  0
   61.8470   33.1090   47.3870 N   0  0  0  0  0  0  0  0  0  0  0  0
   63.1990   33.3130   46.8670 C   0  0  0  0  0  0  0  0  0  0  0  0
   61.0130   34.2670   47.7160 C   0  0  0  0  0  0  0  0  0  0  0  0
   59.7360   34.2260   46.9210 C   0  0  0  0  0  0  0  0  0  0  0  0
   59.7230   34.6340   45.5770 C   0  0  0  0  0  0  0  0  0  0  0  0
   58.5450   34.5460   44.8280 C   0  0  0  0  0  0  0  0  0  0  0  0
   57.3790   34.0420   45.4100 C   0  0  0  0  0  0  0  0  0  0  0  0
   57.3910   33.6170   46.7420 C   0  0  0  0  0  0  0  0  0  0  0  0
   58.5660   33.7030   47.4950 C   0  0  0  0  0  0  0  0  0  0  0  0
   62.2358   31.0784   50.5107 H   0  0  0  0  0  0  0  0  0  0  0  0
   63.5648   30.5996   49.4011 H   0  0  0  0  0  0  0  0  0  0  0  0
   62.9602   32.2911   49.4011 H   0  0  0  0  0  0  0  0  0  0  0  0
   61.3700   28.9370   49.1970 H   0  0  0  0  0  0  0  0  0  0  0  0
   59.7042   28.2738   47.5883 H   0  0  0  0  0  0  0  0  0  0  0  0
   59.6612   28.0639   44.8309 H   0  0  0  0  0  0  0  0  0  0  0  0
   57.8790   27.5963   43.1411 H   0  0  0  0  0  0  0  0  0  0  0  0
   55.9284   29.1451   42.9444 H   0  0  0  0  0  0  0  0  0  0  0  0
   57.5014   31.6237   46.0327 H   0  0  0  0  0  0  0  0  0  0  0  0
   63.9024   33.4191   47.7060 H   0  0  0  0  0  0  0  0  0  0  0  0
   63.4896   32.4485   46.2520 H   0  0  0  0  0  0  0  0  0  0  0  0
   63.2216   34.2247   46.2520 H   0  0  0  0  0  0  0  0  0  0  0  0
   60.7741   34.2502   48.7896 H   0  0  0  0  0  0  0  0  0  0  0  0
   61.5616   35.1880   47.4694 H   0  0  0  0  0  0  0  0  0  0  0  0
   60.6410   35.0235   45.1126 H   0  0  0  0  0  0  0  0  0  0  0  0
   58.5365   34.8744   43.7782 H   0  0  0  0  0  0  0  0  0  0  0  0
   56.4523   33.9796   44.8207 H   0  0  0  0  0  0  0  0  0  0  0  0
   56.4746   33.2144   47.1982 H   0  0  0  0  0  0  0  0  0  0  0  0
   58.5739   33.3600   48.5401 H   0  0  0  0  0  0  0  0  0  0  0  0
  1  2  1  0
  2  3  2  0
  3  4  1  0
  4  5  2  0
  5  6  1  0
  6  7  2  0
  7  8  1  0
  8  9  2  0
  9 10  1  0
 10 11  2  0
  5 12  1  0
 12 13  2  0
 13 14  1  0
 14 15  1  0
 14 16  1  0
 16 17  1  0
 17 18  2  0
 18 19  1  0
 19 20  2  0
 20 21  1  0
 21 22  2  0
 13  2  1  0
 22 17  1  0
 11  6  1  0
  1 23  1  0
  1 24  1  0
  1 25  1  0
  3 26  1  0
  4 27  1  0
  7 28  1  0
  8 29  1  0
  9 30  1  0
 11 31  1  0
 15 32  1  0
 15 33  1  0
 15 34  1  0
 16 35  1  0
 16 36  1  0
 18 37  1  0
 19 38  1  0
 20 39  1  0
 21 40  1  0
 22 41  1  0
M  CHG  1   3   1
M  END
>  <UniqueID>  (86) 
75

>  <SMILES>  (86) 
Cc1[nH+]cc(-c2cccnc2)nc1N(C)Cc1ccccc1

>  <Energy>  (86) 
50.108879994014984

>  <Genealogy>  (86) 
Cc1[nH+]cc(-c2cccnc2)nc1N(C)Cc1ccccc1 (protonated)
Cc1[nH+]cc(-c2cccnc2)nc1N(C)Cc1ccccc1 (3D coordinates assigned)
Cc1[nH+]cc(-c2cccnc2)nc1N(C)Cc1ccccc1 (optimized conformer: 50.108879994014984 kcal/mol)

>  <smiles>  (86) 
Cc1ncc(-c2cccnc2)nc1N(C)Cc1ccccc1

>  <score_type>  (86) 
oracle

>  <origin>  (86) 
adg

>  <m_score__min__energy>  (86) 
-5.8799999999999999

>  <m_primary>  (86) 
energy

$$$$
86:0
     RDKit          3D

 26 27  0  0  0  0  0  0  0  0999 V2000
   55.3570   29.1730   45.6230 H   0  0  0  0  0  0  0  0  0  0  0  0
   55.2070   29.3440   44.6030 N   0  0  0  0  0  0  0  0  0  0  0  0
   56.3130   29.5550   43.7290 C   0  0  0  0  0  0  0  0  0  0  0  0
   57.0070   28.5770   43.3450 O   0  0  0  0  0  0  0  0  0  0  0  0
   56.6620   30.9430   43.2900 C   0  0  0  0  0  0  0  0  0  0  0  0
   57.2523   30.8917   42.3632 H   0  0  0  0  0  0  0  0  0  0  0  0
   55.7325   31.5054   43.1174 H   0  0  0  0  0  0  0  0  0  0  0  0
   57.4660   31.6460   44.3510 C   0  0  0  0  0  0  0  0  0  0  0  0
   57.7820   31.1220   45.6110 C   0  0  0  0  0  0  0  0  0  0  0  0
   57.4230   29.8370   46.1300 N   0  0  0  0  0  0  0  0  0  0  0  0
   58.2580   28.8540   46.2580 C   0  0  0  0  0  0  0  0  0  0  0  0
   59.3386   29.0566   46.2935 H   0  0  0  0  0  0  0  0  0  0  0  0
   57.7720   27.4720   46.3560 C   0  0  0  0  0  0  0  0  0  0  0  0
   58.2470   26.5010   47.2190 C   0  0  0  0  0  0  0  0  0  0  0  0
   59.0572   26.6098   47.9551 H   0  0  0  0  0  0  0  0  0  0  0  0
   57.4990   25.3680   46.9700 C   0  0  0  0  0  0  0  0  0  0  0  0
   57.5969   24.3932   47.4702 H   0  0  0  0  0  0  0  0  0  0  0  0
   56.6040   25.6960   45.9710 C   0  0  0  0  0  0  0  0  0  0  0  0
   55.8607   25.0092   45.5400 H   0  0  0  0  0  0  0  0  0  0  0  0
   56.7740   26.9780   45.6020 N   0  0  0  0  0  0  0  0  0  0  0  0
   56.2310   27.4880   44.8700 H   0  0  0  0  0  0  0  0  0  0  0  0
   58.4860   32.3260   46.5440 S   0  0  0  0  0  0  0  0  0  0  0  0
   58.4580   33.5160   45.3570 C   0  0  0  0  0  0  0  0  0  0  0  0
   58.8479   34.5391   45.4631 H   0  0  0  0  0  0  0  0  0  0  0  0
   57.8590   32.9890   44.2190 C   0  0  0  0  0  0  0  0  0  0  0  0
   57.7062   33.5706   43.2979 H   0  0  0  0  0  0  0  0  0  0  0  0
  1  2  1  0
  2  3  1  0
  3  4  2  0
  3  5  1  0
  5  6  1  0
  5  7  1  0
  5  8  1  0
  8  9  2  0
  9 10  1  0
 10 11  2  0
 11 12  1  0
 11 13  1  0
 13 14  2  0
 14 15  1  0
 14 16  1  0
 16 17  1  0
 16 18  2  0
 18 19  1  0
 18 20  1  0
 20 21  1  0
  9 22  1  0
 22 23  1  0
 23 24  1  0
 23 25  2  0
 25 26  1  0
 25  8  1  0
 20 13  1  0
M  CHG  1   2  -1
M  END
>  <UniqueID>  (87) 
76

>  <SMILES>  (87) 
[NH-]C(=O)Cc1ccsc1/N=C/c1ccc[nH]1

>  <Energy>  (87) 
79.45081460547551

>  <Genealogy>  (87) 
[NH-]C(=O)Cc1ccsc1N=Cc1ccc[nH]1 (protonated)
[NH-]C(=O)Cc1ccsc1/N=C/c1ccc[nH]1 (cis-trans isomerization)
[NH-]C(=O)Cc1ccsc1/N=C/c1ccc[nH]1 (3D coordinates assigned)
[NH-]C(=O)Cc1ccsc1/N=C/c1ccc[nH]1 (optimized conformer: 79.45081460547551 kcal/mol)

>  <smiles>  (87) 
NC(=O)Cc1ccsc1N=Cc1ccc[nH]1

>  <score_type>  (87) 
oracle

>  <origin>  (87) 
adg

>  <m_score__min__energy>  (87) 
-9.2599999999999998

>  <m_primary>  (87) 
energy

$$$$
87:0
     RDKit          3D

 23 24  0  0  0  0  0  0  0  0999 V2000
   55.0560   28.3040   44.4960 H   0  0  0  0  0  0  0  0  0  0  0  0
   55.1860   29.3390   44.4460 N   0  0  0  0  0  0  0  0  0  0  0  0
   56.2480   29.9570   44.8630 C   0  0  0  0  0  0  0  0  0  0  0  0
   56.3080   31.3100   44.7290 N   0  0  0  0  0  0  0  0  0  0  0  0
   57.3830   32.0330   45.1410 C   0  0  0  0  0  0  0  0  0  0  0  0
   57.3970   33.4210   44.9810 C   0  0  0  0  0  0  0  0  0  0  0  0
   56.5365   33.9294   44.5215 H   0  0  0  0  0  0  0  0  0  0  0  0
   58.5030   34.1650   45.4040 C   0  0  0  0  0  0  0  0  0  0  0  0
   58.5062   35.2575   45.2754 H   0  0  0  0  0  0  0  0  0  0  0  0
   59.6070   33.5320   45.9900 C   0  0  0  0  0  0  0  0  0  0  0  0
   60.6890   34.3270   46.3940 O   0  0  0  0  0  0  0  0  0  0  0  0
   61.9710   33.8200   46.7530 C   0  0  0  0  0  0  0  0  0  0  0  0
   62.0579   33.7856   47.8490 H   0  0  0  0  0  0  0  0  0  0  0  0
   62.0922   32.8062   46.3436 H   0  0  0  0  0  0  0  0  0  0  0  0
   62.7528   34.4767   46.3436 H   0  0  0  0  0  0  0  0  0  0  0  0
   59.5960   32.1320   46.1510 C   0  0  0  0  0  0  0  0  0  0  0  0
   60.4583   31.6258   46.6095 H   0  0  0  0  0  0  0  0  0  0  0  0
   58.4880   31.3820   45.7280 C   0  0  0  0  0  0  0  0  0  0  0  0
   58.4520   29.9910   45.8770 C   0  0  0  0  0  0  0  0  0  0  0  0
   59.3043   29.4662   46.3332 H   0  0  0  0  0  0  0  0  0  0  0  0
   57.3340   29.2650   45.4470 C   0  0  0  0  0  0  0  0  0  0  0  0
   57.3300   27.8300   45.6160 C   0  0  0  0  0  0  0  0  0  0  0  0
   57.3270   26.6810   45.7530 N   0  0  0  0  0  0  0  0  0  0  0  0
  1  2  1  0
  2  3  2  0
  3  4  1  0
  4  5  1  0
  5  6  2  0
  6  7  1  0
  6  8  1  0
  8  9  1  0
  8 10  2  0
 10 11  1  0
 11 12  1  0
 12 13  1  0
 12 14  1  0
 12 15  1  0
 10 16  1  0
 16 17  1  0
 16 18  2  0
 18 19  1  0
 19 20  1  0
 19 21  2  0
 21 22  1  0
 22 23  3  0
 21  3  1  0
 18  5  1  0
M  CHG  1   4  -1
M  END
>  <UniqueID>  (88) 
77

>  <SMILES>  (88) 
[H]/N=c1/[n-]c2ccc(OC)cc2cc1C#N

>  <Energy>  (88) 
27.6349096462946

>  <Genealogy>  (88) 
COc1ccc2[n-]c(=N)c(C#N)cc2c1 (protonated)
[H]/N=c1/[n-]c2ccc(OC)cc2cc1C#N (cis-trans isomerization)
[H]/N=c1/[n-]c2ccc(OC)cc2cc1C#N (3D coordinates assigned)
[H]/N=c1/[n-]c2ccc(OC)cc2cc1C#N (optimized conformer: 27.6349096462946 kcal/mol)

>  <smiles>  (88) 
COc1ccc2[nH]c(=N)c(C#N)cc2c1

>  <score_type>  (88) 
oracle

>  <origin>  (88) 
adg

>  <m_score__min__energy>  (88) 
-7.54

>  <m_primary>  (88) 
energy

$$$$
88:0
     RDKit          3D

 35 37  0  0  0  0  0  0  0  0999 V2000
   59.6590   27.6590   48.5670 C   0  0  0  0  0  0  0  0  0  0  0  0
   58.4290   28.0970   48.0000 O   0  0  0  0  0  0  0  0  0  0  0  0
   58.3150   28.8050   46.7920 C   0  0  0  0  0  0  0  0  0  0  0  0
   58.5860   30.1830   46.7120 C   0  0  0  0  0  0  0  0  0  0  0  0
   58.4490   30.8610   45.5010 C   0  0  0  0  0  0  0  0  0  0  0  0
   58.0470   30.1780   44.3550 C   0  0  0  0  0  0  0  0  0  0  0  0
   57.7770   28.7980   44.4050 C   0  0  0  0  0  0  0  0  0  0  0  0
   57.3930   28.0770   43.2620 O   0  0  0  0  0  0  0  0  0  0  0  0
   58.1770   27.0650   42.6410 C   0  0  0  0  0  0  0  0  0  0  0  0
   57.9060   28.1120   45.6320 C   0  0  0  0  0  0  0  0  0  0  0  0
   57.6230   26.6600   45.7010 C   0  0  0  0  0  0  0  0  0  0  0  0
   58.6790   25.7420   45.6050 C   0  0  0  0  0  0  0  0  0  0  0  0
   58.4370   24.3690   45.6620 C   0  0  0  0  0  0  0  0  0  0  0  0
   57.1260   23.8850   45.8180 C   0  0  0  0  0  0  0  0  0  0  0  0
   56.8350   22.5060   45.8780 C   0  0  0  0  0  0  0  0  0  0  0  0
   58.0880   21.2720   45.7610 Cl  0  0  0  0  0  0  0  0  0  0  0  0
   55.5120   22.0870   46.0380 C   0  0  0  0  0  0  0  0  0  0  0  0
   54.4920   23.0330   46.1360 C   0  0  0  0  0  0  0  0  0  0  0  0
   54.7820   24.3580   46.0760 N   0  0  0  0  0  0  0  0  0  0  0  0
   56.0580   24.8090   45.9210 C   0  0  0  0  0  0  0  0  0  0  0  0
   56.3080   26.1870   45.8660 C   0  0  0  0  0  0  0  0  0  0  0  0
   55.2510   27.0860   45.9880 O   0  0  0  0  0  0  0  0  0  0  0  0
   59.5867   27.6848   49.6643 H   0  0  0  0  0  0  0  0  0  0  0  0
   59.8691   26.6308   48.2374 H   0  0  0  0  0  0  0  0  0  0  0  0
   60.4717   28.3230   48.2374 H   0  0  0  0  0  0  0  0  0  0  0  0
   58.9081   30.7295   47.6107 H   0  0  0  0  0  0  0  0  0  0  0  0
   58.6592   31.9395   45.4503 H   0  0  0  0  0  0  0  0  0  0  0  0
   57.9400   30.7214   43.4046 H   0  0  0  0  0  0  0  0  0  0  0  0
   58.6562   26.4464   43.4141 H   0  0  0  0  0  0  0  0  0  0  0  0
   57.5304   26.4331   42.0144 H   0  0  0  0  0  0  0  0  0  0  0  0
   58.9504   27.5332   42.0144 H   0  0  0  0  0  0  0  0  0  0  0  0
   59.7091   26.1083   45.4835 H   0  0  0  0  0  0  0  0  0  0  0  0
   59.2759   23.6617   45.5845 H   0  0  0  0  0  0  0  0  0  0  0  0
   55.2754   21.0138   46.0866 H   0  0  0  0  0  0  0  0  0  0  0  0
   53.4497   22.7048   46.2623 H   0  0  0  0  0  0  0  0  0  0  0  0
  1  2  1  0
  2  3  1  0
  3  4  2  0
  4  5  1  0
  5  6  2  0
  6  7  1  0
  7  8  1  0
  8  9  1  0
  7 10  2  0
 10 11  1  0
 11 12  2  0
 12 13  1  0
 13 14  2  0
 14 15  1  0
 15 16  1  0
 15 17  2  0
 17 18  1  0
 18 19  2  0
 19 20  1  0
 20 21  2  0
 21 22  1  0
 10  3  1  0
 21 11  1  0
 20 14  1  0
  1 23  1  0
  1 24  1  0
  1 25  1  0
  4 26  1  0
  5 27  1  0
  6 28  1  0
  9 29  1  0
  9 30  1  0
  9 31  1  0
 12 32  1  0
 13 33  1  0
 17 34  1  0
 18 35  1  0
M  CHG  1  22  -1
M  END
>  <UniqueID>  (89) 
78

>  <SMILES>  (89) 
COc1cccc(OC)c1-c1ccc2c(Cl)ccnc2c1[O-]

>  <Energy>  (89) 
49.97440754923869

>  <Genealogy>  (89) 
COc1cccc(OC)c1-c1ccc2c(Cl)ccnc2c1[O-] (protonated)
COc1cccc(OC)c1-c1ccc2c(Cl)ccnc2c1[O-] (3D coordinates assigned)
COc1cccc(OC)c1-c1ccc2c(Cl)ccnc2c1[O-] (optimized conformer: 49.97440754923869 kcal/mol)

>  <smiles>  (89) 
COc1cccc(OC)c1-c1ccc2c(Cl)ccnc2c1O

>  <score_type>  (89) 
oracle

>  <origin>  (89) 
adg

>  <m_score__min__energy>  (89) 
-9.3399999999999999

>  <m_primary>  (89) 
energy

$$$$
89:0
     RDKit          3D

 39 41  0  0  0  0  0  0  0  0999 V2000
   57.6650   25.0680   47.8850 O   0  0  0  0  0  0  0  0  0  0  0  0
   58.5280   25.6510   47.1760 C   0  0  0  0  0  0  0  0  0  0  0  0
   59.0130   24.9920   45.9980 N   0  0  0  0  0  0  0  0  0  0  0  0
   58.2310   24.2160   45.0810 C   0  0  0  0  0  0  0  0  0  0  0  0
   58.3800   22.8230   45.0750 C   0  0  0  0  0  0  0  0  0  0  0  0
   57.6210   22.0340   44.2050 C   0  0  0  0  0  0  0  0  0  0  0  0
   56.6930   22.6290   43.3450 C   0  0  0  0  0  0  0  0  0  0  0  0
   55.9440   21.8320   42.4830 O   0  0  0  0  0  0  0  0  0  0  0  0
   56.5210   24.0190   43.3630 C   0  0  0  0  0  0  0  0  0  0  0  0
   57.2780   24.8100   44.2320 C   0  0  0  0  0  0  0  0  0  0  0  0
   59.0890   26.9440   47.6320 C   0  0  0  0  0  0  0  0  0  0  0  0
   60.1370   26.9180   48.5700 C   0  0  0  0  0  0  0  0  0  0  0  0
   60.6440   28.1030   49.1030 C   0  0  0  0  0  0  0  0  0  0  0  0
   60.1090   29.3290   48.7140 C   0  0  0  0  0  0  0  0  0  0  0  0
   59.0760   29.3770   47.7770 C   0  0  0  0  0  0  0  0  0  0  0  0
   58.5620   28.1950   47.2110 C   0  0  0  0  0  0  0  0  0  0  0  0
   57.5340   28.3110   46.1470 C   0  0  0  0  0  0  0  0  0  0  0  0
   57.1360   27.2750   45.5460 O   0  0  0  0  0  0  0  0  0  0  0  0
   56.9200   29.5740   45.8690 N   0  0  0  0  0  0  0  0  0  0  0  0
   57.0800   30.3150   44.6530 C   0  0  0  0  0  0  0  0  0  0  0  0
   56.4940   29.8110   43.4840 C   0  0  0  0  0  0  0  0  0  0  0  0
   56.6210   30.4980   42.2750 C   0  0  0  0  0  0  0  0  0  0  0  0
   57.3200   31.7050   42.2260 C   0  0  0  0  0  0  0  0  0  0  0  0
   57.4760   32.5690   40.7070 Cl  0  0  0  0  0  0  0  0  0  0  0  0
   57.8800   32.2350   43.3930 C   0  0  0  0  0  0  0  0  0  0  0  0
   57.7570   31.5530   44.6100 C   0  0  0  0  0  0  0  0  0  0  0  0
   58.3770   32.3310   46.0630 Cl  0  0  0  0  0  0  0  0  0  0  0  0
   59.0983   22.3470   45.7587 H   0  0  0  0  0  0  0  0  0  0  0  0
   57.7544   20.9422   44.1972 H   0  0  0  0  0  0  0  0  0  0  0  0
   55.9940   21.9480   41.4770 H   0  0  0  0  0  0  0  0  0  0  0  0
   55.7880   24.4895   42.6912 H   0  0  0  0  0  0  0  0  0  0  0  0
   57.1287   25.8996   44.2525 H   0  0  0  0  0  0  0  0  0  0  0  0
   60.5609   25.9535   48.8863 H   0  0  0  0  0  0  0  0  0  0  0  0
   61.4675   28.0694   49.8315 H   0  0  0  0  0  0  0  0  0  0  0  0
   60.5016   30.2612   49.1463 H   0  0  0  0  0  0  0  0  0  0  0  0
   58.6586   30.3496   47.4772 H   0  0  0  0  0  0  0  0  0  0  0  0
   55.9299   28.8673   43.5191 H   0  0  0  0  0  0  0  0  0  0  0  0
   56.1695   30.0873   41.3599 H   0  0  0  0  0  0  0  0  0  0  0  0
   58.4199   33.1926   43.3547 H   0  0  0  0  0  0  0  0  0  0  0  0
  1  2  2  0
  2  3  1  0
  3  4  1  0
  4  5  2  0
  5  6  1  0
  6  7  2  0
  7  8  1  0
  7  9  1  0
  9 10  2  0
  2 11  1  0
 11 12  2  0
 12 13  1  0
 13 14  2  0
 14 15  1  0
 15 16  2  0
 16 17  1  0
 17 18  2  0
 17 19  1  0
 19 20  1  0
 20 21  2  0
 21 22  1  0
 22 23  2  0
 23 24  1  0
 23 25  1  0
 25 26  2  0
 26 27  1  0
 10  4  1  0
 16 11  1  0
 26 20  1  0
  5 28  1  0
  6 29  1  0
  8 30  1  0
  9 31  1  0
 10 32  1  0
 12 33  1  0
 13 34  1  0
 14 35  1  0
 15 36  1  0
 21 37  1  0
 22 38  1  0
 25 39  1  0
M  CHG  2   3  -1  19  -1
M  END
>  <UniqueID>  (90) 
79

>  <SMILES>  (90) 
O=C([N-]c1ccc(O)cc1)c1ccccc1C(=O)[N-]c1ccc(Cl)cc1Cl

>  <Energy>  (90) 
60.905455889978754

>  <Genealogy>  (90) 
O=C([N-]c1ccc(O)cc1)c1ccccc1C(=O)[N-]c1ccc(Cl)cc1Cl (protonated)
O=C([N-]c1ccc(O)cc1)c1ccccc1C(=O)[N-]c1ccc(Cl)cc1Cl (3D coordinates assigned)
O=C([N-]c1ccc(O)cc1)c1ccccc1C(=O)[N-]c1ccc(Cl)cc1Cl (optimized conformer: 60.905455889978754 kcal/mol)

>  <smiles>  (90) 
O=C(Nc1ccc(O)cc1)c1ccccc1C(=O)Nc1ccc(Cl)cc1Cl

>  <score_type>  (90) 
oracle

>  <origin>  (90) 
adg

>  <m_score__min__energy>  (90) 
-12.75

>  <m_primary>  (90) 
energy

$$$$
90:0
     RDKit          3D

 63 67  0  0  0  0  0  0  0  0999 V2000
   59.8280   35.4950   55.2310 C   0  0  0  0  0  0  0  0  0  0  0  0
   60.3710   34.6720   54.2040 O   0  0  0  0  0  0  0  0  0  0  0  0
   59.6460   33.6940   53.5080 C   0  0  0  0  0  0  0  0  0  0  0  0
   58.5240   34.0930   52.7730 C   0  0  0  0  0  0  0  0  0  0  0  0
   57.7690   33.1560   52.0620 C   0  0  0  0  0  0  0  0  0  0  0  0
   58.1270   31.7990   52.0790 C   0  0  0  0  0  0  0  0  0  0  0  0
   57.3420   30.7880   51.2900 C   0  0  0  0  0  0  0  0  0  0  0  0
   58.2340   29.9940   50.4530 N   0  0  0  0  0  0  0  0  0  0  0  0
   58.9590   30.5220   49.3370 C   0  0  0  0  0  0  0  0  0  0  0  0
   58.4960   30.3910   48.1730 O   0  0  0  0  0  0  0  0  0  0  0  0
   60.2470   31.2130   49.5670 C   0  0  0  0  0  0  0  0  0  0  0  0
   61.4380   30.5380   49.8280 C   0  0  0  0  0  0  0  0  0  0  0  0
   62.3980   31.5170   49.9320 C   0  0  0  0  0  0  0  0  0  0  0  0
   63.7680   31.4030   50.1620 C   0  0  0  0  0  0  0  0  0  0  0  0
   64.5310   32.5840   50.1870 C   0  0  0  0  0  0  0  0  0  0  0  0
   66.2600   32.5000   50.4700 Cl  0  0  0  0  0  0  0  0  0  0  0  0
   63.9120   33.8350   49.9770 C   0  0  0  0  0  0  0  0  0  0  0  0
   62.5260   33.9190   49.7470 C   0  0  0  0  0  0  0  0  0  0  0  0
   61.7850   32.7290   49.7360 C   0  0  0  0  0  0  0  0  0  0  0  0
   60.4580   32.5620   49.5190 N   0  0  0  0  0  0  0  0  0  0  0  0
   59.4730   33.6160   49.2290 C   0  0  0  0  0  0  0  0  0  0  0  0
   59.0310   33.5630   47.7860 C   0  0  0  0  0  0  0  0  0  0  0  0
   59.9310   33.8550   46.7490 C   0  0  0  0  0  0  0  0  0  0  0  0
   59.5170   33.7980   45.4150 C   0  0  0  0  0  0  0  0  0  0  0  0
   58.1950   33.4690   45.0950 C   0  0  0  0  0  0  0  0  0  0  0  0
   57.8350   33.4080   43.7380 O   0  0  0  0  0  0  0  0  0  0  0  0
   57.8970   32.2380   42.9190 C   0  0  0  0  0  0  0  0  0  0  0  0
   57.5650   31.0000   43.7120 C   0  0  0  0  0  0  0  0  0  0  0  0
   58.5620   30.3400   44.4530 C   0  0  0  0  0  0  0  0  0  0  0  0
   58.2480   29.2020   45.2020 C   0  0  0  0  0  0  0  0  0  0  0  0
   56.9360   28.7190   45.2270 C   0  0  0  0  0  0  0  0  0  0  0  0
   55.9350   29.3780   44.5050 C   0  0  0  0  0  0  0  0  0  0  0  0
   56.2450   30.5180   43.7550 C   0  0  0  0  0  0  0  0  0  0  0  0
   57.2810   33.2160   46.1350 C   0  0  0  0  0  0  0  0  0  0  0  0
   57.6960   33.2670   47.4680 C   0  0  0  0  0  0  0  0  0  0  0  0
   59.2580   31.3950   52.8070 C   0  0  0  0  0  0  0  0  0  0  0  0
   60.0100   32.3320   53.5220 C   0  0  0  0  0  0  0  0  0  0  0  0
   60.1002   35.0825   56.2137 H   0  0  0  0  0  0  0  0  0  0  0  0
   60.2318   36.5138   55.1364 H   0  0  0  0  0  0  0  0  0  0  0  0
   58.7325   35.5246   55.1364 H   0  0  0  0  0  0  0  0  0  0  0  0
   58.2336   35.1538   52.7547 H   0  0  0  0  0  0  0  0  0  0  0  0
   56.8905   33.4835   51.4867 H   0  0  0  0  0  0  0  0  0  0  0  0
   56.8075   30.1223   51.9837 H   0  0  0  0  0  0  0  0  0  0  0  0
   56.6241   31.3168   50.6458 H   0  0  0  0  0  0  0  0  0  0  0  0
   61.5800   29.4519   49.9294 H   0  0  0  0  0  0  0  0  0  0  0  0
   64.2374   30.4206   50.3189 H   0  0  0  0  0  0  0  0  0  0  0  0
   64.5183   34.7526   49.9932 H   0  0  0  0  0  0  0  0  0  0  0  0
   62.0381   34.8907   49.5806 H   0  0  0  0  0  0  0  0  0  0  0  0
   58.5964   33.4774   49.8788 H   0  0  0  0  0  0  0  0  0  0  0  0
   59.9413   34.5936   49.4159 H   0  0  0  0  0  0  0  0  0  0  0  0
   60.9689   34.1305   46.9877 H   0  0  0  0  0  0  0  0  0  0  0  0
   60.2359   34.0134   44.6107 H   0  0  0  0  0  0  0  0  0  0  0  0
   57.1771   32.3392   42.0935 H   0  0  0  0  0  0  0  0  0  0  0  0
   58.9212   32.1386   42.5302 H   0  0  0  0  0  0  0  0  0  0  0  0
   59.5938   30.7211   44.4431 H   0  0  0  0  0  0  0  0  0  0  0  0
   59.0342   28.6858   45.7725 H   0  0  0  0  0  0  0  0  0  0  0  0
   56.6910   27.8215   45.8139 H   0  0  0  0  0  0  0  0  0  0  0  0
   54.9025   28.9993   44.5270 H   0  0  0  0  0  0  0  0  0  0  0  0
   55.4530   31.0389   43.1970 H   0  0  0  0  0  0  0  0  0  0  0  0
   56.2341   32.9768   45.8969 H   0  0  0  0  0  0  0  0  0  0  0  0
   56.9722   33.0740   48.2735 H   0  0  0  0  0  0  0  0  0  0  0  0
   59.5538   30.3356   52.8147 H   0  0  0  0  0  0  0  0  0  0  0  0
   60.8887   32.0054   54.0975 H   0  0  0  0  0  0  0  0  0  0  0  0
  1  2  1  0
  2  3  1  0
  3  4  2  0
  4  5  1  0
  5  6  2  0
  6  7  1  0
  7  8  1  0
  8  9  1  0
  9 10  2  0
  9 11  1  0
 11 12  2  0
 12 13  1  0
 13 14  2  0
 14 15  1  0
 15 16  1  0
 15 17  2  0
 17 18  1  0
 18 19  2  0
 19 20  1  0
 20 21  1  0
 21 22  1  0
 22 23  2  0
 23 24  1  0
 24 25  2  0
 25 26  1  0
 26 27  1  0
 27 28  1  0
 28 29  2  0
 29 30  1  0
 30 31  2  0
 31 32  1  0
 32 33  2  0
 25 34  1  0
 34 35  2  0
  6 36  1  0
 36 37  2  0
 37  3  1  0
 20 11  1  0
 35 22  1  0
 19 13  1  0
 33 28  1  0
  1 38  1  0
  1 39  1  0
  1 40  1  0
  4 41  1  0
  5 42  1  0
  7 43  1  0
  7 44  1  0
 12 45  1  0
 14 46  1  0
 17 47  1  0
 18 48  1  0
 21 49  1  0
 21 50  1  0
 23 51  1  0
 24 52  1  0
 27 53  1  0
 27 54  1  0
 29 55  1  0
 30 56  1  0
 31 57  1  0
 32 58  1  0
 33 59  1  0
 34 60  1  0
 35 61  1  0
 36 62  1  0
 37 63  1  0
M  CHG  1   8  -1
M  END
>  <UniqueID>  (91) 
80

>  <SMILES>  (91) 
COc1ccc(C[N-]C(=O)c2cc3cc(Cl)ccc3n2Cc2ccc(OCc3ccccc3)cc2)cc1

>  <Energy>  (91) 
100.253897066383

>  <Genealogy>  (91) 
COc1ccc(C[N-]C(=O)c2cc3cc(Cl)ccc3n2Cc2ccc(OCc3ccccc3)cc2)cc1 (protonated)
COc1ccc(C[N-]C(=O)c2cc3cc(Cl)ccc3n2Cc2ccc(OCc3ccccc3)cc2)cc1 (3D coordinates assigned)
COc1ccc(C[N-]C(=O)c2cc3cc(Cl)ccc3n2Cc2ccc(OCc3ccccc3)cc2)cc1 (optimized conformer: 100.253897066383 kcal/mol)

>  <smiles>  (91) 
COc1ccc(CNC(=O)c2cc3cc(Cl)ccc3n2Cc2ccc(OCc3ccccc3)cc2)cc1

>  <score_type>  (91) 
oracle

>  <origin>  (91) 
adg

>  <m_score__min__energy>  (91) 
-10.93

>  <m_primary>  (91) 
energy

$$$$
91:0
     RDKit          3D

 50 52  0  0  0  0  0  0  0  0999 V2000
   59.0580   34.7400   44.9000 C   0  0  0  0  0  0  0  0  0  0  0  0
   58.0820   33.7780   45.4960 C   0  0  0  0  0  0  0  0  0  0  0  0
   57.0200   34.2160   46.0120 O   0  0  0  0  0  0  0  0  0  0  0  0
   58.3960   32.3300   45.5790 C   0  0  0  0  0  0  0  0  0  0  0  0
   58.2270   31.5610   44.4730 C   0  0  0  0  0  0  0  0  0  0  0  0
   57.7510   32.1320   43.1660 C   0  0  0  0  0  0  0  0  0  0  0  0
   58.5280   30.1590   44.5070 N   0  0  0  0  0  0  0  0  0  0  0  0
   58.7720   29.5120   45.6040 C   0  0  0  0  0  0  0  0  0  0  0  0
   59.1070   27.7430   45.4970 S   0  0  0  0  0  0  0  0  0  0  0  0
   57.7390   27.2110   46.5940 C   0  0  0  0  0  0  0  0  0  0  0  0
   56.3790   27.3840   45.9710 C   0  0  0  0  0  0  0  0  0  0  0  0
   56.1610   28.3940   45.2520 O   0  0  0  0  0  0  0  0  0  0  0  0
   55.3900   26.3450   46.0010 N   0  0  0  0  0  0  0  0  0  0  0  0
   55.5480   24.9740   45.6100 C   0  0  0  0  0  0  0  0  0  0  0  0
   56.5940   24.6350   44.7420 C   0  0  0  0  0  0  0  0  0  0  0  0
   56.7460   23.3170   44.2980 C   0  0  0  0  0  0  0  0  0  0  0  0
   55.8380   22.3340   44.7010 C   0  0  0  0  0  0  0  0  0  0  0  0
   55.9820   21.0580   44.2650 F   0  0  0  0  0  0  0  0  0  0  0  0
   54.7740   22.6690   45.5430 C   0  0  0  0  0  0  0  0  0  0  0  0
   54.6220   23.9860   45.9870 C   0  0  0  0  0  0  0  0  0  0  0  0
   58.5690   30.2100   46.9310 C   0  0  1  0  0  0  0  0  0  0  0  0
   59.1910   29.4630   48.0450 C   0  0  0  0  0  0  0  0  0  0  0  0
   59.6840   28.8820   48.9170 N   0  0  0  0  0  0  0  0  0  0  0  0
   59.0210   31.7120   46.8550 C   0  0  0  0  0  0  0  0  0  0  0  0
   60.5740   31.8110   46.7550 C   0  0  0  0  0  0  0  0  0  0  0  0
   61.1050   33.2520   46.9380 C   0  0  0  0  0  0  0  0  0  0  0  0
   60.1740   34.1410   47.5310 O   0  0  0  0  0  0  0  0  0  0  0  0
   59.5330   33.5300   48.6290 C   0  0  0  0  0  0  0  0  0  0  0  0
   58.5450   32.4510   48.1540 C   0  0  0  0  0  0  0  0  0  0  0  0
   59.5920   35.2664   45.7048 H   0  0  0  0  0  0  0  0  0  0  0  0
   59.7807   34.1912   44.2782 H   0  0  0  0  0  0  0  0  0  0  0  0
   58.5197   35.4705   44.2782 H   0  0  0  0  0  0  0  0  0  0  0  0
   57.0577   32.9637   43.3600 H   0  0  0  0  0  0  0  0  0  0  0  0
   58.6134   32.5001   42.5909 H   0  0  0  0  0  0  0  0  0  0  0  0
   57.2337   31.3499   42.5909 H   0  0  0  0  0  0  0  0  0  0  0  0
   57.8794   26.1476   46.8377 H   0  0  0  0  0  0  0  0  0  0  0  0
   57.7718   27.8476   47.4905 H   0  0  0  0  0  0  0  0  0  0  0  0
   57.2999   25.4095   44.4076 H   0  0  0  0  0  0  0  0  0  0  0  0
   57.5806   23.0543   43.6314 H   0  0  0  0  0  0  0  0  0  0  0  0
   54.0562   21.8966   45.8563 H   0  0  0  0  0  0  0  0  0  0  0  0
   53.7732   24.2504   46.6348 H   0  0  0  0  0  0  0  0  0  0  0  0
   57.4913   30.2229   47.1509 H   0  0  0  0  0  0  0  0  0  0  0  0
   61.0160   31.1737   47.5350 H   0  0  0  0  0  0  0  0  0  0  0  0
   60.8583   31.4835   45.7441 H   0  0  0  0  0  0  0  0  0  0  0  0
   61.9995   33.2119   47.5769 H   0  0  0  0  0  0  0  0  0  0  0  0
   61.3186   33.6414   45.9317 H   0  0  0  0  0  0  0  0  0  0  0  0
   60.2913   33.0648   49.2760 H   0  0  0  0  0  0  0  0  0  0  0  0
   58.9753   34.2988   49.1840 H   0  0  0  0  0  0  0  0  0  0  0  0
   58.4256   31.7078   48.9561 H   0  0  0  0  0  0  0  0  0  0  0  0
   57.5968   32.9554   47.9164 H   0  0  0  0  0  0  0  0  0  0  0  0
  1  2  1  0
  2  3  2  0
  2  4  1  0
  4  5  2  0
  5  6  1  0
  5  7  1  0
  7  8  2  0
  8  9  1  0
  9 10  1  0
 10 11  1  0
 11 12  2  0
 11 13  1  0
 13 14  1  0
 14 15  2  0
 15 16  1  0
 16 17  2  0
 17 18  1  0
 17 19  1  0
 19 20  2  0
  8 21  1  0
 21 22  1  0
 22 23  3  0
 21 24  1  0
 24 25  1  0
 25 26  1  0
 26 27  1  0
 27 28  1  0
 28 29  1  0
 24  4  1  0
 20 14  1  0
 29 24  1  0
  1 30  1  0
  1 31  1  0
  1 32  1  0
  6 33  1  0
  6 34  1  0
  6 35  1  0
 10 36  1  0
 10 37  1  0
 15 38  1  0
 16 39  1  0
 19 40  1  0
 20 41  1  0
 21 42  1  1
 25 43  1  0
 25 44  1  0
 26 45  1  0
 26 46  1  0
 28 47  1  0
 28 48  1  0
 29 49  1  0
 29 50  1  0
M  CHG  1  13  -1
M  END
>  <UniqueID>  (92) 
81

>  <SMILES>  (92) 
CC(=O)C1=C(C)N=C(SCC(=O)[N-]c2ccc(F)cc2)[C@@H](C#N)C12CCOCC2

>  <Energy>  (92) 
76.77331590762107

>  <Genealogy>  (92) 
CC(=O)C1=C(C)N=C(SCC(=O)[N-]c2ccc(F)cc2)C(C#N)C12CCOCC2 (protonated)
CC(=O)C1=C(C)N=C(SCC(=O)[N-]c2ccc(F)cc2)[C@@H](C#N)C12CCOCC2 (chirality)
CC(=O)C1=C(C)N=C(SCC(=O)[N-]c2ccc(F)cc2)[C@@H](C#N)C12CCOCC2 (3D coordinates assigned)
CC(=O)C1=C(C)N=C(SCC(=O)[N-]c2ccc(F)cc2)[C@@H](C#N)C12CCOCC2 (nonaromatic ring conformer: 76.77331590762107 kcal/mol)

>  <smiles>  (92) 
CC(=O)C1=C(C)N=C(SCC(=O)Nc2ccc(F)cc2)C(C#N)C12CCOCC2

>  <score_type>  (92) 
oracle

>  <origin>  (92) 
adg

>  <m_score__min__energy>  (92) 
-10.43

>  <m_primary>  (92) 
energy

$$$$
92:0
     RDKit          3D

 43 46  0  0  0  0  0  0  0  0999 V2000
   54.8117   24.8131   46.1141 H   0  0  0  0  0  0  0  0  0  0  0  0
   55.6840   25.3650   45.7340 C   0  0  0  0  0  0  0  0  0  0  0  0
   55.7910   26.6990   45.9710 N   0  0  0  0  0  0  0  0  0  0  0  0
   56.8410   27.4370   45.5210 C   0  0  0  0  0  0  0  0  0  0  0  0
   56.9240   28.7120   45.7690 N   0  0  0  0  0  0  0  0  0  0  0  0
   56.5440   29.7730   44.8780 C   0  0  0  0  0  0  0  0  0  0  0  0
   55.5460   29.6000   44.1290 O   0  0  0  0  0  0  0  0  0  0  0  0
   57.2470   31.0790   44.8560 C   0  0  0  0  0  0  0  0  0  0  0  0
   57.4230   31.7770   43.6490 C   0  0  0  0  0  0  0  0  0  0  0  0
   57.0299   31.3540   42.7127 H   0  0  0  0  0  0  0  0  0  0  0  0
   58.0920   33.0020   43.6270 C   0  0  0  0  0  0  0  0  0  0  0  0
   58.2147   33.5428   42.6770 H   0  0  0  0  0  0  0  0  0  0  0  0
   58.6080   33.5450   44.8120 C   0  0  0  0  0  0  0  0  0  0  0  0
   59.2830   34.7770   44.8010 C   0  0  0  0  0  0  0  0  0  0  0  0
   59.4081   35.3263   43.8562 H   0  0  0  0  0  0  0  0  0  0  0  0
   59.7960   35.3060   45.9890 C   0  0  0  0  0  0  0  0  0  0  0  0
   60.3226   36.2717   45.9767 H   0  0  0  0  0  0  0  0  0  0  0  0
   59.6420   34.6120   47.1920 C   0  0  0  0  0  0  0  0  0  0  0  0
   60.0478   35.0334   48.1235 H   0  0  0  0  0  0  0  0  0  0  0  0
   58.9740   33.3840   47.2160 C   0  0  0  0  0  0  0  0  0  0  0  0
   58.8564   32.8415   48.1656 H   0  0  0  0  0  0  0  0  0  0  0  0
   58.4530   32.8420   46.0300 C   0  0  0  0  0  0  0  0  0  0  0  0
   57.7790   31.6120   46.0420 C   0  0  0  0  0  0  0  0  0  0  0  0
   57.6661   31.0606   46.9871 H   0  0  0  0  0  0  0  0  0  0  0  0
   57.8640   26.8090   44.8120 C   0  0  0  0  0  0  0  0  0  0  0  0
   58.7287   27.3895   44.4579 H   0  0  0  0  0  0  0  0  0  0  0  0
   57.7850   25.4400   44.5540 C   0  0  0  0  0  0  0  0  0  0  0  0
   58.5920   24.9462   43.9928 H   0  0  0  0  0  0  0  0  0  0  0  0
   56.6820   24.6790   45.0040 C   0  0  0  0  0  0  0  0  0  0  0  0
   56.5830   23.2460   44.7370 N   0  0  0  0  0  0  0  0  0  0  0  0
   55.6200   22.4320   45.5090 C   0  0  0  0  0  0  0  0  0  0  0  0
   55.8326   22.5644   46.5801 H   0  0  0  0  0  0  0  0  0  0  0  0
   54.6124   22.7794   45.2368 H   0  0  0  0  0  0  0  0  0  0  0  0
   55.6830   20.9370   45.1840 C   0  0  0  0  0  0  0  0  0  0  0  0
   56.5074   20.4803   45.7512 H   0  0  0  0  0  0  0  0  0  0  0  0
   54.7226   20.4779   45.4614 H   0  0  0  0  0  0  0  0  0  0  0  0
   55.8990   20.7270   43.8090 O   0  0  0  0  0  0  0  0  0  0  0  0
   57.2060   21.1460   43.4970 C   0  0  0  0  0  0  0  0  0  0  0  0
   57.9114   20.6748   44.1973 H   0  0  0  0  0  0  0  0  0  0  0  0
   57.4316   20.8475   42.4626 H   0  0  0  0  0  0  0  0  0  0  0  0
   57.3360   22.6670   43.6040 C   0  0  0  0  0  0  0  0  0  0  0  0
   58.3998   22.9174   43.7290 H   0  0  0  0  0  0  0  0  0  0  0  0
   56.9120   23.0931   42.6828 H   0  0  0  0  0  0  0  0  0  0  0  0
  1  2  1  0
  2  3  1  0
  3  4  1  0
  4  5  2  0
  5  6  1  0
  6  7  2  0
  6  8  1  0
  8  9  2  0
  9 10  1  0
  9 11  1  0
 11 12  1  0
 11 13  2  0
 13 14  1  0
 14 15  1  0
 14 16  2  0
 16 17  1  0
 16 18  1  0
 18 19  1  0
 18 20  2  0
 20 21  1  0
 20 22  1  0
 22 23  2  0
 23 24  1  0
  4 25  1  0
 25 26  1  0
 25 27  2  0
 27 28  1  0
 27 29  1  0
 29 30  1  0
 30 31  1  0
 31 32  1  0
 31 33  1  0
 31 34  1  0
 34 35  1  0
 34 36  1  0
 34 37  1  0
 37 38  1  0
 38 39  1  0
 38 40  1  0
 38 41  1  0
 41 42  1  0
 41 43  1  0
 29  2  2  0
 41 30  1  0
 23  8  1  0
 22 13  1  0
M  CHG  1   3  -1
M  END
>  <UniqueID>  (93) 
82

>  <SMILES>  (93) 
O=C(/N=c1/ccc(N2CCOCC2)c[n-]1)c1ccc2ccccc2c1

>  <Energy>  (93) 
65.96695884753873

>  <Genealogy>  (93) 
O=C(N=c1ccc(N2CCOCC2)c[n-]1)c1ccc2ccccc2c1 (protonated)
O=C(/N=c1/ccc(N2CCOCC2)c[n-]1)c1ccc2ccccc2c1 (cis-trans isomerization)
O=C(/N=c1/ccc(N2CCOCC2)c[n-]1)c1ccc2ccccc2c1 (3D coordinates assigned)
O=C(/N=c1/ccc(N2CCOCC2)c[n-]1)c1ccc2ccccc2c1 (nonaromatic ring conformer: 65.96695884753873 kcal/mol)

>  <smiles>  (93) 
O=C(N=c1ccc(N2CCOCC2)c[nH]1)c1ccc2ccccc2c1

>  <score_type>  (93) 
oracle

>  <origin>  (93) 
adg

>  <m_score__min__energy>  (93) 
-10.800000000000001

>  <m_primary>  (93) 
energy

$$$$
93:0
     RDKit          3D

 44 46  0  0  0  0  0  0  0  0999 V2000
   58.3778   34.1051   43.9988 H   0  0  0  0  0  0  0  0  0  0  0  0
   58.1110   33.5580   44.9150 C   0  0  0  0  0  0  0  0  0  0  0  0
   57.0110   32.7960   44.8990 C   0  0  0  0  0  0  0  0  0  0  0  0
   56.0571   33.2061   45.2623 H   0  0  0  0  0  0  0  0  0  0  0  0
   57.0800   31.1430   44.3010 S   0  0  0  0  0  0  0  0  0  0  0  0
   57.1810   31.1740   42.8000 O   0  0  0  0  0  0  0  0  0  0  0  0
   55.8140   30.4330   44.6960 O   0  0  0  0  0  0  0  0  0  0  0  0
   58.4420   30.2780   44.9490 N   0  0  0  0  0  0  0  0  0  0  0  0
   58.3300   29.0670   45.7080 C   0  0  0  0  0  0  0  0  0  0  0  0
   57.6250   27.9610   45.2040 C   0  0  0  0  0  0  0  0  0  0  0  0
   57.0864   28.0479   44.2488 H   0  0  0  0  0  0  0  0  0  0  0  0
   57.6010   26.7430   45.9090 C   0  0  0  0  0  0  0  0  0  0  0  0
   56.9260   25.5480   45.3300 C   0  0  0  0  0  0  0  0  0  0  0  0
   57.6960   24.5730   44.6710 C   0  0  0  0  0  0  0  0  0  0  0  0
   58.7809   24.7134   44.5563 H   0  0  0  0  0  0  0  0  0  0  0  0
   57.0840   23.4300   44.1640 C   0  0  0  0  0  0  0  0  0  0  0  0
   57.6860   22.6617   43.6568 H   0  0  0  0  0  0  0  0  0  0  0  0
   55.7090   23.2610   44.3000 C   0  0  0  0  0  0  0  0  0  0  0  0
   55.2174   22.3585   43.9079 H   0  0  0  0  0  0  0  0  0  0  0  0
   54.9620   24.2510   44.9400 C   0  0  0  0  0  0  0  0  0  0  0  0
   53.8741   24.1288   45.0479 H   0  0  0  0  0  0  0  0  0  0  0  0
   55.5690   25.3690   45.4330 N   0  0  0  0  0  0  0  0  0  0  0  0
   54.7720   26.3470   45.9860 O   0  0  0  0  0  0  0  0  0  0  0  0
   58.2740   26.6590   47.1400 C   0  0  0  0  0  0  0  0  0  0  0  0
   58.2957   25.7038   47.6851 H   0  0  0  0  0  0  0  0  0  0  0  0
   58.9160   27.7780   47.6780 C   0  0  0  0  0  0  0  0  0  0  0  0
   59.4023   27.7087   48.6622 H   0  0  0  0  0  0  0  0  0  0  0  0
   58.9440   28.9930   46.9680 C   0  0  0  0  0  0  0  0  0  0  0  0
   59.5920   30.1370   47.4680 O   0  0  0  0  0  0  0  0  0  0  0  0
   60.8770   30.5900   47.0470 C   0  0  0  0  0  0  0  0  0  0  0  0
   61.4961   30.8083   47.9296 H   0  0  0  0  0  0  0  0  0  0  0  0
   61.3616   29.8085   46.4433 H   0  0  0  0  0  0  0  0  0  0  0  0
   60.7644   31.5026   46.4433 H   0  0  0  0  0  0  0  0  0  0  0  0
   58.9890   33.7050   46.0990 C   0  0  0  0  0  0  0  0  0  0  0  0
   60.3440   34.0830   46.0010 C   0  0  0  0  0  0  0  0  0  0  0  0
   60.7691   34.3505   45.0223 H   0  0  0  0  0  0  0  0  0  0  0  0
   61.1500   34.1190   47.1450 C   0  0  0  0  0  0  0  0  0  0  0  0
   62.2108   34.3976   47.0606 H   0  0  0  0  0  0  0  0  0  0  0  0
   60.6100   33.8020   48.3930 C   0  0  0  0  0  0  0  0  0  0  0  0
   61.2476   33.8241   49.2891 H   0  0  0  0  0  0  0  0  0  0  0  0
   59.2620   33.4570   48.5050 C   0  0  0  0  0  0  0  0  0  0  0  0
   58.8356   33.2196   49.4908 H   0  0  0  0  0  0  0  0  0  0  0  0
   58.4540   33.4130   47.3660 C   0  0  0  0  0  0  0  0  0  0  0  0
   57.3907   33.1478   47.4613 H   0  0  0  0  0  0  0  0  0  0  0  0
  1  2  1  0
  2  3  2  0
  3  4  1  0
  3  5  1  0
  5  6  2  0
  5  7  2  0
  5  8  1  0
  8  9  1  0
  9 10  2  0
 10 11  1  0
 10 12  1  0
 12 13  1  0
 13 14  2  0
 14 15  1  0
 14 16  1  0
 16 17  1  0
 16 18  2  0
 18 19  1  0
 18 20  1  0
 20 21  1  0
 20 22  2  0
 22 23  1  0
 12 24  2  0
 24 25  1  0
 24 26  1  0
 26 27  1  0
 26 28  2  0
 28 29  1  0
 29 30  1  0
 30 31  1  0
 30 32  1  0
 30 33  1  0
  2 34  1  0
 34 35  2  0
 35 36  1  0
 35 37  1  0
 37 38  1  0
 37 39  2  0
 39 40  1  0
 39 41  1  0
 41 42  1  0
 41 43  2  0
 43 44  1  0
 28  9  1  0
 43 34  1  0
 22 13  1  0
M  CHG  3   8  -1  22   1  23  -1
M  END
>  <UniqueID>  (94) 
83

>  <SMILES>  (94) 
COc1ccc(-c2cccc[n+]2[O-])cc1[N-]S(=O)(=O)/C=C/c1ccccc1

>  <Energy>  (94) 
59.53862125699917

>  <Genealogy>  (94) 
COc1ccc(-c2cccc[n+]2[O-])cc1[N-]S(=O)(=O)C=Cc1ccccc1 (protonated)
COc1ccc(-c2cccc[n+]2[O-])cc1[N-]S(=O)(=O)/C=C/c1ccccc1 (cis-trans isomerization)
COc1ccc(-c2cccc[n+]2[O-])cc1[N-]S(=O)(=O)/C=C/c1ccccc1 (3D coordinates assigned)
COc1ccc(-c2cccc[n+]2[O-])cc1[N-]S(=O)(=O)/C=C/c1ccccc1 (optimized conformer: 59.53862125699917 kcal/mol)

>  <smiles>  (94) 
COc1ccc(-c2cccc[n+]2[O-])cc1NS(=O)(=O)C=Cc1ccccc1

>  <score_type>  (94) 
oracle

>  <origin>  (94) 
adg

>  <m_score__min__energy>  (94) 
-11.779999999999999

>  <m_primary>  (94) 
energy

$$$$
94:0
     RDKit          3D

 44 47  0  0  0  0  0  0  0  0999 V2000
   55.2850   29.3760   44.7820 O   0  0  0  0  0  0  0  0  0  0  0  0
   56.3420   30.0580   44.7290 C   0  0  0  0  0  0  0  0  0  0  0  0
   56.2430   31.4690   44.5000 N   0  0  0  0  0  0  0  0  0  0  0  0
   57.1870   32.4610   44.9310 C   0  0  0  0  0  0  0  0  0  0  0  0
   57.0700   33.0990   46.1800 C   0  0  0  0  0  0  0  0  0  0  0  0
   57.9910   34.0810   46.5560 C   0  0  0  0  0  0  0  0  0  0  0  0
   59.0210   34.4460   45.6850 C   0  0  0  0  0  0  0  0  0  0  0  0
   59.1270   33.8340   44.4330 C   0  0  0  0  0  0  0  0  0  0  0  0
   58.2070   32.8510   44.0540 C   0  0  0  0  0  0  0  0  0  0  0  0
   57.6500   29.3760   44.8040 C   0  0  0  0  0  0  0  0  0  0  0  0
   58.0680   28.7360   43.8010 O   0  0  0  0  0  0  0  0  0  0  0  0
   58.4540   29.3730   46.0390 C   0  0  0  0  0  0  0  0  0  0  0  0
   58.5970   30.4460   46.9120 C   0  0  0  0  0  0  0  0  0  0  0  0
   59.3960   30.1060   47.9510 N   0  0  0  0  0  0  0  0  0  0  0  0
   59.8280   31.0020   49.0250 C   0  0  0  0  0  0  0  0  0  0  0  0
   60.8630   31.9640   48.5100 C   0  0  0  0  0  0  0  0  0  0  0  0
   61.9090   31.5010   47.6930 C   0  0  0  0  0  0  0  0  0  0  0  0
   62.8900   32.3860   47.2340 C   0  0  0  0  0  0  0  0  0  0  0  0
   62.8360   33.7370   47.5880 C   0  0  0  0  0  0  0  0  0  0  0  0
   63.7870   34.5940   47.1430 F   0  0  0  0  0  0  0  0  0  0  0  0
   61.8000   34.2050   48.4020 C   0  0  0  0  0  0  0  0  0  0  0  0
   60.8180   33.3240   48.8630 C   0  0  0  0  0  0  0  0  0  0  0  0
   59.7590   28.8210   47.7470 C   0  0  0  0  0  0  0  0  0  0  0  0
   60.5660   28.0160   48.5570 C   0  0  0  0  0  0  0  0  0  0  0  0
   60.7730   26.6830   48.1650 C   0  0  0  0  0  0  0  0  0  0  0  0
   60.1700   26.1790   46.9940 C   0  0  0  0  0  0  0  0  0  0  0  0
   59.3620   27.0070   46.1970 C   0  0  0  0  0  0  0  0  0  0  0  0
   59.1910   28.3370   46.5920 C   0  0  0  0  0  0  0  0  0  0  0  0
   56.2518   32.8242   46.8620 H   0  0  0  0  0  0  0  0  0  0  0  0
   57.9049   34.5672   47.5390 H   0  0  0  0  0  0  0  0  0  0  0  0
   59.7483   35.2149   45.9847 H   0  0  0  0  0  0  0  0  0  0  0  0
   59.9344   34.1256   43.7452 H   0  0  0  0  0  0  0  0  0  0  0  0
   58.2850   32.3818   43.0621 H   0  0  0  0  0  0  0  0  0  0  0  0
   58.1274   31.4316   46.7775 H   0  0  0  0  0  0  0  0  0  0  0  0
   58.9610   31.5662   49.3991 H   0  0  0  0  0  0  0  0  0  0  0  0
   60.2648   30.4045   49.8387 H   0  0  0  0  0  0  0  0  0  0  0  0
   61.9562   30.4382   47.4135 H   0  0  0  0  0  0  0  0  0  0  0  0
   63.7052   32.0182   46.5935 H   0  0  0  0  0  0  0  0  0  0  0  0
   61.7578   35.2685   48.6800 H   0  0  0  0  0  0  0  0  0  0  0  0
   60.0061   33.6964   49.5050 H   0  0  0  0  0  0  0  0  0  0  0  0
   61.0250   28.4146   49.4737 H   0  0  0  0  0  0  0  0  0  0  0  0
   61.4104   26.0272   48.7762 H   0  0  0  0  0  0  0  0  0  0  0  0
   60.3334   25.1309   46.7028 H   0  0  0  0  0  0  0  0  0  0  0  0
   58.8778   26.6199   45.2883 H   0  0  0  0  0  0  0  0  0  0  0  0
  1  2  2  0
  2  3  1  0
  3  4  1  0
  4  5  2  0
  5  6  1  0
  6  7  2  0
  7  8  1  0
  8  9  2  0
  2 10  1  0
 10 11  2  0
 10 12  1  0
 12 13  2  0
 13 14  1  0
 14 15  1  0
 15 16  1  0
 16 17  2  0
 17 18  1  0
 18 19  2  0
 19 20  1  0
 19 21  1  0
 21 22  2  0
 14 23  1  0
 23 24  2  0
 24 25  1  0
 25 26  2  0
 26 27  1  0
 27 28  2  0
  9  4  1  0
 28 12  1  0
 22 16  1  0
 28 23  1  0
  5 29  1  0
  6 30  1  0
  7 31  1  0
  8 32  1  0
  9 33  1  0
 13 34  1  0
 15 35  1  0
 15 36  1  0
 17 37  1  0
 18 38  1  0
 21 39  1  0
 22 40  1  0
 24 41  1  0
 25 42  1  0
 26 43  1  0
 27 44  1  0
M  CHG  1   3  -1
M  END
>  <UniqueID>  (95) 
84

>  <SMILES>  (95) 
O=C([N-]c1ccccc1)C(=O)c1cn(Cc2ccc(F)cc2)c2ccccc12

>  <Energy>  (95) 
89.57978125006362

>  <Genealogy>  (95) 
O=C([N-]c1ccccc1)C(=O)c1cn(Cc2ccc(F)cc2)c2ccccc12 (protonated)
O=C([N-]c1ccccc1)C(=O)c1cn(Cc2ccc(F)cc2)c2ccccc12 (3D coordinates assigned)
O=C([N-]c1ccccc1)C(=O)c1cn(Cc2ccc(F)cc2)c2ccccc12 (optimized conformer: 89.57978125006362 kcal/mol)

>  <smiles>  (95) 
O=C(Nc1ccccc1)C(=O)c1cn(Cc2ccc(F)cc2)c2ccccc12

>  <score_type>  (95) 
oracle

>  <origin>  (95) 
adg

>  <m_score__min__energy>  (95) 
-10.109999999999999

>  <m_primary>  (95) 
energy

$$$$
