0:0
     RDKit          3D

 50 53  0  0  0  0  0  0  0  0999 V2000
   56.8082   27.7080   47.3701 H   0  0  0  0  0  0  0  0  0  0  0  0
   57.4330   27.3780   46.5270 C   0  0  0  0  0  0  0  0  0  0  0  0
   58.3990   28.1420   46.1130 N   0  0  0  0  0  0  0  0  0  0  0  0
   58.3790   29.5760   46.0060 C   0  0  0  0  0  0  0  0  0  0  0  0
   58.1220   30.1390   44.7480 C   0  0  0  0  0  0  0  0  0  0  0  0
   57.9381   29.4821   43.8850 H   0  0  0  0  0  0  0  0  0  0  0  0
   58.0970   31.5260   44.5790 C   0  0  0  0  0  0  0  0  0  0  0  0
   57.8913   31.9541   43.5868 H   0  0  0  0  0  0  0  0  0  0  0  0
   58.3330   32.3720   45.6690 C   0  0  0  0  0  0  0  0  0  0  0  0
   58.3160   34.1210   45.4670 S   0  0  0  0  0  0  0  0  0  0  0  0
   56.9140   34.5920   45.2000 O   0  0  0  0  0  0  0  0  0  0  0  0
   59.2050   34.4880   44.3110 O   0  0  0  0  0  0  0  0  0  0  0  0
   58.8970   34.8650   46.9220 N   0  0  0  0  0  0  0  0  0  0  0  0
   60.0020   34.5170   47.5030 C   0  0  0  0  0  0  0  0  0  0  0  0
   60.2110   34.5970   48.8360 N   0  0  0  0  0  0  0  0  0  0  0  0
   61.4590   34.1670   49.1650 C   0  0  0  0  0  0  0  0  0  0  0  0
   61.8230   34.1524   50.2029 H   0  0  0  0  0  0  0  0  0  0  0  0
   62.2420   33.7470   48.0940 C   0  0  0  0  0  0  0  0  0  0  0  0
   63.2729   33.3687   48.1580 H   0  0  0  0  0  0  0  0  0  0  0  0
   61.3380   33.9180   46.6820 S   0  0  0  0  0  0  0  0  0  0  0  0
   58.6070   31.8200   46.9260 C   0  0  0  0  0  0  0  0  0  0  0  0
   58.8028   32.4809   47.7832 H   0  0  0  0  0  0  0  0  0  0  0  0
   58.6330   30.4320   47.0970 C   0  0  0  0  0  0  0  0  0  0  0  0
   58.8526   30.0064   48.0873 H   0  0  0  0  0  0  0  0  0  0  0  0
   57.1550   26.0650   45.8830 C   0  0  0  0  0  0  0  0  0  0  0  0
   55.8250   25.6700   45.6440 C   0  0  0  0  0  0  0  0  0  0  0  0
   54.7860   26.5310   45.9990 O   0  0  0  0  0  0  0  0  0  0  0  0
   55.5410   24.4560   45.0680 N   0  0  0  0  0  0  0  0  0  0  0  0
   54.1290   24.0860   44.8330 C   0  0  0  0  0  0  0  0  0  0  0  0
   53.5690   24.9777   44.5148 H   0  0  0  0  0  0  0  0  0  0  0  0
   54.0884   23.3143   44.0502 H   0  0  0  0  0  0  0  0  0  0  0  0
   53.5020   23.5270   46.1140 C   0  0  0  0  0  0  0  0  0  0  0  0
   53.1587   24.3619   46.7425 H   0  0  0  0  0  0  0  0  0  0  0  0
   52.6537   22.8820   45.8412 H   0  0  0  0  0  0  0  0  0  0  0  0
   54.5050   22.7100   46.8820 C   0  0  0  0  0  0  0  0  0  0  0  0
   54.6380   21.3330   46.6360 C   0  0  0  0  0  0  0  0  0  0  0  0
   54.0270   20.8542   45.8566 H   0  0  0  0  0  0  0  0  0  0  0  0
   55.5440   20.5690   47.3780 C   0  0  0  0  0  0  0  0  0  0  0  0
   55.6487   19.4927   47.1767 H   0  0  0  0  0  0  0  0  0  0  0  0
   56.3160   21.1700   48.3740 C   0  0  0  0  0  0  0  0  0  0  0  0
   57.0311   20.5682   48.9540 H   0  0  0  0  0  0  0  0  0  0  0  0
   56.1800   22.5370   48.6340 C   0  0  0  0  0  0  0  0  0  0  0  0
   56.7869   23.0092   49.4206 H   0  0  0  0  0  0  0  0  0  0  0  0
   55.2740   23.3050   47.8960 C   0  0  0  0  0  0  0  0  0  0  0  0
   55.1631   24.3783   48.1101 H   0  0  0  0  0  0  0  0  0  0  0  0
   56.5750   23.6350   44.6770 C   0  0  0  0  0  0  0  0  0  0  0  0
   56.3240   22.1950   43.9230 S   0  0  0  0  0  0  0  0  0  0  0  0
   57.8590   24.0060   44.9000 N   0  0  0  0  0  0  0  0  0  0  0  0
   58.1760   25.1810   45.4910 C   0  0  0  0  0  0  0  0  0  0  0  0
   59.3910   25.4610   45.6740 O   0  0  0  0  0  0  0  0  0  0  0  0
  1  2  1  0
  2  3  2  0
  3  4  1  0
  4  5  2  0
  5  6  1  0
  5  7  1  0
  7  8  1  0
  7  9  2  0
  9 10  1  0
 10 11  2  0
 10 12  2  0
 10 13  1  0
 13 14  2  3
 14 15  1  0
 15 16  1  0
 16 17  1  0
 16 18  2  0
 18 19  1  0
 18 20  1  0
  9 21  1  0
 21 22  1  0
 21 23  2  0
 23 24  1  0
  2 25  1  0
 25 26  2  0
 26 27  1  0
 26 28  1  0
 28 29  1  0
 29 30  1  0
 29 31  1  0
 29 32  1  0
 32 33  1  0
 32 34  1  0
 32 35  1  0
 35 36  2  0
 36 37  1  0
 36 38  1  0
 38 39  1  0
 38 40  2  0
 40 41  1  0
 40 42  1  0
 42 43  1  0
 42 44  2  0
 44 45  1  0
 28 46  1  0
 46 47  2  0
 46 48  1  0
 48 49  1  0
 49 50  2  0
 23  4  1  0
 49 25  1  0
 20 14  1  0
 44 35  1  0
M  CHG  3  15  -1  27  -1  48  -1
M  END
>  <UniqueID>  (1) 
1

>  <SMILES>  (1) 
O=c1[n-]c(=S)n(CCc2ccccc2)c([O-])c1/C=N/c1ccc(S(=O)(=O)N=c2[n-]ccs2)cc1

>  <Energy>  (1) 
97.12238892741244

>  <Genealogy>  (1) 
O=c1[n-]c(=S)n(CCc2ccccc2)c([O-])c1C=Nc1ccc(S(=O)(=O)N=c2[n-]ccs2)cc1 (protonated)
O=c1[n-]c(=S)n(CCc2ccccc2)c([O-])c1/C=N/c1ccc(S(=O)(=O)N=c2[n-]ccs2)cc1 (cis-trans isomerization)
O=c1[n-]c(=S)n(CCc2ccccc2)c([O-])c1/C=N/c1ccc(S(=O)(=O)N=c2[n-]ccs2)cc1 (3D coordinates assigned)
O=c1[n-]c(=S)n(CCc2ccccc2)c([O-])c1/C=N/c1ccc(S(=O)(=O)N=c2[n-]ccs2)cc1 (optimized conformer: 97.12238892741244 kcal/mol)

>  <smiles>  (1) 
O=c1[nH]c(=S)n(CCc2ccccc2)c(O)c1C=Nc1ccc(S(=O)(=O)N=c2[nH]ccs2)cc1

>  <score_type>  (1) 
oracle

>  <origin>  (1) 
adg

>  <m_score__min__energy>  (1) 
-15.449999999999999

>  <m_primary>  (1) 
energy

$$$$
1:0
     RDKit          3D

 49 52  0  0  0  0  0  0  0  0999 V2000
   58.8970   27.6990   45.2830 C   0  0  0  0  0  0  0  0  0  0  0  0
   59.0520   29.1570   45.6250 C   0  0  0  0  0  0  0  0  0  0  0  0
   60.2470   29.5790   46.2320 C   0  0  0  0  0  0  0  0  0  0  0  0
   60.4530   30.9230   46.5440 C   0  0  0  0  0  0  0  0  0  0  0  0
   59.4660   31.8740   46.2610 C   0  0  0  0  0  0  0  0  0  0  0  0
   59.6910   33.3260   46.5980 C   0  0  0  0  0  0  0  0  0  0  0  0
   61.0470   33.5440   47.1070 N   0  0  0  0  0  0  0  0  0  0  0  0
   62.1320   33.8480   46.3670 C   0  0  0  0  0  0  0  0  0  0  0  0
   63.2660   33.8890   47.0970 N   0  0  0  0  0  0  0  0  0  0  0  0
   62.8720   33.6080   48.3570 C   0  0  0  0  0  0  0  0  0  0  0  0
   63.8140   33.5240   49.4970 C   0  0  0  0  0  0  0  0  0  0  0  0
   63.5290   34.2150   50.6870 C   0  0  0  0  0  0  0  0  0  0  0  0
   64.4050   34.1450   51.7740 C   0  0  0  0  0  0  0  0  0  0  0  0
   65.5680   33.3760   51.6880 C   0  0  0  0  0  0  0  0  0  0  0  0
   66.4160   33.3090   52.7440 F   0  0  0  0  0  0  0  0  0  0  0  0
   65.8500   32.6650   50.5190 C   0  0  0  0  0  0  0  0  0  0  0  0
   64.9760   32.7320   49.4290 C   0  0  0  0  0  0  0  0  0  0  0  0
   61.5000   33.3960   48.3690 C   0  0  0  0  0  0  0  0  0  0  0  0
   60.6860   32.9200   49.5040 C   0  0  0  0  0  0  0  0  0  0  0  0
   60.6170   31.5530   49.8010 C   0  0  0  0  0  0  0  0  0  0  0  0
   59.8310   31.1240   50.8730 C   0  0  0  0  0  0  0  0  0  0  0  0
   59.1310   32.0270   51.6100 N   0  0  0  0  0  0  0  0  0  0  0  0
   59.1740   33.3570   51.3340 C   0  0  0  0  0  0  0  0  0  0  0  0
   59.9500   33.8300   50.2740 C   0  0  0  0  0  0  0  0  0  0  0  0
   58.2860   31.4680   45.6210 C   0  0  0  0  0  0  0  0  0  0  0  0
   58.0630   30.1190   45.3000 C   0  0  0  0  0  0  0  0  0  0  0  0
   56.5400   29.6760   44.5030 S   0  0  0  0  0  0  0  0  0  0  0  0
   56.8170   29.2360   42.8530 N   0  0  0  0  0  0  0  0  0  0  0  0
   55.8970   28.5330   45.2370 O   0  0  0  0  0  0  0  0  0  0  0  0
   55.5920   30.8430   44.5220 O   0  0  0  0  0  0  0  0  0  0  0  0
   58.8343   27.1097   46.2097 H   0  0  0  0  0  0  0  0  0  0  0  0
   57.9786   27.5560   44.6947 H   0  0  0  0  0  0  0  0  0  0  0  0
   59.7648   27.3661   44.6947 H   0  0  0  0  0  0  0  0  0  0  0  0
   61.0291   28.8410   46.4638 H   0  0  0  0  0  0  0  0  0  0  0  0
   61.3962   31.2370   47.0149 H   0  0  0  0  0  0  0  0  0  0  0  0
   59.5455   33.9321   45.6917 H   0  0  0  0  0  0  0  0  0  0  0  0
   58.9731   33.6195   47.3780 H   0  0  0  0  0  0  0  0  0  0  0  0
   62.0967   34.0417   45.2848 H   0  0  0  0  0  0  0  0  0  0  0  0
   62.6103   34.8151   50.7636 H   0  0  0  0  0  0  0  0  0  0  0  0
   64.1782   34.6963   52.6985 H   0  0  0  0  0  0  0  0  0  0  0  0
   66.7608   32.0515   50.4556 H   0  0  0  0  0  0  0  0  0  0  0  0
   65.1977   32.1630   48.5141 H   0  0  0  0  0  0  0  0  0  0  0  0
   61.1764   30.8243   49.1959 H   0  0  0  0  0  0  0  0  0  0  0  0
   59.7783   30.0537   51.1214 H   0  0  0  0  0  0  0  0  0  0  0  0
   58.5955   34.0632   51.9477 H   0  0  0  0  0  0  0  0  0  0  0  0
   59.9831   34.9056   50.0459 H   0  0  0  0  0  0  0  0  0  0  0  0
   57.5229   32.2182   45.3663 H   0  0  0  0  0  0  0  0  0  0  0  0
   57.8260   29.4090   42.6470 H   0  0  0  0  0  0  0  0  0  0  0  0
   56.6530   28.2080   42.7660 H   0  0  0  0  0  0  0  0  0  0  0  0
  1  2  1  0
  2  3  2  0
  3  4  1  0
  4  5  2  0
  5  6  1  0
  6  7  1  0
  7  8  1  0
  8  9  2  0
  9 10  1  0
 10 11  1  0
 11 12  2  0
 12 13  1  0
 13 14  2  0
 14 15  1  0
 14 16  1  0
 16 17  2  0
 10 18  2  0
 18 19  1  0
 19 20  2  0
 20 21  1  0
 21 22  2  0
 22 23  1  0
 23 24  2  0
  5 25  1  0
 25 26  2  0
 26 27  1  0
 27 28  1  0
 27 29  2  0
 27 30  2  0
 26  2  1  0
 18  7  1  0
 24 19  1  0
 17 11  1  0
  1 31  1  0
  1 32  1  0
  1 33  1  0
  3 34  1  0
  4 35  1  0
  6 36  1  0
  6 37  1  0
  8 38  1  0
 12 39  1  0
 13 40  1  0
 16 41  1  0
 17 42  1  0
 20 43  1  0
 21 44  1  0
 23 45  1  0
 24 46  1  0
 25 47  1  0
 28 48  1  0
 28 49  1  0
M  END
>  <UniqueID>  (2) 
2

>  <SMILES>  (2) 
Cc1ccc(Cn2cnc(-c3ccc(F)cc3)c2-c2ccncc2)cc1S(N)(=O)=O

>  <Energy>  (2) 
92.6938022849102

>  <Genealogy>  (2) 
Cc1ccc(Cn2cnc(-c3ccc(F)cc3)c2-c2ccncc2)cc1S(N)(=O)=O (3D coordinates assigned)
Cc1ccc(Cn2cnc(-c3ccc(F)cc3)c2-c2ccncc2)cc1S(N)(=O)=O (optimized conformer: 92.6938022849102 kcal/mol)

>  <smiles>  (2) 
Cc1ccc(Cn2cnc(-c3ccc(F)cc3)c2-c2ccncc2)cc1S(N)(=O)=O

>  <score_type>  (2) 
oracle

>  <origin>  (2) 
adg

>  <m_score__min__energy>  (2) 
-9.5500000000000007

>  <m_primary>  (2) 
energy

$$$$
2:0
     RDKit          3D

 25 26  0  0  0  0  0  0  0  0999 V2000
   59.6830   35.8810   46.2670 N   0  0  0  0  0  0  0  0  0  0  0  0
   59.2280   34.8810   45.9020 C   0  0  0  0  0  0  0  0  0  0  0  0
   58.6640   33.6370   45.4480 C   0  0  0  0  0  0  0  0  0  0  0  0
   58.3280   32.6440   46.3700 C   0  0  0  0  0  0  0  0  0  0  0  0
   57.7760   31.4400   45.9310 C   0  0  0  0  0  0  0  0  0  0  0  0
   57.5670   31.2050   44.5620 C   0  0  0  0  0  0  0  0  0  0  0  0
   56.9110   29.9960   44.1430 N   0  0  0  0  0  0  0  0  0  0  0  0
   57.0330   28.7350   44.8200 C   0  0  0  0  0  0  0  0  0  0  0  0
   58.2800   28.1180   45.0080 C   0  0  0  0  0  0  0  0  0  0  0  0
   58.3230   26.8800   45.6530 C   0  0  0  0  0  0  0  0  0  0  0  0
   59.4260   26.3040   45.8440 O   0  0  0  0  0  0  0  0  0  0  0  0
   57.1730   26.2940   46.0730 N   0  0  0  0  0  0  0  0  0  0  0  0
   55.9700   26.8950   45.8700 C   0  0  0  0  0  0  0  0  0  0  0  0
   54.9150   26.3340   46.2600 O   0  0  0  0  0  0  0  0  0  0  0  0
   55.9080   28.0990   45.2450 N   0  0  0  0  0  0  0  0  0  0  0  0
   57.9100   32.2080   43.6220 C   0  0  0  0  0  0  0  0  0  0  0  0
   57.7420   32.0030   42.2060 N   0  0  0  0  0  0  0  0  0  0  0  0
   58.4230   32.6460   41.3820 O   0  0  0  0  0  0  0  0  0  0  0  0
   56.7230   31.2040   41.7390 O   0  0  0  0  0  0  0  0  0  0  0  0
   58.4510   33.4220   44.0820 C   0  0  0  0  0  0  0  0  0  0  0  0
   58.4986   32.8109   47.4438 H   0  0  0  0  0  0  0  0  0  0  0  0
   57.5018   30.6672   46.6643 H   0  0  0  0  0  0  0  0  0  0  0  0
   56.2640   30.0470   43.3230 H   0  0  0  0  0  0  0  0  0  0  0  0
   59.2038   28.5995   44.6547 H   0  0  0  0  0  0  0  0  0  0  0  0
   58.7094   34.2108   43.3602 H   0  0  0  0  0  0  0  0  0  0  0  0
  1  2  3  0
  2  3  1  0
  3  4  2  0
  4  5  1  0
  5  6  2  0
  6  7  1  0
  7  8  1  0
  8  9  2  0
  9 10  1  0
 10 11  2  0
 10 12  1  0
 12 13  1  0
 13 14  2  0
 13 15  1  0
  6 16  1  0
 16 17  1  0
 17 18  2  0
 17 19  1  0
 16 20  2  0
 20  3  1  0
 15  8  1  0
  4 21  1  0
  5 22  1  0
  7 23  1  0
  9 24  1  0
 20 25  1  0
M  CHG  4  12  -1  15  -1  17   1  19  -1
M  END
>  <UniqueID>  (3) 
3

>  <SMILES>  (3) 
N#Cc1ccc(Nc2cc(=O)[n-]c(=O)[n-]2)c([N+](=O)[O-])c1

>  <Energy>  (3) 
36.03517404225387

>  <Genealogy>  (3) 
N#Cc1ccc(Nc2cc(=O)[n-]c(=O)[n-]2)c([N+](=O)[O-])c1 (protonated)
N#Cc1ccc(Nc2cc(=O)[n-]c(=O)[n-]2)c([N+](=O)[O-])c1 (3D coordinates assigned)
N#Cc1ccc(Nc2cc(=O)[n-]c(=O)[n-]2)c([N+](=O)[O-])c1 (optimized conformer: 36.03517404225387 kcal/mol)

>  <smiles>  (3) 
N#Cc1ccc(Nc2cc(=O)[nH]c(=O)[nH]2)c([N+](=O)[O-])c1

>  <score_type>  (3) 
oracle

>  <origin>  (3) 
adg

>  <m_score__min__energy>  (3) 
-10.699999999999999

>  <m_primary>  (3) 
energy

$$$$
3:0
     RDKit          3D

 47 49  0  0  0  0  0  0  0  0999 V2000
   53.7360   24.3310   45.3310 C   0  0  0  0  0  0  0  0  0  0  0  0
   53.9680   22.9590   44.8930 N   0  0  0  0  0  0  0  0  0  0  0  0
   55.5220   22.8440   44.1240 S   0  0  0  0  0  0  0  0  0  0  0  0
   56.1310   21.5070   44.4380 O   0  0  0  0  0  0  0  0  0  0  0  0
   55.3550   22.9580   42.6340 O   0  0  0  0  0  0  0  0  0  0  0  0
   56.5910   24.1120   44.7200 C   0  0  0  0  0  0  0  0  0  0  0  0
   57.2200   24.9960   43.8340 C   0  0  0  0  0  0  0  0  0  0  0  0
   58.0570   26.0040   44.3230 C   0  0  0  0  0  0  0  0  0  0  0  0
   58.2790   26.1330   45.7050 C   0  0  0  0  0  0  0  0  0  0  0  0
   59.0980   27.1410   46.2350 O   0  0  0  0  0  0  0  0  0  0  0  0
   58.8560   28.5200   46.1350 C   0  0  0  0  0  0  0  0  0  0  0  0
   58.6270   29.0720   44.8710 C   0  0  0  0  0  0  0  0  0  0  0  0
   58.3700   30.4390   44.7300 C   0  0  0  0  0  0  0  0  0  0  0  0
   58.3240   31.2670   45.8600 C   0  0  0  0  0  0  0  0  0  0  0  0
   58.0190   32.9950   45.7000 S   0  0  0  0  0  0  0  0  0  0  0  0
   56.9580   33.3900   46.6890 O   0  0  0  0  0  0  0  0  0  0  0  0
   57.5240   33.3050   44.3140 O   0  0  0  0  0  0  0  0  0  0  0  0
   59.4890   33.8860   46.0170 N   0  0  0  0  0  0  0  0  0  0  0  0
   59.2620   34.9490   47.0290 C   0  0  0  0  0  0  0  0  0  0  0  0
   59.8300   34.5640   48.4070 C   0  0  0  0  0  0  0  0  0  0  0  0
   61.2260   34.3010   48.3820 O   0  0  0  0  0  0  0  0  0  0  0  0
   61.6730   33.6840   47.1800 C   0  0  0  0  0  0  0  0  0  0  0  0
   60.5690   32.9510   46.4000 C   0  0  0  0  0  0  0  0  0  0  0  0
   58.5330   30.7150   47.1300 C   0  0  0  0  0  0  0  0  0  0  0  0
   58.7910   29.3480   47.2700 C   0  0  0  0  0  0  0  0  0  0  0  0
   57.6290   25.2620   46.5880 C   0  0  0  0  0  0  0  0  0  0  0  0
   56.7950   24.2520   46.0990 C   0  0  0  0  0  0  0  0  0  0  0  0
   53.7296   24.3688   46.4303 H   0  0  0  0  0  0  0  0  0  0  0  0
   54.5373   24.9791   44.9465 H   0  0  0  0  0  0  0  0  0  0  0  0
   52.7662   24.6796   44.9465 H   0  0  0  0  0  0  0  0  0  0  0  0
   57.0552   24.8971   42.7509 H   0  0  0  0  0  0  0  0  0  0  0  0
   58.5438   26.6990   43.6230 H   0  0  0  0  0  0  0  0  0  0  0  0
   58.6492   28.4260   43.9810 H   0  0  0  0  0  0  0  0  0  0  0  0
   58.2035   30.8657   43.7299 H   0  0  0  0  0  0  0  0  0  0  0  0
   59.7630   34.3460   45.1170 H   0  0  0  0  0  0  0  0  0  0  0  0
   59.7514   35.8735   46.6888 H   0  0  0  0  0  0  0  0  0  0  0  0
   58.1763   35.0898   47.1362 H   0  0  0  0  0  0  0  0  0  0  0  0
   59.6425   35.3920   49.1065 H   0  0  0  0  0  0  0  0  0  0  0  0
   59.3277   33.6371   48.7209 H   0  0  0  0  0  0  0  0  0  0  0  0
   62.0963   34.4631   46.5290 H   0  0  0  0  0  0  0  0  0  0  0  0
   62.4128   32.9237   47.4709 H   0  0  0  0  0  0  0  0  0  0  0  0
   61.0024   32.5085   45.4910 H   0  0  0  0  0  0  0  0  0  0  0  0
   60.1447   32.1655   47.0426 H   0  0  0  0  0  0  0  0  0  0  0  0
   58.4940   31.3593   48.0207 H   0  0  0  0  0  0  0  0  0  0  0  0
   58.9437   28.9187   48.2712 H   0  0  0  0  0  0  0  0  0  0  0  0
   57.7754   25.3730   47.6725 H   0  0  0  0  0  0  0  0  0  0  0  0
   56.2974   23.5650   46.7993 H   0  0  0  0  0  0  0  0  0  0  0  0
  1  2  1  0
  2  3  1  0
  3  4  2  0
  3  5  2  0
  3  6  1  0
  6  7  2  0
  7  8  1  0
  8  9  2  0
  9 10  1  0
 10 11  1  0
 11 12  2  0
 12 13  1  0
 13 14  2  0
 14 15  1  0
 15 16  2  0
 15 17  2  0
 15 18  1  0
 18 19  1  0
 19 20  1  0
 20 21  1  0
 21 22  1  0
 22 23  1  0
 14 24  1  0
 24 25  2  0
  9 26  1  0
 26 27  2  0
 27  6  1  0
 25 11  1  0
 23 18  1  0
  1 28  1  0
  1 29  1  0
  1 30  1  0
  7 31  1  0
  8 32  1  0
 12 33  1  0
 13 34  1  0
 18 35  1  0
 19 36  1  0
 19 37  1  0
 20 38  1  0
 20 39  1  0
 22 40  1  0
 22 41  1  0
 23 42  1  0
 23 43  1  0
 24 44  1  0
 25 45  1  0
 26 46  1  0
 27 47  1  0
M  CHG  2   2  -1  18   1
M  END
>  <UniqueID>  (4) 
4

>  <SMILES>  (4) 
C[N-]S(=O)(=O)c1ccc(Oc2ccc(S(=O)(=O)[NH+]3CCOCC3)cc2)cc1

>  <Energy>  (4) 
64.88856093299789

>  <Genealogy>  (4) 
C[N-]S(=O)(=O)c1ccc(Oc2ccc(S(=O)(=O)[NH+]3CCOCC3)cc2)cc1 (protonated)
C[N-]S(=O)(=O)c1ccc(Oc2ccc(S(=O)(=O)[NH+]3CCOCC3)cc2)cc1 (3D coordinates assigned)
C[N-]S(=O)(=O)c1ccc(Oc2ccc(S(=O)(=O)[NH+]3CCOCC3)cc2)cc1 (nonaromatic ring conformer: 64.88856093299789 kcal/mol)

>  <smiles>  (4) 
CNS(=O)(=O)c1ccc(Oc2ccc(S(=O)(=O)N3CCOCC3)cc2)cc1

>  <score_type>  (4) 
oracle

>  <origin>  (4) 
adg

>  <m_score__min__energy>  (4) 
-8.25

>  <m_primary>  (4) 
energy

$$$$
4:0
     RDKit          3D

 27 28  0  0  0  0  0  0  0  0999 V2000
   54.5720   29.3630   44.9490 H   0  0  0  0  0  0  0  0  0  0  0  0
   55.5190   28.9370   45.0610 N   0  0  0  0  0  0  0  0  0  0  0  0
   56.5990   29.8340   44.0510 S   0  0  0  0  0  0  0  0  0  0  0  0
   57.9910   29.2790   44.1670 O   0  0  0  0  0  0  0  0  0  0  0  0
   56.1430   29.7230   42.6240 O   0  0  0  0  0  0  0  0  0  0  0  0
   56.5900   31.5030   44.5190 N   0  0  0  0  0  0  0  0  0  0  0  0
   57.4590   32.0400   45.3230 C   0  0  0  0  0  0  0  0  0  0  0  0
   57.6900   33.6940   45.5720 S   0  0  0  0  0  0  0  0  0  0  0  0
   58.9290   33.4420   46.6870 C   0  0  0  0  0  0  0  0  0  0  0  0
   59.6290   34.5170   47.4560 C   0  0  0  0  0  0  0  0  0  0  0  0
   59.6083   35.4516   46.8763 H   0  0  0  0  0  0  0  0  0  0  0  0
   59.1173   34.6627   48.4188 H   0  0  0  0  0  0  0  0  0  0  0  0
   61.0570   34.1220   47.7120 C   0  0  0  0  0  0  0  0  0  0  0  0
   61.9100   33.8100   46.6400 C   0  0  0  0  0  0  0  0  0  0  0  0
   61.5237   33.8254   45.6102 H   0  0  0  0  0  0  0  0  0  0  0  0
   63.2480   33.4800   46.8770 C   0  0  0  0  0  0  0  0  0  0  0  0
   63.9097   33.2289   46.0349 H   0  0  0  0  0  0  0  0  0  0  0  0
   63.7450   33.4690   48.1830 C   0  0  0  0  0  0  0  0  0  0  0  0
   64.7971   33.2068   48.3685 H   0  0  0  0  0  0  0  0  0  0  0  0
   62.9060   33.7910   49.2540 C   0  0  0  0  0  0  0  0  0  0  0  0
   63.2996   33.7838   50.2811 H   0  0  0  0  0  0  0  0  0  0  0  0
   61.5680   34.1220   49.0220 C   0  0  0  0  0  0  0  0  0  0  0  0
   60.9131   34.3832   49.8663 H   0  0  0  0  0  0  0  0  0  0  0  0
   59.1140   32.0720   46.8480 C   0  0  0  0  0  0  0  0  0  0  0  0
   59.8574   31.6477   47.5388 H   0  0  0  0  0  0  0  0  0  0  0  0
   58.2990   31.3030   46.0800 N   0  0  0  0  0  0  0  0  0  0  0  0
   58.3180   30.2580   46.0880 H   0  0  0  0  0  0  0  0  0  0  0  0
  1  2  1  0
  2  3  1  0
  3  4  2  0
  3  5  2  0
  3  6  1  0
  6  7  2  0
  7  8  1  0
  8  9  1  0
  9 10  1  0
 10 11  1  0
 10 12  1  0
 10 13  1  0
 13 14  2  0
 14 15  1  0
 14 16  1  0
 16 17  1  0
 16 18  2  0
 18 19  1  0
 18 20  1  0
 20 21  1  0
 20 22  2  0
 22 23  1  0
  9 24  2  0
 24 25  1  0
 24 26  1  0
 26 27  1  0
 26  7  1  0
 22 13  1  0
M  CHG  1   2  -1
M  END
>  <UniqueID>  (5) 
5

>  <SMILES>  (5) 
[NH-]S(=O)(=O)/N=c1/[nH]cc(Cc2ccccc2)s1

>  <Energy>  (5) 
56.40921831627535

>  <Genealogy>  (5) 
[NH-]S(=O)(=O)N=c1[nH]cc(Cc2ccccc2)s1 (protonated)
[NH-]S(=O)(=O)/N=c1/[nH]cc(Cc2ccccc2)s1 (cis-trans isomerization)
[NH-]S(=O)(=O)/N=c1/[nH]cc(Cc2ccccc2)s1 (3D coordinates assigned)
[NH-]S(=O)(=O)/N=c1/[nH]cc(Cc2ccccc2)s1 (optimized conformer: 56.40921831627535 kcal/mol)

>  <smiles>  (5) 
NS(=O)(=O)N=c1[nH]cc(Cc2ccccc2)s1

>  <score_type>  (5) 
oracle

>  <origin>  (5) 
adg

>  <m_score__min__energy>  (5) 
-11.02

>  <m_primary>  (5) 
energy

$$$$
5:0
     RDKit          3D

 53 55  0  0  0  0  0  0  0  0999 V2000
   58.9437   26.8718   43.7521 H   0  0  0  0  0  0  0  0  0  0  0  0
   58.1290   27.6010   43.6320 C   0  0  0  0  0  0  0  0  0  0  0  0
   57.6612   27.7457   42.6470 H   0  0  0  0  0  0  0  0  0  0  0  0
   57.7070   28.3120   44.6840 C   0  0  0  0  0  0  0  0  0  0  0  0
   58.1861   28.1545   45.6616 H   0  0  0  0  0  0  0  0  0  0  0  0
   56.5960   29.3210   44.5690 C   0  0  0  0  0  0  0  0  0  0  0  0
   55.8651   28.9713   43.8251 H   0  0  0  0  0  0  0  0  0  0  0  0
   56.1138   29.4325   45.5514 H   0  0  0  0  0  0  0  0  0  0  0  0
   57.1270   30.6270   44.1490 N   0  0  0  0  0  0  0  0  0  0  0  0
   57.6530   31.5480   45.1360 C   0  0  0  0  0  0  0  0  0  0  0  0
   58.8950   31.3010   45.7520 C   0  0  0  0  0  0  0  0  0  0  0  0
   59.4654   30.3990   45.4854 H   0  0  0  0  0  0  0  0  0  0  0  0
   59.4100   32.1910   46.6990 C   0  0  0  0  0  0  0  0  0  0  0  0
   60.3829   31.9864   47.1697 H   0  0  0  0  0  0  0  0  0  0  0  0
   58.6930   33.3430   47.0520 C   0  0  0  0  0  0  0  0  0  0  0  0
   59.2710   34.3160   48.0470 C   0  0  0  0  0  0  0  0  0  0  0  0
   60.0287   34.9384   47.5484 H   0  0  0  0  0  0  0  0  0  0  0  0
   58.4627   34.9504   48.4395 H   0  0  0  0  0  0  0  0  0  0  0  0
   59.8940   33.5930   49.1590 N   0  0  0  0  0  0  0  0  0  0  0  0
   61.2940   33.6030   49.2750 C   0  0  0  0  0  0  0  0  0  0  0  0
   62.4490   33.6140   49.3710 N   0  0  0  0  0  0  0  0  0  0  0  0
   59.1420   32.6390   49.9320 C   0  0  0  0  0  0  0  0  0  0  0  0
   58.9000   31.4000   49.4290 N   0  0  0  0  0  0  0  0  0  0  0  0
   58.2020   30.4940   50.1160 N   0  0  0  0  0  0  0  0  0  0  0  0
   58.0310   29.5570   49.6870 H   0  0  0  0  0  0  0  0  0  0  0  0
   57.7190   30.7810   51.3580 C   0  0  0  0  0  0  0  0  0  0  0  0
   57.0190   29.8880   51.9970 N   0  0  0  0  0  0  0  0  0  0  0  0
   55.6220   29.9650   52.3360 C   0  0  0  0  0  0  0  0  0  0  0  0
   54.8010   30.8410   51.6100 C   0  0  0  0  0  0  0  0  0  0  0  0
   55.2361   31.4678   50.8176 H   0  0  0  0  0  0  0  0  0  0  0  0
   53.4320   30.9220   51.8880 C   0  0  0  0  0  0  0  0  0  0  0  0
   52.7976   31.6235   51.3263 H   0  0  0  0  0  0  0  0  0  0  0  0
   52.8700   30.1120   52.8790 C   0  0  0  0  0  0  0  0  0  0  0  0
   51.7951   30.1817   53.1020 H   0  0  0  0  0  0  0  0  0  0  0  0
   53.6740   29.2130   53.5870 C   0  0  0  0  0  0  0  0  0  0  0  0
   53.2293   28.5704   54.3611 H   0  0  0  0  0  0  0  0  0  0  0  0
   55.0430   29.1300   53.3120 C   0  0  0  0  0  0  0  0  0  0  0  0
   55.6695   28.4105   53.8595 H   0  0  0  0  0  0  0  0  0  0  0  0
   57.9470   32.0100   51.8920 N   0  0  0  0  0  0  0  0  0  0  0  0
   58.6530   32.9440   51.2110 C   0  0  0  0  0  0  0  0  0  0  0  0
   58.8800   34.0630   51.7440 O   0  0  0  0  0  0  0  0  0  0  0  0
   57.4620   33.6030   46.4320 C   0  0  0  0  0  0  0  0  0  0  0  0
   56.9022   34.5143   46.6892 H   0  0  0  0  0  0  0  0  0  0  0  0
   56.9420   32.7110   45.4890 C   0  0  0  0  0  0  0  0  0  0  0  0
   55.9695   32.9196   45.0191 H   0  0  0  0  0  0  0  0  0  0  0  0
   57.0310   31.0060   42.7290 C   0  0  0  0  0  0  0  0  0  0  0  0
   57.2574   30.1266   42.1082 H   0  0  0  0  0  0  0  0  0  0  0  0
   56.0105   31.3686   42.5367 H   0  0  0  0  0  0  0  0  0  0  0  0
   57.9970   32.1090   42.3860 C   0  0  0  0  0  0  0  0  0  0  0  0
   58.6680   32.4943   43.1679 H   0  0  0  0  0  0  0  0  0  0  0  0
   58.0620   32.6330   41.1580 C   0  0  0  0  0  0  0  0  0  0  0  0
   58.7794   33.4381   40.9408 H   0  0  0  0  0  0  0  0  0  0  0  0
   57.3981   32.2591   40.3646 H   0  0  0  0  0  0  0  0  0  0  0  0
  1  2  1  0
  2  3  1  0
  2  4  2  0
  4  5  1  0
  4  6  1  0
  6  7  1  0
  6  8  1  0
  6  9  1  0
  9 10  1  0
 10 11  2  0
 11 12  1  0
 11 13  1  0
 13 14  1  0
 13 15  2  0
 15 16  1  0
 16 17  1  0
 16 18  1  0
 16 19  1  0
 19 20  1  0
 20 21  3  0
 19 22  1  0
 22 23  2  0
 23 24  1  0
 24 25  1  0
 24 26  1  0
 26 27  2  0
 27 28  1  0
 28 29  2  0
 29 30  1  0
 29 31  1  0
 31 32  1  0
 31 33  2  0
 33 34  1  0
 33 35  1  0
 35 36  1  0
 35 37  2  0
 37 38  1  0
 26 39  1  0
 39 40  1  0
 40 41  2  0
 15 42  1  0
 42 43  1  0
 42 44  2  0
 44 45  1  0
  9 46  1  0
 46 47  1  0
 46 48  1  0
 46 49  1  0
 49 50  1  0
 49 51  2  0
 51 52  1  0
 51 53  1  0
 44 10  1  0
 40 22  1  0
 37 28  1  0
M  CHG  1  39  -1
M  END
>  <UniqueID>  (6) 
6

>  <SMILES>  (6) 
C=CCN(CC=C)c1ccc(CN(C#N)c2n[nH]/c(=N/c3ccccc3)[n-]c2=O)cc1

>  <Energy>  (6) 
64.11396949745064

>  <Genealogy>  (6) 
C=CCN(CC=C)c1ccc(CN(C#N)c2n[nH]c(=Nc3ccccc3)[n-]c2=O)cc1 (protonated)
C=CCN(CC=C)c1ccc(CN(C#N)c2n[nH]/c(=N/c3ccccc3)[n-]c2=O)cc1 (cis-trans isomerization)
C=CCN(CC=C)c1ccc(CN(C#N)c2n[nH]/c(=N/c3ccccc3)[n-]c2=O)cc1 (3D coordinates assigned)
C=CCN(CC=C)c1ccc(CN(C#N)c2n[nH]/c(=N/c3ccccc3)[n-]c2=O)cc1 (optimized conformer: 64.11396949745064 kcal/mol)

>  <smiles>  (6) 
C=CCN(CC=C)c1ccc(CN(C#N)c2n[nH]c(=Nc3ccccc3)[nH]c2=O)cc1

>  <score_type>  (6) 
oracle

>  <origin>  (6) 
adg

>  <m_score__min__energy>  (6) 
-10.76

>  <m_primary>  (6) 
energy

$$$$
6:0
     RDKit          3D

 40 42  0  0  0  0  0  0  0  0999 V2000
   59.5970   34.6870   46.2400 C   0  0  0  0  0  0  0  0  0  0  0  0
   58.6440   34.3350   45.2420 O   0  0  0  0  0  0  0  0  0  0  0  0
   58.2460   33.0210   44.9580 C   0  0  0  0  0  0  0  0  0  0  0  0
   58.2130   32.0130   45.9400 C   0  0  0  0  0  0  0  0  0  0  0  0
   57.7660   30.7300   45.6180 C   0  0  0  0  0  0  0  0  0  0  0  0
   57.3380   30.4330   44.3140 C   0  0  0  0  0  0  0  0  0  0  0  0
   56.6970   29.1050   44.0100 C   0  0  0  0  0  0  0  0  0  0  0  0
   56.2420   28.4580   45.2390 N   0  0  0  0  0  0  0  0  0  0  0  0
   57.0980   27.6140   46.0120 C   0  0  0  0  0  0  0  0  0  0  0  0
   57.7160   28.0940   46.9980 O   0  0  0  0  0  0  0  0  0  0  0  0
   57.2270   26.1860   45.6850 C   0  0  0  0  0  0  0  0  0  0  0  0
   57.3400   25.1580   46.6180 C   0  0  0  0  0  0  0  0  0  0  0  0
   57.2690   23.9960   45.8790 C   0  0  0  0  0  0  0  0  0  0  0  0
   57.2600   22.6600   46.2860 C   0  0  0  0  0  0  0  0  0  0  0  0
   57.3810   22.3500   47.6480 O   0  0  0  0  0  0  0  0  0  0  0  0
   56.3040   22.3990   48.5770 C   0  0  0  0  0  0  0  0  0  0  0  0
   57.1170   21.6750   45.2770 C   0  0  0  0  0  0  0  0  0  0  0  0
   56.9820   22.0510   43.9230 C   0  0  0  0  0  0  0  0  0  0  0  0
   56.9900   23.4060   43.5530 C   0  0  0  0  0  0  0  0  0  0  0  0
   57.1390   24.3550   44.5630 C   0  0  0  0  0  0  0  0  0  0  0  0
   57.1220   25.6910   44.4290 N   0  0  0  0  0  0  0  0  0  0  0  0
   57.3990   31.4300   43.3280 C   0  0  0  0  0  0  0  0  0  0  0  0
   57.8560   32.7110   43.6500 C   0  0  0  0  0  0  0  0  0  0  0  0
   59.1606   34.5258   47.2368 H   0  0  0  0  0  0  0  0  0  0  0  0
   60.4944   34.0610   46.1270 H   0  0  0  0  0  0  0  0  0  0  0  0
   59.8721   35.7460   46.1270 H   0  0  0  0  0  0  0  0  0  0  0  0
   58.5409   32.2371   46.9658 H   0  0  0  0  0  0  0  0  0  0  0  0
   57.7490   29.9471   46.3905 H   0  0  0  0  0  0  0  0  0  0  0  0
   55.8352   29.2637   43.3450 H   0  0  0  0  0  0  0  0  0  0  0  0
   57.4403   28.4566   43.5231 H   0  0  0  0  0  0  0  0  0  0  0  0
   57.4598   25.2525   47.7074 H   0  0  0  0  0  0  0  0  0  0  0  0
   56.7028   22.3809   49.6020 H   0  0  0  0  0  0  0  0  0  0  0  0
   55.7292   23.3242   48.4235 H   0  0  0  0  0  0  0  0  0  0  0  0
   55.6476   21.5298   48.4235 H   0  0  0  0  0  0  0  0  0  0  0  0
   57.1112   20.6097   45.5510 H   0  0  0  0  0  0  0  0  0  0  0  0
   56.8695   21.2758   43.1507 H   0  0  0  0  0  0  0  0  0  0  0  0
   56.8822   23.7083   42.5008 H   0  0  0  0  0  0  0  0  0  0  0  0
   57.0160   26.2310   43.5410 H   0  0  0  0  0  0  0  0  0  0  0  0
   57.0861   31.2024   42.2983 H   0  0  0  0  0  0  0  0  0  0  0  0
   57.9097   33.4828   42.8681 H   0  0  0  0  0  0  0  0  0  0  0  0
  1  2  1  0
  2  3  1  0
  3  4  2  0
  4  5  1  0
  5  6  2  0
  6  7  1  0
  7  8  1  0
  8  9  1  0
  9 10  2  0
  9 11  1  0
 11 12  2  0
 12 13  1  0
 13 14  2  0
 14 15  1  0
 15 16  1  0
 14 17  1  0
 17 18  2  0
 18 19  1  0
 19 20  2  0
 20 21  1  0
  6 22  1  0
 22 23  2  0
 23  3  1  0
 21 11  1  0
 20 13  1  0
  1 24  1  0
  1 25  1  0
  1 26  1  0
  4 27  1  0
  5 28  1  0
  7 29  1  0
  7 30  1  0
 12 31  1  0
 16 32  1  0
 16 33  1  0
 16 34  1  0
 17 35  1  0
 18 36  1  0
 19 37  1  0
 21 38  1  0
 22 39  1  0
 23 40  1  0
M  CHG  1   8  -1
M  END
>  <UniqueID>  (7) 
7

>  <SMILES>  (7) 
COc1ccc(C[N-]C(=O)c2cc3c(OC)cccc3[nH]2)cc1

>  <Energy>  (7) 
75.68774771022508

>  <Genealogy>  (7) 
COc1ccc(C[N-]C(=O)c2cc3c(OC)cccc3[nH]2)cc1 (protonated)
COc1ccc(C[N-]C(=O)c2cc3c(OC)cccc3[nH]2)cc1 (3D coordinates assigned)
COc1ccc(C[N-]C(=O)c2cc3c(OC)cccc3[nH]2)cc1 (optimized conformer: 75.68774771022508 kcal/mol)

>  <smiles>  (7) 
COc1ccc(CNC(=O)c2cc3c(OC)cccc3[nH]2)cc1

>  <score_type>  (7) 
oracle

>  <origin>  (7) 
adg

>  <m_score__min__energy>  (7) 
-8.5500000000000007

>  <m_primary>  (7) 
energy

$$$$
7:0
     RDKit          3D

 61 63  0  0  0  0  0  0  0  0999 V2000
   62.6130   33.8280   46.5080 C   0  0  0  0  0  0  0  0  0  0  0  0
   63.7670   33.4240   47.4220 C   0  0  0  0  0  0  0  0  0  0  0  0
   63.3080   33.0950   48.8440 C   0  0  0  0  0  0  0  0  0  0  0  0
   62.1710   33.8760   49.2100 O   0  0  0  0  0  0  0  0  0  0  0  0
   60.9350   33.3330   49.5870 C   0  0  0  0  0  0  0  0  0  0  0  0
   60.0140   34.0830   50.0090 O   0  0  0  0  0  0  0  0  0  0  0  0
   60.7170   31.8730   49.4860 C   0  0  0  0  0  0  0  0  0  0  0  0
   60.5140   31.1080   50.6480 C   0  0  0  0  0  0  0  0  0  0  0  0
   60.2910   29.7320   50.5590 C   0  0  0  0  0  0  0  0  0  0  0  0
   60.2450   29.0980   49.3060 C   0  0  0  0  0  0  0  0  0  0  0  0
   60.0080   27.6860   49.1880 N   0  0  0  0  0  0  0  0  0  0  0  0
   60.2850   26.9080   48.0160 C   0  0  0  0  0  0  0  0  0  0  0  0
   61.4290   26.4060   47.8680 O   0  0  0  0  0  0  0  0  0  0  0  0
   59.2540   26.6940   46.9830 C   0  0  0  0  0  0  0  0  0  0  0  0
   58.9790   25.3990   46.5180 C   0  0  0  0  0  0  0  0  0  0  0  0
   58.0810   25.2060   45.4660 C   0  0  0  0  0  0  0  0  0  0  0  0
   57.4730   26.3040   44.8530 C   0  0  0  0  0  0  0  0  0  0  0  0
   57.7430   27.6020   45.3070 C   0  0  0  0  0  0  0  0  0  0  0  0
   57.1300   28.9850   44.4050 S   0  0  0  0  0  0  0  0  0  0  0  0
   55.7470   29.3440   44.8750 O   0  0  0  0  0  0  0  0  0  0  0  0
   57.0660   28.6390   42.9450 O   0  0  0  0  0  0  0  0  0  0  0  0
   58.2100   30.3270   44.6330 N   0  0  0  0  0  0  0  0  0  0  0  0
   58.1900   31.1900   43.4460 C   0  0  0  0  0  0  0  0  0  0  0  0
   57.4660   32.5140   43.7230 C   0  0  0  0  0  0  0  0  0  0  0  0
   57.9780   33.1910   44.9620 C   0  0  0  0  0  0  0  0  0  0  0  0
   58.7320   34.3720   44.8800 C   0  0  0  0  0  0  0  0  0  0  0  0
   59.1810   34.9880   46.0570 C   0  0  0  0  0  0  0  0  0  0  0  0
   60.0190   36.2290   45.9940 C   0  0  0  0  0  0  0  0  0  0  0  0
   58.8930   34.3990   47.2940 C   0  0  0  0  0  0  0  0  0  0  0  0
   58.1480   33.2120   47.3370 C   0  0  0  0  0  0  0  0  0  0  0  0
   57.8730   32.6590   48.4730 N   0  0  0  0  0  0  0  0  0  0  0  0
   57.7130   32.6430   46.1810 N   0  0  0  0  0  0  0  0  0  0  0  0
   58.6110   27.7920   46.3930 C   0  0  0  0  0  0  0  0  0  0  0  0
   60.4810   29.8500   48.1500 C   0  0  0  0  0  0  0  0  0  0  0  0
   60.7060   31.2290   48.2360 C   0  0  0  0  0  0  0  0  0  0  0  0
   61.7497   34.1302   47.1191 H   0  0  0  0  0  0  0  0  0  0  0  0
   62.9256   34.6701   45.8731 H   0  0  0  0  0  0  0  0  0  0  0  0
   62.3321   32.9748   45.8731 H   0  0  0  0  0  0  0  0  0  0  0  0
   64.2583   32.5364   46.9968 H   0  0  0  0  0  0  0  0  0  0  0  0
   64.4554   34.2796   47.4852 H   0  0  0  0  0  0  0  0  0  0  0  0
   63.0441   32.0285   48.8987 H   0  0  0  0  0  0  0  0  0  0  0  0
   64.1291   33.3260   49.5386 H   0  0  0  0  0  0  0  0  0  0  0  0
   60.5309   31.5962   51.6336 H   0  0  0  0  0  0  0  0  0  0  0  0
   60.1505   29.1408   51.4759 H   0  0  0  0  0  0  0  0  0  0  0  0
   59.4723   24.5330   46.9836 H   0  0  0  0  0  0  0  0  0  0  0  0
   57.8521   24.1874   45.1195 H   0  0  0  0  0  0  0  0  0  0  0  0
   56.7808   26.1495   44.0122 H   0  0  0  0  0  0  0  0  0  0  0  0
   57.8310   30.8710   45.4460 H   0  0  0  0  0  0  0  0  0  0  0  0
   59.2255   31.4057   43.1439 H   0  0  0  0  0  0  0  0  0  0  0  0
   57.6493   30.6628   42.6462 H   0  0  0  0  0  0  0  0  0  0  0  0
   57.6150   33.1857   42.8648 H   0  0  0  0  0  0  0  0  0  0  0  0
   56.3998   32.2908   43.8757 H   0  0  0  0  0  0  0  0  0  0  0  0
   58.9690   34.8111   43.8997 H   0  0  0  0  0  0  0  0  0  0  0  0
   60.2484   36.5687   47.0148 H   0  0  0  0  0  0  0  0  0  0  0  0
   60.9562   36.0119   45.4605 H   0  0  0  0  0  0  0  0  0  0  0  0
   59.4675   37.0172   45.4605 H   0  0  0  0  0  0  0  0  0  0  0  0
   59.2486   34.8640   48.2253 H   0  0  0  0  0  0  0  0  0  0  0  0
   58.3590   32.9470   49.3520 H   0  0  0  0  0  0  0  0  0  0  0  0
   58.7877   28.8053   46.7829 H   0  0  0  0  0  0  0  0  0  0  0  0
   60.4898   29.3547   47.1678 H   0  0  0  0  0  0  0  0  0  0  0  0
   60.8754   31.8129   47.3193 H   0  0  0  0  0  0  0  0  0  0  0  0
  1  2  1  0
  2  3  1  0
  3  4  1  0
  4  5  1  0
  5  6  2  0
  5  7  1  0
  7  8  2  0
  8  9  1  0
  9 10  2  0
 10 11  1  0
 11 12  1  0
 12 13  2  0
 12 14  1  0
 14 15  2  0
 15 16  1  0
 16 17  2  0
 17 18  1  0
 18 19  1  0
 19 20  2  0
 19 21  2  0
 19 22  1  0
 22 23  1  0
 23 24  1  0
 24 25  1  0
 25 26  2  0
 26 27  1  0
 27 28  1  0
 27 29  2  0
 29 30  1  0
 30 31  2  3
 30 32  1  0
 18 33  2  0
 10 34  1  0
 34 35  2  0
 35  7  1  0
 33 14  1  0
 32 25  1  0
  1 36  1  0
  1 37  1  0
  1 38  1  0
  2 39  1  0
  2 40  1  0
  3 41  1  0
  3 42  1  0
  8 43  1  0
  9 44  1  0
 15 45  1  0
 16 46  1  0
 17 47  1  0
 22 48  1  0
 23 49  1  0
 23 50  1  0
 24 51  1  0
 24 52  1  0
 26 53  1  0
 28 54  1  0
 28 55  1  0
 28 56  1  0
 29 57  1  0
 31 58  1  0
 33 59  1  0
 34 60  1  0
 35 61  1  0
M  CHG  2  11  -1  32  -1
M  END
>  <UniqueID>  (8) 
8

>  <SMILES>  (8) 
CCCOC(=O)c1ccc([N-]C(=O)c2cccc(S(=O)(=O)NCCc3cc(C)cc(=N)[n-]3)c2)cc1

>  <Energy>  (8) 
61.11597697033559

>  <Genealogy>  (8) 
CCCOC(=O)c1ccc([N-]C(=O)c2cccc(S(=O)(=O)NCCc3cc(C)cc(=N)[n-]3)c2)cc1 (protonated)
CCCOC(=O)c1ccc([N-]C(=O)c2cccc(S(=O)(=O)NCCc3cc(C)cc(=N)[n-]3)c2)cc1 (3D coordinates assigned)
CCCOC(=O)c1ccc([N-]C(=O)c2cccc(S(=O)(=O)NCCc3cc(C)cc(=N)[n-]3)c2)cc1 (optimized conformer: 61.11597697033559 kcal/mol)

>  <smiles>  (8) 
CCCOC(=O)c1ccc(NC(=O)c2cccc(S(=O)(=O)NCCc3cc(C)cc(=N)[nH]3)c2)cc1

>  <score_type>  (8) 
oracle

>  <origin>  (8) 
adg

>  <m_score__min__energy>  (8) 
-12.66

>  <m_primary>  (8) 
energy

$$$$
8:0
     RDKit          3D

 51 54  0  0  0  0  0  0  0  0999 V2000
   63.2580   33.8870   51.5960 C   0  0  0  0  0  0  0  0  0  0  0  0
   64.7220   33.7750   51.2620 C   0  0  0  0  0  0  0  0  0  0  0  0
   65.6290   34.6710   51.8560 C   0  0  0  0  0  0  0  0  0  0  0  0
   66.9920   34.5980   51.5680 C   0  0  0  0  0  0  0  0  0  0  0  0
   67.4690   33.6330   50.6820 C   0  0  0  0  0  0  0  0  0  0  0  0
   66.5850   32.7310   50.0880 C   0  0  0  0  0  0  0  0  0  0  0  0
   65.2100   32.7790   50.3760 C   0  0  0  0  0  0  0  0  0  0  0  0
   64.2910   31.8000   49.6830 C   0  0  0  0  0  0  0  0  0  0  0  0
   63.4250   32.5020   48.7400 N   0  0  0  0  0  0  0  0  0  0  0  0
   62.0930   32.6460   48.8220 C   0  0  0  0  0  0  0  0  0  0  0  0
   61.7210   33.3570   47.7030 C   0  0  0  0  0  0  0  0  0  0  0  0
   60.3310   33.7680   47.3260 C   0  0  0  0  0  0  0  0  0  0  0  0
   59.9660   33.2050   46.0120 N   0  0  0  0  0  0  0  0  0  0  0  0
   59.5560   34.2600   45.0430 C   0  0  0  0  0  0  0  0  0  0  0  0
   58.0340   34.3570   44.8740 C   0  0  0  0  0  0  0  0  0  0  0  0
   57.4400   33.0280   44.3770 C   0  0  0  0  0  0  0  0  0  0  0  0
   58.2560   31.8030   44.8480 C   0  0  2  0  0  0  0  0  0  0  0  0
   57.3840   30.5810   44.9690 C   0  0  0  0  0  0  0  0  0  0  0  0
   57.7830   29.3240   45.3800 C   0  0  0  0  0  0  0  0  0  0  0  0
   56.6220   28.5830   45.3400 C   0  0  0  0  0  0  0  0  0  0  0  0
   56.4880   27.1630   45.6850 C   0  0  0  0  0  0  0  0  0  0  0  0
   55.2080   26.6250   46.0090 N   0  0  0  0  0  0  0  0  0  0  0  0
   57.5020   26.4140   45.6980 O   0  0  0  0  0  0  0  0  0  0  0  0
   55.5970   29.3580   44.9360 N   0  0  0  0  0  0  0  0  0  0  0  0
   56.0620   30.5780   44.7120 N   0  0  0  0  0  0  0  0  0  0  0  0
   58.9800   32.1080   46.1710 C   0  0  0  0  0  0  0  0  0  0  0  0
   62.8240   33.6170   46.9720 N   0  0  0  0  0  0  0  0  0  0  0  0
   63.8460   33.0830   47.6260 N   0  0  0  0  0  0  0  0  0  0  0  0
   63.1309   33.8967   52.6886 H   0  0  0  0  0  0  0  0  0  0  0  0
   62.8553   34.8186   51.1717 H   0  0  0  0  0  0  0  0  0  0  0  0
   62.7183   33.0275   51.1717 H   0  0  0  0  0  0  0  0  0  0  0  0
   65.2600   35.4366   52.5543 H   0  0  0  0  0  0  0  0  0  0  0  0
   67.6916   35.3030   52.0408 H   0  0  0  0  0  0  0  0  0  0  0  0
   68.5433   33.5825   50.4509 H   0  0  0  0  0  0  0  0  0  0  0  0
   66.9683   31.9747   49.3872 H   0  0  0  0  0  0  0  0  0  0  0  0
   64.8941   31.0579   49.1393 H   0  0  0  0  0  0  0  0  0  0  0  0
   63.6675   31.2975   50.4372 H   0  0  0  0  0  0  0  0  0  0  0  0
   61.4338   32.2726   49.6195 H   0  0  0  0  0  0  0  0  0  0  0  0
   59.6258   33.4006   48.0861 H   0  0  0  0  0  0  0  0  0  0  0  0
   60.2871   34.8656   47.2682 H   0  0  0  0  0  0  0  0  0  0  0  0
   59.9319   35.2300   45.4004 H   0  0  0  0  0  0  0  0  0  0  0  0
   59.9803   33.9919   44.0642 H   0  0  0  0  0  0  0  0  0  0  0  0
   57.5814   34.6111   45.8439 H   0  0  0  0  0  0  0  0  0  0  0  0
   57.8169   35.1347   44.1270 H   0  0  0  0  0  0  0  0  0  0  0  0
   56.4127   32.9358   44.7592 H   0  0  0  0  0  0  0  0  0  0  0  0
   57.4623   33.0421   43.2773 H   0  0  0  0  0  0  0  0  0  0  0  0
   59.0194   31.5877   44.0859 H   0  0  0  0  0  0  0  0  0  0  0  0
   58.7907   28.9925   45.6709 H   0  0  0  0  0  0  0  0  0  0  0  0
   54.5840   27.1040   46.6950 H   0  0  0  0  0  0  0  0  0  0  0  0
   58.2360   32.4030   46.9256 H   0  0  0  0  0  0  0  0  0  0  0  0
   59.5196   31.2024   46.4854 H   0  0  0  0  0  0  0  0  0  0  0  0
  1  2  1  0
  2  3  2  0
  3  4  1  0
  4  5  2  0
  5  6  1  0
  6  7  2  0
  7  8  1  0
  8  9  1  0
  9 10  1  0
 10 11  2  0
 11 12  1  0
 12 13  1  0
 13 14  1  0
 14 15  1  0
 15 16  1  0
 16 17  1  0
 17 18  1  0
 18 19  1  0
 19 20  2  0
 20 21  1  0
 21 22  1  0
 21 23  2  0
 20 24  1  0
 24 25  1  0
 17 26  1  0
 11 27  1  0
 27 28  2  0
  7  2  1  0
 28  9  1  0
 26 13  1  0
 25 18  2  0
  1 29  1  0
  1 30  1  0
  1 31  1  0
  3 32  1  0
  4 33  1  0
  5 34  1  0
  6 35  1  0
  8 36  1  0
  8 37  1  0
 10 38  1  0
 12 39  1  0
 12 40  1  0
 14 41  1  0
 14 42  1  0
 15 43  1  0
 15 44  1  0
 16 45  1  0
 16 46  1  0
 17 47  1  6
 19 48  1  0
 22 49  1  0
 26 50  1  0
 26 51  1  0
M  CHG  2  22  -1  24  -1
M  END
>  <UniqueID>  (9) 
9

>  <SMILES>  (9) 
Cc1ccccc1Cn1cc(CN2CCC[C@H](c3cc(C([NH-])=O)[n-]n3)C2)nn1

>  <Energy>  (9) 
123.17140904042783

>  <Genealogy>  (9) 
Cc1ccccc1Cn1cc(CN2CCCC(c3cc(C([NH-])=O)[n-]n3)C2)nn1 (protonated)
Cc1ccccc1Cn1cc(CN2CCC[C@H](c3cc(C([NH-])=O)[n-]n3)C2)nn1 (chirality)
Cc1ccccc1Cn1cc(CN2CCC[C@H](c3cc(C([NH-])=O)[n-]n3)C2)nn1 (3D coordinates assigned)
Cc1ccccc1Cn1cc(CN2CCC[C@H](c3cc(C([NH-])=O)[n-]n3)C2)nn1 (nonaromatic ring conformer: 123.17140904042783 kcal/mol)

>  <smiles>  (9) 
Cc1ccccc1Cn1cc(CN2CCCC(c3cc(C(N)=O)[nH]n3)C2)nn1

>  <score_type>  (9) 
oracle

>  <origin>  (9) 
adg

>  <m_score__min__energy>  (9) 
-15.17

>  <m_primary>  (9) 
energy

$$$$
9:0
     RDKit          3D

 46 48  0  0  0  0  0  0  0  0999 V2000
   55.2150   24.8890   45.5970 C   0  0  0  0  0  0  0  0  0  0  0  0
   55.2330   26.2490   46.1190 N   0  0  0  0  0  0  0  0  0  0  0  0
   56.2490   27.2200   45.8340 C   0  0  0  0  0  0  0  0  0  0  0  0
   55.9230   28.2790   45.2350 O   0  0  0  0  0  0  0  0  0  0  0  0
   57.6660   27.0050   46.1880 C   0  0  0  0  0  0  0  0  0  0  0  0
   58.3240   25.8210   45.8230 C   0  0  0  0  0  0  0  0  0  0  0  0
   59.6520   25.6080   46.2000 C   0  0  0  0  0  0  0  0  0  0  0  0
   60.3350   26.5770   46.9400 C   0  0  0  0  0  0  0  0  0  0  0  0
   59.6990   27.7710   47.3000 C   0  0  0  0  0  0  0  0  0  0  0  0
   60.4240   28.7260   48.0950 N   0  0  0  0  0  0  0  0  0  0  0  0
   59.9190   29.6050   48.9100 C   0  0  0  0  0  0  0  0  0  0  0  0
   59.9910   29.4440   50.2600 N   0  0  0  0  0  0  0  0  0  0  0  0
   59.4490   30.3570   51.1060 C   0  0  0  0  0  0  0  0  0  0  0  0
   58.7920   31.4780   50.5980 C   0  0  0  0  0  0  0  0  0  0  0  0
   58.1840   32.6990   51.7070 Cl  0  0  0  0  0  0  0  0  0  0  0  0
   58.6940   31.6160   49.2030 C   0  0  0  0  0  0  0  0  0  0  0  0
   58.0500   32.7100   48.6130 O   0  0  0  0  0  0  0  0  0  0  0  0
   58.4070   33.2780   47.3800 C   0  0  0  0  0  0  0  0  0  0  0  0
   59.2390   34.4080   47.2920 C   0  0  0  0  0  0  0  0  0  0  0  0
   59.5620   34.9440   46.0440 C   0  0  0  0  0  0  0  0  0  0  0  0
   59.0540   34.3690   44.8780 C   0  0  0  0  0  0  0  0  0  0  0  0
   58.2100   33.2450   44.9470 C   0  0  0  0  0  0  0  0  0  0  0  0
   57.6600   32.6230   43.7710 N   0  0  0  0  0  0  0  0  0  0  0  0
   57.0920   30.9840   43.6910 S   0  0  0  0  0  0  0  0  0  0  0  0
   58.3680   29.8620   44.2230 C   0  0  0  0  0  0  0  0  0  0  0  0
   56.6530   30.6560   42.2920 O   0  0  0  0  0  0  0  0  0  0  0  0
   55.9120   30.8350   44.6110 O   0  0  0  0  0  0  0  0  0  0  0  0
   57.8910   32.7130   46.2090 C   0  0  0  0  0  0  0  0  0  0  0  0
   59.2700   30.6840   48.3990 N   0  0  0  0  0  0  0  0  0  0  0  0
   58.3480   27.9640   46.9530 C   0  0  0  0  0  0  0  0  0  0  0  0
   55.2056   24.1751   46.4339 H   0  0  0  0  0  0  0  0  0  0  0  0
   54.3149   24.7444   44.9815 H   0  0  0  0  0  0  0  0  0  0  0  0
   56.1110   24.7206   44.9815 H   0  0  0  0  0  0  0  0  0  0  0  0
   57.7918   25.0570   45.2373 H   0  0  0  0  0  0  0  0  0  0  0  0
   60.1611   24.6758   45.9139 H   0  0  0  0  0  0  0  0  0  0  0  0
   61.3781   26.4005   47.2413 H   0  0  0  0  0  0  0  0  0  0  0  0
   59.5280   30.2127   52.1936 H   0  0  0  0  0  0  0  0  0  0  0  0
   59.6360   34.8704   48.2077 H   0  0  0  0  0  0  0  0  0  0  0  0
   60.2197   35.8233   45.9793 H   0  0  0  0  0  0  0  0  0  0  0  0
   59.3150   34.7971   43.8989 H   0  0  0  0  0  0  0  0  0  0  0  0
   57.5680   33.1900   42.8980 H   0  0  0  0  0  0  0  0  0  0  0  0
   58.3981   29.8356   45.3223 H   0  0  0  0  0  0  0  0  0  0  0  0
   58.1541   28.8541   43.8377 H   0  0  0  0  0  0  0  0  0  0  0  0
   59.3402   30.2031   43.8377 H   0  0  0  0  0  0  0  0  0  0  0  0
   57.2258   31.8395   46.2764 H   0  0  0  0  0  0  0  0  0  0  0  0
   57.8235   28.8726   47.2837 H   0  0  0  0  0  0  0  0  0  0  0  0
  1  2  1  0
  2  3  1  0
  3  4  2  0
  3  5  1  0
  5  6  2  0
  6  7  1  0
  7  8  2  0
  8  9  1  0
  9 10  1  0
 10 11  2  3
 11 12  1  0
 12 13  2  0
 13 14  1  0
 14 15  1  0
 14 16  2  0
 16 17  1  0
 17 18  1  0
 18 19  2  0
 19 20  1  0
 20 21  2  0
 21 22  1  0
 22 23  1  0
 23 24  1  0
 24 25  1  0
 24 26  2  0
 24 27  2  0
 22 28  2  0
 16 29  1  0
  9 30  2  0
 30  5  1  0
 29 11  1  0
 28 18  1  0
  1 31  1  0
  1 32  1  0
  1 33  1  0
  6 34  1  0
  7 35  1  0
  8 36  1  0
 13 37  1  0
 19 38  1  0
 20 39  1  0
 21 40  1  0
 23 41  1  0
 25 42  1  0
 25 43  1  0
 25 44  1  0
 28 45  1  0
 30 46  1  0
M  CHG  2   2  -1  29  -1
M  END
>  <UniqueID>  (10) 
10

>  <SMILES>  (10) 
C[N-]C(=O)c1cccc(N=c2ncc(Cl)c(Oc3cccc(NS(C)(=O)=O)c3)[n-]2)c1

>  <Energy>  (10) 
66.92407433144683

>  <Genealogy>  (10) 
C[N-]C(=O)c1cccc(N=c2ncc(Cl)c(Oc3cccc(NS(C)(=O)=O)c3)[n-]2)c1 (protonated)
C[N-]C(=O)c1cccc(N=c2ncc(Cl)c(Oc3cccc(NS(C)(=O)=O)c3)[n-]2)c1 (3D coordinates assigned)
C[N-]C(=O)c1cccc(N=c2ncc(Cl)c(Oc3cccc(NS(C)(=O)=O)c3)[n-]2)c1 (optimized conformer: 66.92407433144683 kcal/mol)

>  <smiles>  (10) 
CNC(=O)c1cccc(N=c2ncc(Cl)c(Oc3cccc(NS(C)(=O)=O)c3)[nH]2)c1

>  <score_type>  (10) 
oracle

>  <origin>  (10) 
adg

>  <m_score__min__energy>  (10) 
-14.550000000000001

>  <m_primary>  (10) 
energy

$$$$
10:0
     RDKit          3D

 72 75  0  0  0  0  0  0  0  0999 V2000
   62.8360   32.0720   50.5640 C   0  0  0  0  0  0  0  0  0  0  0  0
   62.3050   33.6540   51.1900 S   0  0  0  0  0  0  0  0  0  0  0  0
   62.9670   34.7410   50.3910 O   0  0  0  0  0  0  0  0  0  0  0  0
   62.7000   33.8080   52.6330 O   0  0  0  0  0  0  0  0  0  0  0  0
   60.5850   33.8040   51.0200 N   0  0  0  0  0  0  0  0  0  0  0  0
   59.6380   32.7270   51.0630 C   0  0  0  0  0  0  0  0  0  0  0  0
   58.6880   32.7090   52.0930 C   0  0  0  0  0  0  0  0  0  0  0  0
   57.7650   31.6640   52.1880 C   0  0  0  0  0  0  0  0  0  0  0  0
   57.7800   30.6290   51.2510 C   0  0  0  0  0  0  0  0  0  0  0  0
   58.7040   30.6380   50.1970 C   0  0  0  0  0  0  0  0  0  0  0  0
   58.7400   29.5320   49.2750 N   0  0  0  0  0  0  0  0  0  0  0  0
   59.9440   28.8290   48.9310 C   0  0  0  0  0  0  0  0  0  0  0  0
   61.0510   29.4320   48.9380 O   0  0  0  0  0  0  0  0  0  0  0  0
   59.8890   27.3710   48.5710 C   0  0  0  0  0  0  0  0  0  0  0  0
   59.1150   27.1460   47.2970 C   0  0  0  0  0  0  0  0  0  0  0  0
   59.3260   25.9780   46.5450 C   0  0  0  0  0  0  0  0  0  0  0  0
   58.5950   25.7500   45.3790 C   0  0  0  0  0  0  0  0  0  0  0  0
   57.6480   26.6870   44.9500 C   0  0  0  0  0  0  0  0  0  0  0  0
   57.4260   27.8590   45.6840 C   0  0  0  0  0  0  0  0  0  0  0  0
   56.3800   28.7460   45.2580 N   0  0  0  0  0  0  0  0  0  0  0  0
   56.5440   30.0610   44.7100 C   0  0  0  0  0  0  0  0  0  0  0  0
   55.5500   30.6840   44.2500 O   0  0  0  0  0  0  0  0  0  0  0  0
   57.9140   30.7010   44.7500 C   0  0  0  0  0  0  0  0  0  0  0  0
   58.2270   31.2740   46.1510 C   0  0  0  0  0  0  0  0  0  0  0  0
   57.5210   32.6120   46.3860 C   0  0  0  0  0  0  0  0  0  0  0  0
   57.8860   33.5350   45.3050 N   0  0  0  0  0  0  0  0  0  0  0  0
   58.9590   34.4920   45.4630 C   0  0  0  0  0  0  0  0  0  0  0  0
   59.6440   34.8300   44.4590 O   0  0  0  0  0  0  0  0  0  0  0  0
   59.3250   35.0340   46.8250 C   0  0  0  0  0  0  0  0  0  0  0  0
   59.6870   33.9470   47.8500 C   0  0  0  0  0  0  0  0  0  0  0  0
   61.0500   33.3560   47.5920 C   0  0  0  0  0  0  0  0  0  0  0  0
   62.1950   34.1720   47.5830 C   0  0  0  0  0  0  0  0  0  0  0  0
   63.4560   33.6180   47.3440 C   0  0  0  0  0  0  0  0  0  0  0  0
   63.5850   32.2450   47.1140 C   0  0  0  0  0  0  0  0  0  0  0  0
   62.4530   31.4260   47.1240 C   0  0  0  0  0  0  0  0  0  0  0  0
   61.1900   31.9770   47.3610 C   0  0  0  0  0  0  0  0  0  0  0  0
   57.4760   33.1070   43.9630 C   0  0  0  0  0  0  0  0  0  0  0  0
   58.1380   31.7580   43.6350 C   0  0  0  0  0  0  0  0  0  0  0  0
   58.1640   28.0860   46.8620 C   0  0  0  0  0  0  0  0  0  0  0  0
   59.6400   31.6870   50.1130 C   0  0  0  0  0  0  0  0  0  0  0  0
   63.0611   31.4012   51.4062 H   0  0  0  0  0  0  0  0  0  0  0  0
   62.0358   31.6334   49.9497 H   0  0  0  0  0  0  0  0  0  0  0  0
   63.7387   32.2050   49.9497 H   0  0  0  0  0  0  0  0  0  0  0  0
   58.6687   33.5234   52.8322 H   0  0  0  0  0  0  0  0  0  0  0  0
   57.0255   31.6569   53.0023 H   0  0  0  0  0  0  0  0  0  0  0  0
   57.0617   29.8007   51.3406 H   0  0  0  0  0  0  0  0  0  0  0  0
   57.8420   29.2230   48.8370 H   0  0  0  0  0  0  0  0  0  0  0  0
   60.9147   26.9968   48.4371 H   0  0  0  0  0  0  0  0  0  0  0  0
   59.3795   26.8334   49.3842 H   0  0  0  0  0  0  0  0  0  0  0  0
   60.0710   25.2400   46.8772 H   0  0  0  0  0  0  0  0  0  0  0  0
   58.7631   24.8325   44.7959 H   0  0  0  0  0  0  0  0  0  0  0  0
   57.0741   26.5017   44.0300 H   0  0  0  0  0  0  0  0  0  0  0  0
   58.6319   29.8939   44.5422 H   0  0  0  0  0  0  0  0  0  0  0  0
   57.8917   30.5553   46.9132 H   0  0  0  0  0  0  0  0  0  0  0  0
   59.3120   31.4422   46.2182 H   0  0  0  0  0  0  0  0  0  0  0  0
   56.4316   32.4596   46.3901 H   0  0  0  0  0  0  0  0  0  0  0  0
   57.8278   33.0315   47.3555 H   0  0  0  0  0  0  0  0  0  0  0  0
   60.1898   35.7041   46.7104 H   0  0  0  0  0  0  0  0  0  0  0  0
   58.4364   35.5547   47.2114 H   0  0  0  0  0  0  0  0  0  0  0  0
   59.6776   34.3911   48.8563 H   0  0  0  0  0  0  0  0  0  0  0  0
   58.9454   33.1392   47.7635 H   0  0  0  0  0  0  0  0  0  0  0  0
   62.0980   35.2525   47.7651 H   0  0  0  0  0  0  0  0  0  0  0  0
   64.3473   34.2627   47.3369 H   0  0  0  0  0  0  0  0  0  0  0  0
   64.5774   31.8096   46.9252 H   0  0  0  0  0  0  0  0  0  0  0  0
   62.5557   30.3455   46.9451 H   0  0  0  0  0  0  0  0  0  0  0  0
   60.3019   31.3280   47.3667 H   0  0  0  0  0  0  0  0  0  0  0  0
   56.3820   32.9969   43.9307 H   0  0  0  0  0  0  0  0  0  0  0  0
   57.7887   33.8600   43.2246 H   0  0  0  0  0  0  0  0  0  0  0  0
   57.7131   31.3754   42.6953 H   0  0  0  0  0  0  0  0  0  0  0  0
   59.2212   31.9288   43.5481 H   0  0  0  0  0  0  0  0  0  0  0  0
   57.9955   29.0036   47.4448 H   0  0  0  0  0  0  0  0  0  0  0  0
   60.3791   31.6942   49.2983 H   0  0  0  0  0  0  0  0  0  0  0  0
  1  2  1  0
  2  3  2  0
  2  4  2  0
  2  5  1  0
  5  6  1  0
  6  7  2  0
  7  8  1  0
  8  9  2  0
  9 10  1  0
 10 11  1  0
 11 12  1  0
 12 13  2  0
 12 14  1  0
 14 15  1  0
 15 16  2  0
 16 17  1  0
 17 18  2  0
 18 19  1  0
 19 20  1  0
 20 21  1  0
 21 22  2  0
 21 23  1  0
 23 24  1  0
 24 25  1  0
 25 26  1  0
 26 27  1  0
 27 28  2  0
 27 29  1  0
 29 30  1  0
 30 31  1  0
 31 32  2  0
 32 33  1  0
 33 34  2  0
 34 35  1  0
 35 36  2  0
 26 37  1  0
 37 38  1  0
 19 39  2  0
 10 40  2  0
 40  6  1  0
 39 15  1  0
 38 23  1  0
 36 31  1  0
  1 41  1  0
  1 42  1  0
  1 43  1  0
  7 44  1  0
  8 45  1  0
  9 46  1  0
 11 47  1  0
 14 48  1  0
 14 49  1  0
 16 50  1  0
 17 51  1  0
 18 52  1  0
 23 53  1  0
 24 54  1  0
 24 55  1  0
 25 56  1  0
 25 57  1  0
 29 58  1  0
 29 59  1  0
 30 60  1  0
 30 61  1  0
 32 62  1  0
 33 63  1  0
 34 64  1  0
 35 65  1  0
 36 66  1  0
 37 67  1  0
 37 68  1  0
 38 69  1  0
 38 70  1  0
 39 71  1  0
 40 72  1  0
M  CHG  2   5  -1  20  -1
M  END
>  <UniqueID>  (11) 
11

>  <SMILES>  (11) 
CS(=O)(=O)[N-]c1cccc(NC(=O)Cc2cccc([N-]C(=O)C3CCN(C(=O)CCc4ccccc4)CC3)c2)c1

>  <Energy>  (11) 
80.1664493127102

>  <Genealogy>  (11) 
CS(=O)(=O)[N-]c1cccc(NC(=O)Cc2cccc([N-]C(=O)C3CCN(C(=O)CCc4ccccc4)CC3)c2)c1 (protonated)
CS(=O)(=O)[N-]c1cccc(NC(=O)Cc2cccc([N-]C(=O)C3CCN(C(=O)CCc4ccccc4)CC3)c2)c1 (3D coordinates assigned)
CS(=O)(=O)[N-]c1cccc(NC(=O)Cc2cccc([N-]C(=O)C3CCN(C(=O)CCc4ccccc4)CC3)c2)c1 (nonaromatic ring conformer: 80.1664493127102 kcal/mol)

>  <smiles>  (11) 
CS(=O)(=O)Nc1cccc(NC(=O)Cc2cccc(NC(=O)C3CCN(C(=O)CCc4ccccc4)CC3)c2)c1

>  <score_type>  (11) 
oracle

>  <origin>  (11) 
adg

>  <m_score__min__energy>  (11) 
-15.029999999999999

>  <m_primary>  (11) 
energy

$$$$
11:0
     RDKit          3D

 50 52  0  0  0  0  0  0  0  0999 V2000
   64.8830   32.9240   47.8120 H   0  0  0  0  0  0  0  0  0  0  0  0
   64.2500   32.9250   48.6440 N   0  0  0  0  0  0  0  0  0  0  0  0
   62.7070   33.4800   48.1010 S   0  0  0  0  0  0  0  0  0  0  0  0
   62.8600   34.1530   46.7670 O   0  0  0  0  0  0  0  0  0  0  0  0
   62.1700   34.4680   49.0990 O   0  0  0  0  0  0  0  0  0  0  0  0
   61.6050   32.1160   47.9520 C   0  0  0  0  0  0  0  0  0  0  0  0
   60.4630   32.0270   48.7590 C   0  0  0  0  0  0  0  0  0  0  0  0
   60.2433   32.8221   49.4867 H   0  0  0  0  0  0  0  0  0  0  0  0
   59.6010   30.9310   48.6430 C   0  0  0  0  0  0  0  0  0  0  0  0
   58.7110   30.8630   49.2858 H   0  0  0  0  0  0  0  0  0  0  0  0
   59.8690   29.9160   47.7070 C   0  0  0  0  0  0  0  0  0  0  0  0
   59.0510   28.7400   47.5970 N   0  0  0  0  0  0  0  0  0  0  0  0
   58.0510   28.5480   46.7870 C   0  0  0  0  0  0  0  0  0  0  0  0
   57.3390   27.3900   46.8000 N   0  0  0  0  0  0  0  0  0  0  0  0
   56.2670   27.2290   45.9790 C   0  0  0  0  0  0  0  0  0  0  0  0
   55.5810   26.1230   45.9620 N   0  0  0  0  0  0  0  0  0  0  0  0
   56.0720   24.7700   45.9840 C   0  0  0  0  0  0  0  0  0  0  0  0
   56.7130   24.3200   47.1470 C   0  0  0  0  0  0  0  0  0  0  0  0
   56.7602   24.9727   48.0312 H   0  0  0  0  0  0  0  0  0  0  0  0
   57.2920   23.0500   47.1920 C   0  0  0  0  0  0  0  0  0  0  0  0
   57.7847   22.7039   48.1126 H   0  0  0  0  0  0  0  0  0  0  0  0
   57.2470   22.2190   46.0720 C   0  0  0  0  0  0  0  0  0  0  0  0
   57.7106   21.2222   46.1092 H   0  0  0  0  0  0  0  0  0  0  0  0
   56.6120   22.6520   44.8990 C   0  0  0  0  0  0  0  0  0  0  0  0
   56.6090   21.6280   43.4660 S   0  0  0  0  0  0  0  0  0  0  0  0
   55.8660   22.3080   42.3490 O   0  0  0  0  0  0  0  0  0  0  0  0
   58.0310   21.3950   43.0370 O   0  0  0  0  0  0  0  0  0  0  0  0
   55.8670   20.0920   43.8020 N   0  0  0  0  0  0  0  0  0  0  0  0
   55.4180   20.0470   45.1890 C   0  0  0  0  0  0  0  0  0  0  0  0
   56.2864   20.1340   45.8585 H   0  0  0  0  0  0  0  0  0  0  0  0
   54.7249   20.8802   45.3773 H   0  0  0  0  0  0  0  0  0  0  0  0
   54.9040   19.0928   45.3773 H   0  0  0  0  0  0  0  0  0  0  0  0
   56.0430   23.9350   44.8490 C   0  0  0  0  0  0  0  0  0  0  0  0
   55.5727   24.2897   43.9200 H   0  0  0  0  0  0  0  0  0  0  0  0
   55.9180   28.2320   45.1340 N   0  0  0  0  0  0  0  0  0  0  0  0
   56.6150   29.3950   45.1200 C   0  0  0  0  0  0  0  0  0  0  0  0
   56.2520   30.3460   44.3110 N   0  0  0  0  0  0  0  0  0  0  0  0
   57.1260   31.4170   43.8290 C   0  0  0  0  0  0  0  0  0  0  0  0
   58.1493   31.0268   43.7262 H   0  0  0  0  0  0  0  0  0  0  0  0
   56.7465   31.7673   42.8578 H   0  0  0  0  0  0  0  0  0  0  0  0
   57.1370   32.5980   44.8010 C   0  0  0  0  0  0  0  0  0  0  0  0
   57.9290   33.3035   44.5094 H   0  0  0  0  0  0  0  0  0  0  0  0
   56.1604   33.1032   44.7696 H   0  0  0  0  0  0  0  0  0  0  0  0
   57.3790   32.1390   46.1040 O   0  0  0  0  0  0  0  0  0  0  0  0
   57.0520   31.2030   46.1330 H   0  0  0  0  0  0  0  0  0  0  0  0
   57.6790   29.5500   45.9510 N   0  0  0  0  0  0  0  0  0  0  0  0
   61.0230   30.0000   46.9190 C   0  0  0  0  0  0  0  0  0  0  0  0
   61.2581   29.1944   46.2078 H   0  0  0  0  0  0  0  0  0  0  0  0
   61.8790   31.1000   47.0290 C   0  0  0  0  0  0  0  0  0  0  0  0
   62.7706   31.1672   46.3882 H   0  0  0  0  0  0  0  0  0  0  0  0
  1  2  1  0
  2  3  1  0
  3  4  2  0
  3  5  2  0
  3  6  1  0
  6  7  2  0
  7  8  1  0
  7  9  1  0
  9 10  1  0
  9 11  2  0
 11 12  1  0
 12 13  2  3
 13 14  1  0
 14 15  1  0
 15 16  2  3
 16 17  1  0
 17 18  2  0
 18 19  1  0
 18 20  1  0
 20 21  1  0
 20 22  2  0
 22 23  1  0
 22 24  1  0
 24 25  1  0
 25 26  2  0
 25 27  2  0
 25 28  1  0
 28 29  1  0
 29 30  1  0
 29 31  1  0
 29 32  1  0
 24 33  2  0
 33 34  1  0
 15 35  1  0
 35 36  1  0
 36 37  2  0
 37 38  1  0
 38 39  1  0
 38 40  1  0
 38 41  1  0
 41 42  1  0
 41 43  1  0
 41 44  1  0
 44 45  1  0
 36 46  1  0
 11 47  1  0
 47 48  1  0
 47 49  2  0
 49 50  1  0
 49  6  1  0
 46 13  1  0
 33 17  1  0
M  CHG  5   2  -1  14  -1  28  -1  35  -1  46  -1
M  END
>  <UniqueID>  (12) 
12

>  <SMILES>  (12) 
C[N-]S(=O)(=O)c1cccc(N=c2[n-]c(=Nc3ccc(S([NH-])(=O)=O)cc3)[n-]/c(=N\CCO)[n-]2)c1

>  <Energy>  (12) 
56.5351579184871

>  <Genealogy>  (12) 
C[N-]S(=O)(=O)c1cccc(N=c2[n-]c(=NCCO)[n-]c(=Nc3ccc(S([NH-])(=O)=O)cc3)[n-]2)c1 (protonated)
C[N-]S(=O)(=O)c1cccc(N=c2[n-]c(=Nc3ccc(S([NH-])(=O)=O)cc3)[n-]/c(=N\CCO)[n-]2)c1 (cis-trans isomerization)
C[N-]S(=O)(=O)c1cccc(N=c2[n-]c(=Nc3ccc(S([NH-])(=O)=O)cc3)[n-]/c(=N\CCO)[n-]2)c1 (3D coordinates assigned)
C[N-]S(=O)(=O)c1cccc(N=c2[n-]c(=Nc3ccc(S([NH-])(=O)=O)cc3)[n-]/c(=N\CCO)[n-]2)c1 (optimized conformer: 56.5351579184871 kcal/mol)

>  <smiles>  (12) 
CNS(=O)(=O)c1cccc(N=c2[nH]c(=NCCO)[nH]c(=Nc3ccc(S(N)(=O)=O)cc3)[nH]2)c1

>  <score_type>  (12) 
oracle

>  <origin>  (12) 
adg

>  <m_score__min__energy>  (12) 
-14.869999999999999

>  <m_primary>  (12) 
energy

$$$$
12:0
     RDKit          3D

 57 61  0  0  0  0  0  0  0  0999 V2000
   57.3980   24.5310   47.9350 C   0  0  0  0  0  0  0  0  0  0  0  0
   57.3820   24.2240   46.4600 C   0  0  0  0  0  0  0  0  0  0  0  0
   58.0660   23.0880   45.9940 C   0  0  0  0  0  0  0  0  0  0  0  0
   58.0680   22.7660   44.6360 C   0  0  0  0  0  0  0  0  0  0  0  0
   57.3920   23.5750   43.7260 C   0  0  0  0  0  0  0  0  0  0  0  0
   56.7180   24.7140   44.1680 C   0  0  0  0  0  0  0  0  0  0  0  0
   56.7080   25.0570   45.5320 C   0  0  0  0  0  0  0  0  0  0  0  0
   56.0180   26.3030   45.9460 C   0  0  0  0  0  0  0  0  0  0  0  0
   54.7590   26.3410   45.9740 O   0  0  0  0  0  0  0  0  0  0  0  0
   56.7520   27.4430   46.4100 N   0  0  0  0  0  0  0  0  0  0  0  0
   58.0900   27.7870   46.0240 C   0  0  0  0  0  0  0  0  0  0  0  0
   59.1820   26.9820   46.3930 C   0  0  0  0  0  0  0  0  0  0  0  0
   60.4740   27.3270   45.9890 C   0  0  0  0  0  0  0  0  0  0  0  0
   60.6850   28.4660   45.2090 C   0  0  0  0  0  0  0  0  0  0  0  0
   59.6030   29.2690   44.8330 C   0  0  0  0  0  0  0  0  0  0  0  0
   58.3000   28.9340   45.2430 C   0  0  0  0  0  0  0  0  0  0  0  0
   57.1880   29.7240   44.9230 O   0  0  0  0  0  0  0  0  0  0  0  0
   57.1570   30.7260   43.9130 C   0  0  0  0  0  0  0  0  0  0  0  0
   57.3090   32.0490   44.5810 C   0  0  0  0  0  0  0  0  0  0  0  0
   58.5100   32.6480   44.8920 C   0  0  0  0  0  0  0  0  0  0  0  0
   58.2230   33.6620   45.7240 N   0  0  0  0  0  0  0  0  0  0  0  0
   59.1770   34.4510   46.4990 C   0  0  0  0  0  0  0  0  0  0  0  0
   60.3830   33.6030   46.8420 C   0  0  0  0  0  0  0  0  0  0  0  0
   61.6540   34.1350   46.5840 C   0  0  0  0  0  0  0  0  0  0  0  0
   62.7930   33.4190   46.9560 C   0  0  0  0  0  0  0  0  0  0  0  0
   63.9360   33.8920   46.7200 O   0  0  0  0  0  0  0  0  0  0  0  0
   62.6810   32.2450   47.5610 O   0  0  0  0  0  0  0  0  0  0  0  0
   61.5080   31.6910   47.8430 C   0  0  0  0  0  0  0  0  0  0  0  0
   61.4790   30.4500   48.4910 C   0  0  0  0  0  0  0  0  0  0  0  0
   60.2590   29.8430   48.7960 C   0  0  0  0  0  0  0  0  0  0  0  0
   60.2330   28.2770   49.5870 Cl  0  0  0  0  0  0  0  0  0  0  0  0
   59.0610   30.4770   48.4590 C   0  0  0  0  0  0  0  0  0  0  0  0
   59.0750   31.7160   47.8120 C   0  0  0  0  0  0  0  0  0  0  0  0
   60.2980   32.3460   47.4960 C   0  0  0  0  0  0  0  0  0  0  0  0
   56.9120   33.6690   45.9140 N   0  0  0  0  0  0  0  0  0  0  0  0
   56.3240   32.6880   45.2450 N   0  0  0  0  0  0  0  0  0  0  0  0
   57.3491   23.5918   48.5056 H   0  0  0  0  0  0  0  0  0  0  0  0
   58.3252   25.0659   48.1882 H   0  0  0  0  0  0  0  0  0  0  0  0
   56.5314   25.1594   48.1882 H   0  0  0  0  0  0  0  0  0  0  0  0
   58.6050   22.4464   46.7066 H   0  0  0  0  0  0  0  0  0  0  0  0
   58.6041   21.8723   44.2841 H   0  0  0  0  0  0  0  0  0  0  0  0
   57.3894   23.3156   42.6570 H   0  0  0  0  0  0  0  0  0  0  0  0
   56.1893   25.3499   43.4426 H   0  0  0  0  0  0  0  0  0  0  0  0
   59.0189   26.0796   47.0005 H   0  0  0  0  0  0  0  0  0  0  0  0
   61.3274   26.6998   46.2861 H   0  0  0  0  0  0  0  0  0  0  0  0
   61.7035   28.7321   44.8898 H   0  0  0  0  0  0  0  0  0  0  0  0
   59.7715   30.1638   44.2158 H   0  0  0  0  0  0  0  0  0  0  0  0
   57.9824   30.5679   43.2033 H   0  0  0  0  0  0  0  0  0  0  0  0
   56.2090   30.6825   43.3568 H   0  0  0  0  0  0  0  0  0  0  0  0
   59.5064   32.3539   44.5304 H   0  0  0  0  0  0  0  0  0  0  0  0
   59.4983   35.3206   45.9069 H   0  0  0  0  0  0  0  0  0  0  0  0
   58.6967   34.7927   47.4277 H   0  0  0  0  0  0  0  0  0  0  0  0
   61.7534   35.1129   46.0903 H   0  0  0  0  0  0  0  0  0  0  0  0
   62.4214   29.9511   48.7610 H   0  0  0  0  0  0  0  0  0  0  0  0
   58.1012   29.9987   48.7041 H   0  0  0  0  0  0  0  0  0  0  0  0
   58.1254   32.2039   47.5470 H   0  0  0  0  0  0  0  0  0  0  0  0
   56.4090   34.3180   46.5590 H   0  0  0  0  0  0  0  0  0  0  0  0
  1  2  1  0
  2  3  2  0
  3  4  1  0
  4  5  2  0
  5  6  1  0
  6  7  2  0
  7  8  1  0
  8  9  2  0
  8 10  1  0
 10 11  1  0
 11 12  2  0
 12 13  1  0
 13 14  2  0
 14 15  1  0
 15 16  2  0
 16 17  1  0
 17 18  1  0
 18 19  1  0
 19 20  2  0
 20 21  1  0
 21 22  1  0
 22 23  1  0
 23 24  2  0
 24 25  1  0
 25 26  2  0
 25 27  1  0
 27 28  1  0
 28 29  2  0
 29 30  1  0
 30 31  1  0
 30 32  2  0
 32 33  1  0
 33 34  2  0
 21 35  1  0
 35 36  2  0
  7  2  1  0
 16 11  1  0
 36 19  1  0
 34 23  1  0
 34 28  1  0
  1 37  1  0
  1 38  1  0
  1 39  1  0
  3 40  1  0
  4 41  1  0
  5 42  1  0
  6 43  1  0
 12 44  1  0
 13 45  1  0
 14 46  1  0
 15 47  1  0
 18 48  1  0
 18 49  1  0
 20 50  1  0
 22 51  1  0
 22 52  1  0
 24 53  1  0
 29 54  1  0
 32 55  1  0
 33 56  1  0
 35 57  1  0
M  CHG  2  10  -1  35   1
M  END
>  <UniqueID>  (13) 
13

>  <SMILES>  (13) 
Cc1ccccc1C(=O)[N-]c1ccccc1OCc1cn(Cc2cc(=O)oc3cc(Cl)ccc23)[nH+]n1

>  <Energy>  (13) 
107.45608734162096

>  <Genealogy>  (13) 
Cc1ccccc1C(=O)[N-]c1ccccc1OCc1cn(Cc2cc(=O)oc3cc(Cl)ccc23)[nH+]n1 (protonated)
Cc1ccccc1C(=O)[N-]c1ccccc1OCc1cn(Cc2cc(=O)oc3cc(Cl)ccc23)[nH+]n1 (3D coordinates assigned)
Cc1ccccc1C(=O)[N-]c1ccccc1OCc1cn(Cc2cc(=O)oc3cc(Cl)ccc23)[nH+]n1 (optimized conformer: 107.45608734162096 kcal/mol)

>  <smiles>  (13) 
Cc1ccccc1C(=O)Nc1ccccc1OCc1cn(Cc2cc(=O)oc3cc(Cl)ccc23)nn1

>  <score_type>  (13) 
oracle

>  <origin>  (13) 
adg

>  <m_score__min__energy>  (13) 
-11.609999999999999

>  <m_primary>  (13) 
energy

$$$$
13:0
     RDKit          3D

 57 61  0  0  0  0  0  0  0  0999 V2000
   55.2224   24.2355   47.1745 H   0  0  0  0  0  0  0  0  0  0  0  0
   55.9080   24.9110   46.6420 C   0  0  0  0  0  0  0  0  0  0  0  0
   55.4930   26.1530   46.2800 N   0  0  0  0  0  0  0  0  0  0  0  0
   56.3090   27.0230   45.6190 C   0  0  0  0  0  0  0  0  0  0  0  0
   55.8900   28.2060   45.2830 N   0  0  0  0  0  0  0  0  0  0  0  0
   56.9360   29.4840   44.7480 S   0  0  0  0  0  0  0  0  0  0  0  0
   57.4830   29.1540   43.3870 O   0  0  0  0  0  0  0  0  0  0  0  0
   56.1460   30.7580   44.6440 O   0  0  0  0  0  0  0  0  0  0  0  0
   58.2450   29.7070   45.9050 C   0  0  0  0  0  0  0  0  0  0  0  0
   58.1800   29.1120   47.1720 C   0  0  0  0  0  0  0  0  0  0  0  0
   57.3161   28.4864   47.4409 H   0  0  0  0  0  0  0  0  0  0  0  0
   59.2120   29.3120   48.0960 C   0  0  0  0  0  0  0  0  0  0  0  0
   59.1560   28.8450   49.0904 H   0  0  0  0  0  0  0  0  0  0  0  0
   60.3200   30.1080   47.7570 C   0  0  0  0  0  0  0  0  0  0  0  0
   61.3930   30.3310   48.6800 N   0  0  0  0  0  0  0  0  0  0  0  0
   62.3890   31.0630   48.3850 N   0  0  0  0  0  0  0  0  0  0  0  0
   62.8660   32.1340   49.2180 C   0  0  0  0  0  0  0  0  0  0  0  0
   62.2020   33.3670   49.1820 C   0  0  0  0  0  0  0  0  0  0  0  0
   61.0530   33.5900   48.2800 C   0  0  0  0  0  0  0  0  0  0  0  0
   61.3050   34.0230   46.9660 C   0  0  0  0  0  0  0  0  0  0  0  0
   62.3415   34.1786   46.6320 H   0  0  0  0  0  0  0  0  0  0  0  0
   60.2500   34.2570   46.0820 C   0  0  0  0  0  0  0  0  0  0  0  0
   60.4575   34.5939   45.0556 H   0  0  0  0  0  0  0  0  0  0  0  0
   58.9340   34.0640   46.4990 C   0  0  0  0  0  0  0  0  0  0  0  0
   58.1040   34.2545   45.8027 H   0  0  0  0  0  0  0  0  0  0  0  0
   58.6670   33.6290   47.8000 C   0  0  0  0  0  0  0  0  0  0  0  0
   57.6259   33.4777   48.1212 H   0  0  0  0  0  0  0  0  0  0  0  0
   59.7170   33.3830   48.7020 C   0  0  0  0  0  0  0  0  0  0  0  0
   59.3280   32.7730   50.3220 S   0  0  0  0  0  0  0  0  0  0  0  0
   57.8820   32.3640   50.3820 O   0  0  0  0  0  0  0  0  0  0  0  0
   59.5640   33.8530   51.3400 O   0  0  0  0  0  0  0  0  0  0  0  0
   60.2950   31.3870   50.6990 N   0  0  0  0  0  0  0  0  0  0  0  0
   59.8620   30.5640   50.2260 H   0  0  0  0  0  0  0  0  0  0  0  0
   61.2370   31.5290   50.2700 H   0  0  0  0  0  0  0  0  0  0  0  0
   62.6190   34.3800   49.9770 N   0  0  0  0  0  0  0  0  0  0  0  0
   63.6650   34.2370   50.8270 C   0  0  0  0  0  0  0  0  0  0  0  0
   64.0410   35.3200   51.6300 C   0  0  0  0  0  0  0  0  0  0  0  0
   63.4942   36.2724   51.5666 H   0  0  0  0  0  0  0  0  0  0  0  0
   65.1110   35.1840   52.5090 C   0  0  0  0  0  0  0  0  0  0  0  0
   65.4140   36.0291   53.1447 H   0  0  0  0  0  0  0  0  0  0  0  0
   65.7960   33.9760   52.5810 C   0  0  0  0  0  0  0  0  0  0  0  0
   66.6429   33.8603   53.2734 H   0  0  0  0  0  0  0  0  0  0  0  0
   65.4020   32.9110   51.7690 C   0  0  0  0  0  0  0  0  0  0  0  0
   65.9443   31.9556   51.8253 H   0  0  0  0  0  0  0  0  0  0  0  0
   64.3450   33.0410   50.9000 N   0  0  0  0  0  0  0  0  0  0  0  0
   63.9570   31.9900   50.1040 C   0  0  0  0  0  0  0  0  0  0  0  0
   64.5720   30.8880   50.1640 O   0  0  0  0  0  0  0  0  0  0  0  0
   60.3800   30.7000   46.4900 C   0  0  0  0  0  0  0  0  0  0  0  0
   61.2453   31.3220   46.2173 H   0  0  0  0  0  0  0  0  0  0  0  0
   59.3460   30.5050   45.5690 C   0  0  0  0  0  0  0  0  0  0  0  0
   59.3974   30.9796   44.5780 H   0  0  0  0  0  0  0  0  0  0  0  0
   57.6160   26.6350   45.2990 C   0  0  0  0  0  0  0  0  0  0  0  0
   58.2851   27.3267   44.7663 H   0  0  0  0  0  0  0  0  0  0  0  0
   58.0630   25.3620   45.6620 C   0  0  0  0  0  0  0  0  0  0  0  0
   59.0876   25.0461   45.4161 H   0  0  0  0  0  0  0  0  0  0  0  0
   57.2050   24.4920   46.3380 C   0  0  0  0  0  0  0  0  0  0  0  0
   57.5471   23.4875   46.6279 H   0  0  0  0  0  0  0  0  0  0  0  0
  1  2  1  0
  2  3  1  0
  3  4  1  0
  4  5  2  3
  5  6  1  0
  6  7  2  0
  6  8  2  0
  6  9  1  0
  9 10  2  0
 10 11  1  0
 10 12  1  0
 12 13  1  0
 12 14  2  0
 14 15  1  0
 15 16  2  0
 16 17  1  0
 17 18  2  0
 18 19  1  0
 19 20  2  0
 20 21  1  0
 20 22  1  0
 22 23  1  0
 22 24  2  0
 24 25  1  0
 24 26  1  0
 26 27  1  0
 26 28  2  0
 28 29  1  0
 29 30  2  0
 29 31  2  0
 29 32  1  0
 32 33  1  0
 32 34  1  0
 18 35  1  0
 35 36  2  0
 36 37  1  0
 37 38  1  0
 37 39  2  0
 39 40  1  0
 39 41  1  0
 41 42  1  0
 41 43  2  0
 43 44  1  0
 43 45  1  0
 45 46  1  0
 46 47  2  0
 14 48  1  0
 48 49  1  0
 48 50  2  0
 50 51  1  0
  4 52  1  0
 52 53  1  0
 52 54  2  0
 54 55  1  0
 54 56  1  0
 56 57  1  0
 56  2  2  0
 50  9  1  0
 46 17  1  0
 28 19  1  0
 45 36  1  0
M  CHG  1   3  -1
M  END
>  <UniqueID>  (14) 
14

>  <SMILES>  (14) 
NS(=O)(=O)c1ccccc1-c1nc2ccccn2c(=O)c1/N=N/c1ccc(S(=O)(=O)N=c2cccc[n-]2)cc1

>  <Energy>  (14) 
81.7754126859227

>  <Genealogy>  (14) 
NS(=O)(=O)c1ccccc1-c1nc2ccccn2c(=O)c1N=Nc1ccc(S(=O)(=O)N=c2cccc[n-]2)cc1 (protonated)
NS(=O)(=O)c1ccccc1-c1nc2ccccn2c(=O)c1/N=N/c1ccc(S(=O)(=O)N=c2cccc[n-]2)cc1 (cis-trans isomerization)
NS(=O)(=O)c1ccccc1-c1nc2ccccn2c(=O)c1/N=N/c1ccc(S(=O)(=O)N=c2cccc[n-]2)cc1 (3D coordinates assigned)
NS(=O)(=O)c1ccccc1-c1nc2ccccn2c(=O)c1/N=N/c1ccc(S(=O)(=O)N=c2cccc[n-]2)cc1 (optimized conformer: 81.7754126859227 kcal/mol)

>  <smiles>  (14) 
NS(=O)(=O)c1ccccc1-c1nc2ccccn2c(=O)c1N=Nc1ccc(S(=O)(=O)N=c2cccc[nH]2)cc1

>  <score_type>  (14) 
oracle

>  <origin>  (14) 
adg

>  <m_score__min__energy>  (14) 
-11.83

>  <m_primary>  (14) 
energy

$$$$
14:0
     RDKit          3D

 39 41  0  0  0  0  0  0  0  0999 V2000
   54.7670   28.9590   45.4510 H   0  0  0  0  0  0  0  0  0  0  0  0
   55.2910   28.9900   44.5480 N   0  0  0  0  0  0  0  0  0  0  0  0
   56.0560   29.9890   44.2430 C   0  0  0  0  0  0  0  0  0  0  0  0
   56.6530   30.7120   45.2260 N   0  0  0  0  0  0  0  0  0  0  0  0
   57.4610   31.7640   44.9350 C   0  0  0  0  0  0  0  0  0  0  0  0
   58.0630   32.4910   45.9670 C   0  0  0  0  0  0  0  0  0  0  0  0
   57.8751   32.2110   47.0140 H   0  0  0  0  0  0  0  0  0  0  0  0
   58.9080   33.5790   45.6750 C   0  0  0  0  0  0  0  0  0  0  0  0
   59.5520   34.3430   46.7130 N   0  0  0  0  0  0  0  0  0  0  0  0
   59.3410   35.3650   46.7840 H   0  0  0  0  0  0  0  0  0  0  0  0
   60.5430   33.8020   47.6460 C   0  0  0  0  0  0  0  0  0  0  0  0
   61.2233   33.1311   47.1010 H   0  0  0  0  0  0  0  0  0  0  0  0
   61.1044   34.6378   48.0890 H   0  0  0  0  0  0  0  0  0  0  0  0
   59.8700   33.0320   48.7510 C   0  0  0  0  0  0  0  0  0  0  0  0
   59.5770   33.6600   49.9720 C   0  0  0  0  0  0  0  0  0  0  0  0
   59.8407   34.7176   50.1200 H   0  0  0  0  0  0  0  0  0  0  0  0
   58.9520   32.9490   51.0010 C   0  0  0  0  0  0  0  0  0  0  0  0
   58.7276   33.4483   51.9551 H   0  0  0  0  0  0  0  0  0  0  0  0
   58.6110   31.6030   50.8200 C   0  0  0  0  0  0  0  0  0  0  0  0
   57.8110   30.7120   52.1100 S   0  0  0  0  0  0  0  0  0  0  0  0
   58.6490   29.5290   52.5090 O   0  0  0  0  0  0  0  0  0  0  0  0
   56.4740   30.2160   51.6330 O   0  0  0  0  0  0  0  0  0  0  0  0
   57.5840   31.7800   53.5130 C   0  0  0  0  0  0  0  0  0  0  0  0
   57.7073   31.1997   54.4393 H   0  0  0  0  0  0  0  0  0  0  0  0
   58.3306   32.5873   53.4839 H   0  0  0  0  0  0  0  0  0  0  0  0
   56.5736   32.2138   53.4839 H   0  0  0  0  0  0  0  0  0  0  0  0
   58.8820   30.9770   49.5960 C   0  0  0  0  0  0  0  0  0  0  0  0
   58.6026   29.9239   49.4447 H   0  0  0  0  0  0  0  0  0  0  0  0
   59.5070   31.6880   48.5660 C   0  0  0  0  0  0  0  0  0  0  0  0
   59.7151   31.1919   47.6065 H   0  0  0  0  0  0  0  0  0  0  0  0
   59.1250   33.9320   44.3330 C   0  0  0  0  0  0  0  0  0  0  0  0
   59.7753   34.7865   44.0944 H   0  0  0  0  0  0  0  0  0  0  0  0
   58.5250   33.2110   43.2970 C   0  0  0  0  0  0  0  0  0  0  0  0
   58.7061   33.4982   42.2507 H   0  0  0  0  0  0  0  0  0  0  0  0
   57.6910   32.1200   43.5910 C   0  0  0  0  0  0  0  0  0  0  0  0
   57.0640   31.3580   42.5890 C   0  0  0  0  0  0  0  0  0  0  0  0
   57.2340   31.6330   41.3700 O   0  0  0  0  0  0  0  0  0  0  0  0
   56.2630   30.3130   42.9360 N   0  0  0  0  0  0  0  0  0  0  0  0
   55.8010   29.7510   42.1850 H   0  0  0  0  0  0  0  0  0  0  0  0
  1  2  1  0
  2  3  2  0
  3  4  1  0
  4  5  1  0
  5  6  2  0
  6  7  1  0
  6  8  1  0
  8  9  1  0
  9 10  1  0
  9 11  1  0
 11 12  1  0
 11 13  1  0
 11 14  1  0
 14 15  2  0
 15 16  1  0
 15 17  1  0
 17 18  1  0
 17 19  2  0
 19 20  1  0
 20 21  2  0
 20 22  2  0
 20 23  1  0
 23 24  1  0
 23 25  1  0
 23 26  1  0
 19 27  1  0
 27 28  1  0
 27 29  2  0
 29 30  1  0
  8 31  2  0
 31 32  1  0
 31 33  1  0
 33 34  1  0
 33 35  2  0
 35 36  1  0
 36 37  2  0
 36 38  1  0
 38 39  1  0
 38  3  1  0
 35  5  1  0
 29 14  1  0
M  CHG  1   4  -1
M  END
>  <UniqueID>  (15) 
15

>  <SMILES>  (15) 
[H]/N=c1\[n-]c2cc(NCc3ccc(S(C)(=O)=O)cc3)ccc2c(=O)[nH]1

>  <Energy>  (15) 
42.189288921650714

>  <Genealogy>  (15) 
CS(=O)(=O)c1ccc(CNc2ccc3c(=O)[nH]c(=N)[n-]c3c2)cc1 (protonated)
[H]/N=c1\[n-]c2cc(NCc3ccc(S(C)(=O)=O)cc3)ccc2c(=O)[nH]1 (cis-trans isomerization)
[H]/N=c1\[n-]c2cc(NCc3ccc(S(C)(=O)=O)cc3)ccc2c(=O)[nH]1 (3D coordinates assigned)
[H]/N=c1\[n-]c2cc(NCc3ccc(S(C)(=O)=O)cc3)ccc2c(=O)[nH]1 (optimized conformer: 42.189288921650714 kcal/mol)

>  <smiles>  (15) 
CS(=O)(=O)c1ccc(CNc2ccc3c(=O)[nH]c(=N)[nH]c3c2)cc1

>  <score_type>  (15) 
oracle

>  <origin>  (15) 
adg

>  <m_score__min__energy>  (15) 
-9.9499999999999993

>  <m_primary>  (15) 
energy

$$$$
15:0
     RDKit          3D

 47 49  0  0  0  0  0  0  0  0999 V2000
   57.8940   21.9520   44.0910 C   0  0  0  0  0  0  0  0  0  0  0  0
   56.6980   22.8540   44.0840 C   0  0  0  0  0  0  0  0  0  0  0  0
   55.5940   22.3840   43.6940 O   0  0  0  0  0  0  0  0  0  0  0  0
   56.7810   24.2750   44.5180 C   0  0  0  0  0  0  0  0  0  0  0  0
   55.9430   24.7840   45.5270 C   0  0  0  0  0  0  0  0  0  0  0  0
   56.0410   26.1210   45.9260 C   0  0  0  0  0  0  0  0  0  0  0  0
   56.9800   26.9720   45.3360 C   0  0  0  0  0  0  0  0  0  0  0  0
   57.0280   28.3460   45.7460 N   0  0  0  0  0  0  0  0  0  0  0  0
   56.3480   29.4370   45.1100 C   0  0  0  0  0  0  0  0  0  0  0  0
   55.1420   29.2960   44.7800 O   0  0  0  0  0  0  0  0  0  0  0  0
   57.0030   30.6820   44.8420 N   0  0  0  0  0  0  0  0  0  0  0  0
   57.8030   31.4170   45.7780 C   0  0  0  0  0  0  0  0  0  0  0  0
   57.6330   32.8010   45.9620 C   0  0  0  0  0  0  0  0  0  0  0  0
   58.4330   33.4920   46.8750 C   0  0  0  0  0  0  0  0  0  0  0  0
   59.4070   32.8120   47.6170 C   0  0  0  0  0  0  0  0  0  0  0  0
   60.3830   33.6760   48.8060 S   0  0  0  0  0  0  0  0  0  0  0  0
   59.6310   34.8970   49.2540 O   0  0  0  0  0  0  0  0  0  0  0  0
   60.5860   32.7970   50.0090 O   0  0  0  0  0  0  0  0  0  0  0  0
   61.9400   34.1660   48.1710 N   0  0  0  0  0  0  0  0  0  0  0  0
   63.0120   34.1090   49.1830 C   0  0  0  0  0  0  0  0  0  0  0  0
   63.5950   32.6880   49.3680 C   0  0  0  0  0  0  0  0  0  0  0  0
   63.1180   31.7650   48.4100 O   0  0  0  0  0  0  0  0  0  0  0  0
   63.2640   32.3040   47.1190 C   0  0  0  0  0  0  0  0  0  0  0  0
   62.2870   33.4740   46.9110 C   0  0  0  0  0  0  0  0  0  0  0  0
   59.5950   31.4380   47.4140 C   0  0  0  0  0  0  0  0  0  0  0  0
   58.8020   30.7480   46.4920 C   0  0  0  0  0  0  0  0  0  0  0  0
   57.8080   26.4760   44.3150 C   0  0  0  0  0  0  0  0  0  0  0  0
   57.7160   25.1400   43.9180 C   0  0  0  0  0  0  0  0  0  0  0  0
   58.1829   21.7341   45.1298 H   0  0  0  0  0  0  0  0  0  0  0  0
   57.6479   21.0127   43.5742 H   0  0  0  0  0  0  0  0  0  0  0  0
   58.7295   22.4468   43.5742 H   0  0  0  0  0  0  0  0  0  0  0  0
   55.2043   24.1247   46.0063 H   0  0  0  0  0  0  0  0  0  0  0  0
   55.3734   26.5061   46.7108 H   0  0  0  0  0  0  0  0  0  0  0  0
   56.8677   33.3409   45.3851 H   0  0  0  0  0  0  0  0  0  0  0  0
   58.2974   34.5750   47.0118 H   0  0  0  0  0  0  0  0  0  0  0  0
   63.8238   34.7830   48.8718 H   0  0  0  0  0  0  0  0  0  0  0  0
   62.5724   34.4116   50.1448 H   0  0  0  0  0  0  0  0  0  0  0  0
   64.6903   32.7451   49.2843 H   0  0  0  0  0  0  0  0  0  0  0  0
   63.2763   32.3285   50.3575 H   0  0  0  0  0  0  0  0  0  0  0  0
   64.2949   32.6661   46.9922 H   0  0  0  0  0  0  0  0  0  0  0  0
   63.0441   31.5205   46.3789 H   0  0  0  0  0  0  0  0  0  0  0  0
   62.7505   34.2008   46.2277 H   0  0  0  0  0  0  0  0  0  0  0  0
   61.3571   33.0574   46.4967 H   0  0  0  0  0  0  0  0  0  0  0  0
   60.3689   30.9008   47.9819 H   0  0  0  0  0  0  0  0  0  0  0  0
   58.9649   29.6727   46.3274 H   0  0  0  0  0  0  0  0  0  0  0  0
   58.5326   27.1434   43.8256 H   0  0  0  0  0  0  0  0  0  0  0  0
   58.3809   24.7597   43.1285 H   0  0  0  0  0  0  0  0  0  0  0  0
  1  2  1  0
  2  3  2  0
  2  4  1  0
  4  5  2  0
  5  6  1  0
  6  7  2  0
  7  8  1  0
  8  9  1  0
  9 10  2  0
  9 11  1  0
 11 12  1  0
 12 13  2  0
 13 14  1  0
 14 15  2  0
 15 16  1  0
 16 17  2  0
 16 18  2  0
 16 19  1  0
 19 20  1  0
 20 21  1  0
 21 22  1  0
 22 23  1  0
 23 24  1  0
 15 25  1  0
 25 26  2  0
  7 27  1  0
 27 28  2  0
 28  4  1  0
 26 12  1  0
 24 19  1  0
  1 29  1  0
  1 30  1  0
  1 31  1  0
  5 32  1  0
  6 33  1  0
 13 34  1  0
 14 35  1  0
 20 36  1  0
 20 37  1  0
 21 38  1  0
 21 39  1  0
 23 40  1  0
 23 41  1  0
 24 42  1  0
 24 43  1  0
 25 44  1  0
 26 45  1  0
 27 46  1  0
 28 47  1  0
M  CHG  2   8  -1  11  -1
M  END
>  <UniqueID>  (16) 
16

>  <SMILES>  (16) 
CC(=O)c1ccc([N-]C(=O)[N-]c2ccc(S(=O)(=O)N3CCOCC3)cc2)cc1

>  <Energy>  (16) 
62.292886689998575

>  <Genealogy>  (16) 
CC(=O)c1ccc([N-]C(=O)[N-]c2ccc(S(=O)(=O)N3CCOCC3)cc2)cc1 (protonated)
CC(=O)c1ccc([N-]C(=O)[N-]c2ccc(S(=O)(=O)N3CCOCC3)cc2)cc1 (3D coordinates assigned)
CC(=O)c1ccc([N-]C(=O)[N-]c2ccc(S(=O)(=O)N3CCOCC3)cc2)cc1 (nonaromatic ring conformer: 62.292886689998575 kcal/mol)

>  <smiles>  (16) 
CC(=O)c1ccc(NC(=O)Nc2ccc(S(=O)(=O)N3CCOCC3)cc2)cc1

>  <score_type>  (16) 
oracle

>  <origin>  (16) 
adg

>  <m_score__min__energy>  (16) 
-11.800000000000001

>  <m_primary>  (16) 
energy

$$$$
16:0
     RDKit          3D

 44 46  0  0  0  0  0  0  0  0999 V2000
   57.3970   25.5000   43.6700 C   0  0  0  0  0  0  0  0  0  0  0  0
   57.7870   26.6780   44.5260 C   0  0  0  0  0  0  0  0  0  0  0  0
   58.7870   27.5450   44.0510 C   0  0  0  0  0  0  0  0  0  0  0  0
   59.2110   28.6320   44.8120 C   0  0  0  0  0  0  0  0  0  0  0  0
   58.6460   28.8760   46.0650 C   0  0  0  0  0  0  0  0  0  0  0  0
   59.1740   30.2700   47.0090 S   0  0  0  0  0  0  0  0  0  0  0  0
   60.6630   30.1740   47.1890 O   0  0  0  0  0  0  0  0  0  0  0  0
   58.5180   30.2370   48.3610 O   0  0  0  0  0  0  0  0  0  0  0  0
   58.7650   31.7900   46.1980 C   0  0  0  0  0  0  0  0  0  0  0  0
   57.5220   31.9150   45.5530 C   0  0  0  0  0  0  0  0  0  0  0  0
   57.1880   33.0900   44.8780 C   0  0  0  0  0  0  0  0  0  0  0  0
   58.0850   34.1570   44.8450 C   0  0  0  0  0  0  0  0  0  0  0  0
   59.3180   34.0540   45.4900 C   0  0  0  0  0  0  0  0  0  0  0  0
   59.6750   32.8740   46.1690 C   0  0  0  0  0  0  0  0  0  0  0  0
   60.9290   32.8060   46.8700 N   0  0  0  0  0  0  0  0  0  0  0  0
   61.3250   33.7750   47.8550 C   0  0  0  0  0  0  0  0  0  0  0  0
   60.7360   34.8890   47.9060 O   0  0  0  0  0  0  0  0  0  0  0  0
   62.4470   33.5010   48.7860 C   0  0  0  0  0  0  0  0  0  0  0  0
   63.4430   32.5600   48.4650 C   0  0  0  0  0  0  0  0  0  0  0  0
   64.4930   32.3080   49.3550 C   0  0  0  0  0  0  0  0  0  0  0  0
   64.5560   32.9860   50.5740 C   0  0  0  0  0  0  0  0  0  0  0  0
   63.5690   33.9140   50.9090 C   0  0  0  0  0  0  0  0  0  0  0  0
   62.5170   34.1700   50.0230 C   0  0  0  0  0  0  0  0  0  0  0  0
   57.6350   28.0350   46.5460 C   0  0  0  0  0  0  0  0  0  0  0  0
   57.1840   26.9360   45.7890 C   0  0  0  0  0  0  0  0  0  0  0  0
   56.0900   26.1010   46.3550 C   0  0  0  0  0  0  0  0  0  0  0  0
   56.3330   25.1540   47.1470 O   0  0  0  0  0  0  0  0  0  0  0  0
   54.7710   26.3380   45.9860 O   0  0  0  0  0  0  0  0  0  0  0  0
   57.1171   24.6544   44.3155 H   0  0  0  0  0  0  0  0  0  0  0  0
   56.5420   25.7753   43.0350 H   0  0  0  0  0  0  0  0  0  0  0  0
   58.2473   25.2107   43.0350 H   0  0  0  0  0  0  0  0  0  0  0  0
   59.2404   27.3625   43.0656 H   0  0  0  0  0  0  0  0  0  0  0  0
   59.9938   29.3005   44.4242 H   0  0  0  0  0  0  0  0  0  0  0  0
   56.8068   31.0797   45.5806 H   0  0  0  0  0  0  0  0  0  0  0  0
   56.2154   33.1745   44.3711 H   0  0  0  0  0  0  0  0  0  0  0  0
   57.8203   35.0809   44.3099 H   0  0  0  0  0  0  0  0  0  0  0  0
   60.0174   34.9028   45.4676 H   0  0  0  0  0  0  0  0  0  0  0  0
   61.6130   32.0670   46.5960 H   0  0  0  0  0  0  0  0  0  0  0  0
   63.3958   32.0191   47.5083 H   0  0  0  0  0  0  0  0  0  0  0  0
   65.2701   31.5745   49.0939 H   0  0  0  0  0  0  0  0  0  0  0  0
   65.3841   32.7886   51.2707 H   0  0  0  0  0  0  0  0  0  0  0  0
   63.6183   34.4450   51.8711 H   0  0  0  0  0  0  0  0  0  0  0  0
   61.7392   34.8989   50.2946 H   0  0  0  0  0  0  0  0  0  0  0  0
   57.1861   28.2356   47.5300 H   0  0  0  0  0  0  0  0  0  0  0  0
  1  2  1  0
  2  3  2  0
  3  4  1  0
  4  5  2  0
  5  6  1  0
  6  7  2  0
  6  8  2  0
  6  9  1  0
  9 10  2  0
 10 11  1  0
 11 12  2  0
 12 13  1  0
 13 14  2  0
 14 15  1  0
 15 16  1  0
 16 17  2  0
 16 18  1  0
 18 19  2  0
 19 20  1  0
 20 21  2  0
 21 22  1  0
 22 23  2  0
  5 24  1  0
 24 25  2  0
 25 26  1  0
 26 27  2  0
 26 28  1  0
 25  2  1  0
 14  9  1  0
 23 18  1  0
  1 29  1  0
  1 30  1  0
  1 31  1  0
  3 32  1  0
  4 33  1  0
 10 34  1  0
 11 35  1  0
 12 36  1  0
 13 37  1  0
 15 38  1  0
 19 39  1  0
 20 40  1  0
 21 41  1  0
 22 42  1  0
 23 43  1  0
 24 44  1  0
M  CHG  1  28  -1
M  END
>  <UniqueID>  (17) 
17

>  <SMILES>  (17) 
Cc1ccc(S(=O)(=O)c2ccccc2NC(=O)c2ccccc2)cc1C(=O)[O-]

>  <Energy>  (17) 
60.876093545884956

>  <Genealogy>  (17) 
Cc1ccc(S(=O)(=O)c2ccccc2NC(=O)c2ccccc2)cc1C(=O)[O-] (protonated)
Cc1ccc(S(=O)(=O)c2ccccc2NC(=O)c2ccccc2)cc1C(=O)[O-] (3D coordinates assigned)
Cc1ccc(S(=O)(=O)c2ccccc2NC(=O)c2ccccc2)cc1C(=O)[O-] (optimized conformer: 60.876093545884956 kcal/mol)

>  <smiles>  (17) 
Cc1ccc(S(=O)(=O)c2ccccc2NC(=O)c2ccccc2)cc1C(=O)O

>  <score_type>  (17) 
oracle

>  <origin>  (17) 
adg

>  <m_score__min__energy>  (17) 
-11.81

>  <m_primary>  (17) 
energy

$$$$
17:0
     RDKit          3D

 47 49  0  0  0  0  0  0  0  0999 V2000
   60.0230   28.1970   48.9000 C   0  0  0  0  0  0  0  0  0  0  0  0
   60.3670   27.4170   47.6370 C   0  0  0  0  0  0  0  0  0  0  0  0
   59.8850   28.1290   46.4560 N   0  0  0  0  0  0  0  0  0  0  0  0
   60.6270   28.8380   45.5810 C   0  0  0  0  0  0  0  0  0  0  0  0
   59.8020   29.2590   44.5580 C   0  0  0  0  0  0  0  0  0  0  0  0
   58.5570   28.8080   44.8080 N   0  0  0  0  0  0  0  0  0  0  0  0
   57.3910   28.9370   43.9390 C   0  0  0  0  0  0  0  0  0  0  0  0
   56.3710   29.8170   44.5860 C   0  0  0  0  0  0  0  0  0  0  0  0
   55.2170   29.3680   44.8240 O   0  0  0  0  0  0  0  0  0  0  0  0
   56.6960   31.1490   44.8670 O   0  0  0  0  0  0  0  0  0  0  0  0
   57.6010   31.9200   44.0790 C   0  0  0  0  0  0  0  0  0  0  0  0
   57.5820   33.3940   44.4960 C   0  0  0  0  0  0  0  0  0  0  0  0
   57.6300   33.5550   46.0200 C   0  0  0  0  0  0  0  0  0  0  0  0
   58.9220   33.0080   46.5680 C   0  0  0  0  0  0  0  0  0  0  0  0
   58.9120   31.8770   47.3980 C   0  0  0  0  0  0  0  0  0  0  0  0
   60.1030   31.3820   47.9360 C   0  0  0  0  0  0  0  0  0  0  0  0
   61.3210   32.0200   47.6580 C   0  0  0  0  0  0  0  0  0  0  0  0
   62.5220   31.5320   48.1950 C   0  0  0  0  0  0  0  0  0  0  0  0
   63.7290   32.1800   47.9130 C   0  0  0  0  0  0  0  0  0  0  0  0
   63.7460   33.3150   47.0990 C   0  0  0  0  0  0  0  0  0  0  0  0
   62.5550   33.8110   46.5590 C   0  0  0  0  0  0  0  0  0  0  0  0
   61.3370   33.1690   46.8320 C   0  0  0  0  0  0  0  0  0  0  0  0
   60.1360   33.6590   46.2960 C   0  0  0  0  0  0  0  0  0  0  0  0
   58.6330   28.1090   45.9560 C   0  0  0  0  0  0  0  0  0  0  0  0
   60.2871   27.5982   49.7841 H   0  0  0  0  0  0  0  0  0  0  0  0
   60.5886   29.1404   48.9138 H   0  0  0  0  0  0  0  0  0  0  0  0
   58.9450   28.4155   48.9138 H   0  0  0  0  0  0  0  0  0  0  0  0
   61.4585   27.2986   47.5693 H   0  0  0  0  0  0  0  0  0  0  0  0
   59.8837   26.4299   47.6825 H   0  0  0  0  0  0  0  0  0  0  0  0
   61.7039   29.0450   45.6678 H   0  0  0  0  0  0  0  0  0  0  0  0
   60.1079   29.8592   43.6884 H   0  0  0  0  0  0  0  0  0  0  0  0
   57.6980   29.3785   42.9794 H   0  0  0  0  0  0  0  0  0  0  0  0
   56.9549   27.9419   43.7671 H   0  0  0  0  0  0  0  0  0  0  0  0
   58.6185   31.5232   44.2100 H   0  0  0  0  0  0  0  0  0  0  0  0
   57.2906   31.8521   43.0259 H   0  0  0  0  0  0  0  0  0  0  0  0
   58.4547   33.8996   44.0568 H   0  0  0  0  0  0  0  0  0  0  0  0
   56.6436   33.8397   44.1344 H   0  0  0  0  0  0  0  0  0  0  0  0
   57.5523   34.6225   46.2738 H   0  0  0  0  0  0  0  0  0  0  0  0
   56.7915   32.9978   46.4631 H   0  0  0  0  0  0  0  0  0  0  0  0
   57.9598   31.3762   47.6270 H   0  0  0  0  0  0  0  0  0  0  0  0
   60.0853   30.4898   48.5791 H   0  0  0  0  0  0  0  0  0  0  0  0
   62.5142   30.6395   48.8380 H   0  0  0  0  0  0  0  0  0  0  0  0
   64.6691   31.7941   48.3341 H   0  0  0  0  0  0  0  0  0  0  0  0
   64.6988   33.8201   46.8821 H   0  0  0  0  0  0  0  0  0  0  0  0
   62.5728   34.7057   45.9193 H   0  0  0  0  0  0  0  0  0  0  0  0
   60.1458   34.5566   45.6603 H   0  0  0  0  0  0  0  0  0  0  0  0
   57.7844   27.5893   46.4249 H   0  0  0  0  0  0  0  0  0  0  0  0
  1  2  1  0
  2  3  1  0
  3  4  1  0
  4  5  2  0
  5  6  1  0
  6  7  1  0
  7  8  1  0
  8  9  2  0
  8 10  1  0
 10 11  1  0
 11 12  1  0
 12 13  1  0
 13 14  1  0
 14 15  2  0
 15 16  1  0
 16 17  2  0
 17 18  1  0
 18 19  2  0
 19 20  1  0
 20 21  2  0
 21 22  1  0
 22 23  2  0
  6 24  1  0
 24  3  2  0
 23 14  1  0
 22 17  1  0
  1 25  1  0
  1 26  1  0
  1 27  1  0
  2 28  1  0
  2 29  1  0
  4 30  1  0
  5 31  1  0
  7 32  1  0
  7 33  1  0
 11 34  1  0
 11 35  1  0
 12 36  1  0
 12 37  1  0
 13 38  1  0
 13 39  1  0
 15 40  1  0
 16 41  1  0
 18 42  1  0
 19 43  1  0
 20 44  1  0
 21 45  1  0
 23 46  1  0
 24 47  1  0
M  CHG  1   3   1
M  END
>  <UniqueID>  (18) 
18

>  <SMILES>  (18) 
CC[n+]1ccn(CC(=O)OCCCc2ccc3ccccc3c2)c1

>  <Energy>  (18) 
70.23309318838533

>  <Genealogy>  (18) 
CC[n+]1ccn(CC(=O)OCCCc2ccc3ccccc3c2)c1 (3D coordinates assigned)
CC[n+]1ccn(CC(=O)OCCCc2ccc3ccccc3c2)c1 (optimized conformer: 70.23309318838533 kcal/mol)

>  <smiles>  (18) 
CC[n+]1ccn(CC(=O)OCCCc2ccc3ccccc3c2)c1

>  <score_type>  (18) 
oracle

>  <origin>  (18) 
adg

>  <m_score__min__energy>  (18) 
-6.7300000000000004

>  <m_primary>  (18) 
energy

$$$$
18:0
     RDKit          3D

 63 66  0  0  0  0  0  0  0  0999 V2000
   55.9990   21.4810   43.4860 O   0  0  0  0  0  0  0  0  0  0  0  0
   56.5170   22.4040   44.1670 C   0  0  0  0  0  0  0  0  0  0  0  0
   55.7270   23.3560   44.7220 N   0  0  0  0  0  0  0  0  0  0  0  0
   56.2490   24.3620   45.4710 C   0  0  0  0  0  0  0  0  0  0  0  0
   55.4690   25.2130   45.9780 O   0  0  0  0  0  0  0  0  0  0  0  0
   57.6040   24.4420   45.6720 N   0  0  0  0  0  0  0  0  0  0  0  0
   58.1890   25.4650   46.5550 C   0  0  0  0  0  0  0  0  0  0  0  0
   58.1390   26.8040   45.8710 C   0  0  0  0  0  0  0  0  0  0  0  0
   57.9810   27.9700   46.6330 C   0  0  0  0  0  0  0  0  0  0  0  0
   57.7100   29.1900   46.0100 C   0  0  0  0  0  0  0  0  0  0  0  0
   57.6010   29.2570   44.6150 C   0  0  0  0  0  0  0  0  0  0  0  0
   57.0110   30.7240   43.8480 S   0  0  0  0  0  0  0  0  0  0  0  0
   56.7590   30.4770   42.3870 O   0  0  0  0  0  0  0  0  0  0  0  0
   55.7140   31.1210   44.4950 O   0  0  0  0  0  0  0  0  0  0  0  0
   58.1490   32.0250   44.0170 N   0  0  0  0  0  0  0  0  0  0  0  0
   58.5880   32.5540   45.2750 C   0  0  0  0  0  0  0  0  0  0  0  0
   58.1720   33.8340   45.6540 C   0  0  0  0  0  0  0  0  0  0  0  0
   58.5730   34.3740   46.8800 C   0  0  0  0  0  0  0  0  0  0  0  0
   59.3860   33.6300   47.7510 C   0  0  0  0  0  0  0  0  0  0  0  0
   59.8380   34.2260   49.0590 C   0  0  0  0  0  0  0  0  0  0  0  0
   59.3020   33.4480   50.2690 C   0  0  0  0  0  0  0  0  0  0  0  0
   60.3290   33.3150   51.3150 N   0  0  0  0  0  0  0  0  0  0  0  0
   61.2150   32.1650   51.0710 C   0  0  0  0  0  0  0  0  0  0  0  0
   62.6660   32.6390   50.8730 C   0  0  2  0  0  0  0  0  0  0  0  0
   62.8470   33.8720   51.5190 O   0  0  0  0  0  0  0  0  0  0  0  0
   63.0240   32.7770   49.4070 C   0  0  0  0  0  0  0  0  0  0  0  0
   63.0720   31.6620   48.5510 C   0  0  0  0  0  0  0  0  0  0  0  0
   63.3800   31.8300   47.2000 C   0  0  0  0  0  0  0  0  0  0  0  0
   63.6110   33.1130   46.7050 C   0  0  0  0  0  0  0  0  0  0  0  0
   63.5290   34.1880   47.5330 N   0  0  0  0  0  0  0  0  0  0  0  0
   63.2390   34.0500   48.8540 C   0  0  0  0  0  0  0  0  0  0  0  0
   59.7720   32.3310   47.3860 C   0  0  0  0  0  0  0  0  0  0  0  0
   59.3640   31.7920   46.1630 C   0  0  0  0  0  0  0  0  0  0  0  0
   57.8190   28.1060   43.8460 C   0  0  0  0  0  0  0  0  0  0  0  0
   58.0790   26.8830   44.4700 C   0  0  0  0  0  0  0  0  0  0  0  0
   58.4250   23.4950   45.1220 C   0  0  0  0  0  0  0  0  0  0  0  0
   57.8960   22.4510   44.3590 C   0  0  0  0  0  0  0  0  0  0  0  0
   58.7240   21.4730   43.8080 O   0  0  0  0  0  0  0  0  0  0  0  0
   57.6166   25.5107   47.4932 H   0  0  0  0  0  0  0  0  0  0  0  0
   59.2345   25.2046   46.7764 H   0  0  0  0  0  0  0  0  0  0  0  0
   58.0710   27.9236   47.7283 H   0  0  0  0  0  0  0  0  0  0  0  0
   57.5820   30.0995   46.6153 H   0  0  0  0  0  0  0  0  0  0  0  0
   57.5255   34.4196   44.9838 H   0  0  0  0  0  0  0  0  0  0  0  0
   58.2501   35.3865   47.1638 H   0  0  0  0  0  0  0  0  0  0  0  0
   60.9375   34.2166   49.0910 H   0  0  0  0  0  0  0  0  0  0  0  0
   59.4436   35.2513   49.1162 H   0  0  0  0  0  0  0  0  0  0  0  0
   58.4349   33.9829   50.6838 H   0  0  0  0  0  0  0  0  0  0  0  0
   59.0134   32.4405   49.9347 H   0  0  0  0  0  0  0  0  0  0  0  0
   60.9200   34.1790   51.2870 H   0  0  0  0  0  0  0  0  0  0  0  0
   61.1706   31.4837   51.9335 H   0  0  0  0  0  0  0  0  0  0  0  0
   60.8820   31.6444   50.1610 H   0  0  0  0  0  0  0  0  0  0  0  0
   63.3303   31.8780   51.3085 H   0  0  0  0  0  0  0  0  0  0  0  0
   62.1790   33.9120   52.2520 H   0  0  0  0  0  0  0  0  0  0  0  0
   62.8666   30.6564   48.9467 H   0  0  0  0  0  0  0  0  0  0  0  0
   63.4400   30.9582   46.5319 H   0  0  0  0  0  0  0  0  0  0  0  0
   63.8599   33.2554   45.6430 H   0  0  0  0  0  0  0  0  0  0  0  0
   63.1723   34.9419   49.4944 H   0  0  0  0  0  0  0  0  0  0  0  0
   60.3984   31.7346   48.0656 H   0  0  0  0  0  0  0  0  0  0  0  0
   59.6524   30.7650   45.8945 H   0  0  0  0  0  0  0  0  0  0  0  0
   57.7854   28.1654   42.7481 H   0  0  0  0  0  0  0  0  0  0  0  0
   58.2371   25.9798   43.8624 H   0  0  0  0  0  0  0  0  0  0  0  0
   59.5115   23.5565   45.2822 H   0  0  0  0  0  0  0  0  0  0  0  0
   58.6890   20.5110   44.1220 H   0  0  0  0  0  0  0  0  0  0  0  0
  1  2  2  0
  2  3  1  0
  3  4  1  0
  4  5  2  0
  4  6  1  0
  6  7  1  0
  7  8  1  0
  8  9  2  0
  9 10  1  0
 10 11  2  0
 11 12  1  0
 12 13  2  0
 12 14  2  0
 12 15  1  0
 15 16  1  0
 16 17  2  0
 17 18  1  0
 18 19  2  0
 19 20  1  0
 20 21  1  0
 21 22  1  0
 22 23  1  0
 23 24  1  0
 24 25  1  0
 24 26  1  0
 26 27  2  0
 27 28  1  0
 28 29  2  0
 29 30  1  0
 30 31  2  0
 19 32  1  0
 32 33  2  0
 11 34  1  0
 34 35  2  0
  6 36  1  0
 36 37  2  0
 37 38  1  0
 37  2  1  0
 35  8  1  0
 33 16  1  0
 31 26  1  0
  7 39  1  0
  7 40  1  0
  9 41  1  0
 10 42  1  0
 17 43  1  0
 18 44  1  0
 20 45  1  0
 20 46  1  0
 21 47  1  0
 21 48  1  0
 22 49  1  0
 23 50  1  0
 23 51  1  0
 24 52  1  1
 25 53  1  0
 27 54  1  0
 28 55  1  0
 29 56  1  0
 31 57  1  0
 32 58  1  0
 33 59  1  0
 34 60  1  0
 35 61  1  0
 36 62  1  0
 38 63  1  0
M  CHG  2   3  -1  15  -1
M  END
>  <UniqueID>  (19) 
19

>  <SMILES>  (19) 
O=c1[n-]c(=O)n(Cc2ccc(S(=O)(=O)[N-]c3ccc(CCNC[C@H](O)c4cccnc4)cc3)cc2)cc1O

>  <Energy>  (19) 
71.41504766868091

>  <Genealogy>  (19) 
O=c1[n-]c(=O)n(Cc2ccc(S(=O)(=O)[N-]c3ccc(CCNCC(O)c4cccnc4)cc3)cc2)cc1O (protonated)
O=c1[n-]c(=O)n(Cc2ccc(S(=O)(=O)[N-]c3ccc(CCNC[C@H](O)c4cccnc4)cc3)cc2)cc1O (chirality)
O=c1[n-]c(=O)n(Cc2ccc(S(=O)(=O)[N-]c3ccc(CCNC[C@H](O)c4cccnc4)cc3)cc2)cc1O (3D coordinates assigned)
O=c1[n-]c(=O)n(Cc2ccc(S(=O)(=O)[N-]c3ccc(CCNC[C@H](O)c4cccnc4)cc3)cc2)cc1O (optimized conformer: 71.41504766868091 kcal/mol)

>  <smiles>  (19) 
O=c1[nH]c(=O)n(Cc2ccc(S(=O)(=O)Nc3ccc(CCNCC(O)c4cccnc4)cc3)cc2)cc1O

>  <score_type>  (19) 
oracle

>  <origin>  (19) 
adg

>  <m_score__min__energy>  (19) 
-12.34

>  <m_primary>  (19) 
energy

$$$$
19:0
     RDKit          3D

 61 61  0  0  0  0  0  0  0  0999 V2000
   59.3654   31.5960   44.2173 H   0  0  0  0  0  0  0  0  0  0  0  0
   58.4360   32.1120   44.5000 C   0  0  0  0  0  0  0  0  0  0  0  0
   58.4860   32.9980   45.5200 C   0  0  0  0  0  0  0  0  0  0  0  0
   59.3820   34.2120   45.4730 C   0  0  0  0  0  0  0  0  0  0  0  0
   59.6188   34.5329   46.4982 H   0  0  0  0  0  0  0  0  0  0  0  0
   60.3127   33.9605   44.9433 H   0  0  0  0  0  0  0  0  0  0  0  0
   58.8674   35.0272   44.9433 H   0  0  0  0  0  0  0  0  0  0  0  0
   57.6690   32.7440   46.7680 C   0  0  0  0  0  0  0  0  0  0  0  0
   57.2465   33.6981   47.1161 H   0  0  0  0  0  0  0  0  0  0  0  0
   56.8751   32.0263   46.5140 H   0  0  0  0  0  0  0  0  0  0  0  0
   58.5160   32.1350   47.8970 C   0  0  0  0  0  0  0  0  0  0  0  0
   59.0892   32.9384   48.3828 H   0  0  0  0  0  0  0  0  0  0  0  0
   57.8320   31.6461   48.6063 H   0  0  0  0  0  0  0  0  0  0  0  0
   59.5000   31.0680   47.3760 C   0  0  0  0  0  0  0  0  0  0  0  0
   59.0252   30.0826   47.4921 H   0  0  0  0  0  0  0  0  0  0  0  0
   59.7120   31.3353   46.3302 H   0  0  0  0  0  0  0  0  0  0  0  0
   60.8760   31.0250   48.0950 C   0  0  1  0  0  0  0  0  0  0  0  0
   60.8951   31.9622   48.6706 H   0  0  0  0  0  0  0  0  0  0  0  0
   60.9990   29.9160   49.1510 C   0  0  0  0  0  0  0  0  0  0  0  0
   60.9498   30.3598   50.1563 H   0  0  0  0  0  0  0  0  0  0  0  0
   60.1750   29.1980   49.0264 H   0  0  0  0  0  0  0  0  0  0  0  0
   61.9603   29.3961   49.0264 H   0  0  0  0  0  0  0  0  0  0  0  0
   62.1090   31.1430   47.1560 C   0  0  0  0  0  0  0  0  0  0  0  0
   62.8216   30.3603   47.4552 H   0  0  0  0  0  0  0  0  0  0  0  0
   61.6876   31.0518   46.1440 H   0  0  0  0  0  0  0  0  0  0  0  0
   62.8840   32.4780   47.1250 C   0  0  0  0  0  0  0  0  0  0  0  0
   63.7282   32.3543   46.4307 H   0  0  0  0  0  0  0  0  0  0  0  0
   62.1398   33.2306   46.8256 H   0  0  0  0  0  0  0  0  0  0  0  0
   63.4560   32.9950   48.4650 C   0  0  0  0  0  0  0  0  0  0  0  0
   64.0589   32.1831   48.8978 H   0  0  0  0  0  0  0  0  0  0  0  0
   64.0066   33.9078   48.1936 H   0  0  0  0  0  0  0  0  0  0  0  0
   62.4530   33.4590   49.5590 C   0  0  0  0  0  0  0  0  0  0  0  0
   62.0877   32.5188   49.9979 H   0  0  0  0  0  0  0  0  0  0  0  0
   63.1000   34.2510   50.7040 C   0  0  0  0  0  0  0  0  0  0  0  0
   62.7652   33.8411   51.6683 H   0  0  0  0  0  0  0  0  0  0  0  0
   64.1948   34.1715   50.6320 H   0  0  0  0  0  0  0  0  0  0  0  0
   62.8036   35.3079   50.6320 H   0  0  0  0  0  0  0  0  0  0  0  0
   61.2320   34.2000   48.9920 C   0  0  0  0  0  0  0  0  0  0  0  0
   60.6135   34.5753   49.8206 H   0  0  0  0  0  0  0  0  0  0  0  0
   61.5702   35.0454   48.3748 H   0  0  0  0  0  0  0  0  0  0  0  0
   60.6383   33.5097   48.3748 H   0  0  0  0  0  0  0  0  0  0  0  0
   57.1830   31.7890   43.7270 C   0  0  0  0  0  0  0  0  0  0  0  0
   56.3085   32.1242   44.3040 H   0  0  0  0  0  0  0  0  0  0  0  0
   57.2277   32.3062   42.7572 H   0  0  0  0  0  0  0  0  0  0  0  0
   57.0740   30.3860   43.4880 O   0  0  0  0  0  0  0  0  0  0  0  0
   57.4720   29.3760   44.3800 C   0  0  0  0  0  0  0  0  0  0  0  0
   58.8240   29.0400   44.5880 C   0  0  0  0  0  0  0  0  0  0  0  0
   59.6113   29.5732   44.0350 H   0  0  0  0  0  0  0  0  0  0  0  0
   59.1710   28.0330   45.4930 C   0  0  0  0  0  0  0  0  0  0  0  0
   60.2295   27.7755   45.6453 H   0  0  0  0  0  0  0  0  0  0  0  0
   58.1770   27.3490   46.2080 C   0  0  0  0  0  0  0  0  0  0  0  0
   58.5510   26.2490   47.1610 C   0  0  0  0  0  0  0  0  0  0  0  0
   59.5812   25.9234   46.9545 H   0  0  0  0  0  0  0  0  0  0  0  0
   58.4768   26.6253   48.1920 H   0  0  0  0  0  0  0  0  0  0  0  0
   57.6230   25.0880   46.9960 C   0  0  0  0  0  0  0  0  0  0  0  0
   58.0730   23.9590   46.6650 O   0  0  0  0  0  0  0  0  0  0  0  0
   56.2540   25.2610   47.1630 O   0  0  0  0  0  0  0  0  0  0  0  0
   56.8290   27.6680   45.9860 C   0  0  0  0  0  0  0  0  0  0  0  0
   56.0415   27.1217   46.5258 H   0  0  0  0  0  0  0  0  0  0  0  0
   56.4810   28.6770   45.0820 C   0  0  0  0  0  0  0  0  0  0  0  0
   55.1400   28.9860   44.8850 O   0  0  0  0  0  0  0  0  0  0  0  0
  1  2  1  0
  2  3  2  0
  3  4  1  0
  4  5  1  0
  4  6  1  0
  4  7  1  0
  3  8  1  0
  8  9  1  0
  8 10  1  0
  8 11  1  0
 11 12  1  0
 11 13  1  0
 11 14  1  0
 14 15  1  0
 14 16  1  0
 14 17  1  0
 17 18  1  1
 17 19  1  0
 19 20  1  0
 19 21  1  0
 19 22  1  0
 17 23  1  0
 23 24  1  0
 23 25  1  0
 23 26  1  0
 26 27  1  0
 26 28  1  0
 26 29  1  0
 29 30  1  0
 29 31  1  0
 29 32  1  0
 32 33  1  0
 32 34  1  0
 34 35  1  0
 34 36  1  0
 34 37  1  0
 32 38  1  0
 38 39  1  0
 38 40  1  0
 38 41  1  0
  2 42  1  0
 42 43  1  0
 42 44  1  0
 42 45  1  0
 45 46  1  0
 46 47  2  0
 47 48  1  0
 47 49  1  0
 49 50  1  0
 49 51  2  0
 51 52  1  0
 52 53  1  0
 52 54  1  0
 52 55  1  0
 55 56  2  0
 55 57  1  0
 51 58  1  0
 58 59  1  0
 58 60  2  0
 60 61  1  0
 60 46  1  0
M  CHG  2  57  -1  61  -1
M  END
>  <UniqueID>  (20) 
20

>  <SMILES>  (20) 
C/C(=C\COc1ccc(CC(=O)[O-])cc1[O-])CCC[C@@H](C)CCCC(C)C

>  <Energy>  (20) 
51.32940550928076

>  <Genealogy>  (20) 
CC(=CCOc1ccc(CC(=O)[O-])cc1[O-])CCCC(C)CCCC(C)C (protonated)
CC(=CCOc1ccc(CC(=O)[O-])cc1[O-])CCC[C@@H](C)CCCC(C)C (chirality)
C/C(=C\COc1ccc(CC(=O)[O-])cc1[O-])CCC[C@@H](C)CCCC(C)C (cis-trans isomerization)
C/C(=C\COc1ccc(CC(=O)[O-])cc1[O-])CCC[C@@H](C)CCCC(C)C (3D coordinates assigned)
C/C(=C\COc1ccc(CC(=O)[O-])cc1[O-])CCC[C@@H](C)CCCC(C)C (optimized conformer: 51.32940550928076 kcal/mol)

>  <smiles>  (20) 
CC(=CCOc1ccc(CC(=O)O)cc1O)CCCC(C)CCCC(C)C

>  <score_type>  (20) 
oracle

>  <origin>  (20) 
adg

>  <m_score__min__energy>  (20) 
-13.279999999999999

>  <m_primary>  (20) 
energy

$$$$
20:0
     RDKit          3D

 26 27  0  0  0  0  0  0  0  0999 V2000
   54.3170   26.7150   45.2000 H   0  0  0  0  0  0  0  0  0  0  0  0
   55.0980   26.2970   45.6920 O   0  0  0  0  0  0  0  0  0  0  0  0
   56.2740   27.0010   45.9530 C   0  0  0  0  0  0  0  0  0  0  0  0
   57.3250   26.3460   46.5930 C   0  0  0  0  0  0  0  0  0  0  0  0
   57.2138   25.2921   46.8877 H   0  0  0  0  0  0  0  0  0  0  0  0
   58.5170   27.0190   46.8620 C   0  0  0  0  0  0  0  0  0  0  0  0
   59.3428   26.4885   47.3585 H   0  0  0  0  0  0  0  0  0  0  0  0
   58.6710   28.3650   46.5050 C   0  0  0  0  0  0  0  0  0  0  0  0
   57.6050   29.0460   45.8640 C   0  0  0  0  0  0  0  0  0  0  0  0
   56.4120   28.3490   45.5780 C   0  0  0  0  0  0  0  0  0  0  0  0
   55.3650   28.9870   44.9180 O   0  0  0  0  0  0  0  0  0  0  0  0
   57.7810   30.4790   45.4110 C   0  0  0  0  0  0  0  0  0  0  0  0
   58.4030   30.4988   44.5040 H   0  0  0  0  0  0  0  0  0  0  0  0
   56.7916   30.9109   45.1998 H   0  0  0  0  0  0  0  0  0  0  0  0
   58.5880   31.4600   46.7130 S   0  0  0  0  0  0  0  0  0  0  0  0
   60.0650   30.4380   46.6410 C   0  0  0  0  0  0  0  0  0  0  0  0
   61.2480   30.9420   46.4400 N   0  0  0  0  0  0  0  0  0  0  0  0
   62.2160   31.2870   47.4800 C   0  0  0  0  0  0  0  0  0  0  0  0
   63.0527   30.5737   47.4455 H   0  0  0  0  0  0  0  0  0  0  0  0
   61.7153   31.2410   48.4583 H   0  0  0  0  0  0  0  0  0  0  0  0
   62.7530   32.6990   47.2700 C   0  0  0  0  0  0  0  0  0  0  0  0
   62.9329   33.1719   48.2467 H   0  0  0  0  0  0  0  0  0  0  0  0
   63.6962   32.6525   46.7059 H   0  0  0  0  0  0  0  0  0  0  0  0
   62.0172   33.2910   46.7059 H   0  0  0  0  0  0  0  0  0  0  0  0
   59.9190   29.0240   46.7800 N   0  0  0  0  0  0  0  0  0  0  0  0
   60.7600   28.4520   47.0210 H   0  0  0  0  0  0  0  0  0  0  0  0
  1  2  1  0
  2  3  1  0
  3  4  2  0
  4  5  1  0
  4  6  1  0
  6  7  1  0
  6  8  2  0
  8  9  1  0
  9 10  2  0
 10 11  1  0
  9 12  1  0
 12 13  1  0
 12 14  1  0
 12 15  1  0
 15 16  1  0
 16 17  2  0
 17 18  1  0
 18 19  1  0
 18 20  1  0
 18 21  1  0
 21 22  1  0
 21 23  1  0
 21 24  1  0
 16 25  1  0
 25 26  1  0
 10  3  1  0
 25  8  1  0
M  CHG  1  11  -1
M  END
>  <UniqueID>  (21) 
21

>  <SMILES>  (21) 
CC/N=C1/Nc2ccc(O)c([O-])c2CS1

>  <Energy>  (21) 
27.55553554579485

>  <Genealogy>  (21) 
CCN=C1Nc2ccc(O)c([O-])c2CS1 (protonated)
CC/N=C1/Nc2ccc(O)c([O-])c2CS1 (cis-trans isomerization)
CC/N=C1/Nc2ccc(O)c([O-])c2CS1 (3D coordinates assigned)
CC/N=C1/Nc2ccc(O)c([O-])c2CS1 (nonaromatic ring conformer: 27.55553554579485 kcal/mol)

>  <smiles>  (21) 
CCN=C1Nc2ccc(O)c(O)c2CS1

>  <score_type>  (21) 
oracle

>  <origin>  (21) 
adg

>  <m_score__min__energy>  (21) 
-8.6999999999999993

>  <m_primary>  (21) 
energy

$$$$
21:0
     RDKit          3D

 40 42  0  0  0  0  0  0  0  0999 V2000
   59.2930   33.8330   47.5120 C   0  0  0  0  0  0  0  0  0  0  0  0
   58.7620   32.9070   46.5190 N   0  0  0  0  0  0  0  0  0  0  0  0
   58.7330   33.2370   45.1220 C   0  0  0  0  0  0  0  0  0  0  0  0
   59.2690   34.3080   44.7290 O   0  0  0  0  0  0  0  0  0  0  0  0
   58.0760   32.3280   44.1460 C   0  0  0  0  0  0  0  0  0  0  0  0
   58.0560   32.6910   42.7860 C   0  0  0  0  0  0  0  0  0  0  0  0
   57.3790   31.9100   41.8470 C   0  0  0  0  0  0  0  0  0  0  0  0
   56.7000   30.7620   42.2520 C   0  0  0  0  0  0  0  0  0  0  0  0
   56.7150   30.3800   43.5930 C   0  0  0  0  0  0  0  0  0  0  0  0
   57.4280   31.1280   44.5410 C   0  0  0  0  0  0  0  0  0  0  0  0
   57.4040   30.6900   45.9050 N   0  0  0  0  0  0  0  0  0  0  0  0
   58.2390   29.6600   46.4550 C   0  0  0  0  0  0  0  0  0  0  0  0
   59.1160   29.9830   47.2990 O   0  0  0  0  0  0  0  0  0  0  0  0
   58.1310   28.2450   46.0360 C   0  0  0  0  0  0  0  0  0  0  0  0
   57.7930   27.2400   46.9540 C   0  0  0  0  0  0  0  0  0  0  0  0
   57.6890   25.9090   46.5430 C   0  0  0  0  0  0  0  0  0  0  0  0
   57.9370   25.5520   45.2050 C   0  0  0  0  0  0  0  0  0  0  0  0
   57.8240   24.1390   44.7650 C   0  0  0  0  0  0  0  0  0  0  0  0
   56.8830   23.7770   43.8480 N   0  0  0  0  0  0  0  0  0  0  0  0
   56.7630   22.4890   43.4320 C   0  0  0  0  0  0  0  0  0  0  0  0
   55.8850   22.1840   42.5830 O   0  0  0  0  0  0  0  0  0  0  0  0
   57.6160   21.5110   43.9430 C   0  0  0  0  0  0  0  0  0  0  0  0
   58.5740   21.8930   44.8800 C   0  0  0  0  0  0  0  0  0  0  0  0
   58.6610   23.1910   45.2700 N   0  0  0  0  0  0  0  0  0  0  0  0
   58.3020   26.5600   44.2920 C   0  0  0  0  0  0  0  0  0  0  0  0
   58.4050   27.8900   44.7060 C   0  0  0  0  0  0  0  0  0  0  0  0
   59.0752   33.4531   48.5211 H   0  0  0  0  0  0  0  0  0  0  0  0
   60.3814   33.9255   47.3821 H   0  0  0  0  0  0  0  0  0  0  0  0
   58.8231   34.8191   47.3821 H   0  0  0  0  0  0  0  0  0  0  0  0
   58.4330   31.9710   46.8420 H   0  0  0  0  0  0  0  0  0  0  0  0
   58.5801   33.6011   42.4589 H   0  0  0  0  0  0  0  0  0  0  0  0
   57.3816   32.2011   40.7862 H   0  0  0  0  0  0  0  0  0  0  0  0
   56.1524   30.1575   41.5139 H   0  0  0  0  0  0  0  0  0  0  0  0
   56.1623   29.4834   43.9103 H   0  0  0  0  0  0  0  0  0  0  0  0
   57.6083   27.5020   48.0062 H   0  0  0  0  0  0  0  0  0  0  0  0
   57.4108   25.1334   47.2717 H   0  0  0  0  0  0  0  0  0  0  0  0
   57.5345   20.4643   43.6146 H   0  0  0  0  0  0  0  0  0  0  0  0
   59.2592   21.1439   45.3034 H   0  0  0  0  0  0  0  0  0  0  0  0
   58.5078   26.2977   43.2437 H   0  0  0  0  0  0  0  0  0  0  0  0
   58.7030   28.6649   43.9844 H   0  0  0  0  0  0  0  0  0  0  0  0
  1  2  1  0
  2  3  1  0
  3  4  2  0
  3  5  1  0
  5  6  2  0
  6  7  1  0
  7  8  2  0
  8  9  1  0
  9 10  2  0
 10 11  1  0
 11 12  1  0
 12 13  2  0
 12 14  1  0
 14 15  2  0
 15 16  1  0
 16 17  2  0
 17 18  1  0
 18 19  2  0
 19 20  1  0
 20 21  2  0
 20 22  1  0
 22 23  2  0
 23 24  1  0
 17 25  1  0
 25 26  2  0
 10  5  1  0
 26 14  1  0
 24 18  1  0
  1 27  1  0
  1 28  1  0
  1 29  1  0
  2 30  1  0
  6 31  1  0
  7 32  1  0
  8 33  1  0
  9 34  1  0
 15 35  1  0
 16 36  1  0
 22 37  1  0
 23 38  1  0
 25 39  1  0
 26 40  1  0
M  CHG  2  11  -1  24  -1
M  END
>  <UniqueID>  (22) 
22

>  <SMILES>  (22) 
CNC(=O)c1ccccc1[N-]C(=O)c1ccc(-c2nc(=O)cc[n-]2)cc1

>  <Energy>  (22) 
59.60062101794408

>  <Genealogy>  (22) 
CNC(=O)c1ccccc1[N-]C(=O)c1ccc(-c2nc(=O)cc[n-]2)cc1 (protonated)
CNC(=O)c1ccccc1[N-]C(=O)c1ccc(-c2nc(=O)cc[n-]2)cc1 (3D coordinates assigned)
CNC(=O)c1ccccc1[N-]C(=O)c1ccc(-c2nc(=O)cc[n-]2)cc1 (optimized conformer: 59.60062101794408 kcal/mol)

>  <smiles>  (22) 
CNC(=O)c1ccccc1NC(=O)c1ccc(-c2nc(=O)cc[nH]2)cc1

>  <score_type>  (22) 
oracle

>  <origin>  (22) 
adg

>  <m_score__min__energy>  (22) 
-10.210000000000001

>  <m_primary>  (22) 
energy

$$$$
22:0
     RDKit          3D

 53 55  0  0  0  0  0  0  0  0999 V2000
   68.6660   33.8290   50.4340 C   0  0  0  0  0  0  0  0  0  0  0  0
   67.3820   33.1140   50.7350 C   0  0  0  0  0  0  0  0  0  0  0  0
   67.3690   31.7160   50.8600 C   0  0  0  0  0  0  0  0  0  0  0  0
   66.1730   31.0430   51.1250 C   0  0  0  0  0  0  0  0  0  0  0  0
   64.9760   31.7600   51.2610 C   0  0  0  0  0  0  0  0  0  0  0  0
   63.4650   30.9350   51.6360 S   0  0  0  0  0  0  0  0  0  0  0  0
   63.7750   29.6970   52.4290 O   0  0  0  0  0  0  0  0  0  0  0  0
   62.5550   31.8110   52.4510 O   0  0  0  0  0  0  0  0  0  0  0  0
   62.6750   30.4840   50.1610 N   0  0  0  0  0  0  0  0  0  0  0  0
   61.7690   31.3210   49.4320 C   0  0  0  0  0  0  0  0  0  0  0  0
   62.0970   32.6370   49.0670 C   0  0  0  0  0  0  0  0  0  0  0  0
   61.2040   33.4040   48.3160 C   0  0  0  0  0  0  0  0  0  0  0  0
   59.9670   32.8710   47.9030 C   0  0  0  0  0  0  0  0  0  0  0  0
   59.0870   33.6650   47.0060 C   0  0  0  0  0  0  0  0  0  0  0  0
   59.3630   34.8750   46.7780 O   0  0  0  0  0  0  0  0  0  0  0  0
   57.9600   33.0710   46.3430 N   0  0  0  0  0  0  0  0  0  0  0  0
   57.5570   33.4740   44.9970 C   0  0  0  0  0  0  0  0  0  0  0  0
   57.3280   32.2640   44.1300 C   0  0  0  0  0  0  0  0  0  0  0  0
   57.6170   32.3310   42.9070 O   0  0  0  0  0  0  0  0  0  0  0  0
   56.7530   31.0490   44.6330 N   0  0  0  0  0  0  0  0  0  0  0  0
   57.4380   29.8190   44.9070 C   0  0  0  0  0  0  0  0  0  0  0  0
   58.8380   29.8020   44.8800 C   0  0  0  0  0  0  0  0  0  0  0  0
   59.5350   28.6180   45.1400 C   0  0  0  0  0  0  0  0  0  0  0  0
   58.8370   27.4500   45.4490 C   0  0  0  0  0  0  0  0  0  0  0  0
   57.4390   27.4620   45.5230 C   0  0  0  0  0  0  0  0  0  0  0  0
   56.5820   25.9840   45.9490 S   0  0  0  0  0  0  0  0  0  0  0  0
   54.8830   26.2880   46.0050 N   0  0  0  0  0  0  0  0  0  0  0  0
   56.8720   24.9270   44.9210 O   0  0  0  0  0  0  0  0  0  0  0  0
   57.0340   25.4910   47.2950 O   0  0  0  0  0  0  0  0  0  0  0  0
   56.7400   28.6520   45.2650 C   0  0  0  0  0  0  0  0  0  0  0  0
   59.6350   31.5610   48.2990 C   0  0  0  0  0  0  0  0  0  0  0  0
   60.5250   30.8010   49.0630 C   0  0  0  0  0  0  0  0  0  0  0  0
   64.9850   33.1540   51.1200 C   0  0  0  0  0  0  0  0  0  0  0  0
   66.1790   33.8270   50.8450 C   0  0  0  0  0  0  0  0  0  0  0  0
   69.1616   34.1050   51.3764 H   0  0  0  0  0  0  0  0  0  0  0  0
   69.3259   33.1685   49.8524 H   0  0  0  0  0  0  0  0  0  0  0  0
   68.4520   34.7378   49.8524 H   0  0  0  0  0  0  0  0  0  0  0  0
   68.3042   31.1476   50.7489 H   0  0  0  0  0  0  0  0  0  0  0  0
   66.1709   29.9478   51.2271 H   0  0  0  0  0  0  0  0  0  0  0  0
   63.0623   33.0656   49.3743 H   0  0  0  0  0  0  0  0  0  0  0  0
   61.4694   34.4362   48.0437 H   0  0  0  0  0  0  0  0  0  0  0  0
   57.3900   32.3440   46.8260 H   0  0  0  0  0  0  0  0  0  0  0  0
   56.6264   34.0574   45.0573 H   0  0  0  0  0  0  0  0  0  0  0  0
   58.3585   34.0829   44.5532 H   0  0  0  0  0  0  0  0  0  0  0  0
   59.3922   30.7247   44.6531 H   0  0  0  0  0  0  0  0  0  0  0  0
   60.6343   28.6074   45.1009 H   0  0  0  0  0  0  0  0  0  0  0  0
   59.3874   26.5160   45.6352 H   0  0  0  0  0  0  0  0  0  0  0  0
   54.7350   27.0960   46.6510 H   0  0  0  0  0  0  0  0  0  0  0  0
   55.6430   28.6715   45.3432 H   0  0  0  0  0  0  0  0  0  0  0  0
   58.6660   31.1318   48.0042 H   0  0  0  0  0  0  0  0  0  0  0  0
   60.2441   29.7848   49.3767 H   0  0  0  0  0  0  0  0  0  0  0  0
   64.0485   33.7212   51.2261 H   0  0  0  0  0  0  0  0  0  0  0  0
   66.1752   34.9192   50.7144 H   0  0  0  0  0  0  0  0  0  0  0  0
  1  2  1  0
  2  3  2  0
  3  4  1  0
  4  5  2  0
  5  6  1  0
  6  7  2  0
  6  8  2  0
  6  9  1  0
  9 10  1  0
 10 11  2  0
 11 12  1  0
 12 13  2  0
 13 14  1  0
 14 15  2  0
 14 16  1  0
 16 17  1  0
 17 18  1  0
 18 19  2  0
 18 20  1  0
 20 21  1  0
 21 22  2  0
 22 23  1  0
 23 24  2  0
 24 25  1  0
 25 26  1  0
 26 27  1  0
 26 28  2  0
 26 29  2  0
 25 30  2  0
 13 31  1  0
 31 32  2  0
  5 33  1  0
 33 34  2  0
 34  2  1  0
 32 10  1  0
 30 21  1  0
  1 35  1  0
  1 36  1  0
  1 37  1  0
  3 38  1  0
  4 39  1  0
 11 40  1  0
 12 41  1  0
 16 42  1  0
 17 43  1  0
 17 44  1  0
 22 45  1  0
 23 46  1  0
 24 47  1  0
 27 48  1  0
 30 49  1  0
 31 50  1  0
 32 51  1  0
 33 52  1  0
 34 53  1  0
M  CHG  3   9  -1  20  -1  27  -1
M  END
>  <UniqueID>  (23) 
23

>  <SMILES>  (23) 
Cc1ccc(S(=O)(=O)[N-]c2ccc(C(=O)NCC(=O)[N-]c3cccc(S([NH-])(=O)=O)c3)cc2)cc1

>  <Energy>  (23) 
55.85412661429293

>  <Genealogy>  (23) 
Cc1ccc(S(=O)(=O)[N-]c2ccc(C(=O)NCC(=O)[N-]c3cccc(S([NH-])(=O)=O)c3)cc2)cc1 (protonated)
Cc1ccc(S(=O)(=O)[N-]c2ccc(C(=O)NCC(=O)[N-]c3cccc(S([NH-])(=O)=O)c3)cc2)cc1 (3D coordinates assigned)
Cc1ccc(S(=O)(=O)[N-]c2ccc(C(=O)NCC(=O)[N-]c3cccc(S([NH-])(=O)=O)c3)cc2)cc1 (optimized conformer: 55.85412661429293 kcal/mol)

>  <smiles>  (23) 
Cc1ccc(S(=O)(=O)Nc2ccc(C(=O)NCC(=O)Nc3cccc(S(N)(=O)=O)c3)cc2)cc1

>  <score_type>  (23) 
oracle

>  <origin>  (23) 
adg

>  <m_score__min__energy>  (23) 
-14.09

>  <m_primary>  (23) 
energy

$$$$
23:0
     RDKit          3D

 61 65  0  0  0  0  0  0  0  0999 V2000
   63.3960   32.3030   47.4060 C   0  0  0  0  0  0  0  0  0  0  0  0
   63.1970   33.1450   48.6310 C   0  0  0  0  0  0  0  0  0  0  0  0
   62.0390   33.8120   49.0520 C   0  0  0  0  0  0  0  0  0  0  0  0
   60.7360   33.8550   48.3670 C   0  0  0  0  0  0  0  0  0  0  0  0
   59.7240   34.2650   48.9970 O   0  0  0  0  0  0  0  0  0  0  0  0
   60.6170   33.4880   46.9880 N   0  0  0  0  0  0  0  0  0  0  0  0
   59.5440   32.6860   46.4620 C   0  0  0  0  0  0  0  0  0  0  0  0
   59.1660   31.4720   47.0640 C   0  0  0  0  0  0  0  0  0  0  0  0
   58.1930   30.6620   46.4710 C   0  0  0  0  0  0  0  0  0  0  0  0
   57.5950   31.0410   45.2590 C   0  0  0  0  0  0  0  0  0  0  0  0
   56.6530   30.1260   44.5770 C   0  0  0  0  0  0  0  0  0  0  0  0
   55.4380   30.4450   44.4840 O   0  0  0  0  0  0  0  0  0  0  0  0
   57.0870   28.8860   43.9970 N   0  0  0  0  0  0  0  0  0  0  0  0
   57.7660   27.8280   44.6940 C   0  0  0  0  0  0  0  0  0  0  0  0
   59.1330   27.9560   44.9590 C   0  0  0  0  0  0  0  0  0  0  0  0
   59.8040   26.9680   45.6870 C   0  0  0  0  0  0  0  0  0  0  0  0
   59.1150   25.8430   46.1460 C   0  0  0  0  0  0  0  0  0  0  0  0
   57.7560   25.6780   45.8410 C   0  0  0  0  0  0  0  0  0  0  0  0
   56.8650   24.2760   46.4280 S   0  0  0  0  0  0  0  0  0  0  0  0
   55.5540   24.7240   47.0120 O   0  0  0  0  0  0  0  0  0  0  0  0
   57.6830   23.6130   47.5030 O   0  0  0  0  0  0  0  0  0  0  0  0
   56.5740   23.1410   45.1330 N   0  0  0  0  0  0  0  0  0  0  0  0
   57.8330   22.5110   44.7090 C   0  0  0  0  0  0  0  0  0  0  0  0
   57.5500   21.4850   43.5910 C   0  0  0  0  0  0  0  0  0  0  0  0
   56.2380   21.6020   43.0640 O   0  0  0  0  0  0  0  0  0  0  0  0
   55.9750   22.9520   42.7290 C   0  0  0  0  0  0  0  0  0  0  0  0
   55.9450   23.8330   43.9940 C   0  0  0  0  0  0  0  0  0  0  0  0
   57.0890   26.6660   45.1060 C   0  0  0  0  0  0  0  0  0  0  0  0
   57.9450   32.2720   44.6790 C   0  0  0  0  0  0  0  0  0  0  0  0
   58.9180   33.0800   45.2700 C   0  0  0  0  0  0  0  0  0  0  0  0
   62.2570   34.4160   50.2070 O   0  0  0  0  0  0  0  0  0  0  0  0
   63.5030   34.1920   50.5490 C   0  0  0  0  0  0  0  0  0  0  0  0
   64.1630   34.6400   51.6910 C   0  0  0  0  0  0  0  0  0  0  0  0
   65.5130   34.2770   51.8550 C   0  0  0  0  0  0  0  0  0  0  0  0
   66.1640   33.4840   50.8840 C   0  0  0  0  0  0  0  0  0  0  0  0
   65.4710   33.0440   49.7420 C   0  0  0  0  0  0  0  0  0  0  0  0
   64.1330   33.4190   49.6070 C   0  0  0  0  0  0  0  0  0  0  0  0
   63.6395   31.2727   47.7048 H   0  0  0  0  0  0  0  0  0  0  0  0
   62.4732   32.3028   46.8073 H   0  0  0  0  0  0  0  0  0  0  0  0
   64.2213   32.7159   46.8073 H   0  0  0  0  0  0  0  0  0  0  0  0
   61.3850   33.7760   46.3420 H   0  0  0  0  0  0  0  0  0  0  0  0
   59.6386   31.1584   48.0065 H   0  0  0  0  0  0  0  0  0  0  0  0
   57.8942   29.7217   46.9573 H   0  0  0  0  0  0  0  0  0  0  0  0
   59.6823   28.8363   44.5938 H   0  0  0  0  0  0  0  0  0  0  0  0
   60.8779   27.0773   45.8988 H   0  0  0  0  0  0  0  0  0  0  0  0
   59.6389   25.0855   46.7474 H   0  0  0  0  0  0  0  0  0  0  0  0
   58.5194   23.2832   44.3315 H   0  0  0  0  0  0  0  0  0  0  0  0
   58.2909   21.9977   45.5674 H   0  0  0  0  0  0  0  0  0  0  0  0
   58.2724   21.6428   42.7766 H   0  0  0  0  0  0  0  0  0  0  0  0
   57.6456   20.4802   44.0282 H   0  0  0  0  0  0  0  0  0  0  0  0
   56.7634   23.3165   42.0541 H   0  0  0  0  0  0  0  0  0  0  0  0
   54.9933   23.0086   42.2360 H   0  0  0  0  0  0  0  0  0  0  0  0
   56.4902   24.7674   43.7949 H   0  0  0  0  0  0  0  0  0  0  0  0
   54.8963   24.0462   44.2485 H   0  0  0  0  0  0  0  0  0  0  0  0
   56.0278   26.5323   44.8490 H   0  0  0  0  0  0  0  0  0  0  0  0
   57.4494   32.6010   43.7537 H   0  0  0  0  0  0  0  0  0  0  0  0
   59.1961   34.0334   44.7971 H   0  0  0  0  0  0  0  0  0  0  0  0
   63.6459   35.2574   52.4403 H   0  0  0  0  0  0  0  0  0  0  0  0
   66.0648   34.6131   52.7453 H   0  0  0  0  0  0  0  0  0  0  0  0
   67.2200   33.2088   51.0220 H   0  0  0  0  0  0  0  0  0  0  0  0
   65.9670   32.4247   48.9801 H   0  0  0  0  0  0  0  0  0  0  0  0
  1  2  1  0
  2  3  2  0
  3  4  1  0
  4  5  2  0
  4  6  1  0
  6  7  1  0
  7  8  2  0
  8  9  1  0
  9 10  2  0
 10 11  1  0
 11 12  2  0
 11 13  1  0
 13 14  1  0
 14 15  2  0
 15 16  1  0
 16 17  2  0
 17 18  1  0
 18 19  1  0
 19 20  2  0
 19 21  2  0
 19 22  1  0
 22 23  1  0
 23 24  1  0
 24 25  1  0
 25 26  1  0
 26 27  1  0
 18 28  2  0
 10 29  1  0
 29 30  2  0
  3 31  1  0
 31 32  1  0
 32 33  2  0
 33 34  1  0
 34 35  2  0
 35 36  1  0
 36 37  2  0
 37  2  1  0
 30  7  1  0
 37 32  1  0
 28 14  1  0
 27 22  1  0
  1 38  1  0
  1 39  1  0
  1 40  1  0
  6 41  1  0
  8 42  1  0
  9 43  1  0
 15 44  1  0
 16 45  1  0
 17 46  1  0
 23 47  1  0
 23 48  1  0
 24 49  1  0
 24 50  1  0
 26 51  1  0
 26 52  1  0
 27 53  1  0
 27 54  1  0
 28 55  1  0
 29 56  1  0
 30 57  1  0
 33 58  1  0
 34 59  1  0
 35 60  1  0
 36 61  1  0
M  CHG  1  13  -1
M  END
>  <UniqueID>  (24) 
24

>  <SMILES>  (24) 
Cc1c(C(=O)Nc2ccc(C(=O)[N-]c3cccc(S(=O)(=O)N4CCOCC4)c3)cc2)oc2ccccc12

>  <Energy>  (24) 
118.9872940733919

>  <Genealogy>  (24) 
Cc1c(C(=O)Nc2ccc(C(=O)[N-]c3cccc(S(=O)(=O)N4CCOCC4)c3)cc2)oc2ccccc12 (protonated)
Cc1c(C(=O)Nc2ccc(C(=O)[N-]c3cccc(S(=O)(=O)N4CCOCC4)c3)cc2)oc2ccccc12 (3D coordinates assigned)
Cc1c(C(=O)Nc2ccc(C(=O)[N-]c3cccc(S(=O)(=O)N4CCOCC4)c3)cc2)oc2ccccc12 (nonaromatic ring conformer: 118.9872940733919 kcal/mol)

>  <smiles>  (24) 
Cc1c(C(=O)Nc2ccc(C(=O)Nc3cccc(S(=O)(=O)N4CCOCC4)c3)cc2)oc2ccccc12

>  <score_type>  (24) 
oracle

>  <origin>  (24) 
adg

>  <m_score__min__energy>  (24) 
-12.369999999999999

>  <m_primary>  (24) 
energy

$$$$
24:0
     RDKit          3D

 57 58  0  0  0  0  0  0  0  0999 V2000
   58.9190   29.9340   48.5920 C   0  0  0  0  0  0  0  0  0  0  0  0
   59.0650   31.1740   47.9080 O   0  0  0  0  0  0  0  0  0  0  0  0
   60.2950   31.8110   47.6730 C   0  0  0  0  0  0  0  0  0  0  0  0
   61.4920   31.0810   47.5250 C   0  0  0  0  0  0  0  0  0  0  0  0
   62.7000   31.7420   47.2980 C   0  0  0  0  0  0  0  0  0  0  0  0
   62.7320   33.1340   47.2140 C   0  0  0  0  0  0  0  0  0  0  0  0
   61.5560   33.8700   47.3590 C   0  0  0  0  0  0  0  0  0  0  0  0
   60.3310   33.2180   47.5860 C   0  0  0  0  0  0  0  0  0  0  0  0
   59.0730   34.0300   47.7670 C   0  0  0  0  0  0  0  0  0  0  0  0
   58.6140   34.5470   46.4830 N   0  0  0  0  0  0  0  0  0  0  0  0
   57.8830   33.7720   45.5260 C   0  0  0  0  0  0  0  0  0  0  0  0
   56.7220   33.3610   45.7940 O   0  0  0  0  0  0  0  0  0  0  0  0
   58.4930   33.4610   44.1930 C   0  0  0  0  0  0  0  0  0  0  0  0
   57.8360   32.3460   43.5850 O   0  0  0  0  0  0  0  0  0  0  0  0
   57.6940   31.0680   44.1510 C   0  0  0  0  0  0  0  0  0  0  0  0
   56.4360   30.4570   44.0970 C   0  0  0  0  0  0  0  0  0  0  0  0
   56.2310   29.1960   44.6650 C   0  0  0  0  0  0  0  0  0  0  0  0
   57.2890   28.5260   45.2900 C   0  0  0  0  0  0  0  0  0  0  0  0
   57.0050   26.9640   46.0570 S   0  0  0  0  0  0  0  0  0  0  0  0
   55.5420   26.6210   46.0140 O   0  0  0  0  0  0  0  0  0  0  0  0
   57.4320   27.0450   47.4950 O   0  0  0  0  0  0  0  0  0  0  0  0
   57.9280   25.7230   45.2590 N   0  0  0  0  0  0  0  0  0  0  0  0
   57.1610   25.0980   44.1800 C   0  0  0  0  0  0  0  0  0  0  0  0
   57.2380   23.5700   44.2770 C   0  0  0  0  0  0  0  0  0  0  0  0
   55.9120   22.8980   43.8610 C   0  0  0  0  0  0  0  0  0  0  0  0
   56.0820   21.4460   43.6290 N   0  0  0  0  0  0  0  0  0  0  0  0
   55.9900   20.7210   44.9080 C   0  0  0  0  0  0  0  0  0  0  0  0
   57.3770   21.1540   42.9910 C   0  0  0  0  0  0  0  0  0  0  0  0
   58.5550   29.1210   45.3310 C   0  0  0  0  0  0  0  0  0  0  0  0
   58.7610   30.3820   44.7660 C   0  0  0  0  0  0  0  0  0  0  0  0
   58.9397   30.1095   49.6777 H   0  0  0  0  0  0  0  0  0  0  0  0
   57.9603   29.4722   48.3134 H   0  0  0  0  0  0  0  0  0  0  0  0
   59.7442   29.2622   48.3134 H   0  0  0  0  0  0  0  0  0  0  0  0
   61.4737   29.9830   47.5889 H   0  0  0  0  0  0  0  0  0  0  0  0
   63.6290   31.1640   47.1851 H   0  0  0  0  0  0  0  0  0  0  0  0
   63.6855   33.6518   47.0332 H   0  0  0  0  0  0  0  0  0  0  0  0
   61.5871   34.9677   47.2954 H   0  0  0  0  0  0  0  0  0  0  0  0
   58.2894   33.3925   48.2024 H   0  0  0  0  0  0  0  0  0  0  0  0
   59.2869   34.8758   48.4370 H   0  0  0  0  0  0  0  0  0  0  0  0
   58.3957   34.3390   43.5375 H   0  0  0  0  0  0  0  0  0  0  0  0
   59.5540   33.2100   44.3392 H   0  0  0  0  0  0  0  0  0  0  0  0
   55.6003   30.9740   43.6028 H   0  0  0  0  0  0  0  0  0  0  0  0
   55.2359   28.7294   44.6206 H   0  0  0  0  0  0  0  0  0  0  0  0
   56.1095   25.4123   44.2551 H   0  0  0  0  0  0  0  0  0  0  0  0
   57.5850   25.4135   43.2153 H   0  0  0  0  0  0  0  0  0  0  0  0
   58.0407   23.2119   43.6156 H   0  0  0  0  0  0  0  0  0  0  0  0
   57.4395   23.3052   45.3255 H   0  0  0  0  0  0  0  0  0  0  0  0
   55.1711   23.0467   44.6603 H   0  0  0  0  0  0  0  0  0  0  0  0
   55.5754   23.3580   42.9202 H   0  0  0  0  0  0  0  0  0  0  0  0
   56.0805   21.4338   45.7409 H   0  0  0  0  0  0  0  0  0  0  0  0
   55.0194   20.2070   44.9691 H   0  0  0  0  0  0  0  0  0  0  0  0
   56.8014   19.9808   44.9691 H   0  0  0  0  0  0  0  0  0  0  0  0
   58.1376   20.9825   43.7669 H   0  0  0  0  0  0  0  0  0  0  0  0
   57.2827   20.2546   42.3648 H   0  0  0  0  0  0  0  0  0  0  0  0
   57.6778   22.0069   42.3648 H   0  0  0  0  0  0  0  0  0  0  0  0
   59.3924   28.5930   45.8106 H   0  0  0  0  0  0  0  0  0  0  0  0
   59.7598   30.8415   44.8012 H   0  0  0  0  0  0  0  0  0  0  0  0
  1  2  1  0
  2  3  1  0
  3  4  2  0
  4  5  1  0
  5  6  2  0
  6  7  1  0
  7  8  2  0
  8  9  1  0
  9 10  1  0
 10 11  1  0
 11 12  2  0
 11 13  1  0
 13 14  1  0
 14 15  1  0
 15 16  2  0
 16 17  1  0
 17 18  2  0
 18 19  1  0
 19 20  2  0
 19 21  2  0
 19 22  1  0
 22 23  1  0
 23 24  1  0
 24 25  1  0
 25 26  1  0
 26 27  1  0
 26 28  1  0
 18 29  1  0
 29 30  2  0
  8  3  1  0
 30 15  1  0
  1 31  1  0
  1 32  1  0
  1 33  1  0
  4 34  1  0
  5 35  1  0
  6 36  1  0
  7 37  1  0
  9 38  1  0
  9 39  1  0
 13 40  1  0
 13 41  1  0
 16 42  1  0
 17 43  1  0
 23 44  1  0
 23 45  1  0
 24 46  1  0
 24 47  1  0
 25 48  1  0
 25 49  1  0
 27 50  1  0
 27 51  1  0
 27 52  1  0
 28 53  1  0
 28 54  1  0
 28 55  1  0
 29 56  1  0
 30 57  1  0
M  CHG  2  10  -1  22  -1
M  END
>  <UniqueID>  (25) 
25

>  <SMILES>  (25) 
COc1ccccc1C[N-]C(=O)COc1ccc(S(=O)(=O)[N-]CCCN(C)C)cc1

>  <Energy>  (25) 
49.0099609965553

>  <Genealogy>  (25) 
COc1ccccc1C[N-]C(=O)COc1ccc(S(=O)(=O)[N-]CCCN(C)C)cc1 (protonated)
COc1ccccc1C[N-]C(=O)COc1ccc(S(=O)(=O)[N-]CCCN(C)C)cc1 (3D coordinates assigned)
COc1ccccc1C[N-]C(=O)COc1ccc(S(=O)(=O)[N-]CCCN(C)C)cc1 (optimized conformer: 49.0099609965553 kcal/mol)

>  <smiles>  (25) 
COc1ccccc1CNC(=O)COc1ccc(S(=O)(=O)NCCCN(C)C)cc1

>  <score_type>  (25) 
oracle

>  <origin>  (25) 
adg

>  <m_score__min__energy>  (25) 
-10.529999999999999

>  <m_primary>  (25) 
energy

$$$$
25:0
     RDKit          3D

 39 42  0  0  0  0  0  0  0  0999 V2000
   60.0590   32.2130   47.7290 C   0  0  0  0  0  0  0  0  0  0  0  0
   59.0920   32.5310   46.6210 C   0  0  0  0  0  0  0  0  0  0  0  0
   58.9840   33.8630   46.1880 C   0  0  0  0  0  0  0  0  0  0  0  0
   58.1440   34.1970   45.1230 C   0  0  0  0  0  0  0  0  0  0  0  0
   57.4050   33.2070   44.4790 C   0  0  0  0  0  0  0  0  0  0  0  0
   57.4820   31.8790   44.9080 C   0  0  0  0  0  0  0  0  0  0  0  0
   56.5130   30.6630   44.0880 Cl  0  0  0  0  0  0  0  0  0  0  0  0
   58.2950   31.5330   46.0030 C   0  0  0  0  0  0  0  0  0  0  0  0
   58.3190   30.1650   46.4380 N   0  0  0  0  0  0  0  0  0  0  0  0
   58.8340   29.0550   45.6880 C   0  0  0  0  0  0  0  0  0  0  0  0
   59.7800   29.2610   44.8820 O   0  0  0  0  0  0  0  0  0  0  0  0
   58.2740   27.6900   45.8140 C   0  0  0  0  0  0  0  0  0  0  0  0
   59.1260   26.5580   45.9240 C   0  0  0  0  0  0  0  0  0  0  0  0
   58.5890   25.2610   46.0340 C   0  0  0  0  0  0  0  0  0  0  0  0
   57.2050   25.1330   46.0440 C   0  0  0  0  0  0  0  0  0  0  0  0
   56.4860   24.0050   46.1420 N   0  0  0  0  0  0  0  0  0  0  0  0
   55.2100   24.4680   46.1060 C   0  0  0  0  0  0  0  0  0  0  0  0
   54.0850   23.5790   46.1840 N   0  0  0  0  0  0  0  0  0  0  0  0
   53.0020   23.6250   45.4650 C   0  0  0  0  0  0  0  0  0  0  0  0
   53.0540   23.7330   44.1080 N   0  0  0  0  0  0  0  0  0  0  0  0
   51.9190   23.7810   43.3630 C   0  0  0  0  0  0  0  0  0  0  0  0
   50.6750   23.7190   43.9880 C   0  0  0  0  0  0  0  0  0  0  0  0
   50.6350   23.6080   45.3770 C   0  0  0  0  0  0  0  0  0  0  0  0
   51.7930   23.5630   46.0860 N   0  0  0  0  0  0  0  0  0  0  0  0
   55.0990   25.8200   45.9940 N   0  0  0  0  0  0  0  0  0  0  0  0
   56.3810   26.2110   45.9580 C   0  0  0  0  0  0  0  0  0  0  0  0
   56.8710   27.5100   45.8480 C   0  0  0  0  0  0  0  0  0  0  0  0
   59.5692   32.3741   48.7007 H   0  0  0  0  0  0  0  0  0  0  0  0
   60.3768   31.1630   47.6482 H   0  0  0  0  0  0  0  0  0  0  0  0
   60.9380   32.8694   47.6482 H   0  0  0  0  0  0  0  0  0  0  0  0
   59.5655   34.6493   46.6916 H   0  0  0  0  0  0  0  0  0  0  0  0
   58.0659   35.2432   44.7924 H   0  0  0  0  0  0  0  0  0  0  0  0
   56.7583   33.4716   43.6294 H   0  0  0  0  0  0  0  0  0  0  0  0
   60.2172   26.6965   45.9232 H   0  0  0  0  0  0  0  0  0  0  0  0
   59.2424   24.3793   46.1094 H   0  0  0  0  0  0  0  0  0  0  0  0
   51.9818   23.8687   42.2683 H   0  0  0  0  0  0  0  0  0  0  0  0
   49.7466   23.7568   43.3992 H   0  0  0  0  0  0  0  0  0  0  0  0
   49.6676   23.5569   45.8980 H   0  0  0  0  0  0  0  0  0  0  0  0
   56.1878   28.3702   45.7893 H   0  0  0  0  0  0  0  0  0  0  0  0
  1  2  1  0
  2  3  2  0
  3  4  1  0
  4  5  2  0
  5  6  1  0
  6  7  1  0
  6  8  2  0
  8  9  1  0
  9 10  1  0
 10 11  2  0
 10 12  1  0
 12 13  2  0
 13 14  1  0
 14 15  2  0
 15 16  1  0
 16 17  1  0
 17 18  1  0
 18 19  2  3
 19 20  1  0
 20 21  2  0
 21 22  1  0
 22 23  2  0
 23 24  1  0
 17 25  2  0
 25 26  1  0
 26 27  2  0
  8  2  1  0
 27 12  1  0
 26 15  1  0
 24 19  1  0
  1 28  1  0
  1 29  1  0
  1 30  1  0
  3 31  1  0
  4 32  1  0
  5 33  1  0
 13 34  1  0
 14 35  1  0
 21 36  1  0
 22 37  1  0
 23 38  1  0
 27 39  1  0
M  CHG  3   9  -1  16  -1  24  -1
M  END
>  <UniqueID>  (26) 
26

>  <SMILES>  (26) 
Cc1cccc(Cl)c1[N-]C(=O)c1ccc2[n-]c(N=c3nccc[n-]3)nc2c1

>  <Energy>  (26) 
92.0727073045987

>  <Genealogy>  (26) 
Cc1cccc(Cl)c1[N-]C(=O)c1ccc2[n-]c(N=c3nccc[n-]3)nc2c1 (protonated)
Cc1cccc(Cl)c1[N-]C(=O)c1ccc2[n-]c(N=c3nccc[n-]3)nc2c1 (3D coordinates assigned)
Cc1cccc(Cl)c1[N-]C(=O)c1ccc2[n-]c(N=c3nccc[n-]3)nc2c1 (optimized conformer: 92.0727073045987 kcal/mol)

>  <smiles>  (26) 
Cc1cccc(Cl)c1NC(=O)c1ccc2[nH]c(N=c3nccc[nH]3)nc2c1

>  <score_type>  (26) 
oracle

>  <origin>  (26) 
adg

>  <m_score__min__energy>  (26) 
-12.09

>  <m_primary>  (26) 
energy

$$$$
26:0
     RDKit          3D

 26 26  0  0  0  0  0  0  0  0999 V2000
   60.1477   32.4224   49.9958 H   0  0  0  0  0  0  0  0  0  0  0  0
   59.5890   32.2250   49.0690 C   0  0  0  0  0  0  0  0  0  0  0  0
   59.2670   30.8580   48.7360 C   0  0  0  0  0  0  0  0  0  0  0  0
   59.0080   29.7630   48.4690 N   0  0  0  0  0  0  0  0  0  0  0  0
   59.2480   33.2340   48.3220 N   0  0  0  0  0  0  0  0  0  0  0  0
   58.7340   33.1740   46.9810 C   0  0  0  0  0  0  0  0  0  0  0  0
   58.8190   34.3110   46.1750 C   0  0  0  0  0  0  0  0  0  0  0  0
   59.2808   35.2312   46.5624 H   0  0  0  0  0  0  0  0  0  0  0  0
   58.3150   34.2720   44.8770 C   0  0  0  0  0  0  0  0  0  0  0  0
   58.3992   35.1556   44.2272 H   0  0  0  0  0  0  0  0  0  0  0  0
   57.7040   33.1130   44.4020 C   0  0  0  0  0  0  0  0  0  0  0  0
   57.3242   33.0702   43.3706 H   0  0  0  0  0  0  0  0  0  0  0  0
   57.5760   31.9960   45.2520 C   0  0  0  0  0  0  0  0  0  0  0  0
   57.0020   30.8870   44.8670 N   0  0  0  0  0  0  0  0  0  0  0  0
   57.6300   29.6200   44.6170 C   0  0  0  0  0  0  0  0  0  0  0  0
   58.6250   29.1190   45.5310 N   0  0  0  0  0  0  0  0  0  0  0  0
   58.9480   29.7390   46.3080 H   0  0  0  0  0  0  0  0  0  0  0  0
   59.1860   27.7740   45.4560 C   0  0  0  0  0  0  0  0  0  0  0  0
   59.3475   27.3868   46.4729 H   0  0  0  0  0  0  0  0  0  0  0  0
   58.4878   27.1149   44.9193 H   0  0  0  0  0  0  0  0  0  0  0  0
   60.1456   27.8064   44.9193 H   0  0  0  0  0  0  0  0  0  0  0  0
   57.3740   29.0050   43.5030 N   0  0  0  0  0  0  0  0  0  0  0  0
   57.8550   29.2930   42.6210 H   0  0  0  0  0  0  0  0  0  0  0  0
   56.6940   28.2160   43.4430 H   0  0  0  0  0  0  0  0  0  0  0  0
   58.1000   32.0570   46.5120 N   0  0  0  0  0  0  0  0  0  0  0  0
   57.9730   31.2350   47.1460 H   0  0  0  0  0  0  0  0  0  0  0  0
  1  2  1  0
  2  3  1  0
  3  4  3  0
  2  5  2  0
  5  6  1  0
  6  7  2  0
  7  8  1  0
  7  9  1  0
  9 10  1  0
  9 11  2  0
 11 12  1  0
 11 13  1  0
 13 14  2  3
 14 15  1  0
 15 16  1  0
 16 17  1  0
 16 18  1  0
 18 19  1  0
 18 20  1  0
 18 21  1  0
 15 22  2  0
 22 23  1  0
 22 24  1  0
 13 25  1  0
 25 26  1  0
 25  6  1  0
M  CHG  1  22   1
M  END
>  <UniqueID>  (27) 
27

>  <SMILES>  (27) 
CNC(=[NH2+])N=c1cccc(/N=C\C#N)[nH]1

>  <Energy>  (27) 
35.64032706060343

>  <Genealogy>  (27) 
CNC(=[NH2+])N=c1cccc(N=CC#N)[nH]1 (protonated)
CNC(=[NH2+])N=c1cccc(/N=C\C#N)[nH]1 (cis-trans isomerization)
CNC(=[NH2+])N=c1cccc(/N=C\C#N)[nH]1 (3D coordinates assigned)
CNC(=[NH2+])N=c1cccc(/N=C\C#N)[nH]1 (optimized conformer: 35.64032706060343 kcal/mol)

>  <smiles>  (27) 
CNC(=N)N=c1cccc(N=CC#N)[nH]1

>  <score_type>  (27) 
oracle

>  <origin>  (27) 
adg

>  <m_score__min__energy>  (27) 
-4.6200000000000001

>  <m_primary>  (27) 
energy

$$$$
27:0
     RDKit          3D

 49 52  0  0  0  0  0  0  0  0999 V2000
   55.5270   29.5220   44.5630 O   0  0  0  0  0  0  0  0  0  0  0  0
   56.6290   30.0760   44.8230 C   0  0  0  0  0  0  0  0  0  0  0  0
   56.7110   31.4700   44.8670 O   0  0  0  0  0  0  0  0  0  0  0  0
   57.9780   32.1300   44.8770 C   0  0  1  0  0  0  0  0  0  0  0  0
   57.7840   33.5830   45.2290 C   0  0  0  0  0  0  0  0  0  0  0  0
   56.6200   34.0580   45.2610 O   0  0  0  0  0  0  0  0  0  0  0  0
   58.8970   34.4660   45.4270 N   0  0  0  0  0  0  0  0  0  0  0  0
   59.9230   34.2870   46.4100 C   0  0  0  0  0  0  0  0  0  0  0  0
   59.6820   34.5600   47.7650 C   0  0  0  0  0  0  0  0  0  0  0  0
   60.6860   34.3480   48.7150 C   0  0  0  0  0  0  0  0  0  0  0  0
   61.9390   33.8630   48.3190 C   0  0  0  0  0  0  0  0  0  0  0  0
   63.1750   33.5020   49.5210 S   0  0  0  0  0  0  0  0  0  0  0  0
   64.4970   33.3270   48.8240 O   0  0  0  0  0  0  0  0  0  0  0  0
   63.2950   34.6470   50.4900 O   0  0  0  0  0  0  0  0  0  0  0  0
   62.7500   32.0350   50.3720 N   0  0  0  0  0  0  0  0  0  0  0  0
   61.6710   31.3280   49.6400 C   0  0  0  0  0  0  0  0  0  0  0  0
   61.5510   29.8410   50.0140 C   0  0  0  0  0  0  0  0  0  0  0  0
   61.9750   29.5590   51.7610 S   0  0  0  0  0  0  0  0  0  0  0  0
   63.7210   30.0810   51.5930 C   0  0  0  0  0  0  0  0  0  0  0  0
   63.9500   31.1900   50.5470 C   0  0  0  0  0  0  0  0  0  0  0  0
   62.1900   33.6250   46.9600 C   0  0  0  0  0  0  0  0  0  0  0  0
   61.1910   33.8530   46.0080 C   0  0  0  0  0  0  0  0  0  0  0  0
   58.9340   31.4290   45.8600 C   0  0  0  0  0  0  0  0  0  0  0  0
   58.9870   29.9470   45.5740 C   0  0  0  0  0  0  0  0  0  0  0  0
   60.1490   29.2110   45.8520 C   0  0  0  0  0  0  0  0  0  0  0  0
   60.1770   27.8290   45.6390 C   0  0  0  0  0  0  0  0  0  0  0  0
   59.0410   27.1700   45.1630 C   0  0  0  0  0  0  0  0  0  0  0  0
   57.8730   27.8890   44.8970 C   0  0  0  0  0  0  0  0  0  0  0  0
   57.8390   29.2790   45.1040 C   0  0  0  0  0  0  0  0  0  0  0  0
   58.4342   32.0761   43.8775 H   0  0  0  0  0  0  0  0  0  0  0  0
   58.7001   34.9420   48.0810 H   0  0  0  0  0  0  0  0  0  0  0  0
   60.4913   34.5627   49.7761 H   0  0  0  0  0  0  0  0  0  0  0  0
   62.3950   32.3280   51.3130 H   0  0  0  0  0  0  0  0  0  0  0  0
   60.7147   31.8225   49.8658 H   0  0  0  0  0  0  0  0  0  0  0  0
   61.9209   31.3742   48.5697 H   0  0  0  0  0  0  0  0  0  0  0  0
   60.5166   29.5104   49.8390 H   0  0  0  0  0  0  0  0  0  0  0  0
   62.2544   29.2695   49.3906 H   0  0  0  0  0  0  0  0  0  0  0  0
   64.0661   30.4511   52.5697 H   0  0  0  0  0  0  0  0  0  0  0  0
   64.2830   29.2003   51.2488 H   0  0  0  0  0  0  0  0  0  0  0  0
   64.7866   31.8234   50.8769 H   0  0  0  0  0  0  0  0  0  0  0  0
   64.1740   30.7100   49.5829 H   0  0  0  0  0  0  0  0  0  0  0  0
   63.1766   33.2575   46.6414 H   0  0  0  0  0  0  0  0  0  0  0  0
   61.4027   33.6908   44.9408 H   0  0  0  0  0  0  0  0  0  0  0  0
   59.9422   31.8556   45.7520 H   0  0  0  0  0  0  0  0  0  0  0  0
   58.5675   31.5822   46.8858 H   0  0  0  0  0  0  0  0  0  0  0  0
   61.0420   29.7234   46.2393 H   0  0  0  0  0  0  0  0  0  0  0  0
   61.0952   27.2600   45.8467 H   0  0  0  0  0  0  0  0  0  0  0  0
   59.0661   26.0828   44.9973 H   0  0  0  0  0  0  0  0  0  0  0  0
   56.9791   27.3669   44.5252 H   0  0  0  0  0  0  0  0  0  0  0  0
  1  2  2  0
  2  3  1  0
  3  4  1  0
  4  5  1  0
  5  6  2  0
  5  7  1  0
  7  8  1  0
  8  9  2  0
  9 10  1  0
 10 11  2  0
 11 12  1  0
 12 13  2  0
 12 14  2  0
 12 15  1  0
 15 16  1  0
 16 17  1  0
 17 18  1  0
 18 19  1  0
 19 20  1  0
 11 21  1  0
 21 22  2  0
  4 23  1  0
 23 24  1  0
 24 25  2  0
 25 26  1  0
 26 27  2  0
 27 28  1  0
 28 29  2  0
 29  2  1  0
 22  8  1  0
 29 24  1  0
 20 15  1  0
  4 30  1  6
  9 31  1  0
 10 32  1  0
 15 33  1  0
 16 34  1  0
 16 35  1  0
 17 36  1  0
 17 37  1  0
 19 38  1  0
 19 39  1  0
 20 40  1  0
 20 41  1  0
 21 42  1  0
 22 43  1  0
 23 44  1  0
 23 45  1  0
 25 46  1  0
 26 47  1  0
 27 48  1  0
 28 49  1  0
M  CHG  2   7  -1  15   1
M  END
>  <UniqueID>  (28) 
28

>  <SMILES>  (28) 
O=C1O[C@@H](C(=O)[N-]c2ccc(S(=O)(=O)[NH+]3CCSCC3)cc2)Cc2ccccc21

>  <Energy>  (28) 
62.17674253421994

>  <Genealogy>  (28) 
O=C1OC(C(=O)[N-]c2ccc(S(=O)(=O)[NH+]3CCSCC3)cc2)Cc2ccccc21 (protonated)
O=C1O[C@@H](C(=O)[N-]c2ccc(S(=O)(=O)[NH+]3CCSCC3)cc2)Cc2ccccc21 (chirality)
O=C1O[C@@H](C(=O)[N-]c2ccc(S(=O)(=O)[NH+]3CCSCC3)cc2)Cc2ccccc21 (3D coordinates assigned)
O=C1O[C@@H](C(=O)[N-]c2ccc(S(=O)(=O)[NH+]3CCSCC3)cc2)Cc2ccccc21 (nonaromatic ring conformer: 62.17674253421994 kcal/mol)

>  <smiles>  (28) 
O=C1OC(C(=O)Nc2ccc(S(=O)(=O)N3CCSCC3)cc2)Cc2ccccc21

>  <score_type>  (28) 
oracle

>  <origin>  (28) 
adg

>  <m_score__min__energy>  (28) 
-9.3000000000000007

>  <m_primary>  (28) 
energy

$$$$
28:0
     RDKit          3D

 89 94  0  0  0  0  0  0  0  0999 V2000
   56.8280   24.8130   47.7320 O   0  0  0  0  0  0  0  0  0  0  0  0
   56.3760   24.7000   46.5560 C   0  0  0  0  0  0  0  0  0  0  0  0
   57.2190   25.0530   45.3640 C   0  0  0  0  0  0  0  0  0  0  0  0
   57.6100   26.5060   45.3360 C   0  0  0  0  0  0  0  0  0  0  0  0
   56.6560   27.5050   45.5800 C   0  0  0  0  0  0  0  0  0  0  0  0
   57.0460   28.8470   45.6380 C   0  0  0  0  0  0  0  0  0  0  0  0
   58.3940   29.2090   45.4620 C   0  0  0  0  0  0  0  0  0  0  0  0
   58.7740   30.5930   45.5560 N   0  0  0  0  0  0  0  0  0  0  0  0
   57.8950   31.6920   45.2620 C   0  0  0  0  0  0  0  0  0  0  0  0
   56.7220   31.4900   44.8400 O   0  0  0  0  0  0  0  0  0  0  0  0
   58.3900   33.1050   45.3810 C   0  0  0  0  0  0  0  0  0  0  0  0
   58.9060   33.3490   46.7700 C   0  0  0  0  0  0  0  0  0  0  0  0
   59.9120   34.3030   46.9900 C   0  0  0  0  0  0  0  0  0  0  0  0
   60.3500   34.5690   48.2880 C   0  0  0  0  0  0  0  0  0  0  0  0
   59.8010   33.8770   49.3740 C   0  0  0  0  0  0  0  0  0  0  0  0
   58.8110   32.9020   49.1630 C   0  0  0  0  0  0  0  0  0  0  0  0
   58.2050   32.1950   50.2560 N   0  0  0  0  0  0  0  0  0  0  0  0
   58.5190   30.8670   50.6980 C   0  0  0  0  0  0  0  0  0  0  0  0
   57.5690   30.0570   50.8780 O   0  0  0  0  0  0  0  0  0  0  0  0
   59.9580   30.3980   50.8300 C   0  0  1  0  0  0  0  0  0  0  0  0
   60.1190   28.8770   50.6830 C   0  0  0  0  0  0  0  0  0  0  0  0
   59.9130   28.3610   49.2480 C   0  0  0  0  0  0  0  0  0  0  0  0
   60.1630   29.3970   48.1360 C   0  0  0  0  0  0  0  0  0  0  0  0
   61.0550   30.4910   48.5560 N   0  0  0  0  0  0  0  0  0  0  0  0
   61.8650   31.1380   47.5540 C   0  0  0  0  0  0  0  0  0  0  0  0
   61.4220   31.2500   46.3740 O   0  0  0  0  0  0  0  0  0  0  0  0
   63.2260   31.7060   47.8980 C   0  0  0  0  0  0  0  0  0  0  0  0
   63.2070   32.8540   48.9120 C   0  0  0  0  0  0  0  0  0  0  0  0
   63.7690   33.8010   47.8580 C   0  0  0  0  0  0  0  0  0  0  0  0
   63.7760   32.6680   46.8410 C   0  0  0  0  0  0  0  0  0  0  0  0
   60.9090   31.1410   49.8720 C   0  0  0  0  0  0  0  0  0  0  0  0
   58.3440   32.6700   47.8640 C   0  0  0  0  0  0  0  0  0  0  0  0
   59.3360   28.2130   45.1560 C   0  0  0  0  0  0  0  0  0  0  0  0
   58.9480   26.8720   45.0950 C   0  0  0  0  0  0  0  0  0  0  0  0
   55.0150   24.3170   46.3490 N   0  0  0  0  0  0  0  0  0  0  0  0
   54.4370   23.0850   46.8160 C   0  0  0  0  0  0  0  0  0  0  0  0
   54.7800   22.5390   48.0710 C   0  0  0  0  0  0  0  0  0  0  0  0
   54.1490   21.3760   48.5360 C   0  0  0  0  0  0  0  0  0  0  0  0
   54.5100   20.8460   49.8120 N   0  0  0  0  0  0  0  0  0  0  0  0
   53.9060   21.4910   51.2990 S   0  0  0  0  0  0  0  0  0  0  0  0
   54.9680   22.3410   51.9330 O   0  0  0  0  0  0  0  0  0  0  0  0
   53.5970   20.3540   52.2300 O   0  0  0  0  0  0  0  0  0  0  0  0
   52.4640   22.4710   51.0470 C   0  0  0  0  0  0  0  0  0  0  0  0
   52.3880   23.7560   51.6020 C   0  0  0  0  0  0  0  0  0  0  0  0
   51.2750   24.5650   51.3550 C   0  0  0  0  0  0  0  0  0  0  0  0
   50.2290   24.0930   50.5520 C   0  0  0  0  0  0  0  0  0  0  0  0
   50.2950   22.8060   50.0040 C   0  0  0  0  0  0  0  0  0  0  0  0
   51.4080   21.9960   50.2480 C   0  0  0  0  0  0  0  0  0  0  0  0
   53.1360   20.7790   47.7660 C   0  0  0  0  0  0  0  0  0  0  0  0
   52.7920   21.3130   46.5230 C   0  0  0  0  0  0  0  0  0  0  0  0
   53.4380   22.4620   46.0450 C   0  0  0  0  0  0  0  0  0  0  0  0
   53.0850   22.9790   44.8020 O   0  0  0  0  0  0  0  0  0  0  0  0
   58.1342   24.4432   45.3877 H   0  0  0  0  0  0  0  0  0  0  0  0
   56.6193   24.8540   44.4636 H   0  0  0  0  0  0  0  0  0  0  0  0
   55.6002   27.2328   45.7259 H   0  0  0  0  0  0  0  0  0  0  0  0
   56.2920   29.6263   45.8229 H   0  0  0  0  0  0  0  0  0  0  0  0
   59.7790   30.8040   45.7290 H   0  0  0  0  0  0  0  0  0  0  0  0
   59.2008   33.2700   44.6562 H   0  0  0  0  0  0  0  0  0  0  0  0
   57.5612   33.7983   45.1749 H   0  0  0  0  0  0  0  0  0  0  0  0
   60.3552   34.8410   46.1390 H   0  0  0  0  0  0  0  0  0  0  0  0
   61.1300   35.3257   48.4585 H   0  0  0  0  0  0  0  0  0  0  0  0
   60.1454   34.0969   50.3953 H   0  0  0  0  0  0  0  0  0  0  0  0
   60.2465   30.6529   51.8604 H   0  0  0  0  0  0  0  0  0  0  0  0
   61.1344   28.6039   51.0062 H   0  0  0  0  0  0  0  0  0  0  0  0
   59.3377   28.4131   51.3029 H   0  0  0  0  0  0  0  0  0  0  0  0
   60.6005   27.5173   49.0878 H   0  0  0  0  0  0  0  0  0  0  0  0
   58.8513   28.0832   49.1731 H   0  0  0  0  0  0  0  0  0  0  0  0
   60.6185   28.8844   47.2759 H   0  0  0  0  0  0  0  0  0  0  0  0
   59.1915   29.8454   47.8808 H   0  0  0  0  0  0  0  0  0  0  0  0
   63.7438   30.7655   48.1376 H   0  0  0  0  0  0  0  0  0  0  0  0
   62.2008   33.1232   49.2657 H   0  0  0  0  0  0  0  0  0  0  0  0
   63.7098   32.7442   49.8842 H   0  0  0  0  0  0  0  0  0  0  0  0
   63.0977   34.6329   47.5985 H   0  0  0  0  0  0  0  0  0  0  0  0
   64.6862   34.3744   48.0580 H   0  0  0  0  0  0  0  0  0  0  0  0
   63.1015   32.8284   45.9870 H   0  0  0  0  0  0  0  0  0  0  0  0
   64.6970   32.4212   46.2925 H   0  0  0  0  0  0  0  0  0  0  0  0
   61.9014   31.1974   50.3430 H   0  0  0  0  0  0  0  0  0  0  0  0
   60.4714   32.1341   49.6923 H   0  0  0  0  0  0  0  0  0  0  0  0
   57.5295   31.9495   47.6982 H   0  0  0  0  0  0  0  0  0  0  0  0
   60.3831   28.4897   44.9636 H   0  0  0  0  0  0  0  0  0  0  0  0
   59.6923   26.0977   44.8573 H   0  0  0  0  0  0  0  0  0  0  0  0
   55.5473   23.0287   48.6887 H   0  0  0  0  0  0  0  0  0  0  0  0
   53.2072   24.1292   52.2342 H   0  0  0  0  0  0  0  0  0  0  0  0
   51.2207   25.5731   51.7917 H   0  0  0  0  0  0  0  0  0  0  0  0
   49.3566   24.7325   50.3520 H   0  0  0  0  0  0  0  0  0  0  0  0
   49.4697   22.4317   49.3805 H   0  0  0  0  0  0  0  0  0  0  0  0
   51.4581   20.9861   49.8148 H   0  0  0  0  0  0  0  0  0  0  0  0
   52.6127   19.8883   48.1440 H   0  0  0  0  0  0  0  0  0  0  0  0
   52.0114   20.8307   45.9164 H   0  0  0  0  0  0  0  0  0  0  0  0
  1  2  2  0
  2  3  1  0
  3  4  1  0
  4  5  2  0
  5  6  1  0
  6  7  2  0
  7  8  1  0
  8  9  1  0
  9 10  2  0
  9 11  1  0
 11 12  1  0
 12 13  2  0
 13 14  1  0
 14 15  2  0
 15 16  1  0
 16 17  1  0
 17 18  1  0
 18 19  2  0
 18 20  1  0
 20 21  1  0
 21 22  1  0
 22 23  1  0
 23 24  1  0
 24 25  1  0
 25 26  2  0
 25 27  1  0
 27 28  1  0
 28 29  1  0
 29 30  1  0
 24 31  1  0
 16 32  2  0
  7 33  1  0
 33 34  2  0
  2 35  1  0
 35 36  1  0
 36 37  2  0
 37 38  1  0
 38 39  1  0
 39 40  1  0
 40 41  2  0
 40 42  2  0
 40 43  1  0
 43 44  2  0
 44 45  1  0
 45 46  2  0
 46 47  1  0
 47 48  2  0
 38 49  2  0
 49 50  1  0
 50 51  2  0
 51 52  1  0
 34  4  1  0
 51 36  1  0
 32 12  1  0
 48 43  1  0
 31 20  1  0
 30 27  1  0
  3 53  1  0
  3 54  1  0
  5 55  1  0
  6 56  1  0
  8 57  1  0
 11 58  1  0
 11 59  1  0
 13 60  1  0
 14 61  1  0
 15 62  1  0
 20 63  1  1
 21 64  1  0
 21 65  1  0
 22 66  1  0
 22 67  1  0
 23 68  1  0
 23 69  1  0
 27 70  1  0
 28 71  1  0
 28 72  1  0
 29 73  1  0
 29 74  1  0
 30 75  1  0
 30 76  1  0
 31 77  1  0
 31 78  1  0
 32 79  1  0
 33 80  1  0
 34 81  1  0
 37 82  1  0
 44 83  1  0
 45 84  1  0
 46 85  1  0
 47 86  1  0
 48 87  1  0
 49 88  1  0
 50 89  1  0
M  CHG  4  17  -1  35  -1  39  -1  52  -1
M  END
>  <UniqueID>  (29) 
29

>  <SMILES>  (29) 
O=C(Cc1ccc(NC(=O)Cc2cccc([N-]C(=O)[C@H]3CCCN(C(=O)C4CCC4)C3)c2)cc1)[N-]c1cc([N-]S(=O)(=O)c2ccccc2)ccc1[O-]

>  <Energy>  (29) 
184.34493392156017

>  <Genealogy>  (29) 
O=C(Cc1ccc(NC(=O)Cc2cccc([N-]C(=O)C3CCCN(C(=O)C4CCC4)C3)c2)cc1)[N-]c1cc([N-]S(=O)(=O)c2ccccc2)ccc1[O-] (protonated)
O=C(Cc1ccc(NC(=O)Cc2cccc([N-]C(=O)[C@H]3CCCN(C(=O)C4CCC4)C3)c2)cc1)[N-]c1cc([N-]S(=O)(=O)c2ccccc2)ccc1[O-] (chirality)
O=C(Cc1ccc(NC(=O)Cc2cccc([N-]C(=O)[C@H]3CCCN(C(=O)C4CCC4)C3)c2)cc1)[N-]c1cc([N-]S(=O)(=O)c2ccccc2)ccc1[O-] (3D coordinates assigned)
O=C(Cc1ccc(NC(=O)Cc2cccc([N-]C(=O)[C@H]3CCCN(C(=O)C4CCC4)C3)c2)cc1)[N-]c1cc([N-]S(=O)(=O)c2ccccc2)ccc1[O-] (nonaromatic ring conformer: 184.34493392156017 kcal/mol)

>  <smiles>  (29) 
O=C(Cc1cccc(NC(=O)C2CCCN(C(=O)C3CCC3)C2)c1)Nc1ccc(CC(=O)Nc2cc(NS(=O)(=O)c3ccccc3)ccc2O)cc1

>  <score_type>  (29) 
oracle

>  <origin>  (29) 
adg

>  <m_score__min__energy>  (29) 
-16.25

>  <m_primary>  (29) 
energy

$$$$
29:0
     RDKit          3D

 51 53  0  0  0  0  0  0  0  0999 V2000
   56.0810   23.9680   44.4760 C   0  0  0  0  0  0  0  0  0  0  0  0
   55.9470   25.1370   45.8080 S   0  0  0  0  0  0  0  0  0  0  0  0
   54.6890   25.9440   45.6570 O   0  0  0  0  0  0  0  0  0  0  0  0
   55.8990   24.3970   47.1160 O   0  0  0  0  0  0  0  0  0  0  0  0
   57.3340   26.2100   45.7880 C   0  0  0  0  0  0  0  0  0  0  0  0
   57.2990   27.5880   45.9340 C   0  0  0  0  0  0  0  0  0  0  0  0
   58.5760   28.1800   45.9000 C   0  0  0  0  0  0  0  0  0  0  0  0
   58.8090   29.6400   46.0330 C   0  0  0  0  0  0  0  0  0  0  0  0
   57.8570   30.5640   45.5640 C   0  0  0  0  0  0  0  0  0  0  0  0
   58.0760   31.9390   45.6970 C   0  0  0  0  0  0  0  0  0  0  0  0
   59.2480   32.4110   46.3000 C   0  0  0  0  0  0  0  0  0  0  0  0
   59.5030   34.1370   46.5390 S   0  0  0  0  0  0  0  0  0  0  0  0
   60.8550   34.5070   45.9980 O   0  0  0  0  0  0  0  0  0  0  0  0
   58.4610   34.9420   45.8150 O   0  0  0  0  0  0  0  0  0  0  0  0
   59.4470   34.4860   48.2360 N   0  0  0  0  0  0  0  0  0  0  0  0
   59.6560   33.4670   49.2270 C   0  0  0  0  0  0  0  0  0  0  0  0
   58.5810   32.6810   49.6800 C   0  0  0  0  0  0  0  0  0  0  0  0
   58.7850   31.6900   50.6390 C   0  0  0  0  0  0  0  0  0  0  0  0
   60.0590   31.4760   51.1640 C   0  0  0  0  0  0  0  0  0  0  0  0
   61.1360   32.2510   50.7270 C   0  0  0  0  0  0  0  0  0  0  0  0
   60.9460   33.2480   49.7490 C   0  0  0  0  0  0  0  0  0  0  0  0
   62.0090   34.0280   49.2600 O   0  0  0  0  0  0  0  0  0  0  0  0
   63.3880   33.8550   49.5890 C   0  0  0  0  0  0  0  0  0  0  0  0
   64.0630   32.8290   48.6660 C   0  0  0  0  0  0  0  0  0  0  0  0
   63.4380   32.7950   47.2700 C   0  0  0  0  0  0  0  0  0  0  0  0
   63.3390   34.0930   46.7510 O   0  0  0  0  0  0  0  0  0  0  0  0
   60.2000   31.4990   46.7670 C   0  0  0  0  0  0  0  0  0  0  0  0
   59.9850   30.1250   46.6350 C   0  0  0  0  0  0  0  0  0  0  0  0
   59.6030   27.2480   45.7320 C   0  0  0  0  0  0  0  0  0  0  0  0
   58.9260   25.7120   45.6240 S   0  0  0  0  0  0  0  0  0  0  0  0
   56.1972   22.9546   44.8878 H   0  0  0  0  0  0  0  0  0  0  0  0
   55.1721   24.0106   43.8579 H   0  0  0  0  0  0  0  0  0  0  0  0
   56.9567   24.2152   43.8579 H   0  0  0  0  0  0  0  0  0  0  0  0
   56.3686   28.1605   46.0632 H   0  0  0  0  0  0  0  0  0  0  0  0
   56.9332   30.2021   45.0890 H   0  0  0  0  0  0  0  0  0  0  0  0
   57.3248   32.6520   45.3265 H   0  0  0  0  0  0  0  0  0  0  0  0
   59.5010   35.4910   48.5140 H   0  0  0  0  0  0  0  0  0  0  0  0
   57.5724   32.8495   49.2747 H   0  0  0  0  0  0  0  0  0  0  0  0
   57.9395   31.0757   50.9822 H   0  0  0  0  0  0  0  0  0  0  0  0
   60.2162   30.6958   51.9233 H   0  0  0  0  0  0  0  0  0  0  0  0
   62.1379   32.0822   51.1485 H   0  0  0  0  0  0  0  0  0  0  0  0
   63.9037   34.8212   49.4869 H   0  0  0  0  0  0  0  0  0  0  0  0
   63.4522   33.4840   50.6225 H   0  0  0  0  0  0  0  0  0  0  0  0
   65.1276   33.0883   48.5694 H   0  0  0  0  0  0  0  0  0  0  0  0
   63.9277   31.8347   49.1166 H   0  0  0  0  0  0  0  0  0  0  0  0
   64.0673   32.1851   46.6052 H   0  0  0  0  0  0  0  0  0  0  0  0
   62.4305   32.3588   47.3389 H   0  0  0  0  0  0  0  0  0  0  0  0
   62.5970   34.5300   47.2440 H   0  0  0  0  0  0  0  0  0  0  0  0
   61.1227   31.8655   47.2406 H   0  0  0  0  0  0  0  0  0  0  0  0
   60.7409   29.4165   47.0046 H   0  0  0  0  0  0  0  0  0  0  0  0
   60.6769   27.4802   45.6791 H   0  0  0  0  0  0  0  0  0  0  0  0
  1  2  1  0
  2  3  2  0
  2  4  2  0
  2  5  1  0
  5  6  2  0
  6  7  1  0
  7  8  1  0
  8  9  2  0
  9 10  1  0
 10 11  2  0
 11 12  1  0
 12 13  2  0
 12 14  2  0
 12 15  1  0
 15 16  1  0
 16 17  2  0
 17 18  1  0
 18 19  2  0
 19 20  1  0
 20 21  2  0
 21 22  1  0
 22 23  1  0
 23 24  1  0
 24 25  1  0
 25 26  1  0
 11 27  1  0
 27 28  2  0
  7 29  2  0
 29 30  1  0
 30  5  1  0
 28  8  1  0
 21 16  1  0
  1 31  1  0
  1 32  1  0
  1 33  1  0
  6 34  1  0
  9 35  1  0
 10 36  1  0
 15 37  1  0
 17 38  1  0
 18 39  1  0
 19 40  1  0
 20 41  1  0
 23 42  1  0
 23 43  1  0
 24 44  1  0
 24 45  1  0
 25 46  1  0
 25 47  1  0
 26 48  1  0
 27 49  1  0
 28 50  1  0
 29 51  1  0
M  END
>  <UniqueID>  (30) 
30

>  <SMILES>  (30) 
CS(=O)(=O)c1cc(-c2ccc(S(=O)(=O)Nc3ccccc3OCCCO)cc2)cs1

>  <Energy>  (30) 
78.72313967375862

>  <Genealogy>  (30) 
CS(=O)(=O)c1cc(-c2ccc(S(=O)(=O)Nc3ccccc3OCCCO)cc2)cs1 (3D coordinates assigned)
CS(=O)(=O)c1cc(-c2ccc(S(=O)(=O)Nc3ccccc3OCCCO)cc2)cs1 (optimized conformer: 78.72313967375862 kcal/mol)

>  <smiles>  (30) 
CS(=O)(=O)c1cc(-c2ccc(S(=O)(=O)Nc3ccccc3OCCCO)cc2)cs1

>  <score_type>  (30) 
oracle

>  <origin>  (30) 
adg

>  <m_score__min__energy>  (30) 
-9.2599999999999998

>  <m_primary>  (30) 
energy

$$$$
30:0
     RDKit          3D

 54 57  0  0  0  0  0  0  0  0999 V2000
   58.1240   27.1120   43.1140 C   0  0  0  0  0  0  0  0  0  0  0  0
   59.3090   27.5860   43.7460 O   0  0  0  0  0  0  0  0  0  0  0  0
   59.3620   28.1070   45.0510 C   0  0  0  0  0  0  0  0  0  0  0  0
   59.7460   27.3110   46.1470 C   0  0  0  0  0  0  0  0  0  0  0  0
   59.7930   27.8480   47.4330 C   0  0  0  0  0  0  0  0  0  0  0  0
   59.4460   29.1870   47.6560 C   0  0  0  0  0  0  0  0  0  0  0  0
   59.4830   29.7530   49.0240 C   0  0  0  0  0  0  0  0  0  0  0  0
   58.4580   29.6810   49.7530 O   0  0  0  0  0  0  0  0  0  0  0  0
   60.6710   30.3560   49.5560 N   0  0  0  0  0  0  0  0  0  0  0  0
   61.3100   31.5310   49.0320 C   0  0  0  0  0  0  0  0  0  0  0  0
   62.2300   31.4380   47.9710 C   0  0  0  0  0  0  0  0  0  0  0  0
   62.8270   32.5890   47.4470 C   0  0  0  0  0  0  0  0  0  0  0  0
   62.5080   33.8430   47.9690 C   0  0  0  0  0  0  0  0  0  0  0  0
   61.5820   33.9510   49.0100 C   0  0  0  0  0  0  0  0  0  0  0  0
   60.9670   32.8020   49.5400 C   0  0  0  0  0  0  0  0  0  0  0  0
   60.0520   32.9300   50.6420 N   0  0  0  0  0  0  0  0  0  0  0  0
   58.6450   32.5580   50.4240 C   0  0  0  0  0  0  0  0  0  0  0  0
   57.7990   32.6910   51.7040 C   0  0  0  0  0  0  0  0  0  0  0  0
   58.1240   33.8790   52.3930 O   0  0  0  0  0  0  0  0  0  0  0  0
   59.4340   33.7540   52.9110 C   0  0  0  0  0  0  0  0  0  0  0  0
   60.4720   33.7570   51.7820 C   0  0  0  0  0  0  0  0  0  0  0  0
   59.0530   29.9830   46.5700 C   0  0  0  0  0  0  0  0  0  0  0  0
   59.0240   29.4610   45.2600 C   0  0  0  0  0  0  0  0  0  0  0  0
   58.6460   30.2810   44.1370 N   0  0  0  0  0  0  0  0  0  0  0  0
   57.5930   31.6580   44.2430 S   0  0  0  0  0  0  0  0  0  0  0  0
   57.3990   32.2480   42.8740 O   0  0  0  0  0  0  0  0  0  0  0  0
   56.2640   31.2100   44.7800 O   0  0  0  0  0  0  0  0  0  0  0  0
   58.2710   32.8570   45.3270 C   0  0  0  0  0  0  0  0  0  0  0  0
   59.2550   33.7800   44.9920 C   0  0  0  0  0  0  0  0  0  0  0  0
   59.6010   34.6100   46.0620 C   0  0  0  0  0  0  0  0  0  0  0  0
   58.8990   34.3420   47.2320 C   0  0  0  0  0  0  0  0  0  0  0  0
   57.8440   33.0730   46.9330 S   0  0  0  0  0  0  0  0  0  0  0  0
   57.3916   26.8190   43.8807 H   0  0  0  0  0  0  0  0  0  0  0  0
   57.6990   27.9093   42.4866 H   0  0  0  0  0  0  0  0  0  0  0  0
   58.3661   26.2415   42.4866 H   0  0  0  0  0  0  0  0  0  0  0  0
   60.0114   26.2555   45.9873 H   0  0  0  0  0  0  0  0  0  0  0  0
   60.1045   27.2163   48.2779 H   0  0  0  0  0  0  0  0  0  0  0  0
   62.4813   30.4529   47.5509 H   0  0  0  0  0  0  0  0  0  0  0  0
   63.5495   32.5055   46.6217 H   0  0  0  0  0  0  0  0  0  0  0  0
   62.9853   34.7463   47.5612 H   0  0  0  0  0  0  0  0  0  0  0  0
   61.3321   34.9415   49.4180 H   0  0  0  0  0  0  0  0  0  0  0  0
   58.2213   33.2152   49.6503 H   0  0  0  0  0  0  0  0  0  0  0  0
   58.6206   31.5031   50.1132 H   0  0  0  0  0  0  0  0  0  0  0  0
   56.7332   32.7106   51.4325 H   0  0  0  0  0  0  0  0  0  0  0  0
   58.0092   31.8325   52.3588 H   0  0  0  0  0  0  0  0  0  0  0  0
   59.6356   34.5975   53.5877 H   0  0  0  0  0  0  0  0  0  0  0  0
   59.5077   32.7999   53.4534 H   0  0  0  0  0  0  0  0  0  0  0  0
   60.6164   34.7911   51.4358 H   0  0  0  0  0  0  0  0  0  0  0  0
   61.4065   33.3350   52.1802 H   0  0  0  0  0  0  0  0  0  0  0  0
   58.7631   31.0300   46.7426 H   0  0  0  0  0  0  0  0  0  0  0  0
   59.0640   30.0910   43.1960 H   0  0  0  0  0  0  0  0  0  0  0  0
   59.7116   33.8496   43.9936 H   0  0  0  0  0  0  0  0  0  0  0  0
   60.3595   35.4030   45.9855 H   0  0  0  0  0  0  0  0  0  0  0  0
   59.0156   34.8713   48.1892 H   0  0  0  0  0  0  0  0  0  0  0  0
  1  2  1  0
  2  3  1  0
  3  4  2  0
  4  5  1  0
  5  6  2  0
  6  7  1  0
  7  8  2  0
  7  9  1  0
  9 10  1  0
 10 11  2  0
 11 12  1  0
 12 13  2  0
 13 14  1  0
 14 15  2  0
 15 16  1  0
 16 17  1  0
 17 18  1  0
 18 19  1  0
 19 20  1  0
 20 21  1  0
  6 22  1  0
 22 23  2  0
 23 24  1  0
 24 25  1  0
 25 26  2  0
 25 27  2  0
 25 28  1  0
 28 29  2  0
 29 30  1  0
 30 31  2  0
 31 32  1  0
 23  3  1  0
 32 28  1  0
 15 10  1  0
 21 16  1  0
  1 33  1  0
  1 34  1  0
  1 35  1  0
  4 36  1  0
  5 37  1  0
 11 38  1  0
 12 39  1  0
 13 40  1  0
 14 41  1  0
 17 42  1  0
 17 43  1  0
 18 44  1  0
 18 45  1  0
 20 46  1  0
 20 47  1  0
 21 48  1  0
 21 49  1  0
 22 50  1  0
 24 51  1  0
 29 52  1  0
 30 53  1  0
 31 54  1  0
M  CHG  1   9  -1
M  END
>  <UniqueID>  (31) 
31

>  <SMILES>  (31) 
COc1ccc(C(=O)[N-]c2ccccc2N2CCOCC2)cc1NS(=O)(=O)c1cccs1

>  <Energy>  (31) 
101.26495535768889

>  <Genealogy>  (31) 
COc1ccc(C(=O)[N-]c2ccccc2N2CCOCC2)cc1NS(=O)(=O)c1cccs1 (protonated)
COc1ccc(C(=O)[N-]c2ccccc2N2CCOCC2)cc1NS(=O)(=O)c1cccs1 (3D coordinates assigned)
COc1ccc(C(=O)[N-]c2ccccc2N2CCOCC2)cc1NS(=O)(=O)c1cccs1 (nonaromatic ring conformer: 101.26495535768889 kcal/mol)

>  <smiles>  (31) 
COc1ccc(C(=O)Nc2ccccc2N2CCOCC2)cc1NS(=O)(=O)c1cccs1

>  <score_type>  (31) 
oracle

>  <origin>  (31) 
adg

>  <m_score__min__energy>  (31) 
-11.84

>  <m_primary>  (31) 
energy

$$$$
31:0
     RDKit          3D

 34 36  0  0  0  0  0  0  0  0999 V2000
   64.5220   32.3720   46.6090 H   0  0  0  0  0  0  0  0  0  0  0  0
   63.6960   31.8790   47.0170 N   0  0  0  0  0  0  0  0  0  0  0  0
   62.6200   33.0970   47.6030 S   0  0  0  0  0  0  0  0  0  0  0  0
   63.3850   34.0440   48.4850 O   0  0  0  0  0  0  0  0  0  0  0  0
   62.0590   33.8710   46.4440 O   0  0  0  0  0  0  0  0  0  0  0  0
   61.3040   32.3460   48.5140 C   0  0  0  0  0  0  0  0  0  0  0  0
   61.5970   31.6430   49.6940 C   0  0  0  0  0  0  0  0  0  0  0  0
   62.6401   31.5526   50.0313 H   0  0  0  0  0  0  0  0  0  0  0  0
   60.5730   31.0580   50.4420 C   0  0  0  0  0  0  0  0  0  0  0  0
   60.8120   30.5007   51.3598 H   0  0  0  0  0  0  0  0  0  0  0  0
   59.2480   31.1800   50.0260 C   0  0  0  0  0  0  0  0  0  0  0  0
   58.4412   30.7324   50.6250 H   0  0  0  0  0  0  0  0  0  0  0  0
   58.9430   31.8690   48.8510 C   0  0  0  0  0  0  0  0  0  0  0  0
   57.8938   31.9807   48.5400 H   0  0  0  0  0  0  0  0  0  0  0  0
   59.9690   32.4220   48.0610 C   0  0  0  0  0  0  0  0  0  0  0  0
   59.6710   33.1280   46.8410 N   0  0  0  0  0  0  0  0  0  0  0  0
   59.4070   32.6200   45.6690 C   0  0  0  0  0  0  0  0  0  0  0  0
   60.0043   32.9632   44.8114 H   0  0  0  0  0  0  0  0  0  0  0  0
   58.3500   31.6070   45.4210 C   0  0  0  0  0  0  0  0  0  0  0  0
   57.0830   32.0440   44.9950 C   0  0  0  0  0  0  0  0  0  0  0  0
   56.8620   33.2670   44.7910 O   0  0  0  0  0  0  0  0  0  0  0  0
   56.0740   31.1530   44.8190 N   0  0  0  0  0  0  0  0  0  0  0  0
   56.2330   29.8230   45.0310 C   0  0  0  0  0  0  0  0  0  0  0  0
   55.1470   28.9750   44.8420 O   0  0  0  0  0  0  0  0  0  0  0  0
   57.4820   29.3180   45.4250 C   0  0  0  0  0  0  0  0  0  0  0  0
   57.6740   27.9410   45.6340 C   0  0  0  0  0  0  0  0  0  0  0  0
   56.8296   27.2463   45.5137 H   0  0  0  0  0  0  0  0  0  0  0  0
   58.9330   27.4500   45.9940 C   0  0  0  0  0  0  0  0  0  0  0  0
   59.1830   25.5770   46.2750 Br  0  0  0  0  0  0  0  0  0  0  0  0
   60.0100   28.3250   46.1320 C   0  0  0  0  0  0  0  0  0  0  0  0
   61.0022   27.9343   46.4020 H   0  0  0  0  0  0  0  0  0  0  0  0
   59.8340   29.6940   45.9290 C   0  0  0  0  0  0  0  0  0  0  0  0
   60.6941   30.3729   46.0253 H   0  0  0  0  0  0  0  0  0  0  0  0
   58.5670   30.2170   45.6020 C   0  0  0  0  0  0  0  0  0  0  0  0
  1  2  1  0
  2  3  1  0
  3  4  2  0
  3  5  2  0
  3  6  1  0
  6  7  2  0
  7  8  1  0
  7  9  1  0
  9 10  1  0
  9 11  2  0
 11 12  1  0
 11 13  1  0
 13 14  1  0
 13 15  2  0
 15 16  1  0
 16 17  2  0
 17 18  1  0
 17 19  1  0
 19 20  1  0
 20 21  2  0
 20 22  1  0
 22 23  1  0
 23 24  1  0
 23 25  2  0
 25 26  1  0
 26 27  1  0
 26 28  2  0
 28 29  1  0
 28 30  1  0
 30 31  1  0
 30 32  2  0
 32 33  1  0
 32 34  1  0
 15  6  1  0
 34 19  2  0
 34 25  1  0
M  CHG  3   2  -1  22  -1  24  -1
M  END
>  <UniqueID>  (32) 
32

>  <SMILES>  (32) 
[NH-]S(=O)(=O)c1ccccc1/N=C\c1c(=O)[n-]c([O-])c2cc(Br)ccc12

>  <Energy>  (32) 
56.41770075002391

>  <Genealogy>  (32) 
[NH-]S(=O)(=O)c1ccccc1N=Cc1c(=O)[n-]c([O-])c2cc(Br)ccc12 (protonated)
[NH-]S(=O)(=O)c1ccccc1/N=C\c1c(=O)[n-]c([O-])c2cc(Br)ccc12 (cis-trans isomerization)
[NH-]S(=O)(=O)c1ccccc1/N=C\c1c(=O)[n-]c([O-])c2cc(Br)ccc12 (3D coordinates assigned)
[NH-]S(=O)(=O)c1ccccc1/N=C\c1c(=O)[n-]c([O-])c2cc(Br)ccc12 (optimized conformer: 56.41770075002391 kcal/mol)

>  <smiles>  (32) 
NS(=O)(=O)c1ccccc1N=Cc1c(=O)[nH]c(O)c2cc(Br)ccc12

>  <score_type>  (32) 
oracle

>  <origin>  (32) 
adg

>  <m_score__min__energy>  (32) 
-13.75

>  <m_primary>  (32) 
energy

$$$$
32:0
     RDKit          3D

 27 29  0  0  0  0  0  0  0  0999 V2000
   60.4632   26.4788   45.8501 H   0  0  0  0  0  0  0  0  0  0  0  0
   59.5950   27.1200   45.6380 C   0  0  0  0  0  0  0  0  0  0  0  0
   59.7780   28.3590   45.0240 C   0  0  0  0  0  0  0  0  0  0  0  0
   60.7891   28.6891   44.7434 H   0  0  0  0  0  0  0  0  0  0  0  0
   58.6790   29.1810   44.7650 C   0  0  0  0  0  0  0  0  0  0  0  0
   58.8294   30.1616   44.2899 H   0  0  0  0  0  0  0  0  0  0  0  0
   57.3780   28.7610   45.1090 C   0  0  0  0  0  0  0  0  0  0  0  0
   56.2510   29.5640   44.8740 O   0  0  0  0  0  0  0  0  0  0  0  0
   55.9060   30.1190   43.6090 C   0  0  0  0  0  0  0  0  0  0  0  0
   55.3307   31.0445   43.7592 H   0  0  0  0  0  0  0  0  0  0  0  0
   56.8232   30.3448   43.0452 H   0  0  0  0  0  0  0  0  0  0  0  0
   55.2976   29.3965   43.0452 H   0  0  0  0  0  0  0  0  0  0  0  0
   57.1930   27.4980   45.6990 C   0  0  0  0  0  0  0  0  0  0  0  0
   55.8620   27.0990   46.0770 N   0  0  0  0  0  0  0  0  0  0  0  0
   55.3520   25.9050   45.9890 C   0  0  0  0  0  0  0  0  0  0  0  0
   56.1320   24.8260   46.3180 N   0  0  0  0  0  0  0  0  0  0  0  0
   55.6240   23.5630   46.2630 C   0  0  0  0  0  0  0  0  0  0  0  0
   56.3380   22.5690   46.5600 O   0  0  0  0  0  0  0  0  0  0  0  0
   54.3370   23.4110   45.8810 N   0  0  0  0  0  0  0  0  0  0  0  0
   53.6220   22.3080   45.7540 N   0  0  0  0  0  0  0  0  0  0  0  0
   52.3910   22.6310   45.3590 N   0  0  0  0  0  0  0  0  0  0  0  0
   52.3320   23.9820   45.2350 C   0  0  0  0  0  0  0  0  0  0  0  0
   51.4615   24.5795   44.9263 H   0  0  0  0  0  0  0  0  0  0  0  0
   53.5760   24.4520   45.5720 C   0  0  0  0  0  0  0  0  0  0  0  0
   54.0460   25.7190   45.6170 N   0  0  0  0  0  0  0  0  0  0  0  0
   58.3110   26.6920   45.9840 C   0  0  0  0  0  0  0  0  0  0  0  0
   58.1731   25.7206   46.4814 H   0  0  0  0  0  0  0  0  0  0  0  0
  1  2  1  0
  2  3  2  0
  3  4  1  0
  3  5  1  0
  5  6  1  0
  5  7  2  0
  7  8  1  0
  8  9  1  0
  9 10  1  0
  9 11  1  0
  9 12  1  0
  7 13  1  0
 13 14  1  0
 14 15  2  0
 15 16  1  0
 16 17  1  0
 17 18  2  0
 17 19  1  0
 19 20  1  0
 20 21  2  0
 21 22  1  0
 22 23  1  0
 22 24  2  0
 24 25  1  0
 13 26  2  0
 26 27  1  0
 26  2  1  0
 25 15  1  0
 24 19  1  0
M  CHG  2  16  -1  25  -1
M  END
>  <UniqueID>  (33) 
33

>  <SMILES>  (33) 
COc1ccccc1/N=c1/[n-]c(=O)n2nncc2[n-]1

>  <Energy>  (33) 
80.79897502813184

>  <Genealogy>  (33) 
COc1ccccc1N=c1[n-]c(=O)n2nncc2[n-]1 (protonated)
COc1ccccc1/N=c1/[n-]c(=O)n2nncc2[n-]1 (cis-trans isomerization)
COc1ccccc1/N=c1/[n-]c(=O)n2nncc2[n-]1 (3D coordinates assigned)
COc1ccccc1/N=c1/[n-]c(=O)n2nncc2[n-]1 (optimized conformer: 80.79897502813184 kcal/mol)

>  <smiles>  (33) 
COc1ccccc1N=c1[nH]c(=O)n2nncc2[nH]1

>  <score_type>  (33) 
oracle

>  <origin>  (33) 
adg

>  <m_score__min__energy>  (33) 
-10.300000000000001

>  <m_primary>  (33) 
energy

$$$$
33:0
     RDKit          3D

 26 27  0  0  0  0  0  0  0  0999 V2000
   52.8660   23.0660   44.8080 N   0  0  0  0  0  0  0  0  0  0  0  0
   53.7770   24.1190   45.1100 C   0  0  0  0  0  0  0  0  0  0  0  0
   53.3410   25.1870   45.6190 O   0  0  0  0  0  0  0  0  0  0  0  0
   55.2190   23.9570   44.8310 C   0  0  0  0  0  0  0  0  0  0  0  0
   55.7280   22.9540   43.9880 C   0  0  0  0  0  0  0  0  0  0  0  0
   57.1110   22.9750   43.8580 C   0  0  0  0  0  0  0  0  0  0  0  0
   57.7170   24.2390   44.7850 S   0  0  0  0  0  0  0  0  0  0  0  0
   56.2250   24.7540   45.3740 C   0  0  0  0  0  0  0  0  0  0  0  0
   56.0140   25.8880   46.2220 N   0  0  0  0  0  0  0  0  0  0  0  0
   56.5740   27.1890   46.0080 C   0  0  0  0  0  0  0  0  0  0  0  0
   57.7010   27.4570   46.4970 O   0  0  0  0  0  0  0  0  0  0  0  0
   55.8880   28.1940   45.2490 N   0  0  0  0  0  0  0  0  0  0  0  0
   56.4830   29.3690   44.6790 C   0  0  0  0  0  0  0  0  0  0  0  0
   56.2660   29.7310   43.3370 C   0  0  0  0  0  0  0  0  0  0  0  0
   56.8600   30.8840   42.8160 C   0  0  0  0  0  0  0  0  0  0  0  0
   57.6850   31.6730   43.6220 C   0  0  0  0  0  0  0  0  0  0  0  0
   57.9250   31.3050   44.9490 C   0  0  0  0  0  0  0  0  0  0  0  0
   59.0600   32.3790   46.0470 Br  0  0  0  0  0  0  0  0  0  0  0  0
   57.3310   30.1510   45.4720 C   0  0  0  0  0  0  0  0  0  0  0  0
   52.7350   22.2650   45.4640 H   0  0  0  0  0  0  0  0  0  0  0  0
   55.0889   22.2187   43.4772 H   0  0  0  0  0  0  0  0  0  0  0  0
   57.7093   22.2805   43.2500 H   0  0  0  0  0  0  0  0  0  0  0  0
   55.6274   29.1052   42.6962 H   0  0  0  0  0  0  0  0  0  0  0  0
   56.6778   31.1708   41.7698 H   0  0  0  0  0  0  0  0  0  0  0  0
   58.1457   32.5839   43.2121 H   0  0  0  0  0  0  0  0  0  0  0  0
   57.5317   29.8565   46.5127 H   0  0  0  0  0  0  0  0  0  0  0  0
  1  2  1  0
  2  3  2  0
  2  4  1  0
  4  5  1  0
  5  6  2  0
  6  7  1  0
  7  8  1  0
  8  9  1  0
  9 10  1  0
 10 11  2  0
 10 12  1  0
 12 13  1  0
 13 14  2  0
 14 15  1  0
 15 16  2  0
 16 17  1  0
 17 18  1  0
 17 19  2  0
  8  4  2  0
 19 13  1  0
  1 20  1  0
  5 21  1  0
  6 22  1  0
 14 23  1  0
 15 24  1  0
 16 25  1  0
 19 26  1  0
M  CHG  3   1  -1   9  -1  12  -1
M  END
>  <UniqueID>  (34) 
34

>  <SMILES>  (34) 
[NH-]C(=O)c1ccsc1[N-]C(=O)[N-]c1cccc(Br)c1

>  <Energy>  (34) 
59.09463344211708

>  <Genealogy>  (34) 
[NH-]C(=O)c1ccsc1[N-]C(=O)[N-]c1cccc(Br)c1 (protonated)
[NH-]C(=O)c1ccsc1[N-]C(=O)[N-]c1cccc(Br)c1 (3D coordinates assigned)
[NH-]C(=O)c1ccsc1[N-]C(=O)[N-]c1cccc(Br)c1 (optimized conformer: 59.09463344211708 kcal/mol)

>  <smiles>  (34) 
NC(=O)c1ccsc1NC(=O)Nc1cccc(Br)c1

>  <score_type>  (34) 
oracle

>  <origin>  (34) 
adg

>  <m_score__min__energy>  (34) 
-13.81

>  <m_primary>  (34) 
energy

$$$$
34:0
     RDKit          3D

 39 41  0  0  0  0  0  0  0  0999 V2000
   58.7870   25.0800   45.9850 C   0  0  0  0  0  0  0  0  0  0  0  0
   57.3940   25.5010   46.0800 N   0  0  0  0  0  0  0  0  0  0  0  0
   56.3540   24.6950   45.9610 N   0  0  0  0  0  0  0  0  0  0  0  0
   55.2480   25.4260   45.9710 N   0  0  0  0  0  0  0  0  0  0  0  0
   55.5540   26.7140   46.0800 N   0  0  0  0  0  0  0  0  0  0  0  0
   56.8970   26.7480   46.1430 C   0  0  0  0  0  0  0  0  0  0  0  0
   57.8670   28.2560   46.2530 S   0  0  0  0  0  0  0  0  0  0  0  0
   57.4640   28.8300   44.5660 C   0  0  0  0  0  0  0  0  0  0  0  0
   56.3010   29.7820   44.5910 C   0  0  0  0  0  0  0  0  0  0  0  0
   55.1540   29.3460   44.8760 O   0  0  0  0  0  0  0  0  0  0  0  0
   56.4780   31.1940   44.4080 N   0  0  0  0  0  0  0  0  0  0  0  0
   57.3680   32.0310   45.1580 C   0  0  0  0  0  0  0  0  0  0  0  0
   57.5010   33.3760   44.7960 C   0  0  0  0  0  0  0  0  0  0  0  0
   58.4030   34.2060   45.4680 C   0  0  0  0  0  0  0  0  0  0  0  0
   59.2030   33.6910   46.5030 C   0  0  0  0  0  0  0  0  0  0  0  0
   60.1240   34.5300   47.2200 N   0  0  0  0  0  0  0  0  0  0  0  0
   61.4200   34.1020   47.6750 C   0  0  0  0  0  0  0  0  0  0  0  0
   61.7890   34.2060   49.0300 C   0  0  0  0  0  0  0  0  0  0  0  0
   63.0680   33.8240   49.4440 C   0  0  0  0  0  0  0  0  0  0  0  0
   63.9930   33.3490   48.5100 C   0  0  0  0  0  0  0  0  0  0  0  0
   63.6430   33.2650   47.1600 C   0  0  0  0  0  0  0  0  0  0  0  0
   62.3640   33.6470   46.7420 C   0  0  0  0  0  0  0  0  0  0  0  0
   59.0700   32.3440   46.8660 C   0  0  0  0  0  0  0  0  0  0  0  0
   58.1690   31.5140   46.1910 C   0  0  0  0  0  0  0  0  0  0  0  0
   59.2019   24.9546   46.9960 H   0  0  0  0  0  0  0  0  0  0  0  0
   58.8451   24.1242   45.4437 H   0  0  0  0  0  0  0  0  0  0  0  0
   59.3647   25.8437   45.4437 H   0  0  0  0  0  0  0  0  0  0  0  0
   58.3398   29.3413   44.1400 H   0  0  0  0  0  0  0  0  0  0  0  0
   57.1938   27.9585   43.9516 H   0  0  0  0  0  0  0  0  0  0  0  0
   56.8910   33.7834   43.9763 H   0  0  0  0  0  0  0  0  0  0  0  0
   58.4871   35.2659   45.1860 H   0  0  0  0  0  0  0  0  0  0  0  0
   59.8230   35.5050   47.4460 H   0  0  0  0  0  0  0  0  0  0  0  0
   61.0672   34.5897   49.7660 H   0  0  0  0  0  0  0  0  0  0  0  0
   63.3469   33.8972   50.5055 H   0  0  0  0  0  0  0  0  0  0  0  0
   64.9969   33.0412   48.8379 H   0  0  0  0  0  0  0  0  0  0  0  0
   64.3743   32.8979   46.4248 H   0  0  0  0  0  0  0  0  0  0  0  0
   62.0969   33.5904   45.6764 H   0  0  0  0  0  0  0  0  0  0  0  0
   59.6782   31.9368   47.6872 H   0  0  0  0  0  0  0  0  0  0  0  0
   58.0869   30.4530   46.4695 H   0  0  0  0  0  0  0  0  0  0  0  0
  1  2  1  0
  2  3  1  0
  3  4  2  0
  4  5  1  0
  5  6  2  0
  6  7  1  0
  7  8  1  0
  8  9  1  0
  9 10  2  0
  9 11  1  0
 11 12  1  0
 12 13  2  0
 13 14  1  0
 14 15  2  0
 15 16  1  0
 16 17  1  0
 17 18  2  0
 18 19  1  0
 19 20  2  0
 20 21  1  0
 21 22  2  0
 15 23  1  0
 23 24  2  0
  6  2  1  0
 24 12  1  0
 22 17  1  0
  1 25  1  0
  1 26  1  0
  1 27  1  0
  8 28  1  0
  8 29  1  0
 13 30  1  0
 14 31  1  0
 16 32  1  0
 18 33  1  0
 19 34  1  0
 20 35  1  0
 21 36  1  0
 22 37  1  0
 23 38  1  0
 24 39  1  0
M  CHG  1  11  -1
M  END
>  <UniqueID>  (35) 
35

>  <SMILES>  (35) 
Cn1nnnc1SCC(=O)[N-]c1ccc(Nc2ccccc2)cc1

>  <Energy>  (35) 
88.05346463152848

>  <Genealogy>  (35) 
Cn1nnnc1SCC(=O)[N-]c1ccc(Nc2ccccc2)cc1 (protonated)
Cn1nnnc1SCC(=O)[N-]c1ccc(Nc2ccccc2)cc1 (3D coordinates assigned)
Cn1nnnc1SCC(=O)[N-]c1ccc(Nc2ccccc2)cc1 (optimized conformer: 88.05346463152848 kcal/mol)

>  <smiles>  (35) 
Cn1nnnc1SCC(=O)Nc1ccc(Nc2ccccc2)cc1

>  <score_type>  (35) 
oracle

>  <origin>  (35) 
adg

>  <m_score__min__energy>  (35) 
-10.890000000000001

>  <m_primary>  (35) 
energy

$$$$
35:0
     RDKit          3D

 32 33  0  0  0  0  0  0  0  0999 V2000
   54.7860   26.3340   45.8030 N   0  0  0  0  0  0  0  0  0  0  0  0
   56.1370   26.3870   46.2590 C   0  0  0  0  0  0  0  0  0  0  0  0
   56.5440   25.5040   47.0610 O   0  0  0  0  0  0  0  0  0  0  0  0
   57.0710   27.4270   45.7660 C   0  0  0  0  0  0  0  0  0  0  0  0
   56.5430   28.6620   45.3440 C   0  0  0  0  0  0  0  0  0  0  0  0
   57.3800   29.6980   44.9190 C   0  0  0  0  0  0  0  0  0  0  0  0
   56.7950   30.9410   44.5110 N   0  0  0  0  0  0  0  0  0  0  0  0
   57.4330   31.9720   43.7440 C   0  0  0  0  0  0  0  0  0  0  0  0
   57.7120   31.7430   42.5380 O   0  0  0  0  0  0  0  0  0  0  0  0
   57.6600   33.3550   44.2890 C   0  0  0  0  0  0  0  0  0  0  0  0
   57.4060   33.3870   46.0960 S   0  0  0  0  0  0  0  0  0  0  0  0
   59.1510   33.2680   46.5050 C   0  0  0  0  0  0  0  0  0  0  0  0
   60.0280   34.2980   46.1430 C   0  0  0  0  0  0  0  0  0  0  0  0
   61.3900   34.2000   46.4460 C   0  0  0  0  0  0  0  0  0  0  0  0
   61.8790   33.0720   47.1160 C   0  0  0  0  0  0  0  0  0  0  0  0
   63.5860   32.9490   47.4950 Cl  0  0  0  0  0  0  0  0  0  0  0  0
   61.0040   32.0430   47.4810 C   0  0  0  0  0  0  0  0  0  0  0  0
   59.6440   32.1360   47.1680 C   0  0  0  0  0  0  0  0  0  0  0  0
   58.7600   29.4790   44.8350 C   0  0  0  0  0  0  0  0  0  0  0  0
   59.3000   28.2550   45.2300 C   0  0  0  0  0  0  0  0  0  0  0  0
   58.4730   27.2300   45.7010 C   0  0  0  0  0  0  0  0  0  0  0  0
   59.2410   25.6980   46.1110 Cl  0  0  0  0  0  0  0  0  0  0  0  0
   54.0100   26.7360   46.3740 H   0  0  0  0  0  0  0  0  0  0  0  0
   55.4536   28.8143   45.3488 H   0  0  0  0  0  0  0  0  0  0  0  0
   58.6905   33.6671   44.0638 H   0  0  0  0  0  0  0  0  0  0  0  0
   56.9413   34.0424   43.8189 H   0  0  0  0  0  0  0  0  0  0  0  0
   59.6449   35.1862   45.6192 H   0  0  0  0  0  0  0  0  0  0  0  0
   62.0771   35.0093   46.1579 H   0  0  0  0  0  0  0  0  0  0  0  0
   61.3860   31.1602   48.0145 H   0  0  0  0  0  0  0  0  0  0  0  0
   58.9602   31.3193   47.4427 H   0  0  0  0  0  0  0  0  0  0  0  0
   59.4199   30.2737   44.4568 H   0  0  0  0  0  0  0  0  0  0  0  0
   60.3866   28.0943   45.1705 H   0  0  0  0  0  0  0  0  0  0  0  0
  1  2  1  0
  2  3  2  0
  2  4  1  0
  4  5  2  0
  5  6  1  0
  6  7  1  0
  7  8  1  0
  8  9  2  0
  8 10  1  0
 10 11  1  0
 11 12  1  0
 12 13  2  0
 13 14  1  0
 14 15  2  0
 15 16  1  0
 15 17  1  0
 17 18  2  0
  6 19  2  0
 19 20  1  0
 20 21  2  0
 21 22  1  0
 21  4  1  0
 18 12  1  0
  1 23  1  0
  5 24  1  0
 10 25  1  0
 10 26  1  0
 13 27  1  0
 14 28  1  0
 17 29  1  0
 18 30  1  0
 19 31  1  0
 20 32  1  0
M  CHG  2   1  -1   7  -1
M  END
>  <UniqueID>  (36) 
36

>  <SMILES>  (36) 
[NH-]C(=O)c1cc([N-]C(=O)CSc2ccc(Cl)cc2)ccc1Cl

>  <Energy>  (36) 
33.92842999320906

>  <Genealogy>  (36) 
[NH-]C(=O)c1cc([N-]C(=O)CSc2ccc(Cl)cc2)ccc1Cl (protonated)
[NH-]C(=O)c1cc([N-]C(=O)CSc2ccc(Cl)cc2)ccc1Cl (3D coordinates assigned)
[NH-]C(=O)c1cc([N-]C(=O)CSc2ccc(Cl)cc2)ccc1Cl (optimized conformer: 33.92842999320906 kcal/mol)

>  <smiles>  (36) 
NC(=O)c1cc(NC(=O)CSc2ccc(Cl)cc2)ccc1Cl

>  <score_type>  (36) 
oracle

>  <origin>  (36) 
adg

>  <m_score__min__energy>  (36) 
-12.94

>  <m_primary>  (36) 
energy

$$$$
36:0
     RDKit          3D

 49 51  0  0  0  0  0  0  0  0999 V2000
   64.6440   32.7370   49.3510 C   0  0  0  0  0  0  0  0  0  0  0  0
   63.4350   33.1960   48.5930 C   0  0  0  0  0  0  0  0  0  0  0  0
   63.5010   33.3850   47.2020 C   0  0  0  0  0  0  0  0  0  0  0  0
   62.3840   33.8490   46.5010 C   0  0  0  0  0  0  0  0  0  0  0  0
   61.1990   34.1490   47.1850 C   0  0  0  0  0  0  0  0  0  0  0  0
   59.7700   34.7520   46.2800 S   0  0  0  0  0  0  0  0  0  0  0  0
   58.5670   33.6590   47.1190 C   0  0  0  0  0  0  0  0  0  0  0  0
   57.6470   32.9790   46.1390 C   0  0  0  0  0  0  0  0  0  0  0  0
   56.6470   33.6220   45.7190 O   0  0  0  0  0  0  0  0  0  0  0  0
   57.8870   31.6400   45.6500 N   0  0  0  0  0  0  0  0  0  0  0  0
   57.2340   31.2250   44.3990 C   0  0  0  0  0  0  0  0  0  0  0  0
   57.8700   29.9590   43.8170 C   0  0  0  0  0  0  0  0  0  0  0  0
   57.9770   28.9180   44.8450 N   0  0  0  0  0  0  0  0  0  0  0  0
   57.9360   27.5290   44.4570 C   0  0  0  0  0  0  0  0  0  0  0  0
   58.1890   27.2060   43.2640 O   0  0  0  0  0  0  0  0  0  0  0  0
   57.5820   26.4710   45.4280 C   0  0  0  0  0  0  0  0  0  0  0  0
   56.2750   25.9630   45.4430 C   0  0  0  0  0  0  0  0  0  0  0  0
   55.9140   24.9510   46.3360 C   0  0  0  0  0  0  0  0  0  0  0  0
   56.8570   24.4220   47.2320 C   0  0  0  0  0  0  0  0  0  0  0  0
   56.4810   23.3810   48.1520 N   0  0  0  0  0  0  0  0  0  0  0  0
   55.3290   23.3400   48.6320 O   0  0  0  0  0  0  0  0  0  0  0  0
   57.3860   22.4120   48.5190 O   0  0  0  0  0  0  0  0  0  0  0  0
   58.1690   24.9270   47.2150 C   0  0  0  0  0  0  0  0  0  0  0  0
   58.5360   25.9410   46.3210 C   0  0  0  0  0  0  0  0  0  0  0  0
   60.1850   26.5540   46.3890 Cl  0  0  0  0  0  0  0  0  0  0  0  0
   58.3400   29.2810   46.2240 C   0  0  0  0  0  0  0  0  0  0  0  0
   58.8290   30.7290   46.3210 C   0  0  0  0  0  0  0  0  0  0  0  0
   61.1310   33.9690   48.5710 C   0  0  0  0  0  0  0  0  0  0  0  0
   62.2470   33.5040   49.2740 C   0  0  0  0  0  0  0  0  0  0  0  0
   64.4494   32.8109   50.4311 H   0  0  0  0  0  0  0  0  0  0  0  0
   64.8661   31.6920   49.0891 H   0  0  0  0  0  0  0  0  0  0  0  0
   65.5037   33.3713   49.0891 H   0  0  0  0  0  0  0  0  0  0  0  0
   64.4348   33.1671   46.6629 H   0  0  0  0  0  0  0  0  0  0  0  0
   62.4358   33.9788   45.4099 H   0  0  0  0  0  0  0  0  0  0  0  0
   59.1171   32.8908   47.6822 H   0  0  0  0  0  0  0  0  0  0  0  0
   57.9531   34.2787   47.7892 H   0  0  0  0  0  0  0  0  0  0  0  0
   56.1707   31.0286   44.6008 H   0  0  0  0  0  0  0  0  0  0  0  0
   57.3546   32.0359   43.6656 H   0  0  0  0  0  0  0  0  0  0  0  0
   57.2467   29.5882   42.9900 H   0  0  0  0  0  0  0  0  0  0  0  0
   58.8785   30.2033   43.4521 H   0  0  0  0  0  0  0  0  0  0  0  0
   55.5264   26.3654   44.7446 H   0  0  0  0  0  0  0  0  0  0  0  0
   54.8836   24.5658   46.3372 H   0  0  0  0  0  0  0  0  0  0  0  0
   58.9165   24.5208   47.9123 H   0  0  0  0  0  0  0  0  0  0  0  0
   57.4568   29.1595   46.8684 H   0  0  0  0  0  0  0  0  0  0  0  0
   59.1588   28.6213   46.5469 H   0  0  0  0  0  0  0  0  0  0  0  0
   58.9129   31.0120   47.3806 H   0  0  0  0  0  0  0  0  0  0  0  0
   59.8092   30.8061   45.8278 H   0  0  0  0  0  0  0  0  0  0  0  0
   60.1980   34.1937   49.1086 H   0  0  0  0  0  0  0  0  0  0  0  0
   62.1935   33.3791   50.3656 H   0  0  0  0  0  0  0  0  0  0  0  0
  1  2  1  0
  2  3  2  0
  3  4  1  0
  4  5  2  0
  5  6  1  0
  6  7  1  0
  7  8  1  0
  8  9  2  0
  8 10  1  0
 10 11  1  0
 11 12  1  0
 12 13  1  0
 13 14  1  0
 14 15  2  0
 14 16  1  0
 16 17  2  0
 17 18  1  0
 18 19  2  0
 19 20  1  0
 20 21  2  0
 20 22  1  0
 19 23  1  0
 23 24  2  0
 24 25  1  0
 13 26  1  0
 26 27  1  0
  5 28  1  0
 28 29  2  0
 29  2  1  0
 27 10  1  0
 24 16  1  0
  1 30  1  0
  1 31  1  0
  1 32  1  0
  3 33  1  0
  4 34  1  0
  7 35  1  0
  7 36  1  0
 11 37  1  0
 11 38  1  0
 12 39  1  0
 12 40  1  0
 17 41  1  0
 18 42  1  0
 23 43  1  0
 26 44  1  0
 26 45  1  0
 27 46  1  0
 27 47  1  0
 28 48  1  0
 29 49  1  0
M  CHG  2  20   1  22  -1
M  END
>  <UniqueID>  (37) 
37

>  <SMILES>  (37) 
Cc1ccc(SCC(=O)N2CCN(C(=O)c3ccc([N+](=O)[O-])cc3Cl)CC2)cc1

>  <Energy>  (37) 
53.042623650795875

>  <Genealogy>  (37) 
Cc1ccc(SCC(=O)N2CCN(C(=O)c3ccc([N+](=O)[O-])cc3Cl)CC2)cc1 (3D coordinates assigned)
Cc1ccc(SCC(=O)N2CCN(C(=O)c3ccc([N+](=O)[O-])cc3Cl)CC2)cc1 (nonaromatic ring conformer: 53.042623650795875 kcal/mol)

>  <smiles>  (37) 
Cc1ccc(SCC(=O)N2CCN(C(=O)c3ccc([N+](=O)[O-])cc3Cl)CC2)cc1

>  <score_type>  (37) 
oracle

>  <origin>  (37) 
adg

>  <m_score__min__energy>  (37) 
-8.8100000000000005

>  <m_primary>  (37) 
energy

$$$$
37:0
     RDKit          3D

 68 72  0  0  0  0  0  0  0  0999 V2000
   54.8310   25.0950   45.6180 C   0  0  0  0  0  0  0  0  0  0  0  0
   55.2590   26.3460   46.1450 O   0  0  0  0  0  0  0  0  0  0  0  0
   56.5390   26.8870   45.9580 C   0  0  0  0  0  0  0  0  0  0  0  0
   57.6970   26.2910   46.4920 C   0  0  0  0  0  0  0  0  0  0  0  0
   58.9510   26.8720   46.2770 C   0  0  0  0  0  0  0  0  0  0  0  0
   59.0690   28.0460   45.5150 C   0  0  0  0  0  0  0  0  0  0  0  0
   60.4130   28.6910   45.3120 C   0  0  0  0  0  0  0  0  0  0  0  0
   60.6240   29.7720   46.3290 C   0  0  0  0  0  0  0  0  0  0  0  0
   59.5730   30.1880   47.1650 C   0  0  0  0  0  0  0  0  0  0  0  0
   59.7810   31.1950   48.1260 C   0  0  0  0  0  0  0  0  0  0  0  0
   58.5830   31.7150   48.7900 C   0  0  0  0  0  0  0  0  0  0  0  0
   58.1840   31.1600   49.8490 O   0  0  0  0  0  0  0  0  0  0  0  0
   57.9310   32.8770   48.2490 N   0  0  0  0  0  0  0  0  0  0  0  0
   58.1710   33.5520   47.1580 C   0  0  0  0  0  0  0  0  0  0  0  0
   57.3670   33.4770   46.0010 C   0  0  0  0  0  0  0  0  0  0  0  0
   57.6970   34.2490   44.8820 C   0  0  0  0  0  0  0  0  0  0  0  0
   58.7820   35.0660   44.9090 N   0  0  0  0  0  0  0  0  0  0  0  0
   59.5730   35.1600   46.0090 C   0  0  0  0  0  0  0  0  0  0  0  0
   59.2740   34.4170   47.1530 C   0  0  0  0  0  0  0  0  0  0  0  0
   61.0840   31.7430   48.2690 C   0  0  0  0  0  0  0  0  0  0  0  0
   61.6040   32.6920   49.2050 C   0  0  0  0  0  0  0  0  0  0  0  0
   60.7790   33.2520   50.6850 S   0  0  0  0  0  0  0  0  0  0  0  0
   59.6920   34.2280   50.3450 O   0  0  0  0  0  0  0  0  0  0  0  0
   61.7390   33.9670   51.5950 O   0  0  0  0  0  0  0  0  0  0  0  0
   60.1250   31.8720   51.5350 N   0  0  2  0  0  0  0  0  0  0  0  0
   59.5360   32.3040   52.8250 C   0  0  0  0  0  0  0  0  0  0  0  0
   59.3070   31.1340   53.8100 C   0  0  0  0  0  0  0  0  0  0  0  0
   59.2750   29.7820   53.0920 C   0  0  0  0  0  0  0  0  0  0  0  0
   60.5830   29.5380   52.3070 C   0  0  1  0  0  0  0  0  0  0  0  0
   60.3500   28.5050   51.1960 C   0  0  0  0  0  0  0  0  0  0  0  0
   61.1750   30.8560   51.7340 C   0  0  0  0  0  0  0  0  0  0  0  0
   62.9670   32.9720   48.9580 C   0  0  0  0  0  0  0  0  0  0  0  0
   63.8730   33.8620   49.7500 C   0  0  0  0  0  0  0  0  0  0  0  0
   63.5280   32.0440   47.6710 S   0  0  0  0  0  0  0  0  0  0  0  0
   62.0680   31.2940   47.3900 C   0  0  0  0  0  0  0  0  0  0  0  0
   61.8540   30.3370   46.4590 N   0  0  0  0  0  0  0  0  0  0  0  0
   57.9120   28.6440   44.9930 C   0  0  0  0  0  0  0  0  0  0  0  0
   56.6590   28.0660   45.2110 C   0  0  0  0  0  0  0  0  0  0  0  0
   54.5964   24.4094   46.4456 H   0  0  0  0  0  0  0  0  0  0  0  0
   53.9331   25.2451   45.0005 H   0  0  0  0  0  0  0  0  0  0  0  0
   55.6327   24.6637   45.0005 H   0  0  0  0  0  0  0  0  0  0  0  0
   57.6154   25.3652   47.0804 H   0  0  0  0  0  0  0  0  0  0  0  0
   59.8501   26.4068   46.7072 H   0  0  0  0  0  0  0  0  0  0  0  0
   61.2012   27.9313   45.4196 H   0  0  0  0  0  0  0  0  0  0  0  0
   60.4528   29.1313   44.3047 H   0  0  0  0  0  0  0  0  0  0  0  0
   58.5809   29.7231   47.0673 H   0  0  0  0  0  0  0  0  0  0  0  0
   56.4875   32.8166   45.9790 H   0  0  0  0  0  0  0  0  0  0  0  0
   57.0752   34.1942   43.9763 H   0  0  0  0  0  0  0  0  0  0  0  0
   60.4509   35.8227   45.9988 H   0  0  0  0  0  0  0  0  0  0  0  0
   59.9039   34.5105   48.0499 H   0  0  0  0  0  0  0  0  0  0  0  0
   59.3780   31.4600   50.9310 H   0  0  0  0  0  0  0  0  0  0  0  0
   60.2166   33.0292   53.2951 H   0  0  0  0  0  0  0  0  0  0  0  0
   58.5524   32.7446   52.6050 H   0  0  0  0  0  0  0  0  0  0  0  0
   60.1225   31.1256   54.5481 H   0  0  0  0  0  0  0  0  0  0  0  0
   58.3326   31.2844   54.2978 H   0  0  0  0  0  0  0  0  0  0  0  0
   59.1486   28.9825   53.8369 H   0  0  0  0  0  0  0  0  0  0  0  0
   58.4359   29.7839   52.3807 H   0  0  0  0  0  0  0  0  0  0  0  0
   61.3270   29.1370   53.0110 H   0  0  0  0  0  0  0  0  0  0  0  0
   60.1292   27.5259   51.6461 H   0  0  0  0  0  0  0  0  0  0  0  0
   59.5008   28.8220   50.5728 H   0  0  0  0  0  0  0  0  0  0  0  0
   61.2531   28.4268   50.5728 H   0  0  0  0  0  0  0  0  0  0  0  0
   61.9244   31.2480   52.4374 H   0  0  0  0  0  0  0  0  0  0  0  0
   61.6346   30.6356   50.7592 H   0  0  0  0  0  0  0  0  0  0  0  0
   63.7035   33.6955   50.8240 H   0  0  0  0  0  0  0  0  0  0  0  0
   64.9201   33.6316   49.5040 H   0  0  0  0  0  0  0  0  0  0  0  0
   63.6613   34.9130   49.5040 H   0  0  0  0  0  0  0  0  0  0  0  0
   57.9920   29.5728   44.4091 H   0  0  0  0  0  0  0  0  0  0  0  0
   55.7592   28.5406   44.7926 H   0  0  0  0  0  0  0  0  0  0  0  0
  1  2  1  0
  2  3  1  0
  3  4  2  0
  4  5  1  0
  5  6  2  0
  6  7  1  0
  7  8  1  0
  8  9  2  0
  9 10  1  0
 10 11  1  0
 11 12  2  0
 11 13  1  0
 13 14  2  3
 14 15  1  0
 15 16  2  0
 16 17  1  0
 17 18  1  0
 18 19  2  0
 10 20  2  0
 20 21  1  0
 21 22  1  0
 22 23  2  0
 22 24  2  0
 22 25  1  0
 25 26  1  0
 26 27  1  0
 27 28  1  0
 28 29  1  0
 29 30  1  0
 29 31  1  0
 21 32  2  0
 32 33  1  0
 32 34  1  0
 34 35  1  0
 35 36  2  0
  6 37  1  0
 37 38  2  0
 38  3  1  0
 36  8  1  0
 19 14  1  0
 35 20  1  0
 31 25  1  0
  1 39  1  0
  1 40  1  0
  1 41  1  0
  4 42  1  0
  5 43  1  0
  7 44  1  0
  7 45  1  0
  9 46  1  0
 15 47  1  0
 16 48  1  0
 18 49  1  0
 19 50  1  0
 25 51  1  6
 26 52  1  0
 26 53  1  0
 27 54  1  0
 27 55  1  0
 28 56  1  0
 28 57  1  0
 29 58  1  1
 30 59  1  0
 30 60  1  0
 30 61  1  0
 31 62  1  0
 31 63  1  0
 33 64  1  0
 33 65  1  0
 33 66  1  0
 37 67  1  0
 38 68  1  0
M  CHG  2  17  -1  25   1
M  END
>  <UniqueID>  (38) 
38

>  <SMILES>  (38) 
COc1ccc(Cc2cc(C(=O)N=c3cc[n-]cc3)c3c(S(=O)(=O)[N@@H+]4CCC[C@@H](C)C4)c(C)sc3n2)cc1

>  <Energy>  (38) 
125.45941243021997

>  <Genealogy>  (38) 
COc1ccc(Cc2cc(C(=O)N=c3cc[n-]cc3)c3c(S(=O)(=O)[NH+]4CCCC(C)C4)c(C)sc3n2)cc1 (protonated)
COc1ccc(Cc2cc(C(=O)N=c3cc[n-]cc3)c3c(S(=O)(=O)[N@@H+]4CCC[C@@H](C)C4)c(C)sc3n2)cc1 (chirality)
COc1ccc(Cc2cc(C(=O)N=c3cc[n-]cc3)c3c(S(=O)(=O)[N@@H+]4CCC[C@@H](C)C4)c(C)sc3n2)cc1 (3D coordinates assigned)
COc1ccc(Cc2cc(C(=O)N=c3cc[n-]cc3)c3c(S(=O)(=O)[N@@H+]4CCC[C@@H](C)C4)c(C)sc3n2)cc1 (nonaromatic ring conformer: 125.45941243021997 kcal/mol)

>  <smiles>  (38) 
COc1ccc(Cc2cc(C(=O)N=c3cc[nH]cc3)c3c(S(=O)(=O)N4CCCC(C)C4)c(C)sc3n2)cc1

>  <score_type>  (38) 
oracle

>  <origin>  (38) 
adg

>  <m_score__min__energy>  (38) 
-9.0399999999999991

>  <m_primary>  (38) 
energy

$$$$
38:0
     RDKit          3D

 41 44  0  0  0  0  0  0  0  0999 V2000
   56.9094   31.6237   49.8826 H   0  0  0  0  0  0  0  0  0  0  0  0
   57.3910   31.9930   50.8000 C   0  0  0  0  0  0  0  0  0  0  0  0
   56.7270   31.8360   51.9560 C   0  0  0  0  0  0  0  0  0  0  0  0
   56.2208   32.7153   52.3810 H   0  0  0  0  0  0  0  0  0  0  0  0
   56.6310   30.5610   52.6950 C   0  0  0  0  0  0  0  0  0  0  0  0
   55.4360   29.8280   52.8160 C   0  0  0  0  0  0  0  0  0  0  0  0
   54.1150   30.0850   52.4760 C   0  0  0  0  0  0  0  0  0  0  0  0
   53.4830   31.2190   51.9610 C   0  0  0  0  0  0  0  0  0  0  0  0
   54.0599   32.1251   51.7241 H   0  0  0  0  0  0  0  0  0  0  0  0
   52.0870   31.1770   51.7510 C   0  0  0  0  0  0  0  0  0  0  0  0
   51.3900   32.3490   51.1760 C   0  0  0  0  0  0  0  0  0  0  0  0
   51.4170   32.5660   49.9360 O   0  0  0  0  0  0  0  0  0  0  0  0
   50.6970   33.2290   52.0000 O   0  0  0  0  0  0  0  0  0  0  0  0
   51.3620   30.0090   52.1010 C   0  0  0  0  0  0  0  0  0  0  0  0
   50.2754   29.9737   51.9333 H   0  0  0  0  0  0  0  0  0  0  0  0
   52.0140   28.8970   52.6590 C   0  0  0  0  0  0  0  0  0  0  0  0
   51.4484   27.9993   52.9494 H   0  0  0  0  0  0  0  0  0  0  0  0
   53.3970   28.9590   52.8360 C   0  0  0  0  0  0  0  0  0  0  0  0
   54.2030   28.0190   53.3870 N   0  0  0  0  0  0  0  0  0  0  0  0
   53.8010   26.7410   53.9740 C   0  0  0  0  0  0  0  0  0  0  0  0
   53.8251   26.8177   55.0711 H   0  0  0  0  0  0  0  0  0  0  0  0
   52.7810   26.4916   53.6462 H   0  0  0  0  0  0  0  0  0  0  0  0
   54.4945   25.9526   53.6462 H   0  0  0  0  0  0  0  0  0  0  0  0
   55.4390   28.5740   53.3980 C   0  0  0  0  0  0  0  0  0  0  0  0
   56.6070   28.0370   53.9400 C   0  0  0  0  0  0  0  0  0  0  0  0
   56.6107   27.0442   54.4136 H   0  0  0  0  0  0  0  0  0  0  0  0
   57.7760   28.8070   53.8600 C   0  0  0  0  0  0  0  0  0  0  0  0
   58.7115   28.4220   54.2920 H   0  0  0  0  0  0  0  0  0  0  0  0
   57.7660   30.0330   53.2500 N   0  0  0  0  0  0  0  0  0  0  0  0
   58.6650   30.5600   53.1860 H   0  0  0  0  0  0  0  0  0  0  0  0
   58.7230   32.6260   50.6670 C   0  0  0  0  0  0  0  0  0  0  0  0
   59.2560   32.9770   49.4130 C   0  0  0  0  0  0  0  0  0  0  0  0
   58.6827   32.7716   48.4970 H   0  0  0  0  0  0  0  0  0  0  0  0
   60.5120   33.5860   49.3270 C   0  0  0  0  0  0  0  0  0  0  0  0
   60.9174   33.8726   48.3454 H   0  0  0  0  0  0  0  0  0  0  0  0
   61.2530   33.8310   50.4870 C   0  0  0  0  0  0  0  0  0  0  0  0
   62.2368   34.3183   50.4185 H   0  0  0  0  0  0  0  0  0  0  0  0
   60.7440   33.4570   51.7330 C   0  0  0  0  0  0  0  0  0  0  0  0
   61.3312   33.6426   52.6445 H   0  0  0  0  0  0  0  0  0  0  0  0
   59.4890   32.8470   51.8230 C   0  0  0  0  0  0  0  0  0  0  0  0
   59.0997   32.5386   52.8045 H   0  0  0  0  0  0  0  0  0  0  0  0
  1  2  1  0
  2  3  2  0
  3  4  1  0
  3  5  1  0
  5  6  2  0
  6  7  1  0
  7  8  2  0
  8  9  1  0
  8 10  1  0
 10 11  1  0
 11 12  2  0
 11 13  1  0
 10 14  2  0
 14 15  1  0
 14 16  1  0
 16 17  1  0
 16 18  2  0
 18 19  1  0
 19 20  1  0
 20 21  1  0
 20 22  1  0
 20 23  1  0
 19 24  1  0
 24 25  2  0
 25 26  1  0
 25 27  1  0
 27 28  1  0
 27 29  2  0
 29 30  1  0
  2 31  1  0
 31 32  2  0
 32 33  1  0
 32 34  1  0
 34 35  1  0
 34 36  2  0
 36 37  1  0
 36 38  1  0
 38 39  1  0
 38 40  2  0
 40 41  1  0
 29  5  1  0
 40 31  1  0
 24  6  1  0
 18  7  1  0
M  CHG  2  13  -1  29   1
M  END
>  <UniqueID>  (39) 
39

>  <SMILES>  (39) 
Cn1c2ccc(C(=O)[O-])cc2c2c(/C=C\c3ccccc3)[nH+]ccc21

>  <Energy>  (39) 
99.19594492591399

>  <Genealogy>  (39) 
Cn1c2ccc(C(=O)[O-])cc2c2c(C=Cc3ccccc3)[nH+]ccc21 (protonated)
Cn1c2ccc(C(=O)[O-])cc2c2c(/C=C\c3ccccc3)[nH+]ccc21 (cis-trans isomerization)
Cn1c2ccc(C(=O)[O-])cc2c2c(/C=C\c3ccccc3)[nH+]ccc21 (3D coordinates assigned)
Cn1c2ccc(C(=O)[O-])cc2c2c(/C=C\c3ccccc3)[nH+]ccc21 (optimized conformer: 99.19594492591399 kcal/mol)

>  <smiles>  (39) 
Cn1c2ccc(C(=O)O)cc2c2c(C=Cc3ccccc3)nccc21

>  <score_type>  (39) 
oracle

>  <origin>  (39) 
adg

>  <m_score__min__energy>  (39) 
-10.039999999999999

>  <m_primary>  (39) 
energy

$$$$
39:0
     RDKit          3D

 37 39  0  0  0  0  0  0  0  0999 V2000
   59.7770   27.8440   48.2530 C   0  0  0  0  0  0  0  0  0  0  0  0
   58.8010   27.2970   47.2520 C   0  0  0  0  0  0  0  0  0  0  0  0
   58.9170   25.9710   46.8130 C   0  0  0  0  0  0  0  0  0  0  0  0
   58.0360   25.4610   45.8480 C   0  0  0  0  0  0  0  0  0  0  0  0
   58.1970   24.0590   45.3400 C   0  0  0  0  0  0  0  0  0  0  0  0
   57.0450   26.2960   45.3090 C   0  0  0  0  0  0  0  0  0  0  0  0
   56.8980   27.6130   45.7690 C   0  0  0  0  0  0  0  0  0  0  0  0
   55.8980   28.4880   45.2310 N   0  0  0  0  0  0  0  0  0  0  0  0
   56.1170   29.7110   44.5140 C   0  0  0  0  0  0  0  0  0  0  0  0
   55.2370   30.6110   44.5750 O   0  0  0  0  0  0  0  0  0  0  0  0
   57.2880   29.9100   43.5930 C   0  0  0  0  0  0  0  0  0  0  0  0
   58.8240   30.0870   44.5670 S   0  0  0  0  0  0  0  0  0  0  0  0
   58.4420   31.7400   45.1720 C   0  0  0  0  0  0  0  0  0  0  0  0
   57.3670   32.4190   44.6670 N   0  0  0  0  0  0  0  0  0  0  0  0
   57.0260   33.6590   45.1290 C   0  0  0  0  0  0  0  0  0  0  0  0
   57.7710   34.2630   46.0980 N   0  0  0  0  0  0  0  0  0  0  0  0
   58.8440   33.6050   46.5980 C   0  0  0  0  0  0  0  0  0  0  0  0
   59.9160   34.1570   47.7610 S   0  0  0  0  0  0  0  0  0  0  0  0
   60.8810   32.7630   47.7280 C   0  0  0  0  0  0  0  0  0  0  0  0
   60.3640   31.8650   46.7930 C   0  0  0  0  0  0  0  0  0  0  0  0
   59.2130   32.3520   46.1620 C   0  0  0  0  0  0  0  0  0  0  0  0
   57.8060   28.1190   46.7060 C   0  0  0  0  0  0  0  0  0  0  0  0
   59.4121   27.6395   49.2704 H   0  0  0  0  0  0  0  0  0  0  0  0
   60.7561   27.3632   48.1110 H   0  0  0  0  0  0  0  0  0  0  0  0
   59.8779   28.9301   48.1110 H   0  0  0  0  0  0  0  0  0  0  0  0
   59.7049   25.3254   47.2284 H   0  0  0  0  0  0  0  0  0  0  0  0
   58.2764   23.3673   46.1916 H   0  0  0  0  0  0  0  0  0  0  0  0
   57.3240   23.7883   44.7279 H   0  0  0  0  0  0  0  0  0  0  0  0
   59.1086   23.9932   44.7279 H   0  0  0  0  0  0  0  0  0  0  0  0
   56.3791   25.9151   44.5206 H   0  0  0  0  0  0  0  0  0  0  0  0
   57.3781   29.0408   42.9249 H   0  0  0  0  0  0  0  0  0  0  0  0
   57.1297   30.8218   42.9984 H   0  0  0  0  0  0  0  0  0  0  0  0
   56.7810   31.9790   43.9210 H   0  0  0  0  0  0  0  0  0  0  0  0
   56.1452   34.1729   44.7166 H   0  0  0  0  0  0  0  0  0  0  0  0
   61.7745   32.5931   48.3466 H   0  0  0  0  0  0  0  0  0  0  0  0
   60.8111   30.8837   46.5760 H   0  0  0  0  0  0  0  0  0  0  0  0
   57.7380   29.1720   47.0169 H   0  0  0  0  0  0  0  0  0  0  0  0
  1  2  1  0
  2  3  2  0
  3  4  1  0
  4  5  1  0
  4  6  2  0
  6  7  1  0
  7  8  1  0
  8  9  1  0
  9 10  2  0
  9 11  1  0
 11 12  1  0
 12 13  1  0
 13 14  2  0
 14 15  1  0
 15 16  2  0
 16 17  1  0
 17 18  1  0
 18 19  1  0
 19 20  2  0
 20 21  1  0
  7 22  2  0
 22  2  1  0
 21 13  1  0
 21 17  2  0
  1 23  1  0
  1 24  1  0
  1 25  1  0
  3 26  1  0
  5 27  1  0
  5 28  1  0
  5 29  1  0
  6 30  1  0
 11 31  1  0
 11 32  1  0
 14 33  1  0
 15 34  1  0
 19 35  1  0
 20 36  1  0
 22 37  1  0
M  CHG  2   8  -1  14   1
M  END
>  <UniqueID>  (40) 
40

>  <SMILES>  (40) 
Cc1cc(C)cc([N-]C(=O)CSc2[nH+]cnc3sccc23)c1

>  <Energy>  (40) 
68.32955350390979

>  <Genealogy>  (40) 
Cc1cc(C)cc([N-]C(=O)CSc2[nH+]cnc3sccc23)c1 (protonated)
Cc1cc(C)cc([N-]C(=O)CSc2[nH+]cnc3sccc23)c1 (3D coordinates assigned)
Cc1cc(C)cc([N-]C(=O)CSc2[nH+]cnc3sccc23)c1 (optimized conformer: 68.32955350390979 kcal/mol)

>  <smiles>  (40) 
Cc1cc(C)cc(NC(=O)CSc2ncnc3sccc23)c1

>  <score_type>  (40) 
oracle

>  <origin>  (40) 
adg

>  <m_score__min__energy>  (40) 
-8.2899999999999991

>  <m_primary>  (40) 
energy

$$$$
40:0
     RDKit          3D

 38 39  0  0  0  0  0  0  0  0999 V2000
   63.8220   32.6560   48.8150 C   0  0  0  0  0  0  0  0  0  0  0  0
   63.1760   33.8180   48.3050 O   0  0  0  0  0  0  0  0  0  0  0  0
   61.8760   33.8350   47.7800 C   0  0  0  0  0  0  0  0  0  0  0  0
   60.7980   33.8380   48.6740 C   0  0  0  0  0  0  0  0  0  0  0  0
   59.4820   33.8480   48.2010 C   0  0  0  0  0  0  0  0  0  0  0  0
   59.2250   33.8340   46.8230 C   0  0  0  0  0  0  0  0  0  0  0  0
   57.8260   33.8900   46.3490 C   0  0  0  0  0  0  0  0  0  0  0  0
   57.3330   33.2060   45.3030 C   0  0  0  0  0  0  0  0  0  0  0  0
   57.4650   31.7490   45.0960 C   0  0  0  0  0  0  0  0  0  0  0  0
   56.5600   31.1050   44.4990 O   0  0  0  0  0  0  0  0  0  0  0  0
   58.6710   31.0870   45.5050 N   0  0  0  0  0  0  0  0  0  0  0  0
   58.8120   29.6590   45.5280 C   0  0  0  0  0  0  0  0  0  0  0  0
   60.3170   29.0180   45.6670 S   0  0  0  0  0  0  0  0  0  0  0  0
   57.6580   28.8230   45.7190 N   0  0  0  0  0  0  0  0  0  0  0  0
   57.5360   27.4850   45.2070 C   0  0  0  0  0  0  0  0  0  0  0  0
   57.9230   27.1640   43.8940 C   0  0  0  0  0  0  0  0  0  0  0  0
   57.7680   25.8610   43.4100 C   0  0  0  0  0  0  0  0  0  0  0  0
   57.2140   24.8730   44.2270 C   0  0  0  0  0  0  0  0  0  0  0  0
   57.0580   23.6110   43.7540 F   0  0  0  0  0  0  0  0  0  0  0  0
   56.8090   25.1870   45.5270 C   0  0  0  0  0  0  0  0  0  0  0  0
   56.9620   26.4880   46.0130 C   0  0  0  0  0  0  0  0  0  0  0  0
   60.3030   33.8650   45.9230 C   0  0  0  0  0  0  0  0  0  0  0  0
   61.6190   33.8510   46.3960 C   0  0  0  0  0  0  0  0  0  0  0  0
   63.8079   32.6814   49.9146 H   0  0  0  0  0  0  0  0  0  0  0  0
   63.2936   31.7581   48.4622 H   0  0  0  0  0  0  0  0  0  0  0  0
   64.8636   32.6309   48.4622 H   0  0  0  0  0  0  0  0  0  0  0  0
   60.9880   33.8324   49.7574 H   0  0  0  0  0  0  0  0  0  0  0  0
   58.6444   33.8669   48.9138 H   0  0  0  0  0  0  0  0  0  0  0  0
   57.1324   34.5447   46.8970 H   0  0  0  0  0  0  0  0  0  0  0  0
   56.7865   33.7773   44.5382 H   0  0  0  0  0  0  0  0  0  0  0  0
   59.4980   31.6740   45.7590 H   0  0  0  0  0  0  0  0  0  0  0  0
   56.8750   29.2040   46.2980 H   0  0  0  0  0  0  0  0  0  0  0  0
   58.3500   27.9419   43.2439 H   0  0  0  0  0  0  0  0  0  0  0  0
   58.0826   25.6142   42.3853 H   0  0  0  0  0  0  0  0  0  0  0  0
   56.3692   24.4091   46.1684 H   0  0  0  0  0  0  0  0  0  0  0  0
   56.6310   26.7330   47.0330 H   0  0  0  0  0  0  0  0  0  0  0  0
   60.1111   33.9005   44.8405 H   0  0  0  0  0  0  0  0  0  0  0  0
   62.4570   33.8525   45.6834 H   0  0  0  0  0  0  0  0  0  0  0  0
  1  2  1  0
  2  3  1  0
  3  4  2  0
  4  5  1  0
  5  6  2  0
  6  7  1  0
  7  8  2  3
  8  9  1  0
  9 10  2  0
  9 11  1  0
 11 12  1  0
 12 13  2  0
 12 14  1  0
 14 15  1  0
 15 16  2  0
 16 17  1  0
 17 18  2  0
 18 19  1  0
 18 20  1  0
 20 21  2  0
  6 22  1  0
 22 23  2  0
 23  3  1  0
 21 15  1  0
  1 24  1  0
  1 25  1  0
  1 26  1  0
  4 27  1  0
  5 28  1  0
  7 29  1  0
  8 30  1  0
 11 31  1  0
 14 32  1  0
 16 33  1  0
 17 34  1  0
 20 35  1  0
 21 36  1  0
 22 37  1  0
 23 38  1  0
M  END
>  <UniqueID>  (41) 
41

>  <SMILES>  (41) 
COc1ccc(C=CC(=O)NC(=S)Nc2ccc(F)cc2)cc1

>  <Energy>  (41) 
50.762376473394845

>  <Genealogy>  (41) 
COc1ccc(C=CC(=O)NC(=S)Nc2ccc(F)cc2)cc1 (3D coordinates assigned)
COc1ccc(C=CC(=O)NC(=S)Nc2ccc(F)cc2)cc1 (optimized conformer: 50.762376473394845 kcal/mol)

>  <smiles>  (41) 
COc1ccc(C=CC(=O)NC(=S)Nc2ccc(F)cc2)cc1

>  <score_type>  (41) 
oracle

>  <origin>  (41) 
adg

>  <m_score__min__energy>  (41) 
-7.2199999999999998

>  <m_primary>  (41) 
energy

$$$$
41:0
     RDKit          3D

 46 48  0  0  0  0  0  0  0  0999 V2000
   56.2770   26.1250   46.2620 C   0  0  0  0  0  0  0  0  0  0  0  0
   57.5410   26.8930   45.9840 C   0  0  0  0  0  0  0  0  0  0  0  0
   58.7900   26.3000   46.2380 C   0  0  0  0  0  0  0  0  0  0  0  0
   59.9690   27.0100   45.9980 C   0  0  0  0  0  0  0  0  0  0  0  0
   59.9130   28.3170   45.5170 C   0  0  0  0  0  0  0  0  0  0  0  0
   58.6780   28.9170   45.2600 C   0  0  0  0  0  0  0  0  0  0  0  0
   57.4820   28.2040   45.4700 C   0  0  0  0  0  0  0  0  0  0  0  0
   56.1990   28.8100   45.2430 N   0  0  0  0  0  0  0  0  0  0  0  0
   55.8470   29.7240   44.1950 C   0  0  0  0  0  0  0  0  0  0  0  0
   54.7870   29.5480   43.5340 O   0  0  0  0  0  0  0  0  0  0  0  0
   56.7110   30.8930   43.9140 C   0  0  0  0  0  0  0  0  0  0  0  0
   57.0500   31.2310   42.5910 C   0  0  0  0  0  0  0  0  0  0  0  0
   57.9040   32.3060   42.3330 C   0  0  0  0  0  0  0  0  0  0  0  0
   58.4310   33.0540   43.3870 C   0  0  0  0  0  0  0  0  0  0  0  0
   58.0970   32.7380   44.7090 C   0  0  0  0  0  0  0  0  0  0  0  0
   58.7990   33.6680   46.0300 S   0  0  0  0  0  0  0  0  0  0  0  0
   59.3160   34.9700   45.4840 O   0  0  0  0  0  0  0  0  0  0  0  0
   57.7720   33.9710   47.0860 O   0  0  0  0  0  0  0  0  0  0  0  0
   60.1170   32.7850   46.7330 N   0  0  0  0  0  0  0  0  0  0  0  0
   59.9950   31.7430   47.7110 C   0  0  0  0  0  0  0  0  0  0  0  0
   60.8890   30.6690   47.6580 C   0  0  0  0  0  0  0  0  0  0  0  0
   60.8070   29.6330   48.5900 C   0  0  0  0  0  0  0  0  0  0  0  0
   59.8290   29.6600   49.5850 C   0  0  0  0  0  0  0  0  0  0  0  0
   58.9140   30.7250   49.6560 C   0  0  0  0  0  0  0  0  0  0  0  0
   57.8770   30.7430   50.7170 C   0  0  0  0  0  0  0  0  0  0  0  0
   57.0320   31.8800   50.9120 N   0  0  0  0  0  0  0  0  0  0  0  0
   57.7200   29.7330   51.4530 O   0  0  0  0  0  0  0  0  0  0  0  0
   59.0140   31.7730   48.7210 C   0  0  0  0  0  0  0  0  0  0  0  0
   57.2310   31.6660   44.9690 C   0  0  0  0  0  0  0  0  0  0  0  0
   56.1328   26.0374   47.3490 H   0  0  0  0  0  0  0  0  0  0  0  0
   55.4208   26.6557   45.8201 H   0  0  0  0  0  0  0  0  0  0  0  0
   56.3535   25.1206   45.8201 H   0  0  0  0  0  0  0  0  0  0  0  0
   58.8392   25.2724   46.6274 H   0  0  0  0  0  0  0  0  0  0  0  0
   60.9434   26.5366   46.1890 H   0  0  0  0  0  0  0  0  0  0  0  0
   60.8430   28.8770   45.3395 H   0  0  0  0  0  0  0  0  0  0  0  0
   58.6395   29.9527   44.8914 H   0  0  0  0  0  0  0  0  0  0  0  0
   56.6402   30.6454   41.7549 H   0  0  0  0  0  0  0  0  0  0  0  0
   58.1621   32.5639   41.2953 H   0  0  0  0  0  0  0  0  0  0  0  0
   59.1103   33.8936   43.1783 H   0  0  0  0  0  0  0  0  0  0  0  0
   61.6624   30.6403   46.8763 H   0  0  0  0  0  0  0  0  0  0  0  0
   61.5154   28.7929   48.5399 H   0  0  0  0  0  0  0  0  0  0  0  0
   59.7736   28.8424   50.3188 H   0  0  0  0  0  0  0  0  0  0  0  0
   56.3530   31.8970   51.7050 H   0  0  0  0  0  0  0  0  0  0  0  0
   57.0060   32.6660   50.2260 H   0  0  0  0  0  0  0  0  0  0  0  0
   58.3190   32.6236   48.7800 H   0  0  0  0  0  0  0  0  0  0  0  0
   56.9557   31.4271   46.0069 H   0  0  0  0  0  0  0  0  0  0  0  0
  1  2  1  0
  2  3  2  0
  3  4  1  0
  4  5  2  0
  5  6  1  0
  6  7  2  0
  7  8  1  0
  8  9  1  0
  9 10  2  0
  9 11  1  0
 11 12  2  0
 12 13  1  0
 13 14  2  0
 14 15  1  0
 15 16  1  0
 16 17  2  0
 16 18  2  0
 16 19  1  0
 19 20  1  0
 20 21  2  0
 21 22  1  0
 22 23  2  0
 23 24  1  0
 24 25  1  0
 25 26  1  0
 25 27  2  0
 24 28  2  0
 15 29  2  0
  7  2  1  0
 29 11  1  0
 28 20  1  0
  1 30  1  0
  1 31  1  0
  1 32  1  0
  3 33  1  0
  4 34  1  0
  5 35  1  0
  6 36  1  0
 12 37  1  0
 13 38  1  0
 14 39  1  0
 21 40  1  0
 22 41  1  0
 23 42  1  0
 26 43  1  0
 26 44  1  0
 28 45  1  0
 29 46  1  0
M  CHG  2   8  -1  19  -1
M  END
>  <UniqueID>  (42) 
42

>  <SMILES>  (42) 
Cc1ccccc1[N-]C(=O)c1cccc(S(=O)(=O)[N-]c2cccc(C(N)=O)c2)c1

>  <Energy>  (42) 
55.53434189362973

>  <Genealogy>  (42) 
Cc1ccccc1[N-]C(=O)c1cccc(S(=O)(=O)[N-]c2cccc(C(N)=O)c2)c1 (protonated)
Cc1ccccc1[N-]C(=O)c1cccc(S(=O)(=O)[N-]c2cccc(C(N)=O)c2)c1 (3D coordinates assigned)
Cc1ccccc1[N-]C(=O)c1cccc(S(=O)(=O)[N-]c2cccc(C(N)=O)c2)c1 (optimized conformer: 55.53434189362973 kcal/mol)

>  <smiles>  (42) 
Cc1ccccc1NC(=O)c1cccc(S(=O)(=O)Nc2cccc(C(N)=O)c2)c1

>  <score_type>  (42) 
oracle

>  <origin>  (42) 
adg

>  <m_score__min__energy>  (42) 
-12.800000000000001

>  <m_primary>  (42) 
energy

$$$$
42:0
     RDKit          3D

 47 49  0  0  0  0  0  0  0  0999 V2000
   55.1570   30.4650   44.4070 O   0  0  0  0  0  0  0  0  0  0  0  0
   56.5950   30.0330   44.4240 S   0  0  0  0  0  0  0  0  0  0  0  0
   56.9800   29.5880   43.0410 O   0  0  0  0  0  0  0  0  0  0  0  0
   56.7800   28.7060   45.5250 N   0  0  0  0  0  0  0  0  0  0  0  0
   58.0260   28.0840   45.8660 C   0  0  0  0  0  0  0  0  0  0  0  0
   59.1700   28.4260   45.1320 C   0  0  0  0  0  0  0  0  0  0  0  0
   60.4050   27.8430   45.4330 C   0  0  0  0  0  0  0  0  0  0  0  0
   60.5040   26.9140   46.4710 C   0  0  0  0  0  0  0  0  0  0  0  0
   59.3700   26.5600   47.2040 C   0  0  0  0  0  0  0  0  0  0  0  0
   58.1330   27.1420   46.9080 C   0  0  0  0  0  0  0  0  0  0  0  0
   57.5930   31.3850   44.9500 C   0  0  0  0  0  0  0  0  0  0  0  0
   58.1020   31.4020   46.2560 C   0  0  0  0  0  0  0  0  0  0  0  0
   58.9060   32.4630   46.6840 C   0  0  0  0  0  0  0  0  0  0  0  0
   59.2120   33.5170   45.8080 C   0  0  0  0  0  0  0  0  0  0  0  0
   60.0680   34.6690   46.2620 C   0  0  0  0  0  0  0  0  0  0  0  0
   61.0260   34.2220   47.2820 N   0  0  0  0  0  0  0  0  0  0  0  0
   62.3110   33.8420   46.6790 C   0  0  0  0  0  0  0  0  0  0  0  0
   63.0050   32.7690   47.5260 C   0  0  0  0  0  0  0  0  0  0  0  0
   62.0160   31.8200   48.1530 C   0  0  0  0  0  0  0  0  0  0  0  0
   61.5260   30.7220   47.4250 C   0  0  0  0  0  0  0  0  0  0  0  0
   60.5890   29.8570   48.0010 C   0  0  0  0  0  0  0  0  0  0  0  0
   60.1310   30.0860   49.3030 C   0  0  0  0  0  0  0  0  0  0  0  0
   60.6050   31.1820   50.0290 C   0  0  0  0  0  0  0  0  0  0  0  0
   61.5420   32.0500   49.4570 C   0  0  0  0  0  0  0  0  0  0  0  0
   58.7010   33.4960   44.5010 C   0  0  0  0  0  0  0  0  0  0  0  0
   57.8940   32.4370   44.0760 C   0  0  0  0  0  0  0  0  0  0  0  0
   59.0959   29.1577   44.3140 H   0  0  0  0  0  0  0  0  0  0  0  0
   61.2984   28.1161   44.8522 H   0  0  0  0  0  0  0  0  0  0  0  0
   61.4770   26.4606   46.7113 H   0  0  0  0  0  0  0  0  0  0  0  0
   59.4493   25.8220   48.0158 H   0  0  0  0  0  0  0  0  0  0  0  0
   57.2420   26.8636   47.4900 H   0  0  0  0  0  0  0  0  0  0  0  0
   57.8682   30.5781   46.9463 H   0  0  0  0  0  0  0  0  0  0  0  0
   59.3003   32.4720   47.7109 H   0  0  0  0  0  0  0  0  0  0  0  0
   60.6184   35.0738   45.3999 H   0  0  0  0  0  0  0  0  0  0  0  0
   59.4212   35.4462   46.6951 H   0  0  0  0  0  0  0  0  0  0  0  0
   61.2010   35.0300   47.9240 H   0  0  0  0  0  0  0  0  0  0  0  0
   62.1336   33.4465   45.6680 H   0  0  0  0  0  0  0  0  0  0  0  0
   62.9578   34.7304   46.6304 H   0  0  0  0  0  0  0  0  0  0  0  0
   63.6890   32.1958   46.8829 H   0  0  0  0  0  0  0  0  0  0  0  0
   63.5516   33.2750   48.3354 H   0  0  0  0  0  0  0  0  0  0  0  0
   61.8802   30.5421   46.3992 H   0  0  0  0  0  0  0  0  0  0  0  0
   60.2121   28.9960   47.4295 H   0  0  0  0  0  0  0  0  0  0  0  0
   59.3972   29.4028   49.7556 H   0  0  0  0  0  0  0  0  0  0  0  0
   60.2412   31.3627   51.0513 H   0  0  0  0  0  0  0  0  0  0  0  0
   61.9089   32.9149   50.0291 H   0  0  0  0  0  0  0  0  0  0  0  0
   58.9368   34.3169   43.8078 H   0  0  0  0  0  0  0  0  0  0  0  0
   57.4939   32.4298   43.0514 H   0  0  0  0  0  0  0  0  0  0  0  0
  1  2  2  0
  2  3  2  0
  2  4  1  0
  4  5  1  0
  5  6  2  0
  6  7  1  0
  7  8  2  0
  8  9  1  0
  9 10  2  0
  2 11  1  0
 11 12  2  0
 12 13  1  0
 13 14  2  0
 14 15  1  0
 15 16  1  0
 16 17  1  0
 17 18  1  0
 18 19  1  0
 19 20  2  0
 20 21  1  0
 21 22  2  0
 22 23  1  0
 23 24  2  0
 14 25  1  0
 25 26  2  0
 10  5  1  0
 26 11  1  0
 24 19  1  0
  6 27  1  0
  7 28  1  0
  8 29  1  0
  9 30  1  0
 10 31  1  0
 12 32  1  0
 13 33  1  0
 15 34  1  0
 15 35  1  0
 16 36  1  0
 17 37  1  0
 17 38  1  0
 18 39  1  0
 18 40  1  0
 20 41  1  0
 21 42  1  0
 22 43  1  0
 23 44  1  0
 24 45  1  0
 25 46  1  0
 26 47  1  0
M  CHG  1   4  -1
M  END
>  <UniqueID>  (43) 
43

>  <SMILES>  (43) 
O=S(=O)([N-]c1ccccc1)c1ccc(CNCCc2ccccc2)cc1

>  <Energy>  (43) 
49.045722301108924

>  <Genealogy>  (43) 
O=S(=O)([N-]c1ccccc1)c1ccc(CNCCc2ccccc2)cc1 (protonated)
O=S(=O)([N-]c1ccccc1)c1ccc(CNCCc2ccccc2)cc1 (3D coordinates assigned)
O=S(=O)([N-]c1ccccc1)c1ccc(CNCCc2ccccc2)cc1 (optimized conformer: 49.045722301108924 kcal/mol)

>  <smiles>  (43) 
O=S(=O)(Nc1ccccc1)c1ccc(CNCCc2ccccc2)cc1

>  <score_type>  (43) 
oracle

>  <origin>  (43) 
adg

>  <m_score__min__energy>  (43) 
-9.8300000000000001

>  <m_primary>  (43) 
energy

$$$$
43:0
     RDKit          3D

 52 55  0  0  0  0  0  0  0  0999 V2000
   56.2540   27.0910   45.9380 O   0  0  0  0  0  0  0  0  0  0  0  0
   56.5490   28.2420   45.5180 C   0  0  0  0  0  0  0  0  0  0  0  0
   55.5290   29.0190   44.8670 N   0  0  0  0  0  0  0  0  0  0  0  0
   55.6240   29.6830   43.5670 C   0  0  0  0  0  0  0  0  0  0  0  0
   56.6020   30.8280   43.6060 C   0  0  0  0  0  0  0  0  0  0  0  0
   57.2290   31.2700   42.4300 C   0  0  0  0  0  0  0  0  0  0  0  0
   58.1110   32.3560   42.4640 C   0  0  0  0  0  0  0  0  0  0  0  0
   58.3660   33.0140   43.6710 C   0  0  0  0  0  0  0  0  0  0  0  0
   57.7430   32.5850   44.8410 C   0  0  0  0  0  0  0  0  0  0  0  0
   56.8610   31.4960   44.8120 C   0  0  0  0  0  0  0  0  0  0  0  0
   57.9140   28.7560   45.7520 C   0  0  0  0  0  0  0  0  0  0  0  0
   58.2100   29.4100   46.9590 C   0  0  0  0  0  0  0  0  0  0  0  0
   59.4950   29.9040   47.1970 C   0  0  0  0  0  0  0  0  0  0  0  0
   60.4910   29.7650   46.2260 C   0  0  0  0  0  0  0  0  0  0  0  0
   61.7620   30.2980   46.4590 O   0  0  0  0  0  0  0  0  0  0  0  0
   62.0440   31.2230   47.4720 C   0  0  0  0  0  0  0  0  0  0  0  0
   62.1200   30.8490   48.8240 C   0  0  0  0  0  0  0  0  0  0  0  0
   62.4820   31.7790   49.7990 C   0  0  0  0  0  0  0  0  0  0  0  0
   62.7860   33.1020   49.4310 C   0  0  0  0  0  0  0  0  0  0  0  0
   63.2100   34.0980   50.4780 C   0  0  0  0  0  0  0  0  0  0  0  0
   64.6320   33.8490   50.8990 C   0  0  0  0  0  0  0  0  0  0  0  0
   65.4610   33.0160   50.1330 C   0  0  0  0  0  0  0  0  0  0  0  0
   66.7910   32.8060   50.5150 C   0  0  0  0  0  0  0  0  0  0  0  0
   67.3010   33.4270   51.6600 C   0  0  0  0  0  0  0  0  0  0  0  0
   66.4850   34.2610   52.4220 C   0  0  0  0  0  0  0  0  0  0  0  0
   65.1560   34.4790   52.0420 C   0  0  0  0  0  0  0  0  0  0  0  0
   62.6660   33.4890   48.0860 C   0  0  0  0  0  0  0  0  0  0  0  0
   62.3000   32.5530   47.1150 C   0  0  0  0  0  0  0  0  0  0  0  0
   60.2140   29.0830   45.0320 C   0  0  0  0  0  0  0  0  0  0  0  0
   58.9380   28.5610   44.8070 C   0  0  0  0  0  0  0  0  0  0  0  0
   55.9577   28.9525   42.8153 H   0  0  0  0  0  0  0  0  0  0  0  0
   54.6323   30.0828   43.3087 H   0  0  0  0  0  0  0  0  0  0  0  0
   57.0258   30.7599   41.4768 H   0  0  0  0  0  0  0  0  0  0  0  0
   58.6042   32.6923   41.5401 H   0  0  0  0  0  0  0  0  0  0  0  0
   59.0575   33.8691   43.6968 H   0  0  0  0  0  0  0  0  0  0  0  0
   57.9439   33.1026   45.7906 H   0  0  0  0  0  0  0  0  0  0  0  0
   56.3700   31.1639   45.7386 H   0  0  0  0  0  0  0  0  0  0  0  0
   57.4262   29.5339   47.7208 H   0  0  0  0  0  0  0  0  0  0  0  0
   59.7234   30.4032   48.1502 H   0  0  0  0  0  0  0  0  0  0  0  0
   61.8920   29.8134   49.1166 H   0  0  0  0  0  0  0  0  0  0  0  0
   62.5297   31.4774   50.8558 H   0  0  0  0  0  0  0  0  0  0  0  0
   63.1278   35.1142   50.0649 H   0  0  0  0  0  0  0  0  0  0  0  0
   62.5559   33.9905   51.3558 H   0  0  0  0  0  0  0  0  0  0  0  0
   65.0651   32.5271   49.2307 H   0  0  0  0  0  0  0  0  0  0  0  0
   67.4373   32.1505   49.9129 H   0  0  0  0  0  0  0  0  0  0  0  0
   68.3459   33.2571   51.9588 H   0  0  0  0  0  0  0  0  0  0  0  0
   66.8859   34.7484   53.3230 H   0  0  0  0  0  0  0  0  0  0  0  0
   64.5181   35.1463   52.6401 H   0  0  0  0  0  0  0  0  0  0  0  0
   62.8607   34.5321   47.7962 H   0  0  0  0  0  0  0  0  0  0  0  0
   62.2124   32.8628   46.0632 H   0  0  0  0  0  0  0  0  0  0  0  0
   61.0009   28.9593   44.2734 H   0  0  0  0  0  0  0  0  0  0  0  0
   58.7328   27.9947   43.8865 H   0  0  0  0  0  0  0  0  0  0  0  0
  1  2  2  0
  2  3  1  0
  3  4  1  0
  4  5  1  0
  5  6  2  0
  6  7  1  0
  7  8  2  0
  8  9  1  0
  9 10  2  0
  2 11  1  0
 11 12  2  0
 12 13  1  0
 13 14  2  0
 14 15  1  0
 15 16  1  0
 16 17  2  0
 17 18  1  0
 18 19  2  0
 19 20  1  0
 20 21  1  0
 21 22  2  0
 22 23  1  0
 23 24  2  0
 24 25  1  0
 25 26  2  0
 19 27  1  0
 27 28  2  0
 14 29  1  0
 29 30  2  0
 10  5  1  0
 30 11  1  0
 28 16  1  0
 26 21  1  0
  4 31  1  0
  4 32  1  0
  6 33  1  0
  7 34  1  0
  8 35  1  0
  9 36  1  0
 10 37  1  0
 12 38  1  0
 13 39  1  0
 17 40  1  0
 18 41  1  0
 20 42  1  0
 20 43  1  0
 22 44  1  0
 23 45  1  0
 24 46  1  0
 25 47  1  0
 26 48  1  0
 27 49  1  0
 28 50  1  0
 29 51  1  0
 30 52  1  0
M  CHG  1   3  -1
M  END
>  <UniqueID>  (44) 
44

>  <SMILES>  (44) 
O=C([N-]Cc1ccccc1)c1ccc(Oc2ccc(Cc3ccccc3)cc2)cc1

>  <Energy>  (44) 
64.97518518163352

>  <Genealogy>  (44) 
O=C([N-]Cc1ccccc1)c1ccc(Oc2ccc(Cc3ccccc3)cc2)cc1 (protonated)
O=C([N-]Cc1ccccc1)c1ccc(Oc2ccc(Cc3ccccc3)cc2)cc1 (3D coordinates assigned)
O=C([N-]Cc1ccccc1)c1ccc(Oc2ccc(Cc3ccccc3)cc2)cc1 (optimized conformer: 64.97518518163352 kcal/mol)

>  <smiles>  (44) 
O=C(NCc1ccccc1)c1ccc(Oc2ccc(Cc3ccccc3)cc2)cc1

>  <score_type>  (44) 
oracle

>  <origin>  (44) 
adg

>  <m_score__min__energy>  (44) 
-10.34

>  <m_primary>  (44) 
energy

$$$$
44:0
     RDKit          3D

 41 43  0  0  0  0  0  0  0  0999 V2000
   58.4401   29.2127   49.0671 H   0  0  0  0  0  0  0  0  0  0  0  0
   59.2030   29.4370   48.3070 C   0  0  0  0  0  0  0  0  0  0  0  0
   60.1660   30.3620   48.5640 N   0  0  0  0  0  0  0  0  0  0  0  0
   61.1280   30.6830   47.6550 C   0  0  0  0  0  0  0  0  0  0  0  0
   62.0240   31.5700   47.9860 N   0  0  0  0  0  0  0  0  0  0  0  0
   61.9650   32.9880   47.7750 C   0  0  0  0  0  0  0  0  0  0  0  0
   62.2270   33.4420   46.6300 O   0  0  0  0  0  0  0  0  0  0  0  0
   61.8330   33.9320   48.9400 C   0  0  0  0  0  0  0  0  0  0  0  0
   62.2617   34.9045   48.6564 H   0  0  0  0  0  0  0  0  0  0  0  0
   62.3675   33.4877   49.7926 H   0  0  0  0  0  0  0  0  0  0  0  0
   60.0900   34.1830   49.4450 S   0  0  0  0  0  0  0  0  0  0  0  0
   59.4210   33.9160   47.8040 C   0  0  0  0  0  0  0  0  0  0  0  0
   59.5650   34.8780   46.8590 N   0  0  0  0  0  0  0  0  0  0  0  0
   59.1260   34.6930   45.5880 C   0  0  0  0  0  0  0  0  0  0  0  0
   59.2810   35.6140   44.7420 O   0  0  0  0  0  0  0  0  0  0  0  0
   58.5160   33.4780   45.2330 C   0  0  0  0  0  0  0  0  0  0  0  0
   58.0690   33.2180   43.9260 C   0  0  0  0  0  0  0  0  0  0  0  0
   58.1815   33.9862   43.1468 H   0  0  0  0  0  0  0  0  0  0  0  0
   57.4780   31.9800   43.6080 C   0  0  0  0  0  0  0  0  0  0  0  0
   57.0250   31.6830   42.3120 O   0  0  0  0  0  0  0  0  0  0  0  0
   57.4560   32.3520   41.1320 C   0  0  0  0  0  0  0  0  0  0  0  0
   58.0327   33.2472   41.4079 H   0  0  0  0  0  0  0  0  0  0  0  0
   58.0892   31.6765   40.5381 H   0  0  0  0  0  0  0  0  0  0  0  0
   56.5792   32.6494   40.5381 H   0  0  0  0  0  0  0  0  0  0  0  0
   57.3310   31.0010   44.6030 C   0  0  0  0  0  0  0  0  0  0  0  0
   56.7390   29.7780   44.2490 O   0  0  0  0  0  0  0  0  0  0  0  0
   57.3940   28.7440   43.5220 C   0  0  0  0  0  0  0  0  0  0  0  0
   57.8461   28.0303   44.2264 H   0  0  0  0  0  0  0  0  0  0  0  0
   56.6623   28.2208   42.8889 H   0  0  0  0  0  0  0  0  0  0  0  0
   58.1797   29.1820   42.8889 H   0  0  0  0  0  0  0  0  0  0  0  0
   57.7740   31.2640   45.9130 C   0  0  0  0  0  0  0  0  0  0  0  0
   57.6546   30.4980   46.6934 H   0  0  0  0  0  0  0  0  0  0  0  0
   58.3660   32.4940   46.2310 C   0  0  0  0  0  0  0  0  0  0  0  0
   58.8120   32.7390   47.4960 N   0  0  0  0  0  0  0  0  0  0  0  0
   58.7140   32.0090   48.2390 H   0  0  0  0  0  0  0  0  0  0  0  0
   61.1420   30.0160   46.4150 C   0  0  0  0  0  0  0  0  0  0  0  0
   61.9210   30.2456   45.6731 H   0  0  0  0  0  0  0  0  0  0  0  0
   60.1630   29.0620   46.1310 C   0  0  0  0  0  0  0  0  0  0  0  0
   60.1657   28.5409   45.1623 H   0  0  0  0  0  0  0  0  0  0  0  0
   59.1810   28.7710   47.0790 C   0  0  0  0  0  0  0  0  0  0  0  0
   57.8380   27.4660   46.7070 Br  0  0  0  0  0  0  0  0  0  0  0  0
  1  2  1  0
  2  3  1  0
  3  4  1  0
  4  5  2  0
  5  6  1  0
  6  7  2  0
  6  8  1  0
  8  9  1  0
  8 10  1  0
  8 11  1  0
 11 12  1  0
 12 13  2  0
 13 14  1  0
 14 15  2  0
 14 16  1  0
 16 17  2  0
 17 18  1  0
 17 19  1  0
 19 20  1  0
 20 21  1  0
 21 22  1  0
 21 23  1  0
 21 24  1  0
 19 25  2  0
 25 26  1  0
 26 27  1  0
 27 28  1  0
 27 29  1  0
 27 30  1  0
 25 31  1  0
 31 32  1  0
 31 33  2  0
 33 34  1  0
 34 35  1  0
  4 36  1  0
 36 37  1  0
 36 38  2  0
 38 39  1  0
 38 40  1  0
 40 41  1  0
 40  2  2  0
 34 12  1  0
 33 16  1  0
M  CHG  1   3  -1
M  END
>  <UniqueID>  (45) 
45

>  <SMILES>  (45) 
COc1cc2[nH]c(SCC(=O)/N=c3\ccc(Br)c[n-]3)nc(=O)c2cc1OC

>  <Energy>  (45) 
51.72972875068883

>  <Genealogy>  (45) 
COc1cc2[nH]c(SCC(=O)N=c3ccc(Br)c[n-]3)nc(=O)c2cc1OC (protonated)
COc1cc2[nH]c(SCC(=O)/N=c3\ccc(Br)c[n-]3)nc(=O)c2cc1OC (cis-trans isomerization)
COc1cc2[nH]c(SCC(=O)/N=c3\ccc(Br)c[n-]3)nc(=O)c2cc1OC (3D coordinates assigned)
COc1cc2[nH]c(SCC(=O)/N=c3\ccc(Br)c[n-]3)nc(=O)c2cc1OC (optimized conformer: 51.72972875068883 kcal/mol)

>  <smiles>  (45) 
COc1cc2[nH]c(SCC(=O)N=c3ccc(Br)c[nH]3)nc(=O)c2cc1OC

>  <score_type>  (45) 
oracle

>  <origin>  (45) 
adg

>  <m_score__min__energy>  (45) 
-9.7100000000000009

>  <m_primary>  (45) 
energy

$$$$
45:0
     RDKit          3D

 20 20  0  0  0  0  0  0  0  0999 V2000
   56.2710   28.5510   45.2180 N   0  0  0  0  0  0  0  0  0  0  0  0
   56.3970   29.7220   44.8630 N   0  0  0  0  0  0  0  0  0  0  0  0
   56.5240   30.8950   44.5070 N   0  0  0  0  0  0  0  0  0  0  0  0
   57.7510   31.3580   43.8700 C   0  0  0  0  0  0  0  0  0  0  0  0
   57.7700   32.8860   43.8000 C   0  0  0  0  0  0  0  0  0  0  0  0
   58.2780   33.4880   45.0840 C   0  0  0  0  0  0  0  0  0  0  0  0
   57.9190   32.9300   46.3220 C   0  0  0  0  0  0  0  0  0  0  0  0
   58.4190   33.4710   47.5110 C   0  0  0  0  0  0  0  0  0  0  0  0
   59.2860   34.5670   47.4710 C   0  0  0  0  0  0  0  0  0  0  0  0
   59.6570   35.1200   46.2430 C   0  0  0  0  0  0  0  0  0  0  0  0
   59.1590   34.5830   45.0520 C   0  0  0  0  0  0  0  0  0  0  0  0
   58.6161   31.0109   44.4540 H   0  0  0  0  0  0  0  0  0  0  0  0
   57.7983   30.9528   42.8484 H   0  0  0  0  0  0  0  0  0  0  0  0
   58.4258   33.1984   42.9740 H   0  0  0  0  0  0  0  0  0  0  0  0
   56.7410   33.2382   43.6355 H   0  0  0  0  0  0  0  0  0  0  0  0
   57.2418   32.0639   46.3566 H   0  0  0  0  0  0  0  0  0  0  0  0
   58.1299   33.0339   48.4781 H   0  0  0  0  0  0  0  0  0  0  0  0
   59.6761   34.9940   48.4067 H   0  0  0  0  0  0  0  0  0  0  0  0
   60.3424   35.9798   46.2130 H   0  0  0  0  0  0  0  0  0  0  0  0
   59.4575   35.0186   44.0870 H   0  0  0  0  0  0  0  0  0  0  0  0
  1  2  2  0
  2  3  2  0
  3  4  1  0
  4  5  1  0
  5  6  1  0
  6  7  2  0
  7  8  1  0
  8  9  2  0
  9 10  1  0
 10 11  2  0
 11  6  1  0
  4 12  1  0
  4 13  1  0
  5 14  1  0
  5 15  1  0
  7 16  1  0
  8 17  1  0
  9 18  1  0
 10 19  1  0
 11 20  1  0
M  CHG  2   1  -1   2   1
M  END
>  <UniqueID>  (46) 
46

>  <SMILES>  (46) 
[N-]=[N+]=NCCc1ccccc1

>  <Energy>  (46) 
13.673632495982872

>  <Genealogy>  (46) 
[N-]=[N+]=NCCc1ccccc1 (3D coordinates assigned)
[N-]=[N+]=NCCc1ccccc1 (optimized conformer: 13.673632495982872 kcal/mol)

>  <smiles>  (46) 
[N-]=[N+]=NCCc1ccccc1

>  <score_type>  (46) 
oracle

>  <origin>  (46) 
adg

>  <m_score__min__energy>  (46) 
-5.2999999999999998

>  <m_primary>  (46) 
energy

$$$$
46:0
     RDKit          3D

 47 49  0  0  0  0  0  0  0  0999 V2000
   60.6870   26.6360   46.4040 C   0  0  0  0  0  0  0  0  0  0  0  0
   59.7270   27.5780   45.7260 C   0  0  0  0  0  0  0  0  0  0  0  0
   58.8640   27.0720   44.7370 C   0  0  0  0  0  0  0  0  0  0  0  0
   57.9460   27.9060   44.1000 C   0  0  0  0  0  0  0  0  0  0  0  0
   57.8790   29.2640   44.4300 C   0  0  0  0  0  0  0  0  0  0  0  0
   56.7360   30.3300   43.6170 S   0  0  0  0  0  0  0  0  0  0  0  0
   56.2820   29.7210   42.3190 O   0  0  0  0  0  0  0  0  0  0  0  0
   55.5290   30.5240   44.4930 O   0  0  0  0  0  0  0  0  0  0  0  0
   57.4900   31.8680   43.2900 N   0  0  0  0  0  0  0  0  0  0  0  0
   57.7200   32.2650   41.8990 C   0  0  0  0  0  0  0  0  0  0  0  0
   57.8870   32.7380   44.3710 C   0  0  0  0  0  0  0  0  0  0  0  0
   58.9100   33.6890   44.1900 C   0  0  0  0  0  0  0  0  0  0  0  0
   59.2960   34.5260   45.2450 C   0  0  0  0  0  0  0  0  0  0  0  0
   58.6700   34.4250   46.4890 C   0  0  0  0  0  0  0  0  0  0  0  0
   59.0460   35.2400   47.5070 F   0  0  0  0  0  0  0  0  0  0  0  0
   57.6570   33.4850   46.6820 C   0  0  0  0  0  0  0  0  0  0  0  0
   57.2680   32.6440   45.6330 C   0  0  0  0  0  0  0  0  0  0  0  0
   58.7390   29.7820   45.4050 C   0  0  0  0  0  0  0  0  0  0  0  0
   59.6720   28.9570   46.0570 C   0  0  0  0  0  0  0  0  0  0  0  0
   60.5770   29.5630   47.0610 C   0  0  0  0  0  0  0  0  0  0  0  0
   60.7870   28.9700   48.1550 O   0  0  0  0  0  0  0  0  0  0  0  0
   61.2290   30.8150   46.7910 N   0  0  0  0  0  0  0  0  0  0  0  0
   62.1310   31.4510   47.7480 C   0  0  0  0  0  0  0  0  0  0  0  0
   61.3480   32.2540   48.7390 C   0  0  0  0  0  0  0  0  0  0  0  0
   59.9740   32.2000   48.9300 C   0  0  0  0  0  0  0  0  0  0  0  0
   59.5230   33.0870   49.9160 C   0  0  0  0  0  0  0  0  0  0  0  0
   60.5350   33.8400   50.4960 C   0  0  0  0  0  0  0  0  0  0  0  0
   61.9940   33.4040   49.7830 S   0  0  0  0  0  0  0  0  0  0  0  0
   60.5875   26.7336   47.4951 H   0  0  0  0  0  0  0  0  0  0  0  0
   60.4583   25.6021   46.1060 H   0  0  0  0  0  0  0  0  0  0  0  0
   61.7164   26.8843   46.1060 H   0  0  0  0  0  0  0  0  0  0  0  0
   58.9139   26.0077   44.4635 H   0  0  0  0  0  0  0  0  0  0  0  0
   57.2715   27.4945   43.3347 H   0  0  0  0  0  0  0  0  0  0  0  0
   58.2713   33.2166   41.8756 H   0  0  0  0  0  0  0  0  0  0  0  0
   58.3079   31.4880   41.3884 H   0  0  0  0  0  0  0  0  0  0  0  0
   56.7536   32.3885   41.3884 H   0  0  0  0  0  0  0  0  0  0  0  0
   59.4093   33.7751   43.2136 H   0  0  0  0  0  0  0  0  0  0  0  0
   60.0956   35.2659   45.0927 H   0  0  0  0  0  0  0  0  0  0  0  0
   57.1627   33.4047   47.6614 H   0  0  0  0  0  0  0  0  0  0  0  0
   56.4716   31.9028   45.7955 H   0  0  0  0  0  0  0  0  0  0  0  0
   58.6841   30.8495   45.6648 H   0  0  0  0  0  0  0  0  0  0  0  0
   61.0230   31.3190   45.9000 H   0  0  0  0  0  0  0  0  0  0  0  0
   62.7031   30.6759   48.2789 H   0  0  0  0  0  0  0  0  0  0  0  0
   62.8173   32.1185   47.2064 H   0  0  0  0  0  0  0  0  0  0  0  0
   59.3085   31.5302   48.3657 H   0  0  0  0  0  0  0  0  0  0  0  0
   58.4653   33.1784   50.2040 H   0  0  0  0  0  0  0  0  0  0  0  0
   60.4046   34.5932   51.2870 H   0  0  0  0  0  0  0  0  0  0  0  0
  1  2  1  0
  2  3  2  0
  3  4  1  0
  4  5  2  0
  5  6  1  0
  6  7  2  0
  6  8  2  0
  6  9  1  0
  9 10  1  0
  9 11  1  0
 11 12  2  0
 12 13  1  0
 13 14  2  0
 14 15  1  0
 14 16  1  0
 16 17  2  0
  5 18  1  0
 18 19  2  0
 19 20  1  0
 20 21  2  0
 20 22  1  0
 22 23  1  0
 23 24  1  0
 24 25  2  0
 25 26  1  0
 26 27  2  0
 27 28  1  0
 19  2  1  0
 28 24  1  0
 17 11  1  0
  1 29  1  0
  1 30  1  0
  1 31  1  0
  3 32  1  0
  4 33  1  0
 10 34  1  0
 10 35  1  0
 10 36  1  0
 12 37  1  0
 13 38  1  0
 16 39  1  0
 17 40  1  0
 18 41  1  0
 22 42  1  0
 23 43  1  0
 23 44  1  0
 25 45  1  0
 26 46  1  0
 27 47  1  0
M  END
>  <UniqueID>  (47) 
47

>  <SMILES>  (47) 
Cc1ccc(S(=O)(=O)N(C)c2ccc(F)cc2)cc1C(=O)NCc1cccs1

>  <Energy>  (47) 
80.78179381987435

>  <Genealogy>  (47) 
Cc1ccc(S(=O)(=O)N(C)c2ccc(F)cc2)cc1C(=O)NCc1cccs1 (3D coordinates assigned)
Cc1ccc(S(=O)(=O)N(C)c2ccc(F)cc2)cc1C(=O)NCc1cccs1 (optimized conformer: 80.78179381987435 kcal/mol)

>  <smiles>  (47) 
Cc1ccc(S(=O)(=O)N(C)c2ccc(F)cc2)cc1C(=O)NCc1cccs1

>  <score_type>  (47) 
oracle

>  <origin>  (47) 
adg

>  <m_score__min__energy>  (47) 
-9.6699999999999999

>  <m_primary>  (47) 
energy

$$$$
47:0
     RDKit          3D

 51 53  0  0  0  0  0  0  0  0999 V2000
   59.7840   34.2880   49.2390 C   0  0  0  0  0  0  0  0  0  0  0  0
   60.5240   33.2200   49.8200 O   0  0  0  0  0  0  0  0  0  0  0  0
   60.1240   31.8740   49.8130 C   0  0  0  0  0  0  0  0  0  0  0  0
   58.8400   31.4710   50.2280 C   0  0  0  0  0  0  0  0  0  0  0  0
   58.4850   30.1200   50.2080 C   0  0  0  0  0  0  0  0  0  0  0  0
   59.4030   29.1610   49.7810 C   0  0  0  0  0  0  0  0  0  0  0  0
   60.6800   29.5480   49.3680 C   0  0  0  0  0  0  0  0  0  0  0  0
   61.0470   30.9090   49.3750 C   0  0  0  0  0  0  0  0  0  0  0  0
   62.3150   31.3470   48.9550 O   0  0  0  0  0  0  0  0  0  0  0  0
   62.6940   31.6050   47.6040 C   0  0  0  0  0  0  0  0  0  0  0  0
   61.6630   32.4450   46.9130 C   0  0  0  0  0  0  0  0  0  0  0  0
   61.9220   33.6510   46.6530 O   0  0  0  0  0  0  0  0  0  0  0  0
   60.3670   31.9000   46.6200 N   0  0  0  0  0  0  0  0  0  0  0  0
   59.3140   32.6790   46.0320 C   0  0  0  0  0  0  0  0  0  0  0  0
   59.4970   34.0630   45.9060 C   0  0  0  0  0  0  0  0  0  0  0  0
   58.5100   34.8590   45.3220 C   0  0  0  0  0  0  0  0  0  0  0  0
   57.3210   34.2820   44.8750 C   0  0  0  0  0  0  0  0  0  0  0  0
   57.1100   32.9090   45.0230 C   0  0  0  0  0  0  0  0  0  0  0  0
   58.0990   32.0890   45.5970 C   0  0  0  0  0  0  0  0  0  0  0  0
   57.8080   30.6510   45.8210 C   0  0  0  0  0  0  0  0  0  0  0  0
   56.7580   30.1550   45.3330 O   0  0  0  0  0  0  0  0  0  0  0  0
   58.7290   29.7730   46.4860 N   0  0  0  0  0  0  0  0  0  0  0  0
   58.7370   28.3370   46.4660 C   0  0  0  0  0  0  0  0  0  0  0  0
   59.9690   27.6710   46.5110 C   0  0  0  0  0  0  0  0  0  0  0  0
   60.0190   26.2750   46.4750 C   0  0  0  0  0  0  0  0  0  0  0  0
   58.8390   25.5330   46.3850 C   0  0  0  0  0  0  0  0  0  0  0  0
   57.6010   26.1860   46.3220 C   0  0  0  0  0  0  0  0  0  0  0  0
   56.1080   25.2650   46.1760 S   0  0  0  0  0  0  0  0  0  0  0  0
   54.7790   26.3500   45.9720 N   0  0  0  0  0  0  0  0  0  0  0  0
   56.1840   24.3400   44.9930 O   0  0  0  0  0  0  0  0  0  0  0  0
   55.9000   24.4440   47.4180 O   0  0  0  0  0  0  0  0  0  0  0  0
   57.5550   27.5860   46.3480 C   0  0  0  0  0  0  0  0  0  0  0  0
   59.3523   34.9111   50.0361 H   0  0  0  0  0  0  0  0  0  0  0  0
   60.4522   34.9007   48.6159 H   0  0  0  0  0  0  0  0  0  0  0  0
   58.9757   33.8776   48.6159 H   0  0  0  0  0  0  0  0  0  0  0  0
   58.1135   32.2232   50.5693 H   0  0  0  0  0  0  0  0  0  0  0  0
   57.4792   29.8120   50.5298 H   0  0  0  0  0  0  0  0  0  0  0  0
   59.1209   28.0978   49.7694 H   0  0  0  0  0  0  0  0  0  0  0  0
   61.4022   28.7876   49.0359 H   0  0  0  0  0  0  0  0  0  0  0  0
   63.6572   32.1363   47.5949 H   0  0  0  0  0  0  0  0  0  0  0  0
   62.7807   30.6456   47.0729 H   0  0  0  0  0  0  0  0  0  0  0  0
   60.1190   30.9670   47.0210 H   0  0  0  0  0  0  0  0  0  0  0  0
   60.4261   34.5257   46.2703 H   0  0  0  0  0  0  0  0  0  0  0  0
   58.6699   35.9420   45.2142 H   0  0  0  0  0  0  0  0  0  0  0  0
   56.5487   34.9090   44.4054 H   0  0  0  0  0  0  0  0  0  0  0  0
   56.1614   32.4645   44.6875 H   0  0  0  0  0  0  0  0  0  0  0  0
   60.9019   28.2503   46.5750 H   0  0  0  0  0  0  0  0  0  0  0  0
   60.9897   25.7593   46.5176 H   0  0  0  0  0  0  0  0  0  0  0  0
   58.8818   24.4340   46.3635 H   0  0  0  0  0  0  0  0  0  0  0  0
   55.1510   27.3150   46.1110 H   0  0  0  0  0  0  0  0  0  0  0  0
   56.5860   28.1015   46.2755 H   0  0  0  0  0  0  0  0  0  0  0  0
  1  2  1  0
  2  3  1  0
  3  4  2  0
  4  5  1  0
  5  6  2  0
  6  7  1  0
  7  8  2  0
  8  9  1  0
  9 10  1  0
 10 11  1  0
 11 12  2  0
 11 13  1  0
 13 14  1  0
 14 15  2  0
 15 16  1  0
 16 17  2  0
 17 18  1  0
 18 19  2  0
 19 20  1  0
 20 21  2  0
 20 22  1  0
 22 23  1  0
 23 24  2  0
 24 25  1  0
 25 26  2  0
 26 27  1  0
 27 28  1  0
 28 29  1  0
 28 30  2  0
 28 31  2  0
 27 32  2  0
  8  3  1  0
 19 14  1  0
 32 23  1  0
  1 33  1  0
  1 34  1  0
  1 35  1  0
  4 36  1  0
  5 37  1  0
  6 38  1  0
  7 39  1  0
 10 40  1  0
 10 41  1  0
 13 42  1  0
 15 43  1  0
 16 44  1  0
 17 45  1  0
 18 46  1  0
 24 47  1  0
 25 48  1  0
 26 49  1  0
 29 50  1  0
 32 51  1  0
M  CHG  2  22  -1  29  -1
M  END
>  <UniqueID>  (48) 
48

>  <SMILES>  (48) 
COc1ccccc1OCC(=O)Nc1ccccc1C(=O)[N-]c1cccc(S([NH-])(=O)=O)c1

>  <Energy>  (48) 
63.68687066351232

>  <Genealogy>  (48) 
COc1ccccc1OCC(=O)Nc1ccccc1C(=O)[N-]c1cccc(S([NH-])(=O)=O)c1 (protonated)
COc1ccccc1OCC(=O)Nc1ccccc1C(=O)[N-]c1cccc(S([NH-])(=O)=O)c1 (3D coordinates assigned)
COc1ccccc1OCC(=O)Nc1ccccc1C(=O)[N-]c1cccc(S([NH-])(=O)=O)c1 (optimized conformer: 63.68687066351232 kcal/mol)

>  <smiles>  (48) 
COc1ccccc1OCC(=O)Nc1ccccc1C(=O)Nc1cccc(S(N)(=O)=O)c1

>  <score_type>  (48) 
oracle

>  <origin>  (48) 
adg

>  <m_score__min__energy>  (48) 
-13.08

>  <m_primary>  (48) 
energy

$$$$
48:0
     RDKit          3D

 64 68  0  0  0  0  0  0  0  0999 V2000
   64.7139   31.8422   47.9257 H   0  0  0  0  0  0  0  0  0  0  0  0
   63.7630   32.3280   48.1900 C   0  0  0  0  0  0  0  0  0  0  0  0
   63.2720   32.2130   49.4450 N   0  0  0  0  0  0  0  0  0  0  0  0
   62.0970   32.7810   49.8140 C   0  0  0  0  0  0  0  0  0  0  0  0
   61.6590   32.6040   51.1320 C   0  0  0  0  0  0  0  0  0  0  0  0
   62.2772   32.0338   51.8410 H   0  0  0  0  0  0  0  0  0  0  0  0
   60.4480   33.1440   51.5510 C   0  0  0  0  0  0  0  0  0  0  0  0
   59.9070   32.9150   53.2040 Cl  0  0  0  0  0  0  0  0  0  0  0  0
   59.6590   33.8550   50.6500 C   0  0  0  0  0  0  0  0  0  0  0  0
   58.6952   34.2705   50.9791 H   0  0  0  0  0  0  0  0  0  0  0  0
   60.0810   34.0450   49.3320 C   0  0  0  0  0  0  0  0  0  0  0  0
   59.4387   34.6024   48.6343 H   0  0  0  0  0  0  0  0  0  0  0  0
   61.3230   33.5320   48.8770 C   0  0  0  0  0  0  0  0  0  0  0  0
   61.8570   33.6910   47.5490 C   0  0  0  0  0  0  0  0  0  0  0  0
   61.3430   34.4050   46.5790 N   0  0  0  0  0  0  0  0  0  0  0  0
   60.0120   34.9510   46.3390 C   0  0  0  0  0  0  0  0  0  0  0  0
   60.0984   36.0025   46.0277 H   0  0  0  0  0  0  0  0  0  0  0  0
   59.4194   34.8879   47.2635 H   0  0  0  0  0  0  0  0  0  0  0  0
   59.3190   34.1490   45.2360 C   0  0  0  0  0  0  0  0  0  0  0  0
   60.0376   33.4312   44.8137 H   0  0  0  0  0  0  0  0  0  0  0  0
   58.9676   34.8565   44.4705 H   0  0  0  0  0  0  0  0  0  0  0  0
   58.1020   33.3790   45.7650 C   0  0  0  0  0  0  0  0  0  0  0  0
   57.4247   33.1509   44.9288 H   0  0  0  0  0  0  0  0  0  0  0  0
   57.5820   33.9978   46.5111 H   0  0  0  0  0  0  0  0  0  0  0  0
   58.5320   32.1240   46.3980 N   0  0  0  0  0  0  0  0  0  0  0  0
   58.3560   31.9590   47.8220 C   0  0  0  0  0  0  0  0  0  0  0  0
   57.5470   32.7040   48.4390 O   0  0  0  0  0  0  0  0  0  0  0  0
   59.0860   30.9210   48.5730 C   0  0  0  0  0  0  0  0  0  0  0  0
   58.5230   30.3620   49.7320 C   0  0  0  0  0  0  0  0  0  0  0  0
   57.5387   30.7051   50.0833 H   0  0  0  0  0  0  0  0  0  0  0  0
   59.2090   29.3710   50.4410 C   0  0  0  0  0  0  0  0  0  0  0  0
   58.7582   28.9286   51.3416 H   0  0  0  0  0  0  0  0  0  0  0  0
   60.4680   28.9410   50.0070 C   0  0  0  0  0  0  0  0  0  0  0  0
   61.3270   27.6980   50.8980 Cl  0  0  0  0  0  0  0  0  0  0  0  0
   61.0430   29.5070   48.8640 C   0  0  0  0  0  0  0  0  0  0  0  0
   62.0350   29.1735   48.5253 H   0  0  0  0  0  0  0  0  0  0  0  0
   60.3580   30.4960   48.1520 C   0  0  0  0  0  0  0  0  0  0  0  0
   60.8166   30.9438   47.2580 H   0  0  0  0  0  0  0  0  0  0  0  0
   59.0760   31.0300   45.5720 C   0  0  0  0  0  0  0  0  0  0  0  0
   60.0181   31.3630   45.1120 H   0  0  0  0  0  0  0  0  0  0  0  0
   59.2458   30.1576   46.2202 H   0  0  0  0  0  0  0  0  0  0  0  0
   58.1080   30.6310   44.4790 C   0  0  0  0  0  0  0  0  0  0  0  0
   57.7830   31.5670   43.4790 C   0  0  0  0  0  0  0  0  0  0  0  0
   58.1996   32.5839   43.5285 H   0  0  0  0  0  0  0  0  0  0  0  0
   56.9370   31.2170   42.4250 C   0  0  0  0  0  0  0  0  0  0  0  0
   56.6920   31.9567   41.6486 H   0  0  0  0  0  0  0  0  0  0  0  0
   56.4020   29.9310   42.3550 C   0  0  0  0  0  0  0  0  0  0  0  0
   55.7353   29.6583   41.5237 H   0  0  0  0  0  0  0  0  0  0  0  0
   56.7110   28.9890   43.3380 C   0  0  0  0  0  0  0  0  0  0  0  0
   56.2895   27.9750   43.2745 H   0  0  0  0  0  0  0  0  0  0  0  0
   57.5560   29.3270   44.4070 C   0  0  0  0  0  0  0  0  0  0  0  0
   57.8720   28.2900   45.4100 C   0  0  0  0  0  0  0  0  0  0  0  0
   59.2090   28.0720   45.7800 C   0  0  0  0  0  0  0  0  0  0  0  0
   60.0112   28.6594   45.3095 H   0  0  0  0  0  0  0  0  0  0  0  0
   59.5230   27.1100   46.7450 C   0  0  0  0  0  0  0  0  0  0  0  0
   60.5707   26.9477   47.0382 H   0  0  0  0  0  0  0  0  0  0  0  0
   58.5080   26.3550   47.3370 C   0  0  0  0  0  0  0  0  0  0  0  0
   58.7562   25.6047   48.1022 H   0  0  0  0  0  0  0  0  0  0  0  0
   57.1770   26.5520   46.9580 C   0  0  0  0  0  0  0  0  0  0  0  0
   56.3804   25.9510   47.4209 H   0  0  0  0  0  0  0  0  0  0  0  0
   56.8550   27.5110   45.9920 C   0  0  0  0  0  0  0  0  0  0  0  0
   55.5280   27.6820   45.6120 O   0  0  0  0  0  0  0  0  0  0  0  0
   63.0690   33.0580   47.2350 C   0  0  0  0  0  0  0  0  0  0  0  0
   63.4755   33.1415   46.2163 H   0  0  0  0  0  0  0  0  0  0  0  0
  1  2  1  0
  2  3  1  0
  3  4  1  0
  4  5  2  0
  5  6  1  0
  5  7  1  0
  7  8  1  0
  7  9  2  0
  9 10  1  0
  9 11  1  0
 11 12  1  0
 11 13  2  0
 13 14  1  0
 14 15  2  0
 15 16  1  0
 16 17  1  0
 16 18  1  0
 16 19  1  0
 19 20  1  0
 19 21  1  0
 19 22  1  0
 22 23  1  0
 22 24  1  0
 22 25  1  0
 25 26  1  0
 26 27  2  0
 26 28  1  0
 28 29  2  0
 29 30  1  0
 29 31  1  0
 31 32  1  0
 31 33  2  0
 33 34  1  0
 33 35  1  0
 35 36  1  0
 35 37  2  0
 37 38  1  0
 25 39  1  0
 39 40  1  0
 39 41  1  0
 39 42  1  0
 42 43  2  0
 43 44  1  0
 43 45  1  0
 45 46  1  0
 45 47  2  0
 47 48  1  0
 47 49  1  0
 49 50  1  0
 49 51  2  0
 51 52  1  0
 52 53  2  0
 53 54  1  0
 53 55  1  0
 55 56  1  0
 55 57  2  0
 57 58  1  0
 57 59  1  0
 59 60  1  0
 59 61  2  0
 61 62  1  0
 14 63  1  0
 63 64  1  0
 63  2  2  0
 13  4  1  0
 37 28  1  0
 51 42  1  0
 61 52  1  0
M  CHG  2   3  -1  62  -1
M  END
>  <UniqueID>  (49) 
49

>  <SMILES>  (49) 
O=C(c1ccc(Cl)cc1)N(CCC/N=c1/cc[n-]c2cc(Cl)ccc12)Cc1ccccc1-c1ccccc1[O-]

>  <Energy>  (49) 
92.80910523314355

>  <Genealogy>  (49) 
O=C(c1ccc(Cl)cc1)N(CCCN=c1cc[n-]c2cc(Cl)ccc12)Cc1ccccc1-c1ccccc1[O-] (protonated)
O=C(c1ccc(Cl)cc1)N(CCC/N=c1/cc[n-]c2cc(Cl)ccc12)Cc1ccccc1-c1ccccc1[O-] (cis-trans isomerization)
O=C(c1ccc(Cl)cc1)N(CCC/N=c1/cc[n-]c2cc(Cl)ccc12)Cc1ccccc1-c1ccccc1[O-] (3D coordinates assigned)
O=C(c1ccc(Cl)cc1)N(CCC/N=c1/cc[n-]c2cc(Cl)ccc12)Cc1ccccc1-c1ccccc1[O-] (optimized conformer: 92.80910523314355 kcal/mol)

>  <smiles>  (49) 
O=C(c1ccc(Cl)cc1)N(CCCN=c1cc[nH]c2cc(Cl)ccc12)Cc1ccccc1-c1ccccc1O

>  <score_type>  (49) 
oracle

>  <origin>  (49) 
adg

>  <m_score__min__energy>  (49) 
-14.6

>  <m_primary>  (49) 
energy

$$$$
49:0
     RDKit          3D

 49 51  0  0  0  0  0  0  0  0999 V2000
   57.2030   33.5680   44.9910 C   0  0  0  0  0  0  0  0  0  0  0  0
   57.5740   32.1290   44.8640 C   0  0  0  0  0  0  0  0  0  0  0  0
   56.9860   31.2110   44.0060 C   0  0  0  0  0  0  0  0  0  0  0  0
   57.6040   29.9550   44.0300 C   0  0  0  0  0  0  0  0  0  0  0  0
   58.6920   29.8870   44.9030 C   0  0  0  0  0  0  0  0  0  0  0  0
   59.6030   28.7430   45.1280 C   0  0  0  0  0  0  0  0  0  0  0  0
   60.5130   28.5360   44.2790 O   0  0  0  0  0  0  0  0  0  0  0  0
   59.4430   27.8350   46.2520 N   0  0  2  0  0  0  0  0  0  0  0  0
   60.3890   28.1450   47.3540 C   0  0  0  0  0  0  0  0  0  0  0  0
   60.1970   29.5100   47.9900 C   0  0  0  0  0  0  0  0  0  0  0  0
   61.1500   30.5210   47.8000 C   0  0  0  0  0  0  0  0  0  0  0  0
   60.9750   31.7800   48.3820 C   0  0  0  0  0  0  0  0  0  0  0  0
   59.8320   32.0650   49.1550 C   0  0  0  0  0  0  0  0  0  0  0  0
   59.6540   33.3690   49.7670 N   0  0  0  0  0  0  0  0  0  0  0  0
   59.3370   33.4860   51.1970 C   0  0  0  0  0  0  0  0  0  0  0  0
   59.7960   34.5920   48.9690 C   0  0  0  0  0  0  0  0  0  0  0  0
   58.8660   31.0510   49.3180 C   0  0  0  0  0  0  0  0  0  0  0  0
   59.0450   29.7920   48.7370 C   0  0  0  0  0  0  0  0  0  0  0  0
   59.5150   26.4230   45.8110 C   0  0  0  0  0  0  0  0  0  0  0  0
   58.2240   25.6990   46.0910 C   0  0  0  0  0  0  0  0  0  0  0  0
   58.2300   24.4060   46.6280 C   0  0  0  0  0  0  0  0  0  0  0  0
   57.0070   23.8050   46.9300 C   0  0  0  0  0  0  0  0  0  0  0  0
   56.9750   22.6400   47.4060 O   0  0  0  0  0  0  0  0  0  0  0  0
   55.8480   24.4790   46.7110 N   0  0  0  0  0  0  0  0  0  0  0  0
   55.8570   25.7360   46.1980 C   0  0  0  0  0  0  0  0  0  0  0  0
   54.7740   26.3470   46.0090 O   0  0  0  0  0  0  0  0  0  0  0  0
   57.0370   26.3380   45.8950 N   0  0  0  0  0  0  0  0  0  0  0  0
   58.8830   31.3980   45.6230 S   0  0  0  0  0  0  0  0  0  0  0  0
   57.1338   33.8362   46.0555 H   0  0  0  0  0  0  0  0  0  0  0  0
   57.9705   34.1888   44.5056 H   0  0  0  0  0  0  0  0  0  0  0  0
   56.2311   33.7403   44.5056 H   0  0  0  0  0  0  0  0  0  0  0  0
   56.1201   31.4466   43.3699 H   0  0  0  0  0  0  0  0  0  0  0  0
   57.2655   29.1042   43.4204 H   0  0  0  0  0  0  0  0  0  0  0  0
   58.4970   27.9710   46.6750 H   0  0  0  0  0  0  0  0  0  0  0  0
   60.2652   27.3819   48.1366 H   0  0  0  0  0  0  0  0  0  0  0  0
   61.3946   28.1488   46.9082 H   0  0  0  0  0  0  0  0  0  0  0  0
   62.0422   30.3219   47.1882 H   0  0  0  0  0  0  0  0  0  0  0  0
   61.7390   32.5576   48.2347 H   0  0  0  0  0  0  0  0  0  0  0  0
   60.2048   33.1657   51.7923 H   0  0  0  0  0  0  0  0  0  0  0  0
   59.0955   34.5325   51.4346 H   0  0  0  0  0  0  0  0  0  0  0  0
   58.4735   32.8473   51.4346 H   0  0  0  0  0  0  0  0  0  0  0  0
   59.8965   35.4579   49.6399 H   0  0  0  0  0  0  0  0  0  0  0  0
   60.6911   34.5139   48.3344 H   0  0  0  0  0  0  0  0  0  0  0  0
   58.9068   34.7211   48.3344 H   0  0  0  0  0  0  0  0  0  0  0  0
   57.9607   31.2529   49.9094 H   0  0  0  0  0  0  0  0  0  0  0  0
   58.2757   29.0166   48.8671 H   0  0  0  0  0  0  0  0  0  0  0  0
   59.7153   26.3944   44.7298 H   0  0  0  0  0  0  0  0  0  0  0  0
   60.3221   25.9246   46.3680 H   0  0  0  0  0  0  0  0  0  0  0  0
   59.1769   23.8759   46.8078 H   0  0  0  0  0  0  0  0  0  0  0  0
  1  2  1  0
  2  3  2  0
  3  4  1  0
  4  5  2  0
  5  6  1  0
  6  7  2  0
  6  8  1  0
  8  9  1  0
  9 10  1  0
 10 11  2  0
 11 12  1  0
 12 13  2  0
 13 14  1  0
 14 15  1  0
 14 16  1  0
 13 17  1  0
 17 18  2  0
  8 19  1  0
 19 20  1  0
 20 21  2  0
 21 22  1  0
 22 23  2  0
 22 24  1  0
 24 25  1  0
 25 26  2  0
 25 27  1  0
  5 28  1  0
 28  2  1  0
 18 10  1  0
 27 20  1  0
  1 29  1  0
  1 30  1  0
  1 31  1  0
  3 32  1  0
  4 33  1  0
  8 34  1  1
  9 35  1  0
  9 36  1  0
 11 37  1  0
 12 38  1  0
 15 39  1  0
 15 40  1  0
 15 41  1  0
 16 42  1  0
 16 43  1  0
 16 44  1  0
 17 45  1  0
 18 46  1  0
 19 47  1  0
 19 48  1  0
 21 49  1  0
M  CHG  3   8   1  24  -1  27  -1
M  END
>  <UniqueID>  (50) 
50

>  <SMILES>  (50) 
Cc1ccc(C(=O)[N@H+](Cc2ccc(N(C)C)cc2)Cc2cc(=O)[n-]c(=O)[n-]2)s1

>  <Energy>  (50) 
83.8170173534615

>  <Genealogy>  (50) 
Cc1ccc(C(=O)[NH+](Cc2ccc(N(C)C)cc2)Cc2cc(=O)[n-]c(=O)[n-]2)s1 (protonated)
Cc1ccc(C(=O)[N@H+](Cc2ccc(N(C)C)cc2)Cc2cc(=O)[n-]c(=O)[n-]2)s1 (chirality)
Cc1ccc(C(=O)[N@H+](Cc2ccc(N(C)C)cc2)Cc2cc(=O)[n-]c(=O)[n-]2)s1 (3D coordinates assigned)
Cc1ccc(C(=O)[N@H+](Cc2ccc(N(C)C)cc2)Cc2cc(=O)[n-]c(=O)[n-]2)s1 (optimized conformer: 83.8170173534615 kcal/mol)

>  <smiles>  (50) 
Cc1ccc(C(=O)N(Cc2ccc(N(C)C)cc2)Cc2cc(=O)[nH]c(=O)[nH]2)s1

>  <score_type>  (50) 
oracle

>  <origin>  (50) 
adg

>  <m_score__min__energy>  (50) 
-10.65

>  <m_primary>  (50) 
energy

$$$$
50:0
     RDKit          3D

 40 43  0  0  0  0  0  0  0  0999 V2000
   52.0540   20.6910   44.9030 H   0  0  0  0  0  0  0  0  0  0  0  0
   52.1310   21.6490   45.3120 N   0  0  0  0  0  0  0  0  0  0  0  0
   53.1570   21.5260   46.6970 S   0  0  0  0  0  0  0  0  0  0  0  0
   53.7170   20.1340   46.7810 O   0  0  0  0  0  0  0  0  0  0  0  0
   52.3580   21.7990   47.9400 O   0  0  0  0  0  0  0  0  0  0  0  0
   54.4680   22.6920   46.5640 C   0  0  0  0  0  0  0  0  0  0  0  0
   54.7040   23.3550   45.3520 C   0  0  0  0  0  0  0  0  0  0  0  0
   54.0732   23.1388   44.4771 H   0  0  0  0  0  0  0  0  0  0  0  0
   55.7380   24.2900   45.2510 C   0  0  0  0  0  0  0  0  0  0  0  0
   55.9081   24.8163   44.3002 H   0  0  0  0  0  0  0  0  0  0  0  0
   56.5590   24.5610   46.3530 C   0  0  0  0  0  0  0  0  0  0  0  0
   57.5850   25.5570   46.2260 N   0  0  0  0  0  0  0  0  0  0  0  0
   57.4250   26.7870   45.8320 C   0  0  0  0  0  0  0  0  0  0  0  0
   56.2020   27.3190   45.6280 N   0  0  0  0  0  0  0  0  0  0  0  0
   56.2820   28.6000   45.1800 C   0  0  0  0  0  0  0  0  0  0  0  0
   55.1440   29.3510   44.9170 O   0  0  0  0  0  0  0  0  0  0  0  0
   57.5740   29.0890   45.0030 C   0  0  0  0  0  0  0  0  0  0  0  0
   57.9570   30.4750   44.5850 C   0  0  0  0  0  0  0  0  0  0  0  0
   58.7384   30.4197   43.8128 H   0  0  0  0  0  0  0  0  0  0  0  0
   57.0712   30.9888   44.1833 H   0  0  0  0  0  0  0  0  0  0  0  0
   58.4770   31.2400   45.7630 C   0  0  0  0  0  0  0  0  0  0  0  0
   58.6030   30.7640   47.0650 C   0  0  0  0  0  0  0  0  0  0  0  0
   58.3915   29.7311   47.3786 H   0  0  0  0  0  0  0  0  0  0  0  0
   59.0220   31.7500   47.8900 N   0  0  0  0  0  0  0  0  0  0  0  0
   59.1930   31.6750   48.9170 H   0  0  0  0  0  0  0  0  0  0  0  0
   59.1510   32.8470   47.1230 C   0  0  0  0  0  0  0  0  0  0  0  0
   59.5400   34.1220   47.5320 C   0  0  0  0  0  0  0  0  0  0  0  0
   59.7980   34.3274   48.5814 H   0  0  0  0  0  0  0  0  0  0  0  0
   59.5920   35.1370   46.5600 C   0  0  0  0  0  0  0  0  0  0  0  0
   59.8980   36.1536   46.8477 H   0  0  0  0  0  0  0  0  0  0  0  0
   59.2540   34.8600   45.2170 C   0  0  0  0  0  0  0  0  0  0  0  0
   59.2974   35.6626   44.4660 H   0  0  0  0  0  0  0  0  0  0  0  0
   58.8620   33.5640   44.8330 C   0  0  0  0  0  0  0  0  0  0  0  0
   58.5959   33.3365   43.7902 H   0  0  0  0  0  0  0  0  0  0  0  0
   58.8220   32.5770   45.8190 C   0  0  0  0  0  0  0  0  0  0  0  0
   58.6570   27.8780   45.4430 S   0  0  0  0  0  0  0  0  0  0  0  0
   56.2950   23.9260   47.5790 C   0  0  0  0  0  0  0  0  0  0  0  0
   56.9050   24.1655   48.4625 H   0  0  0  0  0  0  0  0  0  0  0  0
   55.2600   22.9910   47.6800 C   0  0  0  0  0  0  0  0  0  0  0  0
   55.0671   22.4885   48.6393 H   0  0  0  0  0  0  0  0  0  0  0  0
  1  2  1  0
  2  3  1  0
  3  4  2  0
  3  5  2  0
  3  6  1  0
  6  7  2  0
  7  8  1  0
  7  9  1  0
  9 10  1  0
  9 11  2  0
 11 12  1  0
 12 13  2  0
 13 14  1  0
 14 15  1  0
 15 16  1  0
 15 17  2  0
 17 18  1  0
 18 19  1  0
 18 20  1  0
 18 21  1  0
 21 22  2  0
 22 23  1  0
 22 24  1  0
 24 25  1  0
 24 26  1  0
 26 27  2  0
 27 28  1  0
 27 29  1  0
 29 30  1  0
 29 31  2  0
 31 32  1  0
 31 33  1  0
 33 34  1  0
 33 35  2  0
 17 36  1  0
 11 37  1  0
 37 38  1  0
 37 39  2  0
 39 40  1  0
 39  6  1  0
 36 13  1  0
 35 21  1  0
 35 26  1  0
M  CHG  3   2  -1  14  -1  16  -1
M  END
>  <UniqueID>  (51) 
51

>  <SMILES>  (51) 
[NH-]S(=O)(=O)c1ccc(/N=c2/[n-]c([O-])c(Cc3c[nH]c4ccccc34)s2)cc1

>  <Energy>  (51) 
112.63947441106488

>  <Genealogy>  (51) 
[NH-]S(=O)(=O)c1ccc(N=c2[n-]c([O-])c(Cc3c[nH]c4ccccc34)s2)cc1 (protonated)
[NH-]S(=O)(=O)c1ccc(/N=c2/[n-]c([O-])c(Cc3c[nH]c4ccccc34)s2)cc1 (cis-trans isomerization)
[NH-]S(=O)(=O)c1ccc(/N=c2/[n-]c([O-])c(Cc3c[nH]c4ccccc34)s2)cc1 (3D coordinates assigned)
[NH-]S(=O)(=O)c1ccc(/N=c2/[n-]c([O-])c(Cc3c[nH]c4ccccc34)s2)cc1 (optimized conformer: 112.63947441106488 kcal/mol)

>  <smiles>  (51) 
NS(=O)(=O)c1ccc(N=c2[nH]c(O)c(Cc3c[nH]c4ccccc34)s2)cc1

>  <score_type>  (51) 
oracle

>  <origin>  (51) 
adg

>  <m_score__min__energy>  (51) 
-14.5

>  <m_primary>  (51) 
energy

$$$$
51:0
     RDKit          3D

 30 31  0  0  1  0  0  0  0  0999 V2000
   59.9880   36.0800   45.9350 N   0  0  0  0  0  0  0  0  0  0  0  0
   57.8600   33.2910   45.7010 C   0  0  0  0  0  0  0  0  0  0  0  0
   58.2990   34.5630   45.6040 N   0  0  0  0  0  0  0  0  0  0  0  0
   59.5620   34.8490   46.0290 C   0  0  0  0  0  0  0  0  0  0  0  0
   56.7020   33.0020   45.3170 O   0  0  0  0  0  0  0  0  0  0  0  0
   58.6410   32.2980   46.2090 N   0  0  0  0  0  0  0  0  0  0  0  0
   58.1120   30.9810   46.2800 C   0  0  1  0  0  0  0  0  0  0  0  0
   57.0580   30.6910   45.4640 O   0  0  0  0  0  0  0  0  0  0  0  0
   57.4250   29.9620   44.3710 C   0  0  2  0  0  0  0  0  0  0  0  0
   56.1290   29.3910   43.7780 C   0  0  0  0  0  0  0  0  0  0  0  0
   55.1580   29.5950   44.7850 O   0  0  0  0  0  0  0  0  0  0  0  0
   58.1770   28.7400   44.8870 C   0  0  1  0  0  0  0  0  0  0  0  0
   58.8540   27.9810   43.7950 C   0  0  0  0  0  0  0  0  0  0  0  0
   58.0340   26.8860   43.5200 O   0  0  0  0  0  0  0  0  0  0  0  0
   59.3570   29.6790   45.9090 S   0  0  0  0  0  0  0  0  0  0  0  0
   59.8750   32.5900   46.6210 C   0  0  0  0  0  0  0  0  0  0  0  0
   60.3920   33.8850   46.5480 C   0  0  0  0  0  0  0  0  0  0  0  0
   61.6440   34.1540   46.9730 F   0  0  0  0  0  0  0  0  0  0  0  0
   59.6940   36.7810   46.6490 H   0  0  0  0  0  0  0  0  0  0  0  0
   57.6850   35.3320   45.2080 H   0  0  0  0  0  0  0  0  0  0  0  0
   57.7717   30.9732   47.3260 H   0  0  0  0  0  0  0  0  0  0  0  0
   58.0097   30.5646   43.6604 H   0  0  0  0  0  0  0  0  0  0  0  0
   55.8533   29.9272   42.8579 H   0  0  0  0  0  0  0  0  0  0  0  0
   56.2276   28.3310   43.5011 H   0  0  0  0  0  0  0  0  0  0  0  0
   55.2360   30.4610   45.2230 H   0  0  0  0  0  0  0  0  0  0  0  0
   57.5862   27.9549   45.3816 H   0  0  0  0  0  0  0  0  0  0  0  0
   58.9608   28.6123   42.9005 H   0  0  0  0  0  0  0  0  0  0  0  0
   59.8639   27.6625   44.0928 H   0  0  0  0  0  0  0  0  0  0  0  0
   57.1100   27.1400   43.2940 H   0  0  0  0  0  0  0  0  0  0  0  0
   60.5047   31.7865   47.0307 H   0  0  0  0  0  0  0  0  0  0  0  0
  1  2  2  3
  2  3  1  0
  3  4  1  0
  4  5  2  0
  4  6  1  0
  6  7  1  0
  7  8  1  0
  8  9  1  0
  9 10  1  0
 10 11  1  0
  9 12  1  0
 12 13  1  0
 13 14  1  0
 12 15  1  0
  6 16  1  0
 16 17  2  0
 17 18  1  0
 17  2  1  0
 15  7  1  0
  1 19  1  0
  3 20  1  0
  7 21  1  1
  9 22  1  6
 10 23  1  0
 10 24  1  0
 11 25  1  0
 12 26  1  1
 13 27  1  0
 13 28  1  0
 14 29  1  0
 16 30  1  0
M  END
>  <smiles>  (52) 
N=c1[nH]c(=O)n(C2OC(CO)C(CO)S2)cc1F

>  <score_type>  (52) 
oracle

>  <origin>  (52) 
adg

>  <m_score__min__energy>  (52) 
-6.5800000000000001

>  <m_primary>  (52) 
energy

$$$$
52:0
     RDKit          3D

 45 47  0  0  0  0  0  0  0  0999 V2000
   63.3650   33.8530   46.4420 C   0  0  0  0  0  0  0  0  0  0  0  0
   63.4900   32.6940   47.3450 N   0  0  0  0  0  0  0  0  0  0  0  0
   63.6230   33.1660   48.7320 C   0  0  0  0  0  0  0  0  0  0  0  0
   62.3220   31.7930   47.2210 C   0  0  0  0  0  0  0  0  0  0  0  0
   61.2240   32.1550   48.2290 C   0  0  0  0  0  0  0  0  0  0  0  0
   60.2750   33.1740   47.6670 C   0  0  0  0  0  0  0  0  0  0  0  0
   60.0950   34.4770   48.1210 C   0  0  0  0  0  0  0  0  0  0  0  0
   59.2080   35.1300   47.3340 N   0  0  0  0  0  0  0  0  0  0  0  0
   58.8380   34.2520   46.3850 C   0  0  0  0  0  0  0  0  0  0  0  0
   57.9500   34.4700   45.3350 C   0  0  0  0  0  0  0  0  0  0  0  0
   57.7170   33.4110   44.4390 C   0  0  0  0  0  0  0  0  0  0  0  0
   58.3710   32.1610   44.6000 C   0  0  0  0  0  0  0  0  0  0  0  0
   58.0950   31.1050   43.6630 N   0  0  0  0  0  0  0  0  0  0  0  0
   57.0670   29.7490   44.0070 S   0  0  0  0  0  0  0  0  0  0  0  0
   56.6100   29.1480   42.7070 O   0  0  0  0  0  0  0  0  0  0  0  0
   55.8660   30.2230   44.7750 O   0  0  0  0  0  0  0  0  0  0  0  0
   57.9290   28.5570   44.9790 C   0  0  0  0  0  0  0  0  0  0  0  0
   59.3280   28.6160   45.0710 C   0  0  0  0  0  0  0  0  0  0  0  0
   60.0260   27.6660   45.8240 C   0  0  0  0  0  0  0  0  0  0  0  0
   59.3310   26.6560   46.4940 C   0  0  0  0  0  0  0  0  0  0  0  0
   57.9370   26.5980   46.4170 C   0  0  0  0  0  0  0  0  0  0  0  0
   57.2340   27.5450   45.6640 C   0  0  0  0  0  0  0  0  0  0  0  0
   55.8800   27.4750   45.6100 F   0  0  0  0  0  0  0  0  0  0  0  0
   59.2740   31.9850   45.6780 C   0  0  0  0  0  0  0  0  0  0  0  0
   59.4730   33.0520   46.5510 C   0  0  0  0  0  0  0  0  0  0  0  0
   63.2658   34.7726   47.0373 H   0  0  0  0  0  0  0  0  0  0  0  0
   64.2609   33.9218   45.8075 H   0  0  0  0  0  0  0  0  0  0  0  0
   62.4750   33.7292   45.8075 H   0  0  0  0  0  0  0  0  0  0  0  0
   63.3910   32.3425   49.4234 H   0  0  0  0  0  0  0  0  0  0  0  0
   64.6532   33.5106   48.9048 H   0  0  0  0  0  0  0  0  0  0  0  0
   62.9243   33.9978   48.9048 H   0  0  0  0  0  0  0  0  0  0  0  0
   61.9138   31.8749   46.2028 H   0  0  0  0  0  0  0  0  0  0  0  0
   62.6552   30.7652   47.4275 H   0  0  0  0  0  0  0  0  0  0  0  0
   60.6609   31.2457   48.4860 H   0  0  0  0  0  0  0  0  0  0  0  0
   61.7028   32.5846   49.1213 H   0  0  0  0  0  0  0  0  0  0  0  0
   60.6011   34.9139   48.9945 H   0  0  0  0  0  0  0  0  0  0  0  0
   58.8880   36.1190   47.4410 H   0  0  0  0  0  0  0  0  0  0  0  0
   57.4464   35.4400   45.2101 H   0  0  0  0  0  0  0  0  0  0  0  0
   57.0181   33.5533   43.6016 H   0  0  0  0  0  0  0  0  0  0  0  0
   58.5150   31.1510   42.7070 H   0  0  0  0  0  0  0  0  0  0  0  0
   59.8781   29.4127   44.5488 H   0  0  0  0  0  0  0  0  0  0  0  0
   61.1230   27.7142   45.8887 H   0  0  0  0  0  0  0  0  0  0  0  0
   59.8811   25.9066   47.0820 H   0  0  0  0  0  0  0  0  0  0  0  0
   57.3907   25.8057   46.9498 H   0  0  0  0  0  0  0  0  0  0  0  0
   59.8034   31.0315   45.8214 H   0  0  0  0  0  0  0  0  0  0  0  0
  1  2  1  0
  2  3  1  0
  2  4  1  0
  4  5  1  0
  5  6  1  0
  6  7  2  0
  7  8  1  0
  8  9  1  0
  9 10  2  0
 10 11  1  0
 11 12  2  0
 12 13  1  0
 13 14  1  0
 14 15  2  0
 14 16  2  0
 14 17  1  0
 17 18  2  0
 18 19  1  0
 19 20  2  0
 20 21  1  0
 21 22  2  0
 22 23  1  0
 12 24  1  0
 24 25  2  0
 25  6  1  0
 25  9  1  0
 22 17  1  0
  1 26  1  0
  1 27  1  0
  1 28  1  0
  3 29  1  0
  3 30  1  0
  3 31  1  0
  4 32  1  0
  4 33  1  0
  5 34  1  0
  5 35  1  0
  7 36  1  0
  8 37  1  0
 10 38  1  0
 11 39  1  0
 13 40  1  0
 18 41  1  0
 19 42  1  0
 20 43  1  0
 21 44  1  0
 24 45  1  0
M  END
>  <UniqueID>  (53) 
52

>  <SMILES>  (53) 
CN(C)CCc1c[nH]c2ccc(NS(=O)(=O)c3ccccc3F)cc12

>  <Energy>  (53) 
79.53811251703809

>  <Genealogy>  (53) 
CN(C)CCc1c[nH]c2ccc(NS(=O)(=O)c3ccccc3F)cc12 (3D coordinates assigned)
CN(C)CCc1c[nH]c2ccc(NS(=O)(=O)c3ccccc3F)cc12 (optimized conformer: 79.53811251703809 kcal/mol)

>  <smiles>  (53) 
CN(C)CCc1c[nH]c2ccc(NS(=O)(=O)c3ccccc3F)cc12

>  <score_type>  (53) 
oracle

>  <origin>  (53) 
adg

>  <m_score__min__energy>  (53) 
-9.2100000000000009

>  <m_primary>  (53) 
energy

$$$$
53:0
     RDKit          3D

 41 43  0  0  0  0  0  0  0  0999 V2000
   59.2820   26.5370   48.0030 C   0  0  0  0  0  0  0  0  0  0  0  0
   58.2640   26.4590   47.1340 C   0  0  0  0  0  0  0  0  0  0  0  0
   57.3760   25.3930   47.0520 C   0  0  0  0  0  0  0  0  0  0  0  0
   57.3320   24.2400   47.9210 C   0  0  0  0  0  0  0  0  0  0  0  0
   57.2980   23.3170   48.6180 N   0  0  0  0  0  0  0  0  0  0  0  0
   56.5850   25.6130   45.9360 C   0  0  0  0  0  0  0  0  0  0  0  0
   55.5090   24.7440   45.4230 C   0  0  0  0  0  0  0  0  0  0  0  0
   54.3890   24.7040   46.0010 O   0  0  0  0  0  0  0  0  0  0  0  0
   55.7450   23.9650   44.2870 O   0  0  0  0  0  0  0  0  0  0  0  0
   57.0430   23.7960   43.7250 C   0  0  0  0  0  0  0  0  0  0  0  0
   57.5660   22.3920   44.0270 C   0  0  0  0  0  0  0  0  0  0  0  0
   57.0400   21.3640   43.0280 C   0  0  0  0  0  0  0  0  0  0  0  0
   56.9410   26.7680   45.3450 N   0  0  0  0  0  0  0  0  0  0  0  0
   57.9370   27.3190   46.0720 C   0  0  0  0  0  0  0  0  0  0  0  0
   58.4570   28.5190   45.7460 C   0  0  0  0  0  0  0  0  0  0  0  0
   57.6950   29.6900   45.2850 C   0  0  0  0  0  0  0  0  0  0  0  0
   56.3520   29.7130   44.9310 C   0  0  0  0  0  0  0  0  0  0  0  0
   55.5310   28.5960   44.8460 O   0  0  0  0  0  0  0  0  0  0  0  0
   55.9280   30.9700   44.6820 N   0  0  0  0  0  0  0  0  0  0  0  0
   56.9930   31.7590   44.9090 C   0  0  0  0  0  0  0  0  0  0  0  0
   57.0440   33.1500   44.8290 C   0  0  0  0  0  0  0  0  0  0  0  0
   58.2560   33.7840   45.1580 C   0  0  0  0  0  0  0  0  0  0  0  0
   59.3740   33.0240   45.5690 C   0  0  0  0  0  0  0  0  0  0  0  0
   59.2930   31.6220   45.6480 C   0  0  0  0  0  0  0  0  0  0  0  0
   58.0860   31.0180   45.2940 C   0  0  0  0  0  0  0  0  0  0  0  0
   59.9400   27.4185   48.0017 H   0  0  0  0  0  0  0  0  0  0  0  0
   59.4593   25.7195   48.7173 H   0  0  0  0  0  0  0  0  0  0  0  0
   56.9893   23.9379   42.6355 H   0  0  0  0  0  0  0  0  0  0  0  0
   57.7259   24.5376   44.1652 H   0  0  0  0  0  0  0  0  0  0  0  0
   58.6650   22.4038   43.9805 H   0  0  0  0  0  0  0  0  0  0  0  0
   57.2158   22.1049   45.0295 H   0  0  0  0  0  0  0  0  0  0  0  0
   56.6046   20.5131   43.5724 H   0  0  0  0  0  0  0  0  0  0  0  0
   56.2687   21.8283   42.3959 H   0  0  0  0  0  0  0  0  0  0  0  0
   57.8678   21.0101   42.3959 H   0  0  0  0  0  0  0  0  0  0  0  0
   56.4990   27.1810   44.4920 H   0  0  0  0  0  0  0  0  0  0  0  0
   59.5477   28.6329   45.8323 H   0  0  0  0  0  0  0  0  0  0  0  0
   54.9670   31.2670   44.4010 H   0  0  0  0  0  0  0  0  0  0  0  0
   56.1645   33.7332   44.5185 H   0  0  0  0  0  0  0  0  0  0  0  0
   58.3339   34.8794   45.0948 H   0  0  0  0  0  0  0  0  0  0  0  0
   60.3142   33.5323   45.8290 H   0  0  0  0  0  0  0  0  0  0  0  0
   60.1533   31.0212   45.9781 H   0  0  0  0  0  0  0  0  0  0  0  0
  1  2  2  0
  2  3  1  0
  3  4  1  0
  4  5  3  0
  3  6  2  0
  6  7  1  0
  7  8  2  0
  7  9  1  0
  9 10  1  0
 10 11  1  0
 11 12  1  0
  6 13  1  0
 13 14  1  0
 14 15  2  3
 15 16  1  0
 16 17  2  0
 17 18  1  0
 17 19  1  0
 19 20  1  0
 20 21  2  0
 21 22  1  0
 22 23  2  0
 23 24  1  0
 24 25  2  0
 14  2  1  0
 25 16  1  0
 25 20  1  0
  1 26  1  0
  1 27  1  0
 10 28  1  0
 10 29  1  0
 11 30  1  0
 11 31  1  0
 12 32  1  0
 12 33  1  0
 12 34  1  0
 13 35  1  0
 15 36  1  0
 19 37  1  0
 21 38  1  0
 22 39  1  0
 23 40  1  0
 24 41  1  0
M  CHG  1  18  -1
M  END
>  <UniqueID>  (54) 
53

>  <SMILES>  (54) 
C=c1c(C#N)c(C(=O)OCCC)[nH]c1=Cc1c([O-])[nH]c2ccccc12

>  <Energy>  (54) 
109.5656773534725

>  <Genealogy>  (54) 
C=c1c(C#N)c(C(=O)OCCC)[nH]c1=Cc1c([O-])[nH]c2ccccc12 (protonated)
C=c1c(C#N)c(C(=O)OCCC)[nH]c1=Cc1c([O-])[nH]c2ccccc12 (3D coordinates assigned)
C=c1c(C#N)c(C(=O)OCCC)[nH]c1=Cc1c([O-])[nH]c2ccccc12 (optimized conformer: 109.5656773534725 kcal/mol)

>  <smiles>  (54) 
C=c1c(C#N)c(C(=O)OCCC)[nH]c1=Cc1c(O)[nH]c2ccccc12

>  <score_type>  (54) 
oracle

>  <origin>  (54) 
adg

>  <m_score__min__energy>  (54) 
-11.699999999999999

>  <m_primary>  (54) 
energy

$$$$
54:0
     RDKit          3D

 63 65  0  0  0  0  0  0  0  0999 V2000
   63.1080   33.8180   46.7340 C   0  0  0  0  0  0  0  0  0  0  0  0
   62.5410   33.4060   48.0900 C   0  0  0  0  0  0  0  0  0  0  0  0
   61.6750   34.4180   48.6030 O   0  0  0  0  0  0  0  0  0  0  0  0
   60.3210   34.2090   48.8960 C   0  0  0  0  0  0  0  0  0  0  0  0
   59.8670   34.5170   50.0290 O   0  0  0  0  0  0  0  0  0  0  0  0
   59.4170   33.6490   47.8640 C   0  0  0  0  0  0  0  0  0  0  0  0
   58.6150   32.5150   47.9780 C   0  0  0  0  0  0  0  0  0  0  0  0
   58.5210   31.6030   49.1650 C   0  0  0  0  0  0  0  0  0  0  0  0
   57.8630   32.3600   46.8700 N   0  0  0  0  0  0  0  0  0  0  0  0
   58.1750   33.3710   46.0350 C   0  0  0  0  0  0  0  0  0  0  0  0
   57.4560   33.6130   44.7340 C   0  0  0  0  0  0  0  0  0  0  0  0
   57.6250   32.4360   43.7620 C   0  0  0  0  0  0  0  0  0  0  0  0
   57.3680   31.1160   44.4280 C   0  0  0  0  0  0  0  0  0  0  0  0
   56.2120   30.8440   44.8590 O   0  0  0  0  0  0  0  0  0  0  0  0
   58.4260   30.1510   44.5140 N   0  0  0  0  0  0  0  0  0  0  0  0
   58.4260   28.9840   45.3490 C   0  0  0  0  0  0  0  0  0  0  0  0
   57.4490   27.9810   45.2100 C   0  0  0  0  0  0  0  0  0  0  0  0
   57.4390   26.8730   46.0710 C   0  0  0  0  0  0  0  0  0  0  0  0
   56.1780   25.6430   45.9340 S   0  0  0  0  0  0  0  0  0  0  0  0
   56.2700   24.7300   47.1290 O   0  0  0  0  0  0  0  0  0  0  0  0
   54.8480   26.3440   46.0030 O   0  0  0  0  0  0  0  0  0  0  0  0
   56.2360   24.7050   44.4420 N   0  0  0  0  0  0  0  0  0  0  0  0
   55.2100   23.6360   44.3770 C   0  0  0  0  0  0  0  0  0  0  0  0
   55.5960   22.3990   45.1970 C   0  0  0  0  0  0  0  0  0  0  0  0
   56.9380   21.8520   44.7120 C   0  0  0  0  0  0  0  0  0  0  0  0
   58.0170   22.9280   44.8070 C   0  0  0  0  0  0  0  0  0  0  0  0
   57.5960   24.2280   44.0890 C   0  0  0  0  0  0  0  0  0  0  0  0
   58.4350   26.7520   47.0510 C   0  0  0  0  0  0  0  0  0  0  0  0
   59.3960   27.7530   47.2070 C   0  0  0  0  0  0  0  0  0  0  0  0
   59.3840   28.8750   46.3720 C   0  0  0  0  0  0  0  0  0  0  0  0
   60.5930   30.1290   46.6170 Cl  0  0  0  0  0  0  0  0  0  0  0  0
   59.1460   34.1850   46.6080 C   0  0  0  0  0  0  0  0  0  0  0  0
   59.7080   35.4550   46.0320 C   0  0  0  0  0  0  0  0  0  0  0  0
   63.9895   34.4585   46.8845 H   0  0  0  0  0  0  0  0  0  0  0  0
   63.3995   32.9196   46.1702 H   0  0  0  0  0  0  0  0  0  0  0  0
   62.3436   34.3728   46.1702 H   0  0  0  0  0  0  0  0  0  0  0  0
   61.9746   32.4701   47.9753 H   0  0  0  0  0  0  0  0  0  0  0  0
   63.3745   33.2637   48.7935 H   0  0  0  0  0  0  0  0  0  0  0  0
   58.5822   32.1965   50.0891 H   0  0  0  0  0  0  0  0  0  0  0  0
   57.5625   31.0639   49.1382 H   0  0  0  0  0  0  0  0  0  0  0  0
   59.3494   30.8797   49.1382 H   0  0  0  0  0  0  0  0  0  0  0  0
   57.1420   31.6190   46.7060 H   0  0  0  0  0  0  0  0  0  0  0  0
   56.3847   33.7538   44.9400 H   0  0  0  0  0  0  0  0  0  0  0  0
   57.8893   34.5088   44.2652 H   0  0  0  0  0  0  0  0  0  0  0  0
   56.9161   32.5580   42.9298 H   0  0  0  0  0  0  0  0  0  0  0  0
   58.6646   32.4386   43.4025 H   0  0  0  0  0  0  0  0  0  0  0  0
   56.6876   28.0661   44.4207 H   0  0  0  0  0  0  0  0  0  0  0  0
   55.9710   25.3900   43.6930 H   0  0  0  0  0  0  0  0  0  0  0  0
   54.2609   24.0342   44.7652 H   0  0  0  0  0  0  0  0  0  0  0  0
   55.1189   23.3245   43.3260 H   0  0  0  0  0  0  0  0  0  0  0  0
   55.6770   22.6757   46.2585 H   0  0  0  0  0  0  0  0  0  0  0  0
   54.8233   21.6261   45.0723 H   0  0  0  0  0  0  0  0  0  0  0  0
   57.2264   20.9934   45.3362 H   0  0  0  0  0  0  0  0  0  0  0  0
   56.8374   21.5392   43.6622 H   0  0  0  0  0  0  0  0  0  0  0  0
   58.2041   23.1518   45.8676 H   0  0  0  0  0  0  0  0  0  0  0  0
   58.9247   22.5458   44.3171 H   0  0  0  0  0  0  0  0  0  0  0  0
   58.3170   25.0162   44.3517 H   0  0  0  0  0  0  0  0  0  0  0  0
   57.5827   24.0041   43.0121 H   0  0  0  0  0  0  0  0  0  0  0  0
   58.4593   25.8641   47.6999 H   0  0  0  0  0  0  0  0  0  0  0  0
   60.1644   27.6589   47.9885 H   0  0  0  0  0  0  0  0  0  0  0  0
   60.0058   36.1281   46.8495 H   0  0  0  0  0  0  0  0  0  0  0  0
   60.5860   35.2196   45.4125 H   0  0  0  0  0  0  0  0  0  0  0  0
   58.9433   35.9465   45.4125 H   0  0  0  0  0  0  0  0  0  0  0  0
  1  2  1  0
  2  3  1  0
  3  4  1  0
  4  5  2  0
  4  6  1  0
  6  7  2  0
  7  8  1  0
  7  9  1  0
  9 10  1  0
 10 11  1  0
 11 12  1  0
 12 13  1  0
 13 14  2  0
 13 15  1  0
 15 16  1  0
 16 17  2  0
 17 18  1  0
 18 19  1  0
 19 20  2  0
 19 21  2  0
 19 22  1  0
 22 23  1  0
 23 24  1  0
 24 25  1  0
 25 26  1  0
 26 27  1  0
 18 28  2  0
 28 29  1  0
 29 30  2  0
 30 31  1  0
 10 32  2  0
 32 33  1  0
 32  6  1  0
 30 16  1  0
 27 22  1  0
  1 34  1  0
  1 35  1  0
  1 36  1  0
  2 37  1  0
  2 38  1  0
  8 39  1  0
  8 40  1  0
  8 41  1  0
  9 42  1  0
 11 43  1  0
 11 44  1  0
 12 45  1  0
 12 46  1  0
 17 47  1  0
 22 48  1  0
 23 49  1  0
 23 50  1  0
 24 51  1  0
 24 52  1  0
 25 53  1  0
 25 54  1  0
 26 55  1  0
 26 56  1  0
 27 57  1  0
 27 58  1  0
 28 59  1  0
 29 60  1  0
 33 61  1  0
 33 62  1  0
 33 63  1  0
M  CHG  2  15  -1  22   1
M  END
>  <UniqueID>  (55) 
54

>  <SMILES>  (55) 
CCOC(=O)c1c(C)[nH]c(CCC(=O)[N-]c2cc(S(=O)(=O)[NH+]3CCCCC3)ccc2Cl)c1C

>  <Energy>  (55) 
85.81206965872157

>  <Genealogy>  (55) 
CCOC(=O)c1c(C)[nH]c(CCC(=O)[N-]c2cc(S(=O)(=O)[NH+]3CCCCC3)ccc2Cl)c1C (protonated)
CCOC(=O)c1c(C)[nH]c(CCC(=O)[N-]c2cc(S(=O)(=O)[NH+]3CCCCC3)ccc2Cl)c1C (3D coordinates assigned)
CCOC(=O)c1c(C)[nH]c(CCC(=O)[N-]c2cc(S(=O)(=O)[NH+]3CCCCC3)ccc2Cl)c1C (nonaromatic ring conformer: 85.81206965872157 kcal/mol)

>  <smiles>  (55) 
CCOC(=O)c1c(C)[nH]c(CCC(=O)Nc2cc(S(=O)(=O)N3CCCCC3)ccc2Cl)c1C

>  <score_type>  (55) 
oracle

>  <origin>  (55) 
adg

>  <m_score__min__energy>  (55) 
-10.5

>  <m_primary>  (55) 
energy

$$$$
55:0
     RDKit          3D

 44 46  0  0  0  0  0  0  0  0999 V2000
   57.4800   31.9710   41.8350 C   0  0  0  0  0  0  0  0  0  0  0  0
   57.1120   31.6440   43.1700 O   0  0  0  0  0  0  0  0  0  0  0  0
   57.6370   32.2640   44.3120 C   0  0  0  0  0  0  0  0  0  0  0  0
   57.7700   33.6690   44.4170 C   0  0  0  0  0  0  0  0  0  0  0  0
   58.2800   34.2550   45.5930 C   0  0  0  0  0  0  0  0  0  0  0  0
   58.6700   33.4560   46.6770 C   0  0  0  0  0  0  0  0  0  0  0  0
   58.5500   32.0690   46.5530 C   0  0  0  0  0  0  0  0  0  0  0  0
   58.0460   31.4920   45.4100 C   0  0  0  0  0  0  0  0  0  0  0  0
   58.0190   30.1200   45.6300 C   0  0  0  0  0  0  0  0  0  0  0  0
   57.5120   29.0570   44.6930 C   0  0  0  0  0  0  0  0  0  0  0  0
   56.1270   28.6410   45.0720 C   0  0  0  0  0  0  0  0  0  0  0  0
   55.1560   29.4210   44.8780 O   0  0  0  0  0  0  0  0  0  0  0  0
   55.9000   27.3860   45.6230 O   0  0  0  0  0  0  0  0  0  0  0  0
   58.4820   29.9380   46.9390 C   0  0  0  0  0  0  0  0  0  0  0  0
   58.5650   28.6250   47.6620 C   0  0  0  0  0  0  0  0  0  0  0  0
   58.8370   31.1330   47.4810 N   0  0  0  0  0  0  0  0  0  0  0  0
   59.4890   31.4320   49.0710 S   0  0  0  0  0  0  0  0  0  0  0  0
   58.5080   32.2120   49.9000 O   0  0  0  0  0  0  0  0  0  0  0  0
   59.7310   30.1090   49.7420 O   0  0  0  0  0  0  0  0  0  0  0  0
   61.0030   32.3430   48.9500 C   0  0  0  0  0  0  0  0  0  0  0  0
   61.2120   33.4280   49.8190 C   0  0  0  0  0  0  0  0  0  0  0  0
   62.3930   34.1700   49.7560 C   0  0  0  0  0  0  0  0  0  0  0  0
   63.3800   33.8390   48.8280 C   0  0  0  0  0  0  0  0  0  0  0  0
   63.1940   32.7580   47.9660 C   0  0  0  0  0  0  0  0  0  0  0  0
   62.0160   31.9910   48.0220 C   0  0  0  0  0  0  0  0  0  0  0  0
   61.8520   30.8410   47.0650 C   0  0  0  0  0  0  0  0  0  0  0  0
   58.3022   32.7016   41.8498 H   0  0  0  0  0  0  0  0  0  0  0  0
   57.8077   31.0607   41.3116 H   0  0  0  0  0  0  0  0  0  0  0  0
   56.6146   32.4035   41.3116 H   0  0  0  0  0  0  0  0  0  0  0  0
   57.4727   34.3093   43.5734 H   0  0  0  0  0  0  0  0  0  0  0  0
   58.3729   35.3490   45.6609 H   0  0  0  0  0  0  0  0  0  0  0  0
   59.0601   33.9087   47.6005 H   0  0  0  0  0  0  0  0  0  0  0  0
   57.5027   29.4535   43.6670 H   0  0  0  0  0  0  0  0  0  0  0  0
   58.1756   28.1820   44.7558 H   0  0  0  0  0  0  0  0  0  0  0  0
   58.5538   28.8028   48.7475 H   0  0  0  0  0  0  0  0  0  0  0  0
   57.7047   27.9984   47.3841 H   0  0  0  0  0  0  0  0  0  0  0  0
   59.4974   28.1117   47.3841 H   0  0  0  0  0  0  0  0  0  0  0  0
   60.4388   33.6946   50.5546 H   0  0  0  0  0  0  0  0  0  0  0  0
   62.5454   35.0178   50.4401 H   0  0  0  0  0  0  0  0  0  0  0  0
   64.3058   34.4307   48.7757 H   0  0  0  0  0  0  0  0  0  0  0  0
   63.9759   32.5029   47.2355 H   0  0  0  0  0  0  0  0  0  0  0  0
   61.7190   29.9080   47.6323 H   0  0  0  0  0  0  0  0  0  0  0  0
   60.9694   31.0140   46.4316 H   0  0  0  0  0  0  0  0  0  0  0  0
   62.7477   30.7605   46.4316 H   0  0  0  0  0  0  0  0  0  0  0  0
  1  2  1  0
  2  3  1  0
  3  4  2  0
  4  5  1  0
  5  6  2  0
  6  7  1  0
  7  8  2  0
  8  9  1  0
  9 10  1  0
 10 11  1  0
 11 12  2  0
 11 13  1  0
  9 14  2  0
 14 15  1  0
 14 16  1  0
 16 17  1  0
 17 18  2  0
 17 19  2  0
 17 20  1  0
 20 21  2  0
 21 22  1  0
 22 23  2  0
 23 24  1  0
 24 25  2  0
 25 26  1  0
  8  3  1  0
 25 20  1  0
 16  7  1  0
  1 27  1  0
  1 28  1  0
  1 29  1  0
  4 30  1  0
  5 31  1  0
  6 32  1  0
 10 33  1  0
 10 34  1  0
 15 35  1  0
 15 36  1  0
 15 37  1  0
 21 38  1  0
 22 39  1  0
 23 40  1  0
 24 41  1  0
 26 42  1  0
 26 43  1  0
 26 44  1  0
M  CHG  1  13  -1
M  END
>  <UniqueID>  (56) 
55

>  <SMILES>  (56) 
COc1cccc2c1c(CC(=O)[O-])c(C)n2S(=O)(=O)c1ccccc1C

>  <Energy>  (56) 
81.90549626312757

>  <Genealogy>  (56) 
COc1cccc2c1c(CC(=O)[O-])c(C)n2S(=O)(=O)c1ccccc1C (protonated)
COc1cccc2c1c(CC(=O)[O-])c(C)n2S(=O)(=O)c1ccccc1C (3D coordinates assigned)
COc1cccc2c1c(CC(=O)[O-])c(C)n2S(=O)(=O)c1ccccc1C (optimized conformer: 81.90549626312757 kcal/mol)

>  <smiles>  (56) 
COc1cccc2c1c(CC(=O)O)c(C)n2S(=O)(=O)c1ccccc1C

>  <score_type>  (56) 
oracle

>  <origin>  (56) 
adg

>  <m_score__min__energy>  (56) 
-11.35

>  <m_primary>  (56) 
energy

$$$$
56:0
     RDKit          3D

 34 35  0  0  0  0  0  0  0  0999 V2000
   58.9940   25.7290   45.5100 O   0  0  0  0  0  0  0  0  0  0  0  0
   57.8330   26.0460   45.1310 C   0  0  0  0  0  0  0  0  0  0  0  0
   57.5950   27.3380   44.5480 N   0  0  0  0  0  0  0  0  0  0  0  0
   58.4120   28.5000   44.7770 C   0  0  0  0  0  0  0  0  0  0  0  0
   59.3330   28.6270   46.1370 S   0  0  0  0  0  0  0  0  0  0  0  0
   58.2390   29.6560   43.9390 N   0  0  0  0  0  0  0  0  0  0  0  0
   57.1560   30.5030   44.4590 C   0  0  0  0  0  0  0  0  0  0  0  0
   57.7160   31.7750   45.0410 C   0  0  0  0  0  0  0  0  0  0  0  0
   57.7540   32.9510   44.2720 C   0  0  0  0  0  0  0  0  0  0  0  0
   58.2470   34.1370   44.8250 C   0  0  0  0  0  0  0  0  0  0  0  0
   58.6930   34.1610   46.1490 C   0  0  0  0  0  0  0  0  0  0  0  0
   58.6430   33.0000   46.9250 C   0  0  0  0  0  0  0  0  0  0  0  0
   58.1520   31.8110   46.3760 C   0  0  0  0  0  0  0  0  0  0  0  0
   56.7420   25.0480   45.2300 C   0  0  0  0  0  0  0  0  0  0  0  0
   57.0100   23.6970   44.9390 C   0  0  0  0  0  0  0  0  0  0  0  0
   55.9960   22.7390   45.0200 C   0  0  0  0  0  0  0  0  0  0  0  0
   54.7070   23.1130   45.3990 C   0  0  0  0  0  0  0  0  0  0  0  0
   54.4290   24.4460   45.7070 C   0  0  0  0  0  0  0  0  0  0  0  0
   55.4380   25.4130   45.6330 C   0  0  0  0  0  0  0  0  0  0  0  0
   55.1370   26.7250   45.9890 O   0  0  0  0  0  0  0  0  0  0  0  0
   56.8130   27.4230   43.8600 H   0  0  0  0  0  0  0  0  0  0  0  0
   59.1310   30.2020   43.9000 H   0  0  0  0  0  0  0  0  0  0  0  0
   58.0030   29.3370   42.9700 H   0  0  0  0  0  0  0  0  0  0  0  0
   56.4660   30.7526   43.6395 H   0  0  0  0  0  0  0  0  0  0  0  0
   56.6225   29.9542   45.2491 H   0  0  0  0  0  0  0  0  0  0  0  0
   57.3949   32.9383   43.2323 H   0  0  0  0  0  0  0  0  0  0  0  0
   58.2838   35.0527   44.2166 H   0  0  0  0  0  0  0  0  0  0  0  0
   59.0837   35.0943   46.5806 H   0  0  0  0  0  0  0  0  0  0  0  0
   58.9901   33.0212   47.9686 H   0  0  0  0  0  0  0  0  0  0  0  0
   58.1071   30.9007   46.9918 H   0  0  0  0  0  0  0  0  0  0  0  0
   58.0256   23.3931   44.6455 H   0  0  0  0  0  0  0  0  0  0  0  0
   56.2150   21.6871   44.7842 H   0  0  0  0  0  0  0  0  0  0  0  0
   53.9093   22.3577   45.4552 H   0  0  0  0  0  0  0  0  0  0  0  0
   53.4123   24.7376   46.0092 H   0  0  0  0  0  0  0  0  0  0  0  0
  1  2  2  0
  2  3  1  0
  3  4  1  0
  4  5  2  0
  4  6  1  0
  6  7  1  0
  7  8  1  0
  8  9  2  0
  9 10  1  0
 10 11  2  0
 11 12  1  0
 12 13  2  0
  2 14  1  0
 14 15  2  0
 15 16  1  0
 16 17  2  0
 17 18  1  0
 18 19  2  0
 19 20  1  0
 13  8  1  0
 19 14  1  0
  3 21  1  0
  6 22  1  0
  6 23  1  0
  7 24  1  0
  7 25  1  0
  9 26  1  0
 10 27  1  0
 11 28  1  0
 12 29  1  0
 13 30  1  0
 15 31  1  0
 16 32  1  0
 17 33  1  0
 18 34  1  0
M  CHG  2   6   1  20  -1
M  END
>  <UniqueID>  (57) 
56

>  <SMILES>  (57) 
O=C(NC(=S)[NH2+]Cc1ccccc1)c1ccccc1[O-]

>  <Energy>  (57) 
40.00139021017077

>  <Genealogy>  (57) 
O=C(NC(=S)[NH2+]Cc1ccccc1)c1ccccc1[O-] (protonated)
O=C(NC(=S)[NH2+]Cc1ccccc1)c1ccccc1[O-] (3D coordinates assigned)
O=C(NC(=S)[NH2+]Cc1ccccc1)c1ccccc1[O-] (optimized conformer: 40.00139021017077 kcal/mol)

>  <smiles>  (57) 
O=C(NC(=S)NCc1ccccc1)c1ccccc1O

>  <score_type>  (57) 
oracle

>  <origin>  (57) 
adg

>  <m_score__min__energy>  (57) 
-10.73

>  <m_primary>  (57) 
energy

$$$$
57:0
     RDKit          3D

 40 42  0  0  0  0  0  0  0  0999 V2000
   58.9070   33.3610   45.1300 O   0  0  0  0  0  0  0  0  0  0  0  0
   58.8510   32.1340   45.4130 C   0  0  0  0  0  0  0  0  0  0  0  0
   59.7000   31.5840   46.4380 N   0  0  0  0  0  0  0  0  0  0  0  0
   60.6820   32.3420   47.1640 C   0  0  0  0  0  0  0  0  0  0  0  0
   62.0240   31.9340   47.1310 C   0  0  0  0  0  0  0  0  0  0  0  0
   63.0030   32.6680   47.8090 C   0  0  0  0  0  0  0  0  0  0  0  0
   62.6510   33.8220   48.5130 C   0  0  0  0  0  0  0  0  0  0  0  0
   61.3210   34.2480   48.5320 C   0  0  0  0  0  0  0  0  0  0  0  0
   60.3390   33.5180   47.8550 C   0  0  0  0  0  0  0  0  0  0  0  0
   57.9250   31.2900   44.7040 N   0  0  0  0  0  0  0  0  0  0  0  0
   57.6020   31.6170   43.4170 C   0  0  0  0  0  0  0  0  0  0  0  0
   56.7160   30.8290   42.6830 C   0  0  0  0  0  0  0  0  0  0  0  0
   56.1490   29.7030   43.2710 C   0  0  0  0  0  0  0  0  0  0  0  0
   56.4640   29.3730   44.5980 C   0  0  0  0  0  0  0  0  0  0  0  0
   55.8900   28.2310   45.2530 N   0  0  0  0  0  0  0  0  0  0  0  0
   56.7550   26.7970   45.7070 S   0  0  0  0  0  0  0  0  0  0  0  0
   55.9300   26.0120   46.6870 O   0  0  0  0  0  0  0  0  0  0  0  0
   56.9910   25.9530   44.4850 O   0  0  0  0  0  0  0  0  0  0  0  0
   58.2790   27.2360   46.4720 C   0  0  0  0  0  0  0  0  0  0  0  0
   58.3460   27.4710   47.8530 C   0  0  0  0  0  0  0  0  0  0  0  0
   59.5610   27.8240   48.4470 C   0  0  0  0  0  0  0  0  0  0  0  0
   60.7140   27.9440   47.6640 C   0  0  0  0  0  0  0  0  0  0  0  0
   60.6540   27.7090   46.2880 C   0  0  0  0  0  0  0  0  0  0  0  0
   59.4400   27.3560   45.6910 C   0  0  0  0  0  0  0  0  0  0  0  0
   57.3560   30.1950   45.3080 C   0  0  0  0  0  0  0  0  0  0  0  0
   57.6070   29.9280   46.5170 O   0  0  0  0  0  0  0  0  0  0  0  0
   59.5570   30.5880   46.7170 H   0  0  0  0  0  0  0  0  0  0  0  0
   62.3079   31.0321   46.5689 H   0  0  0  0  0  0  0  0  0  0  0  0
   64.0515   32.3360   47.7877 H   0  0  0  0  0  0  0  0  0  0  0  0
   63.4204   34.3945   49.0518 H   0  0  0  0  0  0  0  0  0  0  0  0
   61.0452   35.1604   49.0811 H   0  0  0  0  0  0  0  0  0  0  0  0
   59.2951   33.8646   47.8629 H   0  0  0  0  0  0  0  0  0  0  0  0
   58.0456   32.5113   42.9551 H   0  0  0  0  0  0  0  0  0  0  0  0
   56.4670   31.0962   41.6454 H   0  0  0  0  0  0  0  0  0  0  0  0
   55.4547   29.0722   42.6965 H   0  0  0  0  0  0  0  0  0  0  0  0
   57.4403   27.3773   48.4701 H   0  0  0  0  0  0  0  0  0  0  0  0
   59.6106   28.0075   49.5305 H   0  0  0  0  0  0  0  0  0  0  0  0
   61.6692   28.2238   48.1323 H   0  0  0  0  0  0  0  0  0  0  0  0
   61.5621   27.8017   45.6742 H   0  0  0  0  0  0  0  0  0  0  0  0
   59.3942   27.1719   44.6075 H   0  0  0  0  0  0  0  0  0  0  0  0
  1  2  2  0
  2  3  1  0
  3  4  1  0
  4  5  2  0
  5  6  1  0
  6  7  2  0
  7  8  1  0
  8  9  2  0
  2 10  1  0
 10 11  1  0
 11 12  2  0
 12 13  1  0
 13 14  2  0
 14 15  1  0
 15 16  1  0
 16 17  2  0
 16 18  2  0
 16 19  1  0
 19 20  2  0
 20 21  1  0
 21 22  2  0
 22 23  1  0
 23 24  2  0
 14 25  1  0
 25 26  2  0
  9  4  1  0
 25 10  1  0
 24 19  1  0
  3 27  1  0
  5 28  1  0
  6 29  1  0
  7 30  1  0
  8 31  1  0
  9 32  1  0
 11 33  1  0
 12 34  1  0
 13 35  1  0
 20 36  1  0
 21 37  1  0
 22 38  1  0
 23 39  1  0
 24 40  1  0
M  CHG  1  15  -1
M  END
>  <UniqueID>  (58) 
57

>  <SMILES>  (58) 
O=C(Nc1ccccc1)n1cccc([N-]S(=O)(=O)c2ccccc2)c1=O

>  <Energy>  (58) 
57.65979518415768

>  <Genealogy>  (58) 
O=C(Nc1ccccc1)n1cccc([N-]S(=O)(=O)c2ccccc2)c1=O (protonated)
O=C(Nc1ccccc1)n1cccc([N-]S(=O)(=O)c2ccccc2)c1=O (3D coordinates assigned)
O=C(Nc1ccccc1)n1cccc([N-]S(=O)(=O)c2ccccc2)c1=O (optimized conformer: 57.65979518415768 kcal/mol)

>  <smiles>  (58) 
O=C(Nc1ccccc1)n1cccc(NS(=O)(=O)c2ccccc2)c1=O

>  <score_type>  (58) 
oracle

>  <origin>  (58) 
adg

>  <m_score__min__energy>  (58) 
-10.93

>  <m_primary>  (58) 
energy

$$$$
58:0
     RDKit          3D

 40 42  0  0  0  0  0  0  0  0999 V2000
   62.6330   33.8240   46.7220 C   0  0  0  0  0  0  0  0  0  0  0  0
   61.6820   32.6750   47.0710 C   0  0  1  0  0  0  0  0  0  0  0  0
   62.1910   31.8690   48.2800 C   0  0  0  0  0  0  0  0  0  0  0  0
   62.0620   32.6070   49.4820 O   0  0  0  0  0  0  0  0  0  0  0  0
   60.6940   32.8360   49.7610 C   0  0  0  0  0  0  0  0  0  0  0  0
   60.0720   33.7480   48.7010 C   0  0  0  0  0  0  0  0  0  0  0  0
   60.3470   33.2030   47.3680 N   0  0  0  0  0  0  0  0  0  0  0  0
   59.3020   33.1120   46.3890 C   0  0  0  0  0  0  0  0  0  0  0  0
   58.8390   34.2560   45.8170 N   0  0  0  0  0  0  0  0  0  0  0  0
   57.8720   34.2330   44.8660 C   0  0  0  0  0  0  0  0  0  0  0  0
   57.3400   33.0510   44.4630 N   0  0  0  0  0  0  0  0  0  0  0  0
   57.7530   31.8770   45.0050 C   0  0  0  0  0  0  0  0  0  0  0  0
   57.1770   30.6740   44.5800 C   0  0  0  0  0  0  0  0  0  0  0  0
   57.5790   29.4500   45.1470 C   0  0  0  0  0  0  0  0  0  0  0  0
   57.0080   28.1930   44.7400 N   0  0  0  0  0  0  0  0  0  0  0  0
   56.7590   26.8360   45.7940 S   0  0  0  0  0  0  0  0  0  0  0  0
   57.5360   25.3840   45.1190 C   0  0  0  0  0  0  0  0  0  0  0  0
   57.3860   27.1370   47.1260 O   0  0  0  0  0  0  0  0  0  0  0  0
   55.2890   26.6020   45.9960 O   0  0  0  0  0  0  0  0  0  0  0  0
   58.5550   29.4570   46.1560 C   0  0  0  0  0  0  0  0  0  0  0  0
   59.1370   30.6550   46.5830 C   0  0  0  0  0  0  0  0  0  0  0  0
   58.7530   31.8730   46.0010 C   0  0  0  0  0  0  0  0  0  0  0  0
   63.0113   34.2811   47.6483 H   0  0  0  0  0  0  0  0  0  0  0  0
   63.4772   33.4354   46.1336 H   0  0  0  0  0  0  0  0  0  0  0  0
   62.0934   34.5807   46.1336 H   0  0  0  0  0  0  0  0  0  0  0  0
   61.6353   32.0034   46.2011 H   0  0  0  0  0  0  0  0  0  0  0  0
   61.6056   30.9416   48.3644 H   0  0  0  0  0  0  0  0  0  0  0  0
   63.2563   31.6440   48.1235 H   0  0  0  0  0  0  0  0  0  0  0  0
   60.1607   31.8739   49.7678 H   0  0  0  0  0  0  0  0  0  0  0  0
   60.6099   33.3254   50.7426 H   0  0  0  0  0  0  0  0  0  0  0  0
   58.9846   33.8041   48.8574 H   0  0  0  0  0  0  0  0  0  0  0  0
   60.5057   34.7556   48.7828 H   0  0  0  0  0  0  0  0  0  0  0  0
   57.5181   35.1744   44.4204 H   0  0  0  0  0  0  0  0  0  0  0  0
   56.4044   30.6853   43.7971 H   0  0  0  0  0  0  0  0  0  0  0  0
   56.6510   28.0960   43.7620 H   0  0  0  0  0  0  0  0  0  0  0  0
   57.8816   24.7381   45.9396 H   0  0  0  0  0  0  0  0  0  0  0  0
   56.8114   24.8345   44.5001 H   0  0  0  0  0  0  0  0  0  0  0  0
   58.3952   25.6820   44.5001 H   0  0  0  0  0  0  0  0  0  0  0  0
   58.8661   28.5079   46.6168 H   0  0  0  0  0  0  0  0  0  0  0  0
   59.8979   30.6425   47.3773 H   0  0  0  0  0  0  0  0  0  0  0  0
  1  2  1  0
  2  3  1  0
  3  4  1  0
  4  5  1  0
  5  6  1  0
  6  7  1  0
  7  8  1  0
  8  9  2  0
  9 10  1  0
 10 11  2  0
 11 12  1  0
 12 13  2  0
 13 14  1  0
 14 15  1  0
 15 16  1  0
 16 17  1  0
 16 18  2  0
 16 19  2  0
 14 20  2  0
 20 21  1  0
 21 22  2  0
  7  2  1  0
 22  8  1  0
 22 12  1  0
  1 23  1  0
  1 24  1  0
  1 25  1  0
  2 26  1  6
  3 27  1  0
  3 28  1  0
  5 29  1  0
  5 30  1  0
  6 31  1  0
  6 32  1  0
 10 33  1  0
 13 34  1  0
 15 35  1  0
 17 36  1  0
 17 37  1  0
 17 38  1  0
 20 39  1  0
 21 40  1  0
M  END
>  <UniqueID>  (59) 
58

>  <SMILES>  (59) 
C[C@H]1COCCN1c1ncnc2cc(NS(C)(=O)=O)ccc12

>  <Energy>  (59) 
49.78596312468711

>  <Genealogy>  (59) 
C[C@H]1COCCN1c1ncnc2cc(NS(C)(=O)=O)ccc12 (chirality)
C[C@H]1COCCN1c1ncnc2cc(NS(C)(=O)=O)ccc12 (3D coordinates assigned)
C[C@H]1COCCN1c1ncnc2cc(NS(C)(=O)=O)ccc12 (nonaromatic ring conformer: 49.78596312468711 kcal/mol)

>  <smiles>  (59) 
CC1COCCN1c1ncnc2cc(NS(C)(=O)=O)ccc12

>  <score_type>  (59) 
oracle

>  <origin>  (59) 
adg

>  <m_score__min__energy>  (59) 
-7.6299999999999999

>  <m_primary>  (59) 
energy

$$$$
59:0
     RDKit          3D

 47 50  0  0  0  0  0  0  0  0999 V2000
   56.8457   20.9447   41.7503 H   0  0  0  0  0  0  0  0  0  0  0  0
   56.9450   21.5210   42.6820 C   0  0  0  0  0  0  0  0  0  0  0  0
   57.9240   21.1750   43.6160 C   0  0  0  0  0  0  0  0  0  0  0  0
   58.5966   20.3275   43.4178 H   0  0  0  0  0  0  0  0  0  0  0  0
   58.0510   21.9040   44.8030 C   0  0  0  0  0  0  0  0  0  0  0  0
   58.8292   21.6338   45.5320 H   0  0  0  0  0  0  0  0  0  0  0  0
   57.1870   22.9810   45.0670 C   0  0  0  0  0  0  0  0  0  0  0  0
   57.3450   23.7890   46.3250 C   0  0  0  0  0  0  0  0  0  0  0  0
   58.4079   23.8218   46.6063 H   0  0  0  0  0  0  0  0  0  0  0  0
   56.7611   23.3213   47.1314 H   0  0  0  0  0  0  0  0  0  0  0  0
   56.8490   25.1790   46.1020 C   0  0  0  0  0  0  0  0  0  0  0  0
   55.5600   25.5530   46.2240 N   0  0  0  0  0  0  0  0  0  0  0  0
   55.5250   26.8540   45.9820 N   0  0  0  0  0  0  0  0  0  0  0  0
   56.7970   27.2150   45.7220 C   0  0  0  0  0  0  0  0  0  0  0  0
   57.1840   28.4250   45.4450 N   0  0  0  0  0  0  0  0  0  0  0  0
   56.3870   29.4430   44.8190 C   0  0  0  0  0  0  0  0  0  0  0  0
   55.1350   29.3850   44.9390 O   0  0  0  0  0  0  0  0  0  0  0  0
   56.9830   30.5780   44.0710 C   0  0  0  0  0  0  0  0  0  0  0  0
   56.8520   30.6180   42.6740 C   0  0  0  0  0  0  0  0  0  0  0  0
   56.3192   29.8092   42.1524 H   0  0  0  0  0  0  0  0  0  0  0  0
   57.3930   31.6770   41.9410 C   0  0  0  0  0  0  0  0  0  0  0  0
   57.2904   31.6974   40.8460 H   0  0  0  0  0  0  0  0  0  0  0  0
   58.0630   32.7080   42.5980 C   0  0  0  0  0  0  0  0  0  0  0  0
   58.4977   33.5360   42.0188 H   0  0  0  0  0  0  0  0  0  0  0  0
   58.1840   32.6930   43.9880 C   0  0  0  0  0  0  0  0  0  0  0  0
   58.7126   33.5114   44.4987 H   0  0  0  0  0  0  0  0  0  0  0  0
   57.6340   31.6370   44.7430 C   0  0  0  0  0  0  0  0  0  0  0  0
   57.7040   31.6110   46.1460 O   0  0  0  0  0  0  0  0  0  0  0  0
   58.1770   32.6690   46.9800 C   0  0  0  0  0  0  0  0  0  0  0  0
   57.8277   33.6307   46.5761 H   0  0  0  0  0  0  0  0  0  0  0  0
   57.7874   32.5179   47.9975 H   0  0  0  0  0  0  0  0  0  0  0  0
   59.6850   32.6730   47.0340 C   0  0  0  0  0  0  0  0  0  0  0  0
   60.3680   31.5310   47.4890 C   0  0  0  0  0  0  0  0  0  0  0  0
   59.7990   30.6447   47.8063 H   0  0  0  0  0  0  0  0  0  0  0  0
   61.7640   31.5140   47.5410 C   0  0  0  0  0  0  0  0  0  0  0  0
   62.2895   30.6134   47.8914 H   0  0  0  0  0  0  0  0  0  0  0  0
   62.4930   32.6380   47.1490 C   0  0  0  0  0  0  0  0  0  0  0  0
   63.5922   32.6208   47.1868 H   0  0  0  0  0  0  0  0  0  0  0  0
   61.8280   33.7840   46.7090 C   0  0  0  0  0  0  0  0  0  0  0  0
   62.4059   34.6696   46.4063 H   0  0  0  0  0  0  0  0  0  0  0  0
   60.4290   33.8120   46.6510 C   0  0  0  0  0  0  0  0  0  0  0  0
   59.6440   35.2910   46.1060 Cl  0  0  0  0  0  0  0  0  0  0  0  0
   57.6190   26.1990   45.8010 O   0  0  0  0  0  0  0  0  0  0  0  0
   56.2130   23.3310   44.1160 C   0  0  0  0  0  0  0  0  0  0  0  0
   55.5441   24.1836   44.3051 H   0  0  0  0  0  0  0  0  0  0  0  0
   56.0910   22.6000   42.9310 C   0  0  0  0  0  0  0  0  0  0  0  0
   55.3223   22.8738   42.1933 H   0  0  0  0  0  0  0  0  0  0  0  0
  1  2  1  0
  2  3  2  0
  3  4  1  0
  3  5  1  0
  5  6  1  0
  5  7  2  0
  7  8  1  0
  8  9  1  0
  8 10  1  0
  8 11  1  0
 11 12  2  0
 12 13  1  0
 13 14  1  0
 14 15  2  0
 15 16  1  0
 16 17  2  0
 16 18  1  0
 18 19  2  0
 19 20  1  0
 19 21  1  0
 21 22  1  0
 21 23  2  0
 23 24  1  0
 23 25  1  0
 25 26  1  0
 25 27  2  0
 27 28  1  0
 28 29  1  0
 29 30  1  0
 29 31  1  0
 29 32  1  0
 32 33  2  0
 33 34  1  0
 33 35  1  0
 35 36  1  0
 35 37  2  0
 37 38  1  0
 37 39  1  0
 39 40  1  0
 39 41  2  0
 41 42  1  0
 14 43  1  0
  7 44  1  0
 44 45  1  0
 44 46  2  0
 46 47  1  0
 46  2  1  0
 43 11  1  0
 27 18  1  0
 41 32  1  0
M  CHG  1  13  -1
M  END
>  <UniqueID>  (60) 
59

>  <SMILES>  (60) 
O=C(/N=c1\[n-]nc(Cc2ccccc2)o1)c1ccccc1OCc1ccccc1Cl

>  <Energy>  (60) 
94.09518436670102

>  <Genealogy>  (60) 
O=C(N=c1[n-]nc(Cc2ccccc2)o1)c1ccccc1OCc1ccccc1Cl (protonated)
O=C(/N=c1\[n-]nc(Cc2ccccc2)o1)c1ccccc1OCc1ccccc1Cl (cis-trans isomerization)
O=C(/N=c1\[n-]nc(Cc2ccccc2)o1)c1ccccc1OCc1ccccc1Cl (3D coordinates assigned)
O=C(/N=c1\[n-]nc(Cc2ccccc2)o1)c1ccccc1OCc1ccccc1Cl (optimized conformer: 94.09518436670102 kcal/mol)

>  <smiles>  (60) 
O=C(N=c1[nH]nc(Cc2ccccc2)o1)c1ccccc1OCc1ccccc1Cl

>  <score_type>  (60) 
oracle

>  <origin>  (60) 
adg

>  <m_score__min__energy>  (60) 
-12.15

>  <m_primary>  (60) 
energy

$$$$
60:0
     RDKit          3D

 35 36  0  0  0  0  0  0  0  0999 V2000
   56.2310   31.3750   44.2620 N   0  0  0  0  0  0  0  0  0  0  0  0
   56.6510   29.6990   44.2180 S   0  0  0  0  0  0  0  0  0  0  0  0
   55.5750   28.9050   44.9060 O   0  0  0  0  0  0  0  0  0  0  0  0
   56.7560   29.2420   42.7900 O   0  0  0  0  0  0  0  0  0  0  0  0
   58.2050   29.4620   45.0250 C   0  0  0  0  0  0  0  0  0  0  0  0
   59.0020   28.3560   44.6890 C   0  0  0  0  0  0  0  0  0  0  0  0
   60.2310   28.1530   45.3220 C   0  0  0  0  0  0  0  0  0  0  0  0
   60.6730   29.0520   46.2930 C   0  0  0  0  0  0  0  0  0  0  0  0
   59.8900   30.1560   46.6350 C   0  0  0  0  0  0  0  0  0  0  0  0
   58.6490   30.3730   46.0060 C   0  0  0  0  0  0  0  0  0  0  0  0
   57.8250   31.5010   46.3400 N   0  0  0  0  0  0  0  0  0  0  0  0
   58.0280   33.1160   45.7430 S   0  0  0  0  0  0  0  0  0  0  0  0
   56.6720   33.6560   45.3900 O   0  0  0  0  0  0  0  0  0  0  0  0
   58.8900   33.0890   44.5120 O   0  0  0  0  0  0  0  0  0  0  0  0
   58.7580   34.1130   47.0050 C   0  0  0  0  0  0  0  0  0  0  0  0
   60.0110   34.5810   46.9700 C   0  0  0  0  0  0  0  0  0  0  0  0
   61.2120   33.7860   47.2880 C   0  0  0  0  0  0  0  0  0  0  0  0
   62.3550   33.8370   46.4730 C   0  0  0  0  0  0  0  0  0  0  0  0
   63.4720   33.0520   46.7770 C   0  0  0  0  0  0  0  0  0  0  0  0
   63.4500   32.2000   47.8840 C   0  0  0  0  0  0  0  0  0  0  0  0
   62.3040   32.1240   48.6840 C   0  0  0  0  0  0  0  0  0  0  0  0
   61.1850   32.9060   48.3810 C   0  0  0  0  0  0  0  0  0  0  0  0
   57.1140   31.9150   44.1140 H   0  0  0  0  0  0  0  0  0  0  0  0
   55.9090   31.5850   45.2340 H   0  0  0  0  0  0  0  0  0  0  0  0
   58.6570   27.6455   43.9233 H   0  0  0  0  0  0  0  0  0  0  0  0
   60.8503   27.2841   45.0546 H   0  0  0  0  0  0  0  0  0  0  0  0
   61.6408   28.8905   46.7903 H   0  0  0  0  0  0  0  0  0  0  0  0
   60.2449   30.8612   47.4010 H   0  0  0  0  0  0  0  0  0  0  0  0
   58.1405   34.3664   47.8793 H   0  0  0  0  0  0  0  0  0  0  0  0
   60.1557   35.6332   46.6838 H   0  0  0  0  0  0  0  0  0  0  0  0
   62.3716   34.4965   45.5928 H   0  0  0  0  0  0  0  0  0  0  0  0
   64.3695   33.1056   46.1433 H   0  0  0  0  0  0  0  0  0  0  0  0
   64.3323   31.5896   48.1266 H   0  0  0  0  0  0  0  0  0  0  0  0
   62.2836   31.4485   49.5519 H   0  0  0  0  0  0  0  0  0  0  0  0
   60.2800   32.8311   49.0018 H   0  0  0  0  0  0  0  0  0  0  0  0
  1  2  1  0
  2  3  2  0
  2  4  2  0
  2  5  1  0
  5  6  2  0
  6  7  1  0
  7  8  2  0
  8  9  1  0
  9 10  2  0
 10 11  1  0
 11 12  1  0
 12 13  2  0
 12 14  2  0
 12 15  1  0
 15 16  2  3
 16 17  1  0
 17 18  2  0
 18 19  1  0
 19 20  2  0
 20 21  1  0
 21 22  2  0
 10  5  1  0
 22 17  1  0
  1 23  1  0
  1 24  1  0
  6 25  1  0
  7 26  1  0
  8 27  1  0
  9 28  1  0
 15 29  1  0
 16 30  1  0
 18 31  1  0
 19 32  1  0
 20 33  1  0
 21 34  1  0
 22 35  1  0
M  CHG  1  11  -1
M  END
>  <UniqueID>  (61) 
60

>  <SMILES>  (61) 
NS(=O)(=O)c1ccccc1[N-]S(=O)(=O)C=Cc1ccccc1

>  <Energy>  (61) 
45.331586457061675

>  <Genealogy>  (61) 
NS(=O)(=O)c1ccccc1[N-]S(=O)(=O)C=Cc1ccccc1 (protonated)
NS(=O)(=O)c1ccccc1[N-]S(=O)(=O)C=Cc1ccccc1 (3D coordinates assigned)
NS(=O)(=O)c1ccccc1[N-]S(=O)(=O)C=Cc1ccccc1 (optimized conformer: 45.331586457061675 kcal/mol)

>  <smiles>  (61) 
NS(=O)(=O)c1ccccc1NS(=O)(=O)C=Cc1ccccc1

>  <score_type>  (61) 
oracle

>  <origin>  (61) 
adg

>  <m_score__min__energy>  (61) 
-8.9600000000000009

>  <m_primary>  (61) 
energy

$$$$
61:0
     RDKit          3D

 38 40  0  0  0  0  0  0  0  0999 V2000
   59.6940   35.6150   46.3860 N   0  0  0  0  0  0  0  0  0  0  0  0
   58.9390   34.5360   45.8300 C   0  0  0  0  0  0  0  0  0  0  0  0
   59.1790   34.1100   44.5150 C   0  0  0  0  0  0  0  0  0  0  0  0
   58.4410   33.0550   43.9690 C   0  0  0  0  0  0  0  0  0  0  0  0
   57.4610   32.4060   44.7370 C   0  0  0  0  0  0  0  0  0  0  0  0
   56.6390   31.2990   44.1370 C   0  0  0  0  0  0  0  0  0  0  0  0
   56.9700   30.0020   44.8020 C   0  0  0  0  0  0  0  0  0  0  0  0
   56.0390   29.0380   45.0350 N   0  0  0  0  0  0  0  0  0  0  0  0
   56.7770   28.0610   45.5800 C   0  0  0  0  0  0  0  0  0  0  0  0
   56.3760   26.8200   46.0400 C   0  0  0  0  0  0  0  0  0  0  0  0
   55.1690   26.4600   45.9810 O   0  0  0  0  0  0  0  0  0  0  0  0
   57.3280   25.9930   46.5640 N   0  0  0  0  0  0  0  0  0  0  0  0
   58.6460   26.3760   46.6340 C   0  0  0  0  0  0  0  0  0  0  0  0
   59.4930   25.5790   47.1240 O   0  0  0  0  0  0  0  0  0  0  0  0
   59.0400   27.6170   46.1760 N   0  0  0  0  0  0  0  0  0  0  0  0
   60.4440   28.0550   46.2530 C   0  0  0  0  0  0  0  0  0  0  0  0
   60.6980   28.9630   47.4680 C   0  0  0  0  0  0  0  0  0  0  0  0
   60.4390   30.4490   47.1850 C   0  0  0  0  0  0  0  0  0  0  0  0
   59.3010   31.2540   48.5370 Br  0  0  0  0  0  0  0  0  0  0  0  0
   58.0760   28.4280   45.6530 C   0  0  0  0  0  0  0  0  0  0  0  0
   58.2390   29.6650   45.1580 N   0  0  0  0  0  0  0  0  0  0  0  0
   57.2120   32.8430   46.0480 C   0  0  0  0  0  0  0  0  0  0  0  0
   57.9510   33.8970   46.5920 C   0  0  0  0  0  0  0  0  0  0  0  0
   60.6920   35.7640   46.1170 H   0  0  0  0  0  0  0  0  0  0  0  0
   59.2600   36.2730   47.0720 H   0  0  0  0  0  0  0  0  0  0  0  0
   59.9513   34.6082   43.9106 H   0  0  0  0  0  0  0  0  0  0  0  0
   58.6289   32.7325   42.9343 H   0  0  0  0  0  0  0  0  0  0  0  0
   55.5708   31.5196   44.2792 H   0  0  0  0  0  0  0  0  0  0  0  0
   56.8631   31.2228   43.0628 H   0  0  0  0  0  0  0  0  0  0  0  0
   57.0480   25.0490   46.9170 H   0  0  0  0  0  0  0  0  0  0  0  0
   61.0891   27.1675   46.3317 H   0  0  0  0  0  0  0  0  0  0  0  0
   60.6704   28.6319   45.3442 H   0  0  0  0  0  0  0  0  0  0  0  0
   60.0358   28.6436   48.2862 H   0  0  0  0  0  0  0  0  0  0  0  0
   61.7617   28.8636   47.7301 H   0  0  0  0  0  0  0  0  0  0  0  0
   61.4016   30.9810   47.1673 H   0  0  0  0  0  0  0  0  0  0  0  0
   59.9255   30.5276   46.2154 H   0  0  0  0  0  0  0  0  0  0  0  0
   56.4318   32.3535   46.6495 H   0  0  0  0  0  0  0  0  0  0  0  0
   57.7565   34.2268   47.6232 H   0  0  0  0  0  0  0  0  0  0  0  0
  1  2  1  0
  2  3  2  0
  3  4  1  0
  4  5  2  0
  5  6  1  0
  6  7  1  0
  7  8  2  0
  8  9  1  0
  9 10  1  0
 10 11  2  0
 10 12  1  0
 12 13  1  0
 13 14  2  0
 13 15  1  0
 15 16  1  0
 16 17  1  0
 17 18  1  0
 18 19  1  0
 15 20  1  0
 20 21  1  0
  5 22  1  0
 22 23  2  0
 23  2  1  0
 21  7  1  0
 20  9  2  0
  1 24  1  0
  1 25  1  0
  3 26  1  0
  4 27  1  0
  6 28  1  0
  6 29  1  0
 12 30  1  0
 16 31  1  0
 16 32  1  0
 17 33  1  0
 17 34  1  0
 18 35  1  0
 18 36  1  0
 22 37  1  0
 23 38  1  0
M  CHG  1  21  -1
M  END
>  <UniqueID>  (62) 
61

>  <SMILES>  (62) 
Nc1ccc(Cc2nc3c(=O)[nH]c(=O)n(CCCBr)c3[n-]2)cc1

>  <Energy>  (62) 
72.75886791731125

>  <Genealogy>  (62) 
Nc1ccc(Cc2nc3c(=O)[nH]c(=O)n(CCCBr)c3[n-]2)cc1 (protonated)
Nc1ccc(Cc2nc3c(=O)[nH]c(=O)n(CCCBr)c3[n-]2)cc1 (3D coordinates assigned)
Nc1ccc(Cc2nc3c(=O)[nH]c(=O)n(CCCBr)c3[n-]2)cc1 (optimized conformer: 72.75886791731125 kcal/mol)

>  <smiles>  (62) 
Nc1ccc(Cc2nc3c(=O)[nH]c(=O)n(CCCBr)c3[nH]2)cc1

>  <score_type>  (62) 
oracle

>  <origin>  (62) 
adg

>  <m_score__min__energy>  (62) 
-8.5700000000000003

>  <m_primary>  (62) 
energy

$$$$
62:0
     RDKit          3D

 43 45  0  0  0  0  0  0  0  0999 V2000
   63.7920   32.8200   47.0930 N   0  0  0  0  0  0  0  0  0  0  0  0
   62.0850   32.9590   47.3060 S   0  0  0  0  0  0  0  0  0  0  0  0
   61.8030   33.9640   48.3870 O   0  0  0  0  0  0  0  0  0  0  0  0
   61.4540   33.4280   46.0260 O   0  0  0  0  0  0  0  0  0  0  0  0
   61.4280   31.3890   47.7540 C   0  0  0  0  0  0  0  0  0  0  0  0
   61.3370   31.0120   49.1010 C   0  0  0  0  0  0  0  0  0  0  0  0
   60.8750   29.7400   49.4470 C   0  0  0  0  0  0  0  0  0  0  0  0
   60.5160   28.8200   48.4480 C   0  0  0  0  0  0  0  0  0  0  0  0
   60.0370   27.4480   48.8280 C   0  0  0  0  0  0  0  0  0  0  0  0
   58.9940   27.0120   47.9080 N   0  0  0  0  0  0  0  0  0  0  0  0
   59.2890   26.2880   46.6980 C   0  0  0  0  0  0  0  0  0  0  0  0
   60.4330   25.7900   46.5130 O   0  0  0  0  0  0  0  0  0  0  0  0
   58.2500   26.1510   45.6280 C   0  0  0  0  0  0  0  0  0  0  0  0
   57.5560   27.4640   45.4310 C   0  0  0  0  0  0  0  0  0  0  0  0
   58.2920   28.8790   44.8880 S   0  0  0  0  0  0  0  0  0  0  0  0
   56.8310   29.7310   44.8440 C   0  0  0  0  0  0  0  0  0  0  0  0
   56.6770   30.9820   44.5240 N   0  0  0  0  0  0  0  0  0  0  0  0
   57.3560   32.1140   45.0900 C   0  0  0  0  0  0  0  0  0  0  0  0
   57.7840   32.1340   46.4330 C   0  0  0  0  0  0  0  0  0  0  0  0
   58.4760   33.2400   46.9330 C   0  0  0  0  0  0  0  0  0  0  0  0
   58.7770   34.3160   46.0930 C   0  0  0  0  0  0  0  0  0  0  0  0
   59.6540   35.6970   46.7230 Cl  0  0  0  0  0  0  0  0  0  0  0  0
   58.3920   34.2820   44.7460 C   0  0  0  0  0  0  0  0  0  0  0  0
   57.6920   33.1820   44.2480 C   0  0  0  0  0  0  0  0  0  0  0  0
   55.7920   28.9670   45.2450 N   0  0  0  0  0  0  0  0  0  0  0  0
   56.1890   27.7070   45.5590 C   0  0  0  0  0  0  0  0  0  0  0  0
   55.2810   26.7410   45.9760 O   0  0  0  0  0  0  0  0  0  0  0  0
   60.5800   29.2090   47.1010 C   0  0  0  0  0  0  0  0  0  0  0  0
   61.0390   30.4840   46.7560 C   0  0  0  0  0  0  0  0  0  0  0  0
   64.0470   31.8250   47.2950 H   0  0  0  0  0  0  0  0  0  0  0  0
   61.6307   31.7210   49.8891 H   0  0  0  0  0  0  0  0  0  0  0  0
   60.7919   29.4574   50.5068 H   0  0  0  0  0  0  0  0  0  0  0  0
   60.8799   26.7426   48.7839 H   0  0  0  0  0  0  0  0  0  0  0  0
   59.6288   27.4778   49.8490 H   0  0  0  0  0  0  0  0  0  0  0  0
   58.0230   27.3760   48.0650 H   0  0  0  0  0  0  0  0  0  0  0  0
   58.7314   25.8465   44.6870 H   0  0  0  0  0  0  0  0  0  0  0  0
   57.5144   25.3902   45.9281 H   0  0  0  0  0  0  0  0  0  0  0  0
   57.5726   31.2767   47.0890 H   0  0  0  0  0  0  0  0  0  0  0  0
   58.7842   33.2641   47.9887 H   0  0  0  0  0  0  0  0  0  0  0  0
   58.6414   35.1222   44.0812 H   0  0  0  0  0  0  0  0  0  0  0  0
   57.4022   33.1535   43.1872 H   0  0  0  0  0  0  0  0  0  0  0  0
   60.2677   28.5078   46.3131 H   0  0  0  0  0  0  0  0  0  0  0  0
   61.0951   30.7782   45.6976 H   0  0  0  0  0  0  0  0  0  0  0  0
  1  2  1  0
  2  3  2  0
  2  4  2  0
  2  5  1  0
  5  6  2  0
  6  7  1  0
  7  8  2  0
  8  9  1  0
  9 10  1  0
 10 11  1  0
 11 12  2  0
 11 13  1  0
 13 14  1  0
 14 15  1  0
 15 16  1  0
 16 17  2  3
 17 18  1  0
 18 19  2  0
 19 20  1  0
 20 21  2  0
 21 22  1  0
 21 23  1  0
 23 24  2  0
 16 25  1  0
 25 26  1  0
 26 27  1  0
  8 28  1  0
 28 29  2  0
 29  5  1  0
 26 14  2  0
 24 18  1  0
  1 30  1  0
  6 31  1  0
  7 32  1  0
  9 33  1  0
  9 34  1  0
 10 35  1  0
 13 36  1  0
 13 37  1  0
 19 38  1  0
 20 39  1  0
 23 40  1  0
 24 41  1  0
 28 42  1  0
 29 43  1  0
M  CHG  3   1  -1  25  -1  27  -1
M  END
>  <UniqueID>  (63) 
62

>  <SMILES>  (63) 
[NH-]S(=O)(=O)c1ccc(CNC(=O)Cc2sc(=Nc3ccc(Cl)cc3)[n-]c2[O-])cc1

>  <Energy>  (63) 
75.54677022748274

>  <Genealogy>  (63) 
[NH-]S(=O)(=O)c1ccc(CNC(=O)Cc2sc(=Nc3ccc(Cl)cc3)[n-]c2[O-])cc1 (protonated)
[NH-]S(=O)(=O)c1ccc(CNC(=O)Cc2sc(=Nc3ccc(Cl)cc3)[n-]c2[O-])cc1 (3D coordinates assigned)
[NH-]S(=O)(=O)c1ccc(CNC(=O)Cc2sc(=Nc3ccc(Cl)cc3)[n-]c2[O-])cc1 (optimized conformer: 75.54677022748274 kcal/mol)

>  <smiles>  (63) 
NS(=O)(=O)c1ccc(CNC(=O)Cc2sc(=Nc3ccc(Cl)cc3)[nH]c2O)cc1

>  <score_type>  (63) 
oracle

>  <origin>  (63) 
adg

>  <m_score__min__energy>  (63) 
-14.119999999999999

>  <m_primary>  (63) 
energy

$$$$
63:0
     RDKit          3D

 32 33  0  0  0  0  0  0  0  0999 V2000
   59.2390   30.3390   47.9000 O   0  0  0  0  0  0  0  0  0  0  0  0
   59.7010   31.0200   46.9440 C   0  0  0  0  0  0  0  0  0  0  0  0
   59.0690   30.9820   45.6510 N   0  0  0  0  0  0  0  0  0  0  0  0
   57.8860   30.2210   45.3540 C   0  0  0  0  0  0  0  0  0  0  0  0
   56.8240   30.7690   44.6160 C   0  0  0  0  0  0  0  0  0  0  0  0
   55.6830   29.9980   44.3750 C   0  0  0  0  0  0  0  0  0  0  0  0
   55.5970   28.7340   44.8660 N   0  0  0  0  0  0  0  0  0  0  0  0
   56.6000   28.1850   45.6020 C   0  0  0  0  0  0  0  0  0  0  0  0
   56.4820   27.0130   46.0450 O   0  0  0  0  0  0  0  0  0  0  0  0
   57.7590   28.9220   45.8660 C   0  0  0  0  0  0  0  0  0  0  0  0
   60.9010   31.8510   47.1720 C   0  0  0  0  0  0  0  0  0  0  0  0
   61.8600   31.4200   48.1040 C   0  0  0  0  0  0  0  0  0  0  0  0
   63.0100   32.1730   48.3390 C   0  0  0  0  0  0  0  0  0  0  0  0
   63.2130   33.3690   47.6540 C   0  0  0  0  0  0  0  0  0  0  0  0
   62.2600   33.8240   46.7400 C   0  0  0  0  0  0  0  0  0  0  0  0
   61.0850   33.0820   46.5000 C   0  0  0  0  0  0  0  0  0  0  0  0
   60.0800   33.5320   45.6240 O   0  0  0  0  0  0  0  0  0  0  0  0
   58.9570   34.3450   45.9690 C   0  0  0  0  0  0  0  0  0  0  0  0
   57.6930   33.8690   45.2540 C   0  0  0  0  0  0  0  0  0  0  0  0
   58.0140   33.1230   44.1360 F   0  0  0  0  0  0  0  0  0  0  0  0
   56.9370   34.9610   44.8660 F   0  0  0  0  0  0  0  0  0  0  0  0
   56.9440   33.0870   46.1140 F   0  0  0  0  0  0  0  0  0  0  0  0
   59.4480   31.5900   44.8910 H   0  0  0  0  0  0  0  0  0  0  0  0
   56.8896   31.7972   44.2305 H   0  0  0  0  0  0  0  0  0  0  0  0
   54.8528   30.4157   43.7865 H   0  0  0  0  0  0  0  0  0  0  0  0
   58.5664   28.4849   46.4719 H   0  0  0  0  0  0  0  0  0  0  0  0
   61.7023   30.4801   48.6533 H   0  0  0  0  0  0  0  0  0  0  0  0
   63.7575   31.8223   49.0659 H   0  0  0  0  0  0  0  0  0  0  0  0
   64.1257   33.9562   47.8334 H   0  0  0  0  0  0  0  0  0  0  0  0
   62.4273   34.7692   46.2028 H   0  0  0  0  0  0  0  0  0  0  0  0
   58.7962   34.2929   47.0559 H   0  0  0  0  0  0  0  0  0  0  0  0
   59.1658   35.3793   45.6582 H   0  0  0  0  0  0  0  0  0  0  0  0
  1  2  2  0
  2  3  1  0
  3  4  1  0
  4  5  1  0
  5  6  2  0
  6  7  1  0
  7  8  1  0
  8  9  2  0
  8 10  1  0
  2 11  1  0
 11 12  2  0
 12 13  1  0
 13 14  2  0
 14 15  1  0
 15 16  2  0
 16 17  1  0
 17 18  1  0
 18 19  1  0
 19 20  1  0
 19 21  1  0
 19 22  1  0
 10  4  2  0
 16 11  1  0
  3 23  1  0
  5 24  1  0
  6 25  1  0
 10 26  1  0
 12 27  1  0
 13 28  1  0
 14 29  1  0
 15 30  1  0
 18 31  1  0
 18 32  1  0
M  CHG  1   7  -1
M  END
>  <UniqueID>  (64) 
63

>  <SMILES>  (64) 
O=C(Nc1cc[n-]c(=O)c1)c1ccccc1OCC(F)(F)F

>  <Energy>  (64) 
41.42273558082885

>  <Genealogy>  (64) 
O=C(Nc1cc[n-]c(=O)c1)c1ccccc1OCC(F)(F)F (protonated)
O=C(Nc1cc[n-]c(=O)c1)c1ccccc1OCC(F)(F)F (3D coordinates assigned)
O=C(Nc1cc[n-]c(=O)c1)c1ccccc1OCC(F)(F)F (optimized conformer: 41.42273558082885 kcal/mol)

>  <smiles>  (64) 
O=C(Nc1cc[nH]c(=O)c1)c1ccccc1OCC(F)(F)F

>  <score_type>  (64) 
oracle

>  <origin>  (64) 
adg

>  <m_score__min__energy>  (64) 
-7.7999999999999998

>  <m_primary>  (64) 
energy

$$$$
64:0
     RDKit          3D

 44 47  0  0  0  0  0  0  0  0999 V2000
   64.9070   33.0600   46.5650 H   0  0  0  0  0  0  0  0  0  0  0  0
   63.9920   33.3330   46.9010 O   0  0  0  0  0  0  0  0  0  0  0  0
   63.3350   32.6080   47.8940 C   0  0  0  0  0  0  0  0  0  0  0  0
   63.6430   32.8420   49.2370 C   0  0  0  0  0  0  0  0  0  0  0  0
   64.4110   33.5832   49.5032 H   0  0  0  0  0  0  0  0  0  0  0  0
   62.9770   32.1360   50.2420 C   0  0  0  0  0  0  0  0  0  0  0  0
   63.2133   32.3305   51.2986 H   0  0  0  0  0  0  0  0  0  0  0  0
   62.0110   31.1830   49.9070 C   0  0  0  0  0  0  0  0  0  0  0  0
   61.4809   30.6395   50.7030 H   0  0  0  0  0  0  0  0  0  0  0  0
   61.7130   30.9150   48.5640 C   0  0  0  0  0  0  0  0  0  0  0  0
   60.6900   29.9490   48.2650 N   0  0  0  0  0  0  0  0  0  0  0  0
   59.7000   30.0920   47.4330 C   0  0  0  0  0  0  0  0  0  0  0  0
   59.1850   29.0210   46.7560 N   0  0  0  0  0  0  0  0  0  0  0  0
   58.1400   29.2300   45.9210 C   0  0  0  0  0  0  0  0  0  0  0  0
   57.4670   28.3220   45.1340 C   0  0  0  0  0  0  0  0  0  0  0  0
   57.7270   27.0080   45.0360 C   0  0  0  0  0  0  0  0  0  0  0  0
   58.3866   26.6831   44.2178 H   0  0  0  0  0  0  0  0  0  0  0  0
   57.1990   25.9630   45.9380 C   0  0  0  0  0  0  0  0  0  0  0  0
   57.9090   24.9600   46.4840 N   0  0  0  0  0  0  0  0  0  0  0  0
   56.9950   24.2880   47.2170 C   0  0  0  0  0  0  0  0  0  0  0  0
   57.2860   23.2680   47.8940 O   0  0  0  0  0  0  0  0  0  0  0  0
   55.7470   24.8010   47.1720 N   0  0  0  0  0  0  0  0  0  0  0  0
   55.8940   25.8580   46.3590 C   0  0  0  0  0  0  0  0  0  0  0  0
   54.8560   26.7110   46.0100 O   0  0  0  0  0  0  0  0  0  0  0  0
   56.4950   29.1040   44.4980 C   0  0  0  0  0  0  0  0  0  0  0  0
   55.7525   28.7274   43.7791 H   0  0  0  0  0  0  0  0  0  0  0  0
   56.6050   30.3950   44.9000 N   0  0  0  0  0  0  0  0  0  0  0  0
   57.6090   30.4410   45.7600 N   0  0  0  0  0  0  0  0  0  0  0  0
   58.0890   31.5180   46.4250 C   0  0  0  0  0  0  0  0  0  0  0  0
   57.5520   32.6910   46.2590 N   0  0  0  0  0  0  0  0  0  0  0  0
   58.1260   33.7410   45.4240 C   0  0  0  0  0  0  0  0  0  0  0  0
   57.3173   34.3474   44.9900 H   0  0  0  0  0  0  0  0  0  0  0  0
   58.7167   33.2846   44.6160 H   0  0  0  0  0  0  0  0  0  0  0  0
   59.0180   34.6200   46.2630 C   0  0  0  0  0  0  0  0  0  0  0  0
   59.6470   35.6620   45.7020 C   0  0  0  0  0  0  0  0  0  0  0  0
   59.5195   35.8687   44.6291 H   0  0  0  0  0  0  0  0  0  0  0  0
   60.2907   36.3105   46.3144 H   0  0  0  0  0  0  0  0  0  0  0  0
   59.2000   34.3470   47.7320 C   0  0  0  0  0  0  0  0  0  0  0  0
   58.6829   35.1227   48.3159 H   0  0  0  0  0  0  0  0  0  0  0  0
   58.7778   33.3612   47.9768 H   0  0  0  0  0  0  0  0  0  0  0  0
   60.2724   34.3576   47.9768 H   0  0  0  0  0  0  0  0  0  0  0  0
   59.1440   31.3310   47.2710 N   0  0  0  0  0  0  0  0  0  0  0  0
   62.3650   31.6530   47.5560 C   0  0  0  0  0  0  0  0  0  0  0  0
   62.1121   31.4794   46.4996 H   0  0  0  0  0  0  0  0  0  0  0  0
  1  2  1  0
  2  3  1  0
  3  4  2  0
  4  5  1  0
  4  6  1  0
  6  7  1  0
  6  8  2  0
  8  9  1  0
  8 10  1  0
 10 11  1  0
 11 12  2  3
 12 13  1  0
 13 14  2  0
 14 15  1  0
 15 16  2  0
 16 17  1  0
 16 18  1  0
 18 19  1  0
 19 20  1  0
 20 21  2  0
 20 22  1  0
 22 23  1  0
 23 24  1  0
 15 25  1  0
 25 26  1  0
 25 27  2  0
 27 28  1  0
 28 29  1  0
 29 30  2  0
 30 31  1  0
 31 32  1  0
 31 33  1  0
 31 34  1  0
 34 35  2  0
 35 36  1  0
 35 37  1  0
 34 38  1  0
 38 39  1  0
 38 40  1  0
 38 41  1  0
 29 42  1  0
 10 43  2  0
 43 44  1  0
 43  3  1  0
 42 12  1  0
 28 14  1  0
 23 18  2  0
M  CHG  4  19  -1  22  -1  24  -1  42  -1
M  END
>  <UniqueID>  (65) 
64

>  <SMILES>  (65) 
C=C(C)C/N=c1\[n-]c(=Nc2cccc(O)c2)nc2/c(=C/c3[n-]c(=O)[n-]c3[O-])cnn12

>  <Energy>  (65) 
119.54914863366133

>  <Genealogy>  (65) 
C=C(C)CN=c1[n-]c(=Nc2cccc(O)c2)nc2c(=Cc3[n-]c(=O)[n-]c3[O-])cnn12 (protonated)
C=C(C)C/N=c1\[n-]c(=Nc2cccc(O)c2)nc2/c(=C/c3[n-]c(=O)[n-]c3[O-])cnn12 (cis-trans isomerization)
C=C(C)C/N=c1\[n-]c(=Nc2cccc(O)c2)nc2/c(=C/c3[n-]c(=O)[n-]c3[O-])cnn12 (3D coordinates assigned)
C=C(C)C/N=c1\[n-]c(=Nc2cccc(O)c2)nc2/c(=C/c3[n-]c(=O)[n-]c3[O-])cnn12 (optimized conformer: 119.54914863366133 kcal/mol)

>  <smiles>  (65) 
C=C(C)CN=c1[nH]c(=Nc2cccc(O)c2)nc2c(=Cc3[nH]c(=O)[nH]c3O)cnn12

>  <score_type>  (65) 
oracle

>  <origin>  (65) 
adg

>  <m_score__min__energy>  (65) 
-17.23

>  <m_primary>  (65) 
energy

$$$$
65:0
     RDKit          3D

 41 44  0  0  0  0  0  0  0  0999 V2000
   57.7294   21.3913   42.7114 H   0  0  0  0  0  0  0  0  0  0  0  0
   57.0600   21.9440   43.3870 C   0  0  0  0  0  0  0  0  0  0  0  0
   56.9940   21.6010   44.7400 C   0  0  0  0  0  0  0  0  0  0  0  0
   57.6118   20.7781   45.1288 H   0  0  0  0  0  0  0  0  0  0  0  0
   56.1430   22.3030   45.6010 C   0  0  0  0  0  0  0  0  0  0  0  0
   56.0910   22.0276   46.6647 H   0  0  0  0  0  0  0  0  0  0  0  0
   55.3550   23.3580   45.1120 C   0  0  0  0  0  0  0  0  0  0  0  0
   54.4260   24.0950   46.0390 C   0  0  0  0  0  0  0  0  0  0  0  0
   54.6203   23.7768   47.0739 H   0  0  0  0  0  0  0  0  0  0  0  0
   53.3877   23.8637   45.7588 H   0  0  0  0  0  0  0  0  0  0  0  0
   54.6330   25.5390   45.9330 N   0  0  0  0  0  0  0  0  0  0  0  0
   55.7910   26.1290   45.9680 C   0  0  0  0  0  0  0  0  0  0  0  0
   55.8810   27.4360   45.6190 N   0  0  0  0  0  0  0  0  0  0  0  0
   57.0730   28.0930   45.6350 C   0  0  0  0  0  0  0  0  0  0  0  0
   58.2350   27.4180   46.0270 C   0  0  0  0  0  0  0  0  0  0  0  0
   58.1230   26.0620   46.3860 C   0  0  0  0  0  0  0  0  0  0  0  0
   59.1310   25.3980   46.7450 O   0  0  0  0  0  0  0  0  0  0  0  0
   56.9100   25.4540   46.3470 N   0  0  0  0  0  0  0  0  0  0  0  0
   59.5020   28.1720   46.0670 C   0  0  0  0  0  0  0  0  0  0  0  0
   60.5680   27.6330   46.4690 O   0  0  0  0  0  0  0  0  0  0  0  0
   59.5180   29.5440   45.6600 N   0  0  0  0  0  0  0  0  0  0  0  0
   60.4280   30.0590   45.6910 H   0  0  0  0  0  0  0  0  0  0  0  0
   58.3870   30.1630   44.9610 C   0  0  2  0  0  0  0  0  0  0  0  0
   58.5694   30.0827   43.8792 H   0  0  0  0  0  0  0  0  0  0  0  0
   58.2780   31.6230   45.3630 C   0  0  0  0  0  0  0  0  0  0  0  0
   58.4410   31.9770   46.7210 C   0  0  0  0  0  0  0  0  0  0  0  0
   58.6920   31.0260   47.6570 F   0  0  0  0  0  0  0  0  0  0  0  0
   58.3460   33.3110   47.1220 C   0  0  0  0  0  0  0  0  0  0  0  0
   58.4737   33.5748   48.1823 H   0  0  0  0  0  0  0  0  0  0  0  0
   58.0900   34.3100   46.1840 C   0  0  0  0  0  0  0  0  0  0  0  0
   58.0166   35.3597   46.5047 H   0  0  0  0  0  0  0  0  0  0  0  0
   57.9270   33.9790   44.8400 C   0  0  0  0  0  0  0  0  0  0  0  0
   57.7243   34.7712   44.1042 H   0  0  0  0  0  0  0  0  0  0  0  0
   58.0190   32.6470   44.4180 C   0  0  0  0  0  0  0  0  0  0  0  0
   57.7990   32.3200   42.7010 Cl  0  0  0  0  0  0  0  0  0  0  0  0
   57.1260   29.4740   45.2620 N   0  0  0  0  0  0  0  0  0  0  0  0
   56.2310   29.9440   44.9950 H   0  0  0  0  0  0  0  0  0  0  0  0
   55.4250   23.6950   43.7490 C   0  0  0  0  0  0  0  0  0  0  0  0
   54.8085   24.5166   43.3554 H   0  0  0  0  0  0  0  0  0  0  0  0
   56.2750   22.9900   42.8920 C   0  0  0  0  0  0  0  0  0  0  0  0
   56.3265   23.2585   41.8265 H   0  0  0  0  0  0  0  0  0  0  0  0
  1  2  1  0
  2  3  2  0
  3  4  1  0
  3  5  1  0
  5  6  1  0
  5  7  2  0
  7  8  1  0
  8  9  1  0
  8 10  1  0
  8 11  1  0
 11 12  2  0
 12 13  1  0
 13 14  1  0
 14 15  2  0
 15 16  1  0
 16 17  2  0
 16 18  1  0
 15 19  1  0
 19 20  2  0
 19 21  1  0
 21 22  1  0
 21 23  1  0
 23 24  1  6
 23 25  1  0
 25 26  2  0
 26 27  1  0
 26 28  1  0
 28 29  1  0
 28 30  2  0
 30 31  1  0
 30 32  1  0
 32 33  1  0
 32 34  2  0
 34 35  1  0
 23 36  1  0
 36 37  1  0
  7 38  1  0
 38 39  1  0
 38 40  2  0
 40 41  1  0
 40  2  1  0
 18 12  1  0
 34 25  1  0
 36 14  1  0
M  CHG  2  13  -1  18  -1
M  END
>  <UniqueID>  (66) 
65

>  <SMILES>  (66) 
O=C1N[C@H](c2c(F)cccc2Cl)Nc2[n-]/c(=N/Cc3ccccc3)[n-]c(=O)c21

>  <Energy>  (66) 
50.62202234500878

>  <Genealogy>  (66) 
O=C1NC(c2c(F)cccc2Cl)Nc2[n-]c(=NCc3ccccc3)[n-]c(=O)c21 (protonated)
O=C1N[C@H](c2c(F)cccc2Cl)Nc2[n-]c(=NCc3ccccc3)[n-]c(=O)c21 (chirality)
O=C1N[C@H](c2c(F)cccc2Cl)Nc2[n-]/c(=N/Cc3ccccc3)[n-]c(=O)c21 (cis-trans isomerization)
O=C1N[C@H](c2c(F)cccc2Cl)Nc2[n-]/c(=N/Cc3ccccc3)[n-]c(=O)c21 (3D coordinates assigned)
O=C1N[C@H](c2c(F)cccc2Cl)Nc2[n-]/c(=N/Cc3ccccc3)[n-]c(=O)c21 (nonaromatic ring conformer: 50.62202234500878 kcal/mol)

>  <smiles>  (66) 
O=C1NC(c2c(F)cccc2Cl)Nc2[nH]c(=NCc3ccccc3)[nH]c(=O)c21

>  <score_type>  (66) 
oracle

>  <origin>  (66) 
adg

>  <m_score__min__energy>  (66) 
-12.25

>  <m_primary>  (66) 
energy

$$$$
66:0
     RDKit          3D

 45 47  0  0  0  0  0  0  0  0999 V2000
   55.1380   28.2730   44.4840 H   0  0  0  0  0  0  0  0  0  0  0  0
   55.1680   29.3130   44.5790 N   0  0  0  0  0  0  0  0  0  0  0  0
   56.5780   29.8580   43.7390 S   0  0  0  0  0  0  0  0  0  0  0  0
   56.1580   30.5110   42.4540 O   0  0  0  0  0  0  0  0  0  0  0  0
   57.4490   28.6710   43.4400 O   0  0  0  0  0  0  0  0  0  0  0  0
   57.4820   31.0230   44.7160 C   0  0  0  0  0  0  0  0  0  0  0  0
   57.0130   32.3420   44.8360 C   0  0  0  0  0  0  0  0  0  0  0  0
   56.0858   32.6405   44.3249 H   0  0  0  0  0  0  0  0  0  0  0  0
   57.7150   33.2760   45.5990 C   0  0  0  0  0  0  0  0  0  0  0  0
   57.3356   34.3041   45.6948 H   0  0  0  0  0  0  0  0  0  0  0  0
   58.8970   32.9070   46.2400 C   0  0  0  0  0  0  0  0  0  0  0  0
   59.4505   33.6460   46.8379 H   0  0  0  0  0  0  0  0  0  0  0  0
   59.3800   31.6020   46.1250 C   0  0  0  0  0  0  0  0  0  0  0  0
   60.3195   31.3209   46.6234 H   0  0  0  0  0  0  0  0  0  0  0  0
   58.6700   30.6410   45.3730 C   0  0  0  0  0  0  0  0  0  0  0  0
   59.1550   29.2940   45.2140 N   0  0  0  0  0  0  0  0  0  0  0  0
   59.3880   28.4400   46.1660 C   0  0  0  0  0  0  0  0  0  0  0  0
   59.7818   28.8002   47.1278 H   0  0  0  0  0  0  0  0  0  0  0  0
   59.1330   26.9840   45.9820 C   0  0  0  0  0  0  0  0  0  0  0  0
   57.8340   26.5340   45.6740 C   0  0  0  0  0  0  0  0  0  0  0  0
   56.7990   27.4780   45.6960 O   0  0  0  0  0  0  0  0  0  0  0  0
   56.3020   27.7850   44.8700 H   0  0  0  0  0  0  0  0  0  0  0  0
   57.5920   25.1990   45.4010 N   0  0  0  0  0  0  0  0  0  0  0  0
   56.2960   24.8060   44.7680 C   0  0  0  0  0  0  0  0  0  0  0  0
   55.9860   25.6585   44.1457 H   0  0  0  0  0  0  0  0  0  0  0  0
   56.4340   23.6220   43.7790 C   0  0  0  0  0  0  0  0  0  0  0  0
   57.2219   23.8551   43.0477 H   0  0  0  0  0  0  0  0  0  0  0  0
   56.6913   22.7182   44.3508 H   0  0  0  0  0  0  0  0  0  0  0  0
   55.1110   23.3660   43.0290 C   0  0  0  0  0  0  0  0  0  0  0  0
   55.0655   24.0435   42.1636 H   0  0  0  0  0  0  0  0  0  0  0  0
   55.1087   22.3067   42.7326 H   0  0  0  0  0  0  0  0  0  0  0  0
   53.8520   23.5960   43.8960 C   0  0  0  0  0  0  0  0  0  0  0  0
   53.4397   24.5888   43.6628 H   0  0  0  0  0  0  0  0  0  0  0  0
   53.1349   22.7951   43.6628 H   0  0  0  0  0  0  0  0  0  0  0  0
   54.1530   23.5290   45.3990 C   0  0  0  0  0  0  0  0  0  0  0  0
   53.2185   23.6817   45.9588 H   0  0  0  0  0  0  0  0  0  0  0  0
   54.5839   22.5421   45.6233 H   0  0  0  0  0  0  0  0  0  0  0  0
   55.1680   24.6080   45.8140 C   0  0  0  0  0  0  0  0  0  0  0  0
   54.6349   25.5618   45.9408 H   0  0  0  0  0  0  0  0  0  0  0  0
   55.6395   24.2764   46.7509 H   0  0  0  0  0  0  0  0  0  0  0  0
   58.5930   24.2840   45.6780 C   0  0  0  0  0  0  0  0  0  0  0  0
   58.3520   22.6580   45.6990 S   0  0  0  0  0  0  0  0  0  0  0  0
   59.8320   24.7110   46.0210 N   0  0  0  0  0  0  0  0  0  0  0  0
   60.1380   26.0200   46.1410 C   0  0  0  0  0  0  0  0  0  0  0  0
   61.3230   26.3430   46.4210 O   0  0  0  0  0  0  0  0  0  0  0  0
  1  2  1  0
  2  3  1  0
  3  4  2  0
  3  5  2  0
  3  6  1  0
  6  7  2  0
  7  8  1  0
  7  9  1  0
  9 10  1  0
  9 11  2  0
 11 12  1  0
 11 13  1  0
 13 14  1  0
 13 15  2  0
 15 16  1  0
 16 17  2  0
 17 18  1  0
 17 19  1  0
 19 20  2  0
 20 21  1  0
 21 22  1  0
 20 23  1  0
 23 24  1  0
 24 25  1  0
 24 26  1  0
 26 27  1  0
 26 28  1  0
 26 29  1  0
 29 30  1  0
 29 31  1  0
 29 32  1  0
 32 33  1  0
 32 34  1  0
 32 35  1  0
 35 36  1  0
 35 37  1  0
 35 38  1  0
 38 39  1  0
 38 40  1  0
 23 41  1  0
 41 42  2  0
 41 43  1  0
 43 44  1  0
 44 45  2  0
 15  6  1  0
 44 19  1  0
 38 24  1  0
M  CHG  2   2  -1  43  -1
M  END
>  <UniqueID>  (67) 
66

>  <SMILES>  (67) 
[NH-]S(=O)(=O)c1ccccc1/N=C/c1c(O)n(C2CCCCC2)c(=S)[n-]c1=O

>  <Energy>  (67) 
72.88385587402398

>  <Genealogy>  (67) 
[NH-]S(=O)(=O)c1ccccc1N=Cc1c(O)n(C2CCCCC2)c(=S)[n-]c1=O (protonated)
[NH-]S(=O)(=O)c1ccccc1/N=C/c1c(O)n(C2CCCCC2)c(=S)[n-]c1=O (cis-trans isomerization)
[NH-]S(=O)(=O)c1ccccc1/N=C/c1c(O)n(C2CCCCC2)c(=S)[n-]c1=O (3D coordinates assigned)
[NH-]S(=O)(=O)c1ccccc1/N=C/c1c(O)n(C2CCCCC2)c(=S)[n-]c1=O (nonaromatic ring conformer: 72.88385587402398 kcal/mol)

>  <smiles>  (67) 
NS(=O)(=O)c1ccccc1N=Cc1c(O)n(C2CCCCC2)c(=S)[nH]c1=O

>  <score_type>  (67) 
oracle

>  <origin>  (67) 
adg

>  <m_score__min__energy>  (67) 
-12.6

>  <m_primary>  (67) 
energy

$$$$
67:0
     RDKit          3D

 37 39  0  0  0  0  0  0  0  0999 V2000
   54.3740   26.2200   45.9920 O   0  0  0  0  0  0  0  0  0  0  0  0
   55.6260   26.3510   45.9740 C   0  0  0  0  0  0  0  0  0  0  0  0
   56.4740   25.2950   46.4440 N   0  0  0  0  0  0  0  0  0  0  0  0
   57.0080   24.2160   45.6640 C   0  0  0  0  0  0  0  0  0  0  0  0
   56.2480   23.7190   44.5970 C   0  0  0  0  0  0  0  0  0  0  0  0
   56.7230   22.6540   43.8260 C   0  0  0  0  0  0  0  0  0  0  0  0
   57.9550   22.0670   44.1250 C   0  0  0  0  0  0  0  0  0  0  0  0
   58.7090   22.5400   45.2020 C   0  0  0  0  0  0  0  0  0  0  0  0
   58.2380   23.6060   45.9760 C   0  0  0  0  0  0  0  0  0  0  0  0
   56.1830   27.6100   45.5840 N   0  0  0  0  0  0  0  0  0  0  0  0
   57.5670   27.9810   45.6400 C   0  0  0  0  0  0  0  0  0  0  0  0
   58.5670   26.9920   45.6460 C   0  0  0  0  0  0  0  0  0  0  0  0
   59.9110   27.3480   45.7330 C   0  0  0  0  0  0  0  0  0  0  0  0
   60.2550   28.6940   45.8030 C   0  0  0  0  0  0  0  0  0  0  0  0
   59.2870   29.6440   45.7620 N   0  0  0  0  0  0  0  0  0  0  0  0
   57.9620   29.3440   45.6640 C   0  0  0  0  0  0  0  0  0  0  0  0
   57.0690   30.4300   45.6150 O   0  0  0  0  0  0  0  0  0  0  0  0
   56.7470   31.2440   44.4840 C   0  0  2  0  0  0  0  0  0  0  0  0
   56.9260   30.5080   43.1850 C   0  0  0  0  0  0  0  0  0  0  0  0
   57.4180   31.5900   42.2430 C   0  0  0  0  0  0  0  0  0  0  0  0
   57.9220   32.6750   42.9860 O   0  0  0  0  0  0  0  0  0  0  0  0
   57.7480   32.3740   44.3510 C   0  0  0  0  0  0  0  0  0  0  0  0
   55.2718   24.1695   44.3646 H   0  0  0  0  0  0  0  0  0  0  0  0
   56.1257   22.2775   42.9825 H   0  0  0  0  0  0  0  0  0  0  0  0
   58.3309   21.2336   43.5134 H   0  0  0  0  0  0  0  0  0  0  0  0
   59.6756   22.0730   45.4420 H   0  0  0  0  0  0  0  0  0  0  0  0
   58.8296   23.9682   46.8297 H   0  0  0  0  0  0  0  0  0  0  0  0
   58.2860   25.9304   45.5816 H   0  0  0  0  0  0  0  0  0  0  0  0
   60.6917   26.5732   45.7462 H   0  0  0  0  0  0  0  0  0  0  0  0
   61.3112   28.9881   45.8916 H   0  0  0  0  0  0  0  0  0  0  0  0
   55.7088   31.5674   44.6502 H   0  0  0  0  0  0  0  0  0  0  0  0
   57.6697   29.7038   43.2858 H   0  0  0  0  0  0  0  0  0  0  0  0
   56.0063   30.0157   42.8361 H   0  0  0  0  0  0  0  0  0  0  0  0
   58.2154   31.1831   41.6038 H   0  0  0  0  0  0  0  0  0  0  0  0
   56.5818   31.9350   41.6171 H   0  0  0  0  0  0  0  0  0  0  0  0
   58.7104   32.0672   44.7865 H   0  0  0  0  0  0  0  0  0  0  0  0
   57.3777   33.2627   44.8830 H   0  0  0  0  0  0  0  0  0  0  0  0
  1  2  2  0
  2  3  1  0
  3  4  1  0
  4  5  2  0
  5  6  1  0
  6  7  2  0
  7  8  1  0
  8  9  2  0
  2 10  1  0
 10 11  1  0
 11 12  2  0
 12 13  1  0
 13 14  2  0
 14 15  1  0
 15 16  2  0
 16 17  1  0
 17 18  1  0
 18 19  1  0
 19 20  1  0
 20 21  1  0
 21 22  1  0
  9  4  1  0
 16 11  1  0
 22 18  1  0
  5 23  1  0
  6 24  1  0
  7 25  1  0
  8 26  1  0
  9 27  1  0
 12 28  1  0
 13 29  1  0
 14 30  1  0
 18 31  1  1
 19 32  1  0
 19 33  1  0
 20 34  1  0
 20 35  1  0
 22 36  1  0
 22 37  1  0
M  CHG  2   3  -1  10  -1
M  END
>  <UniqueID>  (68) 
67

>  <SMILES>  (68) 
O=C([N-]c1ccccc1)[N-]c1cccnc1O[C@@H]1CCOC1

>  <Energy>  (68) 
50.875631145252434

>  <Genealogy>  (68) 
O=C([N-]c1ccccc1)[N-]c1cccnc1OC1CCOC1 (protonated)
O=C([N-]c1ccccc1)[N-]c1cccnc1O[C@@H]1CCOC1 (chirality)
O=C([N-]c1ccccc1)[N-]c1cccnc1O[C@@H]1CCOC1 (3D coordinates assigned)
O=C([N-]c1ccccc1)[N-]c1cccnc1O[C@@H]1CCOC1 (nonaromatic ring conformer: 50.875631145252434 kcal/mol)

>  <smiles>  (68) 
O=C(Nc1ccccc1)Nc1cccnc1OC1CCOC1

>  <score_type>  (68) 
oracle

>  <origin>  (68) 
adg

>  <m_score__min__energy>  (68) 
-10.9

>  <m_primary>  (68) 
energy

$$$$
68:0
     RDKit          3D

 48 51  0  0  0  0  0  0  0  0999 V2000
   59.6630   30.5530   49.7110 C   0  0  0  0  0  0  0  0  0  0  0  0
   61.0190   30.1280   49.5210 O   0  0  0  0  0  0  0  0  0  0  0  0
   62.0550   30.9590   49.0590 C   0  0  0  0  0  0  0  0  0  0  0  0
   62.8220   31.6270   50.0130 C   0  0  0  0  0  0  0  0  0  0  0  0
   63.8410   32.5230   49.6170 C   0  0  0  0  0  0  0  0  0  0  0  0
   64.6620   33.2080   50.5850 N   0  0  0  0  0  0  0  0  0  0  0  0
   66.3110   32.7990   50.9350 S   0  0  0  0  0  0  0  0  0  0  0  0
   66.8770   33.7100   52.3550 C   0  0  0  0  0  0  0  0  0  0  0  0
   67.1710   33.0880   49.7310 O   0  0  0  0  0  0  0  0  0  0  0  0
   66.3980   31.3290   51.2350 O   0  0  0  0  0  0  0  0  0  0  0  0
   64.0650   32.7500   48.2460 C   0  0  0  0  0  0  0  0  0  0  0  0
   63.2890   32.0890   47.2860 C   0  0  0  0  0  0  0  0  0  0  0  0
   62.2970   31.1830   47.6860 C   0  0  0  0  0  0  0  0  0  0  0  0
   61.4240   30.6040   46.7220 N   0  0  0  0  0  0  0  0  0  0  0  0
   60.1820   30.8630   46.3860 C   0  0  0  0  0  0  0  0  0  0  0  0
   59.5640   32.1630   46.4490 C   0  0  0  0  0  0  0  0  0  0  0  0
   60.2300   33.3780   46.7610 C   0  0  0  0  0  0  0  0  0  0  0  0
   59.5280   34.5820   46.8720 C   0  0  0  0  0  0  0  0  0  0  0  0
   58.1470   34.6140   46.6600 C   0  0  0  0  0  0  0  0  0  0  0  0
   57.4780   33.4610   46.2620 C   0  0  0  0  0  0  0  0  0  0  0  0
   58.1740   32.2520   46.1270 C   0  0  0  0  0  0  0  0  0  0  0  0
   57.5350   31.2030   45.5680 N   0  0  0  0  0  0  0  0  0  0  0  0
   58.1190   29.9950   45.3850 C   0  0  0  0  0  0  0  0  0  0  0  0
   57.4390   28.9830   44.6790 C   0  0  0  0  0  0  0  0  0  0  0  0
   56.1410   29.2100   44.1020 N   0  0  0  0  0  0  0  0  0  0  0  0
   55.1290   29.3570   44.8180 O   0  0  0  0  0  0  0  0  0  0  0  0
   56.0500   29.4770   42.7530 O   0  0  0  0  0  0  0  0  0  0  0  0
   58.0570   27.7400   44.4780 C   0  0  0  0  0  0  0  0  0  0  0  0
   59.3520   27.5090   44.9510 C   0  0  0  0  0  0  0  0  0  0  0  0
   60.0350   28.5140   45.6290 C   0  0  0  0  0  0  0  0  0  0  0  0
   59.4480   29.7870   45.8240 C   0  0  0  0  0  0  0  0  0  0  0  0
   59.4474   30.6206   50.7875 H   0  0  0  0  0  0  0  0  0  0  0  0
   59.5192   31.5393   49.2456 H   0  0  0  0  0  0  0  0  0  0  0  0
   58.9820   29.8252   49.2456 H   0  0  0  0  0  0  0  0  0  0  0  0
   62.6324   31.4552   51.0828 H   0  0  0  0  0  0  0  0  0  0  0  0
   64.2270   33.9490   51.1810 H   0  0  0  0  0  0  0  0  0  0  0  0
   66.5569   33.1948   53.2726 H   0  0  0  0  0  0  0  0  0  0  0  0
   67.9749   33.7752   52.3351 H   0  0  0  0  0  0  0  0  0  0  0  0
   66.4491   34.7232   52.3351 H   0  0  0  0  0  0  0  0  0  0  0  0
   64.8524   33.4491   47.9277 H   0  0  0  0  0  0  0  0  0  0  0  0
   63.4581   32.2810   46.2162 H   0  0  0  0  0  0  0  0  0  0  0  0
   61.3187   33.3716   46.9183 H   0  0  0  0  0  0  0  0  0  0  0  0
   60.0647   35.5076   47.1272 H   0  0  0  0  0  0  0  0  0  0  0  0
   57.5892   35.5505   46.8078 H   0  0  0  0  0  0  0  0  0  0  0  0
   56.3988   33.4983   46.0525 H   0  0  0  0  0  0  0  0  0  0  0  0
   57.5193   26.9421   43.9449 H   0  0  0  0  0  0  0  0  0  0  0  0
   59.8312   26.5325   44.7872 H   0  0  0  0  0  0  0  0  0  0  0  0
   61.0446   28.3165   46.0186 H   0  0  0  0  0  0  0  0  0  0  0  0
  1  2  1  0
  2  3  1  0
  3  4  2  0
  4  5  1  0
  5  6  1  0
  6  7  1  0
  7  8  1  0
  7  9  2  0
  7 10  2  0
  5 11  2  0
 11 12  1  0
 12 13  2  0
 13 14  1  0
 14 15  2  3
 15 16  1  0
 16 17  2  0
 17 18  1  0
 18 19  2  0
 19 20  1  0
 20 21  2  0
 21 22  1  0
 22 23  1  0
 23 24  2  0
 24 25  1  0
 25 26  2  0
 25 27  1  0
 24 28  1  0
 28 29  2  0
 29 30  1  0
 30 31  2  0
 13  3  1  0
 31 15  1  0
 21 16  1  0
 31 23  1  0
  1 32  1  0
  1 33  1  0
  1 34  1  0
  4 35  1  0
  6 36  1  0
  8 37  1  0
  8 38  1  0
  8 39  1  0
 11 40  1  0
 12 41  1  0
 17 42  1  0
 18 43  1  0
 19 44  1  0
 20 45  1  0
 28 46  1  0
 29 47  1  0
 30 48  1  0
M  CHG  3  22  -1  25   1  27  -1
M  END
>  <UniqueID>  (69) 
68

>  <SMILES>  (69) 
COc1cc(NS(C)(=O)=O)ccc1N=c1c2ccccc2[n-]c2c([N+](=O)[O-])cccc12

>  <Energy>  (69) 
96.99263141173486

>  <Genealogy>  (69) 
COc1cc(NS(C)(=O)=O)ccc1N=c1c2ccccc2[n-]c2c([N+](=O)[O-])cccc12 (protonated)
COc1cc(NS(C)(=O)=O)ccc1N=c1c2ccccc2[n-]c2c([N+](=O)[O-])cccc12 (3D coordinates assigned)
COc1cc(NS(C)(=O)=O)ccc1N=c1c2ccccc2[n-]c2c([N+](=O)[O-])cccc12 (optimized conformer: 96.99263141173486 kcal/mol)

>  <smiles>  (69) 
COc1cc(NS(C)(=O)=O)ccc1N=c1c2ccccc2[nH]c2c([N+](=O)[O-])cccc12

>  <score_type>  (69) 
oracle

>  <origin>  (69) 
adg

>  <m_score__min__energy>  (69) 
-10.130000000000001

>  <m_primary>  (69) 
energy

$$$$
69:0
     RDKit          3D

 53 55  0  0  0  0  0  0  0  0999 V2000
   65.4940   32.3520   50.1410 C   0  0  0  0  0  0  0  0  0  0  0  0
   64.2880   31.7870   49.6300 O   0  0  0  0  0  0  0  0  0  0  0  0
   63.5310   32.3300   48.5800 C   0  0  0  0  0  0  0  0  0  0  0  0
   64.0330   33.3800   47.7810 C   0  0  0  0  0  0  0  0  0  0  0  0
   63.2450   33.9450   46.7750 C   0  0  0  0  0  0  0  0  0  0  0  0
   61.9560   33.4630   46.5390 C   0  0  0  0  0  0  0  0  0  0  0  0
   61.4480   32.4180   47.3160 C   0  0  0  0  0  0  0  0  0  0  0  0
   62.2250   31.8370   48.3340 C   0  0  0  0  0  0  0  0  0  0  0  0
   61.6370   30.7980   49.1380 N   0  0  0  0  0  0  0  0  0  0  0  0
   59.9780   30.2980   49.0150 S   0  0  0  0  0  0  0  0  0  0  0  0
   59.0930   31.4970   49.2110 O   0  0  0  0  0  0  0  0  0  0  0  0
   59.6660   29.2980   50.0950 O   0  0  0  0  0  0  0  0  0  0  0  0
   59.6380   29.6290   47.4200 C   0  0  0  0  0  0  0  0  0  0  0  0
   60.6140   28.8980   46.7270 C   0  0  0  0  0  0  0  0  0  0  0  0
   60.2990   28.2860   45.5110 C   0  0  0  0  0  0  0  0  0  0  0  0
   59.0080   28.3920   44.9840 C   0  0  0  0  0  0  0  0  0  0  0  0
   58.0330   29.1560   45.6450 C   0  0  0  0  0  0  0  0  0  0  0  0
   56.6470   29.2360   45.1350 C   0  0  0  0  0  0  0  0  0  0  0  0
   55.9020   28.2240   45.2550 O   0  0  0  0  0  0  0  0  0  0  0  0
   56.1080   30.4040   44.4990 N   0  0  0  0  0  0  0  0  0  0  0  0
   56.7010   31.1830   43.4120 C   0  0  0  0  0  0  0  0  0  0  0  0
   58.0480   31.7920   43.8280 C   0  0  0  0  0  0  0  0  0  0  0  0
   57.8730   33.1470   44.3990 N   0  0  0  0  0  0  0  0  0  0  0  0
   59.1690   33.8580   44.5360 C   0  0  0  0  0  0  0  0  0  0  0  0
   59.0830   34.9630   45.6050 C   0  0  0  0  0  0  0  0  0  0  0  0
   58.7660   34.4820   46.9060 O   0  0  0  0  0  0  0  0  0  0  0  0
   58.0340   33.2620   46.8970 C   0  0  0  0  0  0  0  0  0  0  0  0
   57.1130   33.1040   45.6740 C   0  0  0  0  0  0  0  0  0  0  0  0
   58.3550   29.7650   46.8710 C   0  0  0  0  0  0  0  0  0  0  0  0
   65.4676   32.3396   51.2406 H   0  0  0  0  0  0  0  0  0  0  0  0
   66.3532   31.7627   49.7882 H   0  0  0  0  0  0  0  0  0  0  0  0
   65.5912   33.3894   49.7882 H   0  0  0  0  0  0  0  0  0  0  0  0
   65.0524   33.7563   47.9517 H   0  0  0  0  0  0  0  0  0  0  0  0
   63.6412   34.7718   46.1672 H   0  0  0  0  0  0  0  0  0  0  0  0
   61.3405   33.9055   45.7419 H   0  0  0  0  0  0  0  0  0  0  0  0
   60.4297   32.0462   47.1292 H   0  0  0  0  0  0  0  0  0  0  0  0
   62.1410   30.5020   50.0050 H   0  0  0  0  0  0  0  0  0  0  0  0
   61.6288   28.8064   47.1414 H   0  0  0  0  0  0  0  0  0  0  0  0
   61.0687   27.7192   44.9667 H   0  0  0  0  0  0  0  0  0  0  0  0
   58.7552   27.8743   44.0470 H   0  0  0  0  0  0  0  0  0  0  0  0
   56.8585   30.5248   42.5448 H   0  0  0  0  0  0  0  0  0  0  0  0
   56.0135   32.0038   43.1598 H   0  0  0  0  0  0  0  0  0  0  0  0
   58.5168   31.1431   44.5825 H   0  0  0  0  0  0  0  0  0  0  0  0
   58.6837   31.8717   42.9338 H   0  0  0  0  0  0  0  0  0  0  0  0
   59.9462   33.1360   44.8269 H   0  0  0  0  0  0  0  0  0  0  0  0
   59.4167   34.3234   43.5706 H   0  0  0  0  0  0  0  0  0  0  0  0
   60.0551   35.4756   45.6524 H   0  0  0  0  0  0  0  0  0  0  0  0
   58.2657   35.6353   45.3048 H   0  0  0  0  0  0  0  0  0  0  0  0
   58.7500   32.4270   46.9031 H   0  0  0  0  0  0  0  0  0  0  0  0
   57.3887   33.2669   47.7878 H   0  0  0  0  0  0  0  0  0  0  0  0
   56.5910   32.1383   45.7444 H   0  0  0  0  0  0  0  0  0  0  0  0
   56.3998   33.9414   45.6740 H   0  0  0  0  0  0  0  0  0  0  0  0
   57.5936   30.3533   47.4040 H   0  0  0  0  0  0  0  0  0  0  0  0
  1  2  1  0
  2  3  1  0
  3  4  2  0
  4  5  1  0
  5  6  2  0
  6  7  1  0
  7  8  2  0
  8  9  1  0
  9 10  1  0
 10 11  2  0
 10 12  2  0
 10 13  1  0
 13 14  2  0
 14 15  1  0
 15 16  2  0
 16 17  1  0
 17 18  1  0
 18 19  2  0
 18 20  1  0
 20 21  1  0
 21 22  1  0
 22 23  1  0
 23 24  1  0
 24 25  1  0
 25 26  1  0
 26 27  1  0
 27 28  1  0
 17 29  2  0
  8  3  1  0
 29 13  1  0
 28 23  1  0
  1 30  1  0
  1 31  1  0
  1 32  1  0
  4 33  1  0
  5 34  1  0
  6 35  1  0
  7 36  1  0
  9 37  1  0
 14 38  1  0
 15 39  1  0
 16 40  1  0
 21 41  1  0
 21 42  1  0
 22 43  1  0
 22 44  1  0
 24 45  1  0
 24 46  1  0
 25 47  1  0
 25 48  1  0
 27 49  1  0
 27 50  1  0
 28 51  1  0
 28 52  1  0
 29 53  1  0
M  CHG  1  20  -1
M  END
>  <UniqueID>  (70) 
69

>  <SMILES>  (70) 
COc1ccccc1NS(=O)(=O)c1cccc(C(=O)[N-]CCN2CCOCC2)c1

>  <Energy>  (70) 
73.55078958591368

>  <Genealogy>  (70) 
COc1ccccc1NS(=O)(=O)c1cccc(C(=O)[N-]CCN2CCOCC2)c1 (protonated)
COc1ccccc1NS(=O)(=O)c1cccc(C(=O)[N-]CCN2CCOCC2)c1 (3D coordinates assigned)
COc1ccccc1NS(=O)(=O)c1cccc(C(=O)[N-]CCN2CCOCC2)c1 (nonaromatic ring conformer: 73.55078958591368 kcal/mol)

>  <smiles>  (70) 
COc1ccccc1NS(=O)(=O)c1cccc(C(=O)NCCN2CCOCC2)c1

>  <score_type>  (70) 
oracle

>  <origin>  (70) 
adg

>  <m_score__min__energy>  (70) 
-11.56

>  <m_primary>  (70) 
energy

$$$$
70:0
     RDKit          3D

 38 40  0  0  0  0  0  0  0  0999 V2000
   57.2550   27.8820   45.3190 C   0  0  0  0  0  0  0  0  0  0  0  0
   56.0890   28.7550   45.3170 N   0  0  0  0  0  0  0  0  0  0  0  0
   55.7440   29.6580   44.2590 C   0  0  0  0  0  0  0  0  0  0  0  0
   54.6820   29.4540   43.6120 O   0  0  0  0  0  0  0  0  0  0  0  0
   56.5680   30.8370   43.9280 C   0  0  0  0  0  0  0  0  0  0  0  0
   57.0160   31.0280   42.6110 C   0  0  0  0  0  0  0  0  0  0  0  0
   57.7990   32.1380   42.2880 C   0  0  0  0  0  0  0  0  0  0  0  0
   58.1620   33.0530   43.2790 C   0  0  0  0  0  0  0  0  0  0  0  0
   57.7600   32.8500   44.6110 C   0  0  0  0  0  0  0  0  0  0  0  0
   58.1040   33.7440   45.6350 O   0  0  0  0  0  0  0  0  0  0  0  0
   59.2390   33.6480   46.4520 C   0  0  0  0  0  0  0  0  0  0  0  0
   60.0970   32.5360   46.4050 C   0  0  0  0  0  0  0  0  0  0  0  0
   61.2110   32.4680   47.2460 C   0  0  0  0  0  0  0  0  0  0  0  0
   61.4880   33.5060   48.1540 C   0  0  0  0  0  0  0  0  0  0  0  0
   62.6730   33.4130   49.0450 C   0  0  0  0  0  0  0  0  0  0  0  0
   63.7990   32.6400   48.7010 C   0  0  0  0  0  0  0  0  0  0  0  0
   64.8870   32.5810   49.5760 C   0  0  0  0  0  0  0  0  0  0  0  0
   64.8500   33.2800   50.7810 C   0  0  0  0  0  0  0  0  0  0  0  0
   63.7160   34.0280   51.1000 C   0  0  0  0  0  0  0  0  0  0  0  0
   62.6660   34.0750   50.2360 N   0  0  0  0  0  0  0  0  0  0  0  0
   60.6070   34.6020   48.2160 C   0  0  0  0  0  0  0  0  0  0  0  0
   59.4930   34.6670   47.3740 C   0  0  0  0  0  0  0  0  0  0  0  0
   56.9560   31.7470   44.9240 C   0  0  0  0  0  0  0  0  0  0  0  0
   57.5474   27.6631   46.3566 H   0  0  0  0  0  0  0  0  0  0  0  0
   57.0108   26.9429   44.8010 H   0  0  0  0  0  0  0  0  0  0  0  0
   58.0874   28.3808   44.8010 H   0  0  0  0  0  0  0  0  0  0  0  0
   56.7490   30.3002   41.8306 H   0  0  0  0  0  0  0  0  0  0  0  0
   58.1308   32.2923   41.2506 H   0  0  0  0  0  0  0  0  0  0  0  0
   58.7643   33.9352   43.0165 H   0  0  0  0  0  0  0  0  0  0  0  0
   59.8907   31.7149   45.7027 H   0  0  0  0  0  0  0  0  0  0  0  0
   61.8776   31.5944   47.1975 H   0  0  0  0  0  0  0  0  0  0  0  0
   63.8218   32.0868   47.7505 H   0  0  0  0  0  0  0  0  0  0  0  0
   65.7723   31.9831   49.3137 H   0  0  0  0  0  0  0  0  0  0  0  0
   65.7046   33.2426   51.4725 H   0  0  0  0  0  0  0  0  0  0  0  0
   63.6710   34.5799   52.0505 H   0  0  0  0  0  0  0  0  0  0  0  0
   60.7967   35.4143   48.9331 H   0  0  0  0  0  0  0  0  0  0  0  0
   58.8106   35.5274   47.4377 H   0  0  0  0  0  0  0  0  0  0  0  0
   56.6249   31.5920   45.9615 H   0  0  0  0  0  0  0  0  0  0  0  0
  1  2  1  0
  2  3  1  0
  3  4  2  0
  3  5  1  0
  5  6  2  0
  6  7  1  0
  7  8  2  0
  8  9  1  0
  9 10  1  0
 10 11  1  0
 11 12  2  0
 12 13  1  0
 13 14  2  0
 14 15  1  0
 15 16  2  0
 16 17  1  0
 17 18  2  0
 18 19  1  0
 19 20  2  0
 14 21  1  0
 21 22  2  0
  9 23  2  0
 23  5  1  0
 22 11  1  0
 20 15  1  0
  1 24  1  0
  1 25  1  0
  1 26  1  0
  6 27  1  0
  7 28  1  0
  8 29  1  0
 12 30  1  0
 13 31  1  0
 16 32  1  0
 17 33  1  0
 18 34  1  0
 19 35  1  0
 21 36  1  0
 22 37  1  0
 23 38  1  0
M  CHG  1   2  -1
M  END
>  <UniqueID>  (71) 
70

>  <SMILES>  (71) 
C[N-]C(=O)c1cccc(Oc2ccc(-c3ccccn3)cc2)c1

>  <Energy>  (71) 
55.54098591429709

>  <Genealogy>  (71) 
C[N-]C(=O)c1cccc(Oc2ccc(-c3ccccn3)cc2)c1 (protonated)
C[N-]C(=O)c1cccc(Oc2ccc(-c3ccccn3)cc2)c1 (3D coordinates assigned)
C[N-]C(=O)c1cccc(Oc2ccc(-c3ccccn3)cc2)c1 (optimized conformer: 55.54098591429709 kcal/mol)

>  <smiles>  (71) 
CNC(=O)c1cccc(Oc2ccc(-c3ccccn3)cc2)c1

>  <score_type>  (71) 
oracle

>  <origin>  (71) 
adg

>  <m_score__min__energy>  (71) 
-9.9299999999999997

>  <m_primary>  (71) 
energy

$$$$
71:0
     RDKit          3D

 45 48  0  0  0  0  0  0  0  0999 V2000
   54.8171   23.1836   42.1494 H   0  0  0  0  0  0  0  0  0  0  0  0
   55.3220   23.3790   43.1070 C   0  0  0  0  0  0  0  0  0  0  0  0
   54.5890   23.5510   44.2380 N   0  0  0  0  0  0  0  0  0  0  0  0
   55.1710   23.7920   45.4470 C   0  0  0  0  0  0  0  0  0  0  0  0
   54.3820   23.9690   46.5890 O   0  0  0  0  0  0  0  0  0  0  0  0
   54.1310   22.9260   47.5230 C   0  0  0  0  0  0  0  0  0  0  0  0
   54.2256   23.3192   48.5459 H   0  0  0  0  0  0  0  0  0  0  0  0
   53.1134   22.5362   47.3727 H   0  0  0  0  0  0  0  0  0  0  0  0
   54.8598   22.1159   47.3727 H   0  0  0  0  0  0  0  0  0  0  0  0
   56.5730   23.8660   45.5440 C   0  0  0  0  0  0  0  0  0  0  0  0
   57.2430   24.1530   46.8650 C   0  0  0  0  0  0  0  0  0  0  0  0
   56.9624   23.3742   47.5894 H   0  0  0  0  0  0  0  0  0  0  0  0
   58.3328   24.1591   46.7159 H   0  0  0  0  0  0  0  0  0  0  0  0
   56.8300   25.4590   47.3790 N   0  0  0  0  0  0  0  0  0  0  0  0
   57.0210   26.5920   46.7700 C   0  0  0  0  0  0  0  0  0  0  0  0
   56.1010   27.0790   45.8900 N   0  0  0  0  0  0  0  0  0  0  0  0
   56.2760   28.2620   45.2450 C   0  0  0  0  0  0  0  0  0  0  0  0
   55.5140   28.6171   44.5356 H   0  0  0  0  0  0  0  0  0  0  0  0
   57.4240   29.0320   45.4800 C   0  0  0  0  0  0  0  0  0  0  0  0
   57.6210   30.3150   44.7710 C   0  0  0  0  0  0  0  0  0  0  0  0
   57.4840   30.5210   43.4000 C   0  0  0  0  0  0  0  0  0  0  0  0
   57.2008   29.7454   42.6732 H   0  0  0  0  0  0  0  0  0  0  0  0
   57.7490   31.8110   43.0900 N   0  0  0  0  0  0  0  0  0  0  0  0
   57.6840   32.4110   41.7610 C   0  0  0  0  0  0  0  0  0  0  0  0
   57.5660   33.5005   41.8560 H   0  0  0  0  0  0  0  0  0  0  0  0
   58.6114   32.1891   41.2127 H   0  0  0  0  0  0  0  0  0  0  0  0
   56.8256   31.9956   41.2127 H   0  0  0  0  0  0  0  0  0  0  0  0
   58.0340   32.4330   44.2520 C   0  0  0  0  0  0  0  0  0  0  0  0
   58.3330   33.7840   44.4470 C   0  0  0  0  0  0  0  0  0  0  0  0
   58.3913   34.4802   43.5974 H   0  0  0  0  0  0  0  0  0  0  0  0
   58.5570   34.2260   45.7630 C   0  0  0  0  0  0  0  0  0  0  0  0
   58.8047   35.2812   45.9505 H   0  0  0  0  0  0  0  0  0  0  0  0
   58.4660   33.3240   46.8450 C   0  0  0  0  0  0  0  0  0  0  0  0
   58.6375   33.6828   47.8706 H   0  0  0  0  0  0  0  0  0  0  0  0
   58.1580   31.9710   46.6220 C   0  0  0  0  0  0  0  0  0  0  0  0
   58.0713   31.2642   47.4604 H   0  0  0  0  0  0  0  0  0  0  0  0
   57.9650   31.5500   45.3020 C   0  0  0  0  0  0  0  0  0  0  0  0
   58.3910   28.5380   46.3680 C   0  0  0  0  0  0  0  0  0  0  0  0
   59.3104   29.1129   46.5530 H   0  0  0  0  0  0  0  0  0  0  0  0
   58.1900   27.3200   47.0170 C   0  0  0  0  0  0  0  0  0  0  0  0
   58.9450   26.9345   47.7179 H   0  0  0  0  0  0  0  0  0  0  0  0
   57.3400   23.6950   44.3820 C   0  0  0  0  0  0  0  0  0  0  0  0
   58.4371   23.7542   44.4352 H   0  0  0  0  0  0  0  0  0  0  0  0
   56.7150   23.4500   43.1590 C   0  0  0  0  0  0  0  0  0  0  0  0
   57.3133   23.3143   42.2460 H   0  0  0  0  0  0  0  0  0  0  0  0
  1  2  1  0
  2  3  2  0
  3  4  1  0
  4  5  1  0
  5  6  1  0
  6  7  1  0
  6  8  1  0
  6  9  1  0
  4 10  2  0
 10 11  1  0
 11 12  1  0
 11 13  1  0
 11 14  1  0
 14 15  2  0
 15 16  1  0
 16 17  1  0
 17 18  1  0
 17 19  2  0
 19 20  1  0
 20 21  2  0
 21 22  1  0
 21 23  1  0
 23 24  1  0
 24 25  1  0
 24 26  1  0
 24 27  1  0
 23 28  1  0
 28 29  2  0
 29 30  1  0
 29 31  1  0
 31 32  1  0
 31 33  2  0
 33 34  1  0
 33 35  1  0
 35 36  1  0
 35 37  2  0
 19 38  1  0
 38 39  1  0
 38 40  2  0
 40 41  1  0
 10 42  1  0
 42 43  1  0
 42 44  2  0
 44 45  1  0
 44  2  1  0
 40 15  1  0
 37 20  1  0
 37 28  1  0
M  CHG  1  16  -1
M  END
>  <UniqueID>  (72) 
71

>  <SMILES>  (72) 
COc1ncccc1C/N=c1/ccc(-c2cn(C)c3ccccc23)c[n-]1

>  <Energy>  (72) 
85.85782468361126

>  <Genealogy>  (72) 
COc1ncccc1CN=c1ccc(-c2cn(C)c3ccccc23)c[n-]1 (protonated)
COc1ncccc1C/N=c1/ccc(-c2cn(C)c3ccccc23)c[n-]1 (cis-trans isomerization)
COc1ncccc1C/N=c1/ccc(-c2cn(C)c3ccccc23)c[n-]1 (3D coordinates assigned)
COc1ncccc1C/N=c1/ccc(-c2cn(C)c3ccccc23)c[n-]1 (optimized conformer: 85.85782468361126 kcal/mol)

>  <smiles>  (72) 
COc1ncccc1CN=c1ccc(-c2cn(C)c3ccccc23)c[nH]1

>  <score_type>  (72) 
oracle

>  <origin>  (72) 
adg

>  <m_score__min__energy>  (72) 
-10.07

>  <m_primary>  (72) 
energy

$$$$
72:0
     RDKit          3D

 63 66  0  0  0  0  0  0  0  0999 V2000
   58.1510   34.0490   44.9860 C   0  0  0  0  0  0  0  0  0  0  0  0
   59.5450   34.6160   45.2550 C   0  0  0  0  0  0  0  0  0  0  0  0
   59.9540   34.5160   46.7350 C   0  0  0  0  0  0  0  0  0  0  0  0
   58.9030   33.8380   47.6250 C   0  0  0  0  0  0  0  0  0  0  0  0
   59.5230   33.1150   48.7910 C   0  0  0  0  0  0  0  0  0  0  0  0
   59.3020   33.4660   50.0730 N   0  0  0  0  0  0  0  0  0  0  0  0
   59.9530   32.5980   50.8320 N   0  0  0  0  0  0  0  0  0  0  0  0
   60.5590   31.7290   50.0030 C   0  0  0  0  0  0  0  0  0  0  0  0
   61.5630   30.3550   50.5810 S   0  0  0  0  0  0  0  0  0  0  0  0
   63.1320   31.2900   50.5770 C   0  0  0  0  0  0  0  0  0  0  0  0
   63.2440   32.1650   49.3590 C   0  0  0  0  0  0  0  0  0  0  0  0
   62.9940   33.5440   49.4550 C   0  0  0  0  0  0  0  0  0  0  0  0
   63.1430   34.3670   48.3310 C   0  0  0  0  0  0  0  0  0  0  0  0
   63.5340   33.8190   47.1070 C   0  0  0  0  0  0  0  0  0  0  0  0
   63.6850   34.6210   46.0200 F   0  0  0  0  0  0  0  0  0  0  0  0
   63.7710   32.4450   47.0010 C   0  0  0  0  0  0  0  0  0  0  0  0
   63.6320   31.6200   48.1230 C   0  0  0  0  0  0  0  0  0  0  0  0
   60.3100   32.0190   48.7090 N   0  0  0  0  0  0  0  0  0  0  0  0
   60.7070   31.2560   47.5220 C   0  0  0  0  0  0  0  0  0  0  0  0
   59.7040   30.1710   47.2330 C   0  0  0  0  0  0  0  0  0  0  0  0
   59.0110   30.1600   46.0130 C   0  0  0  0  0  0  0  0  0  0  0  0
   58.0910   29.1450   45.7320 C   0  0  0  0  0  0  0  0  0  0  0  0
   57.8630   28.1170   46.6570 C   0  0  0  0  0  0  0  0  0  0  0  0
   56.9040   27.0920   46.3530 N   0  0  0  0  0  0  0  0  0  0  0  0
   57.1840   25.9700   45.4980 C   0  0  0  0  0  0  0  0  0  0  0  0
   58.1990   25.9760   44.7460 O   0  0  0  0  0  0  0  0  0  0  0  0
   56.2690   24.8090   45.4750 C   0  0  0  0  0  0  0  0  0  0  0  0
   54.8860   25.0370   45.6370 C   0  0  0  0  0  0  0  0  0  0  0  0
   54.3880   26.3300   45.7600 O   0  0  0  0  0  0  0  0  0  0  0  0
   53.9950   23.9650   45.7020 C   0  0  0  0  0  0  0  0  0  0  0  0
   54.4670   22.6560   45.6220 C   0  0  0  0  0  0  0  0  0  0  0  0
   55.8320   22.4100   45.4540 C   0  0  0  0  0  0  0  0  0  0  0  0
   56.7480   23.4740   45.3600 C   0  0  0  0  0  0  0  0  0  0  0  0
   58.1710   23.1500   45.0880 C   0  0  0  0  0  0  0  0  0  0  0  0
   59.0760   23.4790   45.9000 O   0  0  0  0  0  0  0  0  0  0  0  0
   58.5290   22.5220   43.9000 O   0  0  0  0  0  0  0  0  0  0  0  0
   58.5370   28.1430   47.8890 C   0  0  0  0  0  0  0  0  0  0  0  0
   59.4510   29.1610   48.1740 C   0  0  0  0  0  0  0  0  0  0  0  0
   57.6476   33.8443   45.9424 H   0  0  0  0  0  0  0  0  0  0  0  0
   57.5628   34.7793   44.4110 H   0  0  0  0  0  0  0  0  0  0  0  0
   58.2396   33.1154   44.4110 H   0  0  0  0  0  0  0  0  0  0  0  0
   60.2744   34.0572   44.6503 H   0  0  0  0  0  0  0  0  0  0  0  0
   59.5257   35.6830   44.9881 H   0  0  0  0  0  0  0  0  0  0  0  0
   60.8872   33.9372   46.7983 H   0  0  0  0  0  0  0  0  0  0  0  0
   60.0704   35.5454   47.1049 H   0  0  0  0  0  0  0  0  0  0  0  0
   58.2163   34.6064   48.0097 H   0  0  0  0  0  0  0  0  0  0  0  0
   58.3715   33.0951   47.0122 H   0  0  0  0  0  0  0  0  0  0  0  0
   63.1751   31.9213   51.4768 H   0  0  0  0  0  0  0  0  0  0  0  0
   63.9644   30.5710   50.5655 H   0  0  0  0  0  0  0  0  0  0  0  0
   62.6803   33.9789   50.4154 H   0  0  0  0  0  0  0  0  0  0  0  0
   62.9517   35.4472   48.4125 H   0  0  0  0  0  0  0  0  0  0  0  0
   64.0672   32.0118   46.0342 H   0  0  0  0  0  0  0  0  0  0  0  0
   63.8272   30.5409   48.0371 H   0  0  0  0  0  0  0  0  0  0  0  0
   60.7652   31.9346   46.6582 H   0  0  0  0  0  0  0  0  0  0  0  0
   61.6877   30.7937   47.7077 H   0  0  0  0  0  0  0  0  0  0  0  0
   59.1924   30.9540   45.2736 H   0  0  0  0  0  0  0  0  0  0  0  0
   57.5425   29.1535   44.7785 H   0  0  0  0  0  0  0  0  0  0  0  0
   55.9200   27.2150   46.6940 H   0  0  0  0  0  0  0  0  0  0  0  0
   52.9174   24.1535   45.8167 H   0  0  0  0  0  0  0  0  0  0  0  0
   53.7626   21.8140   45.6914 H   0  0  0  0  0  0  0  0  0  0  0  0
   56.1946   21.3732   45.3946 H   0  0  0  0  0  0  0  0  0  0  0  0
   58.3442   27.3572   48.6342 H   0  0  0  0  0  0  0  0  0  0  0  0
   59.9750   29.1707   49.1411 H   0  0  0  0  0  0  0  0  0  0  0  0
  1  2  1  0
  2  3  1  0
  3  4  1  0
  4  5  1  0
  5  6  2  0
  6  7  1  0
  7  8  2  0
  8  9  1  0
  9 10  1  0
 10 11  1  0
 11 12  2  0
 12 13  1  0
 13 14  2  0
 14 15  1  0
 14 16  1  0
 16 17  2  0
  8 18  1  0
 18 19  1  0
 19 20  1  0
 20 21  2  0
 21 22  1  0
 22 23  2  0
 23 24  1  0
 24 25  1  0
 25 26  2  0
 25 27  1  0
 27 28  2  0
 28 29  1  0
 28 30  1  0
 30 31  2  0
 31 32  1  0
 32 33  2  0
 33 34  1  0
 34 35  2  0
 34 36  1  0
 23 37  1  0
 37 38  2  0
 18  5  1  0
 38 20  1  0
 17 11  1  0
 33 27  1  0
  1 39  1  0
  1 40  1  0
  1 41  1  0
  2 42  1  0
  2 43  1  0
  3 44  1  0
  3 45  1  0
  4 46  1  0
  4 47  1  0
 10 48  1  0
 10 49  1  0
 12 50  1  0
 13 51  1  0
 16 52  1  0
 17 53  1  0
 19 54  1  0
 19 55  1  0
 21 56  1  0
 22 57  1  0
 24 58  1  0
 30 59  1  0
 31 60  1  0
 32 61  1  0
 37 62  1  0
 38 63  1  0
M  CHG  2  29  -1  36  -1
M  END
>  <UniqueID>  (73) 
72

>  <SMILES>  (73) 
CCCCc1nnc(SCc2ccc(F)cc2)n1Cc1ccc(NC(=O)c2c([O-])cccc2C(=O)[O-])cc1

>  <Energy>  (73) 
100.62374141017361

>  <Genealogy>  (73) 
CCCCc1nnc(SCc2ccc(F)cc2)n1Cc1ccc(NC(=O)c2c([O-])cccc2C(=O)[O-])cc1 (protonated)
CCCCc1nnc(SCc2ccc(F)cc2)n1Cc1ccc(NC(=O)c2c([O-])cccc2C(=O)[O-])cc1 (3D coordinates assigned)
CCCCc1nnc(SCc2ccc(F)cc2)n1Cc1ccc(NC(=O)c2c([O-])cccc2C(=O)[O-])cc1 (optimized conformer: 100.62374141017361 kcal/mol)

>  <smiles>  (73) 
CCCCc1nnc(SCc2ccc(F)cc2)n1Cc1ccc(NC(=O)c2c(O)cccc2C(=O)O)cc1

>  <score_type>  (73) 
oracle

>  <origin>  (73) 
adg

>  <m_score__min__energy>  (73) 
-14.210000000000001

>  <m_primary>  (73) 
energy

$$$$
73:0
     RDKit          3D

 41 42  0  0  0  0  0  0  0  0999 V2000
   55.4880   30.2840   44.6280 N   0  0  0  0  0  0  0  0  0  0  0  0
   57.1520   29.8560   44.8210 S   0  0  0  0  0  0  0  0  0  0  0  0
   57.9490   30.4360   43.6860 O   0  0  0  0  0  0  0  0  0  0  0  0
   57.6710   30.4200   46.1130 O   0  0  0  0  0  0  0  0  0  0  0  0
   57.3070   28.1030   44.8360 C   0  0  0  0  0  0  0  0  0  0  0  0
   56.9230   27.3780   45.9710 C   0  0  0  0  0  0  0  0  0  0  0  0
   57.0030   25.9830   45.9750 C   0  0  0  0  0  0  0  0  0  0  0  0
   57.4800   25.2950   44.8500 C   0  0  0  0  0  0  0  0  0  0  0  0
   57.4800   23.8570   44.8520 N   0  0  0  0  0  0  0  0  0  0  0  0
   58.6550   23.0600   45.0480 C   0  0  0  0  0  0  0  0  0  0  0  0
   59.6780   23.5530   45.5980 O   0  0  0  0  0  0  0  0  0  0  0  0
   58.6830   21.6300   44.5960 C   0  0  0  0  0  0  0  0  0  0  0  0
   57.8620   21.4410   43.3130 C   0  0  0  0  0  0  0  0  0  0  0  0
   56.4150   21.8170   43.5170 C   0  0  0  0  0  0  0  0  0  0  0  0
   55.8500   22.5330   42.6490 O   0  0  0  0  0  0  0  0  0  0  0  0
   55.6190   21.2910   44.5910 N   0  0  0  0  0  0  0  0  0  0  0  0
   55.7100   21.6100   45.9890 C   0  0  0  0  0  0  0  0  0  0  0  0
   56.5560   20.8660   46.8310 C   0  0  0  0  0  0  0  0  0  0  0  0
   56.6520   21.1680   48.1890 C   0  0  0  0  0  0  0  0  0  0  0  0
   55.9280   22.2340   48.7190 C   0  0  0  0  0  0  0  0  0  0  0  0
   55.1250   23.0160   47.8890 C   0  0  0  0  0  0  0  0  0  0  0  0
   55.0200   22.7340   46.5130 C   0  0  0  0  0  0  0  0  0  0  0  0
   54.1900   23.6310   45.6630 C   0  0  0  0  0  0  0  0  0  0  0  0
   54.3720   24.8780   45.6540 O   0  0  0  0  0  0  0  0  0  0  0  0
   53.1870   23.1010   44.8590 O   0  0  0  0  0  0  0  0  0  0  0  0
   57.8570   26.0270   43.7090 C   0  0  0  0  0  0  0  0  0  0  0  0
   57.7680   27.4210   43.7020 C   0  0  0  0  0  0  0  0  0  0  0  0
   54.9240   29.5160   45.0580 H   0  0  0  0  0  0  0  0  0  0  0  0
   56.5571   27.9086   46.8624 H   0  0  0  0  0  0  0  0  0  0  0  0
   56.6896   25.4205   46.8669 H   0  0  0  0  0  0  0  0  0  0  0  0
   56.5690   23.3630   44.7180 H   0  0  0  0  0  0  0  0  0  0  0  0
   59.7248   21.3344   44.4029 H   0  0  0  0  0  0  0  0  0  0  0  0
   58.2445   21.0043   45.3873 H   0  0  0  0  0  0  0  0  0  0  0  0
   58.2870   22.0751   42.5210 H   0  0  0  0  0  0  0  0  0  0  0  0
   57.9042   20.3784   43.0318 H   0  0  0  0  0  0  0  0  0  0  0  0
   57.1478   20.0377   46.4142 H   0  0  0  0  0  0  0  0  0  0  0  0
   57.2995   20.5644   48.8420 H   0  0  0  0  0  0  0  0  0  0  0  0
   55.9899   22.4592   49.7939 H   0  0  0  0  0  0  0  0  0  0  0  0
   54.5669   23.8632   48.3141 H   0  0  0  0  0  0  0  0  0  0  0  0
   58.2241   25.4982   42.8170 H   0  0  0  0  0  0  0  0  0  0  0  0
   58.0606   27.9849   42.8040 H   0  0  0  0  0  0  0  0  0  0  0  0
  1  2  1  0
  2  3  2  0
  2  4  2  0
  2  5  1  0
  5  6  2  0
  6  7  1  0
  7  8  2  0
  8  9  1  0
  9 10  1  0
 10 11  2  0
 10 12  1  0
 12 13  1  0
 13 14  1  0
 14 15  2  0
 14 16  1  0
 16 17  1  0
 17 18  2  0
 18 19  1  0
 19 20  2  0
 20 21  1  0
 21 22  2  0
 22 23  1  0
 23 24  2  0
 23 25  1  0
  8 26  1  0
 26 27  2  0
 27  5  1  0
 22 17  1  0
  1 28  1  0
  6 29  1  0
  7 30  1  0
  9 31  1  0
 12 32  1  0
 12 33  1  0
 13 34  1  0
 13 35  1  0
 18 36  1  0
 19 37  1  0
 20 38  1  0
 21 39  1  0
 26 40  1  0
 27 41  1  0
M  CHG  3   1  -1  16  -1  25  -1
M  END
>  <UniqueID>  (74) 
73

>  <SMILES>  (74) 
[NH-]S(=O)(=O)c1ccc(NC(=O)CCC(=O)[N-]c2ccccc2C(=O)[O-])cc1

>  <Energy>  (74) 
45.01359005770943

>  <Genealogy>  (74) 
[NH-]S(=O)(=O)c1ccc(NC(=O)CCC(=O)[N-]c2ccccc2C(=O)[O-])cc1 (protonated)
[NH-]S(=O)(=O)c1ccc(NC(=O)CCC(=O)[N-]c2ccccc2C(=O)[O-])cc1 (3D coordinates assigned)
[NH-]S(=O)(=O)c1ccc(NC(=O)CCC(=O)[N-]c2ccccc2C(=O)[O-])cc1 (optimized conformer: 45.01359005770943 kcal/mol)

>  <smiles>  (74) 
NS(=O)(=O)c1ccc(NC(=O)CCC(=O)Nc2ccccc2C(=O)O)cc1

>  <score_type>  (74) 
oracle

>  <origin>  (74) 
adg

>  <m_score__min__energy>  (74) 
-13.789999999999999

>  <m_primary>  (74) 
energy

$$$$
74:0
     RDKit          3D

 37 38  0  0  0  0  0  0  0  0999 V2000
   55.5160   29.1240   44.9800 O   0  0  0  0  0  0  0  0  0  0  0  0
   56.4150   29.8240   44.4400 C   0  0  0  0  0  0  0  0  0  0  0  0
   56.3390   31.2530   44.4580 N   0  0  0  0  0  0  0  0  0  0  0  0
   57.3180   32.1450   45.0040 C   0  0  0  0  0  0  0  0  0  0  0  0
   58.4110   31.7330   45.7500 C   0  0  0  0  0  0  0  0  0  0  0  0
   59.1990   32.8010   46.1960 C   0  0  0  0  0  0  0  0  0  0  0  0
   58.7240   34.0480   45.8060 C   0  0  0  0  0  0  0  0  0  0  0  0
   57.3190   33.8270   44.9060 S   0  0  0  0  0  0  0  0  0  0  0  0
   57.5330   29.1950   43.8010 N   0  0  0  0  0  0  0  0  0  0  0  0
   57.7840   27.7550   43.8470 C   0  0  0  0  0  0  0  0  0  0  0  0
   58.6580   27.3930   45.0580 C   0  0  0  0  0  0  0  0  0  0  0  0
   57.8640   27.2650   46.3670 C   0  0  0  0  0  0  0  0  0  0  0  0
   57.7800   25.8760   46.8230 N   0  0  0  0  0  0  0  0  0  0  0  0
   56.2580   25.1440   46.4070 S   0  0  0  0  0  0  0  0  0  0  0  0
   55.2760   26.2040   45.9920 O   0  0  0  0  0  0  0  0  0  0  0  0
   55.7110   24.4390   47.6160 O   0  0  0  0  0  0  0  0  0  0  0  0
   56.4720   23.9700   45.1130 C   0  0  0  0  0  0  0  0  0  0  0  0
   55.6070   23.9610   44.0080 C   0  0  0  0  0  0  0  0  0  0  0  0
   55.8050   23.0450   42.9700 C   0  0  0  0  0  0  0  0  0  0  0  0
   56.8650   22.1350   43.0310 C   0  0  0  0  0  0  0  0  0  0  0  0
   57.7290   22.1410   44.1310 C   0  0  0  0  0  0  0  0  0  0  0  0
   57.5330   23.0570   45.1700 C   0  0  0  0  0  0  0  0  0  0  0  0
   58.6356   30.6786   45.9686 H   0  0  0  0  0  0  0  0  0  0  0  0
   60.1091   32.6659   46.7988 H   0  0  0  0  0  0  0  0  0  0  0  0
   59.1882   35.0161   46.0453 H   0  0  0  0  0  0  0  0  0  0  0  0
   58.2440   29.8040   43.3370 H   0  0  0  0  0  0  0  0  0  0  0  0
   56.8239   27.2236   43.9232 H   0  0  0  0  0  0  0  0  0  0  0  0
   58.3128   27.4593   42.9289 H   0  0  0  0  0  0  0  0  0  0  0  0
   59.1537   26.4321   44.8555 H   0  0  0  0  0  0  0  0  0  0  0  0
   59.3792   28.2123   45.1945 H   0  0  0  0  0  0  0  0  0  0  0  0
   58.3608   27.8646   47.1440 H   0  0  0  0  0  0  0  0  0  0  0  0
   56.8412   27.6244   46.1810 H   0  0  0  0  0  0  0  0  0  0  0  0
   54.7721   24.6754   43.9582 H   0  0  0  0  0  0  0  0  0  0  0  0
   55.1261   23.0403   42.1045 H   0  0  0  0  0  0  0  0  0  0  0  0
   57.0193   21.4146   42.2141 H   0  0  0  0  0  0  0  0  0  0  0  0
   58.5629   21.4252   44.1791 H   0  0  0  0  0  0  0  0  0  0  0  0
   58.2138   23.0604   46.0340 H   0  0  0  0  0  0  0  0  0  0  0  0
  1  2  2  0
  2  3  1  0
  3  4  1  0
  4  5  2  0
  5  6  1  0
  6  7  2  0
  7  8  1  0
  2  9  1  0
  9 10  1  0
 10 11  1  0
 11 12  1  0
 12 13  1  0
 13 14  1  0
 14 15  2  0
 14 16  2  0
 14 17  1  0
 17 18  2  0
 18 19  1  0
 19 20  2  0
 20 21  1  0
 21 22  2  0
  8  4  1  0
 22 17  1  0
  5 23  1  0
  6 24  1  0
  7 25  1  0
  9 26  1  0
 10 27  1  0
 10 28  1  0
 11 29  1  0
 11 30  1  0
 12 31  1  0
 12 32  1  0
 18 33  1  0
 19 34  1  0
 20 35  1  0
 21 36  1  0
 22 37  1  0
M  CHG  2   3  -1  13  -1
M  END
>  <UniqueID>  (75) 
74

>  <SMILES>  (75) 
O=C([N-]c1cccs1)NCCC[N-]S(=O)(=O)c1ccccc1

>  <Energy>  (75) 
58.03330530262064

>  <Genealogy>  (75) 
O=C([N-]c1cccs1)NCCC[N-]S(=O)(=O)c1ccccc1 (protonated)
O=C([N-]c1cccs1)NCCC[N-]S(=O)(=O)c1ccccc1 (3D coordinates assigned)
O=C([N-]c1cccs1)NCCC[N-]S(=O)(=O)c1ccccc1 (optimized conformer: 58.03330530262064 kcal/mol)

>  <smiles>  (75) 
O=C(NCCCNS(=O)(=O)c1ccccc1)Nc1cccs1

>  <score_type>  (75) 
oracle

>  <origin>  (75) 
adg

>  <m_score__min__energy>  (75) 
-11.390000000000001

>  <m_primary>  (75) 
energy

$$$$
75:0
     RDKit          3D

 38 40  0  0  0  0  0  0  0  0999 V2000
   57.5161   30.2931   52.6707 H   0  0  0  0  0  0  0  0  0  0  0  0
   58.0340   30.9340   51.9420 C   0  0  0  0  0  0  0  0  0  0  0  0
   57.8100   32.5910   51.7470 S   0  0  0  0  0  0  0  0  0  0  0  0
   58.9260   32.7050   50.4850 C   0  0  0  0  0  0  0  0  0  0  0  0
   59.2900   33.7880   49.8630 N   0  0  0  0  0  0  0  0  0  0  0  0
   60.0250   33.8790   48.6340 C   0  0  0  0  0  0  0  0  0  0  0  0
   61.0550   33.1660   48.4940 O   0  0  0  0  0  0  0  0  0  0  0  0
   59.5820   34.7670   47.5010 C   0  0  0  0  0  0  0  0  0  0  0  0
   58.7759   35.4260   47.8558 H   0  0  0  0  0  0  0  0  0  0  0  0
   60.4461   35.3581   47.1635 H   0  0  0  0  0  0  0  0  0  0  0  0
   59.0790   33.9590   46.3440 C   0  0  0  0  0  0  0  0  0  0  0  0
   58.5370   32.3680   46.4370 S   0  0  0  0  0  0  0  0  0  0  0  0
   58.0910   32.2590   44.8190 C   0  0  0  0  0  0  0  0  0  0  0  0
   57.3540   30.8570   44.0670 S   0  0  0  0  0  0  0  0  0  0  0  0
   56.9900   31.1930   42.6480 O   0  0  0  0  0  0  0  0  0  0  0  0
   56.0980   30.5240   44.8220 O   0  0  0  0  0  0  0  0  0  0  0  0
   58.4620   29.5020   44.1300 N   0  0  0  0  0  0  0  0  0  0  0  0
   57.7760   28.2020   43.9890 C   0  0  0  0  0  0  0  0  0  0  0  0
   56.9631   28.3088   43.2557 H   0  0  0  0  0  0  0  0  0  0  0  0
   58.5208   27.4629   43.6588 H   0  0  0  0  0  0  0  0  0  0  0  0
   57.1820   27.7090   45.3160 C   0  0  0  0  0  0  0  0  0  0  0  0
   56.3778   28.3922   45.6267 H   0  0  0  0  0  0  0  0  0  0  0  0
   56.7869   26.6930   45.1688 H   0  0  0  0  0  0  0  0  0  0  0  0
   58.1690   27.6680   46.3240 O   0  0  0  0  0  0  0  0  0  0  0  0
   58.6480   28.9750   46.5680 C   0  0  0  0  0  0  0  0  0  0  0  0
   57.8030   29.6231   46.8435 H   0  0  0  0  0  0  0  0  0  0  0  0
   59.3821   28.9343   47.3862 H   0  0  0  0  0  0  0  0  0  0  0  0
   59.3350   29.5470   45.3180 C   0  0  0  0  0  0  0  0  0  0  0  0
   59.6121   30.5933   45.5141 H   0  0  0  0  0  0  0  0  0  0  0  0
   60.2209   28.9296   45.1084 H   0  0  0  0  0  0  0  0  0  0  0  0
   58.3410   33.4700   44.1900 C   0  0  0  0  0  0  0  0  0  0  0  0
   58.1275   33.6577   43.1274 H   0  0  0  0  0  0  0  0  0  0  0  0
   58.8930   34.4280   45.0480 C   0  0  0  0  0  0  0  0  0  0  0  0
   59.1533   35.4483   44.7297 H   0  0  0  0  0  0  0  0  0  0  0  0
   59.4800   31.5020   50.2220 N   0  0  0  0  0  0  0  0  0  0  0  0
   60.2090   31.3410   49.4910 H   0  0  0  0  0  0  0  0  0  0  0  0
   58.9890   30.5170   51.0200 C   0  0  0  0  0  0  0  0  0  0  0  0
   59.3210   29.4712   50.9428 H   0  0  0  0  0  0  0  0  0  0  0  0
  1  2  1  0
  2  3  1  0
  3  4  1  0
  4  5  2  0
  5  6  1  0
  6  7  2  0
  6  8  1  0
  8  9  1  0
  8 10  1  0
  8 11  1  0
 11 12  1  0
 12 13  1  0
 13 14  1  0
 14 15  2  0
 14 16  2  0
 14 17  1  0
 17 18  1  0
 18 19  1  0
 18 20  1  0
 18 21  1  0
 21 22  1  0
 21 23  1  0
 21 24  1  0
 24 25  1  0
 25 26  1  0
 25 27  1  0
 25 28  1  0
 28 29  1  0
 28 30  1  0
 13 31  2  0
 31 32  1  0
 31 33  1  0
 33 34  1  0
  4 35  1  0
 35 36  1  0
 35 37  1  0
 37 38  1  0
 37  2  2  0
 33 11  2  0
 28 17  1  0
M  END
>  <UniqueID>  (76) 
75

>  <SMILES>  (76) 
O=C(Cc1ccc(S(=O)(=O)N2CCOCC2)s1)/N=c1/[nH]ccs1

>  <Energy>  (76) 
104.42603122036284

>  <Genealogy>  (76) 
O=C(Cc1ccc(S(=O)(=O)N2CCOCC2)s1)/N=c1/[nH]ccs1 (cis-trans isomerization)
O=C(Cc1ccc(S(=O)(=O)N2CCOCC2)s1)/N=c1/[nH]ccs1 (3D coordinates assigned)
O=C(Cc1ccc(S(=O)(=O)N2CCOCC2)s1)/N=c1/[nH]ccs1 (nonaromatic ring conformer: 104.42603122036284 kcal/mol)

>  <smiles>  (76) 
O=C(Cc1ccc(S(=O)(=O)N2CCOCC2)s1)N=c1[nH]ccs1

>  <score_type>  (76) 
oracle

>  <origin>  (76) 
adg

>  <m_score__min__energy>  (76) 
-8.1899999999999995

>  <m_primary>  (76) 
energy

$$$$
76:0
     RDKit          3D

 40 42  0  0  0  0  0  0  0  0999 V2000
   56.6420   22.2120   43.5090 C   0  0  0  0  0  0  0  0  0  0  0  0
   56.9650   21.3630   44.7370 C   0  0  0  0  0  0  0  0  0  0  0  0
   56.5110   22.0250   46.0460 C   0  0  0  0  0  0  0  0  0  0  0  0
   56.7680   23.5140   46.0470 C   0  0  0  0  0  0  0  0  0  0  0  0
   55.6820   24.4020   46.0580 C   0  0  0  0  0  0  0  0  0  0  0  0
   55.8890   25.7850   46.0330 C   0  0  0  0  0  0  0  0  0  0  0  0
   54.7800   26.6230   46.0030 O   0  0  0  0  0  0  0  0  0  0  0  0
   57.2000   26.3060   46.0120 C   0  0  0  0  0  0  0  0  0  0  0  0
   57.4720   27.7650   46.0010 C   0  0  0  0  0  0  0  0  0  0  0  0
   57.0990   28.6780   45.0310 C   0  0  0  0  0  0  0  0  0  0  0  0
   57.5610   29.8850   45.5140 C   0  0  0  0  0  0  0  0  0  0  0  0
   57.3870   31.1990   44.8660 C   0  0  0  0  0  0  0  0  0  0  0  0
   56.2440   31.5400   44.4620 O   0  0  0  0  0  0  0  0  0  0  0  0
   58.4690   32.1300   44.7440 N   0  0  0  0  0  0  0  0  0  0  0  0
   58.8820   33.0810   45.7350 C   0  0  0  0  0  0  0  0  0  0  0  0
   59.2230   34.3780   45.3310 C   0  0  0  0  0  0  0  0  0  0  0  0
   59.6540   35.3210   46.2700 C   0  0  0  0  0  0  0  0  0  0  0  0
   59.7620   34.9670   47.6180 C   0  0  0  0  0  0  0  0  0  0  0  0
   59.4490   33.6670   48.0270 C   0  0  0  0  0  0  0  0  0  0  0  0
   59.6030   33.2170   49.7150 Cl  0  0  0  0  0  0  0  0  0  0  0  0
   59.0200   32.7220   47.0880 C   0  0  0  0  0  0  0  0  0  0  0  0
   58.1540   29.7000   46.7090 N   0  0  0  0  0  0  0  0  0  0  0  0
   58.0980   28.4110   47.0040 N   0  0  0  0  0  0  0  0  0  0  0  0
   58.2840   25.4110   45.9800 C   0  0  0  0  0  0  0  0  0  0  0  0
   58.0760   24.0300   45.9980 C   0  0  0  0  0  0  0  0  0  0  0  0
   59.1750   23.1790   45.9660 O   0  0  0  0  0  0  0  0  0  0  0  0
   56.2680   23.1951   43.8310 H   0  0  0  0  0  0  0  0  0  0  0  0
   57.5521   22.3455   42.9058 H   0  0  0  0  0  0  0  0  0  0  0  0
   55.8733   21.7068   42.9058 H   0  0  0  0  0  0  0  0  0  0  0  0
   56.4572   20.3922   44.6381 H   0  0  0  0  0  0  0  0  0  0  0  0
   58.0577   21.2452   44.7837 H   0  0  0  0  0  0  0  0  0  0  0  0
   55.4328   21.8508   46.1766 H   0  0  0  0  0  0  0  0  0  0  0  0
   57.0889   21.5802   46.8695 H   0  0  0  0  0  0  0  0  0  0  0  0
   54.6561   24.0061   46.0866 H   0  0  0  0  0  0  0  0  0  0  0  0
   56.5591   28.4861   44.0920 H   0  0  0  0  0  0  0  0  0  0  0  0
   59.1515   34.6567   44.2693 H   0  0  0  0  0  0  0  0  0  0  0  0
   59.9080   36.3415   45.9475 H   0  0  0  0  0  0  0  0  0  0  0  0
   60.0933   35.7113   48.3571 H   0  0  0  0  0  0  0  0  0  0  0  0
   58.7900   31.6953   47.4091 H   0  0  0  0  0  0  0  0  0  0  0  0
   59.3106   25.8041   45.9402 H   0  0  0  0  0  0  0  0  0  0  0  0
  1  2  1  0
  2  3  1  0
  3  4  1  0
  4  5  2  0
  5  6  1  0
  6  7  1  0
  6  8  2  0
  8  9  1  0
  9 10  2  0
 10 11  1  0
 11 12  1  0
 12 13  2  0
 12 14  1  0
 14 15  1  0
 15 16  2  0
 16 17  1  0
 17 18  2  0
 18 19  1  0
 19 20  1  0
 19 21  2  0
 11 22  2  0
 22 23  1  0
  8 24  1  0
 24 25  2  0
 25 26  1  0
 25  4  1  0
 23  9  1  0
 21 15  1  0
  1 27  1  0
  1 28  1  0
  1 29  1  0
  2 30  1  0
  2 31  1  0
  3 32  1  0
  3 33  1  0
  5 34  1  0
 10 35  1  0
 16 36  1  0
 17 37  1  0
 18 38  1  0
 21 39  1  0
 24 40  1  0
M  CHG  4   7  -1  14  -1  23  -1  26  -1
M  END
>  <UniqueID>  (77) 
76

>  <SMILES>  (77) 
CCCc1cc([O-])c(-c2cc(C(=O)[N-]c3cccc(Cl)c3)n[n-]2)cc1[O-]

>  <Energy>  (77) 
76.55055318189551

>  <Genealogy>  (77) 
CCCc1cc([O-])c(-c2cc(C(=O)[N-]c3cccc(Cl)c3)n[n-]2)cc1[O-] (protonated)
CCCc1cc([O-])c(-c2cc(C(=O)[N-]c3cccc(Cl)c3)n[n-]2)cc1[O-] (3D coordinates assigned)
CCCc1cc([O-])c(-c2cc(C(=O)[N-]c3cccc(Cl)c3)n[n-]2)cc1[O-] (optimized conformer: 76.55055318189551 kcal/mol)

>  <smiles>  (77) 
CCCc1cc(O)c(-c2cc(C(=O)Nc3cccc(Cl)c3)n[nH]2)cc1O

>  <score_type>  (77) 
oracle

>  <origin>  (77) 
adg

>  <m_score__min__energy>  (77) 
-17.129999999999999

>  <m_primary>  (77) 
energy

$$$$
77:0
     RDKit          3D

 32 34  0  0  0  0  0  0  0  0999 V2000
   50.9520   30.3510   48.0840 O   0  0  0  0  0  0  0  0  0  0  0  0
   51.2870   30.8000   49.2100 C   0  0  0  0  0  0  0  0  0  0  0  0
   50.8380   31.9780   49.6940 N   0  0  0  0  0  0  0  0  0  0  0  0
   51.3490   32.2220   50.9290 C   0  0  0  0  0  0  0  0  0  0  0  0
   51.0210   33.3690   51.6410 O   0  0  0  0  0  0  0  0  0  0  0  0
   52.2150   31.2460   51.4190 C   0  0  0  0  0  0  0  0  0  0  0  0
   52.8610   31.2270   52.7700 C   0  0  0  0  0  0  0  0  0  0  0  0
   54.2770   30.7310   52.6580 C   0  0  0  0  0  0  0  0  0  0  0  0
   55.2950   31.5930   52.2190 C   0  0  0  0  0  0  0  0  0  0  0  0
   56.6040   31.1240   52.0800 C   0  0  0  0  0  0  0  0  0  0  0  0
   56.9120   29.7870   52.3570 C   0  0  0  0  0  0  0  0  0  0  0  0
   58.2400   29.3590   52.2180 O   0  0  0  0  0  0  0  0  0  0  0  0
   59.0030   29.4440   51.0430 C   0  0  0  0  0  0  0  0  0  0  0  0
   58.5480   30.1420   49.9090 C   0  0  0  0  0  0  0  0  0  0  0  0
   59.3460   30.2180   48.7620 C   0  0  0  0  0  0  0  0  0  0  0  0
   60.6050   29.6120   48.7450 C   0  0  0  0  0  0  0  0  0  0  0  0
   61.0710   28.9350   49.8750 C   0  0  0  0  0  0  0  0  0  0  0  0
   60.2750   28.8570   51.0220 C   0  0  0  0  0  0  0  0  0  0  0  0
   55.8950   28.9260   52.8070 C   0  0  0  0  0  0  0  0  0  0  0  0
   54.5850   29.3930   52.9460 C   0  0  0  0  0  0  0  0  0  0  0  0
   52.3240   30.0140   50.2740 S   0  0  0  0  0  0  0  0  0  0  0  0
   52.8638   32.2451   53.1865 H   0  0  0  0  0  0  0  0  0  0  0  0
   52.2947   30.5543   53.4309 H   0  0  0  0  0  0  0  0  0  0  0  0
   55.0610   32.6417   51.9836 H   0  0  0  0  0  0  0  0  0  0  0  0
   57.3980   31.8104   51.7506 H   0  0  0  0  0  0  0  0  0  0  0  0
   57.5620   30.6294   49.9242 H   0  0  0  0  0  0  0  0  0  0  0  0
   58.9821   30.7549   47.8736 H   0  0  0  0  0  0  0  0  0  0  0  0
   61.2297   29.6680   47.8413 H   0  0  0  0  0  0  0  0  0  0  0  0
   62.0646   28.4631   49.8623 H   0  0  0  0  0  0  0  0  0  0  0  0
   60.6496   28.3318   51.9129 H   0  0  0  0  0  0  0  0  0  0  0  0
   56.1318   27.8798   53.0508 H   0  0  0  0  0  0  0  0  0  0  0  0
   53.7923   28.7086   53.2826 H   0  0  0  0  0  0  0  0  0  0  0  0
  1  2  2  0
  2  3  1  0
  3  4  1  0
  4  5  1  0
  4  6  2  0
  6  7  1  0
  7  8  1  0
  8  9  2  0
  9 10  1  0
 10 11  2  0
 11 12  1  0
 12 13  1  0
 13 14  2  0
 14 15  1  0
 15 16  2  0
 16 17  1  0
 17 18  2  0
 11 19  1  0
 19 20  2  0
  6 21  1  0
 21  2  1  0
 20  8  1  0
 18 13  1  0
  7 22  1  0
  7 23  1  0
  9 24  1  0
 10 25  1  0
 14 26  1  0
 15 27  1  0
 16 28  1  0
 17 29  1  0
 18 30  1  0
 19 31  1  0
 20 32  1  0
M  CHG  2   3  -1   5  -1
M  END
>  <UniqueID>  (78) 
77

>  <SMILES>  (78) 
O=c1[n-]c([O-])c(Cc2ccc(Oc3ccccc3)cc2)s1

>  <Energy>  (78) 
70.29487118660009

>  <Genealogy>  (78) 
O=c1[n-]c([O-])c(Cc2ccc(Oc3ccccc3)cc2)s1 (protonated)
O=c1[n-]c([O-])c(Cc2ccc(Oc3ccccc3)cc2)s1 (3D coordinates assigned)
O=c1[n-]c([O-])c(Cc2ccc(Oc3ccccc3)cc2)s1 (optimized conformer: 70.29487118660009 kcal/mol)

>  <smiles>  (78) 
O=c1[nH]c(O)c(Cc2ccc(Oc3ccccc3)cc2)s1

>  <score_type>  (78) 
oracle

>  <origin>  (78) 
adg

>  <m_score__min__energy>  (78) 
-14.07

>  <m_primary>  (78) 
energy

$$$$
78:0
     RDKit          3D

 37 39  0  0  0  0  0  0  0  0999 V2000
   57.2010   32.3160   41.0870 N   0  0  0  0  0  0  0  0  0  0  0  0
   57.3120   31.6260   42.0090 C   0  0  0  0  0  0  0  0  0  0  0  0
   57.4490   30.7680   43.1560 C   0  0  0  0  0  0  0  0  0  0  0  0
   56.5170   29.7480   43.3850 C   0  0  0  0  0  0  0  0  0  0  0  0
   56.6490   28.9140   44.4990 C   0  0  0  0  0  0  0  0  0  0  0  0
   57.7200   29.0840   45.3940 C   0  0  0  0  0  0  0  0  0  0  0  0
   57.8450   28.1820   46.5990 C   0  0  2  0  0  0  0  0  0  0  0  0
   58.5850   29.1230   47.9850 S   0  0  0  0  0  0  0  0  0  0  0  0
   60.1820   28.2550   47.8600 C   0  0  0  0  0  0  0  0  0  0  0  0
   59.9670   27.0990   46.9630 C   0  0  0  0  0  0  0  0  0  0  0  0
   60.8750   26.2530   46.7480 O   0  0  0  0  0  0  0  0  0  0  0  0
   58.6980   27.0290   46.3210 N   0  0  0  0  0  0  0  0  0  0  0  0
   58.2090   25.8370   45.6710 C   0  0  0  0  0  0  0  0  0  0  0  0
   58.2160   24.6000   46.3400 C   0  0  0  0  0  0  0  0  0  0  0  0
   57.7560   23.4460   45.7020 C   0  0  0  0  0  0  0  0  0  0  0  0
   57.2830   23.5080   44.3860 C   0  0  0  0  0  0  0  0  0  0  0  0
   56.7210   22.0480   43.5770 S   0  0  0  0  0  0  0  0  0  0  0  0
   58.0760   21.0680   43.1410 N   0  0  0  0  0  0  0  0  0  0  0  0
   55.9510   22.4150   42.3390 O   0  0  0  0  0  0  0  0  0  0  0  0
   55.8160   21.2740   44.4940 O   0  0  0  0  0  0  0  0  0  0  0  0
   57.2880   24.7320   43.7070 C   0  0  0  0  0  0  0  0  0  0  0  0
   57.7470   25.8890   44.3440 C   0  0  0  0  0  0  0  0  0  0  0  0
   58.6460   30.1190   45.1620 C   0  0  0  0  0  0  0  0  0  0  0  0
   58.5120   30.9520   44.0480 C   0  0  0  0  0  0  0  0  0  0  0  0
   55.6794   29.6029   42.6868 H   0  0  0  0  0  0  0  0  0  0  0  0
   55.9097   28.1191   44.6767 H   0  0  0  0  0  0  0  0  0  0  0  0
   56.8373   27.8238   46.8565 H   0  0  0  0  0  0  0  0  0  0  0  0
   60.9459   28.9250   47.4388 H   0  0  0  0  0  0  0  0  0  0  0  0
   60.5339   27.9284   48.8497 H   0  0  0  0  0  0  0  0  0  0  0  0
   58.5867   24.5409   47.3740 H   0  0  0  0  0  0  0  0  0  0  0  0
   57.7654   22.4843   46.2359 H   0  0  0  0  0  0  0  0  0  0  0  0
   58.5750   20.8260   44.0260 H   0  0  0  0  0  0  0  0  0  0  0  0
   57.6940   20.1740   42.7580 H   0  0  0  0  0  0  0  0  0  0  0  0
   56.9295   24.7839   42.6684 H   0  0  0  0  0  0  0  0  0  0  0  0
   57.7467   26.8468   43.8031 H   0  0  0  0  0  0  0  0  0  0  0  0
   59.4803   30.2729   45.8622 H   0  0  0  0  0  0  0  0  0  0  0  0
   59.2436   31.7543   43.8716 H   0  0  0  0  0  0  0  0  0  0  0  0
  1  2  3  0
  2  3  1  0
  3  4  2  0
  4  5  1  0
  5  6  2  0
  6  7  1  0
  7  8  1  0
  8  9  1  0
  9 10  1  0
 10 11  2  0
 10 12  1  0
 12 13  1  0
 13 14  2  0
 14 15  1  0
 15 16  2  0
 16 17  1  0
 17 18  1  0
 17 19  2  0
 17 20  2  0
 16 21  1  0
 21 22  2  0
  6 23  1  0
 23 24  2  0
 24  3  1  0
 12  7  1  0
 22 13  1  0
  4 25  1  0
  5 26  1  0
  7 27  1  1
  9 28  1  0
  9 29  1  0
 14 30  1  0
 15 31  1  0
 18 32  1  0
 18 33  1  0
 21 34  1  0
 22 35  1  0
 23 36  1  0
 24 37  1  0
M  END
>  <UniqueID>  (79) 
78

>  <SMILES>  (79) 
N#Cc1ccc([C@@H]2SCC(=O)N2c2ccc(S(N)(=O)=O)cc2)cc1

>  <Energy>  (79) 
40.31125587841251

>  <Genealogy>  (79) 
N#Cc1ccc([C@@H]2SCC(=O)N2c2ccc(S(N)(=O)=O)cc2)cc1 (chirality)
N#Cc1ccc([C@@H]2SCC(=O)N2c2ccc(S(N)(=O)=O)cc2)cc1 (3D coordinates assigned)
N#Cc1ccc([C@@H]2SCC(=O)N2c2ccc(S(N)(=O)=O)cc2)cc1 (nonaromatic ring conformer: 40.31125587841251 kcal/mol)

>  <smiles>  (79) 
N#Cc1ccc(C2SCC(=O)N2c2ccc(S(N)(=O)=O)cc2)cc1

>  <score_type>  (79) 
oracle

>  <origin>  (79) 
adg

>  <m_score__min__energy>  (79) 
-8.1500000000000004

>  <m_primary>  (79) 
energy

$$$$
79:0
     RDKit          3D

 54 57  0  0  0  0  0  0  0  0999 V2000
   59.2450   35.0370   44.6390 O   0  0  0  0  0  0  0  0  0  0  0  0
   58.6560   34.2310   45.4130 C   0  0  0  0  0  0  0  0  0  0  0  0
   58.5180   34.5800   46.8690 C   0  0  0  0  0  0  0  0  0  0  0  0
   59.1410   33.5010   47.7570 C   0  0  0  0  0  0  0  0  0  0  0  0
   60.6430   33.6420   47.8460 C   0  0  0  0  0  0  0  0  0  0  0  0
   61.4350   33.5050   46.6860 C   0  0  0  0  0  0  0  0  0  0  0  0
   62.8210   33.6680   46.7580 C   0  0  0  0  0  0  0  0  0  0  0  0
   63.4350   33.9630   47.9790 C   0  0  0  0  0  0  0  0  0  0  0  0
   62.6560   34.1080   49.1340 C   0  0  0  0  0  0  0  0  0  0  0  0
   61.2620   33.9550   49.0710 C   0  0  0  0  0  0  0  0  0  0  0  0
   60.5190   34.1050   50.2000 F   0  0  0  0  0  0  0  0  0  0  0  0
   58.0840   33.0190   44.9030 N   0  0  0  0  0  0  0  0  0  0  0  0
   58.0740   32.7230   43.4680 C   0  0  0  0  0  0  0  0  0  0  0  0
   57.9140   31.2160   43.2300 C   0  0  0  0  0  0  0  0  0  0  0  0
   57.7180   30.4710   44.5300 C   0  0  0  0  0  0  0  0  0  0  0  0
   56.7090   30.7540   45.2380 O   0  0  0  0  0  0  0  0  0  0  0  0
   58.6500   29.4470   44.9730 N   0  0  0  0  0  0  0  0  0  0  0  0
   59.9690   29.7700   45.5170 C   0  0  0  0  0  0  0  0  0  0  0  0
   59.9860   29.7360   47.0260 C   0  0  0  0  0  0  0  0  0  0  0  0
   60.9940   30.4950   47.6580 C   0  0  0  0  0  0  0  0  0  0  0  0
   61.0880   30.5700   49.0530 C   0  0  0  0  0  0  0  0  0  0  0  0
   60.1720   29.8840   49.8360 C   0  0  0  0  0  0  0  0  0  0  0  0
   59.1920   29.0870   49.2340 C   0  0  0  0  0  0  0  0  0  0  0  0
   59.1100   28.9550   47.8350 C   0  0  0  0  0  0  0  0  0  0  0  0
   58.1730   27.9910   47.3770 O   0  0  0  0  0  0  0  0  0  0  0  0
   58.0930   27.3700   46.1230 C   0  0  0  0  0  0  0  0  0  0  0  0
   57.7010   26.0230   46.0760 C   0  0  0  0  0  0  0  0  0  0  0  0
   57.5570   25.3670   44.8560 C   0  0  0  0  0  0  0  0  0  0  0  0
   57.7690   26.0640   43.6640 C   0  0  0  0  0  0  0  0  0  0  0  0
   57.5490   25.4570   42.4740 F   0  0  0  0  0  0  0  0  0  0  0  0
   58.1470   27.4090   43.6980 C   0  0  0  0  0  0  0  0  0  0  0  0
   58.3140   28.0620   44.9310 C   0  0  0  0  0  0  0  0  0  0  0  0
   59.0251   35.5376   47.0583 H   0  0  0  0  0  0  0  0  0  0  0  0
   57.4473   34.6545   47.1098 H   0  0  0  0  0  0  0  0  0  0  0  0
   58.7156   33.5833   48.7681 H   0  0  0  0  0  0  0  0  0  0  0  0
   58.9166   32.5210   47.3108 H   0  0  0  0  0  0  0  0  0  0  0  0
   60.9599   33.2692   45.7223 H   0  0  0  0  0  0  0  0  0  0  0  0
   63.4321   33.5637   45.8493 H   0  0  0  0  0  0  0  0  0  0  0  0
   64.5274   34.0809   48.0324 H   0  0  0  0  0  0  0  0  0  0  0  0
   63.1385   34.3427   50.0943 H   0  0  0  0  0  0  0  0  0  0  0  0
   57.6370   32.3560   45.5760 H   0  0  0  0  0  0  0  0  0  0  0  0
   57.2356   33.2550   42.9947 H   0  0  0  0  0  0  0  0  0  0  0  0
   59.0281   33.0523   43.0308 H   0  0  0  0  0  0  0  0  0  0  0  0
   57.0395   31.0463   42.5847 H   0  0  0  0  0  0  0  0  0  0  0  0
   58.8307   30.8416   42.7509 H   0  0  0  0  0  0  0  0  0  0  0  0
   60.6977   29.0385   45.1377 H   0  0  0  0  0  0  0  0  0  0  0  0
   60.2253   30.7913   45.1988 H   0  0  0  0  0  0  0  0  0  0  0  0
   61.7228   31.0404   47.0403 H   0  0  0  0  0  0  0  0  0  0  0  0
   61.8820   31.1682   49.5239 H   0  0  0  0  0  0  0  0  0  0  0  0
   60.2158   29.9665   50.9320 H   0  0  0  0  0  0  0  0  0  0  0  0
   58.4698   28.5518   49.8680 H   0  0  0  0  0  0  0  0  0  0  0  0
   57.5055   25.4800   47.0124 H   0  0  0  0  0  0  0  0  0  0  0  0
   57.2772   24.3035   44.8310 H   0  0  0  0  0  0  0  0  0  0  0  0
   58.3139   27.9569   42.7589 H   0  0  0  0  0  0  0  0  0  0  0  0
  1  2  2  0
  2  3  1  0
  3  4  1  0
  4  5  1  0
  5  6  2  0
  6  7  1  0
  7  8  2  0
  8  9  1  0
  9 10  2  0
 10 11  1  0
  2 12  1  0
 12 13  1  0
 13 14  1  0
 14 15  1  0
 15 16  2  0
 15 17  1  0
 17 18  1  0
 18 19  1  0
 19 20  2  0
 20 21  1  0
 21 22  2  0
 22 23  1  0
 23 24  2  0
 24 25  1  0
 25 26  1  0
 26 27  2  0
 27 28  1  0
 28 29  2  0
 29 30  1  0
 29 31  1  0
 31 32  2  0
 10  5  1  0
 32 17  1  0
 24 19  1  0
 32 26  1  0
  3 33  1  0
  3 34  1  0
  4 35  1  0
  4 36  1  0
  6 37  1  0
  7 38  1  0
  8 39  1  0
  9 40  1  0
 12 41  1  0
 13 42  1  0
 13 43  1  0
 14 44  1  0
 14 45  1  0
 18 46  1  0
 18 47  1  0
 20 48  1  0
 21 49  1  0
 22 50  1  0
 23 51  1  0
 27 52  1  0
 28 53  1  0
 31 54  1  0
M  END
>  <UniqueID>  (80) 
79

>  <SMILES>  (80) 
O=C(CCc1ccccc1F)NCCC(=O)N1Cc2ccccc2Oc2ccc(F)cc21

>  <Energy>  (80) 
72.77755074136657

>  <Genealogy>  (80) 
O=C(CCc1ccccc1F)NCCC(=O)N1Cc2ccccc2Oc2ccc(F)cc21 (3D coordinates assigned)
O=C(CCc1ccccc1F)NCCC(=O)N1Cc2ccccc2Oc2ccc(F)cc21 (nonaromatic ring conformer: 72.77755074136657 kcal/mol)

>  <smiles>  (80) 
O=C(CCc1ccccc1F)NCCC(=O)N1Cc2ccccc2Oc2ccc(F)cc21

>  <score_type>  (80) 
oracle

>  <origin>  (80) 
adg

>  <m_score__min__energy>  (80) 
-8.8599999999999994

>  <m_primary>  (80) 
energy

$$$$
80:0
     RDKit          3D

 45 46  0  0  0  0  0  0  0  0999 V2000
   57.8288   28.6501   46.7441 H   0  0  0  0  0  0  0  0  0  0  0  0
   57.7800   29.5790   46.1570 C   0  0  0  0  0  0  0  0  0  0  0  0
   56.6800   29.7970   45.3250 O   0  0  0  0  0  0  0  0  0  0  0  0
   56.6810   29.3810   43.9650 C   0  0  0  0  0  0  0  0  0  0  0  0
   56.6836   28.2820   43.9177 H   0  0  0  0  0  0  0  0  0  0  0  0
   55.7819   29.7675   43.4627 H   0  0  0  0  0  0  0  0  0  0  0  0
   57.5782   29.7718   43.4627 H   0  0  0  0  0  0  0  0  0  0  0  0
   58.7790   30.4680   46.2620 C   0  0  0  0  0  0  0  0  0  0  0  0
   60.1340   30.0940   46.7310 C   0  0  0  0  0  0  0  0  0  0  0  0
   60.4150   30.1860   47.9600 O   0  0  0  0  0  0  0  0  0  0  0  0
   61.1010   29.6440   45.8250 O   0  0  0  0  0  0  0  0  0  0  0  0
   60.8420   28.6210   44.8690 C   0  0  0  0  0  0  0  0  0  0  0  0
   60.6044   27.6826   45.3914 H   0  0  0  0  0  0  0  0  0  0  0  0
   59.9901   28.9155   44.2385 H   0  0  0  0  0  0  0  0  0  0  0  0
   61.7314   28.4746   44.2385 H   0  0  0  0  0  0  0  0  0  0  0  0
   58.5190   31.8670   45.8500 C   0  0  0  0  0  0  0  0  0  0  0  0
   58.2370   32.1290   44.5000 C   0  0  0  0  0  0  0  0  0  0  0  0
   58.2523   31.3072   43.7690 H   0  0  0  0  0  0  0  0  0  0  0  0
   57.9370   33.4270   44.0790 C   0  0  0  0  0  0  0  0  0  0  0  0
   57.7187   33.6241   43.0190 H   0  0  0  0  0  0  0  0  0  0  0  0
   57.9140   34.4730   45.0010 C   0  0  0  0  0  0  0  0  0  0  0  0
   57.6687   35.4926   44.6688 H   0  0  0  0  0  0  0  0  0  0  0  0
   58.2020   34.2280   46.3460 C   0  0  0  0  0  0  0  0  0  0  0  0
   58.1917   35.0600   47.0655 H   0  0  0  0  0  0  0  0  0  0  0  0
   58.5050   32.9280   46.7890 C   0  0  0  0  0  0  0  0  0  0  0  0
   58.8880   32.7140   48.2350 C   0  0  0  0  0  0  0  0  0  0  0  0
   59.1652   31.6603   48.3862 H   0  0  0  0  0  0  0  0  0  0  0  0
   58.0322   32.9707   48.8767 H   0  0  0  0  0  0  0  0  0  0  0  0
   59.9960   33.5480   48.5760 O   0  0  0  0  0  0  0  0  0  0  0  0
   61.3090   33.3990   48.0910 C   0  0  0  0  0  0  0  0  0  0  0  0
   61.6910   33.8600   46.8190 C   0  0  0  0  0  0  0  0  0  0  0  0
   60.9566   34.3579   46.1688 H   0  0  0  0  0  0  0  0  0  0  0  0
   63.0030   33.6840   46.3850 C   0  0  0  0  0  0  0  0  0  0  0  0
   63.3015   34.0427   45.3889 H   0  0  0  0  0  0  0  0  0  0  0  0
   63.9170   33.0720   47.1840 N   0  0  0  0  0  0  0  0  0  0  0  0
   64.8840   32.9680   46.8060 H   0  0  0  0  0  0  0  0  0  0  0  0
   63.5900   32.6180   48.4360 C   0  0  0  0  0  0  0  0  0  0  0  0
   64.4740   32.0300   49.1990 N   0  0  0  0  0  0  0  0  0  0  0  0
   65.4900   32.6980   50.0020 C   0  0  0  0  0  0  0  0  0  0  0  0
   65.2681   32.5521   51.0695 H   0  0  0  0  0  0  0  0  0  0  0  0
   66.4778   32.2726   49.7714 H   0  0  0  0  0  0  0  0  0  0  0  0
   65.4910   33.7735   49.7714 H   0  0  0  0  0  0  0  0  0  0  0  0
   62.2720   32.7860   48.9110 C   0  0  0  0  0  0  0  0  0  0  0  0
   61.9000   32.3130   50.2260 C   0  0  0  0  0  0  0  0  0  0  0  0
   61.5950   31.9290   51.2760 N   0  0  0  0  0  0  0  0  0  0  0  0
  1  2  1  0
  2  3  1  0
  3  4  1  0
  4  5  1  0
  4  6  1  0
  4  7  1  0
  2  8  2  0
  8  9  1  0
  9 10  2  0
  9 11  1  0
 11 12  1  0
 12 13  1  0
 12 14  1  0
 12 15  1  0
  8 16  1  0
 16 17  2  0
 17 18  1  0
 17 19  1  0
 19 20  1  0
 19 21  2  0
 21 22  1  0
 21 23  1  0
 23 24  1  0
 23 25  2  0
 25 26  1  0
 26 27  1  0
 26 28  1  0
 26 29  1  0
 29 30  1  0
 30 31  1  0
 31 32  1  0
 31 33  2  0
 33 34  1  0
 33 35  1  0
 35 36  1  0
 35 37  1  0
 37 38  2  0
 38 39  1  0
 39 40  1  0
 39 41  1  0
 39 42  1  0
 37 43  1  0
 43 44  1  0
 44 45  3  0
 25 16  1  0
 43 30  2  0
M  END
>  <UniqueID>  (81) 
80

>  <SMILES>  (81) 
C/N=c1\[nH]ccc(OCc2ccccc2/C(=C/OC)C(=O)OC)c1C#N

>  <Energy>  (81) 
50.6862902385071

>  <Genealogy>  (81) 
C/N=c1\[nH]ccc(OCc2ccccc2/C(=C/OC)C(=O)OC)c1C#N (cis-trans isomerization)
C/N=c1\[nH]ccc(OCc2ccccc2/C(=C/OC)C(=O)OC)c1C#N (3D coordinates assigned)
C/N=c1\[nH]ccc(OCc2ccccc2/C(=C/OC)C(=O)OC)c1C#N (optimized conformer: 50.6862902385071 kcal/mol)

>  <smiles>  (81) 
CN=c1[nH]ccc(OCc2ccccc2C(=COC)C(=O)OC)c1C#N

>  <score_type>  (81) 
oracle

>  <origin>  (81) 
adg

>  <m_score__min__energy>  (81) 
-6.4299999999999997

>  <m_primary>  (81) 
energy

$$$$
81:0
     RDKit          3D

 42 43  0  0  0  0  0  0  0  0999 V2000
   63.5960   33.0760   47.1330 C   0  0  0  0  0  0  0  0  0  0  0  0
   62.2880   33.8470   47.0110 C   0  0  0  0  0  0  0  0  0  0  0  0
   61.1350   32.9090   46.7790 C   0  0  0  0  0  0  0  0  0  0  0  0
   59.9460   33.3770   46.2000 C   0  0  0  0  0  0  0  0  0  0  0  0
   58.8860   32.4980   45.9600 C   0  0  0  0  0  0  0  0  0  0  0  0
   58.9970   31.1400   46.2810 C   0  0  0  0  0  0  0  0  0  0  0  0
   57.8970   30.3070   46.0210 O   0  0  0  0  0  0  0  0  0  0  0  0
   57.7010   29.0000   46.5610 C   0  0  0  0  0  0  0  0  0  0  0  0
   56.9800   28.0950   45.5480 C   0  0  2  0  0  0  0  0  0  0  0  0
   55.7710   28.7050   45.1770 O   0  0  0  0  0  0  0  0  0  0  0  0
   56.6950   26.7110   46.1490 C   0  0  0  0  0  0  0  0  0  0  0  0
   55.2970   26.3480   45.9310 N   0  0  0  0  0  0  0  0  0  0  0  0
   54.8310   25.0270   45.6260 C   0  0  0  0  0  0  0  0  0  0  0  0
   53.6350   24.7330   45.8880 O   0  0  0  0  0  0  0  0  0  0  0  0
   55.6930   24.0150   44.9810 C   0  0  0  0  0  0  0  0  0  0  0  0
   56.7800   23.4740   45.6870 C   0  0  0  0  0  0  0  0  0  0  0  0
   57.6100   22.5240   45.0830 C   0  0  0  0  0  0  0  0  0  0  0  0
   57.3690   22.1200   43.7670 C   0  0  0  0  0  0  0  0  0  0  0  0
   56.3030   22.6710   43.0510 C   0  0  0  0  0  0  0  0  0  0  0  0
   55.4710   23.6210   43.6510 C   0  0  0  0  0  0  0  0  0  0  0  0
   60.1950   30.6680   46.8530 C   0  0  0  0  0  0  0  0  0  0  0  0
   61.2560   31.5470   47.0950 C   0  0  0  0  0  0  0  0  0  0  0  0
   63.8393   32.9326   48.1961 H   0  0  0  0  0  0  0  0  0  0  0  0
   63.4906   32.0956   46.6455 H   0  0  0  0  0  0  0  0  0  0  0  0
   64.4027   33.6430   46.6455 H   0  0  0  0  0  0  0  0  0  0  0  0
   62.1134   34.4104   47.9395 H   0  0  0  0  0  0  0  0  0  0  0  0
   62.3619   34.5337   46.1548 H   0  0  0  0  0  0  0  0  0  0  0  0
   59.8475   34.4398   45.9338 H   0  0  0  0  0  0  0  0  0  0  0  0
   57.9547   32.8774   45.5142 H   0  0  0  0  0  0  0  0  0  0  0  0
   58.6791   28.5602   46.8058 H   0  0  0  0  0  0  0  0  0  0  0  0
   57.0812   29.0810   47.4662 H   0  0  0  0  0  0  0  0  0  0  0  0
   57.6266   27.9589   44.6686 H   0  0  0  0  0  0  0  0  0  0  0  0
   55.1420   27.9740   44.9380 H   0  0  0  0  0  0  0  0  0  0  0  0
   57.3441   25.9646   45.6678 H   0  0  0  0  0  0  0  0  0  0  0  0
   56.8955   26.7395   47.2302 H   0  0  0  0  0  0  0  0  0  0  0  0
   56.9793   23.7987   46.7189 H   0  0  0  0  0  0  0  0  0  0  0  0
   58.4530   22.0946   45.6442 H   0  0  0  0  0  0  0  0  0  0  0  0
   58.0185   21.3682   43.2948 H   0  0  0  0  0  0  0  0  0  0  0  0
   56.1181   22.3567   42.0132 H   0  0  0  0  0  0  0  0  0  0  0  0
   54.6402   24.0612   43.0800 H   0  0  0  0  0  0  0  0  0  0  0  0
   60.2965   29.6034   47.1105 H   0  0  0  0  0  0  0  0  0  0  0  0
   62.1903   31.1686   47.5354 H   0  0  0  0  0  0  0  0  0  0  0  0
  1  2  1  0
  2  3  1  0
  3  4  2  0
  4  5  1  0
  5  6  2  0
  6  7  1  0
  7  8  1  0
  8  9  1  0
  9 10  1  0
  9 11  1  0
 11 12  1  0
 12 13  1  0
 13 14  2  0
 13 15  1  0
 15 16  2  0
 16 17  1  0
 17 18  2  0
 18 19  1  0
 19 20  2  0
  6 21  1  0
 21 22  2  0
 22  3  1  0
 20 15  1  0
  1 23  1  0
  1 24  1  0
  1 25  1  0
  2 26  1  0
  2 27  1  0
  4 28  1  0
  5 29  1  0
  8 30  1  0
  8 31  1  0
  9 32  1  6
 10 33  1  0
 11 34  1  0
 11 35  1  0
 16 36  1  0
 17 37  1  0
 18 38  1  0
 19 39  1  0
 20 40  1  0
 21 41  1  0
 22 42  1  0
M  CHG  1  12  -1
M  END
>  <UniqueID>  (82) 
81

>  <SMILES>  (82) 
CCc1ccc(OC[C@H](O)C[N-]C(=O)c2ccccc2)cc1

>  <Energy>  (82) 
39.8451058213687

>  <Genealogy>  (82) 
CCc1ccc(OCC(O)C[N-]C(=O)c2ccccc2)cc1 (protonated)
CCc1ccc(OC[C@H](O)C[N-]C(=O)c2ccccc2)cc1 (chirality)
CCc1ccc(OC[C@H](O)C[N-]C(=O)c2ccccc2)cc1 (3D coordinates assigned)
CCc1ccc(OC[C@H](O)C[N-]C(=O)c2ccccc2)cc1 (optimized conformer: 39.8451058213687 kcal/mol)

>  <smiles>  (82) 
CCc1ccc(OCC(O)CNC(=O)c2ccccc2)cc1

>  <score_type>  (82) 
oracle

>  <origin>  (82) 
adg

>  <m_score__min__energy>  (82) 
-10.380000000000001

>  <m_primary>  (82) 
energy

$$$$
82:0
     RDKit          3D

 55 58  0  0  1  0  0  0  0  0999 V2000
   60.0390   30.3660   50.0460 C   0  0  0  0  0  0  0  0  0  0  0  0
   60.2510   31.6650   49.4560 N   0  0  0  0  0  0  0  0  0  0  0  0
   61.4920   32.0390   48.8270 C   0  0  0  0  0  0  0  0  0  0  0  0
   62.2290   32.9960   49.5240 C   0  0  0  0  0  0  0  0  0  0  0  0
   63.4210   33.4040   48.9670 C   0  0  0  0  0  0  0  0  0  0  0  0
   63.8940   32.9050   47.7680 C   0  0  0  0  0  0  0  0  0  0  0  0
   63.1140   31.9500   47.1180 C   0  0  0  0  0  0  0  0  0  0  0  0
   61.9110   31.5050   47.6320 C   0  0  0  0  0  0  0  0  0  0  0  0
   61.0790   30.4750   46.9260 C   0  0  0  0  0  0  0  0  0  0  0  0
   59.7370   30.9270   46.7220 N   0  0  0  0  0  0  0  0  0  0  0  0
   58.9080   30.1900   46.0720 C   0  0  0  0  0  0  0  0  0  0  0  0
   58.3560   29.0310   46.5440 C   0  0  0  0  0  0  0  0  0  0  0  0
   57.4500   28.2750   45.7900 C   0  0  0  0  0  0  0  0  0  0  0  0
   56.8890   27.1030   46.3210 N   0  0  0  0  0  0  0  0  0  0  0  0
   56.6320   25.9010   45.6280 C   0  0  0  0  0  0  0  0  0  0  0  0
   57.5130   25.5460   44.6150 C   0  0  0  0  0  0  0  0  0  0  0  0
   57.3880   24.4260   43.8510 C   0  0  0  0  0  0  0  0  0  0  0  0
   56.3240   23.5800   44.0820 C   0  0  0  0  0  0  0  0  0  0  0  0
   55.4320   23.9190   45.0890 C   0  0  0  0  0  0  0  0  0  0  0  0
   55.5800   25.0630   45.8550 C   0  0  0  0  0  0  0  0  0  0  0  0
   57.1650   28.7750   44.5720 N   0  0  0  0  0  0  0  0  0  0  0  0
   57.7030   29.9130   44.1030 C   0  0  0  0  0  0  0  0  0  0  0  0
   58.5710   30.6280   44.8360 N   0  0  0  0  0  0  0  0  0  0  0  0
   59.0020   32.8770   49.4670 S   0  0  0  0  0  0  0  0  0  0  0  0
   59.3900   33.9860   50.4000 O   0  0  0  0  0  0  0  0  0  0  0  0
   57.7020   32.3260   49.9050 O   0  0  0  0  0  0  0  0  0  0  0  0
   58.8510   33.5340   47.8420 C   0  0  0  0  0  0  0  0  0  0  0  0
   57.7580   33.2250   47.0450 C   0  0  0  0  0  0  0  0  0  0  0  0
   57.5900   33.7130   45.7720 C   0  0  0  0  0  0  0  0  0  0  0  0
   58.5830   34.5650   45.2690 C   0  0  0  0  0  0  0  0  0  0  0  0
   59.6870   34.8890   46.0470 C   0  0  0  0  0  0  0  0  0  0  0  0
   59.8250   34.3860   47.3150 C   0  0  0  0  0  0  0  0  0  0  0  0
   60.0534   30.4545   51.1423 H   0  0  0  0  0  0  0  0  0  0  0  0
   59.0645   29.9711   49.7228 H   0  0  0  0  0  0  0  0  0  0  0  0
   60.8374   29.6818   49.7228 H   0  0  0  0  0  0  0  0  0  0  0  0
   61.8730   33.4083   50.4797 H   0  0  0  0  0  0  0  0  0  0  0  0
   64.0209   34.1577   49.4981 H   0  0  0  0  0  0  0  0  0  0  0  0
   64.8489   33.2482   47.3432 H   0  0  0  0  0  0  0  0  0  0  0  0
   63.4685   31.5361   46.1625 H   0  0  0  0  0  0  0  0  0  0  0  0
   61.5344   30.2580   45.9485 H   0  0  0  0  0  0  0  0  0  0  0  0
   61.0448   29.5728   47.5544 H   0  0  0  0  0  0  0  0  0  0  0  0
   58.6330   28.6811   47.5494 H   0  0  0  0  0  0  0  0  0  0  0  0
   56.6260   27.1050   47.3500 H   0  0  0  0  0  0  0  0  0  0  0  0
   58.3659   26.2119   44.4173 H   0  0  0  0  0  0  0  0  0  0  0  0
   58.1224   24.2002   43.0638 H   0  0  0  0  0  0  0  0  0  0  0  0
   56.1868   22.6652   43.4867 H   0  0  0  0  0  0  0  0  0  0  0  0
   54.5770   23.2556   45.2859 H   0  0  0  0  0  0  0  0  0  0  0  0
   54.8507   25.2955   46.6450 H   0  0  0  0  0  0  0  0  0  0  0  0
   56.4900   28.2880   43.9460 H   0  0  0  0  0  0  0  0  0  0  0  0
   57.4268   30.2660   43.0984 H   0  0  0  0  0  0  0  0  0  0  0  0
   56.9869   32.5552   47.4533 H   0  0  0  0  0  0  0  0  0  0  0  0
   56.7092   33.4452   45.1699 H   0  0  0  0  0  0  0  0  0  0  0  0
   58.4875   34.9786   44.2542 H   0  0  0  0  0  0  0  0  0  0  0  0
   60.4603   35.5575   45.6408 H   0  0  0  0  0  0  0  0  0  0  0  0
   60.7046   34.6538   47.9188 H   0  0  0  0  0  0  0  0  0  0  0  0
  1  2  1  0
  2  3  1  0
  3  4  2  0
  4  5  1  0
  5  6  2  0
  6  7  1  0
  7  8  2  0
  8  9  1  0
  9 10  1  0
 10 11  2  0
 11 12  1  0
 12 13  2  0
 13 14  1  0
 14 15  1  0
 15 16  2  0
 16 17  1  0
 17 18  2  0
 18 19  1  0
 19 20  2  0
 13 21  1  0
 21 22  1  0
 22 23  2  0
  2 24  1  0
 24 25  2  0
 24 26  2  0
 24 27  1  0
 27 28  2  0
 28 29  1  0
 29 30  2  0
 30 31  1  0
 31 32  2  0
  8  3  1  0
 23 11  1  0
 32 27  1  0
 20 15  1  0
  1 33  1  0
  1 34  1  0
  1 35  1  0
  4 36  1  0
  5 37  1  0
  6 38  1  0
  7 39  1  0
  9 40  1  0
  9 41  1  0
 12 42  1  0
 14 43  1  0
 16 44  1  0
 17 45  1  0
 18 46  1  0
 19 47  1  0
 20 48  1  0
 21 49  1  0
 22 50  1  0
 28 51  1  0
 29 52  1  0
 30 53  1  0
 31 54  1  0
 32 55  1  0
M  END
>  <smiles>  (83) 
CN(c1ccccc1CN=c1cc(Nc2ccccc2)[nH]cn1)S(=O)(=O)c1ccccc1

>  <score_type>  (83) 
oracle

>  <origin>  (83) 
adg

>  <m_score__min__energy>  (83) 
-9.8699999999999992

>  <m_primary>  (83) 
energy

$$$$
83:0
     RDKit          3D

 41 44  0  0  0  0  0  0  0  0999 V2000
   57.0890   31.2700   41.9370 O   0  0  0  0  0  0  0  0  0  0  0  0
   57.3550   31.4980   43.1480 C   0  0  0  0  0  0  0  0  0  0  0  0
   57.4400   32.8520   43.6130 N   0  0  0  0  0  0  0  0  0  0  0  0
   58.0320   33.3020   44.8420 C   0  0  0  0  0  0  0  0  0  0  0  0
   59.1090   34.2070   44.8640 C   0  0  0  0  0  0  0  0  0  0  0  0
   59.6740   34.5980   46.0820 C   0  0  0  0  0  0  0  0  0  0  0  0
   59.1810   34.0790   47.2840 C   0  0  0  0  0  0  0  0  0  0  0  0
   59.9120   34.5760   48.8440 S   0  0  0  0  0  0  0  0  0  0  0  0
   61.4140   33.6450   48.5450 C   0  0  0  0  0  0  0  0  0  0  0  0
   61.3570   32.4130   47.8810 C   0  0  0  0  0  0  0  0  0  0  0  0
   62.5310   31.6910   47.6440 C   0  0  0  0  0  0  0  0  0  0  0  0
   63.7630   32.1970   48.0720 C   0  0  0  0  0  0  0  0  0  0  0  0
   63.8220   33.4240   48.7380 C   0  0  0  0  0  0  0  0  0  0  0  0
   62.6490   34.1480   48.9770 C   0  0  0  0  0  0  0  0  0  0  0  0
   58.1230   33.1640   47.2650 C   0  0  0  0  0  0  0  0  0  0  0  0
   57.5590   32.7700   46.0480 C   0  0  0  0  0  0  0  0  0  0  0  0
   57.5200   30.3600   44.0930 C   0  0  0  0  0  0  0  0  0  0  0  0
   58.8090   29.8920   44.4020 C   0  0  0  0  0  0  0  0  0  0  0  0
   58.9750   28.8250   45.2870 C   0  0  0  0  0  0  0  0  0  0  0  0
   60.2470   28.3320   45.6150 C   0  0  0  0  0  0  0  0  0  0  0  0
   60.3710   27.2620   46.5060 C   0  0  0  0  0  0  0  0  0  0  0  0
   59.2310   26.6820   47.0710 C   0  0  0  0  0  0  0  0  0  0  0  0
   57.9610   27.1690   46.7480 C   0  0  0  0  0  0  0  0  0  0  0  0
   57.8260   28.2400   45.8570 C   0  0  0  0  0  0  0  0  0  0  0  0
   56.6190   28.7020   45.5520 O   0  0  0  0  0  0  0  0  0  0  0  0
   56.4220   29.7150   44.7130 C   0  0  0  0  0  0  0  0  0  0  0  0
   55.2410   30.0870   44.4870 O   0  0  0  0  0  0  0  0  0  0  0  0
   59.5077   34.6081   43.9205 H   0  0  0  0  0  0  0  0  0  0  0  0
   60.5079   35.3152   46.0950 H   0  0  0  0  0  0  0  0  0  0  0  0
   60.3885   32.0133   47.5459 H   0  0  0  0  0  0  0  0  0  0  0  0
   62.4857   30.7245   47.1207 H   0  0  0  0  0  0  0  0  0  0  0  0
   64.6859   31.6286   47.8841 H   0  0  0  0  0  0  0  0  0  0  0  0
   64.7912   33.8208   49.0745 H   0  0  0  0  0  0  0  0  0  0  0  0
   62.6959   35.1123   49.5041 H   0  0  0  0  0  0  0  0  0  0  0  0
   57.7343   32.7540   48.2088 H   0  0  0  0  0  0  0  0  0  0  0  0
   56.7385   32.0375   46.0376 H   0  0  0  0  0  0  0  0  0  0  0  0
   59.6893   30.3678   43.9453 H   0  0  0  0  0  0  0  0  0  0  0  0
   61.1452   28.7867   45.1718 H   0  0  0  0  0  0  0  0  0  0  0  0
   61.3681   26.8752   46.7633 H   0  0  0  0  0  0  0  0  0  0  0  0
   59.3338   25.8402   47.7716 H   0  0  0  0  0  0  0  0  0  0  0  0
   57.0667   26.7099   47.1946 H   0  0  0  0  0  0  0  0  0  0  0  0
  1  2  2  0
  2  3  1  0
  3  4  1  0
  4  5  2  0
  5  6  1  0
  6  7  2  0
  7  8  1  0
  8  9  1  0
  9 10  2  0
 10 11  1  0
 11 12  2  0
 12 13  1  0
 13 14  2  0
  7 15  1  0
 15 16  2  0
  2 17  1  0
 17 18  2  0
 18 19  1  0
 19 20  2  0
 20 21  1  0
 21 22  2  0
 22 23  1  0
 23 24  2  0
 24 25  1  0
 25 26  1  0
 26 27  2  0
 16  4  1  0
 26 17  1  0
 14  9  1  0
 24 19  1  0
  5 28  1  0
  6 29  1  0
 10 30  1  0
 11 31  1  0
 12 32  1  0
 13 33  1  0
 14 34  1  0
 15 35  1  0
 16 36  1  0
 18 37  1  0
 20 38  1  0
 21 39  1  0
 22 40  1  0
 23 41  1  0
M  CHG  1   3  -1
M  END
>  <UniqueID>  (84) 
82

>  <SMILES>  (84) 
O=C([N-]c1ccc(Sc2ccccc2)cc1)c1cc2ccccc2oc1=O

>  <Energy>  (84) 
51.91104641429507

>  <Genealogy>  (84) 
O=C([N-]c1ccc(Sc2ccccc2)cc1)c1cc2ccccc2oc1=O (protonated)
O=C([N-]c1ccc(Sc2ccccc2)cc1)c1cc2ccccc2oc1=O (3D coordinates assigned)
O=C([N-]c1ccc(Sc2ccccc2)cc1)c1cc2ccccc2oc1=O (optimized conformer: 51.91104641429507 kcal/mol)

>  <smiles>  (84) 
O=C(Nc1ccc(Sc2ccccc2)cc1)c1cc2ccccc2oc1=O

>  <score_type>  (84) 
oracle

>  <origin>  (84) 
adg

>  <m_score__min__energy>  (84) 
-10.800000000000001

>  <m_primary>  (84) 
energy

$$$$
84:0
     RDKit          3D

 50 53  0  0  1  0  0  0  0  0999 V2000
   55.8940   29.3260   42.7300 N   0  0  0  0  0  0  0  0  0  0  0  0
   56.2320   29.9200   43.9770 C   0  0  0  0  0  0  0  0  0  0  0  0
   55.8780   29.4060   45.0680 O   0  0  0  0  0  0  0  0  0  0  0  0
   57.0060   31.1540   43.9890 C   0  0  0  0  0  0  0  0  0  0  0  0
   57.6940   31.5840   42.8790 C   0  0  0  0  0  0  0  0  0  0  0  0
   58.4400   32.7460   42.8430 C   0  0  0  0  0  0  0  0  0  0  0  0
   58.4760   33.4920   44.0030 C   0  0  0  0  0  0  0  0  0  0  0  0
   57.8080   33.1110   45.1410 C   0  0  0  0  0  0  0  0  0  0  0  0
   57.8670   33.9620   46.4070 C   0  0  0  0  0  0  0  0  0  0  0  0
   60.8680   29.5450   46.1690 N   0  0  0  0  0  0  0  0  0  0  0  0
   60.7470   30.6730   46.7720 C   0  0  0  0  0  0  0  0  0  0  0  0
   59.5650   31.3120   46.8160 N   0  0  0  0  0  0  0  0  0  0  0  0
   59.4010   32.5050   47.4440 C   0  0  0  0  0  0  0  0  0  0  0  0
   58.2420   33.0160   47.4230 N   0  0  0  0  0  0  0  0  0  0  0  0
   59.8250   28.6070   46.0110 C   0  0  0  0  0  0  0  0  0  0  0  0
   59.5030   28.0020   44.8140 C   0  0  0  0  0  0  0  0  0  0  0  0
   58.4470   27.0930   44.8040 C   0  0  0  0  0  0  0  0  0  0  0  0
   57.7280   26.7860   45.9360 C   0  0  0  0  0  0  0  0  0  0  0  0
   56.4170   25.6290   45.8180 S   0  0  0  0  0  0  0  0  0  0  0  0
   56.4440   24.7390   44.3510 N   0  0  0  0  0  0  0  0  0  0  0  0
   56.4890   24.6410   46.9490 O   0  0  0  0  0  0  0  0  0  0  0  0
   55.1040   26.3410   45.9550 O   0  0  0  0  0  0  0  0  0  0  0  0
   58.0510   27.3910   47.1320 C   0  0  0  0  0  0  0  0  0  0  0  0
   59.0930   28.2930   47.1580 C   0  0  0  0  0  0  0  0  0  0  0  0
   61.8330   31.2050   47.3610 N   0  0  0  0  0  0  0  0  0  0  0  0
   61.6820   32.3860   47.9860 C   0  0  0  0  0  0  0  0  0  0  0  0
   62.5990   33.1120   48.6400 N   0  0  0  0  0  0  0  0  0  0  0  0
   62.0060   34.2240   49.1060 C   0  0  0  0  0  0  0  0  0  0  0  0
   60.6500   34.2250   48.7450 C   0  0  0  0  0  0  0  0  0  0  0  0
   60.4850   33.0670   48.0500 C   0  0  0  0  0  0  0  0  0  0  0  0
   57.0780   31.9410   45.1170 C   0  0  0  0  0  0  0  0  0  0  0  0
   55.5840   29.9290   41.9140 H   0  0  0  0  0  0  0  0  0  0  0  0
   55.9460   28.2920   42.6020 H   0  0  0  0  0  0  0  0  0  0  0  0
   57.6478   30.9682   41.9687 H   0  0  0  0  0  0  0  0  0  0  0  0
   58.9776   33.0603   41.9363 H   0  0  0  0  0  0  0  0  0  0  0  0
   59.0599   34.4241   44.0169 H   0  0  0  0  0  0  0  0  0  0  0  0
   58.6202   34.7580   46.3122 H   0  0  0  0  0  0  0  0  0  0  0  0
   56.9192   34.4758   46.6254 H   0  0  0  0  0  0  0  0  0  0  0  0
   58.7660   30.8660   46.3520 H   0  0  0  0  0  0  0  0  0  0  0  0
   60.0629   28.2302   43.8951 H   0  0  0  0  0  0  0  0  0  0  0  0
   58.1785   26.6030   43.8565 H   0  0  0  0  0  0  0  0  0  0  0  0
   57.2030   24.0330   44.3300 H   0  0  0  0  0  0  0  0  0  0  0  0
   56.4180   25.3540   43.5080 H   0  0  0  0  0  0  0  0  0  0  0  0
   57.4880   27.1584   48.0479 H   0  0  0  0  0  0  0  0  0  0  0  0
   59.3553   28.7792   48.1092 H   0  0  0  0  0  0  0  0  0  0  0  0
   62.7570   30.7160   47.3330 H   0  0  0  0  0  0  0  0  0  0  0  0
   63.6200   32.8480   48.7630 H   0  0  0  0  0  0  0  0  0  0  0  0
   62.5078   35.0144   49.6834 H   0  0  0  0  0  0  0  0  0  0  0  0
   59.8920   34.9890   48.9724 H   0  0  0  0  0  0  0  0  0  0  0  0
   56.5388   31.6280   46.0232 H   0  0  0  0  0  0  0  0  0  0  0  0
  1  2  1  0
  2  3  2  0
  2  4  1  0
  4  5  2  0
  5  6  1  0
  6  7  2  0
  7  8  1  0
  8  9  1  0
  9 10  1  0
 10 11  2  0
 11 12  1  0
 12 13  1  0
 13 14  2  0
 14 15  1  0
 15 16  2  0
 16 17  1  0
 17 18  2  0
 18 19  1  0
 19 20  1  0
 19 21  2  0
 19 22  2  0
 18 23  1  0
 23 24  2  0
 13 25  1  0
 25 26  1  0
 26 27  1  0
 27 28  1  0
 28 29  2  0
 29 30  1  0
  8 31  2  0
 31  4  1  0
 30 11  1  0
 24 15  1  0
 30 26  2  0
  1 32  1  0
  1 33  1  0
  5 34  1  0
  6 35  1  0
  7 36  1  0
  9 37  1  0
  9 38  1  0
 12 39  1  0
 16 40  1  0
 17 41  1  0
 20 42  1  0
 20 43  1  0
 23 44  1  0
 24 45  1  0
 25 46  1  0
 27 47  1  0
 28 48  1  0
 29 49  1  0
 31 50  1  0
M  END
>  <smiles>  (85) 
NC(=O)c1cccc(CN=c2[nH]c(=Nc3ccc(S(N)(=O)=O)cc3)[nH]c3[nH]ccc23)c1

>  <score_type>  (85) 
oracle

>  <origin>  (85) 
adg

>  <m_score__min__energy>  (85) 
-10.470000000000001

>  <m_primary>  (85) 
energy

$$$$
85:0
     RDKit          3D

 75 79  0  0  0  0  0  0  0  0999 V2000
   58.9520   34.6110   53.6260 C   0  0  0  0  0  0  0  0  0  0  0  0
   60.0840   33.7850   53.0150 C   0  0  0  0  0  0  0  0  0  0  0  0
   59.9180   33.5910   51.5010 C   0  0  0  0  0  0  0  0  0  0  0  0
   61.2180   33.3720   50.7510 C   0  0  0  0  0  0  0  0  0  0  0  0
   62.3160   32.8080   51.3030 N   0  0  0  0  0  0  0  0  0  0  0  0
   63.2730   32.8560   50.3580 C   0  0  0  0  0  0  0  0  0  0  0  0
   64.6520   32.3740   50.5750 C   0  0  0  0  0  0  0  0  0  0  0  0
   64.8670   31.1300   51.1870 C   0  0  0  0  0  0  0  0  0  0  0  0
   66.1680   30.6820   51.4400 C   0  0  0  0  0  0  0  0  0  0  0  0
   67.2610   31.4800   51.0990 C   0  0  0  0  0  0  0  0  0  0  0  0
   67.0570   32.7220   50.4930 C   0  0  0  0  0  0  0  0  0  0  0  0
   65.7590   33.1720   50.2350 C   0  0  0  0  0  0  0  0  0  0  0  0
   62.7420   33.4520   49.2220 C   0  0  0  0  0  0  0  0  0  0  0  0
   63.4440   33.6630   47.9090 C   0  0  0  0  0  0  0  0  0  0  0  0
   63.7390   32.4260   47.3290 O   0  0  0  0  0  0  0  0  0  0  0  0
   61.4590   33.8010   49.4830 N   0  0  0  0  0  0  0  0  0  0  0  0
   60.5750   34.5910   48.6130 C   0  0  0  0  0  0  0  0  0  0  0  0
   59.8930   33.7050   47.6030 C   0  0  0  0  0  0  0  0  0  0  0  0
   58.5200   33.8480   47.3410 C   0  0  0  0  0  0  0  0  0  0  0  0
   57.8830   33.0010   46.4300 C   0  0  0  0  0  0  0  0  0  0  0  0
   58.6080   31.9940   45.7740 C   0  0  0  0  0  0  0  0  0  0  0  0
   57.9290   31.0650   44.8480 C   0  0  0  0  0  0  0  0  0  0  0  0
   57.3590   31.5870   43.6740 C   0  0  0  0  0  0  0  0  0  0  0  0
   56.7210   30.7450   42.7610 C   0  0  0  0  0  0  0  0  0  0  0  0
   56.6470   29.3760   43.0090 C   0  0  0  0  0  0  0  0  0  0  0  0
   57.2210   28.8390   44.1630 C   0  0  0  0  0  0  0  0  0  0  0  0
   57.8700   29.6700   45.0900 C   0  0  0  0  0  0  0  0  0  0  0  0
   58.6380   28.9310   46.5030 S   0  0  0  0  0  0  0  0  0  0  0  0
   60.0780   28.6110   46.2200 O   0  0  0  0  0  0  0  0  0  0  0  0
   57.9350   27.6450   46.8330 O   0  0  0  0  0  0  0  0  0  0  0  0
   58.5280   30.0010   47.8650 N   0  0  0  0  0  0  0  0  0  0  0  0
   59.5340   30.1890   48.8680 C   0  0  0  0  0  0  0  0  0  0  0  0
   60.7340   30.3010   48.5060 O   0  0  0  0  0  0  0  0  0  0  0  0
   59.2010   30.3250   50.2990 C   0  0  0  0  0  0  0  0  0  0  0  0
   58.0310   31.0260   50.6360 C   0  0  0  0  0  0  0  0  0  0  0  0
   57.6670   31.2030   51.9690 C   0  0  0  0  0  0  0  0  0  0  0  0
   58.4720   30.6940   52.9860 C   0  0  0  0  0  0  0  0  0  0  0  0
   59.6530   30.0190   52.6730 C   0  0  0  0  0  0  0  0  0  0  0  0
   60.0470   29.8340   51.3310 C   0  0  0  0  0  0  0  0  0  0  0  0
   61.3350   29.0990   51.0170 C   0  0  0  0  0  0  0  0  0  0  0  0
   61.8500   28.5590   52.1780 F   0  0  0  0  0  0  0  0  0  0  0  0
   62.2900   29.9410   50.4710 F   0  0  0  0  0  0  0  0  0  0  0  0
   61.0910   28.0840   50.1100 F   0  0  0  0  0  0  0  0  0  0  0  0
   59.9880   31.8830   45.9960 C   0  0  0  0  0  0  0  0  0  0  0  0
   60.6250   32.7320   46.9050 C   0  0  0  0  0  0  0  0  0  0  0  0
   59.0153   34.5648   54.7232 H   0  0  0  0  0  0  0  0  0  0  0  0
   59.0425   35.6568   53.2972 H   0  0  0  0  0  0  0  0  0  0  0  0
   57.9837   34.2058   53.2972 H   0  0  0  0  0  0  0  0  0  0  0  0
   61.0377   34.3002   53.2023 H   0  0  0  0  0  0  0  0  0  0  0  0
   60.0633   32.7903   53.4841 H   0  0  0  0  0  0  0  0  0  0  0  0
   59.2734   32.7153   51.3350 H   0  0  0  0  0  0  0  0  0  0  0  0
   59.4838   34.5233   51.1108 H   0  0  0  0  0  0  0  0  0  0  0  0
   62.4290   32.4430   52.2740 H   0  0  0  0  0  0  0  0  0  0  0  0
   64.0081   30.5035   51.4694 H   0  0  0  0  0  0  0  0  0  0  0  0
   66.3296   29.6998   51.9082 H   0  0  0  0  0  0  0  0  0  0  0  0
   68.2831   31.1310   51.3074 H   0  0  0  0  0  0  0  0  0  0  0  0
   67.9195   33.3471   50.2183 H   0  0  0  0  0  0  0  0  0  0  0  0
   65.6028   34.1539   49.7643 H   0  0  0  0  0  0  0  0  0  0  0  0
   62.7924   34.2373   47.2340 H   0  0  0  0  0  0  0  0  0  0  0  0
   64.3785   34.2174   48.0802 H   0  0  0  0  0  0  0  0  0  0  0  0
   64.6990   32.4610   47.0840 H   0  0  0  0  0  0  0  0  0  0  0  0
   59.8125   35.0894   49.2296 H   0  0  0  0  0  0  0  0  0  0  0  0
   61.1800   35.3376   48.0777 H   0  0  0  0  0  0  0  0  0  0  0  0
   57.9434   34.6308   47.8557 H   0  0  0  0  0  0  0  0  0  0  0  0
   56.8091   33.1240   46.2262 H   0  0  0  0  0  0  0  0  0  0  0  0
   57.4160   32.6670   43.4730 H   0  0  0  0  0  0  0  0  0  0  0  0
   56.2766   31.1627   41.8455 H   0  0  0  0  0  0  0  0  0  0  0  0
   56.1347   28.7161   42.2934 H   0  0  0  0  0  0  0  0  0  0  0  0
   57.1643   27.7560   44.3473 H   0  0  0  0  0  0  0  0  0  0  0  0
   57.3957   31.4395   49.8389 H   0  0  0  0  0  0  0  0  0  0  0  0
   56.7431   31.7452   52.2189 H   0  0  0  0  0  0  0  0  0  0  0  0
   58.1763   30.8243   54.0375 H   0  0  0  0  0  0  0  0  0  0  0  0
   60.2848   29.6262   53.4833 H   0  0  0  0  0  0  0  0  0  0  0  0
   60.5713   31.1249   45.4527 H   0  0  0  0  0  0  0  0  0  0  0  0
   61.7077   32.6370   47.0746 H   0  0  0  0  0  0  0  0  0  0  0  0
  1  2  1  0
  2  3  1  0
  3  4  1  0
  4  5  2  0
  5  6  1  0
  6  7  1  0
  7  8  2  0
  8  9  1  0
  9 10  2  0
 10 11  1  0
 11 12  2  0
  6 13  2  0
 13 14  1  0
 14 15  1  0
 13 16  1  0
 16 17  1  0
 17 18  1  0
 18 19  2  0
 19 20  1  0
 20 21  2  0
 21 22  1  0
 22 23  2  0
 23 24  1  0
 24 25  2  0
 25 26  1  0
 26 27  2  0
 27 28  1  0
 28 29  2  0
 28 30  2  0
 28 31  1  0
 31 32  1  0
 32 33  2  0
 32 34  1  0
 34 35  2  0
 35 36  1  0
 36 37  2  0
 37 38  1  0
 38 39  2  0
 39 40  1  0
 40 41  1  0
 40 42  1  0
 40 43  1  0
 21 44  1  0
 44 45  2  0
 16  4  1  0
 45 18  1  0
 12  7  1  0
 27 22  1  0
 39 34  1  0
  1 46  1  0
  1 47  1  0
  1 48  1  0
  2 49  1  0
  2 50  1  0
  3 51  1  0
  3 52  1  0
  5 53  1  0
  8 54  1  0
  9 55  1  0
 10 56  1  0
 11 57  1  0
 12 58  1  0
 14 59  1  0
 14 60  1  0
 15 61  1  0
 17 62  1  0
 17 63  1  0
 19 64  1  0
 20 65  1  0
 23 66  1  0
 24 67  1  0
 25 68  1  0
 26 69  1  0
 35 70  1  0
 36 71  1  0
 37 72  1  0
 38 73  1  0
 44 74  1  0
 45 75  1  0
M  CHG  2   5   1  31  -1
M  END
>  <UniqueID>  (86) 
83

>  <SMILES>  (86) 
CCCc1[nH+]c(-c2ccccc2)c(CO)n1Cc1ccc(-c2ccccc2S(=O)(=O)[N-]C(=O)c2ccccc2C(F)(F)F)cc1

>  <Energy>  (86) 
128.7859215426227

>  <Genealogy>  (86) 
CCCc1[nH+]c(-c2ccccc2)c(CO)n1Cc1ccc(-c2ccccc2S(=O)(=O)[N-]C(=O)c2ccccc2C(F)(F)F)cc1 (protonated)
CCCc1[nH+]c(-c2ccccc2)c(CO)n1Cc1ccc(-c2ccccc2S(=O)(=O)[N-]C(=O)c2ccccc2C(F)(F)F)cc1 (3D coordinates assigned)
CCCc1[nH+]c(-c2ccccc2)c(CO)n1Cc1ccc(-c2ccccc2S(=O)(=O)[N-]C(=O)c2ccccc2C(F)(F)F)cc1 (optimized conformer: 128.7859215426227 kcal/mol)

>  <smiles>  (86) 
CCCc1nc(-c2ccccc2)c(CO)n1Cc1ccc(-c2ccccc2S(=O)(=O)NC(=O)c2ccccc2C(F)(F)F)cc1

>  <score_type>  (86) 
oracle

>  <origin>  (86) 
adg

>  <m_score__min__energy>  (86) 
-10.640000000000001

>  <m_primary>  (86) 
energy

$$$$
86:0
     RDKit          3D

 42 43  0  0  0  0  0  0  0  0999 V2000
   63.3930   33.8490   46.7330 C   0  0  0  0  0  0  0  0  0  0  0  0
   62.0830   33.3160   46.5640 O   0  0  0  0  0  0  0  0  0  0  0  0
   61.3970   32.5680   47.5360 C   0  0  0  0  0  0  0  0  0  0  0  0
   61.7230   31.2230   47.8080 C   0  0  0  0  0  0  0  0  0  0  0  0
   61.0240   30.5100   48.7830 C   0  0  0  0  0  0  0  0  0  0  0  0
   59.9940   31.1230   49.4960 C   0  0  0  0  0  0  0  0  0  0  0  0
   59.6590   32.4530   49.2380 C   0  0  0  0  0  0  0  0  0  0  0  0
   60.3530   33.1840   48.2590 C   0  0  0  0  0  0  0  0  0  0  0  0
   59.9960   34.6260   48.0050 C   0  0  0  0  0  0  0  0  0  0  0  0
   58.8340   34.7140   47.1270 N   0  0  0  0  0  0  0  0  0  0  0  0
   58.8490   34.3240   45.7480 C   0  0  0  0  0  0  0  0  0  0  0  0
   59.3190   35.1110   44.8810 O   0  0  0  0  0  0  0  0  0  0  0  0
   58.3180   33.0030   45.3430 C   0  0  0  0  0  0  0  0  0  0  0  0
   57.8300   32.7960   44.0400 C   0  0  0  0  0  0  0  0  0  0  0  0
   57.3220   31.5500   43.6610 C   0  0  0  0  0  0  0  0  0  0  0  0
   57.2920   30.4880   44.5760 C   0  0  0  0  0  0  0  0  0  0  0  0
   56.7380   29.1510   44.1630 C   0  0  0  0  0  0  0  0  0  0  0  0
   55.9090   28.5760   45.2240 N   0  0  0  0  0  0  0  0  0  0  0  0
   56.6090   27.1170   45.8660 S   0  0  0  0  0  0  0  0  0  0  0  0
   57.6690   26.3350   44.6660 C   0  0  0  0  0  0  0  0  0  0  0  0
   57.3960   27.4190   47.1100 O   0  0  0  0  0  0  0  0  0  0  0  0
   55.4990   26.1660   46.2130 O   0  0  0  0  0  0  0  0  0  0  0  0
   57.7820   30.6880   45.8750 C   0  0  0  0  0  0  0  0  0  0  0  0
   58.2890   31.9330   46.2560 C   0  0  0  0  0  0  0  0  0  0  0  0
   63.6162   33.9398   47.8063 H   0  0  0  0  0  0  0  0  0  0  0  0
   64.1257   33.1775   46.2616 H   0  0  0  0  0  0  0  0  0  0  0  0
   63.4487   34.8413   46.2616 H   0  0  0  0  0  0  0  0  0  0  0  0
   62.5332   30.7330   47.2482 H   0  0  0  0  0  0  0  0  0  0  0  0
   61.2861   29.4619   48.9897 H   0  0  0  0  0  0  0  0  0  0  0  0
   59.4447   30.5573   50.2630 H   0  0  0  0  0  0  0  0  0  0  0  0
   58.8468   32.9319   49.8045 H   0  0  0  0  0  0  0  0  0  0  0  0
   59.7653   35.1165   48.9622 H   0  0  0  0  0  0  0  0  0  0  0  0
   60.8483   35.1252   47.5209 H   0  0  0  0  0  0  0  0  0  0  0  0
   57.8483   33.6215   43.3132 H   0  0  0  0  0  0  0  0  0  0  0  0
   56.9435   31.4018   42.6388 H   0  0  0  0  0  0  0  0  0  0  0  0
   56.1260   29.2792   43.2580 H   0  0  0  0  0  0  0  0  0  0  0  0
   57.5784   28.4690   43.9665 H   0  0  0  0  0  0  0  0  0  0  0  0
   58.4491   25.7595   45.1857 H   0  0  0  0  0  0  0  0  0  0  0  0
   57.0729   25.6587   44.0357 H   0  0  0  0  0  0  0  0  0  0  0  0
   58.1393   27.1041   44.0357 H   0  0  0  0  0  0  0  0  0  0  0  0
   57.7670   29.8594   46.5983 H   0  0  0  0  0  0  0  0  0  0  0  0
   58.6686   32.0777   47.2782 H   0  0  0  0  0  0  0  0  0  0  0  0
  1  2  1  0
  2  3  1  0
  3  4  2  0
  4  5  1  0
  5  6  2  0
  6  7  1  0
  7  8  2  0
  8  9  1  0
  9 10  1  0
 10 11  1  0
 11 12  2  0
 11 13  1  0
 13 14  2  0
 14 15  1  0
 15 16  2  0
 16 17  1  0
 17 18  1  0
 18 19  1  0
 19 20  1  0
 19 21  2  0
 19 22  2  0
 16 23  1  0
 23 24  2  0
  8  3  1  0
 24 13  1  0
  1 25  1  0
  1 26  1  0
  1 27  1  0
  4 28  1  0
  5 29  1  0
  6 30  1  0
  7 31  1  0
  9 32  1  0
  9 33  1  0
 14 34  1  0
 15 35  1  0
 17 36  1  0
 17 37  1  0
 20 38  1  0
 20 39  1  0
 20 40  1  0
 23 41  1  0
 24 42  1  0
M  CHG  2  10  -1  18  -1
M  END
>  <UniqueID>  (87) 
84

>  <SMILES>  (87) 
COc1ccccc1C[N-]C(=O)c1ccc(C[N-]S(C)(=O)=O)cc1

>  <Energy>  (87) 
34.77251447896643

>  <Genealogy>  (87) 
COc1ccccc1C[N-]C(=O)c1ccc(C[N-]S(C)(=O)=O)cc1 (protonated)
COc1ccccc1C[N-]C(=O)c1ccc(C[N-]S(C)(=O)=O)cc1 (3D coordinates assigned)
COc1ccccc1C[N-]C(=O)c1ccc(C[N-]S(C)(=O)=O)cc1 (optimized conformer: 34.77251447896643 kcal/mol)

>  <smiles>  (87) 
COc1ccccc1CNC(=O)c1ccc(CNS(C)(=O)=O)cc1

>  <score_type>  (87) 
oracle

>  <origin>  (87) 
adg

>  <m_score__min__energy>  (87) 
-10.84

>  <m_primary>  (87) 
energy

$$$$
87:0
     RDKit          3D

 59 63  0  0  0  0  0  0  0  0999 V2000
   60.8100   31.2300   46.4600 O   0  0  0  0  0  0  0  0  0  0  0  0
   60.1770   31.0290   47.5630 C   0  0  0  0  0  0  0  0  0  0  0  0
   60.1170   29.6270   47.9650 C   0  0  0  0  0  0  0  0  0  0  0  0
   60.8530   29.1040   49.0050 C   0  0  0  0  0  0  0  0  0  0  0  0
   60.7690   27.7660   49.3300 C   0  0  0  0  0  0  0  0  0  0  0  0
   59.9280   26.9700   48.5880 C   0  0  0  0  0  0  0  0  0  0  0  0
   59.1660   27.4470   47.5330 C   0  0  0  0  0  0  0  0  0  0  0  0
   58.3080   26.5290   46.7920 C   0  0  0  0  0  0  0  0  0  0  0  0
   56.9930   26.7770   46.6890 N   0  0  0  0  0  0  0  0  0  0  0  0
   56.1130   25.9970   46.0360 C   0  0  0  0  0  0  0  0  0  0  0  0
   54.8960   26.3130   45.9950 O   0  0  0  0  0  0  0  0  0  0  0  0
   56.6080   24.8600   45.4310 C   0  0  0  0  0  0  0  0  0  0  0  0
   55.7660   24.0130   44.7450 C   0  0  0  0  0  0  0  0  0  0  0  0
   56.2380   22.8590   44.1260 C   0  0  0  0  0  0  0  0  0  0  0  0
   57.5790   22.5560   44.1980 C   0  0  0  0  0  0  0  0  0  0  0  0
   58.4230   23.4250   44.8980 C   0  0  0  0  0  0  0  0  0  0  0  0
   57.9530   24.5650   45.5100 C   0  0  0  0  0  0  0  0  0  0  0  0
   58.7670   25.4130   46.1910 N   0  0  0  0  0  0  0  0  0  0  0  0
   59.2740   28.7770   47.2360 C   0  0  0  0  0  0  0  0  0  0  0  0
   59.6110   32.0950   48.2820 N   0  0  0  0  0  0  0  0  0  0  0  0
   59.8690   32.4010   49.6720 C   0  0  0  0  0  0  0  0  0  0  0  0
   58.7970   31.9130   50.5770 C   0  0  0  0  0  0  0  0  0  0  0  0
   58.1790   32.7260   51.5210 C   0  0  0  0  0  0  0  0  0  0  0  0
   57.1770   32.2160   52.3470 C   0  0  0  0  0  0  0  0  0  0  0  0
   56.8150   30.8830   52.2040 C   0  0  0  0  0  0  0  0  0  0  0  0
   57.4080   30.0930   51.2950 N   0  0  0  0  0  0  0  0  0  0  0  0
   58.3700   30.5820   50.5010 C   0  0  0  0  0  0  0  0  0  0  0  0
   58.6700   32.9580   47.5180 C   0  0  0  0  0  0  0  0  0  0  0  0
   57.8670   32.1380   46.5700 C   0  0  0  0  0  0  0  0  0  0  0  0
   57.5450   32.7140   45.2470 C   0  0  0  0  0  0  0  0  0  0  0  0
   57.4720   34.2180   45.3580 C   0  0  0  0  0  0  0  0  0  0  0  0
   58.9120   34.6420   45.6370 C   0  0  0  0  0  0  0  0  0  0  0  0
   59.4020   34.1290   46.9400 C   0  0  0  0  0  0  0  0  0  0  0  0
   61.5170   29.7623   49.5845 H   0  0  0  0  0  0  0  0  0  0  0  0
   61.3581   27.3475   50.1593 H   0  0  0  0  0  0  0  0  0  0  0  0
   59.8566   25.9027   48.8443 H   0  0  0  0  0  0  0  0  0  0  0  0
   54.6945   24.2543   44.6848 H   0  0  0  0  0  0  0  0  0  0  0  0
   55.5467   22.1961   43.5850 H   0  0  0  0  0  0  0  0  0  0  0  0
   57.9779   21.6512   43.7161 H   0  0  0  0  0  0  0  0  0  0  0  0
   59.4957   23.1899   44.9613 H   0  0  0  0  0  0  0  0  0  0  0  0
   59.7590   25.1650   46.2290 H   0  0  0  0  0  0  0  0  0  0  0  0
   58.6847   29.1904   46.4042 H   0  0  0  0  0  0  0  0  0  0  0  0
   60.8185   31.9294   49.9654 H   0  0  0  0  0  0  0  0  0  0  0  0
   59.9107   33.4960   49.7680 H   0  0  0  0  0  0  0  0  0  0  0  0
   58.4825   33.7789   51.6171 H   0  0  0  0  0  0  0  0  0  0  0  0
   56.6848   32.8554   53.0947 H   0  0  0  0  0  0  0  0  0  0  0  0
   56.0268   30.4662   52.8483 H   0  0  0  0  0  0  0  0  0  0  0  0
   58.8405   29.9146   49.7640 H   0  0  0  0  0  0  0  0  0  0  0  0
   57.9155   33.4100   48.1786 H   0  0  0  0  0  0  0  0  0  0  0  0
   58.4234   31.2057   46.3931 H   0  0  0  0  0  0  0  0  0  0  0  0
   56.8905   32.0283   47.0643 H   0  0  0  0  0  0  0  0  0  0  0  0
   58.3281   32.4370   44.5259 H   0  0  0  0  0  0  0  0  0  0  0  0
   56.5757   32.3239   44.9030 H   0  0  0  0  0  0  0  0  0  0  0  0
   57.1095   34.6616   44.4190 H   0  0  0  0  0  0  0  0  0  0  0  0
   56.7752   34.5498   46.1418 H   0  0  0  0  0  0  0  0  0  0  0  0
   59.5580   34.2521   44.8366 H   0  0  0  0  0  0  0  0  0  0  0  0
   58.9407   35.7410   45.6731 H   0  0  0  0  0  0  0  0  0  0  0  0
   60.4533   33.8333   46.8081 H   0  0  0  0  0  0  0  0  0  0  0  0
   59.2430   34.9510   47.6534 H   0  0  0  0  0  0  0  0  0  0  0  0
  1  2  2  0
  2  3  1  0
  3  4  2  0
  4  5  1  0
  5  6  2  0
  6  7  1  0
  7  8  1  0
  8  9  2  0
  9 10  1  0
 10 11  2  0
 10 12  1  0
 12 13  2  0
 13 14  1  0
 14 15  2  0
 15 16  1  0
 16 17  2  0
 17 18  1  0
  7 19  2  0
  2 20  1  0
 20 21  1  0
 21 22  1  0
 22 23  2  0
 23 24  1  0
 24 25  2  0
 25 26  1  0
 26 27  2  0
 20 28  1  0
 28 29  1  0
 29 30  1  0
 30 31  1  0
 31 32  1  0
 32 33  1  0
 19  3  1  0
 27 22  1  0
 33 28  1  0
 18  8  1  0
 17 12  1  0
  4 34  1  0
  5 35  1  0
  6 36  1  0
 13 37  1  0
 14 38  1  0
 15 39  1  0
 16 40  1  0
 18 41  1  0
 19 42  1  0
 21 43  1  0
 21 44  1  0
 23 45  1  0
 24 46  1  0
 25 47  1  0
 27 48  1  0
 28 49  1  0
 29 50  1  0
 29 51  1  0
 30 52  1  0
 30 53  1  0
 31 54  1  0
 31 55  1  0
 32 56  1  0
 32 57  1  0
 33 58  1  0
 33 59  1  0
M  END
>  <smiles>  (88) 
O=C(c1cccc(-c2nc(=O)c3ccccc3[nH]2)c1)N(Cc1cccnc1)C1CCCCC1

>  <score_type>  (88) 
oracle

>  <origin>  (88) 
adg

>  <m_score__min__energy>  (88) 
-10.33

>  <m_primary>  (88) 
energy

$$$$
88:0
     RDKit          3D

 37 38  0  0  0  0  0  0  0  0999 V2000
   55.1520   27.0850   45.3360 H   0  0  0  0  0  0  0  0  0  0  0  0
   54.8800   26.3230   45.9960 N   0  0  0  0  0  0  0  0  0  0  0  0
   56.2810   25.3420   46.2400 S   0  0  0  0  0  0  0  0  0  0  0  0
   56.2810   24.8070   47.6440 O   0  0  0  0  0  0  0  0  0  0  0  0
   56.2580   24.1840   45.2820 O   0  0  0  0  0  0  0  0  0  0  0  0
   57.7260   26.3090   45.9670 C   0  0  0  0  0  0  0  0  0  0  0  0
   58.9530   25.9120   46.5130 C   0  0  0  0  0  0  0  0  0  0  0  0
   59.0183   24.9830   47.0983 H   0  0  0  0  0  0  0  0  0  0  0  0
   60.0940   26.6930   46.3160 C   0  0  0  0  0  0  0  0  0  0  0  0
   61.0553   26.3784   46.7485 H   0  0  0  0  0  0  0  0  0  0  0  0
   60.0180   27.8730   45.5710 C   0  0  0  0  0  0  0  0  0  0  0  0
   60.9181   28.4885   45.4261 H   0  0  0  0  0  0  0  0  0  0  0  0
   58.7930   28.2770   45.0050 C   0  0  0  0  0  0  0  0  0  0  0  0
   58.6770   29.5040   44.2650 N   0  0  0  0  0  0  0  0  0  0  0  0
   59.3870   29.6990   43.5230 H   0  0  0  0  0  0  0  0  0  0  0  0
   57.6870   30.5130   44.5210 C   0  0  0  0  0  0  0  0  0  0  0  0
   57.0700   30.5420   45.6210 O   0  0  0  0  0  0  0  0  0  0  0  0
   57.4350   31.5800   43.5050 C   0  0  0  0  0  0  0  0  0  0  0  0
   58.0985   31.4294   42.6407 H   0  0  0  0  0  0  0  0  0  0  0  0
   56.3879   31.5332   43.1711 H   0  0  0  0  0  0  0  0  0  0  0  0
   57.6940   32.8470   44.0870 O   0  0  0  0  0  0  0  0  0  0  0  0
   57.2500   33.1440   45.3560 N   0  0  0  0  0  0  0  0  0  0  0  0
   57.8880   33.9560   46.1410 C   0  0  0  0  0  0  0  0  0  0  0  0
   57.3812   34.8743   46.4724 H   0  0  0  0  0  0  0  0  0  0  0  0
   59.2710   33.7000   46.6110 C   0  0  0  0  0  0  0  0  0  0  0  0
   60.3750   34.1470   45.8610 C   0  0  0  0  0  0  0  0  0  0  0  0
   60.2104   34.7017   44.9255 H   0  0  0  0  0  0  0  0  0  0  0  0
   61.6780   33.8920   46.2950 C   0  0  0  0  0  0  0  0  0  0  0  0
   62.5334   34.2574   45.7079 H   0  0  0  0  0  0  0  0  0  0  0  0
   61.8970   33.1740   47.4730 C   0  0  0  0  0  0  0  0  0  0  0  0
   63.5340   32.8540   48.0150 Cl  0  0  0  0  0  0  0  0  0  0  0  0
   60.8100   32.7020   48.2130 C   0  0  0  0  0  0  0  0  0  0  0  0
   60.9842   32.1290   49.1357 H   0  0  0  0  0  0  0  0  0  0  0  0
   59.5000   32.9540   47.7870 C   0  0  0  0  0  0  0  0  0  0  0  0
   58.1690   32.3510   48.7710 Cl  0  0  0  0  0  0  0  0  0  0  0  0
   57.6480   27.4970   45.2280 C   0  0  0  0  0  0  0  0  0  0  0  0
   56.6798   27.8213   44.8187 H   0  0  0  0  0  0  0  0  0  0  0  0
  1  2  1  0
  2  3  1  0
  3  4  2  0
  3  5  2  0
  3  6  1  0
  6  7  2  0
  7  8  1  0
  7  9  1  0
  9 10  1  0
  9 11  2  0
 11 12  1  0
 11 13  1  0
 13 14  1  0
 14 15  1  0
 14 16  1  0
 16 17  2  0
 16 18  1  0
 18 19  1  0
 18 20  1  0
 18 21  1  0
 21 22  1  0
 22 23  2  0
 23 24  1  0
 23 25  1  0
 25 26  2  0
 26 27  1  0
 26 28  1  0
 28 29  1  0
 28 30  2  0
 30 31  1  0
 30 32  1  0
 32 33  1  0
 32 34  2  0
 34 35  1  0
 13 36  2  0
 36 37  1  0
 36  6  1  0
 34 25  1  0
M  CHG  1   2  -1
M  END
>  <UniqueID>  (89) 
85

>  <SMILES>  (89) 
[NH-]S(=O)(=O)c1cccc(NC(=O)CO/N=C\c2ccc(Cl)cc2Cl)c1

>  <Energy>  (89) 
40.96645046556493

>  <Genealogy>  (89) 
[NH-]S(=O)(=O)c1cccc(NC(=O)CON=Cc2ccc(Cl)cc2Cl)c1 (protonated)
[NH-]S(=O)(=O)c1cccc(NC(=O)CO/N=C\c2ccc(Cl)cc2Cl)c1 (cis-trans isomerization)
[NH-]S(=O)(=O)c1cccc(NC(=O)CO/N=C\c2ccc(Cl)cc2Cl)c1 (3D coordinates assigned)
[NH-]S(=O)(=O)c1cccc(NC(=O)CO/N=C\c2ccc(Cl)cc2Cl)c1 (optimized conformer: 40.96645046556493 kcal/mol)

>  <smiles>  (89) 
NS(=O)(=O)c1cccc(NC(=O)CON=Cc2ccc(Cl)cc2Cl)c1

>  <score_type>  (89) 
oracle

>  <origin>  (89) 
adg

>  <m_score__min__energy>  (89) 
-11.81

>  <m_primary>  (89) 
energy

$$$$
89:0
     RDKit          3D

 39 41  0  0  0  0  0  0  0  0999 V2000
   57.5436   33.2567   42.5814 H   0  0  0  0  0  0  0  0  0  0  0  0
   57.7050   33.0570   43.6510 C   0  0  0  0  0  0  0  0  0  0  0  0
   58.0860   34.2030   44.8250 S   0  0  0  0  0  0  0  0  0  0  0  0
   58.1280   33.0740   46.0650 C   0  0  0  0  0  0  0  0  0  0  0  0
   58.3910   33.3760   47.3010 N   0  0  0  0  0  0  0  0  0  0  0  0
   59.3200   32.3870   48.3810 S   0  0  0  0  0  0  0  0  0  0  0  0
   58.9010   30.9520   48.2150 O   0  0  0  0  0  0  0  0  0  0  0  0
   59.0480   32.8150   49.7960 O   0  0  0  0  0  0  0  0  0  0  0  0
   61.0390   32.5740   48.0500 C   0  0  0  0  0  0  0  0  0  0  0  0
   61.9830   31.7870   48.7260 C   0  0  0  0  0  0  0  0  0  0  0  0
   61.6505   31.0536   49.4754 H   0  0  0  0  0  0  0  0  0  0  0  0
   63.3470   31.9330   48.4490 C   0  0  0  0  0  0  0  0  0  0  0  0
   64.0854   31.3141   48.9799 H   0  0  0  0  0  0  0  0  0  0  0  0
   63.7710   32.8650   47.4980 C   0  0  0  0  0  0  0  0  0  0  0  0
   64.8430   32.9768   47.2783 H   0  0  0  0  0  0  0  0  0  0  0  0
   62.8350   33.6550   46.8260 C   0  0  0  0  0  0  0  0  0  0  0  0
   63.1710   34.3902   46.0799 H   0  0  0  0  0  0  0  0  0  0  0  0
   61.4710   33.5120   47.1010 C   0  0  0  0  0  0  0  0  0  0  0  0
   60.7359   34.1363   46.5720 H   0  0  0  0  0  0  0  0  0  0  0  0
   57.8560   31.8260   45.6150 N   0  0  0  0  0  0  0  0  0  0  0  0
   57.8100   30.9700   46.2080 H   0  0  0  0  0  0  0  0  0  0  0  0
   57.6300   31.8110   44.2720 C   0  0  0  0  0  0  0  0  0  0  0  0
   57.2550   30.5560   43.5440 C   0  0  0  0  0  0  0  0  0  0  0  0
   58.1535   29.9403   43.3899 H   0  0  0  0  0  0  0  0  0  0  0  0
   56.8148   30.8174   42.5704 H   0  0  0  0  0  0  0  0  0  0  0  0
   56.2580   29.7870   44.3470 C   0  0  0  0  0  0  0  0  0  0  0  0
   55.0930   29.6150   43.8970 O   0  0  0  0  0  0  0  0  0  0  0  0
   56.6390   29.2570   45.6230 N   0  0  0  0  0  0  0  0  0  0  0  0
   57.7940   28.4520   45.9000 C   0  0  0  0  0  0  0  0  0  0  0  0
   57.6860   27.1340   46.3850 C   0  0  0  0  0  0  0  0  0  0  0  0
   56.6940   26.7017   46.5825 H   0  0  0  0  0  0  0  0  0  0  0  0
   58.8360   26.3740   46.6160 C   0  0  0  0  0  0  0  0  0  0  0  0
   58.7472   25.3483   47.0034 H   0  0  0  0  0  0  0  0  0  0  0  0
   60.0980   26.9140   46.3560 C   0  0  0  0  0  0  0  0  0  0  0  0
   61.0023   26.3177   46.5476 H   0  0  0  0  0  0  0  0  0  0  0  0
   60.2100   28.2130   45.8520 C   0  0  0  0  0  0  0  0  0  0  0  0
   61.2030   28.6358   45.6393 H   0  0  0  0  0  0  0  0  0  0  0  0
   59.0630   28.9750   45.6180 C   0  0  0  0  0  0  0  0  0  0  0  0
   59.1565   29.9921   45.2097 H   0  0  0  0  0  0  0  0  0  0  0  0
  1  2  1  0
  2  3  1  0
  3  4  1  0
  4  5  2  0
  5  6  1  0
  6  7  2  0
  6  8  2  0
  6  9  1  0
  9 10  2  0
 10 11  1  0
 10 12  1  0
 12 13  1  0
 12 14  2  0
 14 15  1  0
 14 16  1  0
 16 17  1  0
 16 18  2  0
 18 19  1  0
  4 20  1  0
 20 21  1  0
 20 22  1  0
 22 23  1  0
 23 24  1  0
 23 25  1  0
 23 26  1  0
 26 27  2  0
 26 28  1  0
 28 29  1  0
 29 30  2  0
 30 31  1  0
 30 32  1  0
 32 33  1  0
 32 34  2  0
 34 35  1  0
 34 36  1  0
 36 37  1  0
 36 38  2  0
 38 39  1  0
 22  2  2  0
 38 29  1  0
 18  9  1  0
M  CHG  1  28  -1
M  END
>  <UniqueID>  (90) 
86

>  <SMILES>  (90) 
O=C(Cc1cs/c(=N/S(=O)(=O)c2ccccc2)[nH]1)[N-]c1ccccc1

>  <Energy>  (90) 
75.00292895906053

>  <Genealogy>  (90) 
O=C(Cc1csc(=NS(=O)(=O)c2ccccc2)[nH]1)[N-]c1ccccc1 (protonated)
O=C(Cc1cs/c(=N/S(=O)(=O)c2ccccc2)[nH]1)[N-]c1ccccc1 (cis-trans isomerization)
O=C(Cc1cs/c(=N/S(=O)(=O)c2ccccc2)[nH]1)[N-]c1ccccc1 (3D coordinates assigned)
O=C(Cc1cs/c(=N/S(=O)(=O)c2ccccc2)[nH]1)[N-]c1ccccc1 (optimized conformer: 75.00292895906053 kcal/mol)

>  <smiles>  (90) 
O=C(Cc1csc(=NS(=O)(=O)c2ccccc2)[nH]1)Nc1ccccc1

>  <score_type>  (90) 
oracle

>  <origin>  (90) 
adg

>  <m_score__min__energy>  (90) 
-11.02

>  <m_primary>  (90) 
energy

$$$$
90:0
     RDKit          3D

 47 50  0  0  0  0  0  0  0  0999 V2000
   55.4900   26.1730   46.0690 O   0  0  0  0  0  0  0  0  0  0  0  0
   56.7410   26.0660   45.9270 C   0  0  0  0  0  0  0  0  0  0  0  0
   57.6360   26.3680   47.0920 C   0  0  0  0  0  0  0  0  0  0  0  0
   58.4770   27.6240   46.8610 C   0  0  0  0  0  0  0  0  0  0  0  0
   59.1980   27.5570   45.5710 N   0  0  0  0  0  0  0  0  0  0  0  0
   60.4610   28.3380   45.5890 C   0  0  0  0  0  0  0  0  0  0  0  0
   60.2630   29.7980   45.9470 C   0  0  0  0  0  0  0  0  0  0  0  0
   61.2010   30.4530   46.7600 C   0  0  0  0  0  0  0  0  0  0  0  0
   61.0250   31.7950   47.0870 C   0  0  0  0  0  0  0  0  0  0  0  0
   61.8720   32.3680   47.8270 O   0  0  0  0  0  0  0  0  0  0  0  0
   59.9120   32.4940   46.5840 C   0  0  0  0  0  0  0  0  0  0  0  0
   59.7070   33.8580   46.8630 C   0  0  0  0  0  0  0  0  0  0  0  0
   58.5880   34.5200   46.3510 C   0  0  0  0  0  0  0  0  0  0  0  0
   57.6660   33.8330   45.5550 C   0  0  0  0  0  0  0  0  0  0  0  0
   57.8600   32.4820   45.2650 C   0  0  0  0  0  0  0  0  0  0  0  0
   58.9800   31.8010   45.7750 C   0  0  0  0  0  0  0  0  0  0  0  0
   59.1810   30.4850   45.4740 N   0  0  0  0  0  0  0  0  0  0  0  0
   58.3390   27.8810   44.4120 C   0  0  0  0  0  0  0  0  0  0  0  0
   57.8740   26.5920   43.7200 C   0  0  0  0  0  0  0  0  0  0  0  0
   57.2830   25.6310   44.6650 N   0  0  0  0  0  0  0  0  0  0  0  0
   57.4610   24.2160   44.4320 C   0  0  0  0  0  0  0  0  0  0  0  0
   56.4730   23.4750   43.7550 C   0  0  0  0  0  0  0  0  0  0  0  0
   56.6470   22.1060   43.5270 C   0  0  0  0  0  0  0  0  0  0  0  0
   57.8060   21.4620   43.9690 C   0  0  0  0  0  0  0  0  0  0  0  0
   58.7990   22.1910   44.6320 C   0  0  0  0  0  0  0  0  0  0  0  0
   58.6340   23.5610   44.8620 C   0  0  0  0  0  0  0  0  0  0  0  0
   59.6320   24.2520   45.4670 F   0  0  0  0  0  0  0  0  0  0  0  0
   57.0146   26.5170   47.9874 H   0  0  0  0  0  0  0  0  0  0  0  0
   58.3235   25.5189   47.2200 H   0  0  0  0  0  0  0  0  0  0  0  0
   57.8153   28.5027   46.8567 H   0  0  0  0  0  0  0  0  0  0  0  0
   59.2183   27.6997   47.6701 H   0  0  0  0  0  0  0  0  0  0  0  0
   61.1391   27.8869   46.3284 H   0  0  0  0  0  0  0  0  0  0  0  0
   60.8754   28.3074   44.5705 H   0  0  0  0  0  0  0  0  0  0  0  0
   62.0764   29.9055   47.1394 H   0  0  0  0  0  0  0  0  0  0  0  0
   60.4300   34.4048   47.4861 H   0  0  0  0  0  0  0  0  0  0  0  0
   58.4317   35.5856   46.5749 H   0  0  0  0  0  0  0  0  0  0  0  0
   56.7858   34.3589   45.1566 H   0  0  0  0  0  0  0  0  0  0  0  0
   57.1340   31.9473   44.6349 H   0  0  0  0  0  0  0  0  0  0  0  0
   58.4880   29.9880   44.8700 H   0  0  0  0  0  0  0  0  0  0  0  0
   57.4602   28.4453   44.7575 H   0  0  0  0  0  0  0  0  0  0  0  0
   58.9154   28.4850   43.6958 H   0  0  0  0  0  0  0  0  0  0  0  0
   57.1208   26.8502   42.9611 H   0  0  0  0  0  0  0  0  0  0  0  0
   58.7564   26.1173   43.2661 H   0  0  0  0  0  0  0  0  0  0  0  0
   55.5590   23.9759   43.4034 H   0  0  0  0  0  0  0  0  0  0  0  0
   55.8696   21.5347   42.9984 H   0  0  0  0  0  0  0  0  0  0  0  0
   57.9372   20.3837   43.7958 H   0  0  0  0  0  0  0  0  0  0  0  0
   59.7137   21.6847   44.9740 H   0  0  0  0  0  0  0  0  0  0  0  0
  1  2  2  0
  2  3  1  0
  3  4  1  0
  4  5  1  0
  5  6  1  0
  6  7  1  0
  7  8  2  0
  8  9  1  0
  9 10  2  0
  9 11  1  0
 11 12  2  0
 12 13  1  0
 13 14  2  0
 14 15  1  0
 15 16  2  0
 16 17  1  0
  5 18  1  0
 18 19  1  0
 19 20  1  0
 20 21  1  0
 21 22  2  0
 22 23  1  0
 23 24  2  0
 24 25  1  0
 25 26  2  0
 26 27  1  0
 20  2  1  0
 26 21  1  0
 17  7  1  0
 16 11  1  0
  3 28  1  0
  3 29  1  0
  4 30  1  0
  4 31  1  0
  6 32  1  0
  6 33  1  0
  8 34  1  0
 12 35  1  0
 13 36  1  0
 14 37  1  0
 15 38  1  0
 17 39  1  0
 18 40  1  0
 18 41  1  0
 19 42  1  0
 19 43  1  0
 22 44  1  0
 23 45  1  0
 24 46  1  0
 25 47  1  0
M  END
>  <UniqueID>  (91) 
87

>  <SMILES>  (91) 
O=C1CCN(Cc2cc(=O)c3ccccc3[nH]2)CCN1c1ccccc1F

>  <Energy>  (91) 
68.18789128350123

>  <Genealogy>  (91) 
O=C1CCN(Cc2cc(=O)c3ccccc3[nH]2)CCN1c1ccccc1F (3D coordinates assigned)
O=C1CCN(Cc2cc(=O)c3ccccc3[nH]2)CCN1c1ccccc1F (nonaromatic ring conformer: 68.18789128350123 kcal/mol)

>  <smiles>  (91) 
O=C1CCN(Cc2cc(=O)c3ccccc3[nH]2)CCN1c1ccccc1F

>  <score_type>  (91) 
oracle

>  <origin>  (91) 
adg

>  <m_score__min__energy>  (91) 
-6.3899999999999997

>  <m_primary>  (91) 
energy

$$$$
91:0
     RDKit          3D

 50 52  0  0  1  0  0  0  0  0999 V2000
   60.7810   33.4860   50.8760 C   0  0  0  0  0  0  0  0  0  0  0  0
   60.7930   33.7130   49.4200 C   0  0  0  0  0  0  0  0  0  0  0  0
   59.6700   34.0520   48.6850 C   0  0  0  0  0  0  0  0  0  0  0  0
   59.7480   34.2510   47.3150 C   0  0  0  0  0  0  0  0  0  0  0  0
   58.7040   34.5560   46.6900 N   0  0  0  0  0  0  0  0  0  0  0  0
   58.4350   34.1850   45.0400 S   0  0  0  0  0  0  0  0  0  0  0  0
   59.6190   34.4670   44.1590 O   0  0  0  0  0  0  0  0  0  0  0  0
   57.2620   35.0030   44.5020 O   0  0  0  0  0  0  0  0  0  0  0  0
   58.0650   32.4790   44.9050 C   0  0  0  0  0  0  0  0  0  0  0  0
   58.1090   31.5950   45.9530 C   0  0  0  0  0  0  0  0  0  0  0  0
   57.7810   30.2650   45.7250 C   0  0  0  0  0  0  0  0  0  0  0  0
   57.4110   29.8340   44.4480 C   0  0  0  0  0  0  0  0  0  0  0  0
   57.0700   28.4700   44.2090 N   0  0  0  0  0  0  0  0  0  0  0  0
   57.7960   27.4430   44.8850 C   0  0  0  0  0  0  0  0  0  0  0  0
   58.6980   27.7940   45.6570 O   0  0  0  0  0  0  0  0  0  0  0  0
   57.4620   26.0880   44.6480 N   0  0  0  0  0  0  0  0  0  0  0  0
   58.1050   24.9590   45.2590 C   0  0  0  0  0  0  0  0  0  0  0  0
   57.7540   23.7160   44.5150 C   0  0  0  0  0  0  0  0  0  0  0  0
   56.5940   23.7980   43.7330 C   0  0  0  0  0  0  0  0  0  0  0  0
   56.1800   22.6910   42.9900 C   0  0  0  0  0  0  0  0  0  0  0  0
   56.9280   21.5340   43.0410 C   0  0  0  0  0  0  0  0  0  0  0  0
   58.0620   21.4870   43.8200 C   0  0  0  0  0  0  0  0  0  0  0  0
   58.5020   22.5650   44.5700 C   0  0  0  0  0  0  0  0  0  0  0  0
   57.3630   30.7190   43.3850 C   0  0  0  0  0  0  0  0  0  0  0  0
   57.6930   32.0380   43.6280 C   0  0  0  0  0  0  0  0  0  0  0  0
   60.9290   34.1070   46.7310 N   0  0  0  0  0  0  0  0  0  0  0  0
   62.0370   33.7790   47.4140 C   0  0  0  0  0  0  0  0  0  0  0  0
   63.3460   33.6280   46.7220 C   0  0  0  0  0  0  0  0  0  0  0  0
   61.9420   33.5910   48.7430 N   0  0  0  0  0  0  0  0  0  0  0  0
   60.8321   34.4528   51.3983 H   0  0  0  0  0  0  0  0  0  0  0  0
   59.8541   32.9653   51.1583 H   0  0  0  0  0  0  0  0  0  0  0  0
   61.6479   32.8705   51.1583 H   0  0  0  0  0  0  0  0  0  0  0  0
   58.7020   34.1651   49.1951 H   0  0  0  0  0  0  0  0  0  0  0  0
   58.3995   31.9343   46.9582 H   0  0  0  0  0  0  0  0  0  0  0  0
   57.8126   29.5450   46.5560 H   0  0  0  0  0  0  0  0  0  0  0  0
   56.2960   28.2170   43.5470 H   0  0  0  0  0  0  0  0  0  0  0  0
   56.6820   25.9070   43.9730 H   0  0  0  0  0  0  0  0  0  0  0  0
   59.1953   25.1029   45.2362 H   0  0  0  0  0  0  0  0  0  0  0  0
   57.7656   24.8672   46.3013 H   0  0  0  0  0  0  0  0  0  0  0  0
   56.0120   24.7310   43.7047 H   0  0  0  0  0  0  0  0  0  0  0  0
   55.2706   22.7411   42.3731 H   0  0  0  0  0  0  0  0  0  0  0  0
   56.6197   20.6515   42.4612 H   0  0  0  0  0  0  0  0  0  0  0  0
   58.6434   20.5536   43.8480 H   0  0  0  0  0  0  0  0  0  0  0  0
   59.4124   22.5022   45.1841 H   0  0  0  0  0  0  0  0  0  0  0  0
   57.0714   30.3828   42.3790 H   0  0  0  0  0  0  0  0  0  0  0  0
   57.6631   32.7600   42.7987 H   0  0  0  0  0  0  0  0  0  0  0  0
   61.0070   34.2490   45.7250 H   0  0  0  0  0  0  0  0  0  0  0  0
   64.1475   33.5355   47.4697 H   0  0  0  0  0  0  0  0  0  0  0  0
   63.3261   32.7262   46.0924 H   0  0  0  0  0  0  0  0  0  0  0  0
   63.5319   34.5107   46.0924 H   0  0  0  0  0  0  0  0  0  0  0  0
  1  2  1  0
  2  3  2  0
  3  4  1  0
  4  5  2  0
  5  6  1  0
  6  7  2  0
  6  8  2  0
  6  9  1  0
  9 10  2  0
 10 11  1  0
 11 12  2  0
 12 13  1  0
 13 14  1  0
 14 15  2  0
 14 16  1  0
 16 17  1  0
 17 18  1  0
 18 19  2  0
 19 20  1  0
 20 21  2  0
 21 22  1  0
 22 23  2  0
 12 24  1  0
 24 25  2  0
  4 26  1  0
 26 27  1  0
 27 28  1  0
 27 29  2  0
 29  2  1  0
 25  9  1  0
 23 18  1  0
  1 30  1  0
  1 31  1  0
  1 32  1  0
  3 33  1  0
 10 34  1  0
 11 35  1  0
 13 36  1  0
 16 37  1  0
 17 38  1  0
 17 39  1  0
 19 40  1  0
 20 41  1  0
 21 42  1  0
 22 43  1  0
 23 44  1  0
 24 45  1  0
 25 46  1  0
 26 47  1  0
 28 48  1  0
 28 49  1  0
 28 50  1  0
M  END
>  <smiles>  (92) 
Cc1cc(=NS(=O)(=O)c2ccc(NC(=O)NCc3ccccc3)cc2)[nH]c(C)n1

>  <score_type>  (92) 
oracle

>  <origin>  (92) 
adg

>  <m_score__min__energy>  (92) 
-9.3100000000000005

>  <m_primary>  (92) 
energy

$$$$
92:0
     RDKit          3D

 55 58  0  0  0  0  0  0  0  0999 V2000
   56.0960   30.7750   51.5940 N   0  0  0  0  0  0  0  0  0  0  0  0
   57.7410   31.1260   51.1990 S   0  0  0  0  0  0  0  0  0  0  0  0
   57.7540   31.9650   49.9520 O   0  0  0  0  0  0  0  0  0  0  0  0
   58.4800   29.8440   50.9340 O   0  0  0  0  0  0  0  0  0  0  0  0
   58.5350   32.0060   52.5180 C   0  0  0  0  0  0  0  0  0  0  0  0
   57.9830   31.9190   53.8070 C   0  0  0  0  0  0  0  0  0  0  0  0
   58.5910   32.5620   54.8860 C   0  0  0  0  0  0  0  0  0  0  0  0
   59.7570   33.3020   54.6930 C   0  0  0  0  0  0  0  0  0  0  0  0
   60.3150   33.4080   53.4180 C   0  0  0  0  0  0  0  0  0  0  0  0
   59.7090   32.7770   52.3190 C   0  0  0  0  0  0  0  0  0  0  0  0
   60.3260   32.9470   50.9870 C   0  0  0  0  0  0  0  0  0  0  0  0
   61.3940   32.1250   50.6010 C   0  0  0  0  0  0  0  0  0  0  0  0
   61.9890   32.2840   49.3470 C   0  0  0  0  0  0  0  0  0  0  0  0
   61.5310   33.2770   48.4610 C   0  0  0  0  0  0  0  0  0  0  0  0
   62.1650   33.4530   47.1340 C   0  0  0  0  0  0  0  0  0  0  0  0
   63.4180   33.3650   47.0180 O   0  0  0  0  0  0  0  0  0  0  0  0
   61.3630   33.7640   45.9860 N   0  0  0  0  0  0  0  0  0  0  0  0
   59.9480   33.5530   45.8840 C   0  0  0  0  0  0  0  0  0  0  0  0
   59.1390   34.6240   45.4860 C   0  0  0  0  0  0  0  0  0  0  0  0
   57.7570   34.4610   45.3670 C   0  0  0  0  0  0  0  0  0  0  0  0
   57.1710   33.2270   45.6540 C   0  0  0  0  0  0  0  0  0  0  0  0
   57.9620   32.1620   46.0870 C   0  0  0  0  0  0  0  0  0  0  0  0
   59.3530   32.3230   46.2410 C   0  0  0  0  0  0  0  0  0  0  0  0
   60.1590   31.2790   46.7220 O   0  0  0  0  0  0  0  0  0  0  0  0
   59.7220   29.9850   47.0460 C   0  0  0  0  0  0  0  0  0  0  0  0
   60.0610   29.4600   48.2970 C   0  0  0  0  0  0  0  0  0  0  0  0
   59.6580   28.1710   48.6570 C   0  0  0  0  0  0  0  0  0  0  0  0
   58.9020   27.4010   47.7700 C   0  0  0  0  0  0  0  0  0  0  0  0
   58.5170   27.9280   46.5270 C   0  0  0  0  0  0  0  0  0  0  0  0
   57.7160   27.0960   45.5620 C   0  0  0  0  0  0  0  0  0  0  0  0
   56.2720   27.4870   45.6120 C   0  0  0  0  0  0  0  0  0  0  0  0
   55.9130   28.6360   45.2410 O   0  0  0  0  0  0  0  0  0  0  0  0
   55.3240   26.5860   46.0820 O   0  0  0  0  0  0  0  0  0  0  0  0
   58.9270   29.2230   46.1690 C   0  0  0  0  0  0  0  0  0  0  0  0
   60.4700   34.1110   48.8620 C   0  0  0  0  0  0  0  0  0  0  0  0
   59.8750   33.9480   50.1160 C   0  0  0  0  0  0  0  0  0  0  0  0
   55.5020   31.2210   50.8580 H   0  0  0  0  0  0  0  0  0  0  0  0
   57.0626   31.3384   53.9673 H   0  0  0  0  0  0  0  0  0  0  0  0
   58.1496   32.4850   55.8906 H   0  0  0  0  0  0  0  0  0  0  0  0
   60.2376   33.8027   55.5464 H   0  0  0  0  0  0  0  0  0  0  0  0
   61.2368   33.9904   53.2726 H   0  0  0  0  0  0  0  0  0  0  0  0
   61.7653   31.3511   51.2888 H   0  0  0  0  0  0  0  0  0  0  0  0
   62.8211   31.6286   49.0501 H   0  0  0  0  0  0  0  0  0  0  0  0
   59.5949   35.6005   45.2655 H   0  0  0  0  0  0  0  0  0  0  0  0
   57.1297   35.3059   45.0468 H   0  0  0  0  0  0  0  0  0  0  0  0
   56.0852   33.0940   45.5388 H   0  0  0  0  0  0  0  0  0  0  0  0
   57.4964   31.1906   46.3095 H   0  0  0  0  0  0  0  0  0  0  0  0
   60.6488   30.0656   49.0025 H   0  0  0  0  0  0  0  0  0  0  0  0
   59.9364   27.7625   49.6397 H   0  0  0  0  0  0  0  0  0  0  0  0
   58.6072   26.3779   48.0464 H   0  0  0  0  0  0  0  0  0  0  0  0
   58.0992   27.2529   44.5429 H   0  0  0  0  0  0  0  0  0  0  0  0
   57.8092   26.0361   45.8410 H   0  0  0  0  0  0  0  0  0  0  0  0
   58.6253   29.6438   45.1985 H   0  0  0  0  0  0  0  0  0  0  0  0
   60.1067   34.8967   48.1833 H   0  0  0  0  0  0  0  0  0  0  0  0
   59.0494   34.6080   50.4206 H   0  0  0  0  0  0  0  0  0  0  0  0
  1  2  1  0
  2  3  2  0
  2  4  2  0
  2  5  1  0
  5  6  2  0
  6  7  1  0
  7  8  2  0
  8  9  1  0
  9 10  2  0
 10 11  1  0
 11 12  2  0
 12 13  1  0
 13 14  2  0
 14 15  1  0
 15 16  2  0
 15 17  1  0
 17 18  1  0
 18 19  2  0
 19 20  1  0
 20 21  2  0
 21 22  1  0
 22 23  2  0
 23 24  1  0
 24 25  1  0
 25 26  2  0
 26 27  1  0
 27 28  2  0
 28 29  1  0
 29 30  1  0
 30 31  1  0
 31 32  2  0
 31 33  1  0
 29 34  2  0
 14 35  1  0
 35 36  2  0
 10  5  1  0
 36 11  1  0
 23 18  1  0
 34 25  1  0
  1 37  1  0
  6 38  1  0
  7 39  1  0
  8 40  1  0
  9 41  1  0
 12 42  1  0
 13 43  1  0
 19 44  1  0
 20 45  1  0
 21 46  1  0
 22 47  1  0
 26 48  1  0
 27 49  1  0
 28 50  1  0
 30 51  1  0
 30 52  1  0
 34 53  1  0
 35 54  1  0
 36 55  1  0
M  CHG  3   1  -1  17  -1  33  -1
M  END
>  <UniqueID>  (93) 
88

>  <SMILES>  (93) 
[NH-]S(=O)(=O)c1ccccc1-c1ccc(C(=O)[N-]c2ccccc2Oc2cccc(CC(=O)[O-])c2)cc1

>  <Energy>  (93) 
78.80671013939683

>  <Genealogy>  (93) 
[NH-]S(=O)(=O)c1ccccc1-c1ccc(C(=O)[N-]c2ccccc2Oc2cccc(CC(=O)[O-])c2)cc1 (protonated)
[NH-]S(=O)(=O)c1ccccc1-c1ccc(C(=O)[N-]c2ccccc2Oc2cccc(CC(=O)[O-])c2)cc1 (3D coordinates assigned)
[NH-]S(=O)(=O)c1ccccc1-c1ccc(C(=O)[N-]c2ccccc2Oc2cccc(CC(=O)[O-])c2)cc1 (optimized conformer: 78.80671013939683 kcal/mol)

>  <smiles>  (93) 
NS(=O)(=O)c1ccccc1-c1ccc(C(=O)Nc2ccccc2Oc2cccc(CC(=O)O)c2)cc1

>  <score_type>  (93) 
oracle

>  <origin>  (93) 
adg

>  <m_score__min__energy>  (93) 
-17.850000000000001

>  <m_primary>  (93) 
energy

$$$$
93:0
     RDKit          3D

 35 37  0  0  0  0  0  0  0  0999 V2000
   54.2355   24.4037   45.6190 H   0  0  0  0  0  0  0  0  0  0  0  0
   55.2200   24.8870   45.7040 C   0  0  0  0  0  0  0  0  0  0  0  0
   55.4240   26.1860   46.0050 N   0  0  0  0  0  0  0  0  0  0  0  0
   56.7670   26.3180   45.9950 C   0  0  0  0  0  0  0  0  0  0  0  0
   57.5970   27.8670   46.3630 S   0  0  0  0  0  0  0  0  0  0  0  0
   57.3890   28.5540   44.6820 C   0  0  0  0  0  0  0  0  0  0  0  0
   57.0739   27.7479   44.0031 H   0  0  0  0  0  0  0  0  0  0  0  0
   58.3509   28.9818   44.3629 H   0  0  0  0  0  0  0  0  0  0  0  0
   56.3540   29.6480   44.6560 C   0  0  0  0  0  0  0  0  0  0  0  0
   55.1490   29.3330   44.8430 O   0  0  0  0  0  0  0  0  0  0  0  0
   56.6590   31.0150   44.3350 N   0  0  0  0  0  0  0  0  0  0  0  0
   57.3230   31.8890   45.0340 C   0  0  0  0  0  0  0  0  0  0  0  0
   57.7680   31.6060   46.2810 N   0  0  0  0  0  0  0  0  0  0  0  0
   58.4690   32.6470   46.8020 C   0  0  0  0  0  0  0  0  0  0  0  0
   59.0460   32.6490   48.0770 C   0  0  0  0  0  0  0  0  0  0  0  0
   58.9050   31.5180   48.8940 O   0  0  0  0  0  0  0  0  0  0  0  0
   59.4070   30.2260   48.5670 C   0  0  0  0  0  0  0  0  0  0  0  0
   59.6225   29.6714   49.4922 H   0  0  0  0  0  0  0  0  0  0  0  0
   58.6560   29.6791   47.9781 H   0  0  0  0  0  0  0  0  0  0  0  0
   60.3303   30.3296   47.9781 H   0  0  0  0  0  0  0  0  0  0  0  0
   59.7510   33.8070   48.4860 C   0  0  0  0  0  0  0  0  0  0  0  0
   60.2138   33.8395   49.4834 H   0  0  0  0  0  0  0  0  0  0  0  0
   59.8650   34.9180   47.6270 C   0  0  0  0  0  0  0  0  0  0  0  0
   60.4167   35.8102   47.9581 H   0  0  0  0  0  0  0  0  0  0  0  0
   59.2800   34.8940   46.3530 C   0  0  0  0  0  0  0  0  0  0  0  0
   59.3645   35.7565   45.6756 H   0  0  0  0  0  0  0  0  0  0  0  0
   58.5900   33.7490   45.9700 C   0  0  0  0  0  0  0  0  0  0  0  0
   57.8040   33.4370   44.5220 S   0  0  0  0  0  0  0  0  0  0  0  0
   57.4030   25.1680   45.6890 N   0  0  0  0  0  0  0  0  0  0  0  0
   58.8410   24.9250   45.6520 C   0  0  0  0  0  0  0  0  0  0  0  0
   59.2284   24.8595   46.6795 H   0  0  0  0  0  0  0  0  0  0  0  0
   59.0398   23.9805   45.1243 H   0  0  0  0  0  0  0  0  0  0  0  0
   59.3391   25.7517   45.1243 H   0  0  0  0  0  0  0  0  0  0  0  0
   56.4320   24.2570   45.5190 C   0  0  0  0  0  0  0  0  0  0  0  0
   56.5778   23.1944   45.2749 H   0  0  0  0  0  0  0  0  0  0  0  0
  1  2  1  0
  2  3  1  0
  3  4  2  0
  4  5  1  0
  5  6  1  0
  6  7  1  0
  6  8  1  0
  6  9  1  0
  9 10  2  0
  9 11  1  0
 11 12  2  0
 12 13  1  0
 13 14  1  0
 14 15  2  0
 15 16  1  0
 16 17  1  0
 17 18  1  0
 17 19  1  0
 17 20  1  0
 15 21  1  0
 21 22  1  0
 21 23  2  0
 23 24  1  0
 23 25  1  0
 25 26  1  0
 25 27  2  0
 27 28  1  0
  4 29  1  0
 29 30  1  0
 30 31  1  0
 30 32  1  0
 30 33  1  0
 29 34  1  0
 34 35  1  0
 34  2  2  0
 28 12  1  0
 27 14  1  0
M  CHG  1  13  -1
M  END
>  <UniqueID>  (94) 
89

>  <SMILES>  (94) 
COc1cccc2s/c(=N\C(=O)CSc3nccn3C)[n-]c12

>  <Energy>  (94) 
102.20387785554637

>  <Genealogy>  (94) 
COc1cccc2sc(=NC(=O)CSc3nccn3C)[n-]c12 (protonated)
COc1cccc2s/c(=N\C(=O)CSc3nccn3C)[n-]c12 (cis-trans isomerization)
COc1cccc2s/c(=N\C(=O)CSc3nccn3C)[n-]c12 (3D coordinates assigned)
COc1cccc2s/c(=N\C(=O)CSc3nccn3C)[n-]c12 (optimized conformer: 102.20387785554637 kcal/mol)

>  <smiles>  (94) 
COc1cccc2sc(=NC(=O)CSc3nccn3C)[nH]c12

>  <score_type>  (94) 
oracle

>  <origin>  (94) 
adg

>  <m_score__min__energy>  (94) 
-9.7200000000000006

>  <m_primary>  (94) 
energy

$$$$
