0:0
     RDKit          3D

 39 40  0  0  0  0  0  0  0  0999 V2000
   55.1450   28.9670   44.5040 N   0  0  0  0  0  0  0  0  0  0  0  0
   56.5320   29.9630   44.2360 S   0  0  0  0  0  0  0  0  0  0  0  0
   56.8540   30.0000   42.7690 O   0  0  0  0  0  0  0  0  0  0  0  0
   56.2220   31.3580   44.7030 O   0  0  0  0  0  0  0  0  0  0  0  0
   57.9110   29.3070   45.1260 C   0  0  0  0  0  0  0  0  0  0  0  0
   58.3320   29.9300   46.3120 C   0  0  0  0  0  0  0  0  0  0  0  0
   59.4140   29.4210   47.0490 C   0  0  0  0  0  0  0  0  0  0  0  0
   59.8120   30.0590   48.3210 C   0  0  0  0  0  0  0  0  0  0  0  0
   61.0250   30.0670   48.6720 O   0  0  0  0  0  0  0  0  0  0  0  0
   58.8390   30.6310   49.1500 O   0  0  0  0  0  0  0  0  0  0  0  0
   59.1430   31.2340   50.4050 C   0  0  0  0  0  0  0  0  0  0  0  0
   59.6150   32.6350   50.1800 C   0  0  0  0  0  0  0  0  0  0  0  0
   59.2510   33.5540   50.9640 O   0  0  0  0  0  0  0  0  0  0  0  0
   60.4280   32.9350   49.0390 N   0  0  0  0  0  0  0  0  0  0  0  0
   60.3640   34.2320   48.3710 C   0  0  0  0  0  0  0  0  0  0  0  0
   59.4560   34.1350   47.1750 C   0  0  0  0  0  0  0  0  0  0  0  0
   59.8180   34.7340   45.9570 C   0  0  0  0  0  0  0  0  0  0  0  0
   58.9480   34.6890   44.8640 C   0  0  0  0  0  0  0  0  0  0  0  0
   57.7080   34.0560   44.9810 C   0  0  0  0  0  0  0  0  0  0  0  0
   57.3330   33.4720   46.1940 C   0  0  0  0  0  0  0  0  0  0  0  0
   58.2000   33.5180   47.2910 C   0  0  0  0  0  0  0  0  0  0  0  0
   60.0800   28.2770   46.5810 C   0  0  0  0  0  0  0  0  0  0  0  0
   59.6730   27.6560   45.4000 C   0  0  0  0  0  0  0  0  0  0  0  0
   58.5930   28.1600   44.6690 C   0  0  0  0  0  0  0  0  0  0  0  0
   58.1250   27.3260   43.1910 Cl  0  0  0  0  0  0  0  0  0  0  0  0
   54.6520   29.3500   45.3420 H   0  0  0  0  0  0  0  0  0  0  0  0
   57.8074   30.8287   46.6686 H   0  0  0  0  0  0  0  0  0  0  0  0
   58.2409   31.2470   51.0343 H   0  0  0  0  0  0  0  0  0  0  0  0
   59.9317   30.6565   50.9093 H   0  0  0  0  0  0  0  0  0  0  0  0
   60.8530   32.1400   48.5110 H   0  0  0  0  0  0  0  0  0  0  0  0
   59.9712   34.9854   49.0696 H   0  0  0  0  0  0  0  0  0  0  0  0
   61.3720   34.5264   48.0436 H   0  0  0  0  0  0  0  0  0  0  0  0
   60.7900   35.2404   45.8631 H   0  0  0  0  0  0  0  0  0  0  0  0
   59.2400   35.1527   43.9102 H   0  0  0  0  0  0  0  0  0  0  0  0
   57.0268   34.0173   44.1182 H   0  0  0  0  0  0  0  0  0  0  0  0
   56.3556   32.9759   46.2863 H   0  0  0  0  0  0  0  0  0  0  0  0
   57.8966   33.0690   48.2483 H   0  0  0  0  0  0  0  0  0  0  0  0
   60.9283   27.8677   47.1493 H   0  0  0  0  0  0  0  0  0  0  0  0
   60.2058   26.7630   45.0412 H   0  0  0  0  0  0  0  0  0  0  0  0
  1  2  1  0
  2  3  2  0
  2  4  2  0
  2  5  1  0
  5  6  2  0
  6  7  1  0
  7  8  1  0
  8  9  2  0
  8 10  1  0
 10 11  1  0
 11 12  1  0
 12 13  2  0
 12 14  1  0
 14 15  1  0
 15 16  1  0
 16 17  2  0
 17 18  1  0
 18 19  2  0
 19 20  1  0
 20 21  2  0
  7 22  2  0
 22 23  1  0
 23 24  2  0
 24 25  1  0
 24  5  1  0
 21 16  1  0
  1 26  1  0
  6 27  1  0
 11 28  1  0
 11 29  1  0
 14 30  1  0
 15 31  1  0
 15 32  1  0
 17 33  1  0
 18 34  1  0
 19 35  1  0
 20 36  1  0
 21 37  1  0
 22 38  1  0
 23 39  1  0
M  CHG  1   1  -1
M  END
>  <UniqueID>  (1) 
1

>  <SMILES>  (1) 
[NH-]S(=O)(=O)c1cc(C(=O)OCC(=O)NCc2ccccc2)ccc1Cl

>  <Energy>  (1) 
31.642358827744165

>  <Genealogy>  (1) 
[NH-]S(=O)(=O)c1cc(C(=O)OCC(=O)NCc2ccccc2)ccc1Cl (protonated)
[NH-]S(=O)(=O)c1cc(C(=O)OCC(=O)NCc2ccccc2)ccc1Cl (3D coordinates assigned)
[NH-]S(=O)(=O)c1cc(C(=O)OCC(=O)NCc2ccccc2)ccc1Cl (optimized conformer: 31.642358827744165 kcal/mol)

>  <smiles>  (1) 
NS(=O)(=O)c1cc(C(=O)OCC(=O)NCc2ccccc2)ccc1Cl

>  <score_type>  (1) 
oracle

>  <origin>  (1) 
adg

>  <m_score__min__energy>  (1) 
-11.109999999999999

>  <m_primary>  (1) 
energy

$$$$
1:0
     RDKit          3D

 31 32  0  0  0  0  0  0  0  0999 V2000
   55.6420   26.7280   45.7430 O   0  0  0  0  0  0  0  0  0  0  0  0
   56.2720   27.8100   45.6140 C   0  0  0  0  0  0  0  0  0  0  0  0
   55.5720   28.9610   45.1220 N   0  0  0  0  0  0  0  0  0  0  0  0
   56.0000   29.8050   44.0090 C   0  0  0  0  0  0  0  0  0  0  0  0
   57.4960   30.1210   44.1120 C   0  0  0  0  0  0  0  0  0  0  0  0
   57.7110   31.4230   44.8330 C   0  0  0  0  0  0  0  0  0  0  0  0
   57.4410   32.6450   44.1930 C   0  0  0  0  0  0  0  0  0  0  0  0
   57.6100   33.8510   44.8790 C   0  0  0  0  0  0  0  0  0  0  0  0
   58.0420   33.8470   46.2090 C   0  0  0  0  0  0  0  0  0  0  0  0
   58.2990   32.6350   46.8560 C   0  0  0  0  0  0  0  0  0  0  0  0
   58.1300   31.4270   46.1740 C   0  0  0  0  0  0  0  0  0  0  0  0
   57.7090   27.8460   45.9500 C   0  0  0  0  0  0  0  0  0  0  0  0
   58.6580   27.4280   45.0040 C   0  0  0  0  0  0  0  0  0  0  0  0
   60.0220   27.4620   45.3110 C   0  0  0  0  0  0  0  0  0  0  0  0
   60.4450   27.9000   46.5700 C   0  0  0  0  0  0  0  0  0  0  0  0
   59.5040   28.2930   47.5260 C   0  0  0  0  0  0  0  0  0  0  0  0
   58.1400   28.2590   47.2210 C   0  0  0  0  0  0  0  0  0  0  0  0
   55.8064   29.2795   43.0622 H   0  0  0  0  0  0  0  0  0  0  0  0
   55.4362   30.7489   44.0441 H   0  0  0  0  0  0  0  0  0  0  0  0
   57.9992   29.3139   44.6645 H   0  0  0  0  0  0  0  0  0  0  0  0
   57.9128   30.2032   43.0974 H   0  0  0  0  0  0  0  0  0  0  0  0
   57.0955   32.6522   43.1487 H   0  0  0  0  0  0  0  0  0  0  0  0
   57.4028   34.8049   44.3718 H   0  0  0  0  0  0  0  0  0  0  0  0
   58.1795   34.7973   46.7458 H   0  0  0  0  0  0  0  0  0  0  0  0
   58.6348   32.6320   47.9035 H   0  0  0  0  0  0  0  0  0  0  0  0
   58.3259   30.4751   46.6894 H   0  0  0  0  0  0  0  0  0  0  0  0
   58.3275   27.0722   44.0170 H   0  0  0  0  0  0  0  0  0  0  0  0
   60.7623   27.1442   44.5620 H   0  0  0  0  0  0  0  0  0  0  0  0
   61.5184   27.9352   46.8080 H   0  0  0  0  0  0  0  0  0  0  0  0
   59.8369   28.6293   48.5190 H   0  0  0  0  0  0  0  0  0  0  0  0
   57.4015   28.5570   47.9798 H   0  0  0  0  0  0  0  0  0  0  0  0
  1  2  2  0
  2  3  1  0
  3  4  1  0
  4  5  1  0
  5  6  1  0
  6  7  2  0
  7  8  1  0
  8  9  2  0
  9 10  1  0
 10 11  2  0
  2 12  1  0
 12 13  2  0
 13 14  1  0
 14 15  2  0
 15 16  1  0
 16 17  2  0
 11  6  1  0
 17 12  1  0
  4 18  1  0
  4 19  1  0
  5 20  1  0
  5 21  1  0
  7 22  1  0
  8 23  1  0
  9 24  1  0
 10 25  1  0
 11 26  1  0
 13 27  1  0
 14 28  1  0
 15 29  1  0
 16 30  1  0
 17 31  1  0
M  CHG  1   3  -1
M  END
>  <UniqueID>  (2) 
2

>  <SMILES>  (2) 
O=C([N-]CCc1ccccc1)c1ccccc1

>  <Energy>  (2) 
32.42318799764834

>  <Genealogy>  (2) 
O=C([N-]CCc1ccccc1)c1ccccc1 (protonated)
O=C([N-]CCc1ccccc1)c1ccccc1 (3D coordinates assigned)
O=C([N-]CCc1ccccc1)c1ccccc1 (optimized conformer: 32.42318799764834 kcal/mol)

>  <smiles>  (2) 
O=C(NCCc1ccccc1)c1ccccc1

>  <score_type>  (2) 
oracle

>  <origin>  (2) 
adg

>  <m_score__min__energy>  (2) 
-8.4600000000000009

>  <m_primary>  (2) 
energy

$$$$
2:0
     RDKit          3D

 46 48  0  0  0  0  0  0  0  0999 V2000
   60.9430   33.8300   50.1440 C   0  0  0  0  0  0  0  0  0  0  0  0
   61.4260   33.8540   48.7280 C   0  0  0  0  0  0  0  0  0  0  0  0
   62.7900   33.7660   48.4290 C   0  0  0  0  0  0  0  0  0  0  0  0
   63.1820   33.7640   47.0900 C   0  0  0  0  0  0  0  0  0  0  0  0
   62.2430   33.8340   46.1110 N   0  0  0  0  0  0  0  0  0  0  0  0
   60.9160   33.9060   46.4120 C   0  0  0  0  0  0  0  0  0  0  0  0
   60.0210   33.9670   45.4740 N   0  0  0  0  0  0  0  0  0  0  0  0
   58.3190   33.7790   45.7540 S   0  0  0  0  0  0  0  0  0  0  0  0
   57.9800   34.2790   47.1310 O   0  0  0  0  0  0  0  0  0  0  0  0
   57.5580   34.5970   44.7480 O   0  0  0  0  0  0  0  0  0  0  0  0
   57.8740   32.0850   45.5750 C   0  0  0  0  0  0  0  0  0  0  0  0
   58.3830   31.1140   46.4470 C   0  0  0  0  0  0  0  0  0  0  0  0
   58.0400   29.7680   46.2810 C   0  0  0  0  0  0  0  0  0  0  0  0
   57.1940   29.3790   45.2250 C   0  0  0  0  0  0  0  0  0  0  0  0
   56.8000   28.0140   45.0270 N   0  0  0  0  0  0  0  0  0  0  0  0
   56.4230   27.0680   46.0380 C   0  0  0  0  0  0  0  0  0  0  0  0
   57.2310   26.7420   46.9470 O   0  0  0  0  0  0  0  0  0  0  0  0
   55.1360   26.4480   45.9950 N   0  0  0  0  0  0  0  0  0  0  0  0
   54.9380   25.0200   45.7650 C   0  0  0  0  0  0  0  0  0  0  0  0
   56.2280   24.2470   46.0520 C   0  0  0  0  0  0  0  0  0  0  0  0
   56.5280   23.2890   44.9310 C   0  0  0  0  0  0  0  0  0  0  0  0
   57.6780   22.4860   44.9660 C   0  0  0  0  0  0  0  0  0  0  0  0
   57.9210   21.5710   43.9390 C   0  0  0  0  0  0  0  0  0  0  0  0
   57.0090   21.4640   42.8860 C   0  0  0  0  0  0  0  0  0  0  0  0
   55.8950   22.2430   42.8700 N   0  0  0  0  0  0  0  0  0  0  0  0
   55.6320   23.1380   43.8600 C   0  0  0  0  0  0  0  0  0  0  0  0
   56.6700   30.3580   44.3710 C   0  0  0  0  0  0  0  0  0  0  0  0
   57.0150   31.7020   44.5380 C   0  0  0  0  0  0  0  0  0  0  0  0
   60.5210   33.9120   47.7130 N   0  0  0  0  0  0  0  0  0  0  0  0
   61.8049   33.8728   50.8262 H   0  0  0  0  0  0  0  0  0  0  0  0
   60.2900   34.6968   50.3234 H   0  0  0  0  0  0  0  0  0  0  0  0
   60.3791   32.9027   50.3234 H   0  0  0  0  0  0  0  0  0  0  0  0
   63.5378   33.6998   49.2330 H   0  0  0  0  0  0  0  0  0  0  0  0
   64.2487   33.7059   46.8278 H   0  0  0  0  0  0  0  0  0  0  0  0
   59.0551   31.4111   47.2655 H   0  0  0  0  0  0  0  0  0  0  0  0
   58.4321   29.0119   46.9771 H   0  0  0  0  0  0  0  0  0  0  0  0
   54.1410   24.6535   46.4287 H   0  0  0  0  0  0  0  0  0  0  0  0
   54.6566   24.8646   44.7130 H   0  0  0  0  0  0  0  0  0  0  0  0
   57.0612   24.9580   46.1535 H   0  0  0  0  0  0  0  0  0  0  0  0
   56.1013   23.6763   46.9838 H   0  0  0  0  0  0  0  0  0  0  0  0
   58.3877   22.5770   45.8015 H   0  0  0  0  0  0  0  0  0  0  0  0
   58.8221   20.9405   43.9591 H   0  0  0  0  0  0  0  0  0  0  0  0
   57.1923   20.7495   42.0700 H   0  0  0  0  0  0  0  0  0  0  0  0
   54.7154   23.7449   43.8217 H   0  0  0  0  0  0  0  0  0  0  0  0
   55.9822   30.0669   43.5634 H   0  0  0  0  0  0  0  0  0  0  0  0
   56.6104   32.4612   43.8525 H   0  0  0  0  0  0  0  0  0  0  0  0
  1  2  1  0
  2  3  1  0
  3  4  2  0
  4  5  1  0
  5  6  1  0
  6  7  2  3
  7  8  1  0
  8  9  2  0
  8 10  2  0
  8 11  1  0
 11 12  2  0
 12 13  1  0
 13 14  2  0
 14 15  1  0
 15 16  1  0
 16 17  2  0
 16 18  1  0
 18 19  1  0
 19 20  1  0
 20 21  1  0
 21 22  2  0
 22 23  1  0
 23 24  2  0
 24 25  1  0
 25 26  2  0
 14 27  1  0
 27 28  2  0
  6 29  1  0
 29  2  2  0
 28 11  1  0
 26 21  1  0
  1 30  1  0
  1 31  1  0
  1 32  1  0
  3 33  1  0
  4 34  1  0
 12 35  1  0
 13 36  1  0
 19 37  1  0
 19 38  1  0
 20 39  1  0
 20 40  1  0
 22 41  1  0
 23 42  1  0
 24 43  1  0
 26 44  1  0
 27 45  1  0
 28 46  1  0
M  CHG  3   5  -1  15  -1  18  -1
M  END
>  <UniqueID>  (3) 
3

>  <SMILES>  (3) 
Cc1cc[n-]c(=NS(=O)(=O)c2ccc([N-]C(=O)[N-]CCc3cccnc3)cc2)n1

>  <Energy>  (3) 
50.59690017176788

>  <Genealogy>  (3) 
Cc1cc[n-]c(=NS(=O)(=O)c2ccc([N-]C(=O)[N-]CCc3cccnc3)cc2)n1 (protonated)
Cc1cc[n-]c(=NS(=O)(=O)c2ccc([N-]C(=O)[N-]CCc3cccnc3)cc2)n1 (3D coordinates assigned)
Cc1cc[n-]c(=NS(=O)(=O)c2ccc([N-]C(=O)[N-]CCc3cccnc3)cc2)n1 (optimized conformer: 50.59690017176788 kcal/mol)

>  <smiles>  (3) 
Cc1cc[nH]c(=NS(=O)(=O)c2ccc(NC(=O)NCCc3cccnc3)cc2)n1

>  <score_type>  (3) 
oracle

>  <origin>  (3) 
adg

>  <m_score__min__energy>  (3) 
-13.44

>  <m_primary>  (3) 
energy

$$$$
3:0
     RDKit          3D

 34 35  0  0  0  0  0  0  0  0999 V2000
   60.3690   24.5930   46.2450 O   0  0  0  0  0  0  0  0  0  0  0  0
   59.5780   25.5660   46.3680 C   0  0  0  0  0  0  0  0  0  0  0  0
   60.1060   26.9290   46.1470 C   0  0  0  0  0  0  0  0  0  0  0  0
   59.8830   27.6810   45.0600 C   0  0  0  0  0  0  0  0  0  0  0  0
   58.8520   28.7330   44.9550 C   0  0  0  0  0  0  0  0  0  0  0  0
   59.2020   30.0810   44.7650 C   0  0  0  0  0  0  0  0  0  0  0  0
   58.2090   31.0550   44.6340 C   0  0  0  0  0  0  0  0  0  0  0  0
   56.8550   30.6900   44.6680 C   0  0  0  0  0  0  0  0  0  0  0  0
   55.8600   31.6570   44.5400 O   0  0  0  0  0  0  0  0  0  0  0  0
   56.5030   29.3450   44.8270 C   0  0  0  0  0  0  0  0  0  0  0  0
   55.1640   28.9720   44.8530 O   0  0  0  0  0  0  0  0  0  0  0  0
   57.4970   28.3690   44.9590 C   0  0  0  0  0  0  0  0  0  0  0  0
   58.1230   25.2910   46.6570 C   0  0  0  0  0  0  0  0  0  0  0  0
   57.3370   25.0500   45.3940 C   0  0  0  0  0  0  0  0  0  0  0  0
   57.7970   25.5030   44.3100 O   0  0  0  0  0  0  0  0  0  0  0  0
   56.0240   24.3530   45.3830 C   0  0  0  0  0  0  0  0  0  0  0  0
   55.9950   22.9710   45.1130 C   0  0  0  0  0  0  0  0  0  0  0  0
   54.7850   22.2740   45.0810 C   0  0  0  0  0  0  0  0  0  0  0  0
   53.5850   22.9430   45.3240 C   0  0  0  0  0  0  0  0  0  0  0  0
   52.3820   22.2490   45.2900 O   0  0  0  0  0  0  0  0  0  0  0  0
   53.5950   24.3100   45.6080 C   0  0  0  0  0  0  0  0  0  0  0  0
   54.8030   25.0160   45.6480 C   0  0  0  0  0  0  0  0  0  0  0  0
   54.7700   26.3650   45.9780 O   0  0  0  0  0  0  0  0  0  0  0  0
   60.7336   27.3618   46.9400 H   0  0  0  0  0  0  0  0  0  0  0  0
   60.5164   27.5007   44.1789 H   0  0  0  0  0  0  0  0  0  0  0  0
   60.2623   30.3703   44.7193 H   0  0  0  0  0  0  0  0  0  0  0  0
   58.4896   32.1106   44.5039 H   0  0  0  0  0  0  0  0  0  0  0  0
   54.8840   31.4030   44.4390 H   0  0  0  0  0  0  0  0  0  0  0  0
   57.2147   27.3113   45.0664 H   0  0  0  0  0  0  0  0  0  0  0  0
   58.0496   24.3998   47.2975 H   0  0  0  0  0  0  0  0  0  0  0  0
   57.7013   26.1745   47.1586 H   0  0  0  0  0  0  0  0  0  0  0  0
   56.9365   22.4341   44.9251 H   0  0  0  0  0  0  0  0  0  0  0  0
   54.7782   21.1957   44.8638 H   0  0  0  0  0  0  0  0  0  0  0  0
   52.6480   24.8352   45.8014 H   0  0  0  0  0  0  0  0  0  0  0  0
  1  2  2  0
  2  3  1  0
  3  4  2  3
  4  5  1  0
  5  6  2  0
  6  7  1  0
  7  8  2  0
  8  9  1  0
  8 10  1  0
 10 11  1  0
 10 12  2  0
  2 13  1  0
 13 14  1  0
 14 15  2  0
 14 16  1  0
 16 17  2  0
 17 18  1  0
 18 19  2  0
 19 20  1  0
 19 21  1  0
 21 22  2  0
 22 23  1  0
 12  5  1  0
 22 16  1  0
  3 24  1  0
  4 25  1  0
  6 26  1  0
  7 27  1  0
  9 28  1  0
 12 29  1  0
 13 30  1  0
 13 31  1  0
 17 32  1  0
 18 33  1  0
 21 34  1  0
M  CHG  3  11  -1  20  -1  23  -1
M  END
>  <UniqueID>  (4) 
4

>  <SMILES>  (4) 
O=C(C=Cc1ccc(O)c([O-])c1)CC(=O)c1ccc([O-])cc1[O-]

>  <Energy>  (4) 
48.76067333091448

>  <Genealogy>  (4) 
O=C(C=Cc1ccc(O)c([O-])c1)CC(=O)c1ccc([O-])cc1[O-] (protonated)
O=C(C=Cc1ccc(O)c([O-])c1)CC(=O)c1ccc([O-])cc1[O-] (3D coordinates assigned)
O=C(C=Cc1ccc(O)c([O-])c1)CC(=O)c1ccc([O-])cc1[O-] (optimized conformer: 48.76067333091448 kcal/mol)

>  <smiles>  (4) 
O=C(C=Cc1ccc(O)c(O)c1)CC(=O)c1ccc(O)cc1O

>  <score_type>  (4) 
oracle

>  <origin>  (4) 
adg

>  <m_score__min__energy>  (4) 
-15.1

>  <m_primary>  (4) 
energy

$$$$
4:0
     RDKit          3D

 45 48  0  0  0  0  0  0  0  0999 V2000
   57.5515   33.8611   52.5263 H   0  0  0  0  0  0  0  0  0  0  0  0
   57.8260   32.9300   52.0090 C   0  0  0  0  0  0  0  0  0  0  0  0
   58.9160   32.9110   51.1360 C   0  0  0  0  0  0  0  0  0  0  0  0
   59.4935   33.8302   50.9583 H   0  0  0  0  0  0  0  0  0  0  0  0
   59.2740   31.7260   50.4880 C   0  0  0  0  0  0  0  0  0  0  0  0
   60.1244   31.7202   49.7903 H   0  0  0  0  0  0  0  0  0  0  0  0
   58.5570   30.5450   50.7210 C   0  0  0  0  0  0  0  0  0  0  0  0
   58.9390   29.3530   50.0120 N   0  0  0  0  0  0  0  0  0  0  0  0
   58.8850   29.1610   48.7260 C   0  0  0  0  0  0  0  0  0  0  0  0
   58.7520   30.2010   47.8630 N   0  0  0  0  0  0  0  0  0  0  0  0
   58.6690   29.9830   46.5260 C   0  0  0  0  0  0  0  0  0  0  0  0
   58.5570   31.1020   45.6280 N   0  0  0  0  0  0  0  0  0  0  0  0
   59.0600   32.4140   45.9920 C   0  0  0  0  0  0  0  0  0  0  0  0
   60.0360   32.5720   46.9990 C   0  0  0  0  0  0  0  0  0  0  0  0
   60.4332   31.6865   47.5168 H   0  0  0  0  0  0  0  0  0  0  0  0
   60.5020   33.8420   47.3440 C   0  0  0  0  0  0  0  0  0  0  0  0
   61.2525   33.9535   48.1404 H   0  0  0  0  0  0  0  0  0  0  0  0
   60.0180   34.9700   46.6810 C   0  0  0  0  0  0  0  0  0  0  0  0
   60.3757   35.9704   46.9661 H   0  0  0  0  0  0  0  0  0  0  0  0
   59.0810   34.8310   45.6570 C   0  0  0  0  0  0  0  0  0  0  0  0
   58.7031   35.7223   45.1348 H   0  0  0  0  0  0  0  0  0  0  0  0
   58.6190   33.5570   45.2910 C   0  0  0  0  0  0  0  0  0  0  0  0
   57.6250   33.4120   44.1710 C   0  0  0  0  0  0  0  0  0  0  0  0
   57.7583   34.2380   43.4569 H   0  0  0  0  0  0  0  0  0  0  0  0
   56.6071   33.4379   44.5872 H   0  0  0  0  0  0  0  0  0  0  0  0
   57.8370   32.0830   43.4510 C   0  0  0  0  0  0  0  0  0  0  0  0
   58.8401   32.0713   42.9997 H   0  0  0  0  0  0  0  0  0  0  0  0
   57.0698   31.9739   42.6702 H   0  0  0  0  0  0  0  0  0  0  0  0
   57.7130   30.9160   44.4360 C   0  0  0  0  0  0  0  0  0  0  0  0
   58.0175   29.9894   43.9275 H   0  0  0  0  0  0  0  0  0  0  0  0
   56.6657   30.8647   44.7685 H   0  0  0  0  0  0  0  0  0  0  0  0
   58.7380   28.7100   46.0440 N   0  0  0  0  0  0  0  0  0  0  0  0
   58.7140   28.5660   45.0120 H   0  0  0  0  0  0  0  0  0  0  0  0
   58.8530   27.6570   46.9090 C   0  0  0  0  0  0  0  0  0  0  0  0
   58.9010   26.4220   46.4920 N   0  0  0  0  0  0  0  0  0  0  0  0
   58.0400   25.8020   45.4860 C   0  0  0  0  0  0  0  0  0  0  0  0
   58.2029   24.7141   45.4904 H   0  0  0  0  0  0  0  0  0  0  0  0
   58.2889   26.2177   44.4984 H   0  0  0  0  0  0  0  0  0  0  0  0
   56.6280   26.0810   45.7780 C   0  0  0  0  0  0  0  0  0  0  0  0
   55.5150   26.3000   46.0060 N   0  0  0  0  0  0  0  0  0  0  0  0
   58.9210   27.8950   48.2430 N   0  0  0  0  0  0  0  0  0  0  0  0
   57.4390   30.5780   51.5780 C   0  0  0  0  0  0  0  0  0  0  0  0
   56.8438   29.6669   51.7383 H   0  0  0  0  0  0  0  0  0  0  0  0
   57.0840   31.7650   52.2250 C   0  0  0  0  0  0  0  0  0  0  0  0
   56.2196   31.7825   52.9051 H   0  0  0  0  0  0  0  0  0  0  0  0
  1  2  1  0
  2  3  2  0
  3  4  1  0
  3  5  1  0
  5  6  1  0
  5  7  2  0
  7  8  1  0
  8  9  2  0
  9 10  1  0
 10 11  2  0
 11 12  1  0
 12 13  1  0
 13 14  2  0
 14 15  1  0
 14 16  1  0
 16 17  1  0
 16 18  2  0
 18 19  1  0
 18 20  1  0
 20 21  1  0
 20 22  2  0
 22 23  1  0
 23 24  1  0
 23 25  1  0
 23 26  1  0
 26 27  1  0
 26 28  1  0
 26 29  1  0
 29 30  1  0
 29 31  1  0
 11 32  1  0
 32 33  1  0
 32 34  1  0
 34 35  2  0
 35 36  1  0
 36 37  1  0
 36 38  1  0
 36 39  1  0
 39 40  3  0
 34 41  1  0
  7 42  1  0
 42 43  1  0
 42 44  2  0
 44 45  1  0
 44  2  1  0
 41  9  1  0
 29 12  1  0
 22 13  1  0
M  CHG  1  41  -1
M  END
>  <UniqueID>  (5) 
5

>  <SMILES>  (5) 
N#CC/N=c1/[n-]/c(=N/c2ccccc2)nc(N2CCCc3ccccc32)[nH]1

>  <Energy>  (5) 
61.30116668090708

>  <Genealogy>  (5) 
N#CCN=c1[n-]c(=Nc2ccccc2)nc(N2CCCc3ccccc32)[nH]1 (protonated)
N#CC/N=c1/[n-]/c(=N/c2ccccc2)nc(N2CCCc3ccccc32)[nH]1 (cis-trans isomerization)
N#CC/N=c1/[n-]/c(=N/c2ccccc2)nc(N2CCCc3ccccc32)[nH]1 (3D coordinates assigned)
N#CC/N=c1/[n-]/c(=N/c2ccccc2)nc(N2CCCc3ccccc32)[nH]1 (nonaromatic ring conformer: 61.30116668090708 kcal/mol)

>  <smiles>  (5) 
N#CCN=c1[nH]c(N2CCCc3ccccc32)nc(=Nc2ccccc2)[nH]1

>  <score_type>  (5) 
oracle

>  <origin>  (5) 
adg

>  <m_score__min__energy>  (5) 
-9.0399999999999991

>  <m_primary>  (5) 
energy

$$$$
5:0
     RDKit          3D

 42 44  0  0  0  0  0  0  0  0999 V2000
   58.2580   21.5920   43.7350 C   0  0  0  0  0  0  0  0  0  0  0  0
   56.4910   21.7470   43.8840 S   0  0  0  0  0  0  0  0  0  0  0  0
   55.8660   20.4050   44.1450 O   0  0  0  0  0  0  0  0  0  0  0  0
   55.9440   22.2910   42.5940 O   0  0  0  0  0  0  0  0  0  0  0  0
   56.0940   22.8460   45.1660 N   0  0  0  0  0  0  0  0  0  0  0  0
   56.4360   24.2370   45.2100 C   0  0  0  0  0  0  0  0  0  0  0  0
   55.6070   25.1070   45.9290 C   0  0  0  0  0  0  0  0  0  0  0  0
   55.8920   26.4740   45.9860 C   0  0  0  0  0  0  0  0  0  0  0  0
   57.0010   26.9940   45.3100 C   0  0  0  0  0  0  0  0  0  0  0  0
   57.2340   28.4100   45.3470 N   0  0  0  0  0  0  0  0  0  0  0  0
   56.3980   29.4280   44.7770 C   0  0  0  0  0  0  0  0  0  0  0  0
   55.1510   29.3350   44.9280 O   0  0  0  0  0  0  0  0  0  0  0  0
   56.9450   30.5640   43.9930 C   0  0  0  0  0  0  0  0  0  0  0  0
   56.8540   30.5440   42.5930 C   0  0  0  0  0  0  0  0  0  0  0  0
   57.3370   31.6150   41.8410 C   0  0  0  0  0  0  0  0  0  0  0  0
   57.9210   32.6990   42.4940 C   0  0  0  0  0  0  0  0  0  0  0  0
   58.0280   32.6990   43.8480 N   0  0  0  0  0  0  0  0  0  0  0  0
   57.5620   31.6720   44.6120 C   0  0  0  0  0  0  0  0  0  0  0  0
   57.7410   31.6920   46.0010 O   0  0  0  0  0  0  0  0  0  0  0  0
   58.6270   32.5350   46.6880 C   0  0  0  0  0  0  0  0  0  0  0  0
   59.8130   32.0590   47.2820 C   0  0  0  0  0  0  0  0  0  0  0  0
   60.6830   32.9450   47.9220 C   0  0  0  0  0  0  0  0  0  0  0  0
   60.3880   34.3090   47.9670 C   0  0  0  0  0  0  0  0  0  0  0  0
   59.2210   34.7910   47.3670 C   0  0  0  0  0  0  0  0  0  0  0  0
   58.3470   33.9070   46.7280 C   0  0  0  0  0  0  0  0  0  0  0  0
   57.8580   26.1210   44.6190 C   0  0  0  0  0  0  0  0  0  0  0  0
   57.5740   24.7530   44.5630 C   0  0  0  0  0  0  0  0  0  0  0  0
   58.7085   21.5525   44.7378 H   0  0  0  0  0  0  0  0  0  0  0  0
   58.5003   20.6692   43.1876 H   0  0  0  0  0  0  0  0  0  0  0  0
   58.6572   22.4586   43.1876 H   0  0  0  0  0  0  0  0  0  0  0  0
   54.7245   24.7113   46.4531 H   0  0  0  0  0  0  0  0  0  0  0  0
   55.2408   27.1448   46.5656 H   0  0  0  0  0  0  0  0  0  0  0  0
   56.3997   29.6799   42.0861 H   0  0  0  0  0  0  0  0  0  0  0  0
   57.2578   31.6041   40.7439 H   0  0  0  0  0  0  0  0  0  0  0  0
   58.2953   33.5546   41.9127 H   0  0  0  0  0  0  0  0  0  0  0  0
   60.0544   30.9866   47.2416 H   0  0  0  0  0  0  0  0  0  0  0  0
   61.6030   32.5670   48.3918 H   0  0  0  0  0  0  0  0  0  0  0  0
   61.0735   35.0039   48.4743 H   0  0  0  0  0  0  0  0  0  0  0  0
   58.9905   35.8661   47.3978 H   0  0  0  0  0  0  0  0  0  0  0  0
   57.4324   34.2915   46.2529 H   0  0  0  0  0  0  0  0  0  0  0  0
   58.7557   26.5152   44.1202 H   0  0  0  0  0  0  0  0  0  0  0  0
   58.2433   24.0771   44.0106 H   0  0  0  0  0  0  0  0  0  0  0  0
  1  2  1  0
  2  3  2  0
  2  4  2  0
  2  5  1  0
  5  6  1  0
  6  7  2  0
  7  8  1  0
  8  9  2  0
  9 10  1  0
 10 11  1  0
 11 12  2  0
 11 13  1  0
 13 14  2  0
 14 15  1  0
 15 16  2  0
 16 17  1  0
 17 18  2  0
 18 19  1  0
 19 20  1  0
 20 21  2  0
 21 22  1  0
 22 23  2  0
 23 24  1  0
 24 25  2  0
  9 26  1  0
 26 27  2  0
 27  6  1  0
 18 13  1  0
 25 20  1  0
  1 28  1  0
  1 29  1  0
  1 30  1  0
  7 31  1  0
  8 32  1  0
 14 33  1  0
 15 34  1  0
 16 35  1  0
 21 36  1  0
 22 37  1  0
 23 38  1  0
 24 39  1  0
 25 40  1  0
 26 41  1  0
 27 42  1  0
M  CHG  2   5  -1  10  -1
M  END
>  <UniqueID>  (6) 
6

>  <SMILES>  (6) 
CS(=O)(=O)[N-]c1ccc([N-]C(=O)c2cccnc2Oc2ccccc2)cc1

>  <Energy>  (6) 
53.20071272931186

>  <Genealogy>  (6) 
CS(=O)(=O)[N-]c1ccc([N-]C(=O)c2cccnc2Oc2ccccc2)cc1 (protonated)
CS(=O)(=O)[N-]c1ccc([N-]C(=O)c2cccnc2Oc2ccccc2)cc1 (3D coordinates assigned)
CS(=O)(=O)[N-]c1ccc([N-]C(=O)c2cccnc2Oc2ccccc2)cc1 (optimized conformer: 53.20071272931186 kcal/mol)

>  <smiles>  (6) 
CS(=O)(=O)Nc1ccc(NC(=O)c2cccnc2Oc2ccccc2)cc1

>  <score_type>  (6) 
oracle

>  <origin>  (6) 
adg

>  <m_score__min__energy>  (6) 
-11.640000000000001

>  <m_primary>  (6) 
energy

$$$$
6:0
     RDKit          3D

 35 36  0  0  0  0  0  0  0  0999 V2000
   64.5380   33.1880   49.1180 C   0  0  0  0  0  0  0  0  0  0  0  0
   63.2420   32.9220   48.5070 N   0  0  0  0  0  0  0  0  0  0  0  0
   62.9450   31.8880   47.6990 C   0  0  0  0  0  0  0  0  0  0  0  0
   61.6420   32.0320   47.2740 C   0  0  0  0  0  0  0  0  0  0  0  0
   61.2080   33.2090   47.8640 C   0  0  0  0  0  0  0  0  0  0  0  0
   59.8610   33.7990   47.7020 C   0  0  0  0  0  0  0  0  0  0  0  0
   58.9890   33.5610   48.5800 O   0  0  0  0  0  0  0  0  0  0  0  0
   59.4900   34.6300   46.5900 N   0  0  0  0  0  0  0  0  0  0  0  0
   59.2860   34.2120   45.2050 C   0  0  0  0  0  0  0  0  0  0  0  0
   57.8380   33.8890   44.9280 C   0  0  0  0  0  0  0  0  0  0  0  0
   56.9260   34.5060   45.5400 O   0  0  0  0  0  0  0  0  0  0  0  0
   57.4710   32.8120   44.0570 N   0  0  0  0  0  0  0  0  0  0  0  0
   57.4330   31.4240   44.4080 C   0  0  0  0  0  0  0  0  0  0  0  0
   58.0730   30.9990   45.5780 C   0  0  0  0  0  0  0  0  0  0  0  0
   58.0240   29.6550   45.9630 C   0  0  0  0  0  0  0  0  0  0  0  0
   57.3070   28.7280   45.1940 C   0  0  0  0  0  0  0  0  0  0  0  0
   57.2530   27.0340   45.6690 S   0  0  0  0  0  0  0  0  0  0  0  0
   55.6270   26.5910   46.0470 N   0  0  0  0  0  0  0  0  0  0  0  0
   58.1270   26.8150   46.8730 O   0  0  0  0  0  0  0  0  0  0  0  0
   57.7570   26.1720   44.5460 O   0  0  0  0  0  0  0  0  0  0  0  0
   56.6430   29.1560   44.0370 C   0  0  0  0  0  0  0  0  0  0  0  0
   56.6950   30.4990   43.6520 C   0  0  0  0  0  0  0  0  0  0  0  0
   62.2040   33.7350   48.6020 N   0  0  0  0  0  0  0  0  0  0  0  0
   64.4381   33.1675   50.2133 H   0  0  0  0  0  0  0  0  0  0  0  0
   65.2576   32.4188   48.8010 H   0  0  0  0  0  0  0  0  0  0  0  0
   64.8965   34.1784   48.8010 H   0  0  0  0  0  0  0  0  0  0  0  0
   63.6254   31.0684   47.4247 H   0  0  0  0  0  0  0  0  0  0  0  0
   61.0727   31.3617   46.6132 H   0  0  0  0  0  0  0  0  0  0  0  0
   59.6042   35.0254   44.5364 H   0  0  0  0  0  0  0  0  0  0  0  0
   59.8802   33.3030   45.0296 H   0  0  0  0  0  0  0  0  0  0  0  0
   58.6176   31.7260   46.1983 H   0  0  0  0  0  0  0  0  0  0  0  0
   58.5493   29.3249   46.8713 H   0  0  0  0  0  0  0  0  0  0  0  0
   55.1370   27.4620   46.3550 H   0  0  0  0  0  0  0  0  0  0  0  0
   56.0789   28.4330   43.4295 H   0  0  0  0  0  0  0  0  0  0  0  0
   56.1556   30.8324   42.7532 H   0  0  0  0  0  0  0  0  0  0  0  0
  1  2  1  0
  2  3  1  0
  3  4  2  0
  4  5  1  0
  5  6  1  0
  6  7  2  0
  6  8  1  0
  8  9  1  0
  9 10  1  0
 10 11  2  0
 10 12  1  0
 12 13  1  0
 13 14  2  0
 14 15  1  0
 15 16  2  0
 16 17  1  0
 17 18  1  0
 17 19  2  0
 17 20  2  0
 16 21  1  0
 21 22  2  0
  5 23  2  0
 23  2  1  0
 22 13  1  0
  1 24  1  0
  1 25  1  0
  1 26  1  0
  3 27  1  0
  4 28  1  0
  9 29  1  0
  9 30  1  0
 14 31  1  0
 15 32  1  0
 18 33  1  0
 21 34  1  0
 22 35  1  0
M  CHG  3   8  -1  12  -1  18  -1
M  END
>  <UniqueID>  (7) 
7

>  <SMILES>  (7) 
Cn1ccc(C(=O)[N-]CC(=O)[N-]c2ccc(S([NH-])(=O)=O)cc2)n1

>  <Energy>  (7) 
68.22236925361715

>  <Genealogy>  (7) 
Cn1ccc(C(=O)[N-]CC(=O)[N-]c2ccc(S([NH-])(=O)=O)cc2)n1 (protonated)
Cn1ccc(C(=O)[N-]CC(=O)[N-]c2ccc(S([NH-])(=O)=O)cc2)n1 (3D coordinates assigned)
Cn1ccc(C(=O)[N-]CC(=O)[N-]c2ccc(S([NH-])(=O)=O)cc2)n1 (optimized conformer: 68.22236925361715 kcal/mol)

>  <smiles>  (7) 
Cn1ccc(C(=O)NCC(=O)Nc2ccc(S(N)(=O)=O)cc2)n1

>  <score_type>  (7) 
oracle

>  <origin>  (7) 
adg

>  <m_score__min__energy>  (7) 
-11.710000000000001

>  <m_primary>  (7) 
energy

$$$$
7:0
     RDKit          3D

 53 56  0  0  0  0  0  0  0  0999 V2000
   57.8120   32.3720   42.1940 C   0  0  0  0  0  0  0  0  0  0  0  0
   57.9790   31.7660   43.5520 C   0  0  0  0  0  0  0  0  0  0  0  0
   58.2840   30.4720   43.7640 N   0  0  0  0  0  0  0  0  0  0  0  0
   58.4220   30.2770   45.0670 N   0  0  0  0  0  0  0  0  0  0  0  0
   58.7460   29.0130   45.6760 C   0  0  0  0  0  0  0  0  0  0  0  0
   60.0870   28.6110   45.8070 C   0  0  0  0  0  0  0  0  0  0  0  0
   60.4030   27.3780   46.3880 C   0  0  0  0  0  0  0  0  0  0  0  0
   59.3830   26.5410   46.8510 C   0  0  0  0  0  0  0  0  0  0  0  0
   58.0480   26.9290   46.7230 C   0  0  0  0  0  0  0  0  0  0  0  0
   57.7280   28.1570   46.1340 C   0  0  0  0  0  0  0  0  0  0  0  0
   58.2140   31.4440   45.7130 C   0  0  0  0  0  0  0  0  0  0  0  0
   57.9240   32.4210   44.7750 C   0  0  0  0  0  0  0  0  0  0  0  0
   57.6840   33.8570   45.0330 C   0  0  0  0  0  0  0  0  0  0  0  0
   56.6680   34.4140   44.5430 O   0  0  0  0  0  0  0  0  0  0  0  0
   58.6180   34.6570   45.7710 N   0  0  0  0  0  0  0  0  0  0  0  0
   59.6830   34.1660   46.5970 C   0  0  0  0  0  0  0  0  0  0  0  0
   60.9040   33.8330   46.0010 C   0  0  0  0  0  0  0  0  0  0  0  0
   61.9670   33.3660   46.7790 C   0  0  0  0  0  0  0  0  0  0  0  0
   61.8290   33.2420   48.1730 C   0  0  0  0  0  0  0  0  0  0  0  0
   62.9230   32.7580   48.9780 N   0  0  0  0  0  0  0  0  0  0  0  0
   64.2090   33.4670   48.9620 C   0  0  0  0  0  0  0  0  0  0  0  0
   65.2760   32.6910   49.7490 C   0  0  0  0  0  0  0  0  0  0  0  0
   64.7840   32.2690   51.0800 N   0  0  0  0  0  0  0  0  0  0  0  0
   64.7970   33.3820   52.0450 C   0  0  0  0  0  0  0  0  0  0  0  0
   63.4690   31.5680   51.0630 C   0  0  0  0  0  0  0  0  0  0  0  0
   62.8280   31.4680   49.6690 C   0  0  0  0  0  0  0  0  0  0  0  0
   60.6110   33.6040   48.7720 C   0  0  0  0  0  0  0  0  0  0  0  0
   59.5490   34.0720   47.9930 C   0  0  0  0  0  0  0  0  0  0  0  0
   57.5210   33.4278   42.2969 H   0  0  0  0  0  0  0  0  0  0  0  0
   58.7620   32.3054   41.6434 H   0  0  0  0  0  0  0  0  0  0  0  0
   57.0302   31.8282   41.6434 H   0  0  0  0  0  0  0  0  0  0  0  0
   58.4410   29.7530   43.0260 H   0  0  0  0  0  0  0  0  0  0  0  0
   60.8925   29.2698   45.4506 H   0  0  0  0  0  0  0  0  0  0  0  0
   61.4541   27.0670   46.4806 H   0  0  0  0  0  0  0  0  0  0  0  0
   59.6327   25.5761   47.3164 H   0  0  0  0  0  0  0  0  0  0  0  0
   57.2468   26.2684   47.0857 H   0  0  0  0  0  0  0  0  0  0  0  0
   56.6744   28.4548   46.0284 H   0  0  0  0  0  0  0  0  0  0  0  0
   58.2661   31.5938   46.8015 H   0  0  0  0  0  0  0  0  0  0  0  0
   61.0282   33.9394   44.9132 H   0  0  0  0  0  0  0  0  0  0  0  0
   62.9179   33.0936   46.2977 H   0  0  0  0  0  0  0  0  0  0  0  0
   64.5432   33.5821   47.9204 H   0  0  0  0  0  0  0  0  0  0  0  0
   64.0722   34.4511   49.4341 H   0  0  0  0  0  0  0  0  0  0  0  0
   65.5604   31.7966   49.1753 H   0  0  0  0  0  0  0  0  0  0  0  0
   66.1385   33.3567   49.9003 H   0  0  0  0  0  0  0  0  0  0  0  0
   64.7923   32.9797   53.0688 H   0  0  0  0  0  0  0  0  0  0  0  0
   65.7023   33.9882   51.8934 H   0  0  0  0  0  0  0  0  0  0  0  0
   63.9061   34.0092   51.8934 H   0  0  0  0  0  0  0  0  0  0  0  0
   63.6161   30.5486   51.4493 H   0  0  0  0  0  0  0  0  0  0  0  0
   62.7843   32.1637   51.6846 H   0  0  0  0  0  0  0  0  0  0  0  0
   63.3530   30.7006   49.0812 H   0  0  0  0  0  0  0  0  0  0  0  0
   61.7681   31.1949   49.7784 H   0  0  0  0  0  0  0  0  0  0  0  0
   60.4921   33.5185   49.8622 H   0  0  0  0  0  0  0  0  0  0  0  0
   58.6051   34.3678   48.4741 H   0  0  0  0  0  0  0  0  0  0  0  0
  1  2  1  0
  2  3  2  0
  3  4  1  0
  4  5  1  0
  5  6  2  0
  6  7  1  0
  7  8  2  0
  8  9  1  0
  9 10  2  0
  4 11  1  0
 11 12  2  0
 12 13  1  0
 13 14  2  0
 13 15  1  0
 15 16  1  0
 16 17  2  0
 17 18  1  0
 18 19  2  0
 19 20  1  0
 20 21  1  0
 21 22  1  0
 22 23  1  0
 23 24  1  0
 23 25  1  0
 25 26  1  0
 19 27  1  0
 27 28  2  0
 12  2  1  0
 28 16  1  0
 10  5  1  0
 26 20  1  0
  1 29  1  0
  1 30  1  0
  1 31  1  0
  3 32  1  0
  6 33  1  0
  7 34  1  0
  8 35  1  0
  9 36  1  0
 10 37  1  0
 11 38  1  0
 17 39  1  0
 18 40  1  0
 21 41  1  0
 21 42  1  0
 22 43  1  0
 22 44  1  0
 24 45  1  0
 24 46  1  0
 24 47  1  0
 25 48  1  0
 25 49  1  0
 26 50  1  0
 26 51  1  0
 27 52  1  0
 28 53  1  0
M  CHG  2   3   1  15  -1
M  END
>  <UniqueID>  (8) 
8

>  <SMILES>  (8) 
Cc1[nH+]n(-c2ccccc2)cc1C(=O)[N-]c1ccc(N2CCN(C)CC2)cc1

>  <Energy>  (8) 
105.71813917189615

>  <Genealogy>  (8) 
Cc1[nH+]n(-c2ccccc2)cc1C(=O)[N-]c1ccc(N2CCN(C)CC2)cc1 (protonated)
Cc1[nH+]n(-c2ccccc2)cc1C(=O)[N-]c1ccc(N2CCN(C)CC2)cc1 (3D coordinates assigned)
Cc1[nH+]n(-c2ccccc2)cc1C(=O)[N-]c1ccc(N2CCN(C)CC2)cc1 (nonaromatic ring conformer: 105.71813917189615 kcal/mol)

>  <smiles>  (8) 
Cc1nn(-c2ccccc2)cc1C(=O)Nc1ccc(N2CCN(C)CC2)cc1

>  <score_type>  (8) 
oracle

>  <origin>  (8) 
adg

>  <m_score__min__energy>  (8) 
-8.1699999999999999

>  <m_primary>  (8) 
energy

$$$$
8:0
     RDKit          3D

 57 61  0  0  0  0  0  0  0  0999 V2000
   56.5160   21.6140   48.0680 C   0  0  0  0  0  0  0  0  0  0  0  0
   57.3350   22.3530   47.1690 O   0  0  0  0  0  0  0  0  0  0  0  0
   57.0890   22.5050   45.7940 C   0  0  0  0  0  0  0  0  0  0  0  0
   57.5320   21.5410   44.8650 C   0  0  0  0  0  0  0  0  0  0  0  0
   57.2610   21.6840   43.5050 C   0  0  0  0  0  0  0  0  0  0  0  0
   56.5460   22.7900   43.0490 C   0  0  0  0  0  0  0  0  0  0  0  0
   56.1040   23.7590   43.9510 C   0  0  0  0  0  0  0  0  0  0  0  0
   56.3720   23.6400   45.3300 C   0  0  0  0  0  0  0  0  0  0  0  0
   55.8880   24.7040   46.2560 C   0  0  0  0  0  0  0  0  0  0  0  0
   55.5520   24.3990   47.4330 O   0  0  0  0  0  0  0  0  0  0  0  0
   55.7410   26.0560   45.8020 N   0  0  0  0  0  0  0  0  0  0  0  0
   56.6340   27.1530   46.0410 C   0  0  0  0  0  0  0  0  0  0  0  0
   56.5160   28.3030   45.2290 C   0  0  0  0  0  0  0  0  0  0  0  0
   57.3830   29.3940   45.3970 C   0  0  0  0  0  0  0  0  0  0  0  0
   58.3650   29.3090   46.3810 C   0  0  0  0  0  0  0  0  0  0  0  0
   58.5040   28.1870   47.1750 C   0  0  0  0  0  0  0  0  0  0  0  0
   57.6560   27.0900   47.0170 C   0  0  0  0  0  0  0  0  0  0  0  0
   59.6470   28.3300   48.1380 C   0  0  0  0  0  0  0  0  0  0  0  0
   60.1420   29.7000   47.7750 C   0  0  0  0  0  0  0  0  0  0  0  0
   61.2180   30.3930   48.3290 C   0  0  0  0  0  0  0  0  0  0  0  0
   61.5520   31.6630   47.8130 C   0  0  0  0  0  0  0  0  0  0  0  0
   62.6590   32.3810   48.3790 N   0  0  0  0  0  0  0  0  0  0  0  0
   62.5450   33.2440   49.5200 C   0  0  0  0  0  0  0  0  0  0  0  0
   61.4070   33.5750   49.9570 O   0  0  0  0  0  0  0  0  0  0  0  0
   63.7860   33.8480   50.1160 C   0  0  0  0  0  0  0  0  0  0  0  0
   64.8290   32.8030   50.4270 C   0  0  0  0  0  0  0  0  0  0  0  0
   66.1910   33.0720   50.2050 C   0  0  0  0  0  0  0  0  0  0  0  0
   67.1590   32.1100   50.5150 C   0  0  0  0  0  0  0  0  0  0  0  0
   66.7760   30.8790   51.0590 C   0  0  0  0  0  0  0  0  0  0  0  0
   65.4240   30.6090   51.2940 C   0  0  0  0  0  0  0  0  0  0  0  0
   64.4520   31.5680   50.9820 C   0  0  0  0  0  0  0  0  0  0  0  0
   60.7680   32.2250   46.7750 C   0  0  0  0  0  0  0  0  0  0  0  0
   59.6820   31.5170   46.2350 C   0  0  0  0  0  0  0  0  0  0  0  0
   59.3940   30.2560   46.7540 C   0  0  0  0  0  0  0  0  0  0  0  0
   56.7914   21.8625   49.1036 H   0  0  0  0  0  0  0  0  0  0  0  0
   55.4601   21.8709   47.8977 H   0  0  0  0  0  0  0  0  0  0  0  0
   56.6634   20.5373   47.8977 H   0  0  0  0  0  0  0  0  0  0  0  0
   58.0979   20.6661   45.2175 H   0  0  0  0  0  0  0  0  0  0  0  0
   57.6116   20.9237   42.7916 H   0  0  0  0  0  0  0  0  0  0  0  0
   56.3296   22.8994   41.9761 H   0  0  0  0  0  0  0  0  0  0  0  0
   55.5389   24.6272   43.5810 H   0  0  0  0  0  0  0  0  0  0  0  0
   55.7350   28.3440   44.4555 H   0  0  0  0  0  0  0  0  0  0  0  0
   57.2894   30.2919   44.7685 H   0  0  0  0  0  0  0  0  0  0  0  0
   57.7801   26.1922   47.6404 H   0  0  0  0  0  0  0  0  0  0  0  0
   59.3056   28.2853   49.1827 H   0  0  0  0  0  0  0  0  0  0  0  0
   60.4053   27.5361   48.0700 H   0  0  0  0  0  0  0  0  0  0  0  0
   61.7975   29.9561   49.1557 H   0  0  0  0  0  0  0  0  0  0  0  0
   63.5670   32.3750   47.8610 H   0  0  0  0  0  0  0  0  0  0  0  0
   64.2083   34.5698   49.4014 H   0  0  0  0  0  0  0  0  0  0  0  0
   63.5057   34.3399   51.0591 H   0  0  0  0  0  0  0  0  0  0  0  0
   66.4969   34.0421   49.7862 H   0  0  0  0  0  0  0  0  0  0  0  0
   68.2225   32.3219   50.3307 H   0  0  0  0  0  0  0  0  0  0  0  0
   67.5381   30.1238   51.3018 H   0  0  0  0  0  0  0  0  0  0  0  0
   65.1236   29.6423   51.7244 H   0  0  0  0  0  0  0  0  0  0  0  0
   63.3899   31.3538   51.1720 H   0  0  0  0  0  0  0  0  0  0  0  0
   61.0124   33.2254   46.3885 H   0  0  0  0  0  0  0  0  0  0  0  0
   59.0750   31.9462   45.4242 H   0  0  0  0  0  0  0  0  0  0  0  0
  1  2  1  0
  2  3  1  0
  3  4  2  0
  4  5  1  0
  5  6  2  0
  6  7  1  0
  7  8  2  0
  8  9  1  0
  9 10  2  0
  9 11  1  0
 11 12  1  0
 12 13  2  0
 13 14  1  0
 14 15  2  0
 15 16  1  0
 16 17  2  0
 16 18  1  0
 18 19  1  0
 19 20  2  0
 20 21  1  0
 21 22  1  0
 22 23  1  0
 23 24  2  0
 23 25  1  0
 25 26  1  0
 26 27  2  0
 27 28  1  0
 28 29  2  0
 29 30  1  0
 30 31  2  0
 21 32  2  0
 32 33  1  0
 33 34  2  0
  8  3  1  0
 17 12  1  0
 34 19  1  0
 34 15  1  0
 31 26  1  0
  1 35  1  0
  1 36  1  0
  1 37  1  0
  4 38  1  0
  5 39  1  0
  6 40  1  0
  7 41  1  0
 13 42  1  0
 14 43  1  0
 17 44  1  0
 18 45  1  0
 18 46  1  0
 20 47  1  0
 22 48  1  0
 25 49  1  0
 25 50  1  0
 27 51  1  0
 28 52  1  0
 29 53  1  0
 30 54  1  0
 31 55  1  0
 32 56  1  0
 33 57  1  0
M  CHG  1  11  -1
M  END
>  <UniqueID>  (9) 
9

>  <SMILES>  (9) 
COc1ccccc1C(=O)[N-]c1ccc2c(c1)Cc1cc(NC(=O)Cc3ccccc3)ccc1-2

>  <Energy>  (9) 
94.28875767547949

>  <Genealogy>  (9) 
COc1ccccc1C(=O)[N-]c1ccc2c(c1)Cc1cc(NC(=O)Cc3ccccc3)ccc1-2 (protonated)
COc1ccccc1C(=O)[N-]c1ccc2c(c1)Cc1cc(NC(=O)Cc3ccccc3)ccc1-2 (3D coordinates assigned)
COc1ccccc1C(=O)[N-]c1ccc2c(c1)Cc1cc(NC(=O)Cc3ccccc3)ccc1-2 (nonaromatic ring conformer: 94.28875767547949 kcal/mol)

>  <smiles>  (9) 
COc1ccccc1C(=O)Nc1ccc2c(c1)Cc1cc(NC(=O)Cc3ccccc3)ccc1-2

>  <score_type>  (9) 
oracle

>  <origin>  (9) 
adg

>  <m_score__min__energy>  (9) 
-10.35

>  <m_primary>  (9) 
energy

$$$$
9:0
     RDKit          3D

 62 67  0  0  0  0  0  0  0  0999 V2000
   64.4200   32.1080   48.6570 O   0  0  0  0  0  0  0  0  0  0  0  0
   64.4480   32.8310   49.6870 C   0  0  0  0  0  0  0  0  0  0  0  0
   65.4890   32.7330   50.7280 C   0  0  0  0  0  0  0  0  0  0  0  0
   65.1700   33.9180   51.6500 C   0  0  0  0  0  0  0  0  0  0  0  0
   63.7830   34.4490   51.2420 C   0  0  0  0  0  0  0  0  0  0  0  0
   63.4740   33.8200   49.9690 N   0  0  0  0  0  0  0  0  0  0  0  0
   62.2110   33.9920   49.2490 C   0  0  0  0  0  0  0  0  0  0  0  0
   61.0590   33.2970   49.9860 C   0  0  0  0  0  0  0  0  0  0  0  0
   60.5050   32.1920   49.1720 N   0  0  0  0  0  0  0  0  0  0  0  0
   61.5700   31.3240   48.6380 C   0  0  0  0  0  0  0  0  0  0  0  0
   60.9790   30.4600   47.5240 C   0  0  0  0  0  0  0  0  0  0  0  0
   59.6560   29.9580   47.9110 N   0  0  0  0  0  0  0  0  0  0  0  0
   58.7280   29.5740   46.8910 C   0  0  0  0  0  0  0  0  0  0  0  0
   58.4130   28.2210   46.7100 C   0  0  0  0  0  0  0  0  0  0  0  0
   57.5090   27.8480   45.6890 C   0  0  0  0  0  0  0  0  0  0  0  0
   57.1800   26.4170   45.4680 C   0  0  0  0  0  0  0  0  0  0  0  0
   56.3290   25.7360   46.3580 C   0  0  0  0  0  0  0  0  0  0  0  0
   56.0090   24.3930   46.1420 C   0  0  0  0  0  0  0  0  0  0  0  0
   56.5340   23.7140   45.0390 C   0  0  0  0  0  0  0  0  0  0  0  0
   57.3810   24.3780   44.1500 C   0  0  0  0  0  0  0  0  0  0  0  0
   57.7070   25.7210   44.3630 C   0  0  0  0  0  0  0  0  0  0  0  0
   56.9550   28.8150   44.8920 N   0  0  0  0  0  0  0  0  0  0  0  0
   57.2800   30.1170   45.0910 C   0  0  0  0  0  0  0  0  0  0  0  0
   56.7920   31.1460   44.3550 N   0  0  0  0  0  0  0  0  0  0  0  0
   57.4030   32.2100   44.9170 C   0  0  0  0  0  0  0  0  0  0  0  0
   57.2690   33.5460   44.5490 C   0  0  0  0  0  0  0  0  0  0  0  0
   58.0030   34.5050   45.2700 C   0  0  0  0  0  0  0  0  0  0  0  0
   58.8470   34.1090   46.3320 C   0  0  0  0  0  0  0  0  0  0  0  0
   58.9650   32.7530   46.6850 C   0  0  0  0  0  0  0  0  0  0  0  0
   58.2220   31.8230   45.9510 C   0  0  0  0  0  0  0  0  0  0  0  0
   58.1450   30.4840   46.0620 N   0  0  0  0  0  0  0  0  0  0  0  0
   59.2150   30.0190   49.3090 C   0  0  0  0  0  0  0  0  0  0  0  0
   59.4960   31.4060   49.9260 C   0  0  0  0  0  0  0  0  0  0  0  0
   65.4162   31.7791   51.2710 H   0  0  0  0  0  0  0  0  0  0  0  0
   66.5110   32.7630   50.3224 H   0  0  0  0  0  0  0  0  0  0  0  0
   65.1535   33.5863   52.6987 H   0  0  0  0  0  0  0  0  0  0  0  0
   65.9335   34.7042   51.5553 H   0  0  0  0  0  0  0  0  0  0  0  0
   63.0312   34.1747   51.9967 H   0  0  0  0  0  0  0  0  0  0  0  0
   63.7783   35.5461   51.1619 H   0  0  0  0  0  0  0  0  0  0  0  0
   61.9883   35.0659   49.1648 H   0  0  0  0  0  0  0  0  0  0  0  0
   62.3120   33.5400   48.2512 H   0  0  0  0  0  0  0  0  0  0  0  0
   61.4324   32.8916   50.9380 H   0  0  0  0  0  0  0  0  0  0  0  0
   60.2627   34.0333   50.1695 H   0  0  0  0  0  0  0  0  0  0  0  0
   62.3854   31.9425   48.2348 H   0  0  0  0  0  0  0  0  0  0  0  0
   61.9714   30.6846   49.4380 H   0  0  0  0  0  0  0  0  0  0  0  0
   60.8839   31.0637   46.6094 H   0  0  0  0  0  0  0  0  0  0  0  0
   61.6463   29.6040   47.3454 H   0  0  0  0  0  0  0  0  0  0  0  0
   58.8654   27.4550   47.3570 H   0  0  0  0  0  0  0  0  0  0  0  0
   55.9132   26.2639   47.2289 H   0  0  0  0  0  0  0  0  0  0  0  0
   55.3420   23.8687   46.8421 H   0  0  0  0  0  0  0  0  0  0  0  0
   56.2799   22.6569   44.8715 H   0  0  0  0  0  0  0  0  0  0  0  0
   57.7925   23.8441   43.2808 H   0  0  0  0  0  0  0  0  0  0  0  0
   58.3798   26.2374   43.6625 H   0  0  0  0  0  0  0  0  0  0  0  0
   56.2690   28.5690   44.1420 H   0  0  0  0  0  0  0  0  0  0  0  0
   56.6095   33.8424   43.7200 H   0  0  0  0  0  0  0  0  0  0  0  0
   57.9196   35.5695   45.0057 H   0  0  0  0  0  0  0  0  0  0  0  0
   59.4168   34.8684   46.8875 H   0  0  0  0  0  0  0  0  0  0  0  0
   59.6192   32.4347   47.5101 H   0  0  0  0  0  0  0  0  0  0  0  0
   58.1341   29.8197   49.3527 H   0  0  0  0  0  0  0  0  0  0  0  0
   59.7734   29.2644   49.8824 H   0  0  0  0  0  0  0  0  0  0  0  0
   58.5551   31.9754   49.9475 H   0  0  0  0  0  0  0  0  0  0  0  0
   59.9023   31.2372   50.9342 H   0  0  0  0  0  0  0  0  0  0  0  0
  1  2  2  0
  2  3  1  0
  3  4  1  0
  4  5  1  0
  5  6  1  0
  6  7  1  0
  7  8  1  0
  8  9  1  0
  9 10  1  0
 10 11  1  0
 11 12  1  0
 12 13  1  0
 13 14  2  0
 14 15  1  0
 15 16  1  0
 16 17  2  0
 17 18  1  0
 18 19  2  0
 19 20  1  0
 20 21  2  0
 15 22  2  0
 22 23  1  0
 23 24  2  0
 24 25  1  0
 25 26  2  0
 26 27  1  0
 27 28  2  0
 28 29  1  0
 29 30  2  0
 30 31  1  0
 12 32  1  0
 32 33  1  0
  6  2  1  0
 33  9  1  0
 31 13  1  0
 21 16  1  0
 31 23  1  0
 30 25  1  0
  3 34  1  0
  3 35  1  0
  4 36  1  0
  4 37  1  0
  5 38  1  0
  5 39  1  0
  7 40  1  0
  7 41  1  0
  8 42  1  0
  8 43  1  0
 10 44  1  0
 10 45  1  0
 11 46  1  0
 11 47  1  0
 14 48  1  0
 17 49  1  0
 18 50  1  0
 19 51  1  0
 20 52  1  0
 21 53  1  0
 22 54  1  0
 26 55  1  0
 27 56  1  0
 28 57  1  0
 29 58  1  0
 32 59  1  0
 32 60  1  0
 33 61  1  0
 33 62  1  0
M  CHG  1  22   1
M  END
>  <UniqueID>  (10) 
10

>  <SMILES>  (10) 
O=C1CCCN1CCN1CCN(c2cc(-c3ccccc3)[nH+]c3nc4ccccc4n23)CC1

>  <Energy>  (10) 
130.7391219727187

>  <Genealogy>  (10) 
O=C1CCCN1CCN1CCN(c2cc(-c3ccccc3)[nH+]c3nc4ccccc4n23)CC1 (protonated)
O=C1CCCN1CCN1CCN(c2cc(-c3ccccc3)[nH+]c3nc4ccccc4n23)CC1 (3D coordinates assigned)
O=C1CCCN1CCN1CCN(c2cc(-c3ccccc3)[nH+]c3nc4ccccc4n23)CC1 (nonaromatic ring conformer: 130.7391219727187 kcal/mol)

>  <smiles>  (10) 
O=C1CCCN1CCN1CCN(c2cc(-c3ccccc3)nc3nc4ccccc4n23)CC1

>  <score_type>  (10) 
oracle

>  <origin>  (10) 
adg

>  <m_score__min__energy>  (10) 
-8.1999999999999993

>  <m_primary>  (10) 
energy

$$$$
10:0
     RDKit          3D

 57 60  0  0  0  0  0  0  0  0999 V2000
   56.3710   30.8340   52.0260 C   0  0  0  0  0  0  0  0  0  0  0  0
   57.6510   31.5210   51.6560 C   0  0  0  0  0  0  0  0  0  0  0  0
   58.0160   32.7230   52.2820 C   0  0  0  0  0  0  0  0  0  0  0  0
   59.1940   33.3790   51.9130 C   0  0  0  0  0  0  0  0  0  0  0  0
   60.0090   32.8610   50.9010 C   0  0  0  0  0  0  0  0  0  0  0  0
   61.1980   33.5350   50.5880 O   0  0  0  0  0  0  0  0  0  0  0  0
   61.9910   33.2880   49.4600 C   0  0  0  0  0  0  0  0  0  0  0  0
   63.1590   32.5940   49.5760 N   0  0  0  0  0  0  0  0  0  0  0  0
   63.9280   32.2940   48.4980 C   0  0  0  0  0  0  0  0  0  0  0  0
   63.5230   32.6840   47.2210 C   0  0  0  0  0  0  0  0  0  0  0  0
   62.3310   33.3930   47.0690 C   0  0  0  0  0  0  0  0  0  0  0  0
   61.5590   33.7200   48.1920 C   0  0  0  0  0  0  0  0  0  0  0  0
   60.3080   34.4880   48.0290 C   0  0  0  0  0  0  0  0  0  0  0  0
   59.5210   34.5950   49.0050 O   0  0  0  0  0  0  0  0  0  0  0  0
   59.9690   35.1290   46.7920 N   0  0  0  0  0  0  0  0  0  0  0  0
   58.9650   34.6400   45.8460 C   0  0  1  0  0  0  0  0  0  0  0  0
   59.5410   33.4720   45.0380 C   0  0  0  0  0  0  0  0  0  0  0  0
   58.5020   32.8920   44.0630 C   0  0  0  0  0  0  0  0  0  0  0  0
   57.1360   32.5710   44.7150 C   0  0  1  0  0  0  0  0  0  0  0  0
   57.1010   31.2640   45.3780 N   0  0  0  0  0  0  0  0  0  0  0  0
   57.0060   29.9920   44.7300 C   0  0  0  0  0  0  0  0  0  0  0  0
   56.3040   29.8880   43.6900 O   0  0  0  0  0  0  0  0  0  0  0  0
   57.6750   28.7970   45.3050 C   0  0  0  0  0  0  0  0  0  0  0  0
   56.9210   27.6720   45.7110 C   0  0  0  0  0  0  0  0  0  0  0  0
   55.5350   27.6530   45.5830 O   0  0  0  0  0  0  0  0  0  0  0  0
   57.5620   26.5440   46.2350 C   0  0  0  0  0  0  0  0  0  0  0  0
   58.9520   26.5160   46.3550 C   0  0  0  0  0  0  0  0  0  0  0  0
   59.7090   27.6160   45.9550 C   0  0  0  0  0  0  0  0  0  0  0  0
   59.0810   28.7530   45.4330 C   0  0  0  0  0  0  0  0  0  0  0  0
   59.8550   29.8100   45.0790 F   0  0  0  0  0  0  0  0  0  0  0  0
   56.6390   33.6900   45.6550 C   0  0  0  0  0  0  0  0  0  0  0  0
   57.7220   34.1910   46.6160 C   0  0  0  0  0  0  0  0  0  0  0  0
   59.6410   31.6590   50.2700 C   0  0  0  0  0  0  0  0  0  0  0  0
   58.4640   31.0000   50.6390 C   0  0  0  0  0  0  0  0  0  0  0  0
   56.2835   30.7870   53.1215 H   0  0  0  0  0  0  0  0  0  0  0  0
   55.5204   31.3968   51.6140 H   0  0  0  0  0  0  0  0  0  0  0  0
   56.3699   29.8141   51.6140 H   0  0  0  0  0  0  0  0  0  0  0  0
   57.3730   33.1503   53.0656 H   0  0  0  0  0  0  0  0  0  0  0  0
   59.4824   34.3102   52.4226 H   0  0  0  0  0  0  0  0  0  0  0  0
   64.8708   31.7432   48.6314 H   0  0  0  0  0  0  0  0  0  0  0  0
   64.1372   32.4350   46.3431 H   0  0  0  0  0  0  0  0  0  0  0  0
   61.9965   33.6959   46.0658 H   0  0  0  0  0  0  0  0  0  0  0  0
   58.6867   35.4457   45.1508 H   0  0  0  0  0  0  0  0  0  0  0  0
   60.4092   33.8285   44.4642 H   0  0  0  0  0  0  0  0  0  0  0  0
   59.8342   32.6784   45.7410 H   0  0  0  0  0  0  0  0  0  0  0  0
   58.3375   33.6233   43.2579 H   0  0  0  0  0  0  0  0  0  0  0  0
   58.9097   31.9393   43.6939 H   0  0  0  0  0  0  0  0  0  0  0  0
   56.4297   32.5173   43.8734 H   0  0  0  0  0  0  0  0  0  0  0  0
   56.9674   25.6752   46.5539 H   0  0  0  0  0  0  0  0  0  0  0  0
   59.4505   25.6255   46.7654 H   0  0  0  0  0  0  0  0  0  0  0  0
   60.8046   27.5905   46.0499 H   0  0  0  0  0  0  0  0  0  0  0  0
   56.2962   34.5363   45.0416 H   0  0  0  0  0  0  0  0  0  0  0  0
   55.8267   33.2693   46.2659 H   0  0  0  0  0  0  0  0  0  0  0  0
   57.3279   35.0412   47.1921 H   0  0  0  0  0  0  0  0  0  0  0  0
   58.0027   33.3689   47.2908 H   0  0  0  0  0  0  0  0  0  0  0  0
   60.2819   31.2354   49.4827 H   0  0  0  0  0  0  0  0  0  0  0  0
   58.1747   30.0691   50.1294 H   0  0  0  0  0  0  0  0  0  0  0  0
  1  2  1  0
  2  3  2  0
  3  4  1  0
  4  5  2  0
  5  6  1  0
  6  7  1  0
  7  8  2  0
  8  9  1  0
  9 10  2  0
 10 11  1  0
 11 12  2  0
 12 13  1  0
 13 14  2  0
 13 15  1  0
 15 16  1  0
 16 17  1  0
 17 18  1  0
 18 19  1  0
 19 20  1  0
 20 21  1  0
 21 22  2  0
 21 23  1  0
 23 24  2  0
 24 25  1  0
 24 26  1  0
 26 27  2  0
 27 28  1  0
 28 29  2  0
 29 30  1  0
 19 31  1  0
 31 32  1  0
  5 33  1  0
 33 34  2  0
 34  2  1  0
 12  7  1  0
 32 16  1  0
 29 23  1  0
  1 35  1  0
  1 36  1  0
  1 37  1  0
  3 38  1  0
  4 39  1  0
  9 40  1  0
 10 41  1  0
 11 42  1  0
 16 43  1  6
 17 44  1  0
 17 45  1  0
 18 46  1  0
 18 47  1  0
 19 48  1  6
 26 49  1  0
 27 50  1  0
 28 51  1  0
 31 52  1  0
 31 53  1  0
 32 54  1  0
 32 55  1  0
 33 56  1  0
 34 57  1  0
M  CHG  3  15  -1  20  -1  25  -1
M  END
>  <UniqueID>  (11) 
11

>  <SMILES>  (11) 
Cc1ccc(Oc2ncccc2C(=O)[N-]C2CCC([N-]C(=O)c3c([O-])cccc3F)CC2)cc1

>  <Energy>  (11) 
75.97309665830761

>  <Genealogy>  (11) 
Cc1ccc(Oc2ncccc2C(=O)[N-]C2CCC([N-]C(=O)c3c([O-])cccc3F)CC2)cc1 (protonated)
Cc1ccc(Oc2ncccc2C(=O)[N-]C2CCC([N-]C(=O)c3c([O-])cccc3F)CC2)cc1 (3D coordinates assigned)
Cc1ccc(Oc2ncccc2C(=O)[N-]C2CCC([N-]C(=O)c3c([O-])cccc3F)CC2)cc1 (nonaromatic ring conformer: 75.97309665830761 kcal/mol)

>  <smiles>  (11) 
Cc1ccc(Oc2ncccc2C(=O)NC2CCC(NC(=O)c3c(O)cccc3F)CC2)cc1

>  <score_type>  (11) 
oracle

>  <origin>  (11) 
adg

>  <m_score__min__energy>  (11) 
-15.06

>  <m_primary>  (11) 
energy

$$$$
11:0
     RDKit          3D

 48 51  0  0  0  0  0  0  0  0999 V2000
   67.2110   32.8500   52.4100 C   0  0  0  0  0  0  0  0  0  0  0  0
   66.6130   32.5070   50.7680 S   0  0  0  0  0  0  0  0  0  0  0  0
   66.6540   31.0300   50.4920 O   0  0  0  0  0  0  0  0  0  0  0  0
   67.5030   33.2090   49.7770 O   0  0  0  0  0  0  0  0  0  0  0  0
   64.9930   33.1010   50.5840 N   0  0  0  0  0  0  0  0  0  0  0  0
   64.0840   32.7540   49.5290 C   0  0  0  0  0  0  0  0  0  0  0  0
   64.0610   33.4520   48.2880 C   0  0  0  0  0  0  0  0  0  0  0  0
   63.1710   33.0660   47.2650 C   0  0  0  0  0  0  0  0  0  0  0  0
   62.3250   31.9900   47.5180 C   0  0  0  0  0  0  0  0  0  0  0  0
   61.4400   31.4390   46.7320 O   0  0  0  0  0  0  0  0  0  0  0  0
   60.9040   30.4470   47.4300 C   0  0  0  0  0  0  0  0  0  0  0  0
   59.8690   29.5420   46.8900 C   0  0  0  0  0  0  0  0  0  0  0  0
   58.9150   30.0250   45.9840 C   0  0  0  0  0  0  0  0  0  0  0  0
   57.9750   29.1590   45.4200 C   0  0  0  0  0  0  0  0  0  0  0  0
   57.9720   27.7950   45.7480 C   0  0  0  0  0  0  0  0  0  0  0  0
   57.0260   26.9210   45.1100 N   0  0  0  0  0  0  0  0  0  0  0  0
   56.1630   25.6590   45.9380 S   0  0  0  0  0  0  0  0  0  0  0  0
   56.5670   25.5670   47.3830 O   0  0  0  0  0  0  0  0  0  0  0  0
   54.6930   25.9650   45.8640 O   0  0  0  0  0  0  0  0  0  0  0  0
   56.5130   24.1070   45.1500 C   0  0  0  0  0  0  0  0  0  0  0  0
   57.8130   23.8920   44.6590 C   0  0  0  0  0  0  0  0  0  0  0  0
   58.1710   22.6580   44.1130 C   0  0  0  0  0  0  0  0  0  0  0  0
   57.2410   21.6170   44.0610 C   0  0  0  0  0  0  0  0  0  0  0  0
   55.9420   21.8160   44.5210 C   0  0  0  0  0  0  0  0  0  0  0  0
   55.5490   23.0620   45.0490 C   0  0  0  0  0  0  0  0  0  0  0  0
   54.1250   23.2350   45.4300 C   0  0  0  0  0  0  0  0  0  0  0  0
   53.2040   22.9980   44.6020 O   0  0  0  0  0  0  0  0  0  0  0  0
   53.7850   23.5900   46.7330 O   0  0  0  0  0  0  0  0  0  0  0  0
   58.8910   27.3210   46.6970 C   0  0  0  0  0  0  0  0  0  0  0  0
   59.8420   28.1850   47.2540 C   0  0  0  0  0  0  0  0  0  0  0  0
   61.4240   30.3320   48.6850 N   0  0  0  0  0  0  0  0  0  0  0  0
   62.3280   31.3280   48.7060 C   0  0  0  0  0  0  0  0  0  0  0  0
   63.1930   31.6770   49.7420 C   0  0  0  0  0  0  0  0  0  0  0  0
   66.5046   32.4449   53.1495 H   0  0  0  0  0  0  0  0  0  0  0  0
   68.1957   32.3794   52.5473 H   0  0  0  0  0  0  0  0  0  0  0  0
   67.3020   33.9376   52.5473 H   0  0  0  0  0  0  0  0  0  0  0  0
   64.7434   34.2995   48.1262 H   0  0  0  0  0  0  0  0  0  0  0  0
   63.1461   33.5961   46.3015 H   0  0  0  0  0  0  0  0  0  0  0  0
   58.9063   31.0917   45.7156 H   0  0  0  0  0  0  0  0  0  0  0  0
   57.2299   29.5505   44.7118 H   0  0  0  0  0  0  0  0  0  0  0  0
   57.0170   26.8750   44.0650 H   0  0  0  0  0  0  0  0  0  0  0  0
   58.5544   24.7033   44.7055 H   0  0  0  0  0  0  0  0  0  0  0  0
   59.1880   22.5051   43.7227 H   0  0  0  0  0  0  0  0  0  0  0  0
   57.5356   20.6377   43.6557 H   0  0  0  0  0  0  0  0  0  0  0  0
   55.2149   20.9920   44.4717 H   0  0  0  0  0  0  0  0  0  0  0  0
   58.8641   26.2653   47.0049 H   0  0  0  0  0  0  0  0  0  0  0  0
   60.5721   27.7992   47.9807 H   0  0  0  0  0  0  0  0  0  0  0  0
   63.1827   31.1308   50.6967 H   0  0  0  0  0  0  0  0  0  0  0  0
  1  2  1  0
  2  3  2  0
  2  4  2  0
  2  5  1  0
  5  6  1  0
  6  7  2  0
  7  8  1  0
  8  9  2  0
  9 10  1  0
 10 11  1  0
 11 12  1  0
 12 13  2  0
 13 14  1  0
 14 15  2  0
 15 16  1  0
 16 17  1  0
 17 18  2  0
 17 19  2  0
 17 20  1  0
 20 21  2  0
 21 22  1  0
 22 23  2  0
 23 24  1  0
 24 25  2  0
 25 26  1  0
 26 27  2  0
 26 28  1  0
 15 29  1  0
 29 30  2  0
 11 31  2  0
 31 32  1  0
 32 33  2  0
 33  6  1  0
 32  9  1  0
 30 12  1  0
 25 20  1  0
  1 34  1  0
  1 35  1  0
  1 36  1  0
  7 37  1  0
  8 38  1  0
 13 39  1  0
 14 40  1  0
 16 41  1  0
 21 42  1  0
 22 43  1  0
 23 44  1  0
 24 45  1  0
 29 46  1  0
 30 47  1  0
 33 48  1  0
M  CHG  2   5  -1  28  -1
M  END
>  <UniqueID>  (12) 
12

>  <SMILES>  (12) 
CS(=O)(=O)[N-]c1ccc2oc(-c3ccc(NS(=O)(=O)c4ccccc4C(=O)[O-])cc3)nc2c1

>  <Energy>  (12) 
101.19500494988465

>  <Genealogy>  (12) 
CS(=O)(=O)[N-]c1ccc2oc(-c3ccc(NS(=O)(=O)c4ccccc4C(=O)[O-])cc3)nc2c1 (protonated)
CS(=O)(=O)[N-]c1ccc2oc(-c3ccc(NS(=O)(=O)c4ccccc4C(=O)[O-])cc3)nc2c1 (3D coordinates assigned)
CS(=O)(=O)[N-]c1ccc2oc(-c3ccc(NS(=O)(=O)c4ccccc4C(=O)[O-])cc3)nc2c1 (optimized conformer: 101.19500494988465 kcal/mol)

>  <smiles>  (12) 
CS(=O)(=O)Nc1ccc2oc(-c3ccc(NS(=O)(=O)c4ccccc4C(=O)O)cc3)nc2c1

>  <score_type>  (12) 
oracle

>  <origin>  (12) 
adg

>  <m_score__min__energy>  (12) 
-12.109999999999999

>  <m_primary>  (12) 
energy

$$$$
12:0
     RDKit          3D

 47 49  0  0  1  0  0  0  0  0999 V2000
   65.8230   32.7750   49.9680 C   0  0  0  0  0  0  0  0  0  0  0  0
   64.4850   32.4190   49.4310 C   0  0  0  0  0  0  0  0  0  0  0  0
   64.0710   33.0030   48.2340 C   0  0  0  0  0  0  0  0  0  0  0  0
   62.8290   32.6860   47.7170 C   0  0  0  0  0  0  0  0  0  0  0  0
   61.9690   31.8030   48.3430 C   0  0  0  0  0  0  0  0  0  0  0  0
   60.3860   31.4180   47.6550 S   0  0  0  0  0  0  0  0  0  0  0  0
   59.3050   31.7920   48.6120 O   0  0  0  0  0  0  0  0  0  0  0  0
   60.3310   32.2260   46.3700 O   0  0  0  0  0  0  0  0  0  0  0  0
   60.3040   29.7200   47.3610 N   0  0  0  0  0  0  0  0  0  0  0  0
   59.3340   29.2680   46.6070 C   0  0  0  0  0  0  0  0  0  0  0  0
   58.4050   30.0990   46.1010 N   0  0  0  0  0  0  0  0  0  0  0  0
   57.4490   29.4970   45.3300 C   0  0  0  0  0  0  0  0  0  0  0  0
   56.5640   30.2860   44.8470 N   0  0  0  0  0  0  0  0  0  0  0  0
   56.6980   31.0660   43.6820 C   0  0  0  0  0  0  0  0  0  0  0  0
   57.9740   31.8690   43.7730 C   0  0  0  0  0  0  0  0  0  0  0  0
   58.0930   32.7200   44.9030 N   0  0  0  0  0  0  0  0  0  0  0  0
   56.8400   33.1770   45.4400 C   0  0  0  0  0  0  0  0  0  0  0  0
   58.8860   33.8750   44.5010 C   0  0  0  0  0  0  0  0  0  0  0  0
   57.4010   28.2070   45.0730 N   0  0  0  0  0  0  0  0  0  0  0  0
   58.3210   27.3140   45.5610 C   0  0  0  0  0  0  0  0  0  0  0  0
   58.4100   26.0020   45.3970 C   0  0  0  0  0  0  0  0  0  0  0  0
   59.4360   25.3090   45.9940 C   0  0  0  0  0  0  0  0  0  0  0  0
   60.3860   26.6150   46.8830 S   0  0  0  0  0  0  0  0  0  0  0  0
   59.3060   27.9430   46.3580 C   0  0  0  0  0  0  0  0  0  0  0  0
   62.3970   31.2310   49.5300 C   0  0  0  0  0  0  0  0  0  0  0  0
   63.6400   31.5250   50.0840 C   0  0  0  0  0  0  0  0  0  0  0  0
   65.7909   32.7665   51.0675 H   0  0  0  0  0  0  0  0  0  0  0  0
   66.5655   32.0432   49.6171 H   0  0  0  0  0  0  0  0  0  0  0  0
   66.1036   33.7791   49.6171 H   0  0  0  0  0  0  0  0  0  0  0  0
   64.7275   33.7101   47.7058 H   0  0  0  0  0  0  0  0  0  0  0  0
   62.5132   33.1535   46.7727 H   0  0  0  0  0  0  0  0  0  0  0  0
   58.4110   31.1030   46.2810 H   0  0  0  0  0  0  0  0  0  0  0  0
   56.7376   30.4090   42.8006 H   0  0  0  0  0  0  0  0  0  0  0  0
   55.8374   31.7445   43.5876 H   0  0  0  0  0  0  0  0  0  0  0  0
   58.8163   31.1618   43.7938 H   0  0  0  0  0  0  0  0  0  0  0  0
   57.9685   32.5358   42.8981 H   0  0  0  0  0  0  0  0  0  0  0  0
   56.8844   33.1608   46.5390 H   0  0  0  0  0  0  0  0  0  0  0  0
   56.6463   34.2037   45.0959 H   0  0  0  0  0  0  0  0  0  0  0  0
   56.0308   32.5161   45.0959 H   0  0  0  0  0  0  0  0  0  0  0  0
   59.2474   34.4014   45.3967 H   0  0  0  0  0  0  0  0  0  0  0  0
   59.7450   33.5393   43.9014 H   0  0  0  0  0  0  0  0  0  0  0  0
   58.2641   34.5560   43.9014 H   0  0  0  0  0  0  0  0  0  0  0  0
   56.6340   27.8470   44.4760 H   0  0  0  0  0  0  0  0  0  0  0  0
   57.6661   25.4699   44.7858 H   0  0  0  0  0  0  0  0  0  0  0  0
   59.6418   24.2293   45.9513 H   0  0  0  0  0  0  0  0  0  0  0  0
   61.7349   30.5233   50.0504 H   0  0  0  0  0  0  0  0  0  0  0  0
   63.9518   31.0555   51.0287 H   0  0  0  0  0  0  0  0  0  0  0  0
  1  2  1  0
  2  3  2  0
  3  4  1  0
  4  5  2  0
  5  6  1  0
  6  7  2  0
  6  8  2  0
  6  9  1  0
  9 10  2  0
 10 11  1  0
 11 12  1  0
 12 13  2  0
 13 14  1  0
 14 15  1  0
 15 16  1  0
 16 17  1  0
 16 18  1  0
 12 19  1  0
 19 20  1  0
 20 21  1  0
 21 22  2  0
 22 23  1  0
 23 24  1  0
  5 25  1  0
 25 26  2  0
 26  2  1  0
 24 10  1  0
 24 20  2  0
  1 27  1  0
  1 28  1  0
  1 29  1  0
  3 30  1  0
  4 31  1  0
 11 32  1  0
 14 33  1  0
 14 34  1  0
 15 35  1  0
 15 36  1  0
 17 37  1  0
 17 38  1  0
 17 39  1  0
 18 40  1  0
 18 41  1  0
 18 42  1  0
 19 43  1  0
 21 44  1  0
 22 45  1  0
 25 46  1  0
 26 47  1  0
M  END
>  <smiles>  (13) 
Cc1ccc(S(=O)(=O)N=c2[nH]c(=NCCN(C)C)[nH]c3ccsc23)cc1

>  <score_type>  (13) 
oracle

>  <origin>  (13) 
adg

>  <m_score__min__energy>  (13) 
-8.8000000000000007

>  <m_primary>  (13) 
energy

$$$$
13:0
     RDKit          3D

 57 60  0  0  0  0  0  0  0  0999 V2000
   58.9850   30.1990   48.5190 O   0  0  0  0  0  0  0  0  0  0  0  0
   59.9360   30.3000   47.7000 C   0  0  0  0  0  0  0  0  0  0  0  0
   60.6430   29.1260   47.2820 N   0  0  0  0  0  0  0  0  0  0  0  0
   60.1030   28.1470   46.3440 C   0  0  0  0  0  0  0  0  0  0  0  0
   58.6250   27.8940   46.5900 C   0  0  0  0  0  0  0  0  0  0  0  0
   58.0410   27.5160   45.2350 C   0  0  0  0  0  0  0  0  0  0  0  0
   59.0440   27.9780   44.1760 C   0  0  0  0  0  0  0  0  0  0  0  0
   60.1760   28.6720   44.9200 C   0  0  0  0  0  0  0  0  0  0  0  0
   60.3580   31.6430   47.1470 C   0  0  2  0  0  0  0  0  0  0  0  0
   61.7780   32.0510   47.5160 C   0  0  0  0  0  0  0  0  0  0  0  0
   62.4220   33.0510   46.7680 C   0  0  0  0  0  0  0  0  0  0  0  0
   63.7000   33.4790   47.1290 C   0  0  0  0  0  0  0  0  0  0  0  0
   64.3250   32.9350   48.2080 N   0  0  0  0  0  0  0  0  0  0  0  0
   63.7240   31.9770   48.9650 C   0  0  0  0  0  0  0  0  0  0  0  0
   62.4460   31.5220   48.6380 C   0  0  0  0  0  0  0  0  0  0  0  0
   59.3910   32.7170   47.4630 N   0  0  0  0  0  0  0  0  0  0  0  0
   57.9910   32.6450   47.0060 C   0  0  0  0  0  0  0  0  0  0  0  0
   57.9010   32.2650   45.5430 C   0  0  0  0  0  0  0  0  0  0  0  0
   57.3780   31.0080   45.1870 C   0  0  0  0  0  0  0  0  0  0  0  0
   57.2400   30.6520   43.8440 C   0  0  0  0  0  0  0  0  0  0  0  0
   57.6240   31.5450   42.8420 C   0  0  0  0  0  0  0  0  0  0  0  0
   58.1470   32.7950   43.1810 C   0  0  0  0  0  0  0  0  0  0  0  0
   58.2860   33.1630   44.5230 C   0  0  0  0  0  0  0  0  0  0  0  0
   58.9510   34.7500   44.8840 Cl  0  0  0  0  0  0  0  0  0  0  0  0
   59.6970   33.5440   48.6010 C   0  0  0  0  0  0  0  0  0  0  0  0
   60.2900   34.6450   48.4220 O   0  0  0  0  0  0  0  0  0  0  0  0
   59.2850   33.1370   49.9660 C   0  0  0  0  0  0  0  0  0  0  0  0
   58.1630   32.3160   50.1690 C   0  0  0  0  0  0  0  0  0  0  0  0
   57.7790   31.9580   51.4630 C   0  0  0  0  0  0  0  0  0  0  0  0
   58.5210   32.4260   52.5500 C   0  0  0  0  0  0  0  0  0  0  0  0
   59.6080   33.2160   52.3430 N   0  0  0  0  0  0  0  0  0  0  0  0
   60.0060   33.5720   51.0910 C   0  0  0  0  0  0  0  0  0  0  0  0
   60.6991   27.2336   46.4865 H   0  0  0  0  0  0  0  0  0  0  0  0
   58.4909   27.0718   47.3084 H   0  0  0  0  0  0  0  0  0  0  0  0
   58.1268   28.7779   47.0148 H   0  0  0  0  0  0  0  0  0  0  0  0
   57.9007   26.4267   45.1738 H   0  0  0  0  0  0  0  0  0  0  0  0
   57.0600   27.9897   45.0823 H   0  0  0  0  0  0  0  0  0  0  0  0
   59.4314   27.1130   43.6177 H   0  0  0  0  0  0  0  0  0  0  0  0
   58.5707   28.6577   43.4522 H   0  0  0  0  0  0  0  0  0  0  0  0
   61.1460   28.4207   44.4662 H   0  0  0  0  0  0  0  0  0  0  0  0
   60.0802   29.7672   44.8819 H   0  0  0  0  0  0  0  0  0  0  0  0
   60.3583   31.5023   46.0560 H   0  0  0  0  0  0  0  0  0  0  0  0
   61.9184   33.4966   45.8975 H   0  0  0  0  0  0  0  0  0  0  0  0
   64.2039   34.2589   46.5392 H   0  0  0  0  0  0  0  0  0  0  0  0
   65.2800   33.2680   48.4690 H   0  0  0  0  0  0  0  0  0  0  0  0
   64.2476   31.5598   49.8378 H   0  0  0  0  0  0  0  0  0  0  0  0
   61.9609   30.7515   49.2553 H   0  0  0  0  0  0  0  0  0  0  0  0
   57.4586   31.8908   47.6041 H   0  0  0  0  0  0  0  0  0  0  0  0
   57.5365   33.6387   47.1319 H   0  0  0  0  0  0  0  0  0  0  0  0
   57.0755   30.3004   45.9730 H   0  0  0  0  0  0  0  0  0  0  0  0
   56.8287   29.6678   43.5754 H   0  0  0  0  0  0  0  0  0  0  0  0
   57.5146   31.2639   41.7842 H   0  0  0  0  0  0  0  0  0  0  0  0
   58.4513   33.4939   42.3879 H   0  0  0  0  0  0  0  0  0  0  0  0
   57.5852   31.9541   49.3058 H   0  0  0  0  0  0  0  0  0  0  0  0
   56.9017   31.3144   51.6246 H   0  0  0  0  0  0  0  0  0  0  0  0
   58.2256   32.1551   53.5744 H   0  0  0  0  0  0  0  0  0  0  0  0
   60.8969   34.2036   50.9591 H   0  0  0  0  0  0  0  0  0  0  0  0
  1  2  2  0
  2  3  1  0
  3  4  1  0
  4  5  1  0
  5  6  1  0
  6  7  1  0
  7  8  1  0
  2  9  1  0
  9 10  1  0
 10 11  2  0
 11 12  1  0
 12 13  2  0
 13 14  1  0
 14 15  2  0
  9 16  1  0
 16 17  1  0
 17 18  1  0
 18 19  2  0
 19 20  1  0
 20 21  2  0
 21 22  1  0
 22 23  2  0
 23 24  1  0
 16 25  1  0
 25 26  2  0
 25 27  1  0
 27 28  2  0
 28 29  1  0
 29 30  2  0
 30 31  1  0
 31 32  2  0
  8  4  1  0
 15 10  1  0
 23 18  1  0
 32 27  1  0
  4 33  1  0
  5 34  1  0
  5 35  1  0
  6 36  1  0
  6 37  1  0
  7 38  1  0
  7 39  1  0
  8 40  1  0
  8 41  1  0
  9 42  1  6
 11 43  1  0
 12 44  1  0
 13 45  1  0
 14 46  1  0
 15 47  1  0
 17 48  1  0
 17 49  1  0
 19 50  1  0
 20 51  1  0
 21 52  1  0
 22 53  1  0
 28 54  1  0
 29 55  1  0
 30 56  1  0
 32 57  1  0
M  CHG  2   3  -1  13   1
M  END
>  <UniqueID>  (14) 
13

>  <SMILES>  (14) 
O=C([N-]C1CCCC1)[C@H](c1cc[nH+]cc1)N(Cc1ccccc1Cl)C(=O)c1cccnc1

>  <Energy>  (14) 
66.55553606165421

>  <Genealogy>  (14) 
O=C([N-]C1CCCC1)C(c1cc[nH+]cc1)N(Cc1ccccc1Cl)C(=O)c1cccnc1 (protonated)
O=C([N-]C1CCCC1)[C@H](c1cc[nH+]cc1)N(Cc1ccccc1Cl)C(=O)c1cccnc1 (chirality)
O=C([N-]C1CCCC1)[C@H](c1cc[nH+]cc1)N(Cc1ccccc1Cl)C(=O)c1cccnc1 (3D coordinates assigned)
O=C([N-]C1CCCC1)[C@H](c1cc[nH+]cc1)N(Cc1ccccc1Cl)C(=O)c1cccnc1 (nonaromatic ring conformer: 66.55553606165421 kcal/mol)

>  <smiles>  (14) 
O=C(NC1CCCC1)C(c1ccncc1)N(Cc1ccccc1Cl)C(=O)c1cccnc1

>  <score_type>  (14) 
oracle

>  <origin>  (14) 
adg

>  <m_score__min__energy>  (14) 
-8.9600000000000009

>  <m_primary>  (14) 
energy

$$$$
14:0
     RDKit          3D

 46 49  0  0  0  0  0  0  0  0999 V2000
   58.0080   32.3010   51.2680 C   0  0  0  0  0  0  0  0  0  0  0  0
   59.2750   32.6970   51.1210 C   0  0  0  0  0  0  0  0  0  0  0  0
   59.6460   33.8340   50.2090 C   0  0  0  0  0  0  0  0  0  0  0  0
   60.1190   33.3230   48.9050 N   0  0  0  0  0  0  0  0  0  0  0  0
   59.2220   32.9520   47.9310 C   0  0  0  0  0  0  0  0  0  0  0  0
   57.9830   33.0930   48.1190 O   0  0  0  0  0  0  0  0  0  0  0  0
   59.6880   32.4320   46.7020 C   0  0  0  0  0  0  0  0  0  0  0  0
   58.7700   32.0020   45.6180 C   0  0  0  0  0  0  0  0  0  0  0  0
   58.1840   30.7220   45.6230 C   0  0  0  0  0  0  0  0  0  0  0  0
   57.3390   30.3290   44.5820 C   0  0  0  0  0  0  0  0  0  0  0  0
   57.0780   31.2010   43.5220 C   0  0  0  0  0  0  0  0  0  0  0  0
   57.6700   32.4670   43.4990 C   0  0  0  0  0  0  0  0  0  0  0  0
   58.5160   32.8650   44.5370 C   0  0  0  0  0  0  0  0  0  0  0  0
   61.0270   32.3330   46.4930 N   0  0  0  0  0  0  0  0  0  0  0  0
   61.9180   32.6970   47.4450 C   0  0  0  0  0  0  0  0  0  0  0  0
   63.2900   32.5730   47.2310 C   0  0  0  0  0  0  0  0  0  0  0  0
   64.1650   32.9290   48.2090 N   0  0  0  0  0  0  0  0  0  0  0  0
   63.7190   33.4140   49.4080 C   0  0  0  0  0  0  0  0  0  0  0  0
   64.6430   33.7920   50.4500 N   0  0  0  0  0  0  0  0  0  0  0  0
   65.9960   33.2250   50.4980 C   0  0  0  0  0  0  0  0  0  0  0  0
   66.9480   34.1780   51.2290 C   0  0  0  0  0  0  0  0  0  0  0  0
   66.4130   34.5670   52.4770 O   0  0  0  0  0  0  0  0  0  0  0  0
   65.2460   35.3370   52.2720 C   0  0  0  0  0  0  0  0  0  0  0  0
   64.1380   34.4860   51.6430 C   0  0  0  0  0  0  0  0  0  0  0  0
   62.3810   33.5350   49.6230 N   0  0  0  0  0  0  0  0  0  0  0  0
   61.4660   33.1920   48.6750 C   0  0  0  0  0  0  0  0  0  0  0  0
   57.7675   31.4660   51.9425 H   0  0  0  0  0  0  0  0  0  0  0  0
   57.2050   32.8098   50.7146 H   0  0  0  0  0  0  0  0  0  0  0  0
   60.0672   32.1785   51.6810 H   0  0  0  0  0  0  0  0  0  0  0  0
   58.7639   34.4714   50.0489 H   0  0  0  0  0  0  0  0  0  0  0  0
   60.4552   34.4139   50.6769 H   0  0  0  0  0  0  0  0  0  0  0  0
   58.3924   30.0279   46.4505 H   0  0  0  0  0  0  0  0  0  0  0  0
   56.8780   29.3304   44.5970 H   0  0  0  0  0  0  0  0  0  0  0  0
   56.4075   30.8916   42.7067 H   0  0  0  0  0  0  0  0  0  0  0  0
   57.4693   33.1515   42.6616 H   0  0  0  0  0  0  0  0  0  0  0  0
   58.9862   33.8591   44.5087 H   0  0  0  0  0  0  0  0  0  0  0  0
   63.6645   32.1873   46.2713 H   0  0  0  0  0  0  0  0  0  0  0  0
   65.1830   32.7960   48.0280 H   0  0  0  0  0  0  0  0  0  0  0  0
   65.9672   32.2626   51.0299 H   0  0  0  0  0  0  0  0  0  0  0  0
   66.3581   33.0774   49.4699 H   0  0  0  0  0  0  0  0  0  0  0  0
   67.9102   33.6705   51.3922 H   0  0  0  0  0  0  0  0  0  0  0  0
   67.0874   35.0773   50.6111 H   0  0  0  0  0  0  0  0  0  0  0  0
   64.8964   35.7270   53.2393 H   0  0  0  0  0  0  0  0  0  0  0  0
   65.4851   36.1660   51.5896 H   0  0  0  0  0  0  0  0  0  0  0  0
   63.7913   33.7425   52.3758 H   0  0  0  0  0  0  0  0  0  0  0  0
   63.3056   35.1425   51.3496 H   0  0  0  0  0  0  0  0  0  0  0  0
  1  2  2  0
  2  3  1  0
  3  4  1  0
  4  5  1  0
  5  6  2  0
  5  7  1  0
  7  8  1  0
  8  9  2  0
  9 10  1  0
 10 11  2  0
 11 12  1  0
 12 13  2  0
  7 14  2  0
 14 15  1  0
 15 16  2  0
 16 17  1  0
 17 18  2  0
 18 19  1  0
 19 20  1  0
 20 21  1  0
 21 22  1  0
 22 23  1  0
 23 24  1  0
 18 25  1  0
 25 26  2  0
 26  4  1  0
 13  8  1  0
 26 15  1  0
 24 19  1  0
  1 27  1  0
  1 28  1  0
  2 29  1  0
  3 30  1  0
  3 31  1  0
  9 32  1  0
 10 33  1  0
 11 34  1  0
 12 35  1  0
 13 36  1  0
 16 37  1  0
 17 38  1  0
 20 39  1  0
 20 40  1  0
 21 41  1  0
 21 42  1  0
 23 43  1  0
 23 44  1  0
 24 45  1  0
 24 46  1  0
M  CHG  1  17   1
M  END
>  <UniqueID>  (15) 
14

>  <SMILES>  (15) 
C=CCn1c(=O)c(-c2ccccc2)nc2c[nH+]c(N3CCOCC3)nc21

>  <Energy>  (15) 
63.060719083386914

>  <Genealogy>  (15) 
C=CCn1c(=O)c(-c2ccccc2)nc2c[nH+]c(N3CCOCC3)nc21 (protonated)
C=CCn1c(=O)c(-c2ccccc2)nc2c[nH+]c(N3CCOCC3)nc21 (3D coordinates assigned)
C=CCn1c(=O)c(-c2ccccc2)nc2c[nH+]c(N3CCOCC3)nc21 (nonaromatic ring conformer: 63.060719083386914 kcal/mol)

>  <smiles>  (15) 
C=CCn1c(=O)c(-c2ccccc2)nc2cnc(N3CCOCC3)nc21

>  <score_type>  (15) 
oracle

>  <origin>  (15) 
adg

>  <m_score__min__energy>  (15) 
-5.8099999999999996

>  <m_primary>  (15) 
energy

$$$$
15:0
     RDKit          3D

 42 44  0  0  0  0  0  0  0  0999 V2000
   59.4150   33.8350   51.1570 C   0  0  0  0  0  0  0  0  0  0  0  0
   58.5670   32.6620   51.5710 C   0  0  0  0  0  0  0  0  0  0  0  0
   57.8760   32.7030   52.7950 C   0  0  0  0  0  0  0  0  0  0  0  0
   57.1300   31.6010   53.2260 C   0  0  0  0  0  0  0  0  0  0  0  0
   57.0700   30.4470   52.4430 C   0  0  0  0  0  0  0  0  0  0  0  0
   57.7470   30.3930   51.2230 C   0  0  0  0  0  0  0  0  0  0  0  0
   58.4800   31.5000   50.7690 C   0  0  0  0  0  0  0  0  0  0  0  0
   59.1580   31.4120   49.5080 N   0  0  0  0  0  0  0  0  0  0  0  0
   60.1200   30.3850   49.2320 C   0  0  0  0  0  0  0  0  0  0  0  0
   60.4400   29.5590   50.1310 O   0  0  0  0  0  0  0  0  0  0  0  0
   60.7890   30.3150   47.8890 C   0  0  0  0  0  0  0  0  0  0  0  0
   60.5660   31.5580   47.1300 N   0  0  0  0  0  0  0  0  0  0  0  0
   61.5930   32.5790   47.1210 C   0  0  0  0  0  0  0  0  0  0  0  0
   62.6860   32.3910   47.7210 O   0  0  0  0  0  0  0  0  0  0  0  0
   61.3830   33.8630   46.3780 C   0  0  0  0  0  0  0  0  0  0  0  0
   59.7190   34.4800   46.7530 S   0  0  0  0  0  0  0  0  0  0  0  0
   58.9260   33.0470   46.0180 C   0  0  0  0  0  0  0  0  0  0  0  0
   57.8630   33.2370   45.1300 C   0  0  0  0  0  0  0  0  0  0  0  0
   57.1950   32.1400   44.5860 C   0  0  0  0  0  0  0  0  0  0  0  0
   57.5860   30.8400   44.9260 C   0  0  0  0  0  0  0  0  0  0  0  0
   56.7470   29.4630   44.2180 S   0  0  0  0  0  0  0  0  0  0  0  0
   55.1420   29.3780   44.8540 N   0  0  0  0  0  0  0  0  0  0  0  0
   57.4870   28.1980   44.5530 O   0  0  0  0  0  0  0  0  0  0  0  0
   56.6830   29.6050   42.7220 O   0  0  0  0  0  0  0  0  0  0  0  0
   58.6680   30.6460   45.7950 C   0  0  0  0  0  0  0  0  0  0  0  0
   59.3640   31.7450   46.3390 C   0  0  0  0  0  0  0  0  0  0  0  0
   59.7886   34.3518   52.0533 H   0  0  0  0  0  0  0  0  0  0  0  0
   60.2659   33.4789   50.5576 H   0  0  0  0  0  0  0  0  0  0  0  0
   58.8101   34.5313   50.5576 H   0  0  0  0  0  0  0  0  0  0  0  0
   57.9224   33.6083   53.4181 H   0  0  0  0  0  0  0  0  0  0  0  0
   56.5899   31.6439   54.1833 H   0  0  0  0  0  0  0  0  0  0  0  0
   56.4886   29.5790   52.7875 H   0  0  0  0  0  0  0  0  0  0  0  0
   57.7055   29.4776   50.6145 H   0  0  0  0  0  0  0  0  0  0  0  0
   59.0740   32.2190   48.8490 H   0  0  0  0  0  0  0  0  0  0  0  0
   61.8698   30.1679   48.0313 H   0  0  0  0  0  0  0  0  0  0  0  0
   60.3602   29.4742   47.3240 H   0  0  0  0  0  0  0  0  0  0  0  0
   62.1331   34.6023   46.6955 H   0  0  0  0  0  0  0  0  0  0  0  0
   61.4870   33.6936   45.2961 H   0  0  0  0  0  0  0  0  0  0  0  0
   57.5519   34.2567   44.8590 H   0  0  0  0  0  0  0  0  0  0  0  0
   56.3592   32.2970   43.8883 H   0  0  0  0  0  0  0  0  0  0  0  0
   55.1540   28.6680   45.6210 H   0  0  0  0  0  0  0  0  0  0  0  0
   58.9783   29.6235   46.0561 H   0  0  0  0  0  0  0  0  0  0  0  0
  1  2  1  0
  2  3  2  0
  3  4  1  0
  4  5  2  0
  5  6  1  0
  6  7  2  0
  7  8  1  0
  8  9  1  0
  9 10  2  0
  9 11  1  0
 11 12  1  0
 12 13  1  0
 13 14  2  0
 13 15  1  0
 15 16  1  0
 16 17  1  0
 17 18  2  0
 18 19  1  0
 19 20  2  0
 20 21  1  0
 21 22  1  0
 21 23  2  0
 21 24  2  0
 20 25  1  0
 25 26  2  0
  7  2  1  0
 26 12  1  0
 26 17  1  0
  1 27  1  0
  1 28  1  0
  1 29  1  0
  3 30  1  0
  4 31  1  0
  5 32  1  0
  6 33  1  0
  8 34  1  0
 11 35  1  0
 11 36  1  0
 15 37  1  0
 15 38  1  0
 18 39  1  0
 19 40  1  0
 22 41  1  0
 25 42  1  0
M  CHG  1  22  -1
M  END
>  <UniqueID>  (16) 
15

>  <SMILES>  (16) 
Cc1ccccc1NC(=O)CN1C(=O)CSc2ccc(S([NH-])(=O)=O)cc21

>  <Energy>  (16) 
53.09914152205073

>  <Genealogy>  (16) 
Cc1ccccc1NC(=O)CN1C(=O)CSc2ccc(S([NH-])(=O)=O)cc21 (protonated)
Cc1ccccc1NC(=O)CN1C(=O)CSc2ccc(S([NH-])(=O)=O)cc21 (3D coordinates assigned)
Cc1ccccc1NC(=O)CN1C(=O)CSc2ccc(S([NH-])(=O)=O)cc21 (nonaromatic ring conformer: 53.09914152205073 kcal/mol)

>  <smiles>  (16) 
Cc1ccccc1NC(=O)CN1C(=O)CSc2ccc(S(N)(=O)=O)cc21

>  <score_type>  (16) 
oracle

>  <origin>  (16) 
adg

>  <m_score__min__energy>  (16) 
-10.869999999999999

>  <m_primary>  (16) 
energy

$$$$
16:0
     RDKit          3D

 26 27  0  0  0  0  0  0  0  0999 V2000
   54.7320   27.0240   46.7720 H   0  0  0  0  0  0  0  0  0  0  0  0
   55.3470   26.7140   45.9880 N   0  0  0  0  0  0  0  0  0  0  0  0
   56.5680   27.1170   45.8180 C   0  0  0  0  0  0  0  0  0  0  0  0
   57.5780   26.3420   46.2920 N   0  0  0  0  0  0  0  0  0  0  0  0
   58.8830   26.6880   46.1600 C   0  0  0  0  0  0  0  0  0  0  0  0
   59.6650   26.0290   46.5651 H   0  0  0  0  0  0  0  0  0  0  0  0
   59.2440   27.8760   45.5130 C   0  0  0  0  0  0  0  0  0  0  0  0
   60.6860   28.1910   45.3810 C   0  0  0  0  0  0  0  0  0  0  0  0
   61.4002   27.7210   46.0731 H   0  0  0  0  0  0  0  0  0  0  0  0
   61.1180   28.9800   44.5010 O   0  0  0  0  0  0  0  0  0  0  0  0
   58.2190   28.7050   45.0030 C   0  0  0  0  0  0  0  0  0  0  0  0
   58.5370   29.9450   44.3540 N   0  0  0  0  0  0  0  0  0  0  0  0
   58.9930   29.8960   43.4150 H   0  0  0  0  0  0  0  0  0  0  0  0
   58.2130   31.2340   44.9100 C   0  0  0  0  0  0  0  0  0  0  0  0
   57.7470   32.2890   44.1020 C   0  0  0  0  0  0  0  0  0  0  0  0
   57.6200   32.1350   43.0203 H   0  0  0  0  0  0  0  0  0  0  0  0
   57.4450   33.5310   44.6680 C   0  0  0  0  0  0  0  0  0  0  0  0
   57.0767   34.3492   44.0317 H   0  0  0  0  0  0  0  0  0  0  0  0
   57.6100   33.7350   46.0400 C   0  0  0  0  0  0  0  0  0  0  0  0
   57.3710   34.7129   46.4833 H   0  0  0  0  0  0  0  0  0  0  0  0
   58.0790   32.6960   46.8500 C   0  0  0  0  0  0  0  0  0  0  0  0
   58.2410   32.8950   48.1810 F   0  0  0  0  0  0  0  0  0  0  0  0
   58.3820   31.4520   46.2870 C   0  0  0  0  0  0  0  0  0  0  0  0
   58.7552   30.6390   46.9271 H   0  0  0  0  0  0  0  0  0  0  0  0
   56.8700   28.3290   45.1620 C   0  0  0  0  0  0  0  0  0  0  0  0
   55.5910   29.3950   44.5690 Cl  0  0  0  0  0  0  0  0  0  0  0  0
  1  2  1  0
  2  3  2  0
  3  4  1  0
  4  5  1  0
  5  6  1  0
  5  7  2  0
  7  8  1  0
  8  9  1  0
  8 10  2  0
  7 11  1  0
 11 12  1  0
 12 13  1  0
 12 14  1  0
 14 15  2  0
 15 16  1  0
 15 17  1  0
 17 18  1  0
 17 19  2  0
 19 20  1  0
 19 21  1  0
 21 22  1  0
 21 23  2  0
 23 24  1  0
 11 25  2  0
 25 26  1  0
 25  3  1  0
 23 14  1  0
M  CHG  1   4  -1
M  END
>  <UniqueID>  (17) 
16

>  <SMILES>  (17) 
[H]/N=c1/[n-]cc(C=O)c(Nc2cccc(F)c2)c1Cl

>  <Energy>  (17) 
39.517870611964014

>  <Genealogy>  (17) 
N=c1[n-]cc(C=O)c(Nc2cccc(F)c2)c1Cl (protonated)
[H]/N=c1/[n-]cc(C=O)c(Nc2cccc(F)c2)c1Cl (cis-trans isomerization)
[H]/N=c1/[n-]cc(C=O)c(Nc2cccc(F)c2)c1Cl (3D coordinates assigned)
[H]/N=c1/[n-]cc(C=O)c(Nc2cccc(F)c2)c1Cl (optimized conformer: 39.517870611964014 kcal/mol)

>  <smiles>  (17) 
N=c1[nH]cc(C=O)c(Nc2cccc(F)c2)c1Cl

>  <score_type>  (17) 
oracle

>  <origin>  (17) 
adg

>  <m_score__min__energy>  (17) 
-8.5

>  <m_primary>  (17) 
energy

$$$$
17:0
     RDKit          3D

 49 50  0  0  0  0  0  0  0  0999 V2000
   62.6010   34.1880   48.5768 H   0  0  0  0  0  0  0  0  0  0  0  0
   61.7670   33.6310   48.1250 C   0  0  0  0  0  0  0  0  0  0  0  0
   61.7100   32.2350   48.2560 C   0  0  0  0  0  0  0  0  0  0  0  0
   62.7030   31.5210   48.9480 O   0  0  0  0  0  0  0  0  0  0  0  0
   64.0180   32.0030   49.2110 C   0  0  0  0  0  0  0  0  0  0  0  0
   64.1766   32.0611   50.2979 H   0  0  0  0  0  0  0  0  0  0  0  0
   64.7553   31.3167   48.7690 H   0  0  0  0  0  0  0  0  0  0  0  0
   64.1371   33.0032   48.7690 H   0  0  0  0  0  0  0  0  0  0  0  0
   60.6380   31.5210   47.6840 C   0  0  0  0  0  0  0  0  0  0  0  0
   60.6590   29.7670   47.9150 Cl  0  0  0  0  0  0  0  0  0  0  0  0
   59.6150   32.2110   46.9600 C   0  0  0  0  0  0  0  0  0  0  0  0
   58.5090   31.5690   46.3200 C   0  0  0  0  0  0  0  0  0  0  0  0
   58.3640   30.2750   46.4040 N   0  0  0  0  0  0  0  0  0  0  0  0
   57.7610   29.3830   45.4530 C   0  0  0  0  0  0  0  0  0  0  0  0
   56.5200   29.1590   45.4870 O   0  0  0  0  0  0  0  0  0  0  0  0
   58.6210   28.7560   44.3830 C   0  0  1  0  0  0  0  0  0  0  0  0
   59.0512   29.5710   43.7824 H   0  0  0  0  0  0  0  0  0  0  0  0
   59.8130   27.9790   44.9920 C   0  0  0  0  0  0  0  0  0  0  0  0
   60.3106   27.4300   44.1790 H   0  0  0  0  0  0  0  0  0  0  0  0
   60.4521   28.7343   45.4728 H   0  0  0  0  0  0  0  0  0  0  0  0
   59.4490   26.9640   46.0990 C   0  0  0  0  0  0  0  0  0  0  0  0
   60.3681   26.6794   46.6322 H   0  0  0  0  0  0  0  0  0  0  0  0
   58.7243   27.4482   46.7701 H   0  0  0  0  0  0  0  0  0  0  0  0
   58.7900   25.6930   45.5410 C   0  0  0  0  0  0  0  0  0  0  0  0
   59.3893   25.3140   44.7000 H   0  0  0  0  0  0  0  0  0  0  0  0
   58.7383   24.9391   46.3404 H   0  0  0  0  0  0  0  0  0  0  0  0
   57.4330   25.9810   45.0740 N   0  0  0  0  0  0  0  0  0  0  0  0
   56.3190   25.6260   45.6480 C   0  0  0  0  0  0  0  0  0  0  0  0
   55.8680   24.2650   45.6550 N   0  0  0  0  0  0  0  0  0  0  0  0
   56.3660   23.5010   45.1480 H   0  0  0  0  0  0  0  0  0  0  0  0
   54.9800   24.0170   46.1450 H   0  0  0  0  0  0  0  0  0  0  0  0
   55.5240   26.6260   46.2860 N   0  0  0  0  0  0  0  0  0  0  0  0
   54.6240   26.3710   46.7520 H   0  0  0  0  0  0  0  0  0  0  0  0
   55.8360   27.6220   46.3010 H   0  0  0  0  0  0  0  0  0  0  0  0
   57.8240   27.9310   43.4650 N   0  0  0  0  0  0  0  0  0  0  0  0
   56.8600   27.7690   43.8350 H   0  0  0  0  0  0  0  0  0  0  0  0
   58.3000   27.0130   43.3090 H   0  0  0  0  0  0  0  0  0  0  0  0
   57.7520   28.4140   42.5390 H   0  0  0  0  0  0  0  0  0  0  0  0
   57.5580   32.3630   45.6420 C   0  0  0  0  0  0  0  0  0  0  0  0
   56.6880   31.8864   45.1666 H   0  0  0  0  0  0  0  0  0  0  0  0
   57.7140   33.7460   45.5710 C   0  0  0  0  0  0  0  0  0  0  0  0
   56.6890   34.5910   44.8810 C   0  0  0  0  0  0  0  0  0  0  0  0
   56.0691   35.1021   45.6323 H   0  0  0  0  0  0  0  0  0  0  0  0
   57.1937   35.3390   44.2518 H   0  0  0  0  0  0  0  0  0  0  0  0
   56.0510   33.9529   44.2518 H   0  0  0  0  0  0  0  0  0  0  0  0
   58.7750   34.3350   46.1710 N   0  0  0  0  0  0  0  0  0  0  0  0
   59.7140   33.6250   46.8470 C   0  0  0  0  0  0  0  0  0  0  0  0
   60.7780   34.3150   47.4290 C   0  0  0  0  0  0  0  0  0  0  0  0
   60.8343   35.4096   47.3360 H   0  0  0  0  0  0  0  0  0  0  0  0
  1  2  1  0
  2  3  2  0
  3  4  1  0
  4  5  1  0
  5  6  1  0
  5  7  1  0
  5  8  1  0
  3  9  1  0
  9 10  1  0
  9 11  2  0
 11 12  1  0
 12 13  2  0
 13 14  1  0
 14 15  2  0
 14 16  1  0
 16 17  1  6
 16 18  1  0
 18 19  1  0
 18 20  1  0
 18 21  1  0
 21 22  1  0
 21 23  1  0
 21 24  1  0
 24 25  1  0
 24 26  1  0
 24 27  1  0
 27 28  2  3
 28 29  1  0
 29 30  1  0
 29 31  1  0
 28 32  1  0
 32 33  1  0
 32 34  1  0
 16 35  1  0
 35 36  1  0
 35 37  1  0
 35 38  1  0
 12 39  1  0
 39 40  1  0
 39 41  2  0
 41 42  1  0
 42 43  1  0
 42 44  1  0
 42 45  1  0
 41 46  1  0
 46 47  1  0
 47 48  2  0
 48 49  1  0
 48  2  1  0
 47 11  1  0
M  CHG  2  35   1  46  -1
M  END
>  <UniqueID>  (18) 
17

>  <SMILES>  (18) 
COc1ccc2[n-]c(C)c/c(=N\C(=O)[C@H]([NH3+])CCCN=C(N)N)c2c1Cl

>  <Energy>  (18) 
61.79851221781287

>  <Genealogy>  (18) 
COc1ccc2[n-]c(C)cc(=NC(=O)C([NH3+])CCCN=C(N)N)c2c1Cl (protonated)
COc1ccc2[n-]c(C)cc(=NC(=O)[C@H]([NH3+])CCCN=C(N)N)c2c1Cl (chirality)
COc1ccc2[n-]c(C)c/c(=N\C(=O)[C@H]([NH3+])CCCN=C(N)N)c2c1Cl (cis-trans isomerization)
COc1ccc2[n-]c(C)c/c(=N\C(=O)[C@H]([NH3+])CCCN=C(N)N)c2c1Cl (3D coordinates assigned)
COc1ccc2[n-]c(C)c/c(=N\C(=O)[C@H]([NH3+])CCCN=C(N)N)c2c1Cl (optimized conformer: 61.79851221781287 kcal/mol)

>  <smiles>  (18) 
COc1ccc2[nH]c(C)cc(=NC(=O)C(N)CCCN=C(N)N)c2c1Cl

>  <score_type>  (18) 
oracle

>  <origin>  (18) 
adg

>  <m_score__min__energy>  (18) 
-6.9199999999999999

>  <m_primary>  (18) 
energy

$$$$
18:0
     RDKit          3D

 46 48  0  0  0  0  0  0  0  0999 V2000
   63.3790   33.8430   46.1470 C   0  0  0  0  0  0  0  0  0  0  0  0
   61.9880   33.7430   46.4370 O   0  0  0  0  0  0  0  0  0  0  0  0
   61.4490   33.6260   47.7290 C   0  0  0  0  0  0  0  0  0  0  0  0
   62.1350   32.9560   48.7620 C   0  0  0  0  0  0  0  0  0  0  0  0
   61.5780   32.8690   50.0400 C   0  0  0  0  0  0  0  0  0  0  0  0
   60.3380   33.4490   50.3050 C   0  0  0  0  0  0  0  0  0  0  0  0
   59.6460   34.1150   49.2920 C   0  0  0  0  0  0  0  0  0  0  0  0
   60.1880   34.2000   47.9980 C   0  0  0  0  0  0  0  0  0  0  0  0
   59.4420   34.9530   46.9260 C   0  0  0  0  0  0  0  0  0  0  0  0
   58.6250   34.0040   46.1030 C   0  0  0  0  0  0  0  0  0  0  0  0
   57.3900   34.2130   45.9590 O   0  0  0  0  0  0  0  0  0  0  0  0
   59.2520   32.8740   45.4790 N   0  0  0  0  0  0  0  0  0  0  0  0
   58.5210   31.8070   44.8560 C   0  0  0  0  0  0  0  0  0  0  0  0
   57.8140   32.0330   43.6620 C   0  0  0  0  0  0  0  0  0  0  0  0
   57.0380   31.0190   43.0940 C   0  0  0  0  0  0  0  0  0  0  0  0
   56.9510   29.7740   43.7180 C   0  0  0  0  0  0  0  0  0  0  0  0
   57.6380   29.5390   44.9090 C   0  0  0  0  0  0  0  0  0  0  0  0
   58.4270   30.5450   45.4850 C   0  0  0  0  0  0  0  0  0  0  0  0
   59.1550   30.2590   46.6900 N   0  0  0  0  0  0  0  0  0  0  0  0
   60.3030   29.3500   46.6720 C   0  0  0  0  0  0  0  0  0  0  0  0
   60.3460   28.5640   47.9860 C   0  0  0  0  0  0  0  0  0  0  0  0
   60.2990   29.4410   49.0970 O   0  0  0  0  0  0  0  0  0  0  0  0
   59.0520   30.1120   49.1280 C   0  0  0  0  0  0  0  0  0  0  0  0
   58.8920   31.0250   47.9070 C   0  0  0  0  0  0  0  0  0  0  0  0
   63.9477   33.8839   47.0877 H   0  0  0  0  0  0  0  0  0  0  0  0
   63.6962   32.9653   45.5647 H   0  0  0  0  0  0  0  0  0  0  0  0
   63.5674   34.7570   45.5647 H   0  0  0  0  0  0  0  0  0  0  0  0
   63.1150   32.4988   48.5605 H   0  0  0  0  0  0  0  0  0  0  0  0
   62.1190   32.3416   50.8395 H   0  0  0  0  0  0  0  0  0  0  0  0
   59.9045   33.3817   51.3137 H   0  0  0  0  0  0  0  0  0  0  0  0
   58.6708   34.5760   49.5077 H   0  0  0  0  0  0  0  0  0  0  0  0
   58.7768   35.6920   47.3965 H   0  0  0  0  0  0  0  0  0  0  0  0
   60.1665   35.4628   46.2740 H   0  0  0  0  0  0  0  0  0  0  0  0
   60.2960   32.8450   45.4490 H   0  0  0  0  0  0  0  0  0  0  0  0
   57.8721   33.0156   43.1710 H   0  0  0  0  0  0  0  0  0  0  0  0
   56.4956   31.2024   42.1547 H   0  0  0  0  0  0  0  0  0  0  0  0
   56.3398   28.9767   43.2700 H   0  0  0  0  0  0  0  0  0  0  0  0
   57.5603   28.5576   45.3998 H   0  0  0  0  0  0  0  0  0  0  0  0
   60.2051   28.6508   45.8285 H   0  0  0  0  0  0  0  0  0  0  0  0
   61.2308   29.9299   46.5586 H   0  0  0  0  0  0  0  0  0  0  0  0
   59.4834   27.8827   48.0273 H   0  0  0  0  0  0  0  0  0  0  0  0
   61.2858   27.9937   48.0258 H   0  0  0  0  0  0  0  0  0  0  0  0
   58.2423   29.3675   49.1296 H   0  0  0  0  0  0  0  0  0  0  0  0
   59.0076   30.7297   50.0371 H   0  0  0  0  0  0  0  0  0  0  0  0
   57.8662   31.4211   47.8768 H   0  0  0  0  0  0  0  0  0  0  0  0
   59.6047   31.8600   47.9767 H   0  0  0  0  0  0  0  0  0  0  0  0
  1  2  1  0
  2  3  1  0
  3  4  2  0
  4  5  1  0
  5  6  2  0
  6  7  1  0
  7  8  2  0
  8  9  1  0
  9 10  1  0
 10 11  2  0
 10 12  1  0
 12 13  1  0
 13 14  2  0
 14 15  1  0
 15 16  2  0
 16 17  1  0
 17 18  2  0
 18 19  1  0
 19 20  1  0
 20 21  1  0
 21 22  1  0
 22 23  1  0
 23 24  1  0
  8  3  1  0
 18 13  1  0
 24 19  1  0
  1 25  1  0
  1 26  1  0
  1 27  1  0
  4 28  1  0
  5 29  1  0
  6 30  1  0
  7 31  1  0
  9 32  1  0
  9 33  1  0
 12 34  1  0
 14 35  1  0
 15 36  1  0
 16 37  1  0
 17 38  1  0
 20 39  1  0
 20 40  1  0
 21 41  1  0
 21 42  1  0
 23 43  1  0
 23 44  1  0
 24 45  1  0
 24 46  1  0
M  END
>  <UniqueID>  (19) 
18

>  <SMILES>  (19) 
COc1ccccc1CC(=O)Nc1ccccc1N1CCOCC1

>  <Energy>  (19) 
54.68268025848295

>  <Genealogy>  (19) 
COc1ccccc1CC(=O)Nc1ccccc1N1CCOCC1 (3D coordinates assigned)
COc1ccccc1CC(=O)Nc1ccccc1N1CCOCC1 (nonaromatic ring conformer: 54.68268025848295 kcal/mol)

>  <smiles>  (19) 
COc1ccccc1CC(=O)Nc1ccccc1N1CCOCC1

>  <score_type>  (19) 
oracle

>  <origin>  (19) 
adg

>  <m_score__min__energy>  (19) 
-6.5499999999999998

>  <m_primary>  (19) 
energy

$$$$
19:0
     RDKit          3D

 26 27  0  0  0  0  0  0  0  0999 V2000
   57.6950   31.9960   42.2210 C   0  0  0  0  0  0  0  0  0  0  0  0
   57.8460   32.0100   43.7190 C   0  0  0  0  0  0  0  0  0  0  0  0
   57.7570   33.2370   44.4000 C   0  0  0  0  0  0  0  0  0  0  0  0
   57.8940   33.2930   45.7880 C   0  0  0  0  0  0  0  0  0  0  0  0
   58.1230   32.1270   46.5150 C   0  0  0  0  0  0  0  0  0  0  0  0
   58.2120   30.8990   45.8590 C   0  0  0  0  0  0  0  0  0  0  0  0
   58.0680   30.8170   44.4600 C   0  0  0  0  0  0  0  0  0  0  0  0
   58.1900   29.5280   43.8130 N   0  0  0  0  0  0  0  0  0  0  0  0
   57.9160   28.4720   44.7540 C   0  0  0  0  0  0  0  0  0  0  0  0
   58.9570   27.8190   45.4300 C   0  0  0  0  0  0  0  0  0  0  0  0
   58.6380   26.7900   46.3160 C   0  0  0  0  0  0  0  0  0  0  0  0
   59.5500   26.1900   46.9440 O   0  0  0  0  0  0  0  0  0  0  0  0
   57.3410   26.4330   46.5020 N   0  0  0  0  0  0  0  0  0  0  0  0
   56.3420   27.0640   45.8330 C   0  0  0  0  0  0  0  0  0  0  0  0
   55.1470   26.7160   46.0150 O   0  0  0  0  0  0  0  0  0  0  0  0
   56.6310   28.0690   44.9660 N   0  0  0  0  0  0  0  0  0  0  0  0
   56.6308   31.8973   41.9607 H   0  0  0  0  0  0  0  0  0  0  0  0
   58.0890   32.9345   41.8040 H   0  0  0  0  0  0  0  0  0  0  0  0
   58.2548   31.1459   41.8040 H   0  0  0  0  0  0  0  0  0  0  0  0
   57.5775   34.1624   43.8330 H   0  0  0  0  0  0  0  0  0  0  0  0
   57.8210   34.2593   46.3085 H   0  0  0  0  0  0  0  0  0  0  0  0
   58.2339   32.1746   47.6084 H   0  0  0  0  0  0  0  0  0  0  0  0
   58.3968   29.9840   46.4410 H   0  0  0  0  0  0  0  0  0  0  0  0
   57.5020   29.4530   43.0290 H   0  0  0  0  0  0  0  0  0  0  0  0
   59.1370   29.4210   43.3830 H   0  0  0  0  0  0  0  0  0  0  0  0
   60.0042   28.1125   45.2648 H   0  0  0  0  0  0  0  0  0  0  0  0
  1  2  1  0
  2  3  2  0
  3  4  1  0
  4  5  2  0
  5  6  1  0
  6  7  2  0
  7  8  1  0
  8  9  1  0
  9 10  2  0
 10 11  1  0
 11 12  2  0
 11 13  1  0
 13 14  1  0
 14 15  2  0
 14 16  1  0
  7  2  1  0
 16  9  1  0
  1 17  1  0
  1 18  1  0
  1 19  1  0
  3 20  1  0
  4 21  1  0
  5 22  1  0
  6 23  1  0
  8 24  1  0
  8 25  1  0
 10 26  1  0
M  CHG  3   8   1  13  -1  16  -1
M  END
>  <UniqueID>  (20) 
19

>  <SMILES>  (20) 
Cc1ccccc1[NH2+]c1cc(=O)[n-]c(=O)[n-]1

>  <Energy>  (20) 
31.09590852229352

>  <Genealogy>  (20) 
Cc1ccccc1[NH2+]c1cc(=O)[n-]c(=O)[n-]1 (protonated)
Cc1ccccc1[NH2+]c1cc(=O)[n-]c(=O)[n-]1 (3D coordinates assigned)
Cc1ccccc1[NH2+]c1cc(=O)[n-]c(=O)[n-]1 (optimized conformer: 31.09590852229352 kcal/mol)

>  <smiles>  (20) 
Cc1ccccc1Nc1cc(=O)[nH]c(=O)[nH]1

>  <score_type>  (20) 
oracle

>  <origin>  (20) 
adg

>  <m_score__min__energy>  (20) 
-10

>  <m_primary>  (20) 
energy

$$$$
20:0
     RDKit          3D

 39 39  0  0  0  0  0  0  0  0999 V2000
   63.4910   33.1900   47.0890 C   0  0  0  0  0  0  0  0  0  0  0  0
   62.0840   33.7740   47.0420 C   0  0  0  0  0  0  0  0  0  0  0  0
   61.6680   34.1600   48.3400 O   0  0  0  0  0  0  0  0  0  0  0  0
   60.2610   34.3140   48.4070 C   0  0  0  0  0  0  0  0  0  0  0  0
   59.7030   34.8590   47.0860 C   0  0  0  0  0  0  0  0  0  0  0  0
   58.3710   34.1970   46.7160 C   0  0  0  0  0  0  0  0  0  0  0  0
   58.5900   32.8220   46.2800 N   0  0  0  0  0  0  0  0  0  0  0  0
   57.7220   32.1280   45.3760 C   0  0  0  0  0  0  0  0  0  0  0  0
   57.0440   32.7700   44.5280 O   0  0  0  0  0  0  0  0  0  0  0  0
   57.6140   30.6640   45.4490 C   0  0  0  0  0  0  0  0  0  0  0  0
   56.6540   30.0890   44.8670 O   0  0  0  0  0  0  0  0  0  0  0  0
   58.5660   29.8990   46.2100 N   0  0  0  0  0  0  0  0  0  0  0  0
   58.6830   28.4670   46.1410 C   0  0  0  0  0  0  0  0  0  0  0  0
   59.9380   27.8350   46.0920 C   0  0  0  0  0  0  0  0  0  0  0  0
   60.0240   26.4410   46.0560 C   0  0  0  0  0  0  0  0  0  0  0  0
   58.8620   25.6640   46.0790 C   0  0  0  0  0  0  0  0  0  0  0  0
   57.6060   26.2810   46.1420 C   0  0  0  0  0  0  0  0  0  0  0  0
   56.1410   25.3070   46.1990 S   0  0  0  0  0  0  0  0  0  0  0  0
   54.7620   26.3250   45.9800 N   0  0  0  0  0  0  0  0  0  0  0  0
   56.0410   24.6110   47.5280 O   0  0  0  0  0  0  0  0  0  0  0  0
   56.1780   24.2690   45.1130 O   0  0  0  0  0  0  0  0  0  0  0  0
   57.5210   27.6800   46.1870 C   0  0  0  0  0  0  0  0  0  0  0  0
   63.8000   33.0618   48.1369 H   0  0  0  0  0  0  0  0  0  0  0  0
   63.5000   32.2138   46.5820 H   0  0  0  0  0  0  0  0  0  0  0  0
   64.1886   33.8729   46.5820 H   0  0  0  0  0  0  0  0  0  0  0  0
   62.0784   34.6543   46.3824 H   0  0  0  0  0  0  0  0  0  0  0  0
   61.3923   33.0102   46.6571 H   0  0  0  0  0  0  0  0  0  0  0  0
   59.8018   33.3363   48.6151 H   0  0  0  0  0  0  0  0  0  0  0  0
   60.0250   35.0296   49.2084 H   0  0  0  0  0  0  0  0  0  0  0  0
   59.5464   35.9432   47.1857 H   0  0  0  0  0  0  0  0  0  0  0  0
   60.4288   34.6365   46.2899 H   0  0  0  0  0  0  0  0  0  0  0  0
   57.7096   34.1975   47.5949 H   0  0  0  0  0  0  0  0  0  0  0  0
   57.9078   34.7624   45.8939 H   0  0  0  0  0  0  0  0  0  0  0  0
   59.1450   30.4010   46.9200 H   0  0  0  0  0  0  0  0  0  0  0  0
   60.8561   28.4407   46.0820 H   0  0  0  0  0  0  0  0  0  0  0  0
   61.0089   25.9534   46.0094 H   0  0  0  0  0  0  0  0  0  0  0  0
   58.9341   24.5668   46.0476 H   0  0  0  0  0  0  0  0  0  0  0  0
   54.8330   27.0910   46.6860 H   0  0  0  0  0  0  0  0  0  0  0  0
   56.5362   28.1648   46.2589 H   0  0  0  0  0  0  0  0  0  0  0  0
  1  2  1  0
  2  3  1  0
  3  4  1  0
  4  5  1  0
  5  6  1  0
  6  7  1  0
  7  8  1  0
  8  9  2  0
  8 10  1  0
 10 11  2  0
 10 12  1  0
 12 13  1  0
 13 14  2  0
 14 15  1  0
 15 16  2  0
 16 17  1  0
 17 18  1  0
 18 19  1  0
 18 20  2  0
 18 21  2  0
 17 22  2  0
 22 13  1  0
  1 23  1  0
  1 24  1  0
  1 25  1  0
  2 26  1  0
  2 27  1  0
  4 28  1  0
  4 29  1  0
  5 30  1  0
  5 31  1  0
  6 32  1  0
  6 33  1  0
 12 34  1  0
 14 35  1  0
 15 36  1  0
 16 37  1  0
 19 38  1  0
 22 39  1  0
M  CHG  2   7  -1  19  -1
M  END
>  <UniqueID>  (21) 
20

>  <SMILES>  (21) 
CCOCCC[N-]C(=O)C(=O)Nc1cccc(S([NH-])(=O)=O)c1

>  <Energy>  (21) 
33.9733312148481

>  <Genealogy>  (21) 
CCOCCC[N-]C(=O)C(=O)Nc1cccc(S([NH-])(=O)=O)c1 (protonated)
CCOCCC[N-]C(=O)C(=O)Nc1cccc(S([NH-])(=O)=O)c1 (3D coordinates assigned)
CCOCCC[N-]C(=O)C(=O)Nc1cccc(S([NH-])(=O)=O)c1 (optimized conformer: 33.9733312148481 kcal/mol)

>  <smiles>  (21) 
CCOCCCNC(=O)C(=O)Nc1cccc(S(N)(=O)=O)c1

>  <score_type>  (21) 
oracle

>  <origin>  (21) 
adg

>  <m_score__min__energy>  (21) 
-11.4

>  <m_primary>  (21) 
energy

$$$$
21:0
     RDKit          3D

 31 32  0  0  0  0  0  0  0  0999 V2000
   60.0080   32.3170   50.2450 C   0  0  0  0  0  0  0  0  0  0  0  0
   58.9540   32.3640   49.2880 O   0  0  0  0  0  0  0  0  0  0  0  0
   59.0880   32.8660   47.9850 C   0  0  0  0  0  0  0  0  0  0  0  0
   58.7550   32.1040   46.8480 C   0  0  0  0  0  0  0  0  0  0  0  0
   58.8960   32.6460   45.5580 C   0  0  0  0  0  0  0  0  0  0  0  0
   58.5090   31.8300   44.3520 C   0  0  0  0  0  0  0  0  0  0  0  0
   57.2740   31.0100   44.6240 C   0  0  0  0  0  0  0  0  0  0  0  0
   56.1450   31.5490   44.4650 O   0  0  0  0  0  0  0  0  0  0  0  0
   57.3390   29.5790   45.0110 C   0  0  0  0  0  0  0  0  0  0  0  0
   58.6000   28.9730   45.1520 C   0  0  0  0  0  0  0  0  0  0  0  0
   58.7070   27.6380   45.5470 C   0  0  0  0  0  0  0  0  0  0  0  0
   57.5560   26.8870   45.7990 C   0  0  0  0  0  0  0  0  0  0  0  0
   57.6710   25.5610   46.1980 O   0  0  0  0  0  0  0  0  0  0  0  0
   56.2940   27.4710   45.6450 C   0  0  0  0  0  0  0  0  0  0  0  0
   55.1500   26.7170   45.8850 O   0  0  0  0  0  0  0  0  0  0  0  0
   56.1800   28.8090   45.2440 C   0  0  0  0  0  0  0  0  0  0  0  0
   54.9120   29.3480   45.0530 O   0  0  0  0  0  0  0  0  0  0  0  0
   59.3790   33.9540   45.4110 C   0  0  0  0  0  0  0  0  0  0  0  0
   59.7130   34.7130   46.5350 C   0  0  0  0  0  0  0  0  0  0  0  0
   59.5680   34.1730   47.8160 C   0  0  0  0  0  0  0  0  0  0  0  0
   59.9010   34.9400   48.9260 O   0  0  0  0  0  0  0  0  0  0  0  0
   59.5832   32.3359   51.2595 H   0  0  0  0  0  0  0  0  0  0  0  0
   60.5873   31.3921   50.1073 H   0  0  0  0  0  0  0  0  0  0  0  0
   60.6674   33.1866   50.1073 H   0  0  0  0  0  0  0  0  0  0  0  0
   58.3816   31.0766   46.9702 H   0  0  0  0  0  0  0  0  0  0  0  0
   58.3115   32.5076   43.5083 H   0  0  0  0  0  0  0  0  0  0  0  0
   59.3366   31.1458   44.1134 H   0  0  0  0  0  0  0  0  0  0  0  0
   59.5105   29.5560   44.9493 H   0  0  0  0  0  0  0  0  0  0  0  0
   59.6992   27.1767   45.6600 H   0  0  0  0  0  0  0  0  0  0  0  0
   59.4955   34.3846   44.4055 H   0  0  0  0  0  0  0  0  0  0  0  0
   60.0912   35.7386   46.4117 H   0  0  0  0  0  0  0  0  0  0  0  0
  1  2  1  0
  2  3  1  0
  3  4  2  0
  4  5  1  0
  5  6  1  0
  6  7  1  0
  7  8  2  0
  7  9  1  0
  9 10  2  0
 10 11  1  0
 11 12  2  0
 12 13  1  0
 12 14  1  0
 14 15  1  0
 14 16  2  0
 16 17  1  0
  5 18  2  0
 18 19  1  0
 19 20  2  0
 20 21  1  0
 20  3  1  0
 16  9  1  0
  1 22  1  0
  1 23  1  0
  1 24  1  0
  4 25  1  0
  6 26  1  0
  6 27  1  0
 10 28  1  0
 11 29  1  0
 18 30  1  0
 19 31  1  0
M  CHG  4  13  -1  15  -1  17  -1  21  -1
M  END
>  <UniqueID>  (22) 
21

>  <SMILES>  (22) 
COc1cc(CC(=O)c2ccc([O-])c([O-])c2[O-])ccc1[O-]

>  <Energy>  (22) 
35.83974065954723

>  <Genealogy>  (22) 
COc1cc(CC(=O)c2ccc([O-])c([O-])c2[O-])ccc1[O-] (protonated)
COc1cc(CC(=O)c2ccc([O-])c([O-])c2[O-])ccc1[O-] (3D coordinates assigned)
COc1cc(CC(=O)c2ccc([O-])c([O-])c2[O-])ccc1[O-] (optimized conformer: 35.83974065954723 kcal/mol)

>  <smiles>  (22) 
COc1cc(CC(=O)c2ccc(O)c(O)c2O)ccc1O

>  <score_type>  (22) 
oracle

>  <origin>  (22) 
adg

>  <m_score__min__energy>  (22) 
-16.879999999999999

>  <m_primary>  (22) 
energy

$$$$
22:0
     RDKit          3D

 47 50  0  0  0  0  0  0  0  0999 V2000
   58.0600   29.7530   44.3950 O   0  0  0  0  0  0  0  0  0  0  0  0
   58.0590   29.5380   45.6380 C   0  0  0  0  0  0  0  0  0  0  0  0
   58.3870   30.6030   46.5520 N   0  0  0  0  0  0  0  0  0  0  0  0
   58.6220   31.9620   46.1460 C   0  0  0  0  0  0  0  0  0  0  0  0
   59.8420   32.6100   46.4180 C   0  0  0  0  0  0  0  0  0  0  0  0
   60.0540   33.9240   45.9870 C   0  0  0  0  0  0  0  0  0  0  0  0
   59.0600   34.5960   45.2710 C   0  0  0  0  0  0  0  0  0  0  0  0
   59.2680   35.8690   44.8530 F   0  0  0  0  0  0  0  0  0  0  0  0
   57.8560   33.9510   44.9750 C   0  0  0  0  0  0  0  0  0  0  0  0
   57.6410   32.6370   45.4030 C   0  0  0  0  0  0  0  0  0  0  0  0
   57.7260   28.1790   46.1300 C   0  0  0  0  0  0  0  0  0  0  0  0
   58.5480   27.5120   47.0560 C   0  0  0  0  0  0  0  0  0  0  0  0
   58.2200   26.2290   47.5030 C   0  0  0  0  0  0  0  0  0  0  0  0
   57.0640   25.5860   47.0250 C   0  0  0  0  0  0  0  0  0  0  0  0
   56.6900   24.2980   47.4470 C   0  0  0  0  0  0  0  0  0  0  0  0
   57.4140   23.6790   48.2780 O   0  0  0  0  0  0  0  0  0  0  0  0
   55.5470   23.7130   46.9560 N   0  0  0  0  0  0  0  0  0  0  0  0
   55.1470   22.3690   47.4280 C   0  0  0  0  0  0  0  0  0  0  0  0
   56.1460   21.2880   46.9770 C   0  0  0  0  0  0  0  0  0  0  0  0
   57.2760   21.8310   46.0910 C   0  0  0  0  0  0  0  0  0  0  0  0
   56.8460   21.9990   44.7010 N   0  0  0  0  0  0  0  0  0  0  0  0
   56.8170   23.1380   43.9890 C   0  0  0  0  0  0  0  0  0  0  0  0
   56.4410   22.8240   42.7020 C   0  0  0  0  0  0  0  0  0  0  0  0
   56.2550   21.4920   42.5990 N   0  0  0  0  0  0  0  0  0  0  0  0
   56.5180   21.0200   43.8350 C   0  0  0  0  0  0  0  0  0  0  0  0
   54.7830   24.3840   46.0320 C   0  0  0  0  0  0  0  0  0  0  0  0
   53.7460   23.8610   45.5460 O   0  0  0  0  0  0  0  0  0  0  0  0
   55.1380   25.6270   45.6180 N   0  0  0  0  0  0  0  0  0  0  0  0
   56.2480   26.2430   46.0910 C   0  0  0  0  0  0  0  0  0  0  0  0
   56.5790   27.5270   45.6420 C   0  0  0  0  0  0  0  0  0  0  0  0
   58.5140   30.3850   47.5640 H   0  0  0  0  0  0  0  0  0  0  0  0
   60.6317   32.0810   46.9716 H   0  0  0  0  0  0  0  0  0  0  0  0
   61.0049   34.4290   46.2122 H   0  0  0  0  0  0  0  0  0  0  0  0
   57.0765   34.4775   44.4047 H   0  0  0  0  0  0  0  0  0  0  0  0
   56.6970   32.1293   45.1558 H   0  0  0  0  0  0  0  0  0  0  0  0
   59.4570   28.0044   47.4317 H   0  0  0  0  0  0  0  0  0  0  0  0
   58.8684   25.7202   48.2314 H   0  0  0  0  0  0  0  0  0  0  0  0
   55.1009   22.3760   48.5270 H   0  0  0  0  0  0  0  0  0  0  0  0
   54.1644   22.1310   46.9945 H   0  0  0  0  0  0  0  0  0  0  0  0
   56.5938   20.8322   47.8724 H   0  0  0  0  0  0  0  0  0  0  0  0
   55.5842   20.5588   46.3748 H   0  0  0  0  0  0  0  0  0  0  0  0
   57.5988   22.8064   46.4840 H   0  0  0  0  0  0  0  0  0  0  0  0
   58.1018   21.1045   46.1074 H   0  0  0  0  0  0  0  0  0  0  0  0
   57.0521   24.1438   44.3673 H   0  0  0  0  0  0  0  0  0  0  0  0
   56.3122   23.5480   41.8839 H   0  0  0  0  0  0  0  0  0  0  0  0
   56.4701   19.9549   44.1058 H   0  0  0  0  0  0  0  0  0  0  0  0
   55.9379   28.0294   44.9027 H   0  0  0  0  0  0  0  0  0  0  0  0
  1  2  2  0
  2  3  1  0
  3  4  1  0
  4  5  2  0
  5  6  1  0
  6  7  2  0
  7  8  1  0
  7  9  1  0
  9 10  2  0
  2 11  1  0
 11 12  2  0
 12 13  1  0
 13 14  2  0
 14 15  1  0
 15 16  2  0
 15 17  1  0
 17 18  1  0
 18 19  1  0
 19 20  1  0
 20 21  1  0
 21 22  1  0
 22 23  2  0
 23 24  1  0
 24 25  2  0
 17 26  1  0
 26 27  2  0
 26 28  1  0
 28 29  1  0
 29 30  2  0
 10  4  1  0
 30 11  1  0
 29 14  1  0
 25 21  1  0
  3 31  1  0
  5 32  1  0
  6 33  1  0
  9 34  1  0
 10 35  1  0
 12 36  1  0
 13 37  1  0
 18 38  1  0
 18 39  1  0
 19 40  1  0
 19 41  1  0
 20 42  1  0
 20 43  1  0
 22 44  1  0
 23 45  1  0
 25 46  1  0
 30 47  1  0
M  CHG  1  28  -1
M  END
>  <UniqueID>  (23) 
22

>  <SMILES>  (23) 
O=C(Nc1ccc(F)cc1)c1ccc2c(=O)n(CCCn3ccnc3)c(=O)[n-]c2c1

>  <Energy>  (23) 
92.16569462131424

>  <Genealogy>  (23) 
O=C(Nc1ccc(F)cc1)c1ccc2c(=O)n(CCCn3ccnc3)c(=O)[n-]c2c1 (protonated)
O=C(Nc1ccc(F)cc1)c1ccc2c(=O)n(CCCn3ccnc3)c(=O)[n-]c2c1 (3D coordinates assigned)
O=C(Nc1ccc(F)cc1)c1ccc2c(=O)n(CCCn3ccnc3)c(=O)[n-]c2c1 (optimized conformer: 92.16569462131424 kcal/mol)

>  <smiles>  (23) 
O=C(Nc1ccc(F)cc1)c1ccc2c(=O)n(CCCn3ccnc3)c(=O)[nH]c2c1

>  <score_type>  (23) 
oracle

>  <origin>  (23) 
adg

>  <m_score__min__energy>  (23) 
-9.4399999999999995

>  <m_primary>  (23) 
energy

$$$$
23:0
     RDKit          3D

 40 41  0  0  0  0  0  0  0  0999 V2000
   59.5690   28.4710   48.9710 C   0  0  0  0  0  0  0  0  0  0  0  0
   60.3820   28.7790   47.7140 C   0  0  0  0  0  0  0  0  0  0  0  0
   59.9580   30.1010   47.0810 C   0  0  0  0  0  0  0  0  0  0  0  0
   60.3820   31.3270   47.6330 C   0  0  0  0  0  0  0  0  0  0  0  0
   61.2120   31.4150   48.8820 C   0  0  0  0  0  0  0  0  0  0  0  0
   59.9870   32.4840   47.0570 N   0  0  0  0  0  0  0  0  0  0  0  0
   59.2060   32.5260   45.9550 C   0  0  0  0  0  0  0  0  0  0  0  0
   58.8010   34.0200   45.3930 S   0  0  0  0  0  0  0  0  0  0  0  0
   58.7660   31.3580   45.3650 N   0  0  0  0  0  0  0  0  0  0  0  0
   57.9150   31.3950   44.1460 C   0  0  0  0  0  0  0  0  0  0  0  0
   56.4190   31.2510   44.4700 C   0  0  0  0  0  0  0  0  0  0  0  0
   55.8700   29.9180   44.0720 C   0  0  0  0  0  0  0  0  0  0  0  0
   55.1430   29.2670   44.8690 O   0  0  0  0  0  0  0  0  0  0  0  0
   56.1470   29.4010   42.8120 O   0  0  0  0  0  0  0  0  0  0  0  0
   59.1380   30.1430   45.9200 C   0  0  0  0  0  0  0  0  0  0  0  0
   58.6130   28.8680   45.3670 C   0  0  0  0  0  0  0  0  0  0  0  0
   59.1260   28.3420   44.1740 C   0  0  0  0  0  0  0  0  0  0  0  0
   58.6510   27.1260   43.6810 C   0  0  0  0  0  0  0  0  0  0  0  0
   57.6660   26.4210   44.3780 C   0  0  0  0  0  0  0  0  0  0  0  0
   57.1420   26.9300   45.5800 C   0  0  0  0  0  0  0  0  0  0  0  0
   56.1300   26.1980   46.2990 N   0  0  0  0  0  0  0  0  0  0  0  0
   56.4410   25.4430   47.2410 O   0  0  0  0  0  0  0  0  0  0  0  0
   54.8020   26.3350   45.9690 O   0  0  0  0  0  0  0  0  0  0  0  0
   57.6250   28.1580   46.0690 C   0  0  0  0  0  0  0  0  0  0  0  0
   60.1716   28.6993   49.8625 H   0  0  0  0  0  0  0  0  0  0  0  0
   58.6569   29.0859   48.9776 H   0  0  0  0  0  0  0  0  0  0  0  0
   59.2933   27.4061   48.9776 H   0  0  0  0  0  0  0  0  0  0  0  0
   61.4470   28.8373   47.9830 H   0  0  0  0  0  0  0  0  0  0  0  0
   60.2048   27.9754   46.9840 H   0  0  0  0  0  0  0  0  0  0  0  0
   60.5571   31.3456   49.7631 H   0  0  0  0  0  0  0  0  0  0  0  0
   61.9380   30.5888   48.8988 H   0  0  0  0  0  0  0  0  0  0  0  0
   61.7486   32.3751   48.8988 H   0  0  0  0  0  0  0  0  0  0  0  0
   58.0744   32.3550   43.6331 H   0  0  0  0  0  0  0  0  0  0  0  0
   58.2034   30.5450   43.5101 H   0  0  0  0  0  0  0  0  0  0  0  0
   56.2791   31.3804   45.5534 H   0  0  0  0  0  0  0  0  0  0  0  0
   55.8786   32.0185   43.8966 H   0  0  0  0  0  0  0  0  0  0  0  0
   59.9058   28.8894   43.6242 H   0  0  0  0  0  0  0  0  0  0  0  0
   59.0532   26.7210   42.7407 H   0  0  0  0  0  0  0  0  0  0  0  0
   57.2982   25.4620   43.9841 H   0  0  0  0  0  0  0  0  0  0  0  0
   57.2253   28.5655   47.0093 H   0  0  0  0  0  0  0  0  0  0  0  0
  1  2  1  0
  2  3  1  0
  3  4  2  0
  4  5  1  0
  4  6  1  0
  6  7  1  0
  7  8  2  0
  7  9  1  0
  9 10  1  0
 10 11  1  0
 11 12  1  0
 12 13  2  0
 12 14  1  0
  9 15  2  0
 15 16  1  0
 16 17  2  0
 17 18  1  0
 18 19  2  0
 19 20  1  0
 20 21  1  0
 21 22  2  0
 21 23  1  0
 20 24  2  0
 15  3  1  0
 24 16  1  0
  1 25  1  0
  1 26  1  0
  1 27  1  0
  2 28  1  0
  2 29  1  0
  5 30  1  0
  5 31  1  0
  5 32  1  0
 10 33  1  0
 10 34  1  0
 11 35  1  0
 11 36  1  0
 17 37  1  0
 18 38  1  0
 19 39  1  0
 24 40  1  0
M  CHG  5   6  -1   9   1  14  -1  21   1  23  -1
M  END
>  <UniqueID>  (24) 
23

>  <SMILES>  (24) 
CCc1c(C)[n-]c(=S)[n+](CCC(=O)[O-])c1-c1cccc([N+](=O)[O-])c1

>  <Energy>  (24) 
53.784341257391844

>  <Genealogy>  (24) 
CCc1c(C)[n-]c(=S)[n+](CCC(=O)[O-])c1-c1cccc([N+](=O)[O-])c1 (protonated)
CCc1c(C)[n-]c(=S)[n+](CCC(=O)[O-])c1-c1cccc([N+](=O)[O-])c1 (3D coordinates assigned)
CCc1c(C)[n-]c(=S)[n+](CCC(=O)[O-])c1-c1cccc([N+](=O)[O-])c1 (optimized conformer: 53.784341257391844 kcal/mol)

>  <smiles>  (24) 
CCc1c(C)[nH]c(=S)[n+](CCC(=O)[O-])c1-c1cccc([N+](=O)[O-])c1

>  <score_type>  (24) 
oracle

>  <origin>  (24) 
adg

>  <m_score__min__energy>  (24) 
-10.98

>  <m_primary>  (24) 
energy

$$$$
24:0
     RDKit          3D

 58 61  0  0  0  0  0  0  0  0999 V2000
   62.7352   30.9361   48.0727 H   0  0  0  0  0  0  0  0  0  0  0  0
   61.9920   31.6880   47.7690 C   0  0  0  0  0  0  0  0  0  0  0  0
   62.0030   32.9550   48.3540 C   0  0  0  0  0  0  0  0  0  0  0  0
   62.7606   33.2033   49.1119 H   0  0  0  0  0  0  0  0  0  0  0  0
   61.0540   33.9080   47.9790 C   0  0  0  0  0  0  0  0  0  0  0  0
   61.0634   34.9030   48.4479 H   0  0  0  0  0  0  0  0  0  0  0  0
   60.0830   33.6020   47.0020 C   0  0  0  0  0  0  0  0  0  0  0  0
   59.1030   34.5270   46.6000 O   0  0  0  0  0  0  0  0  0  0  0  0
   58.7800   34.8680   45.2520 C   0  0  0  0  0  0  0  0  0  0  0  0
   59.5084   34.3960   44.5762 H   0  0  0  0  0  0  0  0  0  0  0  0
   58.8138   35.9625   45.1476 H   0  0  0  0  0  0  0  0  0  0  0  0
   57.3790   34.3860   44.8920 C   0  0  0  0  0  0  0  0  0  0  0  0
   56.8105   34.1904   45.8132 H   0  0  0  0  0  0  0  0  0  0  0  0
   56.8657   35.1592   44.3015 H   0  0  0  0  0  0  0  0  0  0  0  0
   57.4500   33.4606   44.3015 H   0  0  0  0  0  0  0  0  0  0  0  0
   60.0940   32.3360   46.3900 C   0  0  0  0  0  0  0  0  0  0  0  0
   59.0810   32.0310   45.4170 N   0  0  0  0  0  0  0  0  0  0  0  0
   58.3920   30.9310   45.3340 C   0  0  0  0  0  0  0  0  0  0  0  0
   57.0420   30.8760   45.2830 N   0  0  0  0  0  0  0  0  0  0  0  0
   56.5760   29.6290   45.2470 N   0  0  0  0  0  0  0  0  0  0  0  0
   57.5530   28.6970   45.2830 C   0  0  0  0  0  0  0  0  0  0  0  0
   57.2420   26.9340   45.2510 S   0  0  0  0  0  0  0  0  0  0  0  0
   58.9210   26.4780   45.8110 C   0  0  0  0  0  0  0  0  0  0  0  0
   59.2175   25.5378   45.3231 H   0  0  0  0  0  0  0  0  0  0  0  0
   59.6083   27.2931   45.5406 H   0  0  0  0  0  0  0  0  0  0  0  0
   58.9730   26.2920   47.3040 C   0  0  0  0  0  0  0  0  0  0  0  0
   58.1390   25.5240   47.8510 O   0  0  0  0  0  0  0  0  0  0  0  0
   59.9860   26.9010   48.1170 N   0  0  0  0  0  0  0  0  0  0  0  0
   59.8850   28.1680   48.7770 C   0  0  0  0  0  0  0  0  0  0  0  0
   60.7810   28.4710   49.8090 C   0  0  0  0  0  0  0  0  0  0  0  0
   61.5511   27.7406   50.0978 H   0  0  0  0  0  0  0  0  0  0  0  0
   60.7010   29.6980   50.4740 C   0  0  0  0  0  0  0  0  0  0  0  0
   61.4196   29.9366   51.2719 H   0  0  0  0  0  0  0  0  0  0  0  0
   59.7090   30.6250   50.1280 C   0  0  0  0  0  0  0  0  0  0  0  0
   59.6420   32.1770   50.9570 S   0  0  0  0  0  0  0  0  0  0  0  0
   58.8970   33.1490   50.0870 O   0  0  0  0  0  0  0  0  0  0  0  0
   61.0350   32.6980   51.1820 O   0  0  0  0  0  0  0  0  0  0  0  0
   58.8100   31.9710   52.4850 N   0  0  0  0  0  0  0  0  0  0  0  0
   57.4480   32.5490   52.4540 C   0  0  0  0  0  0  0  0  0  0  0  0
   57.2581   33.0537   53.4128 H   0  0  0  0  0  0  0  0  0  0  0  0
   57.4047   33.2514   51.6085 H   0  0  0  0  0  0  0  0  0  0  0  0
   56.3560   31.4870   52.2320 C   0  0  0  0  0  0  0  0  0  0  0  0
   56.0516   31.0709   53.2037 H   0  0  0  0  0  0  0  0  0  0  0  0
   55.4939   31.9581   51.7372 H   0  0  0  0  0  0  0  0  0  0  0  0
   56.8430   30.4490   51.4140 O   0  0  0  0  0  0  0  0  0  0  0  0
   57.8200   29.6950   52.1110 C   0  0  0  0  0  0  0  0  0  0  0  0
   57.3044   29.0164   52.8065 H   0  0  0  0  0  0  0  0  0  0  0  0
   58.4080   29.1529   51.3557 H   0  0  0  0  0  0  0  0  0  0  0  0
   58.8130   30.5640   52.9210 C   0  0  0  0  0  0  0  0  0  0  0  0
   58.5334   30.5226   53.9841 H   0  0  0  0  0  0  0  0  0  0  0  0
   59.8237   30.1628   52.7551 H   0  0  0  0  0  0  0  0  0  0  0  0
   58.7900   30.3090   49.1170 C   0  0  0  0  0  0  0  0  0  0  0  0
   58.0031   31.0285   48.8468 H   0  0  0  0  0  0  0  0  0  0  0  0
   58.8710   29.0830   48.4520 C   0  0  0  0  0  0  0  0  0  0  0  0
   58.1376   28.8337   47.6709 H   0  0  0  0  0  0  0  0  0  0  0  0
   59.0830   29.3980   45.3580 S   0  0  0  0  0  0  0  0  0  0  0  0
   61.0390   31.3740   46.7990 C   0  0  0  0  0  0  0  0  0  0  0  0
   61.0254   30.3695   46.3510 H   0  0  0  0  0  0  0  0  0  0  0  0
  1  2  1  0
  2  3  2  0
  3  4  1  0
  3  5  1  0
  5  6  1  0
  5  7  2  0
  7  8  1  0
  8  9  1  0
  9 10  1  0
  9 11  1  0
  9 12  1  0
 12 13  1  0
 12 14  1  0
 12 15  1  0
  7 16  1  0
 16 17  1  0
 17 18  2  0
 18 19  1  0
 19 20  1  0
 20 21  2  0
 21 22  1  0
 22 23  1  0
 23 24  1  0
 23 25  1  0
 23 26  1  0
 26 27  2  0
 26 28  1  0
 28 29  1  0
 29 30  2  0
 30 31  1  0
 30 32  1  0
 32 33  1  0
 32 34  2  0
 34 35  1  0
 35 36  2  0
 35 37  2  0
 35 38  1  0
 38 39  1  0
 39 40  1  0
 39 41  1  0
 39 42  1  0
 42 43  1  0
 42 44  1  0
 42 45  1  0
 45 46  1  0
 46 47  1  0
 46 48  1  0
 46 49  1  0
 49 50  1  0
 49 51  1  0
 34 52  1  0
 52 53  1  0
 52 54  2  0
 54 55  1  0
 21 56  1  0
 16 57  2  0
 57 58  1  0
 57  2  1  0
 56 18  1  0
 54 29  1  0
 49 38  1  0
M  CHG  2  19  -1  28  -1
M  END
>  <UniqueID>  (25) 
24

>  <SMILES>  (25) 
CCOc1ccccc1/N=c1\[n-]nc(SCC(=O)[N-]c2ccc(S(=O)(=O)N3CCOCC3)cc2)s1

>  <Energy>  (25) 
111.49919970865412

>  <Genealogy>  (25) 
CCOc1ccccc1N=c1[n-]nc(SCC(=O)[N-]c2ccc(S(=O)(=O)N3CCOCC3)cc2)s1 (protonated)
CCOc1ccccc1/N=c1\[n-]nc(SCC(=O)[N-]c2ccc(S(=O)(=O)N3CCOCC3)cc2)s1 (cis-trans isomerization)
CCOc1ccccc1/N=c1\[n-]nc(SCC(=O)[N-]c2ccc(S(=O)(=O)N3CCOCC3)cc2)s1 (3D coordinates assigned)
CCOc1ccccc1/N=c1\[n-]nc(SCC(=O)[N-]c2ccc(S(=O)(=O)N3CCOCC3)cc2)s1 (nonaromatic ring conformer: 111.49919970865412 kcal/mol)

>  <smiles>  (25) 
CCOc1ccccc1N=c1[nH]nc(SCC(=O)Nc2ccc(S(=O)(=O)N3CCOCC3)cc2)s1

>  <score_type>  (25) 
oracle

>  <origin>  (25) 
adg

>  <m_score__min__energy>  (25) 
-13.460000000000001

>  <m_primary>  (25) 
energy

$$$$
25:0
     RDKit          3D

 56 58  0  0  0  0  0  0  0  0999 V2000
   57.9010   32.9120   52.0890 C   0  0  0  0  0  0  0  0  0  0  0  0
   58.9620   32.1170   51.4600 N   0  0  0  0  0  0  0  0  0  0  0  0
   60.3730   32.4130   51.7570 C   0  0  0  0  0  0  0  0  0  0  0  0
   61.0800   32.9160   50.5250 C   0  0  0  0  0  0  0  0  0  0  0  0
   62.3070   32.3590   50.1240 C   0  0  0  0  0  0  0  0  0  0  0  0
   62.9370   32.8090   48.9600 C   0  0  0  0  0  0  0  0  0  0  0  0
   62.3520   33.8200   48.1920 C   0  0  0  0  0  0  0  0  0  0  0  0
   61.1400   34.3900   48.5940 C   0  0  0  0  0  0  0  0  0  0  0  0
   60.5080   33.9430   49.7580 C   0  0  0  0  0  0  0  0  0  0  0  0
   58.5890   31.0960   50.5070 C   0  0  0  0  0  0  0  0  0  0  0  0
   57.8460   30.1450   50.8650 O   0  0  0  0  0  0  0  0  0  0  0  0
   59.0500   31.1330   49.1100 C   0  0  0  0  0  0  0  0  0  0  0  0
   60.0760   30.2790   48.6870 C   0  0  0  0  0  0  0  0  0  0  0  0
   60.5310   30.3300   47.3670 C   0  0  0  0  0  0  0  0  0  0  0  0
   59.9670   31.2370   46.4670 C   0  0  0  0  0  0  0  0  0  0  0  0
   58.9320   32.0890   46.8780 C   0  0  0  0  0  0  0  0  0  0  0  0
   58.3000   33.2930   45.7570 S   0  0  0  0  0  0  0  0  0  0  0  0
   59.4020   33.7680   44.8500 O   0  0  0  0  0  0  0  0  0  0  0  0
   57.7840   34.4600   46.5490 O   0  0  0  0  0  0  0  0  0  0  0  0
   56.9980   32.6500   44.8010 N   0  0  0  0  0  0  0  0  0  0  0  0
   57.5040   31.6920   43.8210 C   0  0  0  0  0  0  0  0  0  0  0  0
   57.3520   30.3090   44.3830 C   0  0  0  0  0  0  0  0  0  0  0  0
   56.2750   29.9910   44.9530 O   0  0  0  0  0  0  0  0  0  0  0  0
   58.4520   29.3950   44.4260 N   0  0  0  0  0  0  0  0  0  0  0  0
   58.4900   28.1830   45.1880 C   0  0  0  0  0  0  0  0  0  0  0  0
   59.6820   27.7390   45.7820 C   0  0  0  0  0  0  0  0  0  0  0  0
   59.7150   26.5150   46.4560 C   0  0  0  0  0  0  0  0  0  0  0  0
   58.5630   25.7290   46.5400 C   0  0  0  0  0  0  0  0  0  0  0  0
   57.3720   26.1580   45.9390 C   0  0  0  0  0  0  0  0  0  0  0  0
   55.9200   25.1730   46.0690 S   0  0  0  0  0  0  0  0  0  0  0  0
   54.5310   26.1950   45.9840 N   0  0  0  0  0  0  0  0  0  0  0  0
   55.9240   24.4360   47.3780 O   0  0  0  0  0  0  0  0  0  0  0  0
   55.8760   24.1720   44.9480 O   0  0  0  0  0  0  0  0  0  0  0  0
   57.3440   27.3820   45.2540 C   0  0  0  0  0  0  0  0  0  0  0  0
   58.4660   32.0280   48.2000 C   0  0  0  0  0  0  0  0  0  0  0  0
   57.9916   32.8441   53.1832 H   0  0  0  0  0  0  0  0  0  0  0  0
   57.9966   33.9627   51.7777 H   0  0  0  0  0  0  0  0  0  0  0  0
   56.9195   32.5252   51.7777 H   0  0  0  0  0  0  0  0  0  0  0  0
   60.4236   33.1818   52.5421 H   0  0  0  0  0  0  0  0  0  0  0  0
   60.8653   31.4897   52.0963 H   0  0  0  0  0  0  0  0  0  0  0  0
   62.7728   31.5665   50.7281 H   0  0  0  0  0  0  0  0  0  0  0  0
   63.8946   32.3668   48.6479 H   0  0  0  0  0  0  0  0  0  0  0  0
   62.8449   34.1670   47.2719 H   0  0  0  0  0  0  0  0  0  0  0  0
   60.6835   35.1908   47.9938 H   0  0  0  0  0  0  0  0  0  0  0  0
   59.5579   34.3983   50.0744 H   0  0  0  0  0  0  0  0  0  0  0  0
   60.5245   29.5668   49.3952 H   0  0  0  0  0  0  0  0  0  0  0  0
   61.3342   29.6551   47.0362 H   0  0  0  0  0  0  0  0  0  0  0  0
   60.3362   31.2831   45.4318 H   0  0  0  0  0  0  0  0  0  0  0  0
   56.9291   31.7781   42.8872 H   0  0  0  0  0  0  0  0  0  0  0  0
   58.5633   31.8968   43.6066 H   0  0  0  0  0  0  0  0  0  0  0  0
   60.5910   28.3551   45.7169 H   0  0  0  0  0  0  0  0  0  0  0  0
   60.6500   26.1698   46.9213 H   0  0  0  0  0  0  0  0  0  0  0  0
   58.5910   24.7707   47.0794 H   0  0  0  0  0  0  0  0  0  0  0  0
   54.7790   27.0920   46.4570 H   0  0  0  0  0  0  0  0  0  0  0  0
   56.4159   27.7142   44.7659 H   0  0  0  0  0  0  0  0  0  0  0  0
   57.6427   32.6818   48.5234 H   0  0  0  0  0  0  0  0  0  0  0  0
  1  2  1  0
  2  3  1  0
  3  4  1  0
  4  5  2  0
  5  6  1  0
  6  7  2  0
  7  8  1  0
  8  9  2  0
  2 10  1  0
 10 11  2  0
 10 12  1  0
 12 13  2  0
 13 14  1  0
 14 15  2  0
 15 16  1  0
 16 17  1  0
 17 18  2  0
 17 19  2  0
 17 20  1  0
 20 21  1  0
 21 22  1  0
 22 23  2  0
 22 24  1  0
 24 25  1  0
 25 26  2  0
 26 27  1  0
 27 28  2  0
 28 29  1  0
 29 30  1  0
 30 31  1  0
 30 32  2  0
 30 33  2  0
 29 34  2  0
 16 35  2  0
  9  4  1  0
 35 12  1  0
 34 25  1  0
  1 36  1  0
  1 37  1  0
  1 38  1  0
  3 39  1  0
  3 40  1  0
  5 41  1  0
  6 42  1  0
  7 43  1  0
  8 44  1  0
  9 45  1  0
 13 46  1  0
 14 47  1  0
 15 48  1  0
 21 49  1  0
 21 50  1  0
 26 51  1  0
 27 52  1  0
 28 53  1  0
 31 54  1  0
 34 55  1  0
 35 56  1  0
M  CHG  3  20  -1  24  -1  31  -1
M  END
>  <UniqueID>  (26) 
25

>  <SMILES>  (26) 
CN(Cc1ccccc1)C(=O)c1cccc(S(=O)(=O)[N-]CC(=O)[N-]c2cccc(S([NH-])(=O)=O)c2)c1

>  <Energy>  (26) 
59.16867036009769

>  <Genealogy>  (26) 
CN(Cc1ccccc1)C(=O)c1cccc(S(=O)(=O)[N-]CC(=O)[N-]c2cccc(S([NH-])(=O)=O)c2)c1 (protonated)
CN(Cc1ccccc1)C(=O)c1cccc(S(=O)(=O)[N-]CC(=O)[N-]c2cccc(S([NH-])(=O)=O)c2)c1 (3D coordinates assigned)
CN(Cc1ccccc1)C(=O)c1cccc(S(=O)(=O)[N-]CC(=O)[N-]c2cccc(S([NH-])(=O)=O)c2)c1 (optimized conformer: 59.16867036009769 kcal/mol)

>  <smiles>  (26) 
CN(Cc1ccccc1)C(=O)c1cccc(S(=O)(=O)NCC(=O)Nc2cccc(S(N)(=O)=O)c2)c1

>  <score_type>  (26) 
oracle

>  <origin>  (26) 
adg

>  <m_score__min__energy>  (26) 
-15.33

>  <m_primary>  (26) 
energy

$$$$
26:0
     RDKit          3D

116121  0  0  0  0  0  0  0  0999 V2000
   61.0960   21.1300   50.8750 N   0  0  0  0  0  0  0  0  0  0  0  0
   60.0540   21.3900   51.3060 C   0  0  0  0  0  0  0  0  0  0  0  0
   58.7540   21.7120   51.8410 C   0  0  0  0  0  0  0  0  0  0  0  0
   57.6370   21.0280   51.3410 C   0  0  0  0  0  0  0  0  0  0  0  0
   56.3650   21.2900   51.8540 C   0  0  0  0  0  0  0  0  0  0  0  0
   55.2880   20.6250   51.3700 F   0  0  0  0  0  0  0  0  0  0  0  0
   56.1980   22.2370   52.8640 C   0  0  0  0  0  0  0  0  0  0  0  0
   57.3060   22.9230   53.3690 C   0  0  0  0  0  0  0  0  0  0  0  0
   58.5970   22.6660   52.8720 C   0  0  0  0  0  0  0  0  0  0  0  0
   59.7420   23.3680   53.3960 N   0  0  0  0  0  0  0  0  0  0  0  0
   60.1430   23.3560   54.8080 C   0  0  0  0  0  0  0  0  0  0  0  0
   61.6690   23.2600   54.9610 C   0  0  0  0  0  0  0  0  0  0  0  0
   62.2990   22.3610   53.8890 C   0  0  0  0  0  0  0  0  0  0  0  0
   62.5180   23.1100   52.6530 N   0  0  0  0  0  0  0  0  0  0  0  0
   62.7990   24.5240   52.5850 C   0  0  0  0  0  0  0  0  0  0  0  0
   63.9500   25.0830   53.1770 C   0  0  0  0  0  0  0  0  0  0  0  0
   64.1950   26.4590   53.1030 C   0  0  0  0  0  0  0  0  0  0  0  0
   63.2940   27.3060   52.4330 C   0  0  0  0  0  0  0  0  0  0  0  0
   63.4990   28.7300   52.3500 N   0  0  0  0  0  0  0  0  0  0  0  0
   64.1270   29.5240   53.4090 C   0  0  0  0  0  0  0  0  0  0  0  0
   63.9360   31.0220   53.1350 C   0  0  0  0  0  0  0  0  0  0  0  0
   62.6990   31.5760   53.8600 C   0  0  0  0  0  0  0  0  0  0  0  0
   62.2130   32.8460   53.2870 N   0  0  0  0  0  0  0  0  0  0  0  0
   60.8660   32.7750   52.6880 C   0  0  0  0  0  0  0  0  0  0  0  0
   59.8970   33.8400   53.2270 C   0  0  0  0  0  0  0  0  0  0  0  0
   58.4660   33.6500   52.6960 C   0  0  0  0  0  0  0  0  0  0  0  0
   58.0840   32.2280   52.6680 N   0  0  0  0  0  0  0  0  0  0  0  0
   57.9200   31.4800   53.9300 C   0  0  0  0  0  0  0  0  0  0  0  0
   56.4970   30.8990   54.0780 C   0  0  0  0  0  0  0  0  0  0  0  0
   56.4560   29.3630   54.1170 C   0  0  0  0  0  0  0  0  0  0  0  0
   57.3460   28.7410   53.0370 C   0  0  0  0  0  0  0  0  0  0  0  0
   58.5050   27.9430   53.6410 C   0  0  0  0  0  0  0  0  0  0  0  0
   59.9630   29.0200   53.9030 S   0  0  0  0  0  0  0  0  0  0  0  0
   60.3490   29.1840   52.1630 C   0  0  0  0  0  0  0  0  0  0  0  0
   59.7750   28.4260   51.2090 N   0  0  0  0  0  0  0  0  0  0  0  0
   60.2620   28.9250   50.0590 C   0  0  0  0  0  0  0  0  0  0  0  0
   59.7960   28.4540   48.7400 C   0  0  0  0  0  0  0  0  0  0  0  0
   60.3420   27.2830   48.1880 C   0  0  0  0  0  0  0  0  0  0  0  0
   59.8830   26.8040   46.9570 C   0  0  0  0  0  0  0  0  0  0  0  0
   58.8580   27.4750   46.2820 C   0  0  0  0  0  0  0  0  0  0  0  0
   58.2950   28.6280   46.8360 C   0  0  0  0  0  0  0  0  0  0  0  0
   58.7630   29.1190   48.0590 C   0  0  0  0  0  0  0  0  0  0  0  0
   61.1290   29.9730   50.3490 C   0  0  0  0  0  0  0  0  0  0  0  0
   61.8890   30.8350   49.4150 C   0  0  0  0  0  0  0  0  0  0  0  0
   62.9930   31.5880   49.8480 C   0  0  0  0  0  0  0  0  0  0  0  0
   63.6870   32.4040   48.9480 C   0  0  0  0  0  0  0  0  0  0  0  0
   63.2770   32.4870   47.6120 C   0  0  0  0  0  0  0  0  0  0  0  0
   63.9640   33.2900   46.7060 O   0  0  0  0  0  0  0  0  0  0  0  0
   62.1670   31.7550   47.1800 C   0  0  0  0  0  0  0  0  0  0  0  0
   61.4730   30.9390   48.0770 C   0  0  0  0  0  0  0  0  0  0  0  0
   61.1810   30.1320   51.6840 N   0  0  0  0  0  0  0  0  0  0  0  0
   57.6160   31.6440   51.4300 C   0  0  0  0  0  0  0  0  0  0  0  0
   56.4050   31.3140   51.3100 O   0  0  0  0  0  0  0  0  0  0  0  0
   58.5120   31.5040   50.3160 N   0  0  0  0  0  0  0  0  0  0  0  0
   58.7470   32.4560   49.2680 C   0  0  0  0  0  0  0  0  0  0  0  0
   58.1510   32.3370   47.9980 C   0  0  0  0  0  0  0  0  0  0  0  0
   58.4320   33.2750   47.0000 C   0  0  0  0  0  0  0  0  0  0  0  0
   59.3230   34.3240   47.2510 C   0  0  0  0  0  0  0  0  0  0  0  0
   59.6780   35.4980   45.9990 Cl  0  0  0  0  0  0  0  0  0  0  0  0
   59.9330   34.4340   48.5030 C   0  0  0  0  0  0  0  0  0  0  0  0
   59.6510   33.5000   49.5030 C   0  0  0  0  0  0  0  0  0  0  0  0
   62.1560   26.7480   51.8330 C   0  0  0  0  0  0  0  0  0  0  0  0
   61.9080   25.3750   51.9060 C   0  0  0  0  0  0  0  0  0  0  0  0
   60.7640   24.8650   51.3030 O   0  0  0  0  0  0  0  0  0  0  0  0
   57.7630   20.2825   50.5420 H   0  0  0  0  0  0  0  0  0  0  0  0
   55.1941   22.4441   53.2632 H   0  0  0  0  0  0  0  0  0  0  0  0
   57.1674   23.6715   54.1631 H   0  0  0  0  0  0  0  0  0  0  0  0
   60.3790   23.8620   52.7310 H   0  0  0  0  0  0  0  0  0  0  0  0
   59.7937   24.2829   55.2863 H   0  0  0  0  0  0  0  0  0  0  0  0
   59.6927   22.4738   55.2864 H   0  0  0  0  0  0  0  0  0  0  0  0
   62.0986   24.2690   54.8755 H   0  0  0  0  0  0  0  0  0  0  0  0
   61.8846   22.8176   55.9448 H   0  0  0  0  0  0  0  0  0  0  0  0
   63.2634   21.9810   54.2571 H   0  0  0  0  0  0  0  0  0  0  0  0
   61.6150   21.5251   53.6806 H   0  0  0  0  0  0  0  0  0  0  0  0
   62.4640   22.5620   51.7630 H   0  0  0  0  0  0  0  0  0  0  0  0
   64.6630   24.4308   53.7026 H   0  0  0  0  0  0  0  0  0  0  0  0
   65.0969   26.8802   53.5713 H   0  0  0  0  0  0  0  0  0  0  0  0
   63.1350   29.2250   51.5000 H   0  0  0  0  0  0  0  0  0  0  0  0
   63.6661   29.2700   54.3749 H   0  0  0  0  0  0  0  0  0  0  0  0
   65.2034   29.2990   53.4347 H   0  0  0  0  0  0  0  0  0  0  0  0
   64.8270   31.5651   53.4831 H   0  0  0  0  0  0  0  0  0  0  0  0
   63.7909   31.1584   52.0532 H   0  0  0  0  0  0  0  0  0  0  0  0
   61.8922   30.8311   53.7950 H   0  0  0  0  0  0  0  0  0  0  0  0
   62.9914   31.7765   54.9013 H   0  0  0  0  0  0  0  0  0  0  0  0
   62.8740   33.1270   52.5310 H   0  0  0  0  0  0  0  0  0  0  0  0
   60.9613   32.9098   51.6005 H   0  0  0  0  0  0  0  0  0  0  0  0
   60.4463   31.7931   52.9521 H   0  0  0  0  0  0  0  0  0  0  0  0
   59.8780   33.7775   54.3251 H   0  0  0  0  0  0  0  0  0  0  0  0
   60.2544   34.8230   52.8865 H   0  0  0  0  0  0  0  0  0  0  0  0
   57.7676   34.1947   53.3483 H   0  0  0  0  0  0  0  0  0  0  0  0
   58.4256   34.0381   51.6675 H   0  0  0  0  0  0  0  0  0  0  0  0
   58.6450   30.6529   53.9493 H   0  0  0  0  0  0  0  0  0  0  0  0
   58.0901   32.1780   54.7630 H   0  0  0  0  0  0  0  0  0  0  0  0
   56.0615   31.2816   55.0129 H   0  0  0  0  0  0  0  0  0  0  0  0
   55.9285   31.2126   53.1900 H   0  0  0  0  0  0  0  0  0  0  0  0
   56.8034   29.0228   55.1037 H   0  0  0  0  0  0  0  0  0  0  0  0
   55.4198   29.0445   53.9303 H   0  0  0  0  0  0  0  0  0  0  0  0
   56.7354   28.0676   52.4176 H   0  0  0  0  0  0  0  0  0  0  0  0
   57.7717   29.5572   52.4348 H   0  0  0  0  0  0  0  0  0  0  0  0
   58.1890   27.5214   54.6066 H   0  0  0  0  0  0  0  0  0  0  0  0
   58.7805   27.1368   52.9453 H   0  0  0  0  0  0  0  0  0  0  0  0
   61.1335   26.7409   48.7262 H   0  0  0  0  0  0  0  0  0  0  0  0
   60.3285   25.8986   46.5191 H   0  0  0  0  0  0  0  0  0  0  0  0
   58.4952   27.0953   45.3155 H   0  0  0  0  0  0  0  0  0  0  0  0
   57.4826   29.1501   46.3093 H   0  0  0  0  0  0  0  0  0  0  0  0
   58.3204   30.0295   48.4893 H   0  0  0  0  0  0  0  0  0  0  0  0
   63.3132   31.5359   50.8991 H   0  0  0  0  0  0  0  0  0  0  0  0
   64.5576   32.9822   49.2912 H   0  0  0  0  0  0  0  0  0  0  0  0
   64.8950   33.0500   46.3830 H   0  0  0  0  0  0  0  0  0  0  0  0
   61.8394   31.8216   46.1320 H   0  0  0  0  0  0  0  0  0  0  0  0
   60.5943   30.3737   47.7331 H   0  0  0  0  0  0  0  0  0  0  0  0
   57.4628   31.5043   47.7905 H   0  0  0  0  0  0  0  0  0  0  0  0
   57.9511   33.1879   46.0145 H   0  0  0  0  0  0  0  0  0  0  0  0
   60.6358   35.2566   48.7016 H   0  0  0  0  0  0  0  0  0  0  0  0
   60.1430   33.5851   50.4832 H   0  0  0  0  0  0  0  0  0  0  0  0
   61.4495   27.3996   51.2980 H   0  0  0  0  0  0  0  0  0  0  0  0
  1  2  3  0
  2  3  1  0
  3  4  2  0
  4  5  1  0
  5  6  1  0
  5  7  2  0
  7  8  1  0
  8  9  2  0
  9 10  1  0
 10 11  1  0
 11 12  1  0
 12 13  1  0
 13 14  1  0
 14 15  1  0
 15 16  2  0
 16 17  1  0
 17 18  2  0
 18 19  1  0
 19 20  1  0
 20 21  1  0
 21 22  1  0
 22 23  1  0
 23 24  1  0
 24 25  1  0
 25 26  1  0
 26 27  1  0
 27 28  1  0
 28 29  1  0
 29 30  1  0
 30 31  1  0
 31 32  1  0
 32 33  1  0
 33 34  1  0
 34 35  2  0
 35 36  1  0
 36 37  1  0
 37 38  2  0
 38 39  1  0
 39 40  2  0
 40 41  1  0
 41 42  2  0
 36 43  2  0
 43 44  1  0
 44 45  2  0
 45 46  1  0
 46 47  2  0
 47 48  1  0
 47 49  1  0
 49 50  2  0
 43 51  1  0
 27 52  1  0
 52 53  2  0
 52 54  1  0
 54 55  1  0
 55 56  2  0
 56 57  1  0
 57 58  2  0
 58 59  1  0
 58 60  1  0
 60 61  2  0
 18 62  1  0
 62 63  2  0
 63 64  1  0
  9  3  1  0
 63 15  1  0
 51 34  1  0
 61 55  1  0
 42 37  1  0
 50 44  1  0
  4 65  1  0
  7 66  1  0
  8 67  1  0
 10 68  1  0
 11 69  1  0
 11 70  1  0
 12 71  1  0
 12 72  1  0
 13 73  1  0
 13 74  1  0
 14 75  1  0
 16 76  1  0
 17 77  1  0
 19 78  1  0
 20 79  1  0
 20 80  1  0
 21 81  1  0
 21 82  1  0
 22 83  1  0
 22 84  1  0
 23 85  1  0
 24 86  1  0
 24 87  1  0
 25 88  1  0
 25 89  1  0
 26 90  1  0
 26 91  1  0
 28 92  1  0
 28 93  1  0
 29 94  1  0
 29 95  1  0
 30 96  1  0
 30 97  1  0
 31 98  1  0
 31 99  1  0
 32100  1  0
 32101  1  0
 38102  1  0
 39103  1  0
 40104  1  0
 41105  1  0
 42106  1  0
 45107  1  0
 46108  1  0
 48109  1  0
 49110  1  0
 50111  1  0
 56112  1  0
 57113  1  0
 60114  1  0
 61115  1  0
 62116  1  0
M  CHG  3  51  -1  54  -1  64  -1
M  END
>  <UniqueID>  (27) 
26

>  <SMILES>  (27) 
N#Cc1cc(F)ccc1NCCCNc1ccc(NCCCNCCCN(CCCCCSc2nc(-c3ccccc3)c(-c3ccc(O)cc3)[n-]2)C(=O)[N-]c2ccc(Cl)cc2)cc1[O-]

>  <Energy>  (27) 
136.3394717383974

>  <Genealogy>  (27) 
N#Cc1cc(F)ccc1NCCCNc1ccc(NCCCNCCCN(CCCCCSc2nc(-c3ccccc3)c(-c3ccc(O)cc3)[n-]2)C(=O)[N-]c2ccc(Cl)cc2)cc1[O-] (protonated)
N#Cc1cc(F)ccc1NCCCNc1ccc(NCCCNCCCN(CCCCCSc2nc(-c3ccccc3)c(-c3ccc(O)cc3)[n-]2)C(=O)[N-]c2ccc(Cl)cc2)cc1[O-] (3D coordinates assigned)
N#Cc1cc(F)ccc1NCCCNc1ccc(NCCCNCCCN(CCCCCSc2nc(-c3ccccc3)c(-c3ccc(O)cc3)[n-]2)C(=O)[N-]c2ccc(Cl)cc2)cc1[O-] (optimized conformer: 136.3394717383974 kcal/mol)

>  <smiles>  (27) 
N#Cc1cc(F)ccc1NCCCNc1ccc(NCCCNCCCN(CCCCCSc2nc(-c3ccccc3)c(-c3ccc(O)cc3)[nH]2)C(=O)Nc2ccc(Cl)cc2)cc1O

>  <score_type>  (27) 
oracle

>  <origin>  (27) 
adg

>  <m_score__min__energy>  (27) 
-13.92

>  <m_primary>  (27) 
energy

$$$$
27:0
     RDKit          3D

 72 75  0  0  0  0  0  0  0  0999 V2000
   58.8560   29.8690   47.3040 C   0  0  0  0  0  0  0  0  0  0  0  0
   59.4840   28.5060   46.9810 C   0  0  0  0  0  0  0  0  0  0  0  0
   60.4970   28.0480   48.0380 C   0  0  0  0  0  0  0  0  0  0  0  0
   58.4430   27.4450   46.6720 C   0  0  0  0  0  0  0  0  0  0  0  0
   58.2580   26.3170   47.4550 C   0  0  0  0  0  0  0  0  0  0  0  0
   57.2380   25.6290   46.8210 C   0  0  0  0  0  0  0  0  0  0  0  0
   56.7450   24.4710   47.1520 N   0  0  0  0  0  0  0  0  0  0  0  0
   55.4870   23.9190   46.7360 C   0  0  0  0  0  0  0  0  0  0  0  0
   54.7440   23.0630   47.5680 C   0  0  0  0  0  0  0  0  0  0  0  0
   53.4990   22.5830   47.1520 C   0  0  0  0  0  0  0  0  0  0  0  0
   52.9750   22.9640   45.9080 C   0  0  0  0  0  0  0  0  0  0  0  0
   51.4020   22.3760   45.3860 S   0  0  0  0  0  0  0  0  0  0  0  0
   50.1620   22.8990   46.5490 C   0  0  0  0  0  0  0  0  0  0  0  0
   51.0810   22.9320   44.0260 O   0  0  0  0  0  0  0  0  0  0  0  0
   51.4160   20.8750   45.3050 O   0  0  0  0  0  0  0  0  0  0  0  0
   53.6970   23.8490   45.0970 C   0  0  0  0  0  0  0  0  0  0  0  0
   54.9400   24.3320   45.5140 C   0  0  0  0  0  0  0  0  0  0  0  0
   56.8450   26.2900   45.7220 N   0  0  0  0  0  0  0  0  0  0  0  0
   57.5740   27.3930   45.6240 N   0  0  0  0  0  0  0  0  0  0  0  0
   57.3870   28.3470   44.5210 C   0  0  1  0  0  0  0  0  0  0  0  0
   56.3070   29.3780   44.9040 C   0  0  0  0  0  0  0  0  0  0  0  0
   56.1570   30.4590   43.8240 C   0  0  0  0  0  0  0  0  0  0  0  0
   57.5020   31.0760   43.3620 C   0  0  1  0  0  0  0  0  0  0  0  0
   57.4360   32.5000   43.4930 O   0  0  0  0  0  0  0  0  0  0  0  0
   58.0330   33.2090   44.5390 C   0  0  0  0  0  0  0  0  0  0  0  0
   58.8630   34.1270   44.2960 O   0  0  0  0  0  0  0  0  0  0  0  0
   57.7250   32.8470   45.8910 N   0  0  0  0  0  0  0  0  0  0  0  0
   58.5260   33.1430   47.0420 C   0  0  0  0  0  0  0  0  0  0  0  0
   59.7170   33.8600   46.8700 C   0  0  0  0  0  0  0  0  0  0  0  0
   60.5110   34.1830   47.9720 C   0  0  0  0  0  0  0  0  0  0  0  0
   60.1390   33.7660   49.2520 C   0  0  0  0  0  0  0  0  0  0  0  0
   58.9690   33.0070   49.4360 C   0  0  0  0  0  0  0  0  0  0  0  0
   58.5650   32.5210   50.7250 N   0  0  0  0  0  0  0  0  0  0  0  0
   58.4680   30.8540   51.1980 S   0  0  0  0  0  0  0  0  0  0  0  0
   59.1820   30.6410   52.8170 C   0  0  0  0  0  0  0  0  0  0  0  0
   57.0190   30.4530   51.2500 O   0  0  0  0  0  0  0  0  0  0  0  0
   59.1750   29.9870   50.1930 O   0  0  0  0  0  0  0  0  0  0  0  0
   58.1730   32.6950   48.3290 C   0  0  0  0  0  0  0  0  0  0  0  0
   58.7060   30.5370   44.1580 C   0  0  0  0  0  0  0  0  0  0  0  0
   58.7420   29.0020   44.1390 C   0  0  0  0  0  0  0  0  0  0  0  0
   58.7973   29.9964   48.3950 H   0  0  0  0  0  0  0  0  0  0  0  0
   59.4761   30.6695   46.8742 H   0  0  0  0  0  0  0  0  0  0  0  0
   57.8446   29.9178   46.8742 H   0  0  0  0  0  0  0  0  0  0  0  0
   60.0614   28.6516   46.0561 H   0  0  0  0  0  0  0  0  0  0  0  0
   60.0880   28.2329   49.0422 H   0  0  0  0  0  0  0  0  0  0  0  0
   60.6947   26.9729   47.9148 H   0  0  0  0  0  0  0  0  0  0  0  0
   61.4347   28.6097   47.9148 H   0  0  0  0  0  0  0  0  0  0  0  0
   58.7979   26.0333   48.3705 H   0  0  0  0  0  0  0  0  0  0  0  0
   55.1440   22.7700   48.5499 H   0  0  0  0  0  0  0  0  0  0  0  0
   52.9281   21.9041   47.8025 H   0  0  0  0  0  0  0  0  0  0  0  0
   50.5312   22.7433   47.5734 H   0  0  0  0  0  0  0  0  0  0  0  0
   49.9430   23.9661   46.3964 H   0  0  0  0  0  0  0  0  0  0  0  0
   49.2449   22.3110   46.3964 H   0  0  0  0  0  0  0  0  0  0  0  0
   53.2837   24.1650   44.1278 H   0  0  0  0  0  0  0  0  0  0  0  0
   55.4923   25.0406   44.8793 H   0  0  0  0  0  0  0  0  0  0  0  0
   57.0303   27.8202   43.6236 H   0  0  0  0  0  0  0  0  0  0  0  0
   56.5898   29.8569   45.8530 H   0  0  0  0  0  0  0  0  0  0  0  0
   55.3460   28.8522   45.0036 H   0  0  0  0  0  0  0  0  0  0  0  0
   55.5261   31.2653   44.2263 H   0  0  0  0  0  0  0  0  0  0  0  0
   55.7102   29.9721   42.9446 H   0  0  0  0  0  0  0  0  0  0  0  0
   57.6554   30.7897   42.3111 H   0  0  0  0  0  0  0  0  0  0  0  0
   60.0283   34.1701   45.8616 H   0  0  0  0  0  0  0  0  0  0  0  0
   61.4322   34.7676   47.8317 H   0  0  0  0  0  0  0  0  0  0  0  0
   60.7625   34.0318   50.1184 H   0  0  0  0  0  0  0  0  0  0  0  0
   58.4261   30.8665   53.5837 H   0  0  0  0  0  0  0  0  0  0  0  0
   59.5235   29.6019   52.9333 H   0  0  0  0  0  0  0  0  0  0  0  0
   60.0370   31.3232   52.9333 H   0  0  0  0  0  0  0  0  0  0  0  0
   57.2621   32.0936   48.4654 H   0  0  0  0  0  0  0  0  0  0  0  0
   58.6304   30.8813   45.2000 H   0  0  0  0  0  0  0  0  0  0  0  0
   59.6285   30.9128   43.6913 H   0  0  0  0  0  0  0  0  0  0  0  0
   59.5066   28.6626   44.8532 H   0  0  0  0  0  0  0  0  0  0  0  0
   58.9704   28.6960   43.1074 H   0  0  0  0  0  0  0  0  0  0  0  0
  1  2  1  0
  2  3  1  0
  2  4  1  0
  4  5  2  0
  5  6  1  0
  6  7  2  3
  7  8  1  0
  8  9  2  0
  9 10  1  0
 10 11  2  0
 11 12  1  0
 12 13  1  0
 12 14  2  0
 12 15  2  0
 11 16  1  0
 16 17  2  0
  6 18  1  0
 18 19  1  0
 19 20  1  0
 20 21  1  0
 21 22  1  0
 22 23  1  0
 23 24  1  0
 24 25  1  0
 25 26  2  0
 25 27  1  0
 27 28  1  0
 28 29  2  0
 29 30  1  0
 30 31  2  0
 31 32  1  0
 32 33  1  0
 33 34  1  0
 34 35  1  0
 34 36  2  0
 34 37  2  0
 32 38  2  0
 23 39  1  0
 39 40  1  0
 19  4  1  0
 40 20  1  0
 17  8  1  0
 38 28  1  0
  1 41  1  0
  1 42  1  0
  1 43  1  0
  2 44  1  0
  3 45  1  0
  3 46  1  0
  3 47  1  0
  5 48  1  0
  9 49  1  0
 10 50  1  0
 13 51  1  0
 13 52  1  0
 13 53  1  0
 16 54  1  0
 17 55  1  0
 20 56  1  6
 21 57  1  0
 21 58  1  0
 22 59  1  0
 22 60  1  0
 23 61  1  6
 29 62  1  0
 30 63  1  0
 31 64  1  0
 35 65  1  0
 35 66  1  0
 35 67  1  0
 38 68  1  0
 39 69  1  0
 39 70  1  0
 40 71  1  0
 40 72  1  0
M  CHG  3  18  -1  27  -1  33  -1
M  END
>  <UniqueID>  (28) 
27

>  <SMILES>  (28) 
CC(C)c1cc(=Nc2ccc(S(C)(=O)=O)cc2)[n-]n1C1CCC(OC(=O)[N-]c2cccc([N-]S(C)(=O)=O)c2)CC1

>  <Energy>  (28) 
114.05116457590246

>  <Genealogy>  (28) 
CC(C)c1cc(=Nc2ccc(S(C)(=O)=O)cc2)[n-]n1C1CCC(OC(=O)[N-]c2cccc([N-]S(C)(=O)=O)c2)CC1 (protonated)
CC(C)c1cc(=Nc2ccc(S(C)(=O)=O)cc2)[n-]n1C1CCC(OC(=O)[N-]c2cccc([N-]S(C)(=O)=O)c2)CC1 (3D coordinates assigned)
CC(C)c1cc(=Nc2ccc(S(C)(=O)=O)cc2)[n-]n1C1CCC(OC(=O)[N-]c2cccc([N-]S(C)(=O)=O)c2)CC1 (nonaromatic ring conformer: 114.05116457590246 kcal/mol)

>  <smiles>  (28) 
CC(C)c1cc(=Nc2ccc(S(C)(=O)=O)cc2)[nH]n1C1CCC(OC(=O)Nc2cccc(NS(C)(=O)=O)c2)CC1

>  <score_type>  (28) 
oracle

>  <origin>  (28) 
adg

>  <m_score__min__energy>  (28) 
-14.779999999999999

>  <m_primary>  (28) 
energy

$$$$
28:0
     RDKit          3D

 58 60  0  0  0  0  0  0  0  0999 V2000
   57.3970   31.6970   42.3540 C   0  0  0  0  0  0  0  0  0  0  0  0
   56.7410   30.5770   43.1440 C   0  0  0  0  0  0  0  0  0  0  0  0
   56.5190   31.0070   44.4870 O   0  0  0  0  0  0  0  0  0  0  0  0
   57.3630   31.8840   45.1850 C   0  0  0  0  0  0  0  0  0  0  0  0
   56.8390   33.1030   45.6280 C   0  0  0  0  0  0  0  0  0  0  0  0
   57.6450   34.0170   46.3100 C   0  0  0  0  0  0  0  0  0  0  0  0
   58.9820   33.7100   46.5810 C   0  0  0  0  0  0  0  0  0  0  0  0
   60.0190   34.8860   47.4510 S   0  0  0  0  0  0  0  0  0  0  0  0
   61.3470   33.7020   47.7260 C   0  0  0  0  0  0  0  0  0  0  0  0
   62.5350   33.8380   46.9940 C   0  0  0  0  0  0  0  0  0  0  0  0
   63.5750   32.9200   47.1610 C   0  0  0  0  0  0  0  0  0  0  0  0
   63.4400   31.8670   48.0660 C   0  0  0  0  0  0  0  0  0  0  0  0
   62.2720   31.7390   48.8210 C   0  0  0  0  0  0  0  0  0  0  0  0
   61.2200   32.6540   48.6610 C   0  0  0  0  0  0  0  0  0  0  0  0
   60.0560   32.5430   49.4920 N   0  0  0  0  0  0  0  0  0  0  0  0
   58.8980   31.7650   49.0430 C   0  0  0  0  0  0  0  0  0  0  0  0
   58.2410   31.0650   50.1960 C   0  0  0  0  0  0  0  0  0  0  0  0
   58.6360   29.9120   50.5250 O   0  0  0  0  0  0  0  0  0  0  0  0
   57.2210   31.7330   50.9570 N   0  0  0  0  0  0  0  0  0  0  0  0
   56.5620   31.1550   52.0980 C   0  0  0  0  0  0  0  0  0  0  0  0
   57.2590   31.0460   53.3120 C   0  0  0  0  0  0  0  0  0  0  0  0
   56.6330   30.5100   54.4420 C   0  0  0  0  0  0  0  0  0  0  0  0
   55.3020   30.0900   54.3740 C   0  0  0  0  0  0  0  0  0  0  0  0
   54.5870   30.1980   53.1690 C   0  0  0  0  0  0  0  0  0  0  0  0
   53.1390   29.8060   53.1140 C   0  0  0  0  0  0  0  0  0  0  0  0
   55.2150   30.7510   52.0380 C   0  0  0  0  0  0  0  0  0  0  0  0
   60.1160   33.1870   51.1080 S   0  0  0  0  0  0  0  0  0  0  0  0
   60.4550   31.8820   52.2700 C   0  0  0  0  0  0  0  0  0  0  0  0
   58.8050   33.8410   51.4450 O   0  0  0  0  0  0  0  0  0  0  0  0
   61.2060   34.2190   51.2050 O   0  0  0  0  0  0  0  0  0  0  0  0
   59.5170   32.4940   46.1390 C   0  0  0  0  0  0  0  0  0  0  0  0
   58.7150   31.5840   45.4440 C   0  0  0  0  0  0  0  0  0  0  0  0
   57.8278   32.4325   43.0493 H   0  0  0  0  0  0  0  0  0  0  0  0
   58.1940   31.2807   41.7204 H   0  0  0  0  0  0  0  0  0  0  0  0
   56.6440   32.1886   41.7204 H   0  0  0  0  0  0  0  0  0  0  0  0
   55.7789   30.3155   42.6792 H   0  0  0  0  0  0  0  0  0  0  0  0
   57.3996   29.6959   43.1458 H   0  0  0  0  0  0  0  0  0  0  0  0
   55.7827   33.3438   45.4375 H   0  0  0  0  0  0  0  0  0  0  0  0
   57.2269   34.9812   46.6349 H   0  0  0  0  0  0  0  0  0  0  0  0
   62.6488   34.6712   46.2850 H   0  0  0  0  0  0  0  0  0  0  0  0
   64.5016   33.0277   46.5780 H   0  0  0  0  0  0  0  0  0  0  0  0
   64.2541   31.1369   48.1851 H   0  0  0  0  0  0  0  0  0  0  0  0
   62.1761   30.9165   49.5450 H   0  0  0  0  0  0  0  0  0  0  0  0
   58.1706   32.4421   48.5715 H   0  0  0  0  0  0  0  0  0  0  0  0
   59.2422   31.0077   48.3232 H   0  0  0  0  0  0  0  0  0  0  0  0
   57.0410   32.7430   50.7530 H   0  0  0  0  0  0  0  0  0  0  0  0
   58.3038   31.3843   53.3747 H   0  0  0  0  0  0  0  0  0  0  0  0
   57.1897   30.4189   55.3864 H   0  0  0  0  0  0  0  0  0  0  0  0
   54.8123   29.6735   55.2666 H   0  0  0  0  0  0  0  0  0  0  0  0
   52.7486   29.7003   54.1370 H   0  0  0  0  0  0  0  0  0  0  0  0
   52.5690   30.5822   52.5824 H   0  0  0  0  0  0  0  0  0  0  0  0
   53.0383   28.8483   52.5824 H   0  0  0  0  0  0  0  0  0  0  0  0
   54.6501   30.8683   51.1015 H   0  0  0  0  0  0  0  0  0  0  0  0
   60.3546   32.2685   53.2950 H   0  0  0  0  0  0  0  0  0  0  0  0
   59.7407   31.0597   52.1166 H   0  0  0  0  0  0  0  0  0  0  0  0
   61.4792   31.5113   52.1166 H   0  0  0  0  0  0  0  0  0  0  0  0
   60.5716   32.2539   46.3392 H   0  0  0  0  0  0  0  0  0  0  0  0
   59.1409   30.6306   45.0982 H   0  0  0  0  0  0  0  0  0  0  0  0
  1  2  1  0
  2  3  1  0
  3  4  1  0
  4  5  2  0
  5  6  1  0
  6  7  2  0
  7  8  1  0
  8  9  1  0
  9 10  2  0
 10 11  1  0
 11 12  2  0
 12 13  1  0
 13 14  2  0
 14 15  1  0
 15 16  1  0
 16 17  1  0
 17 18  2  0
 17 19  1  0
 19 20  1  0
 20 21  2  0
 21 22  1  0
 22 23  2  0
 23 24  1  0
 24 25  1  0
 24 26  2  0
 15 27  1  0
 27 28  1  0
 27 29  2  0
 27 30  2  0
  7 31  1  0
 31 32  2  0
 32  4  1  0
 14  9  1  0
 26 20  1  0
  1 33  1  0
  1 34  1  0
  1 35  1  0
  2 36  1  0
  2 37  1  0
  5 38  1  0
  6 39  1  0
 10 40  1  0
 11 41  1  0
 12 42  1  0
 13 43  1  0
 16 44  1  0
 16 45  1  0
 19 46  1  0
 21 47  1  0
 22 48  1  0
 23 49  1  0
 25 50  1  0
 25 51  1  0
 25 52  1  0
 26 53  1  0
 28 54  1  0
 28 55  1  0
 28 56  1  0
 31 57  1  0
 32 58  1  0
M  END
>  <UniqueID>  (29) 
28

>  <SMILES>  (29) 
CCOc1ccc(Sc2ccccc2N(CC(=O)Nc2cccc(C)c2)S(C)(=O)=O)cc1

>  <Energy>  (29) 
54.882130129263636

>  <Genealogy>  (29) 
CCOc1ccc(Sc2ccccc2N(CC(=O)Nc2cccc(C)c2)S(C)(=O)=O)cc1 (3D coordinates assigned)
CCOc1ccc(Sc2ccccc2N(CC(=O)Nc2cccc(C)c2)S(C)(=O)=O)cc1 (optimized conformer: 54.882130129263636 kcal/mol)

>  <smiles>  (29) 
CCOc1ccc(Sc2ccccc2N(CC(=O)Nc2cccc(C)c2)S(C)(=O)=O)cc1

>  <score_type>  (29) 
oracle

>  <origin>  (29) 
adg

>  <m_score__min__energy>  (29) 
-8.3900000000000006

>  <m_primary>  (29) 
energy

$$$$
29:0
     RDKit          3D

 50 52  0  0  0  0  0  0  0  0999 V2000
   60.7478   26.6860   47.2959 H   0  0  0  0  0  0  0  0  0  0  0  0
   59.9020   27.2410   46.8640 C   0  0  0  0  0  0  0  0  0  0  0  0
   58.6790   26.6520   46.7720 N   0  0  0  0  0  0  0  0  0  0  0  0
   57.5950   27.3040   46.2630 C   0  0  0  0  0  0  0  0  0  0  0  0
   56.4450   26.7000   46.1440 N   0  0  0  0  0  0  0  0  0  0  0  0
   56.1890   25.3640   45.6740 C   0  0  0  0  0  0  0  0  0  0  0  0
   57.2660   24.5980   45.2260 C   0  0  0  0  0  0  0  0  0  0  0  0
   58.2845   25.0109   45.2722 H   0  0  0  0  0  0  0  0  0  0  0  0
   57.0640   23.3160   44.7210 C   0  0  0  0  0  0  0  0  0  0  0  0
   57.9270   22.7209   44.3876 H   0  0  0  0  0  0  0  0  0  0  0  0
   55.7670   22.7720   44.6320 C   0  0  0  0  0  0  0  0  0  0  0  0
   55.5640   21.4690   44.1520 O   0  0  0  0  0  0  0  0  0  0  0  0
   56.3910   20.3490   44.4490 C   0  0  0  0  0  0  0  0  0  0  0  0
   56.4755   20.2346   45.5398 H   0  0  0  0  0  0  0  0  0  0  0  0
   55.9458   19.4400   44.0184 H   0  0  0  0  0  0  0  0  0  0  0  0
   57.3908   20.5070   44.0184 H   0  0  0  0  0  0  0  0  0  0  0  0
   54.6620   23.5640   45.0330 C   0  0  0  0  0  0  0  0  0  0  0  0
   53.3220   23.1440   44.9420 O   0  0  0  0  0  0  0  0  0  0  0  0
   52.1780   23.9850   44.8450 C   0  0  0  0  0  0  0  0  0  0  0  0
   51.8263   24.2435   45.8547 H   0  0  0  0  0  0  0  0  0  0  0  0
   52.4437   24.9044   44.3027 H   0  0  0  0  0  0  0  0  0  0  0  0
   51.3798   23.4571   44.3027 H   0  0  0  0  0  0  0  0  0  0  0  0
   54.8880   24.8490   45.5430 C   0  0  0  0  0  0  0  0  0  0  0  0
   54.0303   25.4671   45.8469 H   0  0  0  0  0  0  0  0  0  0  0  0
   57.7420   28.6300   45.7970 C   0  0  0  0  0  0  0  0  0  0  0  0
   56.6050   29.3810   45.2290 C   0  0  0  0  0  0  0  0  0  0  0  0
   55.5820   28.7550   44.8600 O   0  0  0  0  0  0  0  0  0  0  0  0
   56.6420   30.8090   45.0720 N   0  0  0  0  0  0  0  0  0  0  0  0
   57.7220   31.5600   44.4290 C   0  0  0  0  0  0  0  0  0  0  0  0
   57.3007   32.1724   43.6182 H   0  0  0  0  0  0  0  0  0  0  0  0
   58.4566   30.8445   44.0309 H   0  0  0  0  0  0  0  0  0  0  0  0
   58.4180   32.4620   45.4170 C   0  0  0  0  0  0  0  0  0  0  0  0
   58.4280   32.1410   46.7840 C   0  0  0  0  0  0  0  0  0  0  0  0
   57.9306   31.2248   47.1350 H   0  0  0  0  0  0  0  0  0  0  0  0
   59.0660   32.9790   47.6990 C   0  0  0  0  0  0  0  0  0  0  0  0
   59.0591   32.7228   48.7687 H   0  0  0  0  0  0  0  0  0  0  0  0
   59.7140   34.1410   47.2700 C   0  0  0  0  0  0  0  0  0  0  0  0
   60.3480   34.9430   48.2300 O   0  0  0  0  0  0  0  0  0  0  0  0
   61.3700   34.4910   49.1150 C   0  0  0  0  0  0  0  0  0  0  0  0
   61.0440   34.6352   50.1557 H   0  0  0  0  0  0  0  0  0  0  0  0
   61.5640   33.4231   48.9361 H   0  0  0  0  0  0  0  0  0  0  0  0
   62.2906   35.0659   48.9361 H   0  0  0  0  0  0  0  0  0  0  0  0
   59.7140   34.4610   45.8960 C   0  0  0  0  0  0  0  0  0  0  0  0
   60.2203   35.3726   45.5457 H   0  0  0  0  0  0  0  0  0  0  0  0
   59.0730   33.6240   44.9780 C   0  0  0  0  0  0  0  0  0  0  0  0
   59.0817   33.8766   43.9074 H   0  0  0  0  0  0  0  0  0  0  0  0
   59.0020   29.2420   45.8670 C   0  0  0  0  0  0  0  0  0  0  0  0
   59.1369   30.2678   45.4934 H   0  0  0  0  0  0  0  0  0  0  0  0
   60.0850   28.5490   46.4110 C   0  0  0  0  0  0  0  0  0  0  0  0
   61.0724   29.0285   46.4820 H   0  0  0  0  0  0  0  0  0  0  0  0
  1  2  1  0
  2  3  1  0
  3  4  1  0
  4  5  2  0
  5  6  1  0
  6  7  2  0
  7  8  1  0
  7  9  1  0
  9 10  1  0
  9 11  2  0
 11 12  1  0
 12 13  1  0
 13 14  1  0
 13 15  1  0
 13 16  1  0
 11 17  1  0
 17 18  1  0
 18 19  1  0
 19 20  1  0
 19 21  1  0
 19 22  1  0
 17 23  2  0
 23 24  1  0
  4 25  1  0
 25 26  1  0
 26 27  2  0
 26 28  1  0
 28 29  1  0
 29 30  1  0
 29 31  1  0
 29 32  1  0
 32 33  2  0
 33 34  1  0
 33 35  1  0
 35 36  1  0
 35 37  2  0
 37 38  1  0
 38 39  1  0
 39 40  1  0
 39 41  1  0
 39 42  1  0
 37 43  1  0
 43 44  1  0
 43 45  2  0
 45 46  1  0
 25 47  2  0
 47 48  1  0
 47 49  1  0
 49 50  1  0
 49  2  2  0
 23  6  1  0
 45 32  1  0
M  CHG  2   3  -1  28  -1
M  END
>  <UniqueID>  (30) 
29

>  <SMILES>  (30) 
COc1ccc(C[N-]C(=O)c2ccc[n-]/c2=N\c2ccc(OC)c(OC)c2)cc1

>  <Energy>  (30) 
63.87883911264284

>  <Genealogy>  (30) 
COc1ccc(C[N-]C(=O)c2ccc[n-]c2=Nc2ccc(OC)c(OC)c2)cc1 (protonated)
COc1ccc(C[N-]C(=O)c2ccc[n-]/c2=N\c2ccc(OC)c(OC)c2)cc1 (cis-trans isomerization)
COc1ccc(C[N-]C(=O)c2ccc[n-]/c2=N\c2ccc(OC)c(OC)c2)cc1 (3D coordinates assigned)
COc1ccc(C[N-]C(=O)c2ccc[n-]/c2=N\c2ccc(OC)c(OC)c2)cc1 (optimized conformer: 63.87883911264284 kcal/mol)

>  <smiles>  (30) 
COc1ccc(CNC(=O)c2ccc[nH]c2=Nc2ccc(OC)c(OC)c2)cc1

>  <score_type>  (30) 
oracle

>  <origin>  (30) 
adg

>  <m_score__min__energy>  (30) 
-11.359999999999999

>  <m_primary>  (30) 
energy

$$$$
30:0
     RDKit          3D

 43 45  0  0  0  0  0  0  0  0999 V2000
   57.4830   33.3910   46.6610 O   0  0  0  0  0  0  0  0  0  0  0  0
   58.2690   33.4030   45.6770 C   0  0  0  0  0  0  0  0  0  0  0  0
   59.0100   34.6610   45.3380 C   0  0  0  0  0  0  0  0  0  0  0  0
   59.9780   35.0700   46.4570 C   0  0  0  0  0  0  0  0  0  0  0  0
   60.4690   33.8960   47.2010 N   0  0  0  0  0  0  0  0  0  0  0  0
   59.6830   33.3340   48.1320 N   0  0  0  0  0  0  0  0  0  0  0  0
   60.0610   32.2150   48.8220 C   0  0  0  0  0  0  0  0  0  0  0  0
   59.1590   31.6040   49.8360 C   0  0  0  0  0  0  0  0  0  0  0  0
   58.1610   32.3710   50.4700 C   0  0  0  0  0  0  0  0  0  0  0  0
   57.3330   31.7950   51.4400 C   0  0  0  0  0  0  0  0  0  0  0  0
   57.4890   30.4520   51.7870 C   0  0  0  0  0  0  0  0  0  0  0  0
   58.4680   29.6790   51.1620 C   0  0  0  0  0  0  0  0  0  0  0  0
   59.2940   30.2480   50.1880 C   0  0  0  0  0  0  0  0  0  0  0  0
   61.3080   31.6420   48.5460 C   0  0  0  0  0  0  0  0  0  0  0  0
   62.1330   32.2250   47.5950 C   0  0  0  0  0  0  0  0  0  0  0  0
   61.7010   33.3630   46.9210 C   0  0  0  0  0  0  0  0  0  0  0  0
   62.4540   33.8890   46.0550 O   0  0  0  0  0  0  0  0  0  0  0  0
   58.4440   32.2440   44.8510 N   0  0  0  0  0  0  0  0  0  0  0  0
   57.9620   30.9100   45.0750 C   0  0  0  0  0  0  0  0  0  0  0  0
   56.7840   30.4180   44.4820 C   0  0  0  0  0  0  0  0  0  0  0  0
   56.3230   29.1330   44.7900 C   0  0  0  0  0  0  0  0  0  0  0  0
   57.0240   28.3210   45.6970 C   0  0  0  0  0  0  0  0  0  0  0  0
   56.5230   26.9690   46.0290 C   0  0  0  0  0  0  0  0  0  0  0  0
   57.3250   26.0510   46.3510 O   0  0  0  0  0  0  0  0  0  0  0  0
   55.1620   26.6920   45.9910 O   0  0  0  0  0  0  0  0  0  0  0  0
   58.1960   28.8180   46.2900 C   0  0  0  0  0  0  0  0  0  0  0  0
   58.6540   30.1030   45.9830 C   0  0  0  0  0  0  0  0  0  0  0  0
   59.5828   34.4989   44.4130 H   0  0  0  0  0  0  0  0  0  0  0  0
   58.2738   35.4682   45.2100 H   0  0  0  0  0  0  0  0  0  0  0  0
   60.8358   35.5965   46.0131 H   0  0  0  0  0  0  0  0  0  0  0  0
   59.4388   35.7232   47.1588 H   0  0  0  0  0  0  0  0  0  0  0  0
   58.7560   33.7680   48.3460 H   0  0  0  0  0  0  0  0  0  0  0  0
   58.0320   33.4297   50.2005 H   0  0  0  0  0  0  0  0  0  0  0  0
   56.5575   32.4019   51.9301 H   0  0  0  0  0  0  0  0  0  0  0  0
   56.8400   30.0030   52.5533 H   0  0  0  0  0  0  0  0  0  0  0  0
   58.5901   28.6207   51.4359 H   0  0  0  0  0  0  0  0  0  0  0  0
   60.0568   29.6299   49.6920 H   0  0  0  0  0  0  0  0  0  0  0  0
   61.6315   30.7360   49.0793 H   0  0  0  0  0  0  0  0  0  0  0  0
   63.1199   31.7914   47.3758 H   0  0  0  0  0  0  0  0  0  0  0  0
   56.2236   31.0460   43.7737 H   0  0  0  0  0  0  0  0  0  0  0  0
   55.4039   28.7556   44.3179 H   0  0  0  0  0  0  0  0  0  0  0  0
   58.7570   28.1927   47.0002 H   0  0  0  0  0  0  0  0  0  0  0  0
   59.5688   30.4831   46.4612 H   0  0  0  0  0  0  0  0  0  0  0  0
  1  2  2  0
  2  3  1  0
  3  4  1  0
  4  5  1  0
  5  6  1  0
  6  7  2  0
  7  8  1  0
  8  9  2  0
  9 10  1  0
 10 11  2  0
 11 12  1  0
 12 13  2  0
  7 14  1  0
 14 15  2  0
 15 16  1  0
 16 17  2  0
  2 18  1  0
 18 19  1  0
 19 20  2  0
 20 21  1  0
 21 22  2  0
 22 23  1  0
 23 24  2  0
 23 25  1  0
 22 26  1  0
 26 27  2  0
 16  5  1  0
 27 19  1  0
 13  8  1  0
  3 28  1  0
  3 29  1  0
  4 30  1  0
  4 31  1  0
  6 32  1  0
  9 33  1  0
 10 34  1  0
 11 35  1  0
 12 36  1  0
 13 37  1  0
 14 38  1  0
 15 39  1  0
 20 40  1  0
 21 41  1  0
 26 42  1  0
 27 43  1  0
M  CHG  3   6   1  18  -1  25  -1
M  END
>  <UniqueID>  (31) 
30

>  <SMILES>  (31) 
O=C(CCn1[nH+]c(-c2ccccc2)ccc1=O)[N-]c1ccc(C(=O)[O-])cc1

>  <Energy>  (31) 
50.103674578570825

>  <Genealogy>  (31) 
O=C(CCn1[nH+]c(-c2ccccc2)ccc1=O)[N-]c1ccc(C(=O)[O-])cc1 (protonated)
O=C(CCn1[nH+]c(-c2ccccc2)ccc1=O)[N-]c1ccc(C(=O)[O-])cc1 (3D coordinates assigned)
O=C(CCn1[nH+]c(-c2ccccc2)ccc1=O)[N-]c1ccc(C(=O)[O-])cc1 (optimized conformer: 50.103674578570825 kcal/mol)

>  <smiles>  (31) 
O=C(CCn1nc(-c2ccccc2)ccc1=O)Nc1ccc(C(=O)O)cc1

>  <score_type>  (31) 
oracle

>  <origin>  (31) 
adg

>  <m_score__min__energy>  (31) 
-10.26

>  <m_primary>  (31) 
energy

$$$$
31:0
     RDKit          3D

 29 30  0  0  0  0  0  0  0  0999 V2000
   55.8990   25.0340   46.6620 O   0  0  0  0  0  0  0  0  0  0  0  0
   56.3780   26.1000   46.1940 C   0  0  0  0  0  0  0  0  0  0  0  0
   55.5480   27.0800   45.7570 N   0  0  0  0  0  0  0  0  0  0  0  0
   56.0380   28.2400   45.2480 C   0  0  0  0  0  0  0  0  0  0  0  0
   55.1500   29.2140   44.8050 O   0  0  0  0  0  0  0  0  0  0  0  0
   57.4270   28.4460   45.1720 C   0  0  0  0  0  0  0  0  0  0  0  0
   57.9870   29.7450   44.6230 C   0  0  0  0  0  0  0  0  0  0  0  0
   56.9280   30.7410   44.3720 N   0  0  0  0  0  0  0  0  0  0  0  0
   57.4520   32.1040   44.1650 C   0  0  0  0  0  0  0  0  0  0  0  0
   58.0880   32.6620   45.4180 C   0  0  0  0  0  0  0  0  0  0  0  0
   58.0250   31.9550   46.6300 C   0  0  0  0  0  0  0  0  0  0  0  0
   58.6240   32.4740   47.7820 C   0  0  0  0  0  0  0  0  0  0  0  0
   59.2860   33.7050   47.7350 C   0  0  0  0  0  0  0  0  0  0  0  0
   60.0370   34.3540   49.1810 Cl  0  0  0  0  0  0  0  0  0  0  0  0
   59.3470   34.4190   46.5340 C   0  0  0  0  0  0  0  0  0  0  0  0
   58.7490   33.9010   45.3800 C   0  0  0  0  0  0  0  0  0  0  0  0
   58.2640   27.4070   45.6240 C   0  0  0  0  0  0  0  0  0  0  0  0
   59.5180   27.5170   45.5680 O   0  0  0  0  0  0  0  0  0  0  0  0
   57.7210   26.2670   46.1240 N   0  0  0  0  0  0  0  0  0  0  0  0
   58.6997   30.1602   45.3508 H   0  0  0  0  0  0  0  0  0  0  0  0
   58.4800   29.5244   43.6647 H   0  0  0  0  0  0  0  0  0  0  0  0
   56.3770   30.4430   43.5320 H   0  0  0  0  0  0  0  0  0  0  0  0
   56.2580   30.7600   45.1760 H   0  0  0  0  0  0  0  0  0  0  0  0
   58.2068   32.0768   43.3653 H   0  0  0  0  0  0  0  0  0  0  0  0
   56.6081   32.7551   43.8931 H   0  0  0  0  0  0  0  0  0  0  0  0
   57.5019   30.9883   46.6732 H   0  0  0  0  0  0  0  0  0  0  0  0
   58.5744   31.9130   48.7269 H   0  0  0  0  0  0  0  0  0  0  0  0
   59.8654   35.3884   46.4966 H   0  0  0  0  0  0  0  0  0  0  0  0
   58.7967   34.4669   44.4380 H   0  0  0  0  0  0  0  0  0  0  0  0
  1  2  2  0
  2  3  1  0
  3  4  1  0
  4  5  1  0
  4  6  2  0
  6  7  1  0
  7  8  1  0
  8  9  1  0
  9 10  1  0
 10 11  2  0
 11 12  1  0
 12 13  2  0
 13 14  1  0
 13 15  1  0
 15 16  2  0
  6 17  1  0
 17 18  2  0
 17 19  1  0
 19  2  1  0
 16 10  1  0
  7 20  1  0
  7 21  1  0
  8 22  1  0
  8 23  1  0
  9 24  1  0
  9 25  1  0
 11 26  1  0
 12 27  1  0
 15 28  1  0
 16 29  1  0
M  CHG  4   3  -1   5  -1   8   1  19  -1
M  END
>  <UniqueID>  (32) 
31

>  <SMILES>  (32) 
O=c1[n-]c([O-])c(C[NH2+]Cc2ccc(Cl)cc2)c(=O)[n-]1

>  <Energy>  (32) 
33.36284282637058

>  <Genealogy>  (32) 
O=c1[n-]c([O-])c(C[NH2+]Cc2ccc(Cl)cc2)c(=O)[n-]1 (protonated)
O=c1[n-]c([O-])c(C[NH2+]Cc2ccc(Cl)cc2)c(=O)[n-]1 (3D coordinates assigned)
O=c1[n-]c([O-])c(C[NH2+]Cc2ccc(Cl)cc2)c(=O)[n-]1 (optimized conformer: 33.36284282637058 kcal/mol)

>  <smiles>  (32) 
O=c1[nH]c(O)c(CNCc2ccc(Cl)cc2)c(=O)[nH]1

>  <score_type>  (32) 
oracle

>  <origin>  (32) 
adg

>  <m_score__min__energy>  (32) 
-12.41

>  <m_primary>  (32) 
energy

$$$$
32:0
     RDKit          3D

 43 47  0  0  0  0  0  0  0  0999 V2000
   53.0517   32.2090   53.0421 H   0  0  0  0  0  0  0  0  0  0  0  0
   53.1390   31.3520   52.3580 C   0  0  0  0  0  0  0  0  0  0  0  0
   52.3100   31.3780   51.1380 C   0  0  0  0  0  0  0  0  0  0  0  0
   52.2940   30.4310   50.1820 N   0  0  0  0  0  0  0  0  0  0  0  0
   51.3260   30.8490   49.3390 C   0  0  0  0  0  0  0  0  0  0  0  0
   51.0180   30.2180   48.2950 O   0  0  0  0  0  0  0  0  0  0  0  0
   50.7080   31.9910   49.7090 N   0  0  0  0  0  0  0  0  0  0  0  0
   51.3360   32.3060   50.8540 C   0  0  0  0  0  0  0  0  0  0  0  0
   51.0240   33.4180   51.6250 O   0  0  0  0  0  0  0  0  0  0  0  0
   53.9910   30.3740   52.7070 C   0  0  0  0  0  0  0  0  0  0  0  0
   53.6910   29.3080   53.5510 C   0  0  0  0  0  0  0  0  0  0  0  0
   52.7098   29.1295   54.0151 H   0  0  0  0  0  0  0  0  0  0  0  0
   54.7810   28.5230   53.7180 N   0  0  0  0  0  0  0  0  0  0  0  0
   55.7620   29.0640   53.0130 N   0  0  0  0  0  0  0  0  0  0  0  0
   57.0590   28.6530   52.8970 C   0  0  0  0  0  0  0  0  0  0  0  0
   57.5220   27.5770   53.4670 N   0  0  0  0  0  0  0  0  0  0  0  0
   58.0150   27.4610   54.8360 C   0  0  0  0  0  0  0  0  0  0  0  0
   58.9647   26.9535   54.6112 H   0  0  0  0  0  0  0  0  0  0  0  0
   56.8930   27.2770   55.8410 C   0  0  0  0  0  0  0  0  0  0  0  0
   55.8535   27.1823   55.4939 H   0  0  0  0  0  0  0  0  0  0  0  0
   56.6858   26.5662   56.6545 H   0  0  0  0  0  0  0  0  0  0  0  0
   57.6110   28.6140   55.7370 C   0  0  0  0  0  0  0  0  0  0  0  0
   57.0910   29.4864   55.3145 H   0  0  0  0  0  0  0  0  0  0  0  0
   58.1386   29.2712   56.4439 H   0  0  0  0  0  0  0  0  0  0  0  0
   57.9010   29.4130   52.1440 N   0  0  0  0  0  0  0  0  0  0  0  0
   57.4630   30.5530   51.5310 C   0  0  0  0  0  0  0  0  0  0  0  0
   58.2950   31.2550   50.8250 N   0  0  0  0  0  0  0  0  0  0  0  0
   58.5390   31.0410   49.4000 C   0  0  0  0  0  0  0  0  0  0  0  0
   59.4214   30.3969   49.2713 H   0  0  0  0  0  0  0  0  0  0  0  0
   57.6627   30.5554   48.9458 H   0  0  0  0  0  0  0  0  0  0  0  0
   58.7820   32.3620   48.7330 C   0  0  0  0  0  0  0  0  0  0  0  0
   59.5660   33.3420   49.3660 C   0  0  0  0  0  0  0  0  0  0  0  0
   59.9817   33.1501   50.3662 H   0  0  0  0  0  0  0  0  0  0  0  0
   59.8190   34.5600   48.7280 C   0  0  0  0  0  0  0  0  0  0  0  0
   60.4271   35.3268   49.2302 H   0  0  0  0  0  0  0  0  0  0  0  0
   59.3010   34.8050   47.4540 C   0  0  0  0  0  0  0  0  0  0  0  0
   59.4965   35.7668   46.9573 H   0  0  0  0  0  0  0  0  0  0  0  0
   58.5340   33.8290   46.8090 C   0  0  0  0  0  0  0  0  0  0  0  0
   57.8940   34.1330   45.2040 Cl  0  0  0  0  0  0  0  0  0  0  0  0
   58.2780   32.6080   47.4450 C   0  0  0  0  0  0  0  0  0  0  0  0
   57.6801   31.8388   46.9343 H   0  0  0  0  0  0  0  0  0  0  0  0
   56.1610   30.9420   51.6660 N   0  0  0  0  0  0  0  0  0  0  0  0
   55.3260   30.1700   52.3990 C   0  0  0  0  0  0  0  0  0  0  0  0
  1  2  1  0
  2  3  1  0
  3  4  1  0
  4  5  1  0
  5  6  2  0
  5  7  1  0
  7  8  1  0
  8  9  1  0
  2 10  2  3
 10 11  1  0
 11 12  1  0
 11 13  2  0
 13 14  1  0
 14 15  1  0
 15 16  2  3
 16 17  1  0
 17 18  1  0
 17 19  1  0
 19 20  1  0
 19 21  1  0
 19 22  1  0
 22 23  1  0
 22 24  1  0
 15 25  1  0
 25 26  1  0
 26 27  2  0
 27 28  1  0
 28 29  1  0
 28 30  1  0
 28 31  1  0
 31 32  2  0
 32 33  1  0
 32 34  1  0
 34 35  1  0
 34 36  2  0
 36 37  1  0
 36 38  1  0
 38 39  1  0
 38 40  2  0
 40 41  1  0
 26 42  1  0
 42 43  2  0
  8  3  2  0
 43 10  1  0
 43 14  1  0
 22 17  1  0
 40 31  1  0
M  CHG  4   4  -1   7  -1   9  -1  25  -1
M  END
>  <UniqueID>  (33) 
32

>  <SMILES>  (33) 
O=c1[n-]c([O-])c(C=c2cnn3c(=NC4CC4)[n-]/c(=N/Cc4cccc(Cl)c4)nc23)[n-]1

>  <Energy>  (33) 
386.1592794559911

>  <Genealogy>  (33) 
O=c1[n-]c([O-])c(C=c2cnn3c(=NC4CC4)[n-]c(=NCc4cccc(Cl)c4)nc23)[n-]1 (protonated)
O=c1[n-]c([O-])c(C=c2cnn3c(=NC4CC4)[n-]/c(=N/Cc4cccc(Cl)c4)nc23)[n-]1 (cis-trans isomerization)
O=c1[n-]c([O-])c(C=c2cnn3c(=NC4CC4)[n-]/c(=N/Cc4cccc(Cl)c4)nc23)[n-]1 (3D coordinates assigned)
O=c1[n-]c([O-])c(C=c2cnn3c(=NC4CC4)[n-]/c(=N/Cc4cccc(Cl)c4)nc23)[n-]1 (nonaromatic ring conformer: 386.1592794559911 kcal/mol)

>  <smiles>  (33) 
O=c1[nH]c(O)c(C=c2cnn3c(=NC4CC4)[nH]c(=NCc4cccc(Cl)c4)nc23)[nH]1

>  <score_type>  (33) 
oracle

>  <origin>  (33) 
adg

>  <m_score__min__energy>  (33) 
-18.68

>  <m_primary>  (33) 
energy

$$$$
33:0
     RDKit          3D

 49 52  0  0  0  0  0  0  0  0999 V2000
   55.5567   29.1719   43.7297 H   0  0  0  0  0  0  0  0  0  0  0  0
   56.1870   30.0700   43.8080 C   0  0  0  0  0  0  0  0  0  0  0  0
   56.2850   30.8350   44.8710 O   0  0  0  0  0  0  0  0  0  0  0  0
   57.1250   31.8110   44.6130 C   0  0  0  0  0  0  0  0  0  0  0  0
   57.4650   32.8620   45.5870 C   0  0  0  0  0  0  0  0  0  0  0  0
   56.7890   33.9250   45.5920 O   0  0  0  0  0  0  0  0  0  0  0  0
   58.5410   32.6890   46.5230 N   0  0  0  0  0  0  0  0  0  0  0  0
   58.9900   31.7530   46.6310 H   0  0  0  0  0  0  0  0  0  0  0  0
   59.0070   33.7730   47.3870 C   0  0  0  0  0  0  0  0  0  0  0  0
   58.8387   34.7343   46.8795 H   0  0  0  0  0  0  0  0  0  0  0  0
   58.4465   33.7312   48.3326 H   0  0  0  0  0  0  0  0  0  0  0  0
   60.5010   33.6270   47.7000 C   0  0  0  0  0  0  0  0  0  0  0  0
   60.9998   34.5891   47.5112 H   0  0  0  0  0  0  0  0  0  0  0  0
   60.6015   33.3290   48.7541 H   0  0  0  0  0  0  0  0  0  0  0  0
   61.1630   32.5460   46.8340 C   0  0  0  0  0  0  0  0  0  0  0  0
   60.6615   32.5077   45.8557 H   0  0  0  0  0  0  0  0  0  0  0  0
   62.2266   32.7946   46.7038 H   0  0  0  0  0  0  0  0  0  0  0  0
   61.0570   31.2400   47.4810 N   0  0  0  0  0  0  0  0  0  0  0  0
   60.4070   30.2310   46.9840 C   0  0  0  0  0  0  0  0  0  0  0  0
   60.0630   30.1380   45.6700 N   0  0  0  0  0  0  0  0  0  0  0  0
   59.4130   28.9610   45.6220 C   0  0  0  0  0  0  0  0  0  0  0  0
   58.8320   28.3640   44.5050 C   0  0  0  0  0  0  0  0  0  0  0  0
   58.8700   28.8472   43.5176 H   0  0  0  0  0  0  0  0  0  0  0  0
   58.1950   27.1220   44.6830 C   0  0  0  0  0  0  0  0  0  0  0  0
   57.7268   26.6197   43.8236 H   0  0  0  0  0  0  0  0  0  0  0  0
   58.1530   26.5160   45.9590 C   0  0  0  0  0  0  0  0  0  0  0  0
   57.6508   25.5456   46.0863 H   0  0  0  0  0  0  0  0  0  0  0  0
   58.7490   27.1450   47.0680 C   0  0  0  0  0  0  0  0  0  0  0  0
   58.7266   26.6823   48.0657 H   0  0  0  0  0  0  0  0  0  0  0  0
   59.3700   28.3780   46.8560 C   0  0  0  0  0  0  0  0  0  0  0  0
   60.0070   29.1720   47.7360 N   0  0  0  0  0  0  0  0  0  0  0  0
   60.1620   28.9870   49.1800 C   0  0  0  0  0  0  0  0  0  0  0  0
   59.4807   28.1932   49.5202 H   0  0  0  0  0  0  0  0  0  0  0  0
   61.2030   28.7055   49.3970 H   0  0  0  0  0  0  0  0  0  0  0  0
   59.8370   30.2650   49.9030 C   0  0  0  0  0  0  0  0  0  0  0  0
   60.8200   30.9270   50.6580 C   0  0  0  0  0  0  0  0  0  0  0  0
   61.8433   30.5253   50.6963 H   0  0  0  0  0  0  0  0  0  0  0  0
   60.5040   32.0940   51.3610 C   0  0  0  0  0  0  0  0  0  0  0  0
   61.2800   32.6111   51.9444 H   0  0  0  0  0  0  0  0  0  0  0  0
   59.2030   32.6040   51.3230 C   0  0  0  0  0  0  0  0  0  0  0  0
   58.8060   34.0630   52.2120 Cl  0  0  0  0  0  0  0  0  0  0  0  0
   58.2170   31.9480   50.5800 C   0  0  0  0  0  0  0  0  0  0  0  0
   57.1932   32.3492   50.5506 H   0  0  0  0  0  0  0  0  0  0  0  0
   58.5310   30.7820   49.8740 C   0  0  0  0  0  0  0  0  0  0  0  0
   57.7515   30.2673   49.2932 H   0  0  0  0  0  0  0  0  0  0  0  0
   57.6010   31.6890   43.3200 C   0  0  0  0  0  0  0  0  0  0  0  0
   58.3149   32.3522   42.8096 H   0  0  0  0  0  0  0  0  0  0  0  0
   56.9950   30.5640   42.8040 C   0  0  0  0  0  0  0  0  0  0  0  0
   57.1283   30.1446   41.7959 H   0  0  0  0  0  0  0  0  0  0  0  0
  1  2  1  0
  2  3  1  0
  3  4  1  0
  4  5  1  0
  5  6  2  0
  5  7  1  0
  7  8  1  0
  7  9  1  0
  9 10  1  0
  9 11  1  0
  9 12  1  0
 12 13  1  0
 12 14  1  0
 12 15  1  0
 15 16  1  0
 15 17  1  0
 15 18  1  0
 18 19  2  0
 19 20  1  0
 20 21  1  0
 21 22  2  0
 22 23  1  0
 22 24  1  0
 24 25  1  0
 24 26  2  0
 26 27  1  0
 26 28  1  0
 28 29  1  0
 28 30  2  0
 30 31  1  0
 31 32  1  0
 32 33  1  0
 32 34  1  0
 32 35  1  0
 35 36  2  0
 36 37  1  0
 36 38  1  0
 38 39  1  0
 38 40  2  0
 40 41  1  0
 40 42  1  0
 42 43  1  0
 42 44  2  0
 44 45  1  0
  4 46  2  0
 46 47  1  0
 46 48  1  0
 48 49  1  0
 48  2  2  0
 31 19  1  0
 44 35  1  0
 30 21  1  0
M  CHG  1  20  -1
M  END
>  <UniqueID>  (34) 
33

>  <SMILES>  (34) 
O=C(NCCC/N=c1\[n-]c2ccccc2n1Cc1ccc(Cl)cc1)c1ccco1

>  <Energy>  (34) 
107.8893229882789

>  <Genealogy>  (34) 
O=C(NCCCN=c1[n-]c2ccccc2n1Cc1ccc(Cl)cc1)c1ccco1 (protonated)
O=C(NCCC/N=c1\[n-]c2ccccc2n1Cc1ccc(Cl)cc1)c1ccco1 (cis-trans isomerization)
O=C(NCCC/N=c1\[n-]c2ccccc2n1Cc1ccc(Cl)cc1)c1ccco1 (3D coordinates assigned)
O=C(NCCC/N=c1\[n-]c2ccccc2n1Cc1ccc(Cl)cc1)c1ccco1 (optimized conformer: 107.8893229882789 kcal/mol)

>  <smiles>  (34) 
O=C(NCCCN=c1[nH]c2ccccc2n1Cc1ccc(Cl)cc1)c1ccco1

>  <score_type>  (34) 
oracle

>  <origin>  (34) 
adg

>  <m_score__min__energy>  (34) 
-9.4299999999999997

>  <m_primary>  (34) 
energy

$$$$
34:0
     RDKit          3D

 55 58  0  0  0  0  0  0  0  0999 V2000
   61.2200   29.7910   51.2230 C   0  0  0  0  0  0  0  0  0  0  0  0
   60.4810   30.1840   50.0190 N   0  0  0  0  0  0  0  0  0  0  0  0
   59.2710   29.4550   49.6300 C   0  0  0  0  0  0  0  0  0  0  0  0
   59.3900   28.9150   48.2300 C   0  0  0  0  0  0  0  0  0  0  0  0
   60.3260   27.9120   47.9390 C   0  0  0  0  0  0  0  0  0  0  0  0
   60.3990   27.3710   46.6530 C   0  0  0  0  0  0  0  0  0  0  0  0
   59.5280   27.8170   45.6530 C   0  0  0  0  0  0  0  0  0  0  0  0
   58.5720   28.8020   45.9310 C   0  0  0  0  0  0  0  0  0  0  0  0
   57.6990   29.2350   44.8750 N   0  0  0  0  0  0  0  0  0  0  0  0
   56.9500   30.4550   44.8270 C   0  0  0  0  0  0  0  0  0  0  0  0
   55.7320   30.4390   44.5060 O   0  0  0  0  0  0  0  0  0  0  0  0
   57.6130   31.7450   45.1180 C   0  0  0  0  0  0  0  0  0  0  0  0
   58.1020   32.5560   44.0750 C   0  0  0  0  0  0  0  0  0  0  0  0
   58.7260   33.7730   44.3550 C   0  0  0  0  0  0  0  0  0  0  0  0
   58.8770   34.1910   45.6810 C   0  0  0  0  0  0  0  0  0  0  0  0
   59.6770   35.7070   46.0330 Cl  0  0  0  0  0  0  0  0  0  0  0  0
   58.4010   33.3930   46.7260 C   0  0  0  0  0  0  0  0  0  0  0  0
   57.7700   32.1780   46.4500 C   0  0  0  0  0  0  0  0  0  0  0  0
   58.5240   29.3670   47.2200 C   0  0  0  0  0  0  0  0  0  0  0  0
   60.6350   31.5320   49.5550 C   0  0  0  0  0  0  0  0  0  0  0  0
   59.9020   32.6400   49.9550 C   0  0  0  0  0  0  0  0  0  0  0  0
   58.7870   32.6590   50.9140 C   0  0  0  0  0  0  0  0  0  0  0  0
   58.7770   33.5160   51.8400 O   0  0  0  0  0  0  0  0  0  0  0  0
   57.7280   31.7030   50.8040 N   0  0  0  0  0  0  0  0  0  0  0  0
   56.9990   30.9420   52.1760 S   0  0  0  0  0  0  0  0  0  0  0  0
   57.9030   31.3480   53.6540 C   0  0  0  0  0  0  0  0  0  0  0  0
   57.0280   29.4560   51.9810 O   0  0  0  0  0  0  0  0  0  0  0  0
   55.5690   31.3930   52.3090 O   0  0  0  0  0  0  0  0  0  0  0  0
   60.3790   33.7470   49.3310 N   0  0  0  0  0  0  0  0  0  0  0  0
   61.3870   33.2700   48.5660 C   0  0  0  0  0  0  0  0  0  0  0  0
   62.2030   34.0270   47.7240 C   0  0  0  0  0  0  0  0  0  0  0  0
   63.2120   33.3510   47.0140 C   0  0  0  0  0  0  0  0  0  0  0  0
   63.3790   31.9590   47.1610 C   0  0  0  0  0  0  0  0  0  0  0  0
   62.5260   31.2480   48.0180 C   0  0  0  0  0  0  0  0  0  0  0  0
   61.5660   31.9410   48.6830 N   0  0  0  0  0  0  0  0  0  0  0  0
   60.6530   30.0926   52.1160 H   0  0  0  0  0  0  0  0  0  0  0  0
   61.3590   28.6998   51.2281 H   0  0  0  0  0  0  0  0  0  0  0  0
   62.2024   30.2858   51.2281 H   0  0  0  0  0  0  0  0  0  0  0  0
   59.1168   28.6174   50.3262 H   0  0  0  0  0  0  0  0  0  0  0  0
   58.4184   30.1492   49.6653 H   0  0  0  0  0  0  0  0  0  0  0  0
   61.0046   27.5502   48.7255 H   0  0  0  0  0  0  0  0  0  0  0  0
   61.1427   26.5929   46.4262 H   0  0  0  0  0  0  0  0  0  0  0  0
   59.5946   27.3909   44.6411 H   0  0  0  0  0  0  0  0  0  0  0  0
   57.9912   32.2275   43.0311 H   0  0  0  0  0  0  0  0  0  0  0  0
   59.0985   34.4025   43.5335 H   0  0  0  0  0  0  0  0  0  0  0  0
   58.5239   33.7231   47.7681 H   0  0  0  0  0  0  0  0  0  0  0  0
   57.3939   31.5563   47.2758 H   0  0  0  0  0  0  0  0  0  0  0  0
   57.8028   30.1685   47.4379 H   0  0  0  0  0  0  0  0  0  0  0  0
   57.3035   31.0788   54.5361 H   0  0  0  0  0  0  0  0  0  0  0  0
   58.8501   30.7888   53.6698 H   0  0  0  0  0  0  0  0  0  0  0  0
   58.1142   32.4274   53.6698 H   0  0  0  0  0  0  0  0  0  0  0  0
   62.0623   35.1129   47.6193 H   0  0  0  0  0  0  0  0  0  0  0  0
   63.8752   33.9125   46.3395 H   0  0  0  0  0  0  0  0  0  0  0  0
   64.1721   31.4344   46.6079 H   0  0  0  0  0  0  0  0  0  0  0  0
   62.6316   30.1608   48.1476 H   0  0  0  0  0  0  0  0  0  0  0  0
  1  2  1  0
  2  3  1  0
  3  4  1  0
  4  5  2  0
  5  6  1  0
  6  7  2  0
  7  8  1  0
  8  9  1  0
  9 10  1  0
 10 11  2  0
 10 12  1  0
 12 13  2  0
 13 14  1  0
 14 15  2  0
 15 16  1  0
 15 17  1  0
 17 18  2  0
  8 19  2  0
  2 20  1  0
 20 21  2  0
 21 22  1  0
 22 23  2  0
 22 24  1  0
 24 25  1  0
 25 26  1  0
 25 27  2  0
 25 28  2  0
 21 29  1  0
 29 30  2  0
 30 31  1  0
 31 32  2  0
 32 33  1  0
 33 34  2  0
 34 35  1  0
 19  4  1  0
 35 20  1  0
 18 12  1  0
 35 30  1  0
  1 36  1  0
  1 37  1  0
  1 38  1  0
  3 39  1  0
  3 40  1  0
  5 41  1  0
  6 42  1  0
  7 43  1  0
 13 44  1  0
 14 45  1  0
 17 46  1  0
 18 47  1  0
 19 48  1  0
 26 49  1  0
 26 50  1  0
 26 51  1  0
 31 52  1  0
 32 53  1  0
 33 54  1  0
 34 55  1  0
M  CHG  2   9  -1  24  -1
M  END
>  <UniqueID>  (35) 
34

>  <SMILES>  (35) 
CN(Cc1cccc([N-]C(=O)c2ccc(Cl)cc2)c1)c1c(C(=O)[N-]S(C)(=O)=O)nc2ccccn12

>  <Energy>  (35) 
98.61787156575582

>  <Genealogy>  (35) 
CN(Cc1cccc([N-]C(=O)c2ccc(Cl)cc2)c1)c1c(C(=O)[N-]S(C)(=O)=O)nc2ccccn12 (protonated)
CN(Cc1cccc([N-]C(=O)c2ccc(Cl)cc2)c1)c1c(C(=O)[N-]S(C)(=O)=O)nc2ccccn12 (3D coordinates assigned)
CN(Cc1cccc([N-]C(=O)c2ccc(Cl)cc2)c1)c1c(C(=O)[N-]S(C)(=O)=O)nc2ccccn12 (optimized conformer: 98.61787156575582 kcal/mol)

>  <smiles>  (35) 
CN(Cc1cccc(NC(=O)c2ccc(Cl)cc2)c1)c1c(C(=O)NS(C)(=O)=O)nc2ccccn12

>  <score_type>  (35) 
oracle

>  <origin>  (35) 
adg

>  <m_score__min__energy>  (35) 
-12.869999999999999

>  <m_primary>  (35) 
energy

$$$$
35:0
     RDKit          3D

 38 40  0  0  0  0  0  0  0  0999 V2000
   59.9200   35.0400   46.7090 C   0  0  0  0  0  0  0  0  0  0  0  0
   59.6370   34.0050   47.7630 C   0  0  0  0  0  0  0  0  0  0  0  0
   59.9270   34.2930   49.1080 C   0  0  0  0  0  0  0  0  0  0  0  0
   59.6840   33.3470   50.1050 C   0  0  0  0  0  0  0  0  0  0  0  0
   59.1610   32.0990   49.7710 C   0  0  0  0  0  0  0  0  0  0  0  0
   58.8780   31.7930   48.4380 C   0  0  0  0  0  0  0  0  0  0  0  0
   59.0990   32.7400   47.4210 C   0  0  0  0  0  0  0  0  0  0  0  0
   58.8340   32.4030   46.0460 N   0  0  0  0  0  0  0  0  0  0  0  0
   57.7250   32.9260   45.2980 C   0  0  0  0  0  0  0  0  0  0  0  0
   57.0560   33.8990   45.7400 O   0  0  0  0  0  0  0  0  0  0  0  0
   57.3950   32.3640   43.9470 C   0  0  0  0  0  0  0  0  0  0  0  0
   58.1460   31.0560   43.6820 C   0  0  0  0  0  0  0  0  0  0  0  0
   57.5090   29.9320   44.3720 N   0  0  0  0  0  0  0  0  0  0  0  0
   56.1820   29.7110   44.5490 C   0  0  0  0  0  0  0  0  0  0  0  0
   55.2810   30.4670   44.0970 O   0  0  0  0  0  0  0  0  0  0  0  0
   55.9270   28.6170   45.2480 O   0  0  0  0  0  0  0  0  0  0  0  0
   57.0980   28.1100   45.5460 C   0  0  0  0  0  0  0  0  0  0  0  0
   57.3840   26.9610   46.2790 C   0  0  0  0  0  0  0  0  0  0  0  0
   58.7390   26.6360   46.4800 C   0  0  0  0  0  0  0  0  0  0  0  0
   59.7600   27.4590   45.9490 C   0  0  0  0  0  0  0  0  0  0  0  0
   59.4370   28.6110   45.2070 C   0  0  0  0  0  0  0  0  0  0  0  0
   58.0840   28.9030   45.0240 C   0  0  0  0  0  0  0  0  0  0  0  0
   60.1807   35.9933   47.1919 H   0  0  0  0  0  0  0  0  0  0  0  0
   60.7595   34.7049   46.0821 H   0  0  0  0  0  0  0  0  0  0  0  0
   59.0268   35.1787   46.0821 H   0  0  0  0  0  0  0  0  0  0  0  0
   60.3491   35.2725   49.3771 H   0  0  0  0  0  0  0  0  0  0  0  0
   59.9055   33.5866   51.1555 H   0  0  0  0  0  0  0  0  0  0  0  0
   58.9709   31.3544   50.5580 H   0  0  0  0  0  0  0  0  0  0  0  0
   58.4781   30.8012   48.1804 H   0  0  0  0  0  0  0  0  0  0  0  0
   59.5050   31.7770   45.5460 H   0  0  0  0  0  0  0  0  0  0  0  0
   56.3132   32.1714   43.8950 H   0  0  0  0  0  0  0  0  0  0  0  0
   57.7006   33.0966   43.1855 H   0  0  0  0  0  0  0  0  0  0  0  0
   58.1503   30.8573   42.6001 H   0  0  0  0  0  0  0  0  0  0  0  0
   59.1735   31.1607   44.0605 H   0  0  0  0  0  0  0  0  0  0  0  0
   56.5802   26.3301   46.6863 H   0  0  0  0  0  0  0  0  0  0  0  0
   59.0057   25.7362   47.0537 H   0  0  0  0  0  0  0  0  0  0  0  0
   60.8149   27.1966   46.1173 H   0  0  0  0  0  0  0  0  0  0  0  0
   60.2217   29.2573   44.7869 H   0  0  0  0  0  0  0  0  0  0  0  0
  1  2  1  0
  2  3  2  0
  3  4  1  0
  4  5  2  0
  5  6  1  0
  6  7  2  0
  7  8  1  0
  8  9  1  0
  9 10  2  0
  9 11  1  0
 11 12  1  0
 12 13  1  0
 13 14  1  0
 14 15  2  0
 14 16  1  0
 16 17  1  0
 17 18  2  0
 18 19  1  0
 19 20  2  0
 20 21  1  0
 21 22  2  0
  7  2  1  0
 22 13  1  0
 22 17  1  0
  1 23  1  0
  1 24  1  0
  1 25  1  0
  3 26  1  0
  4 27  1  0
  5 28  1  0
  6 29  1  0
  8 30  1  0
 11 31  1  0
 11 32  1  0
 12 33  1  0
 12 34  1  0
 18 35  1  0
 19 36  1  0
 20 37  1  0
 21 38  1  0
M  END
>  <UniqueID>  (36) 
35

>  <SMILES>  (36) 
Cc1ccccc1NC(=O)CCn1c(=O)oc2ccccc21

>  <Energy>  (36) 
78.8535512971633

>  <Genealogy>  (36) 
Cc1ccccc1NC(=O)CCn1c(=O)oc2ccccc21 (3D coordinates assigned)
Cc1ccccc1NC(=O)CCn1c(=O)oc2ccccc21 (optimized conformer: 78.8535512971633 kcal/mol)

>  <smiles>  (36) 
Cc1ccccc1NC(=O)CCn1c(=O)oc2ccccc21

>  <score_type>  (36) 
oracle

>  <origin>  (36) 
adg

>  <m_score__min__energy>  (36) 
-7.9299999999999997

>  <m_primary>  (36) 
energy

$$$$
36:0
     RDKit          3D

 44 45  0  0  0  0  0  0  0  0999 V2000
   60.7880   28.9520   44.5540 C   0  0  0  0  0  0  0  0  0  0  0  0
   60.7370   28.9260   46.0770 C   0  0  0  0  0  0  0  0  0  0  0  0
   60.2420   27.6710   46.5460 O   0  0  0  0  0  0  0  0  0  0  0  0
   58.9260   27.2030   46.3980 C   0  0  0  0  0  0  0  0  0  0  0  0
   58.5420   25.8900   46.7200 C   0  0  0  0  0  0  0  0  0  0  0  0
   57.2140   25.4850   46.5690 C   0  0  0  0  0  0  0  0  0  0  0  0
   56.2410   26.3840   46.0900 C   0  0  0  0  0  0  0  0  0  0  0  0
   54.8850   26.0310   45.9770 O   0  0  0  0  0  0  0  0  0  0  0  0
   54.3780   24.8310   45.3950 C   0  0  0  0  0  0  0  0  0  0  0  0
   54.5050   23.6620   46.3660 C   0  0  0  0  0  0  0  0  0  0  0  0
   56.6360   27.6870   45.7250 C   0  0  0  0  0  0  0  0  0  0  0  0
   55.6920   28.6450   45.2260 N   0  0  0  0  0  0  0  0  0  0  0  0
   55.9820   29.7260   44.3300 C   0  0  0  0  0  0  0  0  0  0  0  0
   55.3980   30.8270   44.5010 O   0  0  0  0  0  0  0  0  0  0  0  0
   56.9890   29.5880   43.2190 C   0  0  0  0  0  0  0  0  0  0  0  0
   58.0900   30.4710   43.4270 O   0  0  0  0  0  0  0  0  0  0  0  0
   58.0100   31.8610   43.2670 C   0  0  0  0  0  0  0  0  0  0  0  0
   57.7300   32.3590   42.1420 O   0  0  0  0  0  0  0  0  0  0  0  0
   58.2600   32.7510   44.4140 C   0  0  0  0  0  0  0  0  0  0  0  0
   57.7490   32.4520   45.6870 C   0  0  0  0  0  0  0  0  0  0  0  0
   58.0060   33.3200   46.7500 C   0  0  0  0  0  0  0  0  0  0  0  0
   58.7650   34.4720   46.5400 C   0  0  0  0  0  0  0  0  0  0  0  0
   59.2570   34.7400   45.2620 C   0  0  0  0  0  0  0  0  0  0  0  0
   58.9980   33.8840   44.2380 N   0  0  0  0  0  0  0  0  0  0  0  0
   57.9630   28.0930   45.9140 C   0  0  0  0  0  0  0  0  0  0  0  0
   61.7236   29.4290   44.2265 H   0  0  0  0  0  0  0  0  0  0  0  0
   60.7465   27.9227   44.1681 H   0  0  0  0  0  0  0  0  0  0  0  0
   59.9307   29.5231   44.1681 H   0  0  0  0  0  0  0  0  0  0  0  0
   61.7501   29.0856   46.4746 H   0  0  0  0  0  0  0  0  0  0  0  0
   60.0611   29.7227   46.4210 H   0  0  0  0  0  0  0  0  0  0  0  0
   59.2919   25.1770   47.0932 H   0  0  0  0  0  0  0  0  0  0  0  0
   56.9253   24.4552   46.8263 H   0  0  0  0  0  0  0  0  0  0  0  0
   53.3176   24.9741   45.1397 H   0  0  0  0  0  0  0  0  0  0  0  0
   54.9623   24.6035   44.4912 H   0  0  0  0  0  0  0  0  0  0  0  0
   54.4642   24.0374   47.3992 H   0  0  0  0  0  0  0  0  0  0  0  0
   53.6783   22.9557   46.1996 H   0  0  0  0  0  0  0  0  0  0  0  0
   55.4641   23.1497   46.1996 H   0  0  0  0  0  0  0  0  0  0  0  0
   57.3569   28.5517   43.1912 H   0  0  0  0  0  0  0  0  0  0  0  0
   56.5033   29.8450   42.2661 H   0  0  0  0  0  0  0  0  0  0  0  0
   57.1515   31.5421   45.8455 H   0  0  0  0  0  0  0  0  0  0  0  0
   57.6107   33.0960   47.7518 H   0  0  0  0  0  0  0  0  0  0  0  0
   58.9730   35.1607   47.3721 H   0  0  0  0  0  0  0  0  0  0  0  0
   59.8554   35.6454   45.0828 H   0  0  0  0  0  0  0  0  0  0  0  0
   58.2517   29.1279   45.6780 H   0  0  0  0  0  0  0  0  0  0  0  0
  1  2  1  0
  2  3  1  0
  3  4  1  0
  4  5  2  0
  5  6  1  0
  6  7  2  0
  7  8  1  0
  8  9  1  0
  9 10  1  0
  7 11  1  0
 11 12  1  0
 12 13  1  0
 13 14  2  0
 13 15  1  0
 15 16  1  0
 16 17  1  0
 17 18  2  0
 17 19  1  0
 19 20  2  0
 20 21  1  0
 21 22  2  0
 22 23  1  0
 23 24  2  0
 11 25  2  0
 25  4  1  0
 24 19  1  0
  1 26  1  0
  1 27  1  0
  1 28  1  0
  2 29  1  0
  2 30  1  0
  5 31  1  0
  6 32  1  0
  9 33  1  0
  9 34  1  0
 10 35  1  0
 10 36  1  0
 10 37  1  0
 15 38  1  0
 15 39  1  0
 20 40  1  0
 21 41  1  0
 22 42  1  0
 23 43  1  0
 25 44  1  0
M  CHG  1  12  -1
M  END
>  <UniqueID>  (37) 
36

>  <SMILES>  (37) 
CCOc1ccc(OCC)c([N-]C(=O)COC(=O)c2ccccn2)c1

>  <Energy>  (37) 
45.22243068046239

>  <Genealogy>  (37) 
CCOc1ccc(OCC)c([N-]C(=O)COC(=O)c2ccccn2)c1 (protonated)
CCOc1ccc(OCC)c([N-]C(=O)COC(=O)c2ccccn2)c1 (3D coordinates assigned)
CCOc1ccc(OCC)c([N-]C(=O)COC(=O)c2ccccn2)c1 (optimized conformer: 45.22243068046239 kcal/mol)

>  <smiles>  (37) 
CCOc1ccc(OCC)c(NC(=O)COC(=O)c2ccccn2)c1

>  <score_type>  (37) 
oracle

>  <origin>  (37) 
adg

>  <m_score__min__energy>  (37) 
-9.6099999999999994

>  <m_primary>  (37) 
energy

$$$$
37:0
     RDKit          3D

 51 53  0  0  0  0  0  0  0  0999 V2000
   49.9165   32.7905   48.6182 H   0  0  0  0  0  0  0  0  0  0  0  0
   50.6140   32.0130   48.9630 C   0  0  0  0  0  0  0  0  0  0  0  0
   51.3360   32.2030   50.1000 N   0  0  0  0  0  0  0  0  0  0  0  0
   52.2130   31.2660   50.5660 C   0  0  0  0  0  0  0  0  0  0  0  0
   52.9110   31.4680   51.6460 N   0  0  0  0  0  0  0  0  0  0  0  0
   53.4760   30.4650   52.5040 C   0  0  0  0  0  0  0  0  0  0  0  0
   52.9570   29.3190   52.5940 O   0  0  0  0  0  0  0  0  0  0  0  0
   54.6690   30.7700   53.2310 N   0  0  0  0  0  0  0  0  0  0  0  0
   55.9940   30.5760   52.7170 C   0  0  0  0  0  0  0  0  0  0  0  0
   56.4220   31.3940   51.6630 C   0  0  0  0  0  0  0  0  0  0  0  0
   55.7502   32.1726   51.2725 H   0  0  0  0  0  0  0  0  0  0  0  0
   57.6930   31.2330   51.1010 C   0  0  0  0  0  0  0  0  0  0  0  0
   58.0750   32.0720   50.0000 N   0  0  0  0  0  0  0  0  0  0  0  0
   58.6250   31.6360   48.7470 C   0  0  0  0  0  0  0  0  0  0  0  0
   59.3090   30.5800   48.7250 O   0  0  0  0  0  0  0  0  0  0  0  0
   58.3740   32.3620   47.4820 C   0  0  0  0  0  0  0  0  0  0  0  0
   58.6050   33.7440   47.3860 C   0  0  0  0  0  0  0  0  0  0  0  0
   58.9663   34.3010   48.2630 H   0  0  0  0  0  0  0  0  0  0  0  0
   58.3780   34.4140   46.1820 C   0  0  0  0  0  0  0  0  0  0  0  0
   58.5661   35.4956   46.1130 H   0  0  0  0  0  0  0  0  0  0  0  0
   57.9130   33.7160   45.0650 C   0  0  0  0  0  0  0  0  0  0  0  0
   57.7396   34.2488   44.1184 H   0  0  0  0  0  0  0  0  0  0  0  0
   57.6660   32.3350   45.1470 C   0  0  0  0  0  0  0  0  0  0  0  0
   57.2010   31.5730   44.0260 N   0  0  0  0  0  0  0  0  0  0  0  0
   56.6700   29.9220   44.0730 S   0  0  0  0  0  0  0  0  0  0  0  0
   56.4180   29.4280   42.6770 O   0  0  0  0  0  0  0  0  0  0  0  0
   55.3840   29.8540   44.8470 O   0  0  0  0  0  0  0  0  0  0  0  0
   57.8840   28.8910   44.8840 C   0  0  0  0  0  0  0  0  0  0  0  0
   57.7276   27.8451   44.5813 H   0  0  0  0  0  0  0  0  0  0  0  0
   57.7650   28.9990   45.9722 H   0  0  0  0  0  0  0  0  0  0  0  0
   59.2980   29.3130   44.5060 C   0  0  0  0  0  0  0  0  0  0  0  0
   59.8850   29.4882   45.4197 H   0  0  0  0  0  0  0  0  0  0  0  0
   59.7719   28.5171   43.9127 H   0  0  0  0  0  0  0  0  0  0  0  0
   59.2582   30.2384   43.9127 H   0  0  0  0  0  0  0  0  0  0  0  0
   57.8860   31.6710   46.3600 C   0  0  0  0  0  0  0  0  0  0  0  0
   57.6740   30.5943   46.4356 H   0  0  0  0  0  0  0  0  0  0  0  0
   58.5340   30.2170   51.5820 C   0  0  0  0  0  0  0  0  0  0  0  0
   59.5105   30.0427   51.1065 H   0  0  0  0  0  0  0  0  0  0  0  0
   58.1350   29.4270   52.6620 C   0  0  0  0  0  0  0  0  0  0  0  0
   58.8102   28.6480   53.0456 H   0  0  0  0  0  0  0  0  0  0  0  0
   56.8810   29.6170   53.2630 C   0  0  0  0  0  0  0  0  0  0  0  0
   56.5200   28.7860   54.4650 C   0  0  0  0  0  0  0  0  0  0  0  0
   56.7620   29.3432   55.3820 H   0  0  0  0  0  0  0  0  0  0  0  0
   55.4433   28.5616   54.4457 H   0  0  0  0  0  0  0  0  0  0  0  0
   57.0908   27.8459   54.4457 H   0  0  0  0  0  0  0  0  0  0  0  0
   52.3780   30.0690   49.8580 C   0  0  0  0  0  0  0  0  0  0  0  0
   53.0791   29.3031   50.2211 H   0  0  0  0  0  0  0  0  0  0  0  0
   51.6460   29.8540   48.6870 C   0  0  0  0  0  0  0  0  0  0  0  0
   51.7690   28.9172   48.1238 H   0  0  0  0  0  0  0  0  0  0  0  0
   50.7580   30.8320   48.2340 C   0  0  0  0  0  0  0  0  0  0  0  0
   50.1785   30.6731   47.3127 H   0  0  0  0  0  0  0  0  0  0  0  0
  1  2  1  0
  2  3  1  0
  3  4  1  0
  4  5  2  0
  5  6  1  0
  6  7  2  0
  6  8  1  0
  8  9  1  0
  9 10  2  0
 10 11  1  0
 10 12  1  0
 12 13  1  0
 13 14  1  0
 14 15  2  0
 14 16  1  0
 16 17  2  0
 17 18  1  0
 17 19  1  0
 19 20  1  0
 19 21  2  0
 21 22  1  0
 21 23  1  0
 23 24  1  0
 24 25  1  0
 25 26  2  0
 25 27  2  0
 25 28  1  0
 28 29  1  0
 28 30  1  0
 28 31  1  0
 31 32  1  0
 31 33  1  0
 31 34  1  0
 23 35  2  0
 35 36  1  0
 12 37  2  0
 37 38  1  0
 37 39  1  0
 39 40  1  0
 39 41  2  0
 41 42  1  0
 42 43  1  0
 42 44  1  0
 42 45  1  0
  4 46  1  0
 46 47  1  0
 46 48  2  0
 48 49  1  0
 48 50  1  0
 50 51  1  0
 50  2  2  0
 41  9  1  0
 35 16  1  0
M  CHG  4   3  -1   8  -1  13  -1  24  -1
M  END
>  <UniqueID>  (38) 
37

>  <SMILES>  (38) 
CCS(=O)(=O)[N-]c1cccc(C(=O)[N-]c2ccc(C)c([N-]C(=O)/N=c3/cccc[n-]3)c2)c1

>  <Energy>  (38) 
66.36693686746113

>  <Genealogy>  (38) 
CCS(=O)(=O)[N-]c1cccc(C(=O)[N-]c2ccc(C)c([N-]C(=O)N=c3cccc[n-]3)c2)c1 (protonated)
CCS(=O)(=O)[N-]c1cccc(C(=O)[N-]c2ccc(C)c([N-]C(=O)/N=c3/cccc[n-]3)c2)c1 (cis-trans isomerization)
CCS(=O)(=O)[N-]c1cccc(C(=O)[N-]c2ccc(C)c([N-]C(=O)/N=c3/cccc[n-]3)c2)c1 (3D coordinates assigned)
CCS(=O)(=O)[N-]c1cccc(C(=O)[N-]c2ccc(C)c([N-]C(=O)/N=c3/cccc[n-]3)c2)c1 (optimized conformer: 66.36693686746113 kcal/mol)

>  <smiles>  (38) 
CCS(=O)(=O)Nc1cccc(C(=O)Nc2ccc(C)c(NC(=O)N=c3cccc[nH]3)c2)c1

>  <score_type>  (38) 
oracle

>  <origin>  (38) 
adg

>  <m_score__min__energy>  (38) 
-14.199999999999999

>  <m_primary>  (38) 
energy

$$$$
38:0
     RDKit          3D

 69 72  0  0  0  0  0  0  0  0999 V2000
   64.6794   33.3319   49.4225 H   0  0  0  0  0  0  0  0  0  0  0  0
   63.7270   33.4590   48.8870 C   0  0  0  0  0  0  0  0  0  0  0  0
   63.6820   33.3020   47.5020 C   0  0  0  0  0  0  0  0  0  0  0  0
   64.5972   33.0482   46.9471 H   0  0  0  0  0  0  0  0  0  0  0  0
   62.4750   33.4670   46.8200 C   0  0  0  0  0  0  0  0  0  0  0  0
   62.4433   33.3399   45.7278 H   0  0  0  0  0  0  0  0  0  0  0  0
   61.3010   33.7940   47.5180 C   0  0  0  0  0  0  0  0  0  0  0  0
   60.0700   33.9740   46.7910 N   0  0  0  0  0  0  0  0  0  0  0  0
   60.0040   34.8770   45.6370 C   0  0  0  0  0  0  0  0  0  0  0  0
   61.0184   35.0548   45.2505 H   0  0  0  0  0  0  0  0  0  0  0  0
   59.5585   35.8352   45.9425 H   0  0  0  0  0  0  0  0  0  0  0  0
   59.1430   34.2340   44.5420 C   0  0  0  0  0  0  0  0  0  0  0  0
   59.6742   33.3515   44.1559 H   0  0  0  0  0  0  0  0  0  0  0  0
   58.9828   34.9991   43.7681 H   0  0  0  0  0  0  0  0  0  0  0  0
   57.7950   33.8030   45.0150 N   0  0  0  0  0  0  0  0  0  0  0  0
   57.3950   32.4990   44.4380 C   0  0  0  0  0  0  0  0  0  0  0  0
   57.4240   32.5713   43.3408 H   0  0  0  0  0  0  0  0  0  0  0  0
   56.3802   32.2654   44.7923 H   0  0  0  0  0  0  0  0  0  0  0  0
   58.3310   31.3640   44.8870 C   0  0  0  0  0  0  0  0  0  0  0  0
   59.3329   31.7847   45.0578 H   0  0  0  0  0  0  0  0  0  0  0  0
   58.3299   30.6062   44.0896 H   0  0  0  0  0  0  0  0  0  0  0  0
   57.8670   30.6670   46.1790 C   0  0  0  0  0  0  0  0  0  0  0  0
   56.7846   30.8217   46.2992 H   0  0  0  0  0  0  0  0  0  0  0  0
   58.4220   31.1021   47.0232 H   0  0  0  0  0  0  0  0  0  0  0  0
   58.1430   29.2160   46.1430 N   0  0  0  0  0  0  0  0  0  0  0  0
   57.1970   28.3500   45.6520 C   0  0  0  0  0  0  0  0  0  0  0  0
   56.0820   28.7750   45.2430 O   0  0  0  0  0  0  0  0  0  0  0  0
   57.4480   27.0170   45.5990 N   0  0  0  0  0  0  0  0  0  0  0  0
   58.6170   26.4920   46.0400 C   0  0  0  0  0  0  0  0  0  0  0  0
   58.8360   25.0800   45.9110 N   0  0  0  0  0  0  0  0  0  0  0  0
   58.1040   24.2410   45.2350 C   0  0  0  0  0  0  0  0  0  0  0  0
   58.6070   22.7580   44.5990 S   0  0  0  0  0  0  0  0  0  0  0  0
   57.0740   22.3770   44.0200 C   0  0  0  0  0  0  0  0  0  0  0  0
   56.6640   20.8840   43.1920 Cl  0  0  0  0  0  0  0  0  0  0  0  0
   56.2030   23.4190   44.3380 C   0  0  0  0  0  0  0  0  0  0  0  0
   54.7370   23.4000   44.0340 C   0  0  0  0  0  0  0  0  0  0  0  0
   54.3464   22.3793   44.1593 H   0  0  0  0  0  0  0  0  0  0  0  0
   54.5656   23.7241   42.9969 H   0  0  0  0  0  0  0  0  0  0  0  0
   54.0770   24.2740   44.9260 O   0  0  0  0  0  0  0  0  0  0  0  0
   53.3310   23.5400   45.8800 C   0  0  0  0  0  0  0  0  0  0  0  0
   52.8156   22.7083   45.3773 H   0  0  0  0  0  0  0  0  0  0  0  0
   52.5938   24.2067   46.3512 H   0  0  0  0  0  0  0  0  0  0  0  0
   54.2590   22.9830   46.9540 C   0  0  0  0  0  0  0  0  0  0  0  0
   53.8558   23.2250   47.9484 H   0  0  0  0  0  0  0  0  0  0  0  0
   54.3331   21.8910   46.8442 H   0  0  0  0  0  0  0  0  0  0  0  0
   55.2575   23.4312   46.8442 H   0  0  0  0  0  0  0  0  0  0  0  0
   56.7840   24.4420   45.0260 N   0  0  0  0  0  0  0  0  0  0  0  0
   56.2660   25.2830   45.3670 H   0  0  0  0  0  0  0  0  0  0  0  0
   59.6090   27.3490   46.5190 C   0  0  0  0  0  0  0  0  0  0  0  0
   60.5798   26.9506   46.8488 H   0  0  0  0  0  0  0  0  0  0  0  0
   59.3500   28.7190   46.5730 C   0  0  0  0  0  0  0  0  0  0  0  0
   60.2460   29.4880   47.0150 O   0  0  0  0  0  0  0  0  0  0  0  0
   57.6260   33.8230   46.4880 C   0  0  0  0  0  0  0  0  0  0  0  0
   56.7527   33.2086   46.7522 H   0  0  0  0  0  0  0  0  0  0  0  0
   57.4891   34.8699   46.7967 H   0  0  0  0  0  0  0  0  0  0  0  0
   58.8560   33.2740   47.2230 C   0  0  0  0  0  0  0  0  0  0  0  0
   58.9596   32.2012   47.0032 H   0  0  0  0  0  0  0  0  0  0  0  0
   58.7223   33.4296   48.3037 H   0  0  0  0  0  0  0  0  0  0  0  0
   61.3400   33.9430   48.9210 C   0  0  0  0  0  0  0  0  0  0  0  0
   60.1450   34.2270   49.6040 O   0  0  0  0  0  0  0  0  0  0  0  0
   59.6620   33.5470   50.7620 C   0  0  0  0  0  0  0  0  0  0  0  0
   60.5150   33.2653   51.3969 H   0  0  0  0  0  0  0  0  0  0  0  0
   58.9837   34.2188   51.3084 H   0  0  0  0  0  0  0  0  0  0  0  0
   58.8940   32.2900   50.3700 C   0  0  0  0  0  0  0  0  0  0  0  0
   58.5702   31.7601   51.2779 H   0  0  0  0  0  0  0  0  0  0  0  0
   58.0124   32.5697   49.7746 H   0  0  0  0  0  0  0  0  0  0  0  0
   59.5452   31.6332   49.7746 H   0  0  0  0  0  0  0  0  0  0  0  0
   62.5670   33.7770   49.5960 C   0  0  0  0  0  0  0  0  0  0  0  0
   62.6105   33.8989   50.6884 H   0  0  0  0  0  0  0  0  0  0  0  0
  1  2  1  0
  2  3  2  0
  3  4  1  0
  3  5  1  0
  5  6  1  0
  5  7  2  0
  7  8  1  0
  8  9  1  0
  9 10  1  0
  9 11  1  0
  9 12  1  0
 12 13  1  0
 12 14  1  0
 12 15  1  0
 15 16  1  0
 16 17  1  0
 16 18  1  0
 16 19  1  0
 19 20  1  0
 19 21  1  0
 19 22  1  0
 22 23  1  0
 22 24  1  0
 22 25  1  0
 25 26  1  0
 26 27  2  0
 26 28  1  0
 28 29  1  0
 29 30  1  0
 30 31  2  0
 31 32  1  0
 32 33  1  0
 33 34  1  0
 33 35  2  0
 35 36  1  0
 36 37  1  0
 36 38  1  0
 36 39  1  0
 39 40  1  0
 40 41  1  0
 40 42  1  0
 40 43  1  0
 43 44  1  0
 43 45  1  0
 43 46  1  0
 35 47  1  0
 47 48  1  0
 29 49  2  0
 49 50  1  0
 49 51  1  0
 51 52  2  0
 15 53  1  0
 53 54  1  0
 53 55  1  0
 53 56  1  0
 56 57  1  0
 56 58  1  0
  7 59  1  0
 59 60  1  0
 60 61  1  0
 61 62  1  0
 61 63  1  0
 61 64  1  0
 64 65  1  0
 64 66  1  0
 64 67  1  0
 59 68  2  0
 68 69  1  0
 68  2  1  0
 56  8  1  0
 51 25  1  0
 47 31  1  0
M  CHG  1  28  -1
M  END
>  <UniqueID>  (39) 
38

>  <SMILES>  (39) 
CCOCc1[nH]/c(=N/c2cc(=O)n(CCCN3CCN(c4ccccc4OCC)CC3)c(=O)[n-]2)sc1Cl

>  <Energy>  (39) 
118.86280596353278

>  <Genealogy>  (39) 
CCOCc1[nH]c(=Nc2cc(=O)n(CCCN3CCN(c4ccccc4OCC)CC3)c(=O)[n-]2)sc1Cl (protonated)
CCOCc1[nH]/c(=N/c2cc(=O)n(CCCN3CCN(c4ccccc4OCC)CC3)c(=O)[n-]2)sc1Cl (cis-trans isomerization)
CCOCc1[nH]/c(=N/c2cc(=O)n(CCCN3CCN(c4ccccc4OCC)CC3)c(=O)[n-]2)sc1Cl (3D coordinates assigned)
CCOCc1[nH]/c(=N/c2cc(=O)n(CCCN3CCN(c4ccccc4OCC)CC3)c(=O)[n-]2)sc1Cl (nonaromatic ring conformer: 118.86280596353278 kcal/mol)

>  <smiles>  (39) 
CCOCc1[nH]c(=Nc2cc(=O)n(CCCN3CCN(c4ccccc4OCC)CC3)c(=O)[nH]2)sc1Cl

>  <score_type>  (39) 
oracle

>  <origin>  (39) 
adg

>  <m_score__min__energy>  (39) 
-11.25

>  <m_primary>  (39) 
energy

$$$$
39:0
     RDKit          3D

 57 59  0  0  0  0  0  0  0  0999 V2000
   60.7130   28.1040   49.6580 C   0  0  0  0  0  0  0  0  0  0  0  0
   60.2660   27.2510   48.6090 O   0  0  0  0  0  0  0  0  0  0  0  0
   59.6860   27.7020   47.4140 C   0  0  0  0  0  0  0  0  0  0  0  0
   60.3960   28.4730   46.4740 C   0  0  0  0  0  0  0  0  0  0  0  0
   59.7730   28.8950   45.2940 C   0  0  0  0  0  0  0  0  0  0  0  0
   58.4400   28.5470   45.0320 C   0  0  0  0  0  0  0  0  0  0  0  0
   57.7600   29.0270   43.7790 C   0  0  0  0  0  0  0  0  0  0  0  0
   56.8080   30.1320   44.1070 C   0  0  0  0  0  0  0  0  0  0  0  0
   55.8490   30.3800   43.3290 O   0  0  0  0  0  0  0  0  0  0  0  0
   57.0320   30.9190   45.2820 N   0  0  0  0  0  0  0  0  0  0  0  0
   57.7380   32.1640   45.3630 C   0  0  0  0  0  0  0  0  0  0  0  0
   57.9000   33.2810   44.1180 S   0  0  0  0  0  0  0  0  0  0  0  0
   58.8570   34.3600   44.9700 C   0  0  0  0  0  0  0  0  0  0  0  0
   59.0730   33.8620   46.2540 C   0  0  0  0  0  0  0  0  0  0  0  0
   59.9300   34.6210   47.2400 C   0  0  0  0  0  0  0  0  0  0  0  0
   61.1770   33.8530   47.6120 C   0  0  0  0  0  0  0  0  0  0  0  0
   61.6460   32.8090   46.7930 C   0  0  0  0  0  0  0  0  0  0  0  0
   62.8170   32.1220   47.1260 C   0  0  0  0  0  0  0  0  0  0  0  0
   63.5390   32.4810   48.2670 C   0  0  0  0  0  0  0  0  0  0  0  0
   63.0960   33.5320   49.0720 C   0  0  0  0  0  0  0  0  0  0  0  0
   61.9250   34.2220   48.7430 C   0  0  0  0  0  0  0  0  0  0  0  0
   58.4410   32.6100   46.4890 C   0  0  0  0  0  0  0  0  0  0  0  0
   58.4950   31.8410   47.7610 C   0  0  0  0  0  0  0  0  0  0  0  0
   58.6640   30.5950   47.7460 O   0  0  0  0  0  0  0  0  0  0  0  0
   58.3520   32.5250   49.0150 N   0  0  0  0  0  0  0  0  0  0  0  0
   58.9910   32.1830   50.2920 C   0  0  0  0  0  0  0  0  0  0  0  0
   60.3080   31.4270   50.0440 C   0  0  0  0  0  0  0  0  0  0  0  0
   59.2960   33.4980   51.0250 C   0  0  0  0  0  0  0  0  0  0  0  0
   58.0350   31.3370   51.1540 C   0  0  0  0  0  0  0  0  0  0  0  0
   57.7280   27.7910   45.9770 C   0  0  0  0  0  0  0  0  0  0  0  0
   58.3510   27.3690   47.1550 C   0  0  0  0  0  0  0  0  0  0  0  0
   60.4735   27.6469   50.6295 H   0  0  0  0  0  0  0  0  0  0  0  0
   61.8009   28.2451   49.5774 H   0  0  0  0  0  0  0  0  0  0  0  0
   60.2099   29.0789   49.5774 H   0  0  0  0  0  0  0  0  0  0  0  0
   61.4442   28.7447   46.6677 H   0  0  0  0  0  0  0  0  0  0  0  0
   60.3322   29.5032   44.5678 H   0  0  0  0  0  0  0  0  0  0  0  0
   58.5173   29.3962   43.0718 H   0  0  0  0  0  0  0  0  0  0  0  0
   57.2038   28.1926   43.3269 H   0  0  0  0  0  0  0  0  0  0  0  0
   59.2517   35.3094   44.5790 H   0  0  0  0  0  0  0  0  0  0  0  0
   60.2245   35.5806   46.7901 H   0  0  0  0  0  0  0  0  0  0  0  0
   59.3399   34.7762   48.1553 H   0  0  0  0  0  0  0  0  0  0  0  0
   61.0883   32.5322   45.8862 H   0  0  0  0  0  0  0  0  0  0  0  0
   63.1704   31.2978   46.4890 H   0  0  0  0  0  0  0  0  0  0  0  0
   64.4569   31.9353   48.5311 H   0  0  0  0  0  0  0  0  0  0  0  0
   63.6689   33.8178   49.9665 H   0  0  0  0  0  0  0  0  0  0  0  0
   61.5875   35.0582   49.3730 H   0  0  0  0  0  0  0  0  0  0  0  0
   60.7668   31.1636   51.0084 H   0  0  0  0  0  0  0  0  0  0  0  0
   60.1022   30.5095   49.4731 H   0  0  0  0  0  0  0  0  0  0  0  0
   60.9965   32.0674   49.4731 H   0  0  0  0  0  0  0  0  0  0  0  0
   59.2570   33.3298   52.1114 H   0  0  0  0  0  0  0  0  0  0  0  0
   60.2996   33.8500   50.7443 H   0  0  0  0  0  0  0  0  0  0  0  0
   58.5498   34.2559   50.7443 H   0  0  0  0  0  0  0  0  0  0  0  0
   58.2421   31.5202   52.2187 H   0  0  0  0  0  0  0  0  0  0  0  0
   56.9949   31.6159   50.9294 H   0  0  0  0  0  0  0  0  0  0  0  0
   58.1853   30.2707   50.9294 H   0  0  0  0  0  0  0  0  0  0  0  0
   56.6760   27.5298   45.7896 H   0  0  0  0  0  0  0  0  0  0  0  0
   57.7873   26.7698   47.8852 H   0  0  0  0  0  0  0  0  0  0  0  0
  1  2  1  0
  2  3  1  0
  3  4  2  0
  4  5  1  0
  5  6  2  0
  6  7  1  0
  7  8  1  0
  8  9  2  0
  8 10  1  0
 10 11  1  0
 11 12  1  0
 12 13  1  0
 13 14  2  0
 14 15  1  0
 15 16  1  0
 16 17  2  0
 17 18  1  0
 18 19  2  0
 19 20  1  0
 20 21  2  0
 14 22  1  0
 22 23  1  0
 23 24  2  0
 23 25  1  0
 25 26  1  0
 26 27  1  0
 26 28  1  0
 26 29  1  0
  6 30  1  0
 30 31  2  0
 31  3  1  0
 22 11  2  0
 21 16  1  0
  1 32  1  0
  1 33  1  0
  1 34  1  0
  4 35  1  0
  5 36  1  0
  7 37  1  0
  7 38  1  0
 13 39  1  0
 15 40  1  0
 15 41  1  0
 17 42  1  0
 18 43  1  0
 19 44  1  0
 20 45  1  0
 21 46  1  0
 27 47  1  0
 27 48  1  0
 27 49  1  0
 28 50  1  0
 28 51  1  0
 28 52  1  0
 29 53  1  0
 29 54  1  0
 29 55  1  0
 30 56  1  0
 31 57  1  0
M  CHG  2  10  -1  25  -1
M  END
>  <UniqueID>  (40) 
39

>  <SMILES>  (40) 
COc1ccc(CC(=O)[N-]c2scc(Cc3ccccc3)c2C(=O)[N-]C(C)(C)C)cc1

>  <Energy>  (40) 
78.92297826420776

>  <Genealogy>  (40) 
COc1ccc(CC(=O)[N-]c2scc(Cc3ccccc3)c2C(=O)[N-]C(C)(C)C)cc1 (protonated)
COc1ccc(CC(=O)[N-]c2scc(Cc3ccccc3)c2C(=O)[N-]C(C)(C)C)cc1 (3D coordinates assigned)
COc1ccc(CC(=O)[N-]c2scc(Cc3ccccc3)c2C(=O)[N-]C(C)(C)C)cc1 (optimized conformer: 78.92297826420776 kcal/mol)

>  <smiles>  (40) 
COc1ccc(CC(=O)Nc2scc(Cc3ccccc3)c2C(=O)NC(C)(C)C)cc1

>  <score_type>  (40) 
oracle

>  <origin>  (40) 
adg

>  <m_score__min__energy>  (40) 
-11.43

>  <m_primary>  (40) 
energy

$$$$
40:0
     RDKit          3D

 44 47  0  0  1  0  0  0  0  0999 V2000
   57.7050   27.7700   43.1030 O   0  0  0  0  0  0  0  0  0  0  0  0
   58.3310   28.1220   44.2900 C   0  0  0  0  0  0  0  0  0  0  0  0
   58.7990   27.1040   45.0790 C   0  0  0  0  0  0  0  0  0  0  0  0
   59.4170   27.4400   46.2510 C   0  0  0  0  0  0  0  0  0  0  0  0
   59.8720   26.4360   47.0180 N   0  0  0  0  0  0  0  0  0  0  0  0
   60.4850   26.7110   48.1750 C   0  0  0  0  0  0  0  0  0  0  0  0
   60.6190   27.9930   48.5210 N   0  0  0  0  0  0  0  0  0  0  0  0
   60.1730   29.0370   47.7720 C   0  0  0  0  0  0  0  0  0  0  0  0
   60.3520   30.1760   48.1920 N   0  0  0  0  0  0  0  0  0  0  0  0
   61.4570   30.9340   48.3920 C   0  0  0  0  0  0  0  0  0  0  0  0
   62.1480   30.8920   49.6270 C   0  0  0  0  0  0  0  0  0  0  0  0
   63.2060   31.7620   49.8340 C   0  0  0  0  0  0  0  0  0  0  0  0
   63.5880   32.6610   48.8590 C   0  0  0  0  0  0  0  0  0  0  0  0
   64.6290   33.5150   49.0680 F   0  0  0  0  0  0  0  0  0  0  0  0
   62.9330   32.7180   47.6600 C   0  0  0  0  0  0  0  0  0  0  0  0
   63.3860   33.8500   46.3860 Cl  0  0  0  0  0  0  0  0  0  0  0  0
   61.8740   31.8690   47.4120 C   0  0  0  0  0  0  0  0  0  0  0  0
   59.5480   28.7800   46.5950 C   0  0  0  0  0  0  0  0  0  0  0  0
   59.0720   29.7710   45.7880 C   0  0  0  0  0  0  0  0  0  0  0  0
   58.4330   29.4400   44.5790 C   0  0  0  0  0  0  0  0  0  0  0  0
   57.9210   30.4210   43.7040 N   0  0  0  0  0  0  0  0  0  0  0  0
   57.0400   31.4990   44.1480 C   0  0  0  0  0  0  0  0  0  0  0  0
   57.8070   32.5570   44.8470 C   0  0  0  0  0  0  0  0  0  0  0  0
   57.7230   32.5670   46.2350 C   0  0  0  0  0  0  0  0  0  0  0  0
   58.4310   33.5460   46.8880 C   0  0  0  0  0  0  0  0  0  0  0  0
   59.1950   34.4860   46.2560 C   0  0  0  0  0  0  0  0  0  0  0  0
   59.8490   35.4020   47.0180 F   0  0  0  0  0  0  0  0  0  0  0  0
   59.2720   34.4670   44.8770 C   0  0  0  0  0  0  0  0  0  0  0  0
   58.5750   33.4980   44.1740 C   0  0  0  0  0  0  0  0  0  0  0  0
   56.7550   27.4650   43.0120 H   0  0  0  0  0  0  0  0  0  0  0  0
   58.6813   26.0522   44.7794 H   0  0  0  0  0  0  0  0  0  0  0  0
   60.8664   25.9061   48.8205 H   0  0  0  0  0  0  0  0  0  0  0  0
   61.1110   28.1680   49.4450 H   0  0  0  0  0  0  0  0  0  0  0  0
   61.8494   30.1795   50.4101 H   0  0  0  0  0  0  0  0  0  0  0  0
   63.7498   31.7359   50.7898 H   0  0  0  0  0  0  0  0  0  0  0  0
   61.3495   31.9182   46.4464 H   0  0  0  0  0  0  0  0  0  0  0  0
   59.1872   30.8249   46.0812 H   0  0  0  0  0  0  0  0  0  0  0  0
   58.1710   30.3880   42.6930 H   0  0  0  0  0  0  0  0  0  0  0  0
   56.5381   31.9371   43.2727 H   0  0  0  0  0  0  0  0  0  0  0  0
   56.3003   31.0819   44.8473 H   0  0  0  0  0  0  0  0  0  0  0  0
   57.1197   31.8279   46.7825 H   0  0  0  0  0  0  0  0  0  0  0  0
   58.3799   33.5751   47.9864 H   0  0  0  0  0  0  0  0  0  0  0  0
   59.8797   35.2126   44.3433 H   0  0  0  0  0  0  0  0  0  0  0  0
   58.6303   33.4738   43.0757 H   0  0  0  0  0  0  0  0  0  0  0  0
  1  2  1  0
  2  3  2  0
  3  4  1  0
  4  5  1  0
  5  6  2  0
  6  7  1  0
  7  8  1  0
  8  9  2  0
  9 10  1  0
 10 11  2  0
 11 12  1  0
 12 13  2  0
 13 14  1  0
 13 15  1  0
 15 16  1  0
 15 17  2  0
  8 18  1  0
 18 19  1  0
 19 20  2  0
 20 21  1  0
 21 22  1  0
 22 23  1  0
 23 24  2  0
 24 25  1  0
 25 26  2  0
 26 27  1  0
 26 28  1  0
 28 29  2  0
 20  2  1  0
 29 23  1  0
 18  4  2  0
 17 10  1  0
  1 30  1  0
  3 31  1  0
  6 32  1  0
  7 33  1  0
 11 34  1  0
 12 35  1  0
 17 36  1  0
 19 37  1  0
 21 38  1  0
 22 39  1  0
 22 40  1  0
 24 41  1  0
 25 42  1  0
 28 43  1  0
 29 44  1  0
M  END
>  <smiles>  (41) 
Oc1cc2nc[nH]c(=Nc3ccc(F)c(Cl)c3)c2cc1NCc1ccc(F)cc1

>  <score_type>  (41) 
oracle

>  <origin>  (41) 
adg

>  <m_score__min__energy>  (41) 
-8.6799999999999997

>  <m_primary>  (41) 
energy

$$$$
41:0
     RDKit          3D

 36 38  0  0  0  0  0  0  0  0999 V2000
   55.7370   29.2880   44.4510 F   0  0  0  0  0  0  0  0  0  0  0  0
   56.4750   30.3230   43.9830 C   0  0  0  0  0  0  0  0  0  0  0  0
   56.6340   30.5010   42.6060 C   0  0  0  0  0  0  0  0  0  0  0  0
   57.3920   31.5690   42.1210 C   0  0  0  0  0  0  0  0  0  0  0  0
   57.9930   32.4630   43.0120 C   0  0  0  0  0  0  0  0  0  0  0  0
   57.8420   32.2960   44.4020 C   0  0  0  0  0  0  0  0  0  0  0  0
   58.4800   33.2460   45.3490 C   0  0  0  0  0  0  0  0  0  0  0  0
   59.0420   34.4480   44.8870 C   0  0  0  0  0  0  0  0  0  0  0  0
   59.6300   35.3420   45.7830 C   0  0  0  0  0  0  0  0  0  0  0  0
   59.6580   35.0530   47.1490 C   0  0  0  0  0  0  0  0  0  0  0  0
   59.1000   33.8660   47.6340 C   0  0  0  0  0  0  0  0  0  0  0  0
   59.1390   33.6310   49.0180 O   0  0  0  0  0  0  0  0  0  0  0  0
   60.2260   33.0290   49.7230 C   0  0  0  0  0  0  0  0  0  0  0  0
   61.4400   32.9140   48.8380 C   0  0  0  0  0  0  0  0  0  0  0  0
   62.3990   33.9400   48.8220 C   0  0  0  0  0  0  0  0  0  0  0  0
   63.5310   33.8340   48.0060 C   0  0  0  0  0  0  0  0  0  0  0  0
   63.7090   32.7070   47.1990 C   0  0  0  0  0  0  0  0  0  0  0  0
   62.7540   31.6870   47.2010 C   0  0  0  0  0  0  0  0  0  0  0  0
   61.6200   31.7900   48.0130 C   0  0  0  0  0  0  0  0  0  0  0  0
   58.5220   32.9570   46.7250 C   0  0  0  0  0  0  0  0  0  0  0  0
   57.0760   31.2140   44.8780 C   0  0  0  0  0  0  0  0  0  0  0  0
   56.1615   29.7990   41.9032 H   0  0  0  0  0  0  0  0  0  0  0  0
   57.5163   31.7069   41.0368 H   0  0  0  0  0  0  0  0  0  0  0  0
   58.5882   33.3030   42.6244 H   0  0  0  0  0  0  0  0  0  0  0  0
   59.0184   34.6857   43.8133 H   0  0  0  0  0  0  0  0  0  0  0  0
   60.0731   36.2779   45.4118 H   0  0  0  0  0  0  0  0  0  0  0  0
   60.1222   35.7640   47.8483 H   0  0  0  0  0  0  0  0  0  0  0  0
   60.4749   33.6475   50.5980 H   0  0  0  0  0  0  0  0  0  0  0  0
   59.9244   32.0199   50.0405 H   0  0  0  0  0  0  0  0  0  0  0  0
   62.2598   34.8301   49.4531 H   0  0  0  0  0  0  0  0  0  0  0  0
   64.2813   34.6384   47.9998 H   0  0  0  0  0  0  0  0  0  0  0  0
   64.6016   32.6228   46.5617 H   0  0  0  0  0  0  0  0  0  0  0  0
   62.8943   30.8019   46.5631 H   0  0  0  0  0  0  0  0  0  0  0  0
   60.8663   30.9888   48.0061 H   0  0  0  0  0  0  0  0  0  0  0  0
   58.0992   32.0115   47.0956 H   0  0  0  0  0  0  0  0  0  0  0  0
   56.9496   31.0688   45.9610 H   0  0  0  0  0  0  0  0  0  0  0  0
  1  2  1  0
  2  3  2  0
  3  4  1  0
  4  5  2  0
  5  6  1  0
  6  7  1  0
  7  8  2  0
  8  9  1  0
  9 10  2  0
 10 11  1  0
 11 12  1  0
 12 13  1  0
 13 14  1  0
 14 15  2  0
 15 16  1  0
 16 17  2  0
 17 18  1  0
 18 19  2  0
 11 20  2  0
  6 21  2  0
 21  2  1  0
 20  7  1  0
 19 14  1  0
  3 22  1  0
  4 23  1  0
  5 24  1  0
  8 25  1  0
  9 26  1  0
 10 27  1  0
 13 28  1  0
 13 29  1  0
 15 30  1  0
 16 31  1  0
 17 32  1  0
 18 33  1  0
 19 34  1  0
 20 35  1  0
 21 36  1  0
M  END
>  <UniqueID>  (42) 
40

>  <SMILES>  (42) 
Fc1cccc(-c2cccc(OCc3ccccc3)c2)c1

>  <Energy>  (42) 
43.20961185434763

>  <Genealogy>  (42) 
Fc1cccc(-c2cccc(OCc3ccccc3)c2)c1 (3D coordinates assigned)
Fc1cccc(-c2cccc(OCc3ccccc3)c2)c1 (optimized conformer: 43.20961185434763 kcal/mol)

>  <smiles>  (42) 
Fc1cccc(-c2cccc(OCc3ccccc3)c2)c1

>  <score_type>  (42) 
oracle

>  <origin>  (42) 
adg

>  <m_score__min__energy>  (42) 
-7.8499999999999996

>  <m_primary>  (42) 
energy

$$$$
42:0
     RDKit          3D

 45 46  0  0  0  0  0  0  0  0999 V2000
   59.4330   29.3080   44.5020 C   0  0  0  0  0  0  0  0  0  0  0  0
   58.2510   28.6500   43.9340 N   0  0  0  0  0  0  0  0  0  0  0  0
   57.1810   29.4830   43.3720 C   0  0  0  0  0  0  0  0  0  0  0  0
   56.2710   29.9500   44.4640 C   0  0  0  0  0  0  0  0  0  0  0  0
   55.5200   29.1220   45.0440 O   0  0  0  0  0  0  0  0  0  0  0  0
   56.2660   31.3350   44.8320 N   0  0  0  0  0  0  0  0  0  0  0  0
   57.3870   32.0970   45.3030 C   0  0  0  0  0  0  0  0  0  0  0  0
   58.1460   31.5870   46.3650 C   0  0  0  0  0  0  0  0  0  0  0  0
   59.2290   32.3100   46.8730 C   0  0  0  0  0  0  0  0  0  0  0  0
   59.5550   33.5560   46.3300 C   0  0  0  0  0  0  0  0  0  0  0  0
   58.7910   34.0830   45.2850 C   0  0  0  0  0  0  0  0  0  0  0  0
   59.0960   35.3010   44.7720 F   0  0  0  0  0  0  0  0  0  0  0  0
   57.7050   33.3640   44.7770 C   0  0  0  0  0  0  0  0  0  0  0  0
   58.1870   27.2090   43.8060 C   0  0  0  0  0  0  0  0  0  0  0  0
   57.8710   26.6940   42.6990 O   0  0  0  0  0  0  0  0  0  0  0  0
   58.4320   26.2840   44.9720 C   0  0  0  0  0  0  0  0  0  0  0  0
   57.6500   26.7330   46.2100 C   0  0  0  0  0  0  0  0  0  0  0  0
   57.2670   25.5820   47.0310 N   0  0  0  0  0  0  0  0  0  0  0  0
   55.8430   24.8070   46.4020 S   0  0  0  0  0  0  0  0  0  0  0  0
   54.9090   25.8520   45.8610 O   0  0  0  0  0  0  0  0  0  0  0  0
   55.1440   24.0570   47.5020 O   0  0  0  0  0  0  0  0  0  0  0  0
   56.2930   23.7110   45.0980 C   0  0  0  0  0  0  0  0  0  0  0  0
   57.3960   22.8540   45.2280 C   0  0  0  0  0  0  0  0  0  0  0  0
   57.7470   21.9990   44.1780 C   0  0  0  0  0  0  0  0  0  0  0  0
   57.0000   21.9960   42.9960 C   0  0  0  0  0  0  0  0  0  0  0  0
   55.9010   22.8490   42.8630 C   0  0  0  0  0  0  0  0  0  0  0  0
   55.5480   23.7050   43.9110 C   0  0  0  0  0  0  0  0  0  0  0  0
   59.3776   29.2772   45.6002 H   0  0  0  0  0  0  0  0  0  0  0  0
   60.3406   28.7853   44.1658 H   0  0  0  0  0  0  0  0  0  0  0  0
   59.4669   30.3548   44.1658 H   0  0  0  0  0  0  0  0  0  0  0  0
   57.6241   30.3551   42.8688 H   0  0  0  0  0  0  0  0  0  0  0  0
   56.6029   28.8896   42.6484 H   0  0  0  0  0  0  0  0  0  0  0  0
   57.8877   30.6110   46.8018 H   0  0  0  0  0  0  0  0  0  0  0  0
   59.8251   31.8981   47.7007 H   0  0  0  0  0  0  0  0  0  0  0  0
   60.4121   34.1213   46.7248 H   0  0  0  0  0  0  0  0  0  0  0  0
   57.0974   33.7890   43.9644 H   0  0  0  0  0  0  0  0  0  0  0  0
   58.1144   25.2676   44.6963 H   0  0  0  0  0  0  0  0  0  0  0  0
   59.5053   26.3037   45.2123 H   0  0  0  0  0  0  0  0  0  0  0  0
   58.2790   27.4088   46.8080 H   0  0  0  0  0  0  0  0  0  0  0  0
   56.7365   27.2499   45.8808 H   0  0  0  0  0  0  0  0  0  0  0  0
   57.9855   22.8544   46.1567 H   0  0  0  0  0  0  0  0  0  0  0  0
   58.6122   21.3278   44.2824 H   0  0  0  0  0  0  0  0  0  0  0  0
   57.2772   21.3227   42.1714 H   0  0  0  0  0  0  0  0  0  0  0  0
   55.3132   22.8471   41.9332 H   0  0  0  0  0  0  0  0  0  0  0  0
   54.6828   24.3757   43.8033 H   0  0  0  0  0  0  0  0  0  0  0  0
  1  2  1  0
  2  3  1  0
  3  4  1  0
  4  5  2  0
  4  6  1  0
  6  7  1  0
  7  8  2  0
  8  9  1  0
  9 10  2  0
 10 11  1  0
 11 12  1  0
 11 13  2  0
  2 14  1  0
 14 15  2  0
 14 16  1  0
 16 17  1  0
 17 18  1  0
 18 19  1  0
 19 20  2  0
 19 21  2  0
 19 22  1  0
 22 23  2  0
 23 24  1  0
 24 25  2  0
 25 26  1  0
 26 27  2  0
 13  7  1  0
 27 22  1  0
  1 28  1  0
  1 29  1  0
  1 30  1  0
  3 31  1  0
  3 32  1  0
  8 33  1  0
  9 34  1  0
 10 35  1  0
 13 36  1  0
 16 37  1  0
 16 38  1  0
 17 39  1  0
 17 40  1  0
 23 41  1  0
 24 42  1  0
 25 43  1  0
 26 44  1  0
 27 45  1  0
M  CHG  2   6  -1  18  -1
M  END
>  <UniqueID>  (43) 
41

>  <SMILES>  (43) 
CN(CC(=O)[N-]c1cccc(F)c1)C(=O)CC[N-]S(=O)(=O)c1ccccc1

>  <Energy>  (43) 
43.20543183417831

>  <Genealogy>  (43) 
CN(CC(=O)[N-]c1cccc(F)c1)C(=O)CC[N-]S(=O)(=O)c1ccccc1 (protonated)
CN(CC(=O)[N-]c1cccc(F)c1)C(=O)CC[N-]S(=O)(=O)c1ccccc1 (3D coordinates assigned)
CN(CC(=O)[N-]c1cccc(F)c1)C(=O)CC[N-]S(=O)(=O)c1ccccc1 (optimized conformer: 43.20543183417831 kcal/mol)

>  <smiles>  (43) 
CN(CC(=O)Nc1cccc(F)c1)C(=O)CCNS(=O)(=O)c1ccccc1

>  <score_type>  (43) 
oracle

>  <origin>  (43) 
adg

>  <m_score__min__energy>  (43) 
-11.76

>  <m_primary>  (43) 
energy

$$$$
43:0
     RDKit          3D

 54 57  0  0  0  0  0  0  0  0999 V2000
   59.1940   34.6120   45.3830 C   0  0  0  0  0  0  0  0  0  0  0  0
   57.8870   34.4040   45.8750 O   0  0  0  0  0  0  0  0  0  0  0  0
   57.1330   33.6410   44.9530 C   0  0  0  0  0  0  0  0  0  0  0  0
   57.3330   32.1780   45.1980 C   0  0  0  0  0  0  0  0  0  0  0  0
   58.2600   31.7000   46.0680 N   0  0  0  0  0  0  0  0  0  0  0  0
   58.1210   30.3700   45.9470 C   0  0  0  0  0  0  0  0  0  0  0  0
   58.8180   29.3630   46.6280 C   0  0  0  0  0  0  0  0  0  0  0  0
   59.8500   29.6760   47.6450 C   0  0  0  0  0  0  0  0  0  0  0  0
   60.7380   28.8200   47.9160 O   0  0  0  0  0  0  0  0  0  0  0  0
   59.8670   30.9520   48.3070 N   0  0  0  0  0  0  0  0  0  0  0  0
   60.9220   31.3320   49.2430 C   0  0  0  0  0  0  0  0  0  0  0  0
   61.9140   32.2310   48.5580 C   0  0  0  0  0  0  0  0  0  0  0  0
   61.5320   32.9570   47.4170 C   0  0  0  0  0  0  0  0  0  0  0  0
   62.4590   33.7710   46.7580 C   0  0  0  0  0  0  0  0  0  0  0  0
   63.7720   33.8640   47.2300 C   0  0  0  0  0  0  0  0  0  0  0  0
   64.1610   33.1390   48.3610 C   0  0  0  0  0  0  0  0  0  0  0  0
   63.2370   32.3220   49.0220 C   0  0  0  0  0  0  0  0  0  0  0  0
   58.4780   28.0290   46.3100 C   0  0  0  0  0  0  0  0  0  0  0  0
   57.4240   27.7350   45.4070 C   0  0  0  0  0  0  0  0  0  0  0  0
   57.0180   26.3830   45.1500 N   0  0  0  0  0  0  0  0  0  0  0  0
   55.9250   25.7010   45.7850 C   0  0  0  0  0  0  0  0  0  0  0  0
   54.8540   26.3290   45.9860 O   0  0  0  0  0  0  0  0  0  0  0  0
   56.0620   24.3070   46.2790 C   0  0  0  0  0  0  0  0  0  0  0  0
   56.1860   24.1040   47.6650 C   0  0  0  0  0  0  0  0  0  0  0  0
   56.3450   22.8210   48.1870 C   0  0  0  0  0  0  0  0  0  0  0  0
   56.3680   21.7200   47.3360 C   0  0  0  0  0  0  0  0  0  0  0  0
   56.2420   21.8970   45.9560 C   0  0  0  0  0  0  0  0  0  0  0  0
   56.1050   23.1860   45.4010 C   0  0  0  0  0  0  0  0  0  0  0  0
   56.0030   23.3430   43.8960 C   0  0  0  0  0  0  0  0  0  0  0  0
   54.7460   23.7770   43.5130 F   0  0  0  0  0  0  0  0  0  0  0  0
   56.2380   22.1310   43.2690 F   0  0  0  0  0  0  0  0  0  0  0  0
   56.9340   24.2690   43.4640 F   0  0  0  0  0  0  0  0  0  0  0  0
   56.7670   28.7840   44.7370 C   0  0  0  0  0  0  0  0  0  0  0  0
   57.1460   30.0880   45.0370 C   0  0  0  0  0  0  0  0  0  0  0  0
   56.6290   31.2210   44.5400 N   0  0  0  0  0  0  0  0  0  0  0  0
   59.8903   34.7228   46.2273 H   0  0  0  0  0  0  0  0  0  0  0  0
   59.4961   33.7506   44.7692 H   0  0  0  0  0  0  0  0  0  0  0  0
   59.2138   35.5246   44.7692 H   0  0  0  0  0  0  0  0  0  0  0  0
   56.0665   33.8850   45.0675 H   0  0  0  0  0  0  0  0  0  0  0  0
   57.4688   33.8807   43.9333 H   0  0  0  0  0  0  0  0  0  0  0  0
   59.2020   31.7010   48.0130 H   0  0  0  0  0  0  0  0  0  0  0  0
   60.4776   31.8633   50.0975 H   0  0  0  0  0  0  0  0  0  0  0  0
   61.4371   30.4262   49.5956 H   0  0  0  0  0  0  0  0  0  0  0  0
   60.5008   32.8849   47.0410 H   0  0  0  0  0  0  0  0  0  0  0  0
   62.1546   34.3392   45.8666 H   0  0  0  0  0  0  0  0  0  0  0  0
   64.4986   34.5071   46.7120 H   0  0  0  0  0  0  0  0  0  0  0  0
   65.1943   33.2111   48.7313 H   0  0  0  0  0  0  0  0  0  0  0  0
   63.5476   31.7490   49.9081 H   0  0  0  0  0  0  0  0  0  0  0  0
   59.0406   27.2036   46.7708 H   0  0  0  0  0  0  0  0  0  0  0  0
   56.1572   24.9678   48.3455 H   0  0  0  0  0  0  0  0  0  0  0  0
   56.4524   22.6788   49.2725 H   0  0  0  0  0  0  0  0  0  0  0  0
   56.4857   20.7081   47.7510 H   0  0  0  0  0  0  0  0  0  0  0  0
   56.2498   21.0190   45.2934 H   0  0  0  0  0  0  0  0  0  0  0  0
   55.9779   28.5787   43.9987 H   0  0  0  0  0  0  0  0  0  0  0  0
  1  2  1  0
  2  3  1  0
  3  4  1  0
  4  5  2  0
  5  6  1  0
  6  7  2  0
  7  8  1  0
  8  9  2  0
  8 10  1  0
 10 11  1  0
 11 12  1  0
 12 13  2  0
 13 14  1  0
 14 15  2  0
 15 16  1  0
 16 17  2  0
  7 18  1  0
 18 19  2  0
 19 20  1  0
 20 21  1  0
 21 22  2  0
 21 23  1  0
 23 24  2  0
 24 25  1  0
 25 26  2  0
 26 27  1  0
 27 28  2  0
 28 29  1  0
 29 30  1  0
 29 31  1  0
 29 32  1  0
 19 33  1  0
 33 34  2  0
 34 35  1  0
 35  4  1  0
 34  6  1  0
 17 12  1  0
 28 23  1  0
  1 36  1  0
  1 37  1  0
  1 38  1  0
  3 39  1  0
  3 40  1  0
 10 41  1  0
 11 42  1  0
 11 43  1  0
 13 44  1  0
 14 45  1  0
 15 46  1  0
 16 47  1  0
 17 48  1  0
 18 49  1  0
 24 50  1  0
 25 51  1  0
 26 52  1  0
 27 53  1  0
 33 54  1  0
M  CHG  2  20  -1  35  -1
M  END
>  <UniqueID>  (44) 
42

>  <SMILES>  (44) 
COCc1nc2c(C(=O)NCc3ccccc3)cc([N-]C(=O)c3ccccc3C(F)(F)F)cc2[n-]1

>  <Energy>  (44) 
103.11568347963058

>  <Genealogy>  (44) 
COCc1nc2c(C(=O)NCc3ccccc3)cc([N-]C(=O)c3ccccc3C(F)(F)F)cc2[n-]1 (protonated)
COCc1nc2c(C(=O)NCc3ccccc3)cc([N-]C(=O)c3ccccc3C(F)(F)F)cc2[n-]1 (3D coordinates assigned)
COCc1nc2c(C(=O)NCc3ccccc3)cc([N-]C(=O)c3ccccc3C(F)(F)F)cc2[n-]1 (optimized conformer: 103.11568347963058 kcal/mol)

>  <smiles>  (44) 
COCc1nc2c(C(=O)NCc3ccccc3)cc(NC(=O)c3ccccc3C(F)(F)F)cc2[nH]1

>  <score_type>  (44) 
oracle

>  <origin>  (44) 
adg

>  <m_score__min__energy>  (44) 
-11.66

>  <m_primary>  (44) 
energy

$$$$
44:0
     RDKit          3D

 55 58  0  0  0  0  0  0  0  0999 V2000
   60.7405   35.1453   47.9794 H   0  0  0  0  0  0  0  0  0  0  0  0
   59.9780   34.6480   47.3620 C   0  0  0  0  0  0  0  0  0  0  0  0
   59.8620   34.9650   46.0050 C   0  0  0  0  0  0  0  0  0  0  0  0
   60.5291   35.7165   45.5575 H   0  0  0  0  0  0  0  0  0  0  0  0
   58.8990   34.3280   45.2160 C   0  0  0  0  0  0  0  0  0  0  0  0
   58.8074   34.5831   44.1499 H   0  0  0  0  0  0  0  0  0  0  0  0
   58.0480   33.3630   45.7810 C   0  0  0  0  0  0  0  0  0  0  0  0
   56.9920   32.6980   44.9390 C   0  0  0  0  0  0  0  0  0  0  0  0
   56.2787   33.4577   44.5870 H   0  0  0  0  0  0  0  0  0  0  0  0
   56.4737   31.9441   45.5497 H   0  0  0  0  0  0  0  0  0  0  0  0
   57.6260   32.0040   43.7300 C   0  0  0  0  0  0  0  0  0  0  0  0
   58.7040   31.8776   43.9087 H   0  0  0  0  0  0  0  0  0  0  0  0
   57.4612   32.6233   42.8360 H   0  0  0  0  0  0  0  0  0  0  0  0
   57.0170   30.6950   43.5180 N   0  0  0  0  0  0  0  0  0  0  0  0
   56.7440   29.7650   44.5720 C   0  0  0  0  0  0  0  0  0  0  0  0
   55.5530   29.4850   44.8750 O   0  0  0  0  0  0  0  0  0  0  0  0
   57.8670   29.1770   45.3370 C   0  0  0  0  0  0  0  0  0  0  0  0
   59.0480   29.9250   45.4450 C   0  0  0  0  0  0  0  0  0  0  0  0
   59.1266   30.8974   44.9368 H   0  0  0  0  0  0  0  0  0  0  0  0
   60.1340   29.4410   46.1990 C   0  0  0  0  0  0  0  0  0  0  0  0
   61.2470   30.1130   46.3270 N   0  0  0  0  0  0  0  0  0  0  0  0
   61.6050   31.0210   47.3810 C   0  0  0  0  0  0  0  0  0  0  0  0
   61.0060   30.8830   48.6380 C   0  0  0  0  0  0  0  0  0  0  0  0
   60.2986   30.0607   48.8204 H   0  0  0  0  0  0  0  0  0  0  0  0
   61.3030   31.7860   49.6630 C   0  0  0  0  0  0  0  0  0  0  0  0
   60.8411   31.6578   50.6530 H   0  0  0  0  0  0  0  0  0  0  0  0
   62.1830   32.8520   49.4410 C   0  0  0  0  0  0  0  0  0  0  0  0
   62.4540   33.7280   50.5030 O   0  0  0  0  0  0  0  0  0  0  0  0
   63.4950   33.5370   51.4580 C   0  0  0  0  0  0  0  0  0  0  0  0
   63.3084   32.6123   52.0238 H   0  0  0  0  0  0  0  0  0  0  0  0
   63.5191   34.3917   52.1500 H   0  0  0  0  0  0  0  0  0  0  0  0
   64.8300   33.4300   50.7380 C   0  0  0  0  0  0  0  0  0  0  0  0
   65.6414   33.3650   51.4778 H   0  0  0  0  0  0  0  0  0  0  0  0
   64.8354   32.5285   50.1076 H   0  0  0  0  0  0  0  0  0  0  0  0
   64.9789   34.3191   50.1076 H   0  0  0  0  0  0  0  0  0  0  0  0
   62.7590   33.0120   48.1650 C   0  0  0  0  0  0  0  0  0  0  0  0
   63.4453   33.8502   47.9744 H   0  0  0  0  0  0  0  0  0  0  0  0
   62.4610   32.1090   47.1410 C   0  0  0  0  0  0  0  0  0  0  0  0
   62.8988   32.2507   46.1419 H   0  0  0  0  0  0  0  0  0  0  0  0
   60.0410   28.2180   46.7890 N   0  0  0  0  0  0  0  0  0  0  0  0
   60.8600   27.8620   47.3350 H   0  0  0  0  0  0  0  0  0  0  0  0
   58.9180   27.4480   46.6950 C   0  0  0  0  0  0  0  0  0  0  0  0
   58.8790   26.1900   47.3200 C   0  0  0  0  0  0  0  0  0  0  0  0
   59.7446   25.8422   47.9028 H   0  0  0  0  0  0  0  0  0  0  0  0
   57.7500   25.3800   47.2060 C   0  0  0  0  0  0  0  0  0  0  0  0
   57.7244   24.4005   47.7059 H   0  0  0  0  0  0  0  0  0  0  0  0
   56.6540   25.8090   46.4600 C   0  0  0  0  0  0  0  0  0  0  0  0
   55.7690   25.1626   46.3648 H   0  0  0  0  0  0  0  0  0  0  0  0
   56.6750   27.0580   45.8320 C   0  0  0  0  0  0  0  0  0  0  0  0
   55.8095   27.3829   45.2359 H   0  0  0  0  0  0  0  0  0  0  0  0
   57.7970   27.9060   45.9560 C   0  0  0  0  0  0  0  0  0  0  0  0
   58.1620   33.0610   47.1490 C   0  0  0  0  0  0  0  0  0  0  0  0
   57.4897   32.3186   47.6038 H   0  0  0  0  0  0  0  0  0  0  0  0
   59.1260   33.7000   47.9340 C   0  0  0  0  0  0  0  0  0  0  0  0
   59.2139   33.4562   49.0030 H   0  0  0  0  0  0  0  0  0  0  0  0
  1  2  1  0
  2  3  2  0
  3  4  1  0
  3  5  1  0
  5  6  1  0
  5  7  2  0
  7  8  1  0
  8  9  1  0
  8 10  1  0
  8 11  1  0
 11 12  1  0
 11 13  1  0
 11 14  1  0
 14 15  1  0
 15 16  2  0
 15 17  1  0
 17 18  2  0
 18 19  1  0
 18 20  1  0
 20 21  2  0
 21 22  1  0
 22 23  2  0
 23 24  1  0
 23 25  1  0
 25 26  1  0
 25 27  2  0
 27 28  1  0
 28 29  1  0
 29 30  1  0
 29 31  1  0
 29 32  1  0
 32 33  1  0
 32 34  1  0
 32 35  1  0
 27 36  1  0
 36 37  1  0
 36 38  2  0
 38 39  1  0
 20 40  1  0
 40 41  1  0
 40 42  1  0
 42 43  2  0
 43 44  1  0
 43 45  1  0
 45 46  1  0
 45 47  2  0
 47 48  1  0
 47 49  1  0
 49 50  1  0
 49 51  2  0
  7 52  1  0
 52 53  1  0
 52 54  2  0
 54 55  1  0
 54  2  1  0
 51 17  1  0
 38 22  1  0
 51 42  1  0
M  CHG  1  14  -1
M  END
>  <UniqueID>  (45) 
43

>  <SMILES>  (45) 
CCOc1ccc(/N=c2\cc(C(=O)[N-]CCc3ccccc3)c3ccccc3[nH]2)cc1

>  <Energy>  (45) 
71.59641567215616

>  <Genealogy>  (45) 
CCOc1ccc(N=c2cc(C(=O)[N-]CCc3ccccc3)c3ccccc3[nH]2)cc1 (protonated)
CCOc1ccc(/N=c2\cc(C(=O)[N-]CCc3ccccc3)c3ccccc3[nH]2)cc1 (cis-trans isomerization)
CCOc1ccc(/N=c2\cc(C(=O)[N-]CCc3ccccc3)c3ccccc3[nH]2)cc1 (3D coordinates assigned)
CCOc1ccc(/N=c2\cc(C(=O)[N-]CCc3ccccc3)c3ccccc3[nH]2)cc1 (optimized conformer: 71.59641567215616 kcal/mol)

>  <smiles>  (45) 
CCOc1ccc(N=c2cc(C(=O)NCCc3ccccc3)c3ccccc3[nH]2)cc1

>  <score_type>  (45) 
oracle

>  <origin>  (45) 
adg

>  <m_score__min__energy>  (45) 
-10.529999999999999

>  <m_primary>  (45) 
energy

$$$$
45:0
     RDKit          3D

 55 57  0  0  0  0  0  0  0  0999 V2000
   63.0790   26.4060   52.3870 C   0  0  0  0  0  0  0  0  0  0  0  0
   61.8390   26.2230   51.7110 O   0  0  0  0  0  0  0  0  0  0  0  0
   61.1320   27.2470   51.0640 C   0  0  0  0  0  0  0  0  0  0  0  0
   60.7570   27.1670   49.7100 C   0  0  0  0  0  0  0  0  0  0  0  0
   60.0580   28.2170   49.1090 C   0  0  0  0  0  0  0  0  0  0  0  0
   59.7300   29.3690   49.8420 C   0  0  0  0  0  0  0  0  0  0  0  0
   59.0090   30.4810   49.1830 C   0  0  0  0  0  0  0  0  0  0  0  0
   58.4560   31.3710   49.8880 O   0  0  0  0  0  0  0  0  0  0  0  0
   58.8760   30.5160   47.7550 N   0  0  0  0  0  0  0  0  0  0  0  0
   58.5940   31.7100   47.0050 C   0  0  0  0  0  0  0  0  0  0  0  0
   58.7350   32.9780   47.5990 C   0  0  0  0  0  0  0  0  0  0  0  0
   58.5250   34.1390   46.8500 C   0  0  0  0  0  0  0  0  0  0  0  0
   58.1840   34.0480   45.5000 C   0  0  0  0  0  0  0  0  0  0  0  0
   58.0520   32.7960   44.8940 C   0  0  0  0  0  0  0  0  0  0  0  0
   58.2580   31.6240   45.6370 C   0  0  0  0  0  0  0  0  0  0  0  0
   58.0720   30.3470   45.0060 N   0  0  0  0  0  0  0  0  0  0  0  0
   59.2470   29.6250   44.5040 C   0  0  0  0  0  0  0  0  0  0  0  0
   59.3090   28.2330   45.0740 C   0  0  0  0  0  0  0  0  0  0  0  0
   60.3950   27.8360   45.8720 C   0  0  0  0  0  0  0  0  0  0  0  0
   60.4640   26.5330   46.3710 C   0  0  0  0  0  0  0  0  0  0  0  0
   59.4560   25.6140   46.0680 C   0  0  0  0  0  0  0  0  0  0  0  0
   58.3780   25.9940   45.2610 C   0  0  0  0  0  0  0  0  0  0  0  0
   57.1000   24.8030   44.8440 S   0  0  0  0  0  0  0  0  0  0  0  0
   56.0080   25.2490   46.2360 C   0  0  0  0  0  0  0  0  0  0  0  0
   55.1430   24.2070   46.5110 F   0  0  0  0  0  0  0  0  0  0  0  0
   56.7830   25.4970   47.3530 F   0  0  0  0  0  0  0  0  0  0  0  0
   55.2810   26.3840   45.9310 F   0  0  0  0  0  0  0  0  0  0  0  0
   58.2950   27.3070   44.7830 C   0  0  0  0  0  0  0  0  0  0  0  0
   56.4870   29.9640   44.3930 S   0  0  0  0  0  0  0  0  0  0  0  0
   56.5760   29.4400   42.6930 C   0  0  0  0  0  0  0  0  0  0  0  0
   55.8840   28.8550   45.2100 O   0  0  0  0  0  0  0  0  0  0  0  0
   55.6000   31.1710   44.4980 O   0  0  0  0  0  0  0  0  0  0  0  0
   60.0920   29.4390   51.2010 C   0  0  0  0  0  0  0  0  0  0  0  0
   59.7500   30.5110   51.9620 F   0  0  0  0  0  0  0  0  0  0  0  0
   60.7870   28.3850   51.8000 C   0  0  0  0  0  0  0  0  0  0  0  0
   62.9112   26.3812   53.4739 H   0  0  0  0  0  0  0  0  0  0  0  0
   63.7729   25.6005   52.1047 H   0  0  0  0  0  0  0  0  0  0  0  0
   63.5106   27.3776   52.1047 H   0  0  0  0  0  0  0  0  0  0  0  0
   61.0153   26.2739   49.1221 H   0  0  0  0  0  0  0  0  0  0  0  0
   59.7620   28.1406   48.0523 H   0  0  0  0  0  0  0  0  0  0  0  0
   58.9280   29.6080   47.2430 H   0  0  0  0  0  0  0  0  0  0  0  0
   59.0125   33.0558   48.6606 H   0  0  0  0  0  0  0  0  0  0  0  0
   58.6286   35.1256   47.3252 H   0  0  0  0  0  0  0  0  0  0  0  0
   58.0189   34.9630   44.9122 H   0  0  0  0  0  0  0  0  0  0  0  0
   57.7852   32.7289   43.8290 H   0  0  0  0  0  0  0  0  0  0  0  0
   59.1893   29.5624   43.4073 H   0  0  0  0  0  0  0  0  0  0  0  0
   60.1514   30.1704   44.8118 H   0  0  0  0  0  0  0  0  0  0  0  0
   61.1947   28.5545   46.1050 H   0  0  0  0  0  0  0  0  0  0  0  0
   61.3122   26.2304   47.0027 H   0  0  0  0  0  0  0  0  0  0  0  0
   59.5101   24.5895   46.4648 H   0  0  0  0  0  0  0  0  0  0  0  0
   57.4307   27.6148   44.1762 H   0  0  0  0  0  0  0  0  0  0  0  0
   56.7601   28.3563   42.6525 H   0  0  0  0  0  0  0  0  0  0  0  0
   55.6260   29.6697   42.1883 H   0  0  0  0  0  0  0  0  0  0  0  0
   57.3969   29.9705   42.1883 H   0  0  0  0  0  0  0  0  0  0  0  0
   61.0658   28.4512   52.8620 H   0  0  0  0  0  0  0  0  0  0  0  0
  1  2  1  0
  2  3  1  0
  3  4  2  0
  4  5  1  0
  5  6  2  0
  6  7  1  0
  7  8  2  0
  7  9  1  0
  9 10  1  0
 10 11  2  0
 11 12  1  0
 12 13  2  0
 13 14  1  0
 14 15  2  0
 15 16  1  0
 16 17  1  0
 17 18  1  0
 18 19  2  0
 19 20  1  0
 20 21  2  0
 21 22  1  0
 22 23  1  0
 23 24  1  0
 24 25  1  0
 24 26  1  0
 24 27  1  0
 22 28  2  0
 16 29  1  0
 29 30  1  0
 29 31  2  0
 29 32  2  0
  6 33  1  0
 33 34  1  0
 33 35  2  0
 35  3  1  0
 15 10  1  0
 28 18  1  0
  1 36  1  0
  1 37  1  0
  1 38  1  0
  4 39  1  0
  5 40  1  0
  9 41  1  0
 11 42  1  0
 12 43  1  0
 13 44  1  0
 14 45  1  0
 17 46  1  0
 17 47  1  0
 19 48  1  0
 20 49  1  0
 21 50  1  0
 28 51  1  0
 30 52  1  0
 30 53  1  0
 30 54  1  0
 35 55  1  0
M  END
>  <UniqueID>  (46) 
44

>  <SMILES>  (46) 
COc1ccc(C(=O)Nc2ccccc2N(Cc2cccc(SC(F)(F)F)c2)S(C)(=O)=O)c(F)c1

>  <Energy>  (46) 
56.72570958062916

>  <Genealogy>  (46) 
COc1ccc(C(=O)Nc2ccccc2N(Cc2cccc(SC(F)(F)F)c2)S(C)(=O)=O)c(F)c1 (3D coordinates assigned)
COc1ccc(C(=O)Nc2ccccc2N(Cc2cccc(SC(F)(F)F)c2)S(C)(=O)=O)c(F)c1 (optimized conformer: 56.72570958062916 kcal/mol)

>  <smiles>  (46) 
COc1ccc(C(=O)Nc2ccccc2N(Cc2cccc(SC(F)(F)F)c2)S(C)(=O)=O)c(F)c1

>  <score_type>  (46) 
oracle

>  <origin>  (46) 
adg

>  <m_score__min__energy>  (46) 
-8.5899999999999999

>  <m_primary>  (46) 
energy

$$$$
46:0
     RDKit          3D

 51 54  0  0  0  0  0  0  0  0999 V2000
   60.4380   34.5760   48.3550 C   0  0  0  0  0  0  0  0  0  0  0  0
   59.9290   34.8440   47.0520 O   0  0  0  0  0  0  0  0  0  0  0  0
   59.1370   33.9540   46.3130 C   0  0  0  0  0  0  0  0  0  0  0  0
   58.2270   33.0700   46.9200 C   0  0  0  0  0  0  0  0  0  0  0  0
   57.4570   32.1990   46.1440 C   0  0  0  0  0  0  0  0  0  0  0  0
   57.5840   32.1920   44.7410 C   0  0  0  0  0  0  0  0  0  0  0  0
   56.8360   31.3280   43.9050 C   0  0  0  0  0  0  0  0  0  0  0  0
   55.8520   30.3180   44.4540 C   0  0  0  0  0  0  0  0  0  0  0  0
   56.4820   28.9860   44.5590 N   0  0  0  0  0  0  0  0  0  0  0  0
   57.1680   28.6330   43.2930 C   0  0  0  0  0  0  0  0  0  0  0  0
   58.1630   27.4640   43.4590 C   0  0  0  0  0  0  0  0  0  0  0  0
   57.8830   26.7110   44.6890 N   0  0  0  0  0  0  0  0  0  0  0  0
   57.7820   25.2730   44.6720 C   0  0  0  0  0  0  0  0  0  0  0  0
   57.0150   24.6270   43.6870 C   0  0  0  0  0  0  0  0  0  0  0  0
   56.9030   23.2340   43.6790 C   0  0  0  0  0  0  0  0  0  0  0  0
   57.5610   22.4650   44.6500 C   0  0  0  0  0  0  0  0  0  0  0  0
   57.4070   20.9730   44.6660 C   0  0  0  0  0  0  0  0  0  0  0  0
   58.3040   23.1090   45.6500 C   0  0  0  0  0  0  0  0  0  0  0  0
   58.4160   24.5020   45.6590 C   0  0  0  0  0  0  0  0  0  0  0  0
   57.7680   27.4430   45.9570 C   0  0  0  0  0  0  0  0  0  0  0  0
   57.4100   28.9120   45.7030 C   0  0  0  0  0  0  0  0  0  0  0  0
   57.0350   31.3990   42.5190 C   0  0  0  0  0  0  0  0  0  0  0  0
   57.9560   32.3120   42.0020 C   0  0  0  0  0  0  0  0  0  0  0  0
   58.1400   32.3810   40.7580 O   0  0  0  0  0  0  0  0  0  0  0  0
   58.6430   33.1070   42.8120 O   0  0  0  0  0  0  0  0  0  0  0  0
   58.4990   33.0850   44.1330 C   0  0  0  0  0  0  0  0  0  0  0  0
   59.2630   33.9530   44.9200 C   0  0  0  0  0  0  0  0  0  0  0  0
   59.7295   34.9490   49.1093 H   0  0  0  0  0  0  0  0  0  0  0  0
   60.5703   33.4913   48.4810 H   0  0  0  0  0  0  0  0  0  0  0  0
   61.4072   35.0807   48.4810 H   0  0  0  0  0  0  0  0  0  0  0  0
   58.1203   33.0640   48.0148 H   0  0  0  0  0  0  0  0  0  0  0  0
   56.7473   31.5147   46.6319 H   0  0  0  0  0  0  0  0  0  0  0  0
   55.5203   30.6412   45.4518 H   0  0  0  0  0  0  0  0  0  0  0  0
   54.9920   30.2519   43.7714 H   0  0  0  0  0  0  0  0  0  0  0  0
   56.4093   28.3462   42.5500 H   0  0  0  0  0  0  0  0  0  0  0  0
   57.7421   29.5139   42.9699 H   0  0  0  0  0  0  0  0  0  0  0  0
   58.0739   26.7892   42.5949 H   0  0  0  0  0  0  0  0  0  0  0  0
   59.1817   27.8743   43.5211 H   0  0  0  0  0  0  0  0  0  0  0  0
   56.4999   25.2214   42.9180 H   0  0  0  0  0  0  0  0  0  0  0  0
   56.2958   22.7382   42.9073 H   0  0  0  0  0  0  0  0  0  0  0  0
   57.3705   20.6193   45.7069 H   0  0  0  0  0  0  0  0  0  0  0  0
   56.4754   20.6950   44.1514 H   0  0  0  0  0  0  0  0  0  0  0  0
   58.2622   20.5106   44.1514 H   0  0  0  0  0  0  0  0  0  0  0  0
   58.8010   22.5148   46.4310 H   0  0  0  0  0  0  0  0  0  0  0  0
   59.0049   24.9976   46.4448 H   0  0  0  0  0  0  0  0  0  0  0  0
   56.9813   26.9804   46.5711 H   0  0  0  0  0  0  0  0  0  0  0  0
   58.7348   27.3995   46.4799 H   0  0  0  0  0  0  0  0  0  0  0  0
   56.9285   29.3348   46.5971 H   0  0  0  0  0  0  0  0  0  0  0  0
   58.3222   29.4852   45.4809 H   0  0  0  0  0  0  0  0  0  0  0  0
   56.4695   30.7400   41.8437 H   0  0  0  0  0  0  0  0  0  0  0  0
   59.9712   34.6429   44.4378 H   0  0  0  0  0  0  0  0  0  0  0  0
  1  2  1  0
  2  3  1  0
  3  4  2  0
  4  5  1  0
  5  6  2  0
  6  7  1  0
  7  8  1  0
  8  9  1  0
  9 10  1  0
 10 11  1  0
 11 12  1  0
 12 13  1  0
 13 14  2  0
 14 15  1  0
 15 16  2  0
 16 17  1  0
 16 18  1  0
 18 19  2  0
 12 20  1  0
 20 21  1  0
  7 22  2  0
 22 23  1  0
 23 24  2  0
 23 25  1  0
 25 26  1  0
 26 27  2  0
 27  3  1  0
 26  6  1  0
 21  9  1  0
 19 13  1  0
  1 28  1  0
  1 29  1  0
  1 30  1  0
  4 31  1  0
  5 32  1  0
  8 33  1  0
  8 34  1  0
 10 35  1  0
 10 36  1  0
 11 37  1  0
 11 38  1  0
 14 39  1  0
 15 40  1  0
 17 41  1  0
 17 42  1  0
 17 43  1  0
 18 44  1  0
 19 45  1  0
 20 46  1  0
 20 47  1  0
 21 48  1  0
 21 49  1  0
 22 50  1  0
 27 51  1  0
M  END
>  <UniqueID>  (47) 
45

>  <SMILES>  (47) 
COc1ccc2c(CN3CCN(c4ccc(C)cc4)CC3)cc(=O)oc2c1

>  <Energy>  (47) 
67.98836009150473

>  <Genealogy>  (47) 
COc1ccc2c(CN3CCN(c4ccc(C)cc4)CC3)cc(=O)oc2c1 (3D coordinates assigned)
COc1ccc2c(CN3CCN(c4ccc(C)cc4)CC3)cc(=O)oc2c1 (nonaromatic ring conformer: 67.98836009150473 kcal/mol)

>  <smiles>  (47) 
COc1ccc2c(CN3CCN(c4ccc(C)cc4)CC3)cc(=O)oc2c1

>  <score_type>  (47) 
oracle

>  <origin>  (47) 
adg

>  <m_score__min__energy>  (47) 
-8.2100000000000009

>  <m_primary>  (47) 
energy

$$$$
47:0
     RDKit          3D

 57 60  0  0  0  0  0  0  0  0999 V2000
   61.0530   34.3480   49.3060 O   0  0  0  0  0  0  0  0  0  0  0  0
   61.2260   33.6210   48.0010 S   0  0  0  0  0  0  0  0  0  0  0  0
   62.4100   34.1950   47.2750 O   0  0  0  0  0  0  0  0  0  0  0  0
   61.5160   31.9410   48.3240 N   0  0  0  0  0  0  0  0  0  0  0  0
   60.5910   31.0790   49.0110 C   0  0  0  0  0  0  0  0  0  0  0  0
   59.7310   30.2040   48.3180 C   0  0  0  0  0  0  0  0  0  0  0  0
   58.8380   29.3910   49.0190 C   0  0  0  0  0  0  0  0  0  0  0  0
   58.7800   29.4480   50.4130 C   0  0  0  0  0  0  0  0  0  0  0  0
   59.6180   30.3220   51.1200 C   0  0  0  0  0  0  0  0  0  0  0  0
   59.5000   30.4450   52.6200 C   0  0  0  0  0  0  0  0  0  0  0  0
   58.5330   31.4790   53.0570 N   0  0  0  0  0  0  0  0  0  0  0  0
   57.7920   31.1770   54.3010 C   0  0  0  0  0  0  0  0  0  0  0  0
   56.3990   30.5590   54.0570 C   0  0  0  0  0  0  0  0  0  0  0  0
   56.2020   30.2510   52.6330 N   0  0  0  0  0  0  0  0  0  0  0  0
   54.9690   29.4810   52.3600 C   0  0  0  0  0  0  0  0  0  0  0  0
   53.7270   30.3370   52.2410 C   0  0  0  0  0  0  0  0  0  0  0  0
   52.9770   30.6630   53.3840 C   0  0  0  0  0  0  0  0  0  0  0  0
   51.8270   31.4500   53.2730 C   0  0  0  0  0  0  0  0  0  0  0  0
   51.4180   31.9220   52.0210 C   0  0  0  0  0  0  0  0  0  0  0  0
   50.2750   32.7030   51.9120 O   0  0  0  0  0  0  0  0  0  0  0  0
   52.1630   31.6090   50.8800 C   0  0  0  0  0  0  0  0  0  0  0  0
   53.3140   30.8220   50.9880 C   0  0  0  0  0  0  0  0  0  0  0  0
   56.3290   31.4650   51.8170 C   0  0  0  0  0  0  0  0  0  0  0  0
   57.7260   32.0970   51.9820 C   0  0  0  0  0  0  0  0  0  0  0  0
   60.5350   31.1180   50.4130 C   0  0  0  0  0  0  0  0  0  0  0  0
   59.7950   33.8070   46.9920 C   0  0  0  0  0  0  0  0  0  0  0  0
   58.5540   33.3220   47.4310 C   0  0  0  0  0  0  0  0  0  0  0  0
   57.4200   33.4640   46.6240 C   0  0  0  0  0  0  0  0  0  0  0  0
   57.5220   34.0940   45.3800 C   0  0  0  0  0  0  0  0  0  0  0  0
   58.7550   34.5830   44.9410 C   0  0  0  0  0  0  0  0  0  0  0  0
   59.8900   34.4420   45.7470 C   0  0  0  0  0  0  0  0  0  0  0  0
   62.4380   31.5550   48.0190 H   0  0  0  0  0  0  0  0  0  0  0  0
   59.7633   30.1612   47.2193 H   0  0  0  0  0  0  0  0  0  0  0  0
   58.1776   28.7029   48.4709 H   0  0  0  0  0  0  0  0  0  0  0  0
   58.0741   28.8047   50.9587 H   0  0  0  0  0  0  0  0  0  0  0  0
   59.1771   29.4742   53.0240 H   0  0  0  0  0  0  0  0  0  0  0  0
   60.4879   30.7479   52.9971 H   0  0  0  0  0  0  0  0  0  0  0  0
   58.3868   30.4690   54.8967 H   0  0  0  0  0  0  0  0  0  0  0  0
   57.6336   32.1329   54.8218 H   0  0  0  0  0  0  0  0  0  0  0  0
   56.3094   29.6315   54.6415 H   0  0  0  0  0  0  0  0  0  0  0  0
   55.6337   31.2854   54.3678 H   0  0  0  0  0  0  0  0  0  0  0  0
   55.1043   28.9333   51.4157 H   0  0  0  0  0  0  0  0  0  0  0  0
   54.8142   28.8102   53.2179 H   0  0  0  0  0  0  0  0  0  0  0  0
   53.2965   30.2970   54.3709 H   0  0  0  0  0  0  0  0  0  0  0  0
   51.2428   31.6986   54.1713 H   0  0  0  0  0  0  0  0  0  0  0  0
   51.8433   31.9823   49.8959 H   0  0  0  0  0  0  0  0  0  0  0  0
   53.8989   30.5814   50.0880 H   0  0  0  0  0  0  0  0  0  0  0  0
   56.1740   31.2056   50.7593 H   0  0  0  0  0  0  0  0  0  0  0  0
   55.5735   32.1920   52.1497 H   0  0  0  0  0  0  0  0  0  0  0  0
   58.2708   31.9890   51.0325 H   0  0  0  0  0  0  0  0  0  0  0  0
   57.5726   33.1504   52.2591 H   0  0  0  0  0  0  0  0  0  0  0  0
   61.2178   31.7803   50.9654 H   0  0  0  0  0  0  0  0  0  0  0  0
   58.4724   32.8294   48.4111 H   0  0  0  0  0  0  0  0  0  0  0  0
   56.4483   33.0801   46.9682 H   0  0  0  0  0  0  0  0  0  0  0  0
   56.6300   34.2049   44.7459 H   0  0  0  0  0  0  0  0  0  0  0  0
   58.8334   35.0786   43.9621 H   0  0  0  0  0  0  0  0  0  0  0  0
   60.8595   34.8308   45.4021 H   0  0  0  0  0  0  0  0  0  0  0  0
  1  2  2  0
  2  3  2  0
  2  4  1  0
  4  5  1  0
  5  6  2  0
  6  7  1  0
  7  8  2  0
  8  9  1  0
  9 10  1  0
 10 11  1  0
 11 12  1  0
 12 13  1  0
 13 14  1  0
 14 15  1  0
 15 16  1  0
 16 17  2  0
 17 18  1  0
 18 19  2  0
 19 20  1  0
 19 21  1  0
 21 22  2  0
 14 23  1  0
 23 24  1  0
  9 25  2  0
  2 26  1  0
 26 27  2  0
 27 28  1  0
 28 29  2  0
 29 30  1  0
 30 31  2  0
 25  5  1  0
 31 26  1  0
 24 11  1  0
 22 16  1  0
  4 32  1  0
  6 33  1  0
  7 34  1  0
  8 35  1  0
 10 36  1  0
 10 37  1  0
 12 38  1  0
 12 39  1  0
 13 40  1  0
 13 41  1  0
 15 42  1  0
 15 43  1  0
 17 44  1  0
 18 45  1  0
 21 46  1  0
 22 47  1  0
 23 48  1  0
 23 49  1  0
 24 50  1  0
 24 51  1  0
 25 52  1  0
 27 53  1  0
 28 54  1  0
 29 55  1  0
 30 56  1  0
 31 57  1  0
M  CHG  1  20  -1
M  END
>  <UniqueID>  (48) 
46

>  <SMILES>  (48) 
O=S(=O)(Nc1cccc(CN2CCN(Cc3ccc([O-])cc3)CC2)c1)c1ccccc1

>  <Energy>  (48) 
78.15533972525672

>  <Genealogy>  (48) 
O=S(=O)(Nc1cccc(CN2CCN(Cc3ccc([O-])cc3)CC2)c1)c1ccccc1 (protonated)
O=S(=O)(Nc1cccc(CN2CCN(Cc3ccc([O-])cc3)CC2)c1)c1ccccc1 (3D coordinates assigned)
O=S(=O)(Nc1cccc(CN2CCN(Cc3ccc([O-])cc3)CC2)c1)c1ccccc1 (nonaromatic ring conformer: 78.15533972525672 kcal/mol)

>  <smiles>  (48) 
O=S(=O)(Nc1cccc(CN2CCN(Cc3ccc(O)cc3)CC2)c1)c1ccccc1

>  <score_type>  (48) 
oracle

>  <origin>  (48) 
adg

>  <m_score__min__energy>  (48) 
-13.890000000000001

>  <m_primary>  (48) 
energy

$$$$
48:0
     RDKit          3D

 51 54  0  0  0  0  0  0  0  0999 V2000
   61.2000   34.1960   49.4870 C   0  0  0  0  0  0  0  0  0  0  0  0
   62.5730   34.0520   48.8930 C   0  0  0  0  0  0  0  0  0  0  0  0
   63.5420   34.1240   49.6390 O   0  0  0  0  0  0  0  0  0  0  0  0
   62.7550   33.8450   47.4640 N   0  0  1  0  0  0  0  0  0  0  0  0
   63.6020   32.6650   47.1730 C   0  0  0  0  0  0  0  0  0  0  0  0
   62.9180   31.3310   47.5080 C   0  0  0  0  0  0  0  0  0  0  0  0
   61.4870   31.2870   47.0530 C   0  0  0  0  0  0  0  0  0  0  0  0
   60.8330   30.0480   46.9650 C   0  0  0  0  0  0  0  0  0  0  0  0
   59.4910   29.9820   46.5830 C   0  0  0  0  0  0  0  0  0  0  0  0
   58.7760   31.1580   46.3170 C   0  0  0  0  0  0  0  0  0  0  0  0
   57.4060   31.1120   45.9110 N   0  0  0  0  0  0  0  0  0  0  0  0
   56.8920   30.3320   44.4520 S   0  0  0  0  0  0  0  0  0  0  0  0
   55.4140   30.5440   44.2770 O   0  0  0  0  0  0  0  0  0  0  0  0
   57.6000   30.9680   43.2860 O   0  0  0  0  0  0  0  0  0  0  0  0
   57.2190   28.6020   44.4950 C   0  0  0  0  0  0  0  0  0  0  0  0
   56.8430   27.8460   45.6110 C   0  0  0  0  0  0  0  0  0  0  0  0
   57.0380   26.4590   45.6220 C   0  0  0  0  0  0  0  0  0  0  0  0
   57.6130   25.8110   44.5120 C   0  0  0  0  0  0  0  0  0  0  0  0
   57.7740   24.3340   44.4910 C   0  0  0  0  0  0  0  0  0  0  0  0
   56.9550   23.5360   43.6700 C   0  0  0  0  0  0  0  0  0  0  0  0
   57.1340   22.1510   43.6200 C   0  0  0  0  0  0  0  0  0  0  0  0
   58.1300   21.5450   44.3870 C   0  0  0  0  0  0  0  0  0  0  0  0
   58.9500   22.3250   45.2070 C   0  0  0  0  0  0  0  0  0  0  0  0
   58.7730   23.7110   45.2620 C   0  0  0  0  0  0  0  0  0  0  0  0
   58.0120   26.5830   43.4050 C   0  0  0  0  0  0  0  0  0  0  0  0
   57.8150   27.9650   43.3980 C   0  0  0  0  0  0  0  0  0  0  0  0
   59.4110   32.3960   46.4400 C   0  0  0  0  0  0  0  0  0  0  0  0
   60.7670   32.4720   46.7990 C   0  0  0  0  0  0  0  0  0  0  0  0
   61.4660   33.8110   46.7370 C   0  0  0  0  0  0  0  0  0  0  0  0
   61.2727   34.1884   50.5846 H   0  0  0  0  0  0  0  0  0  0  0  0
   60.7549   35.1458   49.1556 H   0  0  0  0  0  0  0  0  0  0  0  0
   60.5675   33.3593   49.1556 H   0  0  0  0  0  0  0  0  0  0  0  0
   63.2710   34.6700   47.0830 H   0  0  0  0  0  0  0  0  0  0  0  0
   63.8524   32.6701   46.1019 H   0  0  0  0  0  0  0  0  0  0  0  0
   64.4975   32.7413   47.8073 H   0  0  0  0  0  0  0  0  0  0  0  0
   63.4702   30.5178   47.0141 H   0  0  0  0  0  0  0  0  0  0  0  0
   62.9240   31.2183   48.6022 H   0  0  0  0  0  0  0  0  0  0  0  0
   61.3809   29.1231   47.1984 H   0  0  0  0  0  0  0  0  0  0  0  0
   58.9941   29.0050   46.4907 H   0  0  0  0  0  0  0  0  0  0  0  0
   56.3926   28.3429   46.4829 H   0  0  0  0  0  0  0  0  0  0  0  0
   56.7400   25.8722   46.5034 H   0  0  0  0  0  0  0  0  0  0  0  0
   56.1676   24.0065   43.0628 H   0  0  0  0  0  0  0  0  0  0  0  0
   56.4884   21.5371   42.9747 H   0  0  0  0  0  0  0  0  0  0  0  0
   58.2695   20.4546   44.3462 H   0  0  0  0  0  0  0  0  0  0  0  0
   59.7362   21.8477   45.8103 H   0  0  0  0  0  0  0  0  0  0  0  0
   59.4192   24.3187   45.9125 H   0  0  0  0  0  0  0  0  0  0  0  0
   58.4824   26.0940   42.5392 H   0  0  0  0  0  0  0  0  0  0  0  0
   58.1294   28.5576   42.5263 H   0  0  0  0  0  0  0  0  0  0  0  0
   58.8440   33.3201   46.2540 H   0  0  0  0  0  0  0  0  0  0  0  0
   61.6565   34.0545   45.6813 H   0  0  0  0  0  0  0  0  0  0  0  0
   60.8035   34.5417   47.2241 H   0  0  0  0  0  0  0  0  0  0  0  0
  1  2  1  0
  2  3  2  0
  2  4  1  0
  4  5  1  0
  5  6  1  0
  6  7  1  0
  7  8  2  0
  8  9  1  0
  9 10  2  0
 10 11  1  0
 11 12  1  0
 12 13  2  0
 12 14  2  0
 12 15  1  0
 15 16  2  0
 16 17  1  0
 17 18  2  0
 18 19  1  0
 19 20  2  0
 20 21  1  0
 21 22  2  0
 22 23  1  0
 23 24  2  0
 18 25  1  0
 25 26  2  0
 10 27  1  0
 27 28  2  0
 28 29  1  0
 29  4  1  0
 28  7  1  0
 26 15  1  0
 24 19  1  0
  1 30  1  0
  1 31  1  0
  1 32  1  0
  4 33  1  6
  5 34  1  0
  5 35  1  0
  6 36  1  0
  6 37  1  0
  8 38  1  0
  9 39  1  0
 16 40  1  0
 17 41  1  0
 20 42  1  0
 21 43  1  0
 22 44  1  0
 23 45  1  0
 24 46  1  0
 25 47  1  0
 26 48  1  0
 27 49  1  0
 29 50  1  0
 29 51  1  0
M  CHG  2   4   1  11  -1
M  END
>  <UniqueID>  (49) 
47

>  <SMILES>  (49) 
CC(=O)[N@H+]1CCc2ccc([N-]S(=O)(=O)c3ccc(-c4ccccc4)cc3)cc2C1

>  <Energy>  (49) 
73.38534173998326

>  <Genealogy>  (49) 
CC(=O)[NH+]1CCc2ccc([N-]S(=O)(=O)c3ccc(-c4ccccc4)cc3)cc2C1 (protonated)
CC(=O)[N@H+]1CCc2ccc([N-]S(=O)(=O)c3ccc(-c4ccccc4)cc3)cc2C1 (chirality)
CC(=O)[N@H+]1CCc2ccc([N-]S(=O)(=O)c3ccc(-c4ccccc4)cc3)cc2C1 (3D coordinates assigned)
CC(=O)[N@H+]1CCc2ccc([N-]S(=O)(=O)c3ccc(-c4ccccc4)cc3)cc2C1 (nonaromatic ring conformer: 73.38534173998326 kcal/mol)

>  <smiles>  (49) 
CC(=O)N1CCc2ccc(NS(=O)(=O)c3ccc(-c4ccccc4)cc3)cc2C1

>  <score_type>  (49) 
oracle

>  <origin>  (49) 
adg

>  <m_score__min__energy>  (49) 
-9.5199999999999996

>  <m_primary>  (49) 
energy

$$$$
49:0
     RDKit          3D

 35 36  0  0  0  0  0  0  0  0999 V2000
   56.6360   34.7620   44.8920 C   0  0  0  0  0  0  0  0  0  0  0  0
   57.5680   33.8870   45.6650 C   0  0  0  0  0  0  0  0  0  0  0  0
   57.7720   34.0030   46.9930 N   0  0  0  0  0  0  0  0  0  0  0  0
   58.5890   33.0500   47.3380 O   0  0  0  0  0  0  0  0  0  0  0  0
   58.9200   32.3090   46.3060 C   0  0  0  0  0  0  0  0  0  0  0  0
   60.0060   30.9360   46.3820 Cl  0  0  0  0  0  0  0  0  0  0  0  0
   58.2750   32.7970   45.1890 C   0  0  0  0  0  0  0  0  0  0  0  0
   58.3860   32.2970   43.7740 C   0  0  0  0  0  0  0  0  0  0  0  0
   57.2570   31.3210   43.4200 C   0  0  0  0  0  0  0  0  0  0  0  0
   57.2700   30.1060   44.3030 C   0  0  0  0  0  0  0  0  0  0  0  0
   56.2520   29.8360   44.9950 O   0  0  0  0  0  0  0  0  0  0  0  0
   58.4420   29.2760   44.3640 N   0  0  0  0  0  0  0  0  0  0  0  0
   58.5060   27.9890   45.0050 C   0  0  0  0  0  0  0  0  0  0  0  0
   59.7150   27.4680   45.5020 C   0  0  0  0  0  0  0  0  0  0  0  0
   59.7370   26.2280   46.1440 C   0  0  0  0  0  0  0  0  0  0  0  0
   58.5560   25.5030   46.3130 C   0  0  0  0  0  0  0  0  0  0  0  0
   57.3410   26.0210   45.8500 C   0  0  0  0  0  0  0  0  0  0  0  0
   55.8510   25.1080   46.0610 S   0  0  0  0  0  0  0  0  0  0  0  0
   54.4990   26.1800   45.9790 N   0  0  0  0  0  0  0  0  0  0  0  0
   55.8620   24.4170   47.3960 O   0  0  0  0  0  0  0  0  0  0  0  0
   55.7330   24.0670   44.9820 O   0  0  0  0  0  0  0  0  0  0  0  0
   57.3200   27.2630   45.1990 C   0  0  0  0  0  0  0  0  0  0  0  0
   56.0160   35.3441   45.5897 H   0  0  0  0  0  0  0  0  0  0  0  0
   57.2176   35.4479   44.2585 H   0  0  0  0  0  0  0  0  0  0  0  0
   55.9881   34.1383   44.2585 H   0  0  0  0  0  0  0  0  0  0  0  0
   58.3405   33.1564   43.0889 H   0  0  0  0  0  0  0  0  0  0  0  0
   59.3417   31.7612   43.6766 H   0  0  0  0  0  0  0  0  0  0  0  0
   56.2920   31.8357   43.5374 H   0  0  0  0  0  0  0  0  0  0  0  0
   57.4057   30.9896   42.3817 H   0  0  0  0  0  0  0  0  0  0  0  0
   59.3280   29.6660   43.9700 H   0  0  0  0  0  0  0  0  0  0  0  0
   60.6471   28.0401   45.3843 H   0  0  0  0  0  0  0  0  0  0  0  0
   60.6882   25.8211   46.5178 H   0  0  0  0  0  0  0  0  0  0  0  0
   58.5804   24.5225   46.8111 H   0  0  0  0  0  0  0  0  0  0  0  0
   54.7990   27.0820   46.4130 H   0  0  0  0  0  0  0  0  0  0  0  0
   56.3653   27.6723   44.8370 H   0  0  0  0  0  0  0  0  0  0  0  0
  1  2  1  0
  2  3  2  0
  3  4  1  0
  4  5  1  0
  5  6  1  0
  5  7  2  0
  7  8  1  0
  8  9  1  0
  9 10  1  0
 10 11  2  0
 10 12  1  0
 12 13  1  0
 13 14  2  0
 14 15  1  0
 15 16  2  0
 16 17  1  0
 17 18  1  0
 18 19  1  0
 18 20  2  0
 18 21  2  0
 17 22  2  0
  7  2  1  0
 22 13  1  0
  1 23  1  0
  1 24  1  0
  1 25  1  0
  8 26  1  0
  8 27  1  0
  9 28  1  0
  9 29  1  0
 12 30  1  0
 14 31  1  0
 15 32  1  0
 16 33  1  0
 19 34  1  0
 22 35  1  0
M  CHG  1  19  -1
M  END
>  <UniqueID>  (50) 
48

>  <SMILES>  (50) 
Cc1noc(Cl)c1CCC(=O)Nc1cccc(S([NH-])(=O)=O)c1

>  <Energy>  (50) 
62.41581513657289

>  <Genealogy>  (50) 
Cc1noc(Cl)c1CCC(=O)Nc1cccc(S([NH-])(=O)=O)c1 (protonated)
Cc1noc(Cl)c1CCC(=O)Nc1cccc(S([NH-])(=O)=O)c1 (3D coordinates assigned)
Cc1noc(Cl)c1CCC(=O)Nc1cccc(S([NH-])(=O)=O)c1 (optimized conformer: 62.41581513657289 kcal/mol)

>  <smiles>  (50) 
Cc1noc(Cl)c1CCC(=O)Nc1cccc(S(N)(=O)=O)c1

>  <score_type>  (50) 
oracle

>  <origin>  (50) 
adg

>  <m_score__min__energy>  (50) 
-11.24

>  <m_primary>  (50) 
energy

$$$$
50:0
     RDKit          3D

 38 39  0  0  0  0  0  0  0  0999 V2000
   56.4380   24.5180   46.3260 C   0  0  0  0  0  0  0  0  0  0  0  0
   56.2460   26.0240   46.5540 C   0  0  2  0  0  0  0  0  0  0  0  0
   55.0350   26.4740   45.9990 O   0  0  0  0  0  0  0  0  0  0  0  0
   57.4170   26.8230   46.0160 C   0  0  0  0  0  0  0  0  0  0  0  0
   58.7350   26.3480   46.1400 C   0  0  0  0  0  0  0  0  0  0  0  0
   59.8060   27.1010   45.6530 C   0  0  0  0  0  0  0  0  0  0  0  0
   59.5770   28.3300   45.0320 C   0  0  0  0  0  0  0  0  0  0  0  0
   58.2650   28.8140   44.8840 C   0  0  0  0  0  0  0  0  0  0  0  0
   57.9850   30.0480   44.2790 O   0  0  0  0  0  0  0  0  0  0  0  0
   56.9660   30.9270   44.6680 C   0  0  0  0  0  0  0  0  0  0  0  0
   55.7550   30.6220   44.5000 O   0  0  0  0  0  0  0  0  0  0  0  0
   57.3230   32.1310   45.3580 N   0  0  0  0  0  0  0  0  0  0  0  0
   58.6370   32.5040   45.7970 C   0  0  0  0  0  0  0  0  0  0  0  0
   59.4540   31.5260   46.3780 C   0  0  0  0  0  0  0  0  0  0  0  0
   60.7480   31.8420   46.8010 C   0  0  0  0  0  0  0  0  0  0  0  0
   61.2450   33.1420   46.6380 C   0  0  0  0  0  0  0  0  0  0  0  0
   62.8820   33.5360   47.1520 S   0  0  0  0  0  0  0  0  0  0  0  0
   63.8560   32.1080   47.1350 N   0  0  0  0  0  0  0  0  0  0  0  0
   63.4750   34.5580   46.2220 O   0  0  0  0  0  0  0  0  0  0  0  0
   62.8560   34.1070   48.5410 O   0  0  0  0  0  0  0  0  0  0  0  0
   60.4440   34.1150   46.0260 C   0  0  0  0  0  0  0  0  0  0  0  0
   59.1490   33.8000   45.6040 C   0  0  0  0  0  0  0  0  0  0  0  0
   57.1960   28.0640   45.3920 C   0  0  0  0  0  0  0  0  0  0  0  0
   56.5033   24.0055   47.2971 H   0  0  0  0  0  0  0  0  0  0  0  0
   55.5832   24.1211   45.7587 H   0  0  0  0  0  0  0  0  0  0  0  0
   57.3651   24.3483   45.7587 H   0  0  0  0  0  0  0  0  0  0  0  0
   56.2023   26.1862   47.6411 H   0  0  0  0  0  0  0  0  0  0  0  0
   54.4210   26.7060   46.7440 H   0  0  0  0  0  0  0  0  0  0  0  0
   58.9235   25.3780   46.6232 H   0  0  0  0  0  0  0  0  0  0  0  0
   60.8339   26.7240   45.7593 H   0  0  0  0  0  0  0  0  0  0  0  0
   60.4253   28.9216   44.6573 H   0  0  0  0  0  0  0  0  0  0  0  0
   59.0742   30.5012   46.5024 H   0  0  0  0  0  0  0  0  0  0  0  0
   61.3782   31.0679   47.2632 H   0  0  0  0  0  0  0  0  0  0  0  0
   64.4160   32.1100   48.0170 H   0  0  0  0  0  0  0  0  0  0  0  0
   64.5340   32.2100   46.3470 H   0  0  0  0  0  0  0  0  0  0  0  0
   60.8360   35.1319   45.8768 H   0  0  0  0  0  0  0  0  0  0  0  0
   58.5283   34.5681   45.1194 H   0  0  0  0  0  0  0  0  0  0  0  0
   56.1703   28.4509   45.3016 H   0  0  0  0  0  0  0  0  0  0  0  0
  1  2  1  0
  2  3  1  0
  2  4  1  0
  4  5  2  0
  5  6  1  0
  6  7  2  0
  7  8  1  0
  8  9  1  0
  9 10  1  0
 10 11  2  0
 10 12  1  0
 12 13  1  0
 13 14  2  0
 14 15  1  0
 15 16  2  0
 16 17  1  0
 17 18  1  0
 17 19  2  0
 17 20  2  0
 16 21  1  0
 21 22  2  0
  8 23  2  0
 23  4  1  0
 22 13  1  0
  1 24  1  0
  1 25  1  0
  1 26  1  0
  2 27  1  1
  3 28  1  0
  5 29  1  0
  6 30  1  0
  7 31  1  0
 14 32  1  0
 15 33  1  0
 18 34  1  0
 18 35  1  0
 21 36  1  0
 22 37  1  0
 23 38  1  0
M  CHG  1  12  -1
M  END
>  <UniqueID>  (51) 
49

>  <SMILES>  (51) 
C[C@H](O)c1cccc(OC(=O)[N-]c2ccc(S(N)(=O)=O)cc2)c1

>  <Energy>  (51) 
44.29446634625149

>  <Genealogy>  (51) 
CC(O)c1cccc(OC(=O)[N-]c2ccc(S(N)(=O)=O)cc2)c1 (protonated)
C[C@H](O)c1cccc(OC(=O)[N-]c2ccc(S(N)(=O)=O)cc2)c1 (chirality)
C[C@H](O)c1cccc(OC(=O)[N-]c2ccc(S(N)(=O)=O)cc2)c1 (3D coordinates assigned)
C[C@H](O)c1cccc(OC(=O)[N-]c2ccc(S(N)(=O)=O)cc2)c1 (optimized conformer: 44.29446634625149 kcal/mol)

>  <smiles>  (51) 
CC(O)c1cccc(OC(=O)Nc2ccc(S(N)(=O)=O)cc2)c1

>  <score_type>  (51) 
oracle

>  <origin>  (51) 
adg

>  <m_score__min__energy>  (51) 
-10.16

>  <m_primary>  (51) 
energy

$$$$
51:0
     RDKit          3D

 56 60  0  0  0  0  0  0  0  0999 V2000
   61.3570   30.4700   47.3330 C   0  0  0  0  0  0  0  0  0  0  0  0
   60.7280   29.7980   45.7620 S   0  0  0  0  0  0  0  0  0  0  0  0
   59.9580   28.3660   46.5380 C   0  0  0  0  0  0  0  0  0  0  0  0
   60.4020   27.9740   47.8080 C   0  0  0  0  0  0  0  0  0  0  0  0
   59.8500   26.8560   48.4360 C   0  0  0  0  0  0  0  0  0  0  0  0
   58.8550   26.1170   47.7970 C   0  0  0  0  0  0  0  0  0  0  0  0
   58.4030   26.4940   46.5300 C   0  0  0  0  0  0  0  0  0  0  0  0
   58.9430   27.6240   45.8890 C   0  0  0  0  0  0  0  0  0  0  0  0
   58.4740   27.9790   44.5030 C   0  0  0  0  0  0  0  0  0  0  0  0
   57.0190   28.0600   44.4910 N   0  0  0  0  0  0  0  0  0  0  0  0
   56.2960   29.2930   44.4180 C   0  0  0  0  0  0  0  0  0  0  0  0
   55.1340   29.3550   44.8990 O   0  0  0  0  0  0  0  0  0  0  0  0
   56.8790   30.4870   43.7760 C   0  0  0  0  0  0  0  0  0  0  0  0
   56.6540   30.6190   42.3960 C   0  0  0  0  0  0  0  0  0  0  0  0
   57.1170   31.7280   41.6970 C   0  0  0  0  0  0  0  0  0  0  0  0
   57.8090   32.7290   42.3650 C   0  0  0  0  0  0  0  0  0  0  0  0
   58.0530   32.6240   43.7360 C   0  0  0  0  0  0  0  0  0  0  0  0
   58.8950   33.8730   44.5080 S   0  0  0  0  0  0  0  0  0  0  0  0
   59.0800   33.5250   46.1300 C   0  0  0  0  0  0  0  0  0  0  0  0
   59.8460   34.4550   47.2950 S   0  0  0  0  0  0  0  0  0  0  0  0
   59.5650   33.3430   48.5310 C   0  0  0  0  0  0  0  0  0  0  0  0
   60.0870   33.5500   50.1940 S   0  0  0  0  0  0  0  0  0  0  0  0
   61.5230   33.9990   50.2030 O   0  0  0  0  0  0  0  0  0  0  0  0
   59.2450   34.6210   50.8310 O   0  0  0  0  0  0  0  0  0  0  0  0
   59.8930   32.0280   51.0450 N   0  0  0  0  0  0  0  0  0  0  0  0
   58.5110   31.5260   50.9690 C   0  0  0  0  0  0  0  0  0  0  0  0
   57.5410   32.3630   51.8350 C   0  0  0  0  0  0  0  0  0  0  0  0
   58.2010   33.1830   52.7850 O   0  0  0  0  0  0  0  0  0  0  0  0
   59.2210   32.4520   53.4320 C   0  0  0  0  0  0  0  0  0  0  0  0
   60.3610   32.1180   52.4460 C   0  0  0  0  0  0  0  0  0  0  0  0
   58.8750   32.2420   48.0320 C   0  0  0  0  0  0  0  0  0  0  0  0
   58.5920   32.3460   46.6570 C   0  0  0  0  0  0  0  0  0  0  0  0
   57.9000   31.3650   45.9020 C   0  0  0  0  0  0  0  0  0  0  0  0
   57.5380   30.3290   46.5230 O   0  0  0  0  0  0  0  0  0  0  0  0
   57.6100   31.4920   44.4910 C   0  0  0  0  0  0  0  0  0  0  0  0
   60.8722   29.9520   48.1736 H   0  0  0  0  0  0  0  0  0  0  0  0
   62.4451   30.3182   47.3872 H   0  0  0  0  0  0  0  0  0  0  0  0
   61.1337   31.5457   47.3872 H   0  0  0  0  0  0  0  0  0  0  0  0
   61.1905   28.5509   48.3134 H   0  0  0  0  0  0  0  0  0  0  0  0
   60.2001   26.5579   49.4353 H   0  0  0  0  0  0  0  0  0  0  0  0
   58.4245   25.2342   48.2922 H   0  0  0  0  0  0  0  0  0  0  0  0
   57.6204   25.9039   46.0307 H   0  0  0  0  0  0  0  0  0  0  0  0
   58.8982   28.9505   44.2095 H   0  0  0  0  0  0  0  0  0  0  0  0
   58.8051   27.2063   43.7936 H   0  0  0  0  0  0  0  0  0  0  0  0
   56.1027   29.8325   41.8597 H   0  0  0  0  0  0  0  0  0  0  0  0
   56.9351   31.8122   40.6154 H   0  0  0  0  0  0  0  0  0  0  0  0
   58.1670   33.6096   41.8115 H   0  0  0  0  0  0  0  0  0  0  0  0
   58.1761   31.5655   49.9220 H   0  0  0  0  0  0  0  0  0  0  0  0
   58.5032   30.4946   51.3512 H   0  0  0  0  0  0  0  0  0  0  0  0
   56.9474   33.0077   51.1701 H   0  0  0  0  0  0  0  0  0  0  0  0
   56.9130   31.6555   52.3964 H   0  0  0  0  0  0  0  0  0  0  0  0
   59.6247   33.0515   54.2613 H   0  0  0  0  0  0  0  0  0  0  0  0
   58.7956   31.5119   53.8130 H   0  0  0  0  0  0  0  0  0  0  0  0
   61.1261   32.9056   52.5120 H   0  0  0  0  0  0  0  0  0  0  0  0
   60.7663   31.1344   52.7259 H   0  0  0  0  0  0  0  0  0  0  0  0
   58.5812   31.3797   48.6485 H   0  0  0  0  0  0  0  0  0  0  0  0
  1  2  1  0
  2  3  1  0
  3  4  2  0
  4  5  1  0
  5  6  2  0
  6  7  1  0
  7  8  2  0
  8  9  1  0
  9 10  1  0
 10 11  1  0
 11 12  2  0
 11 13  1  0
 13 14  2  0
 14 15  1  0
 15 16  2  0
 16 17  1  0
 17 18  1  0
 18 19  1  0
 19 20  1  0
 20 21  1  0
 21 22  1  0
 22 23  2  0
 22 24  2  0
 22 25  1  0
 25 26  1  0
 26 27  1  0
 27 28  1  0
 28 29  1  0
 29 30  1  0
 21 31  2  0
 31 32  1  0
 32 33  1  0
 33 34  2  0
 33 35  1  0
  8  3  1  0
 35 13  1  0
 35 17  2  0
 32 19  2  0
 30 25  1  0
  1 36  1  0
  1 37  1  0
  1 38  1  0
  4 39  1  0
  5 40  1  0
  6 41  1  0
  7 42  1  0
  9 43  1  0
  9 44  1  0
 14 45  1  0
 15 46  1  0
 16 47  1  0
 26 48  1  0
 26 49  1  0
 27 50  1  0
 27 51  1  0
 29 52  1  0
 29 53  1  0
 30 54  1  0
 30 55  1  0
 31 56  1  0
M  CHG  1  10  -1
M  END
>  <UniqueID>  (52) 
50

>  <SMILES>  (52) 
CSc1ccccc1C[N-]C(=O)c1cccc2sc3sc(S(=O)(=O)N4CCOCC4)cc3c(=O)c12

>  <Energy>  (52) 
117.26775431585196

>  <Genealogy>  (52) 
CSc1ccccc1C[N-]C(=O)c1cccc2sc3sc(S(=O)(=O)N4CCOCC4)cc3c(=O)c12 (protonated)
CSc1ccccc1C[N-]C(=O)c1cccc2sc3sc(S(=O)(=O)N4CCOCC4)cc3c(=O)c12 (3D coordinates assigned)
CSc1ccccc1C[N-]C(=O)c1cccc2sc3sc(S(=O)(=O)N4CCOCC4)cc3c(=O)c12 (nonaromatic ring conformer: 117.26775431585196 kcal/mol)

>  <smiles>  (52) 
CSc1ccccc1CNC(=O)c1cccc2sc3sc(S(=O)(=O)N4CCOCC4)cc3c(=O)c12

>  <score_type>  (52) 
oracle

>  <origin>  (52) 
adg

>  <m_score__min__energy>  (52) 
-11.6

>  <m_primary>  (52) 
energy

$$$$
52:0
     RDKit          3D

 40 42  0  0  0  0  0  0  0  0999 V2000
   54.3810   23.9120   44.5560 C   0  0  0  0  0  0  0  0  0  0  0  0
   55.2000   24.2180   45.6800 O   0  0  0  0  0  0  0  0  0  0  0  0
   56.6040   24.1610   45.6900 C   0  0  0  0  0  0  0  0  0  0  0  0
   57.2840   22.9490   45.4630 C   0  0  0  0  0  0  0  0  0  0  0  0
   58.6760   22.9080   45.4540 C   0  0  0  0  0  0  0  0  0  0  0  0
   59.4140   24.0670   45.6760 C   0  0  0  0  0  0  0  0  0  0  0  0
   58.7660   25.2900   45.9160 C   0  0  0  0  0  0  0  0  0  0  0  0
   57.3500   25.3440   45.9220 C   0  0  0  0  0  0  0  0  0  0  0  0
   56.6810   26.6540   46.1440 C   0  0  0  0  0  0  0  0  0  0  0  0
   55.4370   26.7150   46.3390 O   0  0  0  0  0  0  0  0  0  0  0  0
   57.5010   27.8890   46.2050 C   0  0  0  0  0  0  0  0  0  0  0  0
   57.0200   29.0800   45.9730 N   0  0  0  0  0  0  0  0  0  0  0  0
   57.1980   29.8830   44.7960 C   0  0  0  0  0  0  0  0  0  0  0  0
   56.5270   29.5280   43.6210 C   0  0  0  0  0  0  0  0  0  0  0  0
   56.6430   30.3190   42.4730 C   0  0  0  0  0  0  0  0  0  0  0  0
   57.4060   31.4970   42.5010 C   0  0  0  0  0  0  0  0  0  0  0  0
   57.5620   32.3260   41.2610 C   0  0  0  0  0  0  0  0  0  0  0  0
   58.0650   31.8640   43.6840 C   0  0  0  0  0  0  0  0  0  0  0  0
   57.9470   31.0710   44.8300 C   0  0  0  0  0  0  0  0  0  0  0  0
   58.9210   27.7730   46.6870 C   0  0  1  0  0  0  0  0  0  0  0  0
   58.9640   27.7960   48.2170 C   0  0  0  0  0  0  0  0  0  0  0  0
   59.5660   26.5150   46.1690 C   0  0  0  0  0  0  0  0  0  0  0  0
   60.8170   26.4990   46.0010 O   0  0  0  0  0  0  0  0  0  0  0  0
   53.4033   23.5467   44.9033 H   0  0  0  0  0  0  0  0  0  0  0  0
   54.2392   24.8178   43.9482 H   0  0  0  0  0  0  0  0  0  0  0  0
   54.8679   23.1351   43.9482 H   0  0  0  0  0  0  0  0  0  0  0  0
   56.7105   22.0262   45.2912 H   0  0  0  0  0  0  0  0  0  0  0  0
   59.1946   21.9554   45.2706 H   0  0  0  0  0  0  0  0  0  0  0  0
   60.5131   24.0250   45.6634 H   0  0  0  0  0  0  0  0  0  0  0  0
   55.9044   28.6214   43.5996 H   0  0  0  0  0  0  0  0  0  0  0  0
   56.1347   30.0169   41.5454 H   0  0  0  0  0  0  0  0  0  0  0  0
   57.7587   33.3714   41.5412 H   0  0  0  0  0  0  0  0  0  0  0  0
   58.4035   31.9412   40.6662 H   0  0  0  0  0  0  0  0  0  0  0  0
   56.6382   32.2734   40.6662 H   0  0  0  0  0  0  0  0  0  0  0  0
   58.6763   32.7781   43.7102 H   0  0  0  0  0  0  0  0  0  0  0  0
   58.4430   31.3790   45.7623 H   0  0  0  0  0  0  0  0  0  0  0  0
   59.4856   28.6337   46.2992 H   0  0  0  0  0  0  0  0  0  0  0  0
   58.0603   27.3126   48.6165 H   0  0  0  0  0  0  0  0  0  0  0  0
   59.8549   27.2540   48.5670 H   0  0  0  0  0  0  0  0  0  0  0  0
   59.0077   28.8379   48.5670 H   0  0  0  0  0  0  0  0  0  0  0  0
  1  2  1  0
  2  3  1  0
  3  4  2  0
  4  5  1  0
  5  6  2  0
  6  7  1  0
  7  8  2  0
  8  9  1  0
  9 10  2  0
  9 11  1  0
 11 12  2  3
 12 13  1  0
 13 14  2  0
 14 15  1  0
 15 16  2  0
 16 17  1  0
 16 18  1  0
 18 19  2  0
 11 20  1  0
 20 21  1  0
 20 22  1  0
 22 23  2  0
  8  3  1  0
 19 13  1  0
 22  7  1  0
  1 24  1  0
  1 25  1  0
  1 26  1  0
  4 27  1  0
  5 28  1  0
  6 29  1  0
 14 30  1  0
 15 31  1  0
 17 32  1  0
 17 33  1  0
 17 34  1  0
 18 35  1  0
 19 36  1  0
 20 37  1  6
 21 38  1  0
 21 39  1  0
 21 40  1  0
M  END
>  <UniqueID>  (53) 
51

>  <SMILES>  (53) 
COc1cccc2c1C(=O)C(=Nc1ccc(C)cc1)[C@@H](C)C2=O

>  <Energy>  (53) 
52.96613980083169

>  <Genealogy>  (53) 
COc1cccc2c1C(=O)C(=Nc1ccc(C)cc1)[C@@H](C)C2=O (chirality)
COc1cccc2c1C(=O)C(=Nc1ccc(C)cc1)[C@@H](C)C2=O (3D coordinates assigned)
COc1cccc2c1C(=O)C(=Nc1ccc(C)cc1)[C@@H](C)C2=O (nonaromatic ring conformer: 52.96613980083169 kcal/mol)

>  <smiles>  (53) 
COc1cccc2c1C(=O)C(=Nc1ccc(C)cc1)C(C)C2=O

>  <score_type>  (53) 
oracle

>  <origin>  (53) 
adg

>  <m_score__min__energy>  (53) 
-7.6900000000000004

>  <m_primary>  (53) 
energy

$$$$
53:0
     RDKit          3D

 35 36  0  0  0  0  0  0  0  0999 V2000
   55.5440   29.9190   44.1920 C   0  0  0  0  0  0  0  0  0  0  0  0
   55.8530   28.6880   44.9150 N   0  0  0  0  0  0  0  0  0  0  0  0
   57.0760   28.4860   45.6510 C   0  0  0  0  0  0  0  0  0  0  0  0
   58.0900   29.4650   45.6270 C   0  0  0  0  0  0  0  0  0  0  0  0
   59.3250   29.2460   46.2590 C   0  0  0  0  0  0  0  0  0  0  0  0
   60.3630   30.2510   46.2020 N   0  0  0  0  0  0  0  0  0  0  0  0
   60.0270   31.3690   47.0590 C   0  0  0  0  0  0  0  0  0  0  0  0
   60.4380   31.3430   48.4070 C   0  0  0  0  0  0  0  0  0  0  0  0
   60.1500   32.4030   49.2660 C   0  0  0  0  0  0  0  0  0  0  0  0
   59.4370   33.5050   48.8000 C   0  0  0  0  0  0  0  0  0  0  0  0
   59.0020   33.5470   47.4750 C   0  0  0  0  0  0  0  0  0  0  0  0
   59.2820   32.4890   46.5910 C   0  0  0  0  0  0  0  0  0  0  0  0
   58.7460   32.5640   45.1850 C   0  0  0  0  0  0  0  0  0  0  0  0
   59.5490   28.0270   46.9150 C   0  0  0  0  0  0  0  0  0  0  0  0
   58.5510   27.0560   46.9600 C   0  0  0  0  0  0  0  0  0  0  0  0
   57.3060   27.2750   46.3510 C   0  0  0  0  0  0  0  0  0  0  0  0
   56.2830   26.2750   46.4830 N   0  0  0  0  0  0  0  0  0  0  0  0
   55.1480   26.4670   45.9990 O   0  0  0  0  0  0  0  0  0  0  0  0
   56.4660   25.2150   47.3410 O   0  0  0  0  0  0  0  0  0  0  0  0
   55.3415   30.7259   44.9116 H   0  0  0  0  0  0  0  0  0  0  0  0
   56.4000   30.1977   43.5599 H   0  0  0  0  0  0  0  0  0  0  0  0
   54.6578   29.7604   43.5599 H   0  0  0  0  0  0  0  0  0  0  0  0
   55.1370   27.9290   44.8790 H   0  0  0  0  0  0  0  0  0  0  0  0
   57.9110   30.4163   45.1046 H   0  0  0  0  0  0  0  0  0  0  0  0
   60.4760   30.6050   45.2230 H   0  0  0  0  0  0  0  0  0  0  0  0
   61.2720   29.8070   46.4560 H   0  0  0  0  0  0  0  0  0  0  0  0
   60.9943   30.4735   48.7871 H   0  0  0  0  0  0  0  0  0  0  0  0
   60.4863   32.3688   50.3128 H   0  0  0  0  0  0  0  0  0  0  0  0
   59.2166   34.3432   49.4774 H   0  0  0  0  0  0  0  0  0  0  0  0
   58.4332   34.4179   47.1172 H   0  0  0  0  0  0  0  0  0  0  0  0
   57.6570   32.7164   45.2154 H   0  0  0  0  0  0  0  0  0  0  0  0
   59.2193   33.4047   44.6565 H   0  0  0  0  0  0  0  0  0  0  0  0
   58.9703   31.6257   44.6565 H   0  0  0  0  0  0  0  0  0  0  0  0
   60.5191   27.8362   47.3972 H   0  0  0  0  0  0  0  0  0  0  0  0
   58.7415   26.1054   47.4797 H   0  0  0  0  0  0  0  0  0  0  0  0
  1  2  1  0
  2  3  1  0
  3  4  2  0
  4  5  1  0
  5  6  1  0
  6  7  1  0
  7  8  2  0
  8  9  1  0
  9 10  2  0
 10 11  1  0
 11 12  2  0
 12 13  1  0
  5 14  2  0
 14 15  1  0
 15 16  2  0
 16 17  1  0
 17 18  2  0
 17 19  1  0
 16  3  1  0
 12  7  1  0
  1 20  1  0
  1 21  1  0
  1 22  1  0
  2 23  1  0
  4 24  1  0
  6 25  1  0
  6 26  1  0
  8 27  1  0
  9 28  1  0
 10 29  1  0
 11 30  1  0
 13 31  1  0
 13 32  1  0
 13 33  1  0
 14 34  1  0
 15 35  1  0
M  CHG  3   6   1  17   1  19  -1
M  END
>  <UniqueID>  (54) 
52

>  <SMILES>  (54) 
CNc1cc([NH2+]c2ccccc2C)ccc1[N+](=O)[O-]

>  <Energy>  (54) 
44.61191597734968

>  <Genealogy>  (54) 
CNc1cc([NH2+]c2ccccc2C)ccc1[N+](=O)[O-] (protonated)
CNc1cc([NH2+]c2ccccc2C)ccc1[N+](=O)[O-] (3D coordinates assigned)
CNc1cc([NH2+]c2ccccc2C)ccc1[N+](=O)[O-] (optimized conformer: 44.61191597734968 kcal/mol)

>  <smiles>  (54) 
CNc1cc(Nc2ccccc2C)ccc1[N+](=O)[O-]

>  <score_type>  (54) 
oracle

>  <origin>  (54) 
adg

>  <m_score__min__energy>  (54) 
-5.9500000000000002

>  <m_primary>  (54) 
energy

$$$$
54:0
     RDKit          3D

 47 49  0  0  0  0  0  0  0  0999 V2000
   57.0890   32.1680   51.8230 N   0  0  0  0  0  0  0  0  0  0  0  0
   57.9490   31.4020   50.9740 C   0  0  0  0  0  0  0  0  0  0  0  0
   58.3150   30.0960   51.3320 C   0  0  0  0  0  0  0  0  0  0  0  0
   59.1550   29.3490   50.5020 C   0  0  0  0  0  0  0  0  0  0  0  0
   59.6320   29.8990   49.3050 C   0  0  0  0  0  0  0  0  0  0  0  0
   60.7020   28.9370   48.2370 S   0  0  0  0  0  0  0  0  0  0  0  0
   59.3340   28.3690   47.2260 C   0  0  0  0  0  0  0  0  0  0  0  0
   59.1310   26.9990   47.0300 C   0  0  0  0  0  0  0  0  0  0  0  0
   58.0770   26.5580   46.2250 C   0  0  0  0  0  0  0  0  0  0  0  0
   57.2160   27.4820   45.6260 C   0  0  0  0  0  0  0  0  0  0  0  0
   57.3960   28.8610   45.8420 C   0  0  0  0  0  0  0  0  0  0  0  0
   56.5530   29.8460   45.2260 N   0  0  0  0  0  0  0  0  0  0  0  0
   56.9720   30.9050   44.3520 C   0  0  0  0  0  0  0  0  0  0  0  0
   56.7250   30.8400   43.1170 O   0  0  0  0  0  0  0  0  0  0  0  0
   57.6480   32.1000   44.9090 C   0  0  0  0  0  0  0  0  0  0  0  0
   57.0200   33.3570   44.8800 C   0  0  0  0  0  0  0  0  0  0  0  0
   57.6630   34.4830   45.3970 C   0  0  0  0  0  0  0  0  0  0  0  0
   58.9420   34.3800   45.9600 C   0  0  0  0  0  0  0  0  0  0  0  0
   59.6070   35.5690   46.4070 N   0  0  0  0  0  0  0  0  0  0  0  0
   59.5680   33.1160   46.0300 C   0  0  0  0  0  0  0  0  0  0  0  0
   60.8580   32.9470   46.6350 N   0  0  0  0  0  0  0  0  0  0  0  0
   61.1980   33.5450   47.8960 C   0  0  0  0  0  0  0  0  0  0  0  0
   60.3400   34.2140   48.5350 O   0  0  0  0  0  0  0  0  0  0  0  0
   62.5650   33.3470   48.4790 C   0  0  0  0  0  0  0  0  0  0  0  0
   62.6690   31.7540   49.2700 Cl  0  0  0  0  0  0  0  0  0  0  0  0
   63.7900   33.4530   47.1930 Cl  0  0  0  0  0  0  0  0  0  0  0  0
   58.9280   31.9950   45.4840 C   0  0  0  0  0  0  0  0  0  0  0  0
   58.4700   29.2960   46.6310 C   0  0  0  0  0  0  0  0  0  0  0  0
   59.2710   31.2050   48.9480 C   0  0  0  0  0  0  0  0  0  0  0  0
   58.4310   31.9530   49.7780 C   0  0  0  0  0  0  0  0  0  0  0  0
   56.0820   32.3040   51.5820 H   0  0  0  0  0  0  0  0  0  0  0  0
   57.4550   32.6050   52.6990 H   0  0  0  0  0  0  0  0  0  0  0  0
   57.9396   29.6586   52.2689 H   0  0  0  0  0  0  0  0  0  0  0  0
   59.4424   28.3268   50.7891 H   0  0  0  0  0  0  0  0  0  0  0  0
   59.8004   26.2693   47.5090 H   0  0  0  0  0  0  0  0  0  0  0  0
   57.9246   25.4808   46.0624 H   0  0  0  0  0  0  0  0  0  0  0  0
   56.3952   27.1302   44.9838 H   0  0  0  0  0  0  0  0  0  0  0  0
   56.0137   33.4543   44.4464 H   0  0  0  0  0  0  0  0  0  0  0  0
   57.1606   35.4609   45.3621 H   0  0  0  0  0  0  0  0  0  0  0  0
   60.1020   36.2040   45.7440 H   0  0  0  0  0  0  0  0  0  0  0  0
   59.5470   35.8670   47.4060 H   0  0  0  0  0  0  0  0  0  0  0  0
   61.4870   32.2080   46.2500 H   0  0  0  0  0  0  0  0  0  0  0  0
   62.7495   34.1330   49.2261 H   0  0  0  0  0  0  0  0  0  0  0  0
   59.4339   31.0185   45.5053 H   0  0  0  0  0  0  0  0  0  0  0  0
   58.6349   30.3728   46.7836 H   0  0  0  0  0  0  0  0  0  0  0  0
   59.6495   31.6426   48.0125 H   0  0  0  0  0  0  0  0  0  0  0  0
   58.1473   32.9766   49.4922 H   0  0  0  0  0  0  0  0  0  0  0  0
  1  2  1  0
  2  3  2  0
  3  4  1  0
  4  5  2  0
  5  6  1  0
  6  7  1  0
  7  8  2  0
  8  9  1  0
  9 10  2  0
 10 11  1  0
 11 12  1  0
 12 13  1  0
 13 14  2  0
 13 15  1  0
 15 16  2  0
 16 17  1  0
 17 18  2  0
 18 19  1  0
 18 20  1  0
 20 21  1  0
 21 22  1  0
 22 23  2  0
 22 24  1  0
 24 25  1  0
 24 26  1  0
 20 27  2  0
 11 28  2  0
  5 29  1  0
 29 30  2  0
 30  2  1  0
 28  7  1  0
 27 15  1  0
  1 31  1  0
  1 32  1  0
  3 33  1  0
  4 34  1  0
  8 35  1  0
  9 36  1  0
 10 37  1  0
 16 38  1  0
 17 39  1  0
 19 40  1  0
 19 41  1  0
 21 42  1  0
 24 43  1  0
 27 44  1  0
 28 45  1  0
 29 46  1  0
 30 47  1  0
M  CHG  1  12  -1
M  END
>  <UniqueID>  (55) 
53

>  <SMILES>  (55) 
Nc1ccc(Sc2cccc([N-]C(=O)c3ccc(N)c(NC(=O)C(Cl)Cl)c3)c2)cc1

>  <Energy>  (55) 
52.13408045949511

>  <Genealogy>  (55) 
Nc1ccc(Sc2cccc([N-]C(=O)c3ccc(N)c(NC(=O)C(Cl)Cl)c3)c2)cc1 (protonated)
Nc1ccc(Sc2cccc([N-]C(=O)c3ccc(N)c(NC(=O)C(Cl)Cl)c3)c2)cc1 (3D coordinates assigned)
Nc1ccc(Sc2cccc([N-]C(=O)c3ccc(N)c(NC(=O)C(Cl)Cl)c3)c2)cc1 (optimized conformer: 52.13408045949511 kcal/mol)

>  <smiles>  (55) 
Nc1ccc(Sc2cccc(NC(=O)c3ccc(N)c(NC(=O)C(Cl)Cl)c3)c2)cc1

>  <score_type>  (55) 
oracle

>  <origin>  (55) 
adg

>  <m_score__min__energy>  (55) 
-10.359999999999999

>  <m_primary>  (55) 
energy

$$$$
55:0
     RDKit          3D

 36 38  0  0  0  0  0  0  0  0999 V2000
   60.0730   27.3260   53.0920 C   0  0  0  0  0  0  0  0  0  0  0  0
   59.1040   28.3240   52.6340 N   0  0  0  0  0  0  0  0  0  0  0  0
   57.8610   28.5600   53.1430 C   0  0  0  0  0  0  0  0  0  0  0  0
   57.2470   27.7940   54.2940 C   0  0  0  0  0  0  0  0  0  0  0  0
   56.7350   26.5850   53.8620 F   0  0  0  0  0  0  0  0  0  0  0  0
   56.2040   28.5060   54.8570 F   0  0  0  0  0  0  0  0  0  0  0  0
   58.2120   27.5620   55.2570 F   0  0  0  0  0  0  0  0  0  0  0  0
   57.2620   29.6300   52.4640 C   0  0  0  0  0  0  0  0  0  0  0  0
   55.9760   30.2900   52.7640 C   0  0  0  0  0  0  0  0  0  0  0  0
   55.9410   31.2340   53.5980 O   0  0  0  0  0  0  0  0  0  0  0  0
   54.7690   29.8350   52.1340 N   0  0  0  0  0  0  0  0  0  0  0  0
   53.5490   30.5960   52.0860 C   0  0  0  0  0  0  0  0  0  0  0  0
   52.7540   30.6950   53.2380 C   0  0  0  0  0  0  0  0  0  0  0  0
   51.5520   31.4110   53.2100 C   0  0  0  0  0  0  0  0  0  0  0  0
   51.1280   32.0190   52.0240 C   0  0  0  0  0  0  0  0  0  0  0  0
   49.9340   32.7300   51.9980 O   0  0  0  0  0  0  0  0  0  0  0  0
   51.9020   31.9080   50.8660 C   0  0  0  0  0  0  0  0  0  0  0  0
   53.1040   31.1940   50.8920 C   0  0  0  0  0  0  0  0  0  0  0  0
   58.1630   30.0010   51.4800 C   0  0  0  0  0  0  0  0  0  0  0  0
   58.1120   31.0230   50.5270 C   0  0  0  0  0  0  0  0  0  0  0  0
   59.2050   31.1730   49.6590 C   0  0  0  0  0  0  0  0  0  0  0  0
   60.3220   30.3190   49.7640 C   0  0  0  0  0  0  0  0  0  0  0  0
   60.3610   29.3150   50.7470 C   0  0  0  0  0  0  0  0  0  0  0  0
   59.2610   29.1850   51.6040 C   0  0  0  0  0  0  0  0  0  0  0  0
   60.0897   27.3088   54.1917 H   0  0  0  0  0  0  0  0  0  0  0  0
   59.7842   26.3341   52.7141 H   0  0  0  0  0  0  0  0  0  0  0  0
   61.0730   27.5854   52.7141 H   0  0  0  0  0  0  0  0  0  0  0  0
   54.7520   28.8550   51.7680 H   0  0  0  0  0  0  0  0  0  0  0  0
   53.0777   30.2067   54.1690 H   0  0  0  0  0  0  0  0  0  0  0  0
   50.9407   31.4956   54.1206 H   0  0  0  0  0  0  0  0  0  0  0  0
   51.5653   32.3829   49.9327 H   0  0  0  0  0  0  0  0  0  0  0  0
   53.7045   31.0992   49.9753 H   0  0  0  0  0  0  0  0  0  0  0  0
   57.2402   31.6904   50.4594 H   0  0  0  0  0  0  0  0  0  0  0  0
   59.1900   31.9616   48.8923 H   0  0  0  0  0  0  0  0  0  0  0  0
   61.1686   30.4392   49.0720 H   0  0  0  0  0  0  0  0  0  0  0  0
   61.2318   28.6495   50.8406 H   0  0  0  0  0  0  0  0  0  0  0  0
  1  2  1  0
  2  3  1  0
  3  4  1  0
  4  5  1  0
  4  6  1  0
  4  7  1  0
  3  8  2  0
  8  9  1  0
  9 10  2  0
  9 11  1  0
 11 12  1  0
 12 13  2  0
 13 14  1  0
 14 15  2  0
 15 16  1  0
 15 17  1  0
 17 18  2  0
  8 19  1  0
 19 20  2  0
 20 21  1  0
 21 22  2  0
 22 23  1  0
 23 24  2  0
 24  2  1  0
 18 12  1  0
 24 19  1  0
  1 25  1  0
  1 26  1  0
  1 27  1  0
 11 28  1  0
 13 29  1  0
 14 30  1  0
 17 31  1  0
 18 32  1  0
 20 33  1  0
 21 34  1  0
 22 35  1  0
 23 36  1  0
M  CHG  1  16  -1
M  END
>  <UniqueID>  (56) 
54

>  <SMILES>  (56) 
Cn1c(C(F)(F)F)c(C(=O)Nc2ccc([O-])cc2)c2ccccc21

>  <Energy>  (56) 
81.61193404394132

>  <Genealogy>  (56) 
Cn1c(C(F)(F)F)c(C(=O)Nc2ccc([O-])cc2)c2ccccc21 (protonated)
Cn1c(C(F)(F)F)c(C(=O)Nc2ccc([O-])cc2)c2ccccc21 (3D coordinates assigned)
Cn1c(C(F)(F)F)c(C(=O)Nc2ccc([O-])cc2)c2ccccc21 (optimized conformer: 81.61193404394132 kcal/mol)

>  <smiles>  (56) 
Cn1c(C(F)(F)F)c(C(=O)Nc2ccc(O)cc2)c2ccccc21

>  <score_type>  (56) 
oracle

>  <origin>  (56) 
adg

>  <m_score__min__energy>  (56) 
-9.3800000000000008

>  <m_primary>  (56) 
energy

$$$$
56:0
     RDKit          3D

 64 67  0  0  0  0  0  0  0  0999 V2000
   55.1840   26.6370   46.0040 N   0  0  0  0  0  0  0  0  0  0  0  0
   56.8700   27.0110   45.9890 S   0  0  0  0  0  0  0  0  0  0  0  0
   57.6050   26.0070   45.1550 O   0  0  0  0  0  0  0  0  0  0  0  0
   57.3900   26.9340   47.3950 O   0  0  0  0  0  0  0  0  0  0  0  0
   57.1140   28.6380   45.3350 C   0  0  0  0  0  0  0  0  0  0  0  0
   56.0200   29.3040   44.7580 C   0  0  0  0  0  0  0  0  0  0  0  0
   56.1470   30.6130   44.2880 C   0  0  0  0  0  0  0  0  0  0  0  0
   57.3720   31.2860   44.3860 C   0  0  0  0  0  0  0  0  0  0  0  0
   57.4570   32.6710   43.9990 N   0  0  0  0  0  0  0  0  0  0  0  0
   57.3210   33.7810   44.9470 C   0  0  0  0  0  0  0  0  0  0  0  0
   58.4730   33.7840   45.9180 C   0  0  0  0  0  0  0  0  0  0  0  0
   59.7480   34.1900   45.4880 C   0  0  0  0  0  0  0  0  0  0  0  0
   60.8020   34.2890   46.4010 C   0  0  0  0  0  0  0  0  0  0  0  0
   60.5900   33.9930   47.7520 C   0  0  0  0  0  0  0  0  0  0  0  0
   61.9220   34.1720   48.9360 S   0  0  0  0  0  0  0  0  0  0  0  0
   63.2090   33.5400   47.8110 C   0  0  0  0  0  0  0  0  0  0  0  0
   63.6790   34.5540   46.9970 F   0  0  0  0  0  0  0  0  0  0  0  0
   62.6970   32.5180   47.0280 F   0  0  0  0  0  0  0  0  0  0  0  0
   59.3300   33.5600   48.1820 C   0  0  0  0  0  0  0  0  0  0  0  0
   58.2770   33.4520   47.2710 C   0  0  0  0  0  0  0  0  0  0  0  0
   58.4850   30.6040   44.8980 C   0  0  0  0  0  0  0  0  0  0  0  0
   58.3740   29.2890   45.3780 C   0  0  0  0  0  0  0  0  0  0  0  0
   59.5920   28.6820   46.0270 C   0  0  0  0  0  0  0  0  0  0  0  0
   59.5440   28.8930   47.4710 N   0  0  0  0  0  0  0  0  0  0  0  0
   59.9880   30.1240   48.0710 C   0  0  0  0  0  0  0  0  0  0  0  0
   60.5450   31.0050   47.3660 O   0  0  0  0  0  0  0  0  0  0  0  0
   59.7160   30.3980   49.4970 C   0  0  0  0  0  0  0  0  0  0  0  0
   58.3710   30.4300   49.9190 C   0  0  0  0  0  0  0  0  0  0  0  0
   58.0560   30.5550   51.2730 C   0  0  0  0  0  0  0  0  0  0  0  0
   59.0770   30.6510   52.2200 C   0  0  0  0  0  0  0  0  0  0  0  0
   60.4170   30.6520   51.8170 C   0  0  0  0  0  0  0  0  0  0  0  0
   60.7570   30.5490   50.4540 C   0  0  0  0  0  0  0  0  0  0  0  0
   62.1840   30.6910   50.0730 C   0  0  0  0  0  0  0  0  0  0  0  0
   62.5150   30.8500   48.8670 O   0  0  0  0  0  0  0  0  0  0  0  0
   63.2010   30.6830   51.0780 N   0  0  0  0  0  0  0  0  0  0  0  0
   64.3360   31.3210   51.0150 C   0  0  0  0  0  0  0  0  0  0  0  0
   65.5820   30.6840   51.2250 C   0  0  0  0  0  0  0  0  0  0  0  0
   66.7660   31.4190   51.0910 C   0  0  0  0  0  0  0  0  0  0  0  0
   66.7070   32.7730   50.7580 C   0  0  0  0  0  0  0  0  0  0  0  0
   68.3170   33.7940   50.5670 Br  0  0  0  0  0  0  0  0  0  0  0  0
   65.4580   33.3750   50.5640 C   0  0  0  0  0  0  0  0  0  0  0  0
   64.3160   32.6420   50.6910 N   0  0  0  0  0  0  0  0  0  0  0  0
   54.7720   27.0890   46.8540 H   0  0  0  0  0  0  0  0  0  0  0  0
   55.0518   28.7884   44.6754 H   0  0  0  0  0  0  0  0  0  0  0  0
   55.2799   31.1188   43.8381 H   0  0  0  0  0  0  0  0  0  0  0  0
   57.4400   32.9050   42.9810 H   0  0  0  0  0  0  0  0  0  0  0  0
   57.3105   34.7316   44.3935 H   0  0  0  0  0  0  0  0  0  0  0  0
   56.3818   33.6602   45.5067 H   0  0  0  0  0  0  0  0  0  0  0  0
   59.9173   34.4310   44.4282 H   0  0  0  0  0  0  0  0  0  0  0  0
   61.7994   34.6000   46.0568 H   0  0  0  0  0  0  0  0  0  0  0  0
   64.0409   33.1527   48.4176 H   0  0  0  0  0  0  0  0  0  0  0  0
   59.1690   33.3043   49.2397 H   0  0  0  0  0  0  0  0  0  0  0  0
   57.2904   33.1059   47.6127 H   0  0  0  0  0  0  0  0  0  0  0  0
   59.4624   31.1080   44.9241 H   0  0  0  0  0  0  0  0  0  0  0  0
   59.6172   27.6025   45.8169 H   0  0  0  0  0  0  0  0  0  0  0  0
   60.4950   29.1615   45.6212 H   0  0  0  0  0  0  0  0  0  0  0  0
   59.0910   28.1690   48.0800 H   0  0  0  0  0  0  0  0  0  0  0  0
   57.5638   30.3559   49.1754 H   0  0  0  0  0  0  0  0  0  0  0  0
   57.0040   30.5778   51.5936 H   0  0  0  0  0  0  0  0  0  0  0  0
   58.8269   30.7262   53.2885 H   0  0  0  0  0  0  0  0  0  0  0  0
   61.2127   30.7340   52.5721 H   0  0  0  0  0  0  0  0  0  0  0  0
   65.6201   29.6176   51.4920 H   0  0  0  0  0  0  0  0  0  0  0  0
   67.7393   30.9310   51.2476 H   0  0  0  0  0  0  0  0  0  0  0  0
   65.3981   34.4432   50.3082 H   0  0  0  0  0  0  0  0  0  0  0  0
  1  2  1  0
  2  3  2  0
  2  4  2  0
  2  5  1  0
  5  6  2  0
  6  7  1  0
  7  8  2  0
  8  9  1  0
  9 10  1  0
 10 11  1  0
 11 12  2  0
 12 13  1  0
 13 14  2  0
 14 15  1  0
 15 16  1  0
 16 17  1  0
 16 18  1  0
 14 19  1  0
 19 20  2  0
  8 21  1  0
 21 22  2  0
 22 23  1  0
 23 24  1  0
 24 25  1  0
 25 26  2  0
 25 27  1  0
 27 28  2  0
 28 29  1  0
 29 30  2  0
 30 31  1  0
 31 32  2  0
 32 33  1  0
 33 34  2  0
 33 35  1  0
 35 36  2  3
 36 37  1  0
 37 38  2  0
 38 39  1  0
 39 40  1  0
 39 41  2  0
 41 42  1  0
 22  5  1  0
 32 27  1  0
 42 36  1  0
 20 11  1  0
  1 43  1  0
  6 44  1  0
  7 45  1  0
  9 46  1  0
 10 47  1  0
 10 48  1  0
 12 49  1  0
 13 50  1  0
 16 51  1  0
 19 52  1  0
 20 53  1  0
 21 54  1  0
 23 55  1  0
 23 56  1  0
 24 57  1  0
 28 58  1  0
 29 59  1  0
 30 60  1  0
 31 61  1  0
 37 62  1  0
 38 63  1  0
 41 64  1  0
M  CHG  2   1  -1  42  -1
M  END
>  <UniqueID>  (57) 
55

>  <SMILES>  (57) 
[NH-]S(=O)(=O)c1ccc(NCc2ccc(SC(F)F)cc2)cc1CNC(=O)c1ccccc1C(=O)N=c1ccc(Br)c[n-]1

>  <Energy>  (57) 
80.1965821168454

>  <Genealogy>  (57) 
[NH-]S(=O)(=O)c1ccc(NCc2ccc(SC(F)F)cc2)cc1CNC(=O)c1ccccc1C(=O)N=c1ccc(Br)c[n-]1 (protonated)
[NH-]S(=O)(=O)c1ccc(NCc2ccc(SC(F)F)cc2)cc1CNC(=O)c1ccccc1C(=O)N=c1ccc(Br)c[n-]1 (3D coordinates assigned)
[NH-]S(=O)(=O)c1ccc(NCc2ccc(SC(F)F)cc2)cc1CNC(=O)c1ccccc1C(=O)N=c1ccc(Br)c[n-]1 (optimized conformer: 80.1965821168454 kcal/mol)

>  <smiles>  (57) 
NS(=O)(=O)c1ccc(NCc2ccc(SC(F)F)cc2)cc1CNC(=O)c1ccccc1C(=O)N=c1ccc(Br)c[nH]1

>  <score_type>  (57) 
oracle

>  <origin>  (57) 
adg

>  <m_score__min__energy>  (57) 
-14.06

>  <m_primary>  (57) 
energy

$$$$
57:0
     RDKit          3D

 66 69  0  0  0  0  0  0  0  0999 V2000
   55.7270   26.1650   44.9030 H   0  0  0  0  0  0  0  0  0  0  0  0
   55.1870   25.7690   45.6380 O   0  0  0  0  0  0  0  0  0  0  0  0
   55.7350   24.5070   45.9440 C   0  0  0  0  0  0  0  0  0  0  0  0
   56.0410   23.7410   44.6350 C   0  0  0  0  0  0  0  0  0  0  0  0
   56.4390   22.7447   44.8777 H   0  0  0  0  0  0  0  0  0  0  0  0
   55.1167   23.6337   44.0483 H   0  0  0  0  0  0  0  0  0  0  0  0
   56.7848   24.3001   44.0483 H   0  0  0  0  0  0  0  0  0  0  0  0
   54.7180   23.6960   46.7740 C   0  0  0  0  0  0  0  0  0  0  0  0
   54.9125   23.8511   47.8455 H   0  0  0  0  0  0  0  0  0  0  0  0
   53.6983   24.0316   46.5341 H   0  0  0  0  0  0  0  0  0  0  0  0
   54.8182   22.6272   46.5341 H   0  0  0  0  0  0  0  0  0  0  0  0
   57.0280   24.7020   46.7910 C   0  0  2  0  0  0  0  0  0  0  0  0
   56.9548   23.9599   47.5996 H   0  0  0  0  0  0  0  0  0  0  0  0
   57.0790   25.9990   47.2830 F   0  0  0  0  0  0  0  0  0  0  0  0
   58.3420   24.4070   46.0470 C   0  0  0  0  0  0  0  0  0  0  0  0
   58.1581   23.6360   45.2843 H   0  0  0  0  0  0  0  0  0  0  0  0
   59.0868   24.0574   46.7771 H   0  0  0  0  0  0  0  0  0  0  0  0
   58.8560   25.6060   45.3980 N   0  0  0  0  0  0  0  0  0  0  0  0
   58.0480   26.4470   44.5650 C   0  0  0  0  0  0  0  0  0  0  0  0
   57.4510   25.9480   43.5700 O   0  0  0  0  0  0  0  0  0  0  0  0
   57.9680   27.9040   44.8400 C   0  0  0  0  0  0  0  0  0  0  0  0
   57.0360   28.6640   44.1100 C   0  0  0  0  0  0  0  0  0  0  0  0
   56.4580   28.1877   43.3044 H   0  0  0  0  0  0  0  0  0  0  0  0
   56.8420   29.9770   44.3880 N   0  0  0  0  0  0  0  0  0  0  0  0
   57.5290   30.6230   45.3620 C   0  0  0  0  0  0  0  0  0  0  0  0
   57.2580   31.8800   45.5820 N   0  0  0  0  0  0  0  0  0  0  0  0
   58.1960   32.9680   45.6280 C   0  0  0  0  0  0  0  0  0  0  0  0
   57.9810   34.1310   44.8720 C   0  0  0  0  0  0  0  0  0  0  0  0
   57.0999   34.2064   44.2178 H   0  0  0  0  0  0  0  0  0  0  0  0
   58.8840   35.1910   44.9500 C   0  0  0  0  0  0  0  0  0  0  0  0
   58.7144   36.1003   44.3548 H   0  0  0  0  0  0  0  0  0  0  0  0
   60.0040   35.1020   45.7820 C   0  0  0  0  0  0  0  0  0  0  0  0
   60.7154   35.9395   45.8312 H   0  0  0  0  0  0  0  0  0  0  0  0
   60.2280   33.9490   46.5570 C   0  0  0  0  0  0  0  0  0  0  0  0
   61.4110   33.8390   47.4460 C   0  0  0  0  0  0  0  0  0  0  0  0
   61.2680   34.0550   48.7850 N   0  0  0  0  0  0  0  0  0  0  0  0
   62.3090   33.9490   49.6540 C   0  0  0  0  0  0  0  0  0  0  0  0
   62.1100   34.1760   50.9760 F   0  0  0  0  0  0  0  0  0  0  0  0
   63.5790   33.6060   49.1830 C   0  0  0  0  0  0  0  0  0  0  0  0
   64.4259   33.5185   49.8794 H   0  0  0  0  0  0  0  0  0  0  0  0
   63.7600   33.3760   47.8200 C   0  0  0  0  0  0  0  0  0  0  0  0
   64.7537   33.1034   47.4350 H   0  0  0  0  0  0  0  0  0  0  0  0
   62.6780   33.4920   46.9430 C   0  0  0  0  0  0  0  0  0  0  0  0
   62.8163   33.3131   45.8665 H   0  0  0  0  0  0  0  0  0  0  0  0
   59.2980   32.8940   46.4920 C   0  0  0  0  0  0  0  0  0  0  0  0
   59.4370   32.0045   47.1241 H   0  0  0  0  0  0  0  0  0  0  0  0
   58.4760   29.9100   46.1210 C   0  0  0  0  0  0  0  0  0  0  0  0
   59.0023   30.4118   46.9464 H   0  0  0  0  0  0  0  0  0  0  0  0
   58.7570   28.5540   45.8320 C   0  0  0  0  0  0  0  0  0  0  0  0
   59.7690   27.8180   46.5800 N   0  0  0  0  0  0  0  0  0  0  0  0
   59.7160   26.8090   46.3110 H   0  0  0  0  0  0  0  0  0  0  0  0
   60.7100   28.1970   46.3310 H   0  0  0  0  0  0  0  0  0  0  0  0
   59.6490   27.9360   48.0460 C   0  0  0  0  0  0  0  0  0  0  0  0
   59.9556   26.9876   48.5114 H   0  0  0  0  0  0  0  0  0  0  0  0
   58.6029   28.1632   48.2993 H   0  0  0  0  0  0  0  0  0  0  0  0
   60.5270   29.0480   48.5620 C   0  0  0  0  0  0  0  0  0  0  0  0
   61.0800   30.0560   47.8020 C   0  0  0  0  0  0  0  0  0  0  0  0
   61.0068   30.1409   46.7077 H   0  0  0  0  0  0  0  0  0  0  0  0
   61.7250   30.9220   48.6100 N   0  0  0  0  0  0  0  0  0  0  0  0
   61.5430   30.4220   49.8530 C   0  0  0  0  0  0  0  0  0  0  0  0
   61.9487   30.8872   50.7635 H   0  0  0  0  0  0  0  0  0  0  0  0
   60.8100   29.2910   49.8540 N   0  0  0  0  0  0  0  0  0  0  0  0
   60.4060   28.5110   51.0220 C   0  0  0  0  0  0  0  0  0  0  0  0
   60.6858   29.0513   51.9384 H   0  0  0  0  0  0  0  0  0  0  0  0
   59.3165   28.3604   51.0034 H   0  0  0  0  0  0  0  0  0  0  0  0
   60.9116   27.5342   51.0034 H   0  0  0  0  0  0  0  0  0  0  0  0
  1  2  1  0
  2  3  1  0
  3  4  1  0
  4  5  1  0
  4  6  1  0
  4  7  1  0
  3  8  1  0
  8  9  1  0
  8 10  1  0
  8 11  1  0
  3 12  1  0
 12 13  1  1
 12 14  1  0
 12 15  1  0
 15 16  1  0
 15 17  1  0
 15 18  1  0
 18 19  1  0
 19 20  2  0
 19 21  1  0
 21 22  2  0
 22 23  1  0
 22 24  1  0
 24 25  1  0
 25 26  2  0
 26 27  1  0
 27 28  2  0
 28 29  1  0
 28 30  1  0
 30 31  1  0
 30 32  2  0
 32 33  1  0
 32 34  1  0
 34 35  1  0
 35 36  2  0
 36 37  1  0
 37 38  1  0
 37 39  2  0
 39 40  1  0
 39 41  1  0
 41 42  1  0
 41 43  2  0
 43 44  1  0
 34 45  2  0
 45 46  1  0
 25 47  1  0
 47 48  1  0
 47 49  2  0
 49 50  1  0
 50 51  1  0
 50 52  1  0
 50 53  1  0
 53 54  1  0
 53 55  1  0
 53 56  1  0
 56 57  2  0
 57 58  1  0
 57 59  1  0
 59 60  2  0
 60 61  1  0
 60 62  1  0
 62 63  1  0
 63 64  1  0
 63 65  1  0
 63 66  1  0
 49 21  1  0
 62 56  1  0
 45 27  1  0
 43 35  1  0
M  CHG  3  18  -1  24  -1  50   1
M  END
>  <UniqueID>  (58) 
56

>  <SMILES>  (58) 
Cn1cncc1C[NH2+]c1c/c(=N\c2cccc(-c3cccc(F)n3)c2)[n-]cc1C(=O)[N-]C[C@@H](F)C(C)(C)O

>  <Energy>  (58) 
118.4714018815521

>  <Genealogy>  (58) 
Cn1cncc1C[NH2+]c1cc(=Nc2cccc(-c3cccc(F)n3)c2)[n-]cc1C(=O)[N-]CC(F)C(C)(C)O (protonated)
Cn1cncc1C[NH2+]c1cc(=Nc2cccc(-c3cccc(F)n3)c2)[n-]cc1C(=O)[N-]C[C@@H](F)C(C)(C)O (chirality)
Cn1cncc1C[NH2+]c1c/c(=N\c2cccc(-c3cccc(F)n3)c2)[n-]cc1C(=O)[N-]C[C@@H](F)C(C)(C)O (cis-trans isomerization)
Cn1cncc1C[NH2+]c1c/c(=N\c2cccc(-c3cccc(F)n3)c2)[n-]cc1C(=O)[N-]C[C@@H](F)C(C)(C)O (3D coordinates assigned)
Cn1cncc1C[NH2+]c1c/c(=N\c2cccc(-c3cccc(F)n3)c2)[n-]cc1C(=O)[N-]C[C@@H](F)C(C)(C)O (optimized conformer: 118.4714018815521 kcal/mol)

>  <smiles>  (58) 
Cn1cncc1CNc1cc(=Nc2cccc(-c3cccc(F)n3)c2)[nH]cc1C(=O)NCC(F)C(C)(C)O

>  <score_type>  (58) 
oracle

>  <origin>  (58) 
adg

>  <m_score__min__energy>  (58) 
-10.67

>  <m_primary>  (58) 
energy

$$$$
58:0
     RDKit          3D

 62 66  0  0  0  0  0  0  0  0999 V2000
   56.1760   22.2390   41.6060 H   0  0  0  0  0  0  0  0  0  0  0  0
   55.9940   21.8070   42.5400 N   0  0  0  0  0  0  0  0  0  0  0  0
   56.7700   21.9880   43.5640 C   0  0  0  0  0  0  0  0  0  0  0  0
   56.8270   23.3020   44.2540 C   0  0  0  0  0  0  0  0  0  0  0  0
   58.0660   23.8680   44.5960 C   0  0  0  0  0  0  0  0  0  0  0  0
   58.9968   23.3388   44.3438 H   0  0  0  0  0  0  0  0  0  0  0  0
   58.1240   25.0980   45.2540 C   0  0  0  0  0  0  0  0  0  0  0  0
   59.1008   25.5282   45.5200 H   0  0  0  0  0  0  0  0  0  0  0  0
   56.9520   25.7880   45.5780 C   0  0  0  0  0  0  0  0  0  0  0  0
   57.0630   26.9980   46.2760 O   0  0  0  0  0  0  0  0  0  0  0  0
   58.0500   27.9640   46.0500 C   0  0  0  0  0  0  0  0  0  0  0  0
   59.2010   27.8170   46.5490 O   0  0  0  0  0  0  0  0  0  0  0  0
   57.7280   29.1880   45.2790 C   0  0  0  0  0  0  0  0  0  0  0  0
   57.3260   29.0790   43.9360 C   0  0  0  0  0  0  0  0  0  0  0  0
   57.2577   28.0867   43.4663 H   0  0  0  0  0  0  0  0  0  0  0  0
   57.0130   30.2180   43.1940 C   0  0  0  0  0  0  0  0  0  0  0  0
   56.6986   30.1187   42.1446 H   0  0  0  0  0  0  0  0  0  0  0  0
   57.0970   31.4820   43.7770 C   0  0  0  0  0  0  0  0  0  0  0  0
   56.8556   32.3760   43.1832 H   0  0  0  0  0  0  0  0  0  0  0  0
   57.4890   31.6190   45.1210 C   0  0  0  0  0  0  0  0  0  0  0  0
   57.6010   32.8740   45.7400 O   0  0  0  0  0  0  0  0  0  0  0  0
   57.3810   34.1200   45.0860 C   0  0  0  0  0  0  0  0  0  0  0  0
   57.2416   34.9097   45.8389 H   0  0  0  0  0  0  0  0  0  0  0  0
   58.2502   34.3625   44.4570 H   0  0  0  0  0  0  0  0  0  0  0  0
   56.4813   34.0501   44.4570 H   0  0  0  0  0  0  0  0  0  0  0  0
   57.7890   30.4700   45.8750 C   0  0  0  0  0  0  0  0  0  0  0  0
   58.1460   30.6070   47.2190 O   0  0  0  0  0  0  0  0  0  0  0  0
   59.5040   30.5290   47.6460 C   0  0  0  0  0  0  0  0  0  0  0  0
   59.5440   30.0490   48.6349 H   0  0  0  0  0  0  0  0  0  0  0  0
   60.0712   29.9395   46.9107 H   0  0  0  0  0  0  0  0  0  0  0  0
   60.1310   31.9360   47.7410 C   0  0  1  0  0  0  0  0  0  0  0  0
   59.1860   32.9060   48.5030 C   0  0  0  0  0  0  0  0  0  0  0  0
   59.0206   32.5268   49.5222 H   0  0  0  0  0  0  0  0  0  0  0  0
   58.2276   32.9697   47.9668 H   0  0  0  0  0  0  0  0  0  0  0  0
   59.8170   34.3130   48.5780 C   0  0  2  0  0  0  0  0  0  0  0  0
   59.1415   34.9909   49.1204 H   0  0  0  0  0  0  0  0  0  0  0  0
   60.0460   34.8500   47.1490 C   0  0  0  0  0  0  0  0  0  0  0  0
   60.4936   35.8534   47.2022 H   0  0  0  0  0  0  0  0  0  0  0  0
   59.0830   34.9043   46.6201 H   0  0  0  0  0  0  0  0  0  0  0  0
   60.9970   33.9030   46.3870 C   0  0  1  0  0  0  0  0  0  0  0  0
   61.1600   34.2896   45.3701 H   0  0  0  0  0  0  0  0  0  0  0  0
   62.3490   33.8210   47.1290 C   0  0  0  0  0  0  0  0  0  0  0  0
   62.7988   34.8234   47.1827 H   0  0  0  0  0  0  0  0  0  0  0  0
   63.0242   33.1438   46.5854 H   0  0  0  0  0  0  0  0  0  0  0  0
   62.1220   33.2820   48.5580 C   0  0  1  0  0  0  0  0  0  0  0  0
   63.0850   33.2271   49.0869 H   0  0  0  0  0  0  0  0  0  0  0  0
   61.1690   34.2300   49.3200 C   0  0  0  0  0  0  0  0  0  0  0  0
   61.6179   35.2327   49.3760 H   0  0  0  0  0  0  0  0  0  0  0  0
   61.0044   33.8426   50.3363 H   0  0  0  0  0  0  0  0  0  0  0  0
   61.4950   31.8720   48.4830 C   0  0  0  0  0  0  0  0  0  0  0  0
   61.3378   31.4885   49.5019 H   0  0  0  0  0  0  0  0  0  0  0  0
   62.1741   31.2035   47.9336 H   0  0  0  0  0  0  0  0  0  0  0  0
   60.3680   32.4950   46.3100 C   0  0  0  0  0  0  0  0  0  0  0  0
   59.4065   32.5547   45.7790 H   0  0  0  0  0  0  0  0  0  0  0  0
   61.0528   31.8241   45.7706 H   0  0  0  0  0  0  0  0  0  0  0  0
   55.7060   25.2190   45.2550 C   0  0  0  0  0  0  0  0  0  0  0  0
   54.5490   25.8130   45.6410 F   0  0  0  0  0  0  0  0  0  0  0  0
   55.6480   23.9890   44.5940 C   0  0  0  0  0  0  0  0  0  0  0  0
   54.6708   23.5541   44.3372 H   0  0  0  0  0  0  0  0  0  0  0  0
   57.5800   20.9010   44.0170 N   0  0  0  0  0  0  0  0  0  0  0  0
   57.5720   19.9900   43.5060 H   0  0  0  0  0  0  0  0  0  0  0  0
   58.1470   20.9750   44.8900 H   0  0  0  0  0  0  0  0  0  0  0  0
  1  2  1  0
  2  3  2  0
  3  4  1  0
  4  5  2  0
  5  6  1  0
  5  7  1  0
  7  8  1  0
  7  9  2  0
  9 10  1  0
 10 11  1  0
 11 12  2  0
 11 13  1  0
 13 14  2  0
 14 15  1  0
 14 16  1  0
 16 17  1  0
 16 18  2  0
 18 19  1  0
 18 20  1  0
 20 21  1  0
 21 22  1  0
 22 23  1  0
 22 24  1  0
 22 25  1  0
 20 26  2  0
 26 27  1  0
 27 28  1  0
 28 29  1  0
 28 30  1  0
 31 28  1  6
 31 32  1  0
 32 33  1  0
 32 34  1  0
 32 35  1  0
 35 36  1  1
 35 37  1  0
 37 38  1  0
 37 39  1  0
 37 40  1  0
 40 41  1  6
 40 42  1  0
 42 43  1  0
 42 44  1  0
 42 45  1  0
 45 46  1  1
 45 47  1  0
 47 48  1  0
 47 49  1  0
 45 50  1  0
 50 51  1  0
 50 52  1  0
 40 53  1  0
 53 54  1  0
 53 55  1  0
  9 56  1  0
 56 57  1  0
 56 58  2  0
 58 59  1  0
  3 60  1  0
 60 61  1  0
 60 62  1  0
 58  4  1  0
 26 13  1  0
 50 31  1  0
 53 31  1  0
 47 35  1  0
M  END
>  <UniqueID>  (59) 
57

>  <SMILES>  (59) 
[H]/N=C(/N)c1ccc(OC(=O)c2cccc(OC)c2OCC23CC4CC(CC(C4)C2)C3)c(F)c1

>  <Energy>  (59) 
74.37622306339162

>  <Genealogy>  (59) 
[H]/N=C(/N)c1ccc(OC(=O)c2cccc(OC)c2OCC23CC4CC(CC(C4)C2)C3)c(F)c1 (cis-trans isomerization)
[H]/N=C(/N)c1ccc(OC(=O)c2cccc(OC)c2OCC23CC4CC(CC(C4)C2)C3)c(F)c1 (3D coordinates assigned)
[H]/N=C(/N)c1ccc(OC(=O)c2cccc(OC)c2OCC23CC4CC(CC(C4)C2)C3)c(F)c1 (nonaromatic ring conformer: 74.37622306339162 kcal/mol)

>  <smiles>  (59) 
COc1cccc(C(=O)Oc2ccc(C(=N)N)cc2F)c1OCC12CC3CC(CC(C3)C1)C2

>  <score_type>  (59) 
oracle

>  <origin>  (59) 
adg

>  <m_score__min__energy>  (59) 
-10.08

>  <m_primary>  (59) 
energy

$$$$
59:0
     RDKit          3D

 42 43  0  0  0  0  0  0  0  0999 V2000
   63.3850   31.9270   47.2600 C   0  0  0  0  0  0  0  0  0  0  0  0
   63.5810   32.4770   48.6710 C   0  0  0  0  0  0  0  0  0  0  0  0
   63.1930   33.9610   48.7940 C   0  0  0  0  0  0  0  0  0  0  0  0
   61.7420   34.1990   49.2450 C   0  0  0  0  0  0  0  0  0  0  0  0
   60.7450   33.8320   48.1750 C   0  0  0  0  0  0  0  0  0  0  0  0
   60.9550   34.2190   46.8420 C   0  0  0  0  0  0  0  0  0  0  0  0
   60.0400   33.8590   45.8490 C   0  0  0  0  0  0  0  0  0  0  0  0
   58.9020   33.1110   46.1770 C   0  0  0  0  0  0  0  0  0  0  0  0
   57.7430   32.6760   44.9250 S   0  0  0  0  0  0  0  0  0  0  0  0
   58.4140   32.6060   43.5820 O   0  0  0  0  0  0  0  0  0  0  0  0
   56.6620   33.7190   44.8810 O   0  0  0  0  0  0  0  0  0  0  0  0
   57.0310   31.1370   45.2830 N   0  0  0  0  0  0  0  0  0  0  0  0
   57.7590   29.9170   45.4840 C   0  0  0  0  0  0  0  0  0  0  0  0
   59.1640   29.8870   45.5580 C   0  0  0  0  0  0  0  0  0  0  0  0
   59.8310   28.6760   45.7590 C   0  0  0  0  0  0  0  0  0  0  0  0
   59.1080   27.4880   45.8860 C   0  0  0  0  0  0  0  0  0  0  0  0
   57.7090   27.5060   45.8170 C   0  0  0  0  0  0  0  0  0  0  0  0
   56.8050   26.0020   45.9640 S   0  0  0  0  0  0  0  0  0  0  0  0
   55.1260   26.3560   46.1630 N   0  0  0  0  0  0  0  0  0  0  0  0
   57.2940   25.2180   47.1500 O   0  0  0  0  0  0  0  0  0  0  0  0
   57.0000   25.1740   44.7250 O   0  0  0  0  0  0  0  0  0  0  0  0
   57.0410   28.7200   45.6100 C   0  0  0  0  0  0  0  0  0  0  0  0
   58.6930   32.7150   47.5050 C   0  0  0  0  0  0  0  0  0  0  0  0
   59.6090   33.0740   48.4980 C   0  0  0  0  0  0  0  0  0  0  0  0
   63.0162   30.8923   47.3177 H   0  0  0  0  0  0  0  0  0  0  0  0
   62.6527   32.5478   46.7229 H   0  0  0  0  0  0  0  0  0  0  0  0
   64.3448   31.9448   46.7229 H   0  0  0  0  0  0  0  0  0  0  0  0
   62.9589   31.8928   49.3651 H   0  0  0  0  0  0  0  0  0  0  0  0
   64.6511   32.3943   48.9121 H   0  0  0  0  0  0  0  0  0  0  0  0
   63.8637   34.4331   49.5270 H   0  0  0  0  0  0  0  0  0  0  0  0
   63.2863   34.3961   47.7880 H   0  0  0  0  0  0  0  0  0  0  0  0
   61.5440   33.5881   50.1381 H   0  0  0  0  0  0  0  0  0  0  0  0
   61.6270   35.2717   49.4598 H   0  0  0  0  0  0  0  0  0  0  0  0
   61.8449   34.8090   46.5776 H   0  0  0  0  0  0  0  0  0  0  0  0
   60.2140   34.1640   44.8065 H   0  0  0  0  0  0  0  0  0  0  0  0
   59.7386   30.8196   45.4573 H   0  0  0  0  0  0  0  0  0  0  0  0
   60.9293   28.6582   45.8174 H   0  0  0  0  0  0  0  0  0  0  0  0
   59.6380   26.5365   46.0405 H   0  0  0  0  0  0  0  0  0  0  0  0
   54.7780   26.7150   45.2440 H   0  0  0  0  0  0  0  0  0  0  0  0
   55.9430   28.7338   45.5458 H   0  0  0  0  0  0  0  0  0  0  0  0
   57.8056   32.1200   47.7667 H   0  0  0  0  0  0  0  0  0  0  0  0
   59.4384   32.7606   49.5385 H   0  0  0  0  0  0  0  0  0  0  0  0
  1  2  1  0
  2  3  1  0
  3  4  1  0
  4  5  1  0
  5  6  2  0
  6  7  1  0
  7  8  2  0
  8  9  1  0
  9 10  2  0
  9 11  2  0
  9 12  1  0
 12 13  1  0
 13 14  2  0
 14 15  1  0
 15 16  2  0
 16 17  1  0
 17 18  1  0
 18 19  1  0
 18 20  2  0
 18 21  2  0
 17 22  2  0
  8 23  1  0
 23 24  2  0
 24  5  1  0
 22 13  1  0
  1 25  1  0
  1 26  1  0
  1 27  1  0
  2 28  1  0
  2 29  1  0
  3 30  1  0
  3 31  1  0
  4 32  1  0
  4 33  1  0
  6 34  1  0
  7 35  1  0
 14 36  1  0
 15 37  1  0
 16 38  1  0
 19 39  1  0
 22 40  1  0
 23 41  1  0
 24 42  1  0
M  CHG  2  12  -1  19  -1
M  END
>  <UniqueID>  (60) 
58

>  <SMILES>  (60) 
CCCCc1ccc(S(=O)(=O)[N-]c2cccc(S([NH-])(=O)=O)c2)cc1

>  <Energy>  (60) 
38.53362222789421

>  <Genealogy>  (60) 
CCCCc1ccc(S(=O)(=O)[N-]c2cccc(S([NH-])(=O)=O)c2)cc1 (protonated)
CCCCc1ccc(S(=O)(=O)[N-]c2cccc(S([NH-])(=O)=O)c2)cc1 (3D coordinates assigned)
CCCCc1ccc(S(=O)(=O)[N-]c2cccc(S([NH-])(=O)=O)c2)cc1 (optimized conformer: 38.53362222789421 kcal/mol)

>  <smiles>  (60) 
CCCCc1ccc(S(=O)(=O)Nc2cccc(S(N)(=O)=O)c2)cc1

>  <score_type>  (60) 
oracle

>  <origin>  (60) 
adg

>  <m_score__min__energy>  (60) 
-13

>  <m_primary>  (60) 
energy

$$$$
60:0
     RDKit          3D

 50 52  0  0  0  0  0  0  0  0999 V2000
   58.3530   28.7570   46.4420 C   0  0  0  0  0  0  0  0  0  0  0  0
   57.3220   29.6290   45.9930 O   0  0  0  0  0  0  0  0  0  0  0  0
   57.2970   30.2510   44.7340 C   0  0  0  0  0  0  0  0  0  0  0  0
   56.4260   29.8270   43.7110 C   0  0  0  0  0  0  0  0  0  0  0  0
   56.4280   30.4660   42.4690 C   0  0  0  0  0  0  0  0  0  0  0  0
   57.2900   31.5380   42.2350 C   0  0  0  0  0  0  0  0  0  0  0  0
   57.2770   32.3490   40.6790 Cl  0  0  0  0  0  0  0  0  0  0  0  0
   58.1570   31.9700   43.2410 C   0  0  0  0  0  0  0  0  0  0  0  0
   58.1790   31.3220   44.4900 C   0  0  0  0  0  0  0  0  0  0  0  0
   59.0520   31.7840   45.5370 N   0  0  0  0  0  0  0  0  0  0  0  0
   58.7030   32.8070   46.4840 C   0  0  0  0  0  0  0  0  0  0  0  0
   57.7840   34.0840   46.0000 S   0  0  0  0  0  0  0  0  0  0  0  0
   59.3220   32.8120   47.7870 N   0  0  0  0  0  0  0  0  0  0  0  0
   59.6820   34.0850   48.4380 C   0  0  0  0  0  0  0  0  0  0  0  0
   60.4950   33.8620   49.7200 C   0  0  0  0  0  0  0  0  0  0  0  0
   61.4820   32.7960   49.5130 N   0  0  0  0  0  0  0  0  0  0  0  0
   62.8090   32.9430   50.0350 C   0  0  0  0  0  0  0  0  0  0  0  0
   62.9910   33.0940   51.4170 C   0  0  0  0  0  0  0  0  0  0  0  0
   64.2760   33.2620   51.9520 C   0  0  0  0  0  0  0  0  0  0  0  0
   64.4660   33.3840   53.4350 C   0  0  0  0  0  0  0  0  0  0  0  0
   65.3860   33.2480   51.0970 C   0  0  0  0  0  0  0  0  0  0  0  0
   65.2130   33.0940   49.7200 C   0  0  0  0  0  0  0  0  0  0  0  0
   63.9290   32.9290   49.1760 C   0  0  0  0  0  0  0  0  0  0  0  0
   63.7630   32.7750   47.6890 C   0  0  0  0  0  0  0  0  0  0  0  0
   61.0940   31.5240   48.8930 C   0  0  0  0  0  0  0  0  0  0  0  0
   59.6240   31.5440   48.4660 C   0  0  0  0  0  0  0  0  0  0  0  0
   58.3688   28.7436   47.5418 H   0  0  0  0  0  0  0  0  0  0  0  0
   58.1636   27.7409   46.0656 H   0  0  0  0  0  0  0  0  0  0  0  0
   59.3236   29.1124   46.0656 H   0  0  0  0  0  0  0  0  0  0  0  0
   55.7395   28.9867   43.8917 H   0  0  0  0  0  0  0  0  0  0  0  0
   55.7490   30.1236   41.6742 H   0  0  0  0  0  0  0  0  0  0  0  0
   58.8271   32.8224   43.0559 H   0  0  0  0  0  0  0  0  0  0  0  0
   60.0110   31.3740   45.6010 H   0  0  0  0  0  0  0  0  0  0  0  0
   60.2804   34.6860   47.7374 H   0  0  0  0  0  0  0  0  0  0  0  0
   58.7511   34.6038   48.7105 H   0  0  0  0  0  0  0  0  0  0  0  0
   61.0161   34.7933   49.9868 H   0  0  0  0  0  0  0  0  0  0  0  0
   59.8133   33.5683   50.5318 H   0  0  0  0  0  0  0  0  0  0  0  0
   62.1186   33.0806   52.0869 H   0  0  0  0  0  0  0  0  0  0  0  0
   63.6497   32.8599   53.9536 H   0  0  0  0  0  0  0  0  0  0  0  0
   65.4291   32.9350   53.7194 H   0  0  0  0  0  0  0  0  0  0  0  0
   64.4586   34.4466   53.7194 H   0  0  0  0  0  0  0  0  0  0  0  0
   66.3985   33.3588   51.5125 H   0  0  0  0  0  0  0  0  0  0  0  0
   66.0898   33.1020   49.0559 H   0  0  0  0  0  0  0  0  0  0  0  0
   62.9709   32.0402   47.4826 H   0  0  0  0  0  0  0  0  0  0  0  0
   63.4875   33.7445   47.2484 H   0  0  0  0  0  0  0  0  0  0  0  0
   64.7092   32.4277   47.2484 H   0  0  0  0  0  0  0  0  0  0  0  0
   61.7229   31.3495   48.0075 H   0  0  0  0  0  0  0  0  0  0  0  0
   61.2324   30.7196   49.6305 H   0  0  0  0  0  0  0  0  0  0  0  0
   59.4314   30.7067   47.7791 H   0  0  0  0  0  0  0  0  0  0  0  0
   58.9850   31.4465   49.3561 H   0  0  0  0  0  0  0  0  0  0  0  0
  1  2  1  0
  2  3  1  0
  3  4  2  0
  4  5  1  0
  5  6  2  0
  6  7  1  0
  6  8  1  0
  8  9  2  0
  9 10  1  0
 10 11  1  0
 11 12  2  0
 11 13  1  0
 13 14  1  0
 14 15  1  0
 15 16  1  0
 16 17  1  0
 17 18  2  0
 18 19  1  0
 19 20  1  0
 19 21  2  0
 21 22  1  0
 22 23  2  0
 23 24  1  0
 16 25  1  0
 25 26  1  0
  9  3  1  0
 26 13  1  0
 23 17  1  0
  1 27  1  0
  1 28  1  0
  1 29  1  0
  4 30  1  0
  5 31  1  0
  8 32  1  0
 10 33  1  0
 14 34  1  0
 14 35  1  0
 15 36  1  0
 15 37  1  0
 18 38  1  0
 20 39  1  0
 20 40  1  0
 20 41  1  0
 21 42  1  0
 22 43  1  0
 24 44  1  0
 24 45  1  0
 24 46  1  0
 25 47  1  0
 25 48  1  0
 26 49  1  0
 26 50  1  0
M  END
>  <UniqueID>  (61) 
59

>  <SMILES>  (61) 
COc1ccc(Cl)cc1NC(=S)N1CCN(c2cc(C)ccc2C)CC1

>  <Energy>  (61) 
62.06035091443505

>  <Genealogy>  (61) 
COc1ccc(Cl)cc1NC(=S)N1CCN(c2cc(C)ccc2C)CC1 (3D coordinates assigned)
COc1ccc(Cl)cc1NC(=S)N1CCN(c2cc(C)ccc2C)CC1 (nonaromatic ring conformer: 62.06035091443505 kcal/mol)

>  <smiles>  (61) 
COc1ccc(Cl)cc1NC(=S)N1CCN(c2cc(C)ccc2C)CC1

>  <score_type>  (61) 
oracle

>  <origin>  (61) 
adg

>  <m_score__min__energy>  (61) 
-7.8099999999999996

>  <m_primary>  (61) 
energy

$$$$
61:0
     RDKit          3D

 43 45  0  0  0  0  0  0  0  0999 V2000
   57.8170   34.1620   45.6260 C   0  0  0  0  0  0  0  0  0  0  0  0
   59.0170   34.3330   46.5490 C   0  0  0  0  0  0  0  0  0  0  0  0
   60.2040   33.8340   45.9320 O   0  0  0  0  0  0  0  0  0  0  0  0
   61.2720   33.2090   46.6010 C   0  0  0  0  0  0  0  0  0  0  0  0
   62.5040   33.8610   46.8220 C   0  0  0  0  0  0  0  0  0  0  0  0
   63.5400   33.2070   47.4930 C   0  0  0  0  0  0  0  0  0  0  0  0
   63.3660   31.9000   47.9420 C   0  0  0  0  0  0  0  0  0  0  0  0
   62.1530   31.2430   47.7310 C   0  0  0  0  0  0  0  0  0  0  0  0
   61.0920   31.8960   47.0750 C   0  0  0  0  0  0  0  0  0  0  0  0
   59.8530   31.2190   46.8110 N   0  0  0  0  0  0  0  0  0  0  0  0
   59.6590   30.2010   45.8220 C   0  0  0  0  0  0  0  0  0  0  0  0
   60.5930   29.3930   45.5700 O   0  0  0  0  0  0  0  0  0  0  0  0
   58.3800   30.0640   45.0970 C   0  0  0  0  0  0  0  0  0  0  0  0
   57.8120   31.2260   44.0180 S   0  0  0  0  0  0  0  0  0  0  0  0
   56.3700   30.4670   43.6260 C   0  0  0  0  0  0  0  0  0  0  0  0
   56.3050   29.2790   44.3380 C   0  0  0  0  0  0  0  0  0  0  0  0
   57.4170   29.0430   45.1640 C   0  0  0  0  0  0  0  0  0  0  0  0
   57.5510   27.5630   46.1120 S   0  0  0  0  0  0  0  0  0  0  0  0
   57.8210   27.9170   47.5470 O   0  0  0  0  0  0  0  0  0  0  0  0
   58.6810   26.7180   45.5960 O   0  0  0  0  0  0  0  0  0  0  0  0
   56.0500   26.7030   46.0140 N   0  0  0  0  0  0  0  0  0  0  0  0
   55.9610   25.4750   45.6110 C   0  0  0  0  0  0  0  0  0  0  0  0
   54.9830   24.6230   45.9930 N   0  0  0  0  0  0  0  0  0  0  0  0
   55.1100   23.4160   45.4460 N   0  0  0  0  0  0  0  0  0  0  0  0
   56.1810   23.3150   44.6280 C   0  0  0  0  0  0  0  0  0  0  0  0
   56.6310   21.8380   43.8000 S   0  0  0  0  0  0  0  0  0  0  0  0
   58.3390   21.5990   43.9190 N   0  0  0  0  0  0  0  0  0  0  0  0
   56.2310   21.9310   42.3550 O   0  0  0  0  0  0  0  0  0  0  0  0
   55.9190   20.6750   44.4310 O   0  0  0  0  0  0  0  0  0  0  0  0
   57.0470   24.7580   44.5460 S   0  0  0  0  0  0  0  0  0  0  0  0
   56.9062   34.0322   46.2290 H   0  0  0  0  0  0  0  0  0  0  0  0
   57.7125   35.0543   44.9913 H   0  0  0  0  0  0  0  0  0  0  0  0
   57.9659   33.2760   44.9913 H   0  0  0  0  0  0  0  0  0  0  0  0
   59.1493   35.4014   46.7749 H   0  0  0  0  0  0  0  0  0  0  0  0
   58.8347   33.7667   47.4743 H   0  0  0  0  0  0  0  0  0  0  0  0
   62.6494   34.8908   46.4636 H   0  0  0  0  0  0  0  0  0  0  0  0
   64.4947   33.7250   47.6671 H   0  0  0  0  0  0  0  0  0  0  0  0
   64.1860   31.3849   48.4637 H   0  0  0  0  0  0  0  0  0  0  0  0
   62.0249   30.2076   48.0797 H   0  0  0  0  0  0  0  0  0  0  0  0
   55.6092   30.8448   42.9270 H   0  0  0  0  0  0  0  0  0  0  0  0
   55.4571   28.5822   44.2628 H   0  0  0  0  0  0  0  0  0  0  0  0
   58.6990   22.2990   44.6060 H   0  0  0  0  0  0  0  0  0  0  0  0
   58.4870   20.6570   44.3450 H   0  0  0  0  0  0  0  0  0  0  0  0
  1  2  1  0
  2  3  1  0
  3  4  1  0
  4  5  2  0
  5  6  1  0
  6  7  2  0
  7  8  1  0
  8  9  2  0
  9 10  1  0
 10 11  1  0
 11 12  2  0
 11 13  1  0
 13 14  1  0
 14 15  1  0
 15 16  2  0
 16 17  1  0
 17 18  1  0
 18 19  2  0
 18 20  2  0
 18 21  1  0
 21 22  2  3
 22 23  1  0
 23 24  1  0
 24 25  2  0
 25 26  1  0
 26 27  1  0
 26 28  2  0
 26 29  2  0
 25 30  1  0
  9  4  1  0
 17 13  2  0
 30 22  1  0
  1 31  1  0
  1 32  1  0
  1 33  1  0
  2 34  1  0
  2 35  1  0
  5 36  1  0
  6 37  1  0
  7 38  1  0
  8 39  1  0
 15 40  1  0
 16 41  1  0
 27 42  1  0
 27 43  1  0
M  CHG  2  10  -1  23  -1
M  END
>  <UniqueID>  (62) 
60

>  <SMILES>  (62) 
CCOc1ccccc1[N-]C(=O)c1sccc1S(=O)(=O)N=c1[n-]nc(S(N)(=O)=O)s1

>  <Energy>  (62) 
107.14999970256406

>  <Genealogy>  (62) 
CCOc1ccccc1[N-]C(=O)c1sccc1S(=O)(=O)N=c1[n-]nc(S(N)(=O)=O)s1 (protonated)
CCOc1ccccc1[N-]C(=O)c1sccc1S(=O)(=O)N=c1[n-]nc(S(N)(=O)=O)s1 (3D coordinates assigned)
CCOc1ccccc1[N-]C(=O)c1sccc1S(=O)(=O)N=c1[n-]nc(S(N)(=O)=O)s1 (optimized conformer: 107.14999970256406 kcal/mol)

>  <smiles>  (62) 
CCOc1ccccc1NC(=O)c1sccc1S(=O)(=O)N=c1[nH]nc(S(N)(=O)=O)s1

>  <score_type>  (62) 
oracle

>  <origin>  (62) 
adg

>  <m_score__min__energy>  (62) 
-11.539999999999999

>  <m_primary>  (62) 
energy

$$$$
62:0
     RDKit          3D

 56 59  0  0  0  0  0  0  0  0999 V2000
   59.3250   35.0380   47.2150 C   0  0  0  0  0  0  0  0  0  0  0  0
   58.6390   34.0720   46.3690 N   0  0  0  0  0  0  0  0  0  0  0  0
   59.1270   32.8820   45.9790 C   0  0  0  0  0  0  0  0  0  0  0  0
   58.1440   32.2310   45.2550 C   0  0  0  0  0  0  0  0  0  0  0  0
   58.2310   30.8870   44.6300 C   0  0  0  0  0  0  0  0  0  0  0  0
   59.1850   30.0170   44.9900 C   0  0  0  0  0  0  0  0  0  0  0  0
   59.3330   28.6970   44.2890 C   0  0  0  0  0  0  0  0  0  0  0  0
   58.0290   28.1420   43.8810 N   0  0  0  0  0  0  0  0  0  0  0  0
   57.9320   26.7190   43.6370 C   0  0  0  0  0  0  0  0  0  0  0  0
   58.1360   26.2780   42.4710 O   0  0  0  0  0  0  0  0  0  0  0  0
   57.5670   25.7310   44.7330 C   0  0  0  0  0  0  0  0  0  0  0  0
   58.8350   25.0750   45.3200 C   0  0  0  0  0  0  0  0  0  0  0  0
   59.6590   26.0670   46.1590 C   0  0  0  0  0  0  0  0  0  0  0  0
   58.7980   26.9220   46.9880 N   0  0  0  0  0  0  0  0  0  0  0  0
   59.3710   28.0570   47.6610 C   0  0  0  0  0  0  0  0  0  0  0  0
   60.6090   28.0770   47.9050 O   0  0  0  0  0  0  0  0  0  0  0  0
   58.5610   29.1990   47.9860 N   0  0  0  0  0  0  0  0  0  0  0  0
   58.9230   30.1850   48.9670 C   0  0  0  0  0  0  0  0  0  0  0  0
   59.7100   31.2830   48.5840 C   0  0  0  0  0  0  0  0  0  0  0  0
   60.0560   32.2670   49.5160 C   0  0  0  0  0  0  0  0  0  0  0  0
   59.6070   32.1710   50.8360 C   0  0  0  0  0  0  0  0  0  0  0  0
   60.0380   33.4080   52.0030 Cl  0  0  0  0  0  0  0  0  0  0  0  0
   58.8070   31.0920   51.2230 C   0  0  0  0  0  0  0  0  0  0  0  0
   58.4600   30.1050   50.2940 C   0  0  0  0  0  0  0  0  0  0  0  0
   57.3910   26.5480   47.1840 C   0  0  0  0  0  0  0  0  0  0  0  0
   56.6820   26.3970   45.8300 C   0  0  0  0  0  0  0  0  0  0  0  0
   56.8750   29.0290   43.6470 C   0  0  0  0  0  0  0  0  0  0  0  0
   57.2910   30.4990   43.5190 C   0  0  0  0  0  0  0  0  0  0  0  0
   57.0640   33.1030   45.2610 C   0  0  0  0  0  0  0  0  0  0  0  0
   57.3900   34.2130   45.9530 N   0  0  0  0  0  0  0  0  0  0  0  0
   59.1488   34.7899   48.2721 H   0  0  0  0  0  0  0  0  0  0  0  0
   60.4045   35.0070   47.0061 H   0  0  0  0  0  0  0  0  0  0  0  0
   58.9400   36.0470   47.0061 H   0  0  0  0  0  0  0  0  0  0  0  0
   60.1326   32.4934   46.1974 H   0  0  0  0  0  0  0  0  0  0  0  0
   59.8700   30.2737   45.8115 H   0  0  0  0  0  0  0  0  0  0  0  0
   59.9556   28.8379   43.3931 H   0  0  0  0  0  0  0  0  0  0  0  0
   59.8006   27.9894   44.9895 H   0  0  0  0  0  0  0  0  0  0  0  0
   56.9600   24.9294   44.2869 H   0  0  0  0  0  0  0  0  0  0  0  0
   58.5354   24.2316   45.9595 H   0  0  0  0  0  0  0  0  0  0  0  0
   59.4615   24.7349   44.4823 H   0  0  0  0  0  0  0  0  0  0  0  0
   60.3379   25.5019   46.8146 H   0  0  0  0  0  0  0  0  0  0  0  0
   60.2238   26.7128   45.4706 H   0  0  0  0  0  0  0  0  0  0  0  0
   57.7180   29.3800   47.3960 H   0  0  0  0  0  0  0  0  0  0  0  0
   60.0569   31.3700   47.5437 H   0  0  0  0  0  0  0  0  0  0  0  0
   60.6824   33.1177   49.2095 H   0  0  0  0  0  0  0  0  0  0  0  0
   58.4493   31.0187   52.2606 H   0  0  0  0  0  0  0  0  0  0  0  0
   57.8227   29.2629   50.6019 H   0  0  0  0  0  0  0  0  0  0  0  0
   57.3425   25.5925   47.7268 H   0  0  0  0  0  0  0  0  0  0  0  0
   56.8897   27.3380   47.7624 H   0  0  0  0  0  0  0  0  0  0  0  0
   55.7837   25.7788   45.9748 H   0  0  0  0  0  0  0  0  0  0  0  0
   56.4400   27.4106   45.4778 H   0  0  0  0  0  0  0  0  0  0  0  0
   56.3738   28.7205   42.7177 H   0  0  0  0  0  0  0  0  0  0  0  0
   56.2018   28.9427   44.5126 H   0  0  0  0  0  0  0  0  0  0  0  0
   57.7939   30.6487   42.5522 H   0  0  0  0  0  0  0  0  0  0  0  0
   56.3904   31.1274   43.5832 H   0  0  0  0  0  0  0  0  0  0  0  0
   56.0939   32.9173   44.7768 H   0  0  0  0  0  0  0  0  0  0  0  0
  1  2  1  0
  2  3  1  0
  3  4  2  0
  4  5  1  0
  5  6  2  0
  6  7  1  0
  7  8  1  0
  8  9  1  0
  9 10  2  0
  9 11  1  0
 11 12  1  0
 12 13  1  0
 13 14  1  0
 14 15  1  0
 15 16  2  0
 15 17  1  0
 17 18  1  0
 18 19  2  0
 19 20  1  0
 20 21  2  0
 21 22  1  0
 21 23  1  0
 23 24  2  0
 14 25  1  0
 25 26  1  0
  8 27  1  0
 27 28  1  0
  4 29  1  0
 29 30  2  0
 30  2  1  0
 28  5  1  0
 26 11  1  0
 24 18  1  0
  1 31  1  0
  1 32  1  0
  1 33  1  0
  3 34  1  0
  6 35  1  0
  7 36  1  0
  7 37  1  0
 11 38  1  0
 12 39  1  0
 12 40  1  0
 13 41  1  0
 13 42  1  0
 17 43  1  0
 19 44  1  0
 20 45  1  0
 23 46  1  0
 24 47  1  0
 25 48  1  0
 25 49  1  0
 26 50  1  0
 26 51  1  0
 27 52  1  0
 27 53  1  0
 28 54  1  0
 28 55  1  0
 29 56  1  0
M  END
>  <UniqueID>  (63) 
61

>  <SMILES>  (63) 
Cn1cc(C2=CCN(C(=O)C3CCN(C(=O)Nc4ccc(Cl)cc4)CC3)CC2)cn1

>  <Energy>  (63) 
98.17501034616326

>  <Genealogy>  (63) 
Cn1cc(C2=CCN(C(=O)C3CCN(C(=O)Nc4ccc(Cl)cc4)CC3)CC2)cn1 (3D coordinates assigned)
Cn1cc(C2=CCN(C(=O)C3CCN(C(=O)Nc4ccc(Cl)cc4)CC3)CC2)cn1 (nonaromatic ring conformer: 98.17501034616326 kcal/mol)

>  <smiles>  (63) 
Cn1cc(C2=CCN(C(=O)C3CCN(C(=O)Nc4ccc(Cl)cc4)CC3)CC2)cn1

>  <score_type>  (63) 
oracle

>  <origin>  (63) 
adg

>  <m_score__min__energy>  (63) 
-8.8599999999999994

>  <m_primary>  (63) 
energy

$$$$
63:0
     RDKit          3D

 47 49  0  0  0  0  0  0  0  0999 V2000
   55.5230   30.1000   44.8500 O   0  0  0  0  0  0  0  0  0  0  0  0
   56.5240   30.4440   44.1630 C   0  0  0  0  0  0  0  0  0  0  0  0
   56.8030   29.6830   42.8890 C   0  0  0  0  0  0  0  0  0  0  0  0
   57.4080   28.2970   43.1670 C   0  0  0  0  0  0  0  0  0  0  0  0
   58.1630   28.2620   44.4720 C   0  0  0  0  0  0  0  0  0  0  0  0
   59.4790   28.7410   44.5400 C   0  0  0  0  0  0  0  0  0  0  0  0
   60.1420   28.8170   45.7670 C   0  0  0  0  0  0  0  0  0  0  0  0
   59.4970   28.4180   46.9520 C   0  0  0  0  0  0  0  0  0  0  0  0
   60.1780   28.5200   48.2630 C   0  0  0  0  0  0  0  0  0  0  0  0
   60.8140   27.5260   48.7100 O   0  0  0  0  0  0  0  0  0  0  0  0
   60.1050   29.7250   49.0410 N   0  0  0  0  0  0  0  0  0  0  0  0
   60.9380   29.9430   50.2230 C   0  0  0  0  0  0  0  0  0  0  0  0
   62.0830   30.8590   49.8880 C   0  0  0  0  0  0  0  0  0  0  0  0
   63.1370   31.0260   50.8000 C   0  0  0  0  0  0  0  0  0  0  0  0
   64.1910   31.8960   50.5050 C   0  0  0  0  0  0  0  0  0  0  0  0
   64.1980   32.6070   49.3010 C   0  0  0  0  0  0  0  0  0  0  0  0
   65.2210   33.4510   49.0180 F   0  0  0  0  0  0  0  0  0  0  0  0
   63.1480   32.4510   48.3920 C   0  0  0  0  0  0  0  0  0  0  0  0
   62.0910   31.5820   48.6830 C   0  0  0  0  0  0  0  0  0  0  0  0
   58.1900   27.9070   46.8760 C   0  0  0  0  0  0  0  0  0  0  0  0
   57.5280   27.8330   45.6480 C   0  0  0  0  0  0  0  0  0  0  0  0
   57.4240   31.5100   44.6800 C   0  0  0  0  0  0  0  0  0  0  0  0
   57.7630   32.5950   43.8470 C   0  0  0  0  0  0  0  0  0  0  0  0
   58.5550   33.6420   44.3290 C   0  0  0  0  0  0  0  0  0  0  0  0
   59.0240   33.6180   45.6430 C   0  0  0  0  0  0  0  0  0  0  0  0
   58.7110   32.5420   46.4760 C   0  0  0  0  0  0  0  0  0  0  0  0
   57.9230   31.4900   45.9980 C   0  0  0  0  0  0  0  0  0  0  0  0
   55.8596   29.5547   42.3380 H   0  0  0  0  0  0  0  0  0  0  0  0
   57.5317   30.2602   42.3010 H   0  0  0  0  0  0  0  0  0  0  0  0
   56.5957   27.5563   43.2066 H   0  0  0  0  0  0  0  0  0  0  0  0
   58.1168   28.0670   42.3579 H   0  0  0  0  0  0  0  0  0  0  0  0
   59.9928   29.0591   43.6208 H   0  0  0  0  0  0  0  0  0  0  0  0
   61.1755   29.1914   45.8071 H   0  0  0  0  0  0  0  0  0  0  0  0
   59.4050   30.4610   48.7950 H   0  0  0  0  0  0  0  0  0  0  0  0
   60.3290   30.3979   51.0181 H   0  0  0  0  0  0  0  0  0  0  0  0
   61.3384   28.9768   50.5639 H   0  0  0  0  0  0  0  0  0  0  0  0
   63.1337   30.4707   51.7496 H   0  0  0  0  0  0  0  0  0  0  0  0
   65.0163   32.0214   51.2214 H   0  0  0  0  0  0  0  0  0  0  0  0
   63.1527   33.0125   47.4461 H   0  0  0  0  0  0  0  0  0  0  0  0
   61.2643   31.4644   47.9670 H   0  0  0  0  0  0  0  0  0  0  0  0
   57.6845   27.5627   47.7903 H   0  0  0  0  0  0  0  0  0  0  0  0
   56.5031   27.4362   45.6024 H   0  0  0  0  0  0  0  0  0  0  0  0
   57.4014   32.6186   42.8084 H   0  0  0  0  0  0  0  0  0  0  0  0
   58.8088   34.4861   43.6710 H   0  0  0  0  0  0  0  0  0  0  0  0
   59.6401   34.4465   46.0225 H   0  0  0  0  0  0  0  0  0  0  0  0
   59.0849   32.5217   47.5103 H   0  0  0  0  0  0  0  0  0  0  0  0
   57.6907   30.6398   46.6562 H   0  0  0  0  0  0  0  0  0  0  0  0
  1  2  2  0
  2  3  1  0
  3  4  1  0
  4  5  1  0
  5  6  2  0
  6  7  1  0
  7  8  2  0
  8  9  1  0
  9 10  2  0
  9 11  1  0
 11 12  1  0
 12 13  1  0
 13 14  2  0
 14 15  1  0
 15 16  2  0
 16 17  1  0
 16 18  1  0
 18 19  2  0
  8 20  1  0
 20 21  2  0
  2 22  1  0
 22 23  2  0
 23 24  1  0
 24 25  2  0
 25 26  1  0
 26 27  2  0
 21  5  1  0
 27 22  1  0
 19 13  1  0
  3 28  1  0
  3 29  1  0
  4 30  1  0
  4 31  1  0
  6 32  1  0
  7 33  1  0
 11 34  1  0
 12 35  1  0
 12 36  1  0
 14 37  1  0
 15 38  1  0
 18 39  1  0
 19 40  1  0
 20 41  1  0
 21 42  1  0
 23 43  1  0
 24 44  1  0
 25 45  1  0
 26 46  1  0
 27 47  1  0
M  END
>  <UniqueID>  (64) 
62

>  <SMILES>  (64) 
O=C(CCc1ccc(C(=O)NCc2ccc(F)cc2)cc1)c1ccccc1

>  <Energy>  (64) 
46.65956410128396

>  <Genealogy>  (64) 
O=C(CCc1ccc(C(=O)NCc2ccc(F)cc2)cc1)c1ccccc1 (3D coordinates assigned)
O=C(CCc1ccc(C(=O)NCc2ccc(F)cc2)cc1)c1ccccc1 (optimized conformer: 46.65956410128396 kcal/mol)

>  <smiles>  (64) 
O=C(CCc1ccc(C(=O)NCc2ccc(F)cc2)cc1)c1ccccc1

>  <score_type>  (64) 
oracle

>  <origin>  (64) 
adg

>  <m_score__min__energy>  (64) 
-8.8800000000000008

>  <m_primary>  (64) 
energy

$$$$
64:0
     RDKit          3D

 91 94  0  0  0  0  0  0  0  0999 V2000
   59.8120   33.7080   52.8880 C   0  0  0  0  0  0  0  0  0  0  0  0
   58.3800   33.9390   52.4050 C   0  0  0  0  0  0  0  0  0  0  0  0
   57.5340   32.6600   52.4310 C   0  0  0  0  0  0  0  0  0  0  0  0
   57.3890   32.0150   51.0430 C   0  0  0  0  0  0  0  0  0  0  0  0
   58.5160   31.0930   50.7870 N   0  0  0  0  0  0  0  0  0  0  0  0
   59.6470   31.5140   50.1140 C   0  0  0  0  0  0  0  0  0  0  0  0
   59.8070   32.8880   49.7150 N   0  0  0  0  0  0  0  0  0  0  0  0
   60.6880   30.6000   49.8510 C   0  0  0  0  0  0  0  0  0  0  0  0
   61.8370   30.9740   49.0610 N   0  0  0  0  0  0  0  0  0  0  0  0
   63.1010   31.3110   49.7530 C   0  0  0  0  0  0  0  0  0  0  0  0
   63.8750   32.4490   49.0490 C   0  0  0  0  0  0  0  0  0  0  0  0
   65.1640   32.7990   49.8000 C   0  0  0  0  0  0  0  0  0  0  0  0
   62.9900   33.6950   48.9320 C   0  0  0  0  0  0  0  0  0  0  0  0
   61.7910   30.7190   47.6360 C   0  0  0  0  0  0  0  0  0  0  0  0
   62.8400   30.8330   46.9450 O   0  0  0  0  0  0  0  0  0  0  0  0
   60.5380   30.3640   46.9450 C   0  0  0  0  0  0  0  0  0  0  0  0
   59.8010   31.3630   46.3080 C   0  0  0  0  0  0  0  0  0  0  0  0
   58.5930   31.0970   45.7220 N   0  0  0  0  0  0  0  0  0  0  0  0
   57.8810   32.2340   45.1010 C   0  0  0  0  0  0  0  0  0  0  0  0
   58.4920   33.5490   45.5200 C   0  0  0  0  0  0  0  0  0  0  0  0
   59.0070   34.4390   44.5600 C   0  0  0  0  0  0  0  0  0  0  0  0
   59.5730   35.6550   44.9580 C   0  0  0  0  0  0  0  0  0  0  0  0
   59.6430   35.9860   46.3160 C   0  0  0  0  0  0  0  0  0  0  0  0
   59.1520   35.0980   47.2770 C   0  0  0  0  0  0  0  0  0  0  0  0
   58.5810   33.8840   46.8850 C   0  0  0  0  0  0  0  0  0  0  0  0
   58.0670   29.8170   45.7610 C   0  0  0  0  0  0  0  0  0  0  0  0
   56.8020   29.5040   45.2120 C   0  0  0  0  0  0  0  0  0  0  0  0
   56.2960   28.2040   45.2630 C   0  0  0  0  0  0  0  0  0  0  0  0
   57.0360   27.1780   45.8520 C   0  0  0  0  0  0  0  0  0  0  0  0
   56.3980   25.5310   45.8970 S   0  0  0  0  0  0  0  0  0  0  0  0
   54.9000   25.5740   45.7890 O   0  0  0  0  0  0  0  0  0  0  0  0
   56.7380   24.9250   47.2290 O   0  0  0  0  0  0  0  0  0  0  0  0
   57.0530   24.5360   44.6020 N   0  0  0  0  0  0  0  0  0  0  0  0
   58.0990   23.6160   45.1020 C   0  0  0  0  0  0  0  0  0  0  0  0
   59.2600   24.3770   45.7400 C   0  0  0  0  0  0  0  0  0  0  0  0
   55.9680   23.7960   43.9180 C   0  0  0  0  0  0  0  0  0  0  0  0
   56.5520   22.8210   42.8890 C   0  0  0  0  0  0  0  0  0  0  0  0
   55.9360   21.5500   43.0020 O   0  0  0  0  0  0  0  0  0  0  0  0
   56.6430   20.7380   43.9150 C   0  0  0  0  0  0  0  0  0  0  0  0
   58.2860   27.4630   46.4080 C   0  0  0  0  0  0  0  0  0  0  0  0
   58.8110   28.7690   46.3680 C   0  0  0  0  0  0  0  0  0  0  0  0
   60.0630   29.0520   46.9360 C   0  0  0  0  0  0  0  0  0  0  0  0
   60.7640   28.1300   47.4370 O   0  0  0  0  0  0  0  0  0  0  0  0
   60.5740   29.2980   50.3460 C   0  0  0  0  0  0  0  0  0  0  0  0
   61.5040   28.4640   50.1850 O   0  0  0  0  0  0  0  0  0  0  0  0
   59.4490   28.9210   50.9930 N   0  0  0  0  0  0  0  0  0  0  0  0
   58.4230   29.7840   51.1990 C   0  0  0  0  0  0  0  0  0  0  0  0
   57.3890   29.3610   51.7840 O   0  0  0  0  0  0  0  0  0  0  0  0
   59.8320   33.7048   53.9878 H   0  0  0  0  0  0  0  0  0  0  0  0
   60.1742   32.7398   52.5119 H   0  0  0  0  0  0  0  0  0  0  0  0
   60.4602   34.5132   52.5119 H   0  0  0  0  0  0  0  0  0  0  0  0
   57.9055   34.6883   53.0557 H   0  0  0  0  0  0  0  0  0  0  0  0
   58.4323   34.2821   51.3612 H   0  0  0  0  0  0  0  0  0  0  0  0
   58.0119   31.9359   53.1072 H   0  0  0  0  0  0  0  0  0  0  0  0
   56.5264   32.9356   52.7757 H   0  0  0  0  0  0  0  0  0  0  0  0
   56.4438   31.4539   51.0003 H   0  0  0  0  0  0  0  0  0  0  0  0
   57.3919   32.8057   50.2782 H   0  0  0  0  0  0  0  0  0  0  0  0
   60.7220   33.3860   49.7570 H   0  0  0  0  0  0  0  0  0  0  0  0
   58.9940   33.4430   49.3750 H   0  0  0  0  0  0  0  0  0  0  0  0
   62.8676   31.6261   50.7807 H   0  0  0  0  0  0  0  0  0  0  0  0
   63.7387   30.4148   49.7403 H   0  0  0  0  0  0  0  0  0  0  0  0
   64.1489   32.0961   48.0438 H   0  0  0  0  0  0  0  0  0  0  0  0
   64.9819   32.7496   50.8837 H   0  0  0  0  0  0  0  0  0  0  0  0
   65.9531   32.0826   49.5277 H   0  0  0  0  0  0  0  0  0  0  0  0
   65.4824   33.8161   49.5277 H   0  0  0  0  0  0  0  0  0  0  0  0
   62.7325   34.0576   49.9381 H   0  0  0  0  0  0  0  0  0  0  0  0
   63.5335   34.4809   48.3870 H   0  0  0  0  0  0  0  0  0  0  0  0
   62.0690   33.4407   48.3870 H   0  0  0  0  0  0  0  0  0  0  0  0
   60.1999   32.3876   46.2760 H   0  0  0  0  0  0  0  0  0  0  0  0
   57.9415   32.1418   44.0065 H   0  0  0  0  0  0  0  0  0  0  0  0
   56.8322   32.2136   45.4322 H   0  0  0  0  0  0  0  0  0  0  0  0
   58.9645   34.1779   43.4923 H   0  0  0  0  0  0  0  0  0  0  0  0
   59.9637   36.3522   44.2022 H   0  0  0  0  0  0  0  0  0  0  0  0
   60.0842   36.9445   46.6268 H   0  0  0  0  0  0  0  0  0  0  0  0
   59.2151   35.3552   48.3447 H   0  0  0  0  0  0  0  0  0  0  0  0
   58.1995   33.1872   47.6459 H   0  0  0  0  0  0  0  0  0  0  0  0
   56.2070   30.2979   44.7370 H   0  0  0  0  0  0  0  0  0  0  0  0
   55.3061   27.9867   44.8355 H   0  0  0  0  0  0  0  0  0  0  0  0
   57.6556   22.9461   45.8534 H   0  0  0  0  0  0  0  0  0  0  0  0
   58.4908   23.0442   44.2479 H   0  0  0  0  0  0  0  0  0  0  0  0
   59.1764   24.3222   46.8355 H   0  0  0  0  0  0  0  0  0  0  0  0
   60.2121   23.9272   45.4220 H   0  0  0  0  0  0  0  0  0  0  0  0
   59.2274   25.4295   45.4220 H   0  0  0  0  0  0  0  0  0  0  0  0
   55.3882   23.2319   44.6634 H   0  0  0  0  0  0  0  0  0  0  0  0
   55.3178   24.5155   43.3988 H   0  0  0  0  0  0  0  0  0  0  0  0
   56.3806   23.2173   41.8773 H   0  0  0  0  0  0  0  0  0  0  0  0
   57.6303   22.7108   43.0764 H   0  0  0  0  0  0  0  0  0  0  0  0
   56.3862   21.0330   44.9431 H   0  0  0  0  0  0  0  0  0  0  0  0
   56.3695   19.6844   43.7567 H   0  0  0  0  0  0  0  0  0  0  0  0
   57.7242   20.8639   43.7567 H   0  0  0  0  0  0  0  0  0  0  0  0
   58.8664   26.6579   46.8823 H   0  0  0  0  0  0  0  0  0  0  0  0
  1  2  1  0
  2  3  1  0
  3  4  1  0
  4  5  1  0
  5  6  1  0
  6  7  1  0
  6  8  2  0
  8  9  1  0
  9 10  1  0
 10 11  1  0
 11 12  1  0
 11 13  1  0
  9 14  1  0
 14 15  2  0
 14 16  1  0
 16 17  2  0
 17 18  1  0
 18 19  1  0
 19 20  1  0
 20 21  2  0
 21 22  1  0
 22 23  2  0
 23 24  1  0
 24 25  2  0
 18 26  1  0
 26 27  2  0
 27 28  1  0
 28 29  2  0
 29 30  1  0
 30 31  2  0
 30 32  2  0
 30 33  1  0
 33 34  1  0
 34 35  1  0
 33 36  1  0
 36 37  1  0
 37 38  1  0
 38 39  1  0
 29 40  1  0
 40 41  2  0
 41 42  1  0
 42 43  2  0
  8 44  1  0
 44 45  2  0
 44 46  1  0
 46 47  1  0
 47 48  2  0
 47  5  1  0
 42 16  1  0
 25 20  1  0
 41 26  1  0
  1 49  1  0
  1 50  1  0
  1 51  1  0
  2 52  1  0
  2 53  1  0
  3 54  1  0
  3 55  1  0
  4 56  1  0
  4 57  1  0
  7 58  1  0
  7 59  1  0
 10 60  1  0
 10 61  1  0
 11 62  1  0
 12 63  1  0
 12 64  1  0
 12 65  1  0
 13 66  1  0
 13 67  1  0
 13 68  1  0
 17 69  1  0
 19 70  1  0
 19 71  1  0
 21 72  1  0
 22 73  1  0
 23 74  1  0
 24 75  1  0
 25 76  1  0
 27 77  1  0
 28 78  1  0
 34 79  1  0
 34 80  1  0
 35 81  1  0
 35 82  1  0
 35 83  1  0
 36 84  1  0
 36 85  1  0
 37 86  1  0
 37 87  1  0
 39 88  1  0
 39 89  1  0
 39 90  1  0
 40 91  1  0
M  CHG  1  46  -1
M  END
>  <UniqueID>  (65) 
63

>  <SMILES>  (65) 
CCCCn1c(N)c(N(CC(C)C)C(=O)c2cn(Cc3ccccc3)c3ccc(S(=O)(=O)N(CC)CCOC)cc3c2=O)c(=O)[n-]c1=O

>  <Energy>  (65) 
115.12198473191444

>  <Genealogy>  (65) 
CCCCn1c(N)c(N(CC(C)C)C(=O)c2cn(Cc3ccccc3)c3ccc(S(=O)(=O)N(CC)CCOC)cc3c2=O)c(=O)[n-]c1=O (protonated)
CCCCn1c(N)c(N(CC(C)C)C(=O)c2cn(Cc3ccccc3)c3ccc(S(=O)(=O)N(CC)CCOC)cc3c2=O)c(=O)[n-]c1=O (3D coordinates assigned)
CCCCn1c(N)c(N(CC(C)C)C(=O)c2cn(Cc3ccccc3)c3ccc(S(=O)(=O)N(CC)CCOC)cc3c2=O)c(=O)[n-]c1=O (optimized conformer: 115.12198473191444 kcal/mol)

>  <smiles>  (65) 
CCCCn1c(N)c(N(CC(C)C)C(=O)c2cn(Cc3ccccc3)c3ccc(S(=O)(=O)N(CC)CCOC)cc3c2=O)c(=O)[nH]c1=O

>  <score_type>  (65) 
oracle

>  <origin>  (65) 
adg

>  <m_score__min__energy>  (65) 
-11.380000000000001

>  <m_primary>  (65) 
energy

$$$$
65:0
     RDKit          3D

 42 44  0  0  0  0  0  0  0  0999 V2000
   57.0240   33.6870   45.2460 C   0  0  0  0  0  0  0  0  0  0  0  0
   58.1210   32.7800   45.7290 C   0  0  0  0  0  0  0  0  0  0  0  0
   59.2140   33.3130   46.4340 C   0  0  0  0  0  0  0  0  0  0  0  0
   60.2460   32.4800   46.8750 C   0  0  0  0  0  0  0  0  0  0  0  0
   61.6050   33.1560   47.7560 Cl  0  0  0  0  0  0  0  0  0  0  0  0
   60.1930   31.1070   46.6210 C   0  0  0  0  0  0  0  0  0  0  0  0
   59.1150   30.5670   45.9170 C   0  0  0  0  0  0  0  0  0  0  0  0
   58.0830   31.3990   45.4460 C   0  0  0  0  0  0  0  0  0  0  0  0
   56.9720   30.8500   44.7200 N   0  0  0  0  0  0  0  0  0  0  0  0
   56.3750   29.5680   44.9550 C   0  0  0  0  0  0  0  0  0  0  0  0
   55.1220   29.4630   44.8840 O   0  0  0  0  0  0  0  0  0  0  0  0
   57.1920   28.3610   45.2240 C   0  0  0  0  0  0  0  0  0  0  0  0
   57.4460   27.9450   46.5420 C   0  0  0  0  0  0  0  0  0  0  0  0
   58.2290   26.8130   46.7900 C   0  0  0  0  0  0  0  0  0  0  0  0
   58.7770   26.0850   45.7250 C   0  0  0  0  0  0  0  0  0  0  0  0
   59.6050   24.8580   45.9960 C   0  0  0  0  0  0  0  0  0  0  0  0
   58.8530   23.3710   45.2460 S   0  0  0  0  0  0  0  0  0  0  0  0
   57.3330   23.4680   46.1960 C   0  0  0  0  0  0  0  0  0  0  0  0
   57.2780   23.2050   47.5190 N   0  0  0  0  0  0  0  0  0  0  0  0
   55.9750   23.3650   47.8310 C   0  0  0  0  0  0  0  0  0  0  0  0
   55.2680   23.7230   46.7040 C   0  0  0  0  0  0  0  0  0  0  0  0
   56.1320   23.8020   45.6800 N   0  0  0  0  0  0  0  0  0  0  0  0
   55.8090   24.1210   44.2930 C   0  0  0  0  0  0  0  0  0  0  0  0
   58.5310   26.5020   44.4070 C   0  0  0  0  0  0  0  0  0  0  0  0
   57.7520   27.6350   44.1600 C   0  0  0  0  0  0  0  0  0  0  0  0
   56.4996   34.1206   46.1103 H   0  0  0  0  0  0  0  0  0  0  0  0
   57.4571   34.4943   44.6371 H   0  0  0  0  0  0  0  0  0  0  0  0
   56.3125   33.1099   44.6371 H   0  0  0  0  0  0  0  0  0  0  0  0
   59.2574   34.3927   46.6400 H   0  0  0  0  0  0  0  0  0  0  0  0
   61.0014   30.4509   46.9761 H   0  0  0  0  0  0  0  0  0  0  0  0
   59.0723   29.4840   45.7294 H   0  0  0  0  0  0  0  0  0  0  0  0
   57.0260   28.5138   47.3847 H   0  0  0  0  0  0  0  0  0  0  0  0
   58.4156   26.4925   47.8256 H   0  0  0  0  0  0  0  0  0  0  0  0
   60.6101   25.0033   45.5732 H   0  0  0  0  0  0  0  0  0  0  0  0
   59.6587   24.7087   47.0845 H   0  0  0  0  0  0  0  0  0  0  0  0
   55.5427   23.2300   48.8334 H   0  0  0  0  0  0  0  0  0  0  0  0
   54.1854   23.9111   46.6525 H   0  0  0  0  0  0  0  0  0  0  0  0
   55.0266   24.8937   44.2671 H   0  0  0  0  0  0  0  0  0  0  0  0
   56.7096   24.4939   43.7832 H   0  0  0  0  0  0  0  0  0  0  0  0
   55.4474   23.2158   43.7832 H   0  0  0  0  0  0  0  0  0  0  0  0
   58.9536   25.9340   43.5651 H   0  0  0  0  0  0  0  0  0  0  0  0
   57.5758   27.9611   43.1243 H   0  0  0  0  0  0  0  0  0  0  0  0
  1  2  1  0
  2  3  2  0
  3  4  1  0
  4  5  1  0
  4  6  2  0
  6  7  1  0
  7  8  2  0
  8  9  1  0
  9 10  1  0
 10 11  2  0
 10 12  1  0
 12 13  2  0
 13 14  1  0
 14 15  2  0
 15 16  1  0
 16 17  1  0
 17 18  1  0
 18 19  2  0
 19 20  1  0
 20 21  2  0
 21 22  1  0
 22 23  1  0
 15 24  1  0
 24 25  2  0
  8  2  1  0
 25 12  1  0
 22 18  1  0
  1 26  1  0
  1 27  1  0
  1 28  1  0
  3 29  1  0
  6 30  1  0
  7 31  1  0
 13 32  1  0
 14 33  1  0
 16 34  1  0
 16 35  1  0
 20 36  1  0
 21 37  1  0
 23 38  1  0
 23 39  1  0
 23 40  1  0
 24 41  1  0
 25 42  1  0
M  CHG  1   9  -1
M  END
>  <UniqueID>  (66) 
64

>  <SMILES>  (66) 
Cc1cc(Cl)ccc1[N-]C(=O)c1ccc(CSc2nccn2C)cc1

>  <Energy>  (66) 
72.5857836776004

>  <Genealogy>  (66) 
Cc1cc(Cl)ccc1[N-]C(=O)c1ccc(CSc2nccn2C)cc1 (protonated)
Cc1cc(Cl)ccc1[N-]C(=O)c1ccc(CSc2nccn2C)cc1 (3D coordinates assigned)
Cc1cc(Cl)ccc1[N-]C(=O)c1ccc(CSc2nccn2C)cc1 (optimized conformer: 72.5857836776004 kcal/mol)

>  <smiles>  (66) 
Cc1cc(Cl)ccc1NC(=O)c1ccc(CSc2nccn2C)cc1

>  <score_type>  (66) 
oracle

>  <origin>  (66) 
adg

>  <m_score__min__energy>  (66) 
-9.5199999999999996

>  <m_primary>  (66) 
energy

$$$$
66:0
     RDKit          3D

 39 42  0  0  0  0  0  0  0  0999 V2000
   55.6900   28.7310   45.2270 N   0  0  0  0  0  0  0  0  0  0  0  0
   57.0560   28.9820   44.9050 C   0  0  0  0  0  0  0  0  0  0  0  0
   57.9250   28.1040   45.1570 O   0  0  0  0  0  0  0  0  0  0  0  0
   57.4430   30.2210   44.2090 C   0  0  0  0  0  0  0  0  0  0  0  0
   56.9310   30.4670   42.9150 C   0  0  0  0  0  0  0  0  0  0  0  0
   57.1650   31.6960   42.2660 C   0  0  0  0  0  0  0  0  0  0  0  0
   56.6480   31.9150   41.0320 F   0  0  0  0  0  0  0  0  0  0  0  0
   57.9110   32.7010   42.8970 C   0  0  0  0  0  0  0  0  0  0  0  0
   58.4320   32.4370   44.1610 C   0  0  0  0  0  0  0  0  0  0  0  0
   59.1900   33.2660   44.8960 N   0  0  0  0  0  0  0  0  0  0  0  0
   59.5270   32.5820   46.0120 C   0  0  0  0  0  0  0  0  0  0  0  0
   60.4220   33.1380   47.0510 C   0  0  0  0  0  0  0  0  0  0  0  0
   61.8170   33.1560   46.8760 C   0  0  0  0  0  0  0  0  0  0  0  0
   62.6450   33.6910   47.8670 C   0  0  0  0  0  0  0  0  0  0  0  0
   62.0900   34.2230   49.0330 C   0  0  0  0  0  0  0  0  0  0  0  0
   60.7040   34.2260   49.2070 C   0  0  0  0  0  0  0  0  0  0  0  0
   59.8710   33.6920   48.2190 C   0  0  0  0  0  0  0  0  0  0  0  0
   58.9600   31.3010   45.9870 C   0  0  0  0  0  0  0  0  0  0  0  0
   59.1680   30.2390   46.9890 C   0  0  0  0  0  0  0  0  0  0  0  0
   59.9500   29.1150   46.6780 C   0  0  0  0  0  0  0  0  0  0  0  0
   60.1650   28.1210   47.6380 C   0  0  0  0  0  0  0  0  0  0  0  0
   59.6090   28.2480   48.9150 C   0  0  0  0  0  0  0  0  0  0  0  0
   58.8410   29.3710   49.2330 C   0  0  0  0  0  0  0  0  0  0  0  0
   58.6210   30.3660   48.2760 C   0  0  0  0  0  0  0  0  0  0  0  0
   58.2390   31.2290   44.7950 C   0  0  0  0  0  0  0  0  0  0  0  0
   55.0880   29.4790   45.6360 H   0  0  0  0  0  0  0  0  0  0  0  0
   56.3420   29.6889   42.4075 H   0  0  0  0  0  0  0  0  0  0  0  0
   58.0802   33.6713   42.4072 H   0  0  0  0  0  0  0  0  0  0  0  0
   59.4970   34.2300   44.6320 H   0  0  0  0  0  0  0  0  0  0  0  0
   62.2587   32.7473   45.9552 H   0  0  0  0  0  0  0  0  0  0  0  0
   63.7362   33.6930   47.7282 H   0  0  0  0  0  0  0  0  0  0  0  0
   62.7437   34.6393   49.8136 H   0  0  0  0  0  0  0  0  0  0  0  0
   60.2669   34.6494   50.1233 H   0  0  0  0  0  0  0  0  0  0  0  0
   58.7797   33.7056   48.3566 H   0  0  0  0  0  0  0  0  0  0  0  0
   60.3946   29.0160   45.6767 H   0  0  0  0  0  0  0  0  0  0  0  0
   60.7721   27.2383   47.3884 H   0  0  0  0  0  0  0  0  0  0  0  0
   59.7762   27.4643   49.6685 H   0  0  0  0  0  0  0  0  0  0  0  0
   58.4083   29.4725   50.2392 H   0  0  0  0  0  0  0  0  0  0  0  0
   58.0183   31.2500   48.5316 H   0  0  0  0  0  0  0  0  0  0  0  0
  1  2  1  0
  2  3  2  0
  2  4  1  0
  4  5  2  0
  5  6  1  0
  6  7  1  0
  6  8  2  0
  8  9  1  0
  9 10  1  0
 10 11  1  0
 11 12  1  0
 12 13  2  0
 13 14  1  0
 14 15  2  0
 15 16  1  0
 16 17  2  0
 11 18  2  0
 18 19  1  0
 19 20  2  0
 20 21  1  0
 21 22  2  0
 22 23  1  0
 23 24  2  0
 18 25  1  0
 25  4  1  0
 25  9  2  0
 17 12  1  0
 24 19  1  0
  1 26  1  0
  5 27  1  0
  8 28  1  0
 10 29  1  0
 13 30  1  0
 14 31  1  0
 15 32  1  0
 16 33  1  0
 17 34  1  0
 20 35  1  0
 21 36  1  0
 22 37  1  0
 23 38  1  0
 24 39  1  0
M  CHG  1   1  -1
M  END
>  <UniqueID>  (67) 
65

>  <SMILES>  (67) 
[NH-]C(=O)c1cc(F)cc2[nH]c(-c3ccccc3)c(-c3ccccc3)c12

>  <Energy>  (67) 
92.0685387928584

>  <Genealogy>  (67) 
[NH-]C(=O)c1cc(F)cc2[nH]c(-c3ccccc3)c(-c3ccccc3)c12 (protonated)
[NH-]C(=O)c1cc(F)cc2[nH]c(-c3ccccc3)c(-c3ccccc3)c12 (3D coordinates assigned)
[NH-]C(=O)c1cc(F)cc2[nH]c(-c3ccccc3)c(-c3ccccc3)c12 (optimized conformer: 92.0685387928584 kcal/mol)

>  <smiles>  (67) 
NC(=O)c1cc(F)cc2[nH]c(-c3ccccc3)c(-c3ccccc3)c12

>  <score_type>  (67) 
oracle

>  <origin>  (67) 
adg

>  <m_score__min__energy>  (67) 
-11.48

>  <m_primary>  (67) 
energy

$$$$
67:0
     RDKit          3D

 86 92  0  0  0  0  0  0  0  0999 V2000
   60.6910   27.1180   49.6420 C   0  0  0  0  0  0  0  0  0  0  0  0
   59.8620   28.0460   48.9480 O   0  0  0  0  0  0  0  0  0  0  0  0
   60.3090   29.2530   48.3870 C   0  0  0  0  0  0  0  0  0  0  0  0
   60.5990   30.3810   49.1780 C   0  0  0  0  0  0  0  0  0  0  0  0
   61.0560   31.5680   48.5840 C   0  0  0  0  0  0  0  0  0  0  0  0
   61.3820   32.7050   49.3500 C   0  0  0  0  0  0  0  0  0  0  0  0
   61.2290   32.7100   50.7400 O   0  0  0  0  0  0  0  0  0  0  0  0
   60.0790   32.2640   51.4120 C   0  0  0  0  0  0  0  0  0  0  0  0
   60.2490   31.6260   52.6450 C   0  0  0  0  0  0  0  0  0  0  0  0
   59.1430   31.1810   53.3730 C   0  0  0  0  0  0  0  0  0  0  0  0
   57.8400   31.4140   52.9020 C   0  0  0  0  0  0  0  0  0  0  0  0
   56.6790   31.0160   53.6550 N   0  0  0  0  0  0  0  0  0  0  0  0
   55.7280   30.0310   53.2130 C   0  0  0  0  0  0  0  0  0  0  0  0
   55.8300   29.5150   52.0670 O   0  0  0  0  0  0  0  0  0  0  0  0
   54.6350   29.5940   54.1060 C   0  0  0  0  0  0  0  0  0  0  0  0
   54.5600   30.0610   55.2740 O   0  0  0  0  0  0  0  0  0  0  0  0
   53.5970   28.6470   53.6430 C   0  0  0  0  0  0  0  0  0  0  0  0
   52.3100   28.9530   53.1930 C   0  0  0  0  0  0  0  0  0  0  0  0
   51.7080   30.2950   53.0130 C   0  0  0  0  0  0  0  0  0  0  0  0
   51.9790   31.0750   51.8740 C   0  0  0  0  0  0  0  0  0  0  0  0
   51.3950   32.3380   51.7280 C   0  0  0  0  0  0  0  0  0  0  0  0
   50.5290   32.8280   52.7060 C   0  0  0  0  0  0  0  0  0  0  0  0
   50.2370   32.0520   53.8300 C   0  0  0  0  0  0  0  0  0  0  0  0
   50.8140   30.7870   53.9790 C   0  0  0  0  0  0  0  0  0  0  0  0
   51.6300   27.8090   52.9350 N   0  0  0  0  0  0  0  0  0  0  0  0
   52.5130   26.8370   53.2350 C   0  0  0  0  0  0  0  0  0  0  0  0
   52.2670   25.4670   53.1480 C   0  0  0  0  0  0  0  0  0  0  0  0
   53.2890   24.5930   53.5520 C   0  0  0  0  0  0  0  0  0  0  0  0
   54.5060   25.1010   54.0410 C   0  0  0  0  0  0  0  0  0  0  0  0
   54.6970   26.4880   54.1120 C   0  0  0  0  0  0  0  0  0  0  0  0
   53.6960   27.3030   53.6740 N   0  0  0  0  0  0  0  0  0  0  0  0
   57.6690   32.0200   51.6490 C   0  0  0  0  0  0  0  0  0  0  0  0
   58.7750   32.4450   50.9040 C   0  0  0  0  0  0  0  0  0  0  0  0
   58.5570   33.0690   49.7190 F   0  0  0  0  0  0  0  0  0  0  0  0
   61.8780   33.8460   48.7150 C   0  0  0  0  0  0  0  0  0  0  0  0
   62.0110   33.8610   47.3260 C   0  0  0  0  0  0  0  0  0  0  0  0
   61.6820   32.7630   46.5960 N   0  0  0  0  0  0  0  0  0  0  0  0
   61.2180   31.6260   47.1820 C   0  0  0  0  0  0  0  0  0  0  0  0
   60.9180   30.5100   46.3950 C   0  0  0  0  0  0  0  0  0  0  0  0
   60.4800   29.3140   46.9940 C   0  0  0  0  0  0  0  0  0  0  0  0
   60.2110   28.1550   46.2470 O   0  0  0  0  0  0  0  0  0  0  0  0
   58.9610   27.8160   45.6490 C   0  0  0  0  0  0  0  0  0  0  0  0
   58.4450   28.9170   44.7110 C   0  0  0  0  0  0  0  0  0  0  0  0
   57.2530   29.7430   45.2460 C   0  0  0  0  0  0  0  0  0  0  0  0
   57.4230   31.2140   45.2700 N   0  0  0  0  0  0  0  0  0  0  0  0
   58.0640   31.7530   46.4820 C   0  0  0  0  0  0  0  0  0  0  0  0
   57.6740   33.2340   46.6590 C   0  0  0  0  0  0  0  0  0  0  0  0
   57.2920   33.9100   45.3280 C   0  0  0  0  0  0  0  0  0  0  0  0
   58.1090   33.3490   44.1590 C   0  0  0  0  0  0  0  0  0  0  0  0
   57.9480   31.8180   44.0270 C   0  0  0  0  0  0  0  0  0  0  0  0
   60.5678   27.2559   50.7263 H   0  0  0  0  0  0  0  0  0  0  0  0
   60.4028   26.0925   49.3677 H   0  0  0  0  0  0  0  0  0  0  0  0
   61.7424   27.2892   49.3677 H   0  0  0  0  0  0  0  0  0  0  0  0
   60.4666   30.3319   50.2689 H   0  0  0  0  0  0  0  0  0  0  0  0
   61.2623   31.4734   53.0449 H   0  0  0  0  0  0  0  0  0  0  0  0
   59.2932   30.6445   54.3215 H   0  0  0  0  0  0  0  0  0  0  0  0
   56.6180   31.3420   54.6480 H   0  0  0  0  0  0  0  0  0  0  0  0
   52.6531   30.6901   51.0946 H   0  0  0  0  0  0  0  0  0  0  0  0
   51.6193   32.9465   50.8395 H   0  0  0  0  0  0  0  0  0  0  0  0
   50.0768   33.8242   52.5920 H   0  0  0  0  0  0  0  0  0  0  0  0
   49.5517   32.4368   54.5996 H   0  0  0  0  0  0  0  0  0  0  0  0
   50.5665   30.1733   54.8577 H   0  0  0  0  0  0  0  0  0  0  0  0
   51.3053   25.0842   52.7757 H   0  0  0  0  0  0  0  0  0  0  0  0
   53.1371   23.5056   53.4857 H   0  0  0  0  0  0  0  0  0  0  0  0
   55.3022   24.4149   54.3654 H   0  0  0  0  0  0  0  0  0  0  0  0
   55.6318   26.9083   54.5114 H   0  0  0  0  0  0  0  0  0  0  0  0
   56.6549   32.1628   51.2474 H   0  0  0  0  0  0  0  0  0  0  0  0
   62.1624   34.7284   49.3070 H   0  0  0  0  0  0  0  0  0  0  0  0
   62.3833   34.7643   46.8205 H   0  0  0  0  0  0  0  0  0  0  0  0
   61.0249   30.5670   45.3017 H   0  0  0  0  0  0  0  0  0  0  0  0
   59.0856   26.8886   45.0707 H   0  0  0  0  0  0  0  0  0  0  0  0
   58.2250   27.6904   46.4568 H   0  0  0  0  0  0  0  0  0  0  0  0
   59.2758   29.6102   44.5129 H   0  0  0  0  0  0  0  0  0  0  0  0
   58.0751   28.3998   43.8134 H   0  0  0  0  0  0  0  0  0  0  0  0
   56.3810   29.5181   44.6144 H   0  0  0  0  0  0  0  0  0  0  0  0
   57.1444   29.4464   46.2997 H   0  0  0  0  0  0  0  0  0  0  0  0
   57.7296   31.1792   47.3589 H   0  0  0  0  0  0  0  0  0  0  0  0
   59.1566   31.6725   46.3837 H   0  0  0  0  0  0  0  0  0  0  0  0
   56.8146   33.2925   47.3431 H   0  0  0  0  0  0  0  0  0  0  0  0
   58.5503   33.7632   47.0616 H   0  0  0  0  0  0  0  0  0  0  0  0
   56.2234   33.7370   45.1329 H   0  0  0  0  0  0  0  0  0  0  0  0
   57.5050   34.9858   45.4134 H   0  0  0  0  0  0  0  0  0  0  0  0
   57.7691   33.8242   43.2270 H   0  0  0  0  0  0  0  0  0  0  0  0
   59.1705   33.5653   44.3497 H   0  0  0  0  0  0  0  0  0  0  0  0
   57.2508   31.6026   43.2039 H   0  0  0  0  0  0  0  0  0  0  0  0
   58.9393   31.3850   43.8276 H   0  0  0  0  0  0  0  0  0  0  0  0
  1  2  1  0
  2  3  1  0
  3  4  2  0
  4  5  1  0
  5  6  2  0
  6  7  1  0
  7  8  1  0
  8  9  2  0
  9 10  1  0
 10 11  2  0
 11 12  1  0
 12 13  1  0
 13 14  2  0
 13 15  1  0
 15 16  2  0
 15 17  1  0
 17 18  2  0
 18 19  1  0
 19 20  2  0
 20 21  1  0
 21 22  2  0
 22 23  1  0
 23 24  2  0
 18 25  1  0
 25 26  2  0
 26 27  1  0
 27 28  2  0
 28 29  1  0
 29 30  2  0
 30 31  1  0
 11 32  1  0
 32 33  2  0
 33 34  1  0
  6 35  1  0
 35 36  2  0
 36 37  1  0
 37 38  2  0
 38 39  1  0
 39 40  2  0
 40 41  1  0
 41 42  1  0
 42 43  1  0
 43 44  1  0
 44 45  1  0
 45 46  1  0
 46 47  1  0
 47 48  1  0
 48 49  1  0
 49 50  1  0
 40  3  1  0
 50 45  1  0
 38  5  1  0
 33  8  1  0
 31 17  1  0
 24 19  1  0
 31 26  1  0
  1 51  1  0
  1 52  1  0
  1 53  1  0
  4 54  1  0
  9 55  1  0
 10 56  1  0
 12 57  1  0
 20 58  1  0
 21 59  1  0
 22 60  1  0
 23 61  1  0
 24 62  1  0
 27 63  1  0
 28 64  1  0
 29 65  1  0
 30 66  1  0
 32 67  1  0
 35 68  1  0
 36 69  1  0
 39 70  1  0
 42 71  1  0
 42 72  1  0
 43 73  1  0
 43 74  1  0
 44 75  1  0
 44 76  1  0
 46 77  1  0
 46 78  1  0
 47 79  1  0
 47 80  1  0
 48 81  1  0
 48 82  1  0
 49 83  1  0
 49 84  1  0
 50 85  1  0
 50 86  1  0
M  END
>  <UniqueID>  (68) 
66

>  <SMILES>  (68) 
COc1cc2c(Oc3ccc(NC(=O)C(=O)c4c(-c5ccccc5)nc5ccccn45)cc3F)ccnc2cc1OCCCN1CCCCC1

>  <Energy>  (68) 
166.0190890644404

>  <Genealogy>  (68) 
COc1cc2c(Oc3ccc(NC(=O)C(=O)c4c(-c5ccccc5)nc5ccccn45)cc3F)ccnc2cc1OCCCN1CCCCC1 (3D coordinates assigned)
COc1cc2c(Oc3ccc(NC(=O)C(=O)c4c(-c5ccccc5)nc5ccccn45)cc3F)ccnc2cc1OCCCN1CCCCC1 (nonaromatic ring conformer: 166.0190890644404 kcal/mol)

>  <smiles>  (68) 
COc1cc2c(Oc3ccc(NC(=O)C(=O)c4c(-c5ccccc5)nc5ccccn45)cc3F)ccnc2cc1OCCCN1CCCCC1

>  <score_type>  (68) 
oracle

>  <origin>  (68) 
adg

>  <m_score__min__energy>  (68) 
-9.1699999999999999

>  <m_primary>  (68) 
energy

$$$$
68:0
     RDKit          3D

 33 34  0  0  0  0  0  0  0  0999 V2000
   57.8700   21.2640   43.8300 N   0  0  0  0  0  0  0  0  0  0  0  0
   56.5590   22.3530   44.1140 S   0  0  0  0  0  0  0  0  0  0  0  0
   55.5460   21.6960   45.0100 O   0  0  0  0  0  0  0  0  0  0  0  0
   55.8960   22.6910   42.8080 O   0  0  0  0  0  0  0  0  0  0  0  0
   57.1630   23.8230   44.8720 C   0  0  0  0  0  0  0  0  0  0  0  0
   58.4850   23.8840   45.3350 C   0  0  0  0  0  0  0  0  0  0  0  0
   58.9710   25.0620   45.9110 C   0  0  0  0  0  0  0  0  0  0  0  0
   58.1410   26.1790   46.0310 C   0  0  0  0  0  0  0  0  0  0  0  0
   56.8090   26.1210   45.5900 C   0  0  0  0  0  0  0  0  0  0  0  0
   55.9440   27.2610   45.6660 N   0  0  0  0  0  0  0  0  0  0  0  0
   56.2070   28.5770   45.1600 C   0  0  0  0  0  0  0  0  0  0  0  0
   55.2320   29.3260   44.8930 O   0  0  0  0  0  0  0  0  0  0  0  0
   57.6020   29.1260   45.0450 C   0  0  0  0  0  0  0  0  0  0  0  0
   57.7260   30.3290   43.6740 S   0  0  0  0  0  0  0  0  0  0  0  0
   57.8610   31.7750   44.7260 C   0  0  0  0  0  0  0  0  0  0  0  0
   58.0460   33.0430   44.1630 C   0  0  0  0  0  0  0  0  0  0  0  0
   58.1370   34.1560   45.0020 C   0  0  0  0  0  0  0  0  0  0  0  0
   58.0380   33.9920   46.3850 C   0  0  0  0  0  0  0  0  0  0  0  0
   57.8450   32.7120   46.9090 C   0  0  0  0  0  0  0  0  0  0  0  0
   57.7590   31.6400   46.0760 N   0  0  0  0  0  0  0  0  0  0  0  0
   56.3360   24.9490   44.9860 C   0  0  0  0  0  0  0  0  0  0  0  0
   58.3570   21.1290   44.7440 H   0  0  0  0  0  0  0  0  0  0  0  0
   57.4500   20.3410   43.5740 H   0  0  0  0  0  0  0  0  0  0  0  0
   59.1401   23.0050   45.2451 H   0  0  0  0  0  0  0  0  0  0  0  0
   60.0095   25.1091   46.2705 H   0  0  0  0  0  0  0  0  0  0  0  0
   58.5321   27.1075   46.4725 H   0  0  0  0  0  0  0  0  0  0  0  0
   57.8698   29.6265   45.9872 H   0  0  0  0  0  0  0  0  0  0  0  0
   58.2896   28.2920   44.8408 H   0  0  0  0  0  0  0  0  0  0  0  0
   58.1189   33.1617   43.0719 H   0  0  0  0  0  0  0  0  0  0  0  0
   58.2862   35.1585   44.5745 H   0  0  0  0  0  0  0  0  0  0  0  0
   58.1112   34.8616   47.0546 H   0  0  0  0  0  0  0  0  0  0  0  0
   57.7624   32.5704   47.9967 H   0  0  0  0  0  0  0  0  0  0  0  0
   55.3073   24.9120   44.5980 H   0  0  0  0  0  0  0  0  0  0  0  0
  1  2  1  0
  2  3  2  0
  2  4  2  0
  2  5  1  0
  5  6  2  0
  6  7  1  0
  7  8  2  0
  8  9  1  0
  9 10  1  0
 10 11  1  0
 11 12  2  0
 11 13  1  0
 13 14  1  0
 14 15  1  0
 15 16  2  0
 16 17  1  0
 17 18  2  0
 18 19  1  0
 19 20  2  0
  9 21  2  0
 21  5  1  0
 20 15  1  0
  1 22  1  0
  1 23  1  0
  6 24  1  0
  7 25  1  0
  8 26  1  0
 13 27  1  0
 13 28  1  0
 16 29  1  0
 17 30  1  0
 18 31  1  0
 19 32  1  0
 21 33  1  0
M  CHG  1  10  -1
M  END
>  <UniqueID>  (69) 
67

>  <SMILES>  (69) 
NS(=O)(=O)c1cccc([N-]C(=O)CSc2ccccn2)c1

>  <Energy>  (69) 
34.22520542132718

>  <Genealogy>  (69) 
NS(=O)(=O)c1cccc([N-]C(=O)CSc2ccccn2)c1 (protonated)
NS(=O)(=O)c1cccc([N-]C(=O)CSc2ccccn2)c1 (3D coordinates assigned)
NS(=O)(=O)c1cccc([N-]C(=O)CSc2ccccn2)c1 (optimized conformer: 34.22520542132718 kcal/mol)

>  <smiles>  (69) 
NS(=O)(=O)c1cccc(NC(=O)CSc2ccccn2)c1

>  <score_type>  (69) 
oracle

>  <origin>  (69) 
adg

>  <m_score__min__energy>  (69) 
-9.75

>  <m_primary>  (69) 
energy

$$$$
69:0
     RDKit          3D

 60 63  0  0  0  0  0  0  0  0999 V2000
   56.8160   21.6010   49.7510 C   0  0  0  0  0  0  0  0  0  0  0  0
   56.5310   22.1170   48.4210 N   0  0  0  0  0  0  0  0  0  0  0  0
   55.8420   23.2400   48.1500 C   0  0  0  0  0  0  0  0  0  0  0  0
   55.8430   23.4110   46.7820 C   0  0  0  0  0  0  0  0  0  0  0  0
   55.2480   24.5450   46.0100 C   0  0  0  0  0  0  0  0  0  0  0  0
   55.9420   25.7910   46.3430 N   0  0  0  0  0  0  0  0  0  0  0  0
   57.6240   25.7080   45.9120 S   0  0  0  0  0  0  0  0  0  0  0  0
   57.7440   25.4950   44.4270 O   0  0  0  0  0  0  0  0  0  0  0  0
   58.2520   24.5370   46.6150 O   0  0  0  0  0  0  0  0  0  0  0  0
   58.4790   27.1770   46.3880 C   0  0  0  0  0  0  0  0  0  0  0  0
   58.5550   28.2580   45.5010 C   0  0  0  0  0  0  0  0  0  0  0  0
   59.1700   29.4520   45.8940 C   0  0  0  0  0  0  0  0  0  0  0  0
   59.7110   29.5830   47.1860 C   0  0  0  0  0  0  0  0  0  0  0  0
   60.2890   30.8740   47.6400 C   0  0  0  0  0  0  0  0  0  0  0  0
   61.4470   30.8890   48.4410 C   0  0  0  0  0  0  0  0  0  0  0  0
   61.9960   32.0970   48.8690 C   0  0  0  0  0  0  0  0  0  0  0  0
   61.4100   33.3070   48.4970 C   0  0  0  0  0  0  0  0  0  0  0  0
   60.2640   33.3160   47.6860 C   0  0  0  0  0  0  0  0  0  0  0  0
   59.6850   34.6210   47.2040 C   0  0  0  0  0  0  0  0  0  0  0  0
   60.1680   34.9540   45.8540 N   0  0  0  0  0  0  0  0  0  0  0  0
   59.0720   35.2250   44.9060 C   0  0  0  0  0  0  0  0  0  0  0  0
   58.3020   33.9650   44.6010 C   0  0  0  0  0  0  0  0  0  0  0  0
   58.6140   33.1880   43.4750 C   0  0  0  0  0  0  0  0  0  0  0  0
   57.9490   31.9800   43.2400 C   0  0  0  0  0  0  0  0  0  0  0  0
   56.9600   31.5240   44.1310 C   0  0  0  0  0  0  0  0  0  0  0  0
   56.2890   30.2250   43.9100 C   0  0  0  0  0  0  0  0  0  0  0  0
   55.5120   29.6230   44.9430 N   0  0  0  0  0  0  0  0  0  0  0  0
   56.3850   29.6430   42.7970 O   0  0  0  0  0  0  0  0  0  0  0  0
   56.6270   32.3240   45.2410 C   0  0  0  0  0  0  0  0  0  0  0  0
   57.2820   33.5390   45.4630 C   0  0  0  0  0  0  0  0  0  0  0  0
   59.6940   32.0970   47.2790 C   0  0  0  0  0  0  0  0  0  0  0  0
   59.6600   28.4810   48.0600 C   0  0  0  0  0  0  0  0  0  0  0  0
   59.0490   27.2880   47.6630 C   0  0  0  0  0  0  0  0  0  0  0  0
   56.5650   22.3460   46.2790 C   0  0  0  0  0  0  0  0  0  0  0  0
   56.9830   21.5730   47.2990 N   0  0  0  0  0  0  0  0  0  0  0  0
   56.4294   22.3009   50.5064 H   0  0  0  0  0  0  0  0  0  0  0  0
   56.3308   20.6217   49.8761 H   0  0  0  0  0  0  0  0  0  0  0  0
   57.9032   21.4902   49.8761 H   0  0  0  0  0  0  0  0  0  0  0  0
   55.3641   23.9023   48.8868 H   0  0  0  0  0  0  0  0  0  0  0  0
   55.3504   24.3468   44.9329 H   0  0  0  0  0  0  0  0  0  0  0  0
   54.1835   24.6419   46.2699 H   0  0  0  0  0  0  0  0  0  0  0  0
   58.1293   28.1682   44.4907 H   0  0  0  0  0  0  0  0  0  0  0  0
   59.2308   30.2935   45.1882 H   0  0  0  0  0  0  0  0  0  0  0  0
   61.9221   29.9403   48.7313 H   0  0  0  0  0  0  0  0  0  0  0  0
   62.8951   32.0959   49.5027 H   0  0  0  0  0  0  0  0  0  0  0  0
   61.8469   34.2565   48.8399 H   0  0  0  0  0  0  0  0  0  0  0  0
   58.5882   34.5402   47.1824 H   0  0  0  0  0  0  0  0  0  0  0  0
   60.0029   35.4175   47.8929 H   0  0  0  0  0  0  0  0  0  0  0  0
   60.6900   34.1180   45.5000 H   0  0  0  0  0  0  0  0  0  0  0  0
   58.3895   35.9666   45.3467 H   0  0  0  0  0  0  0  0  0  0  0  0
   59.5033   35.6091   43.9699 H   0  0  0  0  0  0  0  0  0  0  0  0
   59.3872   33.5313   42.7719 H   0  0  0  0  0  0  0  0  0  0  0  0
   58.2011   31.3820   42.3519 H   0  0  0  0  0  0  0  0  0  0  0  0
   54.5220   29.3430   44.7770 H   0  0  0  0  0  0  0  0  0  0  0  0
   55.8452   31.9902   45.9391 H   0  0  0  0  0  0  0  0  0  0  0  0
   56.9948   34.1653   46.3205 H   0  0  0  0  0  0  0  0  0  0  0  0
   58.7756   32.0993   46.6736 H   0  0  0  0  0  0  0  0  0  0  0  0
   60.1044   28.5591   49.0632 H   0  0  0  0  0  0  0  0  0  0  0  0
   59.0156   26.4331   48.3544 H   0  0  0  0  0  0  0  0  0  0  0  0
   56.7665   22.1592   45.2139 H   0  0  0  0  0  0  0  0  0  0  0  0
  1  2  1  0
  2  3  1  0
  3  4  2  0
  4  5  1  0
  5  6  1  0
  6  7  1  0
  7  8  2  0
  7  9  2  0
  7 10  1  0
 10 11  2  0
 11 12  1  0
 12 13  2  0
 13 14  1  0
 14 15  2  0
 15 16  1  0
 16 17  2  0
 17 18  1  0
 18 19  1  0
 19 20  1  0
 20 21  1  0
 21 22  1  0
 22 23  2  0
 23 24  1  0
 24 25  2  0
 25 26  1  0
 26 27  1  0
 26 28  2  0
 25 29  1  0
 29 30  2  0
 18 31  2  0
 13 32  1  0
 32 33  2  0
  4 34  1  0
 34 35  2  0
 35  2  1  0
 33 10  1  0
 31 14  1  0
 30 22  1  0
  1 36  1  0
  1 37  1  0
  1 38  1  0
  3 39  1  0
  5 40  1  0
  5 41  1  0
 11 42  1  0
 12 43  1  0
 15 44  1  0
 16 45  1  0
 17 46  1  0
 19 47  1  0
 19 48  1  0
 20 49  1  0
 21 50  1  0
 21 51  1  0
 23 52  1  0
 24 53  1  0
 27 54  1  0
 29 55  1  0
 30 56  1  0
 31 57  1  0
 32 58  1  0
 33 59  1  0
 34 60  1  0
M  CHG  2   6  -1  27  -1
M  END
>  <UniqueID>  (70) 
68

>  <SMILES>  (70) 
Cn1cc(C[N-]S(=O)(=O)c2ccc(-c3cccc(CNCc4ccc(C([NH-])=O)cc4)c3)cc2)cn1

>  <Energy>  (70) 
87.95068992526957

>  <Genealogy>  (70) 
Cn1cc(C[N-]S(=O)(=O)c2ccc(-c3cccc(CNCc4ccc(C([NH-])=O)cc4)c3)cc2)cn1 (protonated)
Cn1cc(C[N-]S(=O)(=O)c2ccc(-c3cccc(CNCc4ccc(C([NH-])=O)cc4)c3)cc2)cn1 (3D coordinates assigned)
Cn1cc(C[N-]S(=O)(=O)c2ccc(-c3cccc(CNCc4ccc(C([NH-])=O)cc4)c3)cc2)cn1 (optimized conformer: 87.95068992526957 kcal/mol)

>  <smiles>  (70) 
Cn1cc(CNS(=O)(=O)c2ccc(-c3cccc(CNCc4ccc(C(N)=O)cc4)c3)cc2)cn1

>  <score_type>  (70) 
oracle

>  <origin>  (70) 
adg

>  <m_score__min__energy>  (70) 
-14.43

>  <m_primary>  (70) 
energy

$$$$
70:0
     RDKit          3D

 71 76  0  0  1  0  0  0  0  0999 V2000
   59.2250   34.9160   53.6420 C   0  0  0  0  0  0  0  0  0  0  0  0
   59.3830   33.4310   53.7090 C   0  0  0  0  0  0  0  0  0  0  0  0
   59.6040   32.8160   54.9390 C   0  0  0  0  0  0  0  0  0  0  0  0
   59.7550   31.4460   55.0470 C   0  0  0  0  0  0  0  0  0  0  0  0
   59.6800   30.7080   53.9010 C   0  0  0  0  0  0  0  0  0  0  0  0
   59.4600   31.2910   52.6510 C   0  0  0  0  0  0  0  0  0  0  0  0
   59.4030   30.4090   51.5370 N   0  0  0  0  0  0  0  0  0  0  0  0
   60.5100   29.5840   51.1270 C   0  0  0  0  0  0  0  0  0  0  0  0
   60.6950   29.5010   49.6300 C   0  0  0  0  0  0  0  0  0  0  0  0
   59.4360   29.6390   48.9220 N   0  0  0  0  0  0  0  0  0  0  0  0
   59.1290   28.7270   47.8810 C   0  0  0  0  0  0  0  0  0  0  0  0
   59.9040   27.6040   47.8390 N   0  0  0  0  0  0  0  0  0  0  0  0
   59.6770   26.6730   46.8800 C   0  0  0  0  0  0  0  0  0  0  0  0
   60.4100   25.6700   46.8850 O   0  0  0  0  0  0  0  0  0  0  0  0
   58.6480   26.8620   45.9310 C   0  0  0  0  0  0  0  0  0  0  0  0
   58.2840   25.6670   45.1910 C   0  0  0  0  0  0  0  0  0  0  0  0
   58.6300   24.4290   45.5760 N   0  0  0  0  0  0  0  0  0  0  0  0
   58.0560   23.4800   44.8290 C   0  0  0  0  0  0  0  0  0  0  0  0
   58.1410   22.1080   44.8820 C   0  0  0  0  0  0  0  0  0  0  0  0
   57.4330   21.3490   43.9740 C   0  0  0  0  0  0  0  0  0  0  0  0
   56.6620   22.0220   43.0450 C   0  0  0  0  0  0  0  0  0  0  0  0
   56.5810   23.3990   42.9960 C   0  0  0  0  0  0  0  0  0  0  0  0
   57.2920   24.1360   43.9070 C   0  0  0  0  0  0  0  0  0  0  0  0
   57.4520   25.4700   44.1560 N   0  0  0  0  0  0  0  0  0  0  0  0
   57.8860   27.9840   45.9680 C   0  0  0  0  0  0  0  0  0  0  0  0
   57.0760   28.5030   44.9560 N   0  0  0  0  0  0  0  0  0  0  0  0
   56.3820   29.7290   44.7750 C   0  0  1  0  0  0  0  0  0  0  0  0
   57.3480   30.9300   44.9260 C   0  0  0  0  0  0  0  0  0  0  0  0
   58.1390   31.1630   43.6900 C   0  0  0  0  0  0  0  0  0  0  0  0
   57.2140   31.3100   42.4750 C   0  0  0  0  0  0  0  0  0  0  0  0
   56.6130   29.9980   42.3220 N   0  0  0  0  0  0  0  0  0  0  0  0
   55.6920   29.8120   43.4210 C   0  0  0  0  0  0  0  0  0  0  0  0
   58.1650   28.8960   46.9790 N   0  0  0  0  0  0  0  0  0  0  0  0
   58.5710   30.7210   49.3450 C   0  0  0  0  0  0  0  0  0  0  0  0
   58.1490   30.3460   50.7740 C   0  0  0  0  0  0  0  0  0  0  0  0
   59.3080   32.6580   52.5460 C   0  0  0  0  0  0  0  0  0  0  0  0
   59.0770   33.2690   51.2300 C   0  0  0  0  0  0  0  0  0  0  0  0
   59.1813   35.3265   54.6616 H   0  0  0  0  0  0  0  0  0  0  0  0
   60.0818   35.3522   53.1075 H   0  0  0  0  0  0  0  0  0  0  0  0
   58.2956   35.1621   53.1075 H   0  0  0  0  0  0  0  0  0  0  0  0
   59.6597   33.4353   55.8464 H   0  0  0  0  0  0  0  0  0  0  0  0
   59.9294   30.9675   56.0220 H   0  0  0  0  0  0  0  0  0  0  0  0
   59.7969   29.6161   53.9642 H   0  0  0  0  0  0  0  0  0  0  0  0
   61.4300   29.9967   51.5666 H   0  0  0  0  0  0  0  0  0  0  0  0
   60.2928   28.5641   51.4772 H   0  0  0  0  0  0  0  0  0  0  0  0
   61.3732   30.3058   49.3101 H   0  0  0  0  0  0  0  0  0  0  0  0
   61.1140   28.5121   49.3920 H   0  0  0  0  0  0  0  0  0  0  0  0
   58.7686   21.6203   45.6424 H   0  0  0  0  0  0  0  0  0  0  0  0
   57.4801   20.2501   43.9885 H   0  0  0  0  0  0  0  0  0  0  0  0
   56.0881   21.4348   42.3130 H   0  0  0  0  0  0  0  0  0  0  0  0
   55.9567   23.8963   42.2390 H   0  0  0  0  0  0  0  0  0  0  0  0
   56.9250   26.1560   43.6070 H   0  0  0  0  0  0  0  0  0  0  0  0
   56.9770   27.8360   44.0970 H   0  0  0  0  0  0  0  0  0  0  0  0
   55.6080   29.7679   45.5557 H   0  0  0  0  0  0  0  0  0  0  0  0
   56.7607   31.8332   45.1480 H   0  0  0  0  0  0  0  0  0  0  0  0
   58.0496   30.7029   45.7422 H   0  0  0  0  0  0  0  0  0  0  0  0
   58.7301   32.0832   43.8075 H   0  0  0  0  0  0  0  0  0  0  0  0
   58.8032   30.3015   43.5271 H   0  0  0  0  0  0  0  0  0  0  0  0
   56.4434   32.0724   42.6618 H   0  0  0  0  0  0  0  0  0  0  0  0
   57.7534   31.6334   41.5725 H   0  0  0  0  0  0  0  0  0  0  0  0
   57.3900   29.3010   42.3120 H   0  0  0  0  0  0  0  0  0  0  0  0
   54.9914   30.6599   43.4372 H   0  0  0  0  0  0  0  0  0  0  0  0
   55.1776   28.8536   43.2573 H   0  0  0  0  0  0  0  0  0  0  0  0
   57.6020   29.7740   47.0600 H   0  0  0  0  0  0  0  0  0  0  0  0
   59.1146   31.6773   49.3392 H   0  0  0  0  0  0  0  0  0  0  0  0
   57.7074   30.8497   48.6759 H   0  0  0  0  0  0  0  0  0  0  0  0
   57.4145   31.0643   51.1671 H   0  0  0  0  0  0  0  0  0  0  0  0
   57.6657   29.3594   50.8301 H   0  0  0  0  0  0  0  0  0  0  0  0
   58.6908   34.2904   51.3627 H   0  0  0  0  0  0  0  0  0  0  0  0
   60.0237   33.3046   50.6710 H   0  0  0  0  0  0  0  0  0  0  0  0
   58.3435   32.6694   50.6710 H   0  0  0  0  0  0  0  0  0  0  0  0
  1  2  1  0
  2  3  2  0
  3  4  1  0
  4  5  2  0
  5  6  1  0
  6  7  1  0
  7  8  1  0
  8  9  1  0
  9 10  1  0
 10 11  1  0
 11 12  2  0
 12 13  1  0
 13 14  2  0
 13 15  1  0
 15 16  1  0
 16 17  2  0
 17 18  1  0
 18 19  2  0
 19 20  1  0
 20 21  2  0
 21 22  1  0
 22 23  2  0
 23 24  1  0
 15 25  2  0
 25 26  1  0
 26 27  1  0
 27 28  1  0
 28 29  1  0
 29 30  1  0
 30 31  1  0
 31 32  1  0
 25 33  1  0
 10 34  1  0
 34 35  1  0
  6 36  2  0
 36 37  1  0
 36  2  1  0
 35  7  1  0
 33 11  1  0
 24 16  1  0
 32 27  1  0
 23 18  1  0
  1 38  1  0
  1 39  1  0
  1 40  1  0
  3 41  1  0
  4 42  1  0
  5 43  1  0
  8 44  1  0
  8 45  1  0
  9 46  1  0
  9 47  1  0
 19 48  1  0
 20 49  1  0
 21 50  1  0
 22 51  1  0
 24 52  1  0
 26 53  1  0
 27 54  1  1
 28 55  1  0
 28 56  1  0
 29 57  1  0
 29 58  1  0
 30 59  1  0
 30 60  1  0
 31 61  1  0
 32 62  1  0
 32 63  1  0
 33 64  1  0
 34 65  1  0
 34 66  1  0
 35 67  1  0
 35 68  1  0
 37 69  1  0
 37 70  1  0
 37 71  1  0
M  END
>  <smiles>  (71) 
Cc1cccc(N2CCN(c3nc(=O)c(-c4nc5ccccc5[nH]4)c(NC4CCCNC4)[nH]3)CC2)c1C

>  <score_type>  (71) 
oracle

>  <origin>  (71) 
adg

>  <m_score__min__energy>  (71) 
-9.0099999999999998

>  <m_primary>  (71) 
energy

$$$$
71:0
     RDKit          3D

 85 90  0  0  0  0  0  0  0  0999 V2000
   58.1700   31.3070   52.3250 C   0  0  0  0  0  0  0  0  0  0  0  0
   56.7500   31.6100   51.8490 C   0  0  0  0  0  0  0  0  0  0  0  0
   55.8750   30.4300   52.0050 N   0  0  0  0  0  0  0  0  0  0  0  0
   54.4810   30.8440   52.2320 C   0  0  0  0  0  0  0  0  0  0  0  0
   53.5770   29.6170   52.1410 C   0  0  0  0  0  0  0  0  0  0  0  0
   54.0820   28.5330   52.9990 N   0  0  0  0  0  0  0  0  0  0  0  0
   53.2690   27.3640   53.2260 C   0  0  0  0  0  0  0  0  0  0  0  0
   53.8190   26.0770   53.1170 C   0  0  0  0  0  0  0  0  0  0  0  0
   52.9980   24.9500   53.2930 C   0  0  0  0  0  0  0  0  0  0  0  0
   53.5050   23.6060   53.2260 N   0  0  0  0  0  0  0  0  0  0  0  0
   53.0680   22.6170   52.4980 C   0  0  0  0  0  0  0  0  0  0  0  0
   53.0970   22.7340   51.1450 N   0  0  0  0  0  0  0  0  0  0  0  0
   52.6480   21.7390   50.3300 C   0  0  0  0  0  0  0  0  0  0  0  0
   52.6960   21.8790   48.9360 O   0  0  0  0  0  0  0  0  0  0  0  0
   53.7590   22.4970   48.2690 C   0  0  0  0  0  0  0  0  0  0  0  0
   54.9810   22.6600   48.9400 C   0  0  0  0  0  0  0  0  0  0  0  0
   56.0060   23.4100   48.3580 C   0  0  0  0  0  0  0  0  0  0  0  0
   55.8280   23.9680   47.0840 C   0  0  0  0  0  0  0  0  0  0  0  0
   56.7740   24.9030   46.5720 N   0  0  0  0  0  0  0  0  0  0  0  0
   56.3430   26.0820   45.8890 C   0  0  0  0  0  0  0  0  0  0  0  0
   55.1540   26.4740   46.0270 O   0  0  0  0  0  0  0  0  0  0  0  0
   57.2400   26.7800   45.0120 N   0  0  0  0  0  0  0  0  0  0  0  0
   57.4400   28.2070   45.0340 C   0  0  0  0  0  0  0  0  0  0  0  0
   58.1540   28.7830   46.0980 C   0  0  0  0  0  0  0  0  0  0  0  0
   58.3310   30.1660   46.1750 C   0  0  0  0  0  0  0  0  0  0  0  0
   57.7730   31.0080   45.1980 C   0  0  0  0  0  0  0  0  0  0  0  0
   57.9890   32.4700   45.2570 C   0  0  0  0  0  0  0  0  0  0  0  0
   58.4220   33.0900   44.2500 O   0  0  0  0  0  0  0  0  0  0  0  0
   57.6790   33.1900   46.4510 N   0  0  0  0  0  0  0  0  0  0  0  0
   58.5560   34.2240   47.0050 C   0  0  0  0  0  0  0  0  0  0  0  0
   59.3520   33.6690   48.1930 C   0  0  0  0  0  0  0  0  0  0  0  0
   60.8440   33.6910   47.9450 C   0  0  0  0  0  0  0  0  0  0  0  0
   61.3510   33.7540   46.6330 C   0  0  0  0  0  0  0  0  0  0  0  0
   62.7330   33.8010   46.4170 C   0  0  0  0  0  0  0  0  0  0  0  0
   63.6150   33.7830   47.5010 C   0  0  0  0  0  0  0  0  0  0  0  0
   63.1160   33.7240   48.8060 C   0  0  0  0  0  0  0  0  0  0  0  0
   61.7370   33.6820   49.0280 C   0  0  0  0  0  0  0  0  0  0  0  0
   57.0460   30.4370   44.1340 C   0  0  0  0  0  0  0  0  0  0  0  0
   56.8880   29.0470   44.0490 C   0  0  0  0  0  0  0  0  0  0  0  0
   54.6490   23.7170   46.3690 C   0  0  0  0  0  0  0  0  0  0  0  0
   53.6210   22.9770   46.9530 C   0  0  0  0  0  0  0  0  0  0  0  0
   52.4840   22.7540   46.2480 F   0  0  0  0  0  0  0  0  0  0  0  0
   52.1630   20.5560   50.8930 C   0  0  0  0  0  0  0  0  0  0  0  0
   52.1510   20.4390   52.2820 C   0  0  0  0  0  0  0  0  0  0  0  0
   52.6040   21.4620   53.0550 N   0  0  0  0  0  0  0  0  0  0  0  0
   51.6550   25.1360   53.6390 C   0  0  0  0  0  0  0  0  0  0  0  0
   51.1460   26.4280   53.7580 C   0  0  0  0  0  0  0  0  0  0  0  0
   51.9520   27.5030   53.5460 N   0  0  0  0  0  0  0  0  0  0  0  0
   55.2620   28.7690   53.8380 C   0  0  0  0  0  0  0  0  0  0  0  0
   56.3760   29.4980   53.0540 C   0  0  0  0  0  0  0  0  0  0  0  0
   58.1948   31.3017   53.4247 H   0  0  0  0  0  0  0  0  0  0  0  0
   58.4813   30.3222   51.9465 H   0  0  0  0  0  0  0  0  0  0  0  0
   58.8562   32.0789   51.9465 H   0  0  0  0  0  0  0  0  0  0  0  0
   56.3416   32.4413   52.4424 H   0  0  0  0  0  0  0  0  0  0  0  0
   56.7881   31.8789   50.7831 H   0  0  0  0  0  0  0  0  0  0  0  0
   54.3887   31.2969   53.2302 H   0  0  0  0  0  0  0  0  0  0  0  0
   54.1839   31.5817   51.4720 H   0  0  0  0  0  0  0  0  0  0  0  0
   52.5624   29.8913   52.4656 H   0  0  0  0  0  0  0  0  0  0  0  0
   53.5627   29.2652   51.0989 H   0  0  0  0  0  0  0  0  0  0  0  0
   54.8889   25.9511   52.8946 H   0  0  0  0  0  0  0  0  0  0  0  0
   55.1319   22.1963   49.9260 H   0  0  0  0  0  0  0  0  0  0  0  0
   56.9517   23.5626   48.8987 H   0  0  0  0  0  0  0  0  0  0  0  0
   57.8510   26.2010   44.3880 H   0  0  0  0  0  0  0  0  0  0  0  0
   58.5789   28.1366   46.8801 H   0  0  0  0  0  0  0  0  0  0  0  0
   58.9100   30.5984   47.0043 H   0  0  0  0  0  0  0  0  0  0  0  0
   59.2554   34.5617   46.2260 H   0  0  0  0  0  0  0  0  0  0  0  0
   57.9399   35.0671   47.3507 H   0  0  0  0  0  0  0  0  0  0  0  0
   59.1321   34.2786   49.0818 H   0  0  0  0  0  0  0  0  0  0  0  0
   59.0508   32.6213   48.3398 H   0  0  0  0  0  0  0  0  0  0  0  0
   60.6603   33.7663   45.7770 H   0  0  0  0  0  0  0  0  0  0  0  0
   63.1262   33.8523   45.3910 H   0  0  0  0  0  0  0  0  0  0  0  0
   64.7008   33.8152   47.3278 H   0  0  0  0  0  0  0  0  0  0  0  0
   63.8102   33.7106   49.6592 H   0  0  0  0  0  0  0  0  0  0  0  0
   61.3493   33.6417   50.0566 H   0  0  0  0  0  0  0  0  0  0  0  0
   56.6001   31.0860   43.3659 H   0  0  0  0  0  0  0  0  0  0  0  0
   56.3296   28.6103   43.2079 H   0  0  0  0  0  0  0  0  0  0  0  0
   54.5342   24.1041   45.3458 H   0  0  0  0  0  0  0  0  0  0  0  0
   51.7993   19.7366   50.2556 H   0  0  0  0  0  0  0  0  0  0  0  0
   51.7750   19.5188   52.7530 H   0  0  0  0  0  0  0  0  0  0  0  0
   51.0043   24.2670   53.8162 H   0  0  0  0  0  0  0  0  0  0  0  0
   50.0894   26.5788   54.0241 H   0  0  0  0  0  0  0  0  0  0  0  0
   54.9698   29.3855   54.7009 H   0  0  0  0  0  0  0  0  0  0  0  0
   55.6521   27.7948   54.1677 H   0  0  0  0  0  0  0  0  0  0  0  0
   56.9795   30.0760   53.7693 H   0  0  0  0  0  0  0  0  0  0  0  0
   56.9575   28.7215   52.5354 H   0  0  0  0  0  0  0  0  0  0  0  0
  1  2  1  0
  2  3  1  0
  3  4  1  0
  4  5  1  0
  5  6  1  0
  6  7  1  0
  7  8  2  0
  8  9  1  0
  9 10  1  0
 10 11  2  3
 11 12  1  0
 12 13  2  0
 13 14  1  0
 14 15  1  0
 15 16  2  0
 16 17  1  0
 17 18  2  0
 18 19  1  0
 19 20  1  0
 20 21  2  0
 20 22  1  0
 22 23  1  0
 23 24  2  0
 24 25  1  0
 25 26  2  0
 26 27  1  0
 27 28  2  0
 27 29  1  0
 29 30  1  0
 30 31  1  0
 31 32  1  0
 32 33  2  0
 33 34  1  0
 34 35  2  0
 35 36  1  0
 36 37  2  0
 26 38  1  0
 38 39  2  0
 18 40  1  0
 40 41  2  0
 41 42  1  0
 13 43  1  0
 43 44  2  0
 44 45  1  0
  9 46  2  0
 46 47  1  0
 47 48  2  0
  6 49  1  0
 49 50  1  0
 50  3  1  0
 48  7  1  0
 45 11  1  0
 41 15  1  0
 39 23  1  0
 37 32  1  0
  1 51  1  0
  1 52  1  0
  1 53  1  0
  2 54  1  0
  2 55  1  0
  4 56  1  0
  4 57  1  0
  5 58  1  0
  5 59  1  0
  8 60  1  0
 16 61  1  0
 17 62  1  0
 22 63  1  0
 24 64  1  0
 25 65  1  0
 30 66  1  0
 30 67  1  0
 31 68  1  0
 31 69  1  0
 33 70  1  0
 34 71  1  0
 35 72  1  0
 36 73  1  0
 37 74  1  0
 38 75  1  0
 39 76  1  0
 40 77  1  0
 43 78  1  0
 44 79  1  0
 46 80  1  0
 47 81  1  0
 49 82  1  0
 49 83  1  0
 50 84  1  0
 50 85  1  0
M  CHG  3  19  -1  29  -1  45  -1
M  END
>  <UniqueID>  (72) 
69

>  <SMILES>  (72) 
CCN1CCN(c2cc(N=c3nc(Oc4ccc([N-]C(=O)Nc5ccc(C(=O)[N-]CCc6ccccc6)cc5)cc4F)cc[n-]3)ccn2)CC1

>  <Energy>  (72) 
124.56795364939588

>  <Genealogy>  (72) 
CCN1CCN(c2cc(N=c3nc(Oc4ccc([N-]C(=O)Nc5ccc(C(=O)[N-]CCc6ccccc6)cc5)cc4F)cc[n-]3)ccn2)CC1 (protonated)
CCN1CCN(c2cc(N=c3nc(Oc4ccc([N-]C(=O)Nc5ccc(C(=O)[N-]CCc6ccccc6)cc5)cc4F)cc[n-]3)ccn2)CC1 (3D coordinates assigned)
CCN1CCN(c2cc(N=c3nc(Oc4ccc([N-]C(=O)Nc5ccc(C(=O)[N-]CCc6ccccc6)cc5)cc4F)cc[n-]3)ccn2)CC1 (nonaromatic ring conformer: 124.56795364939588 kcal/mol)

>  <smiles>  (72) 
CCN1CCN(c2cc(N=c3nc(Oc4ccc(NC(=O)Nc5ccc(C(=O)NCCc6ccccc6)cc5)cc4F)cc[nH]3)ccn2)CC1

>  <score_type>  (72) 
oracle

>  <origin>  (72) 
adg

>  <m_score__min__energy>  (72) 
-14.01

>  <m_primary>  (72) 
energy

$$$$
72:0
     RDKit          3D

 30 31  0  0  0  0  0  0  0  0999 V2000
   56.8110   30.4540   43.0370 O   0  0  0  0  0  0  0  0  0  0  0  0
   57.6310   30.0220   43.8320 C   0  0  0  0  0  0  0  0  0  0  0  0
   57.2270   29.7370   45.2550 C   0  0  2  0  0  0  0  0  0  0  0  0
   58.1320   30.4790   46.2600 C   0  0  0  0  0  0  0  0  0  0  0  0
   58.3150   31.9230   45.8680 C   0  0  0  0  0  0  0  0  0  0  0  0
   59.5590   32.5540   46.0420 C   0  0  0  0  0  0  0  0  0  0  0  0
   59.7130   33.9070   45.7230 C   0  0  0  0  0  0  0  0  0  0  0  0
   58.6280   34.6390   45.2350 C   0  0  0  0  0  0  0  0  0  0  0  0
   57.3860   34.0210   45.0670 C   0  0  0  0  0  0  0  0  0  0  0  0
   57.2270   32.6680   45.3870 C   0  0  0  0  0  0  0  0  0  0  0  0
   57.2060   28.2850   45.5210 N   0  0  0  0  0  0  0  0  0  0  0  0
   56.0090   27.6940   45.6170 N   0  0  0  0  0  0  0  0  0  0  0  0
   55.8720   26.3730   45.8950 C   0  0  0  0  0  0  0  0  0  0  0  0
   54.7240   25.8630   45.9730 O   0  0  0  0  0  0  0  0  0  0  0  0
   57.0040   25.5920   46.0960 C   0  0  0  0  0  0  0  0  0  0  0  0
   58.2620   26.1830   46.0070 C   0  0  0  0  0  0  0  0  0  0  0  0
   59.3990   25.4010   46.2110 O   0  0  0  0  0  0  0  0  0  0  0  0
   58.3540   27.5510   45.7160 C   0  0  0  0  0  0  0  0  0  0  0  0
   59.4880   28.0980   45.6380 O   0  0  0  0  0  0  0  0  0  0  0  0
   58.6666   29.8406   43.5085 H   0  0  0  0  0  0  0  0  0  0  0  0
   56.2043   30.1182   45.3924 H   0  0  0  0  0  0  0  0  0  0  0  0
   57.6717   30.4340   47.2580 H   0  0  0  0  0  0  0  0  0  0  0  0
   59.1185   29.9923   46.2647 H   0  0  0  0  0  0  0  0  0  0  0  0
   60.4143   31.9817   46.4304 H   0  0  0  0  0  0  0  0  0  0  0  0
   60.6896   34.3952   45.8565 H   0  0  0  0  0  0  0  0  0  0  0  0
   58.7513   35.7026   44.9828 H   0  0  0  0  0  0  0  0  0  0  0  0
   56.5324   34.5987   44.6828 H   0  0  0  0  0  0  0  0  0  0  0  0
   56.2460   32.1866   45.2611 H   0  0  0  0  0  0  0  0  0  0  0  0
   56.9075   24.5199   46.3227 H   0  0  0  0  0  0  0  0  0  0  0  0
   60.3340   25.7870   46.1660 H   0  0  0  0  0  0  0  0  0  0  0  0
  1  2  2  0
  2  3  1  0
  3  4  1  0
  4  5  1  0
  5  6  2  0
  6  7  1  0
  7  8  2  0
  8  9  1  0
  9 10  2  0
  3 11  1  0
 11 12  1  0
 12 13  1  0
 13 14  2  0
 13 15  1  0
 15 16  2  0
 16 17  1  0
 16 18  1  0
 18 19  2  0
 10  5  1  0
 18 11  1  0
  2 20  1  0
  3 21  1  6
  4 22  1  0
  4 23  1  0
  6 24  1  0
  7 25  1  0
  8 26  1  0
  9 27  1  0
 10 28  1  0
 15 29  1  0
 17 30  1  0
M  CHG  1  12  -1
M  END
>  <UniqueID>  (73) 
70

>  <SMILES>  (73) 
O=C[C@H](Cc1ccccc1)n1[n-]c(=O)cc(O)c1=O

>  <Energy>  (73) 
30.582042758514845

>  <Genealogy>  (73) 
O=CC(Cc1ccccc1)n1[n-]c(=O)cc(O)c1=O (protonated)
O=C[C@H](Cc1ccccc1)n1[n-]c(=O)cc(O)c1=O (chirality)
O=C[C@H](Cc1ccccc1)n1[n-]c(=O)cc(O)c1=O (3D coordinates assigned)
O=C[C@H](Cc1ccccc1)n1[n-]c(=O)cc(O)c1=O (optimized conformer: 30.582042758514845 kcal/mol)

>  <smiles>  (73) 
O=CC(Cc1ccccc1)n1[nH]c(=O)cc(O)c1=O

>  <score_type>  (73) 
oracle

>  <origin>  (73) 
adg

>  <m_score__min__energy>  (73) 
-8.6199999999999992

>  <m_primary>  (73) 
energy

$$$$
73:0
     RDKit          3D

 41 43  0  0  0  0  0  0  0  0999 V2000
   58.0920   33.9230   44.4880 C   0  0  0  0  0  0  0  0  0  0  0  0
   58.9240   34.6080   45.2770 C   0  0  0  0  0  0  0  0  0  0  0  0
   58.8200   34.5380   46.7750 C   0  0  0  0  0  0  0  0  0  0  0  0
   59.8350   33.6240   47.3260 N   0  0  0  0  0  0  0  0  0  0  0  0
   59.8680   32.2170   46.9760 C   0  0  0  0  0  0  0  0  0  0  0  0
   58.7100   31.5250   46.5720 C   0  0  0  0  0  0  0  0  0  0  0  0
   58.7760   30.1640   46.2260 C   0  0  0  0  0  0  0  0  0  0  0  0
   57.6210   29.4270   45.7980 N   0  0  0  0  0  0  0  0  0  0  0  0
   56.5110   29.9170   44.5580 S   0  0  0  0  0  0  0  0  0  0  0  0
   56.9950   29.2650   43.0300 N   0  0  0  0  0  0  0  0  0  0  0  0
   56.4490   31.4190   44.4890 O   0  0  0  0  0  0  0  0  0  0  0  0
   55.1450   29.3910   44.8990 O   0  0  0  0  0  0  0  0  0  0  0  0
   60.0030   29.4960   46.2950 C   0  0  0  0  0  0  0  0  0  0  0  0
   61.1560   30.1720   46.6960 C   0  0  0  0  0  0  0  0  0  0  0  0
   61.0930   31.5300   47.0370 C   0  0  0  0  0  0  0  0  0  0  0  0
   62.2920   32.2880   47.4290 C   0  0  0  0  0  0  0  0  0  0  0  0
   63.4410   31.7780   47.3460 O   0  0  0  0  0  0  0  0  0  0  0  0
   62.1520   33.6070   47.8640 O   0  0  0  0  0  0  0  0  0  0  0  0
   60.8780   34.1460   48.2310 C   0  0  2  0  0  0  0  0  0  0  0  0
   60.5770   33.8180   49.6840 C   0  0  0  0  0  0  0  0  0  0  0  0
   59.2710   33.4400   50.0500 C   0  0  0  0  0  0  0  0  0  0  0  0
   58.9720   33.0980   51.3720 C   0  0  0  0  0  0  0  0  0  0  0  0
   59.9750   33.1130   52.3430 C   0  0  0  0  0  0  0  0  0  0  0  0
   61.2800   33.4590   51.9910 C   0  0  0  0  0  0  0  0  0  0  0  0
   61.5860   33.8000   50.6700 C   0  0  0  0  0  0  0  0  0  0  0  0
   58.1895   33.9917   43.3945 H   0  0  0  0  0  0  0  0  0  0  0  0
   57.3093   33.2902   44.9317 H   0  0  0  0  0  0  0  0  0  0  0  0
   59.7024   35.2372   44.8206 H   0  0  0  0  0  0  0  0  0  0  0  0
   58.9734   35.5431   47.1948 H   0  0  0  0  0  0  0  0  0  0  0  0
   57.8221   34.1604   47.0426 H   0  0  0  0  0  0  0  0  0  0  0  0
   57.7463   32.0535   46.5268 H   0  0  0  0  0  0  0  0  0  0  0  0
   56.7730   28.2450   43.0490 H   0  0  0  0  0  0  0  0  0  0  0  0
   58.0330   29.3480   42.9630 H   0  0  0  0  0  0  0  0  0  0  0  0
   60.0595   28.4296   46.0311 H   0  0  0  0  0  0  0  0  0  0  0  0
   62.1164   29.6379   46.7446 H   0  0  0  0  0  0  0  0  0  0  0  0
   60.8947   35.2413   48.1307 H   0  0  0  0  0  0  0  0  0  0  0  0
   58.4781   33.4135   49.2880 H   0  0  0  0  0  0  0  0  0  0  0  0
   57.9449   32.8166   51.6476 H   0  0  0  0  0  0  0  0  0  0  0  0
   59.7366   32.8522   53.3847 H   0  0  0  0  0  0  0  0  0  0  0  0
   62.0709   33.4635   52.7555 H   0  0  0  0  0  0  0  0  0  0  0  0
   62.6205   34.0560   50.3976 H   0  0  0  0  0  0  0  0  0  0  0  0
  1  2  2  0
  2  3  1  0
  3  4  1  0
  4  5  1  0
  5  6  2  0
  6  7  1  0
  7  8  1  0
  8  9  1  0
  9 10  1  0
  9 11  2  0
  9 12  2  0
  7 13  2  0
 13 14  1  0
 14 15  2  0
 15 16  1  0
 16 17  2  0
 16 18  1  0
 18 19  1  0
 19 20  1  0
 20 21  2  0
 21 22  1  0
 22 23  2  0
 23 24  1  0
 24 25  2  0
 19  4  1  0
 25 20  1  0
 15  5  1  0
  1 26  1  0
  1 27  1  0
  2 28  1  0
  3 29  1  0
  3 30  1  0
  6 31  1  0
 10 32  1  0
 10 33  1  0
 13 34  1  0
 14 35  1  0
 19 36  1  1
 21 37  1  0
 22 38  1  0
 23 39  1  0
 24 40  1  0
 25 41  1  0
M  CHG  1   8  -1
M  END
>  <UniqueID>  (74) 
71

>  <SMILES>  (74) 
C=CCN1c2cc([N-]S(N)(=O)=O)ccc2C(=O)O[C@@H]1c1ccccc1

>  <Energy>  (74) 
45.15250498964681

>  <Genealogy>  (74) 
C=CCN1c2cc([N-]S(N)(=O)=O)ccc2C(=O)OC1c1ccccc1 (protonated)
C=CCN1c2cc([N-]S(N)(=O)=O)ccc2C(=O)O[C@@H]1c1ccccc1 (chirality)
C=CCN1c2cc([N-]S(N)(=O)=O)ccc2C(=O)O[C@@H]1c1ccccc1 (3D coordinates assigned)
C=CCN1c2cc([N-]S(N)(=O)=O)ccc2C(=O)O[C@@H]1c1ccccc1 (nonaromatic ring conformer: 45.15250498964681 kcal/mol)

>  <smiles>  (74) 
C=CCN1c2cc(NS(N)(=O)=O)ccc2C(=O)OC1c1ccccc1

>  <score_type>  (74) 
oracle

>  <origin>  (74) 
adg

>  <m_score__min__energy>  (74) 
-10.050000000000001

>  <m_primary>  (74) 
energy

$$$$
74:0
     RDKit          3D

 46 50  0  0  0  0  0  0  0  0999 V2000
   60.8687   28.2401   49.6512 H   0  0  0  0  0  0  0  0  0  0  0  0
   60.5190   29.1120   49.0790 C   0  0  0  0  0  0  0  0  0  0  0  0
   59.9710   28.9420   47.8520 N   0  0  0  0  0  0  0  0  0  0  0  0
   59.5120   29.9800   47.0970 C   0  0  0  0  0  0  0  0  0  0  0  0
   58.9540   29.7580   45.8100 C   0  0  0  0  0  0  0  0  0  0  0  0
   58.7750   28.5740   45.2840 N   0  0  0  0  0  0  0  0  0  0  0  0
   58.0260   27.4640   45.7970 C   0  0  0  0  0  0  0  0  0  0  0  0
   58.6580   26.4620   46.5480 C   0  0  0  0  0  0  0  0  0  0  0  0
   59.7439   26.5069   46.7179 H   0  0  0  0  0  0  0  0  0  0  0  0
   57.9130   25.4070   47.0810 C   0  0  0  0  0  0  0  0  0  0  0  0
   58.4188   24.6091   47.6445 H   0  0  0  0  0  0  0  0  0  0  0  0
   56.5190   25.3610   46.9000 C   0  0  0  0  0  0  0  0  0  0  0  0
   55.7240   24.2780   47.4070 N   0  0  0  0  0  0  0  0  0  0  0  0
   56.2080   23.0300   47.9250 C   0  0  0  0  0  0  0  0  0  0  0  0
   57.2780   22.5380   47.4730 O   0  0  0  0  0  0  0  0  0  0  0  0
   55.4870   22.3390   49.0260 C   0  0  0  0  0  0  0  0  0  0  0  0
   54.0810   22.4100   49.0930 C   0  0  0  0  0  0  0  0  0  0  0  0
   53.5274   22.9748   48.3285 H   0  0  0  0  0  0  0  0  0  0  0  0
   53.3830   21.7700   50.1210 C   0  0  0  0  0  0  0  0  0  0  0  0
   52.2854   21.8317   50.1607 H   0  0  0  0  0  0  0  0  0  0  0  0
   54.0760   21.0530   51.0970 C   0  0  0  0  0  0  0  0  0  0  0  0
   53.5250   20.5503   51.9055 H   0  0  0  0  0  0  0  0  0  0  0  0
   55.4680   20.9740   51.0470 C   0  0  0  0  0  0  0  0  0  0  0  0
   56.0114   20.4074   51.8175 H   0  0  0  0  0  0  0  0  0  0  0  0
   56.1770   21.6110   50.0230 C   0  0  0  0  0  0  0  0  0  0  0  0
   57.5310   21.5110   50.0180 F   0  0  0  0  0  0  0  0  0  0  0  0
   55.8900   26.3720   46.1560 C   0  0  0  0  0  0  0  0  0  0  0  0
   54.5150   26.3360   45.9500 O   0  0  0  0  0  0  0  0  0  0  0  0
   56.6390   27.4270   45.6250 C   0  0  0  0  0  0  0  0  0  0  0  0
   56.1345   28.2313   45.0695 H   0  0  0  0  0  0  0  0  0  0  0  0
   58.6020   30.8280   45.0560 N   0  0  0  0  0  0  0  0  0  0  0  0
   58.7150   32.1100   45.4810 C   0  0  0  0  0  0  0  0  0  0  0  0
   58.3120   33.1430   44.6270 C   0  0  0  0  0  0  0  0  0  0  0  0
   57.9206   32.9049   43.6269 H   0  0  0  0  0  0  0  0  0  0  0  0
   58.4040   34.4710   45.0370 C   0  0  0  0  0  0  0  0  0  0  0  0
   58.0873   35.2791   44.3612 H   0  0  0  0  0  0  0  0  0  0  0  0
   58.8980   34.7750   46.3050 C   0  0  0  0  0  0  0  0  0  0  0  0
   58.9667   35.8242   46.6281 H   0  0  0  0  0  0  0  0  0  0  0  0
   59.3060   33.7550   47.1670 C   0  0  0  0  0  0  0  0  0  0  0  0
   59.6941   34.0078   48.1648 H   0  0  0  0  0  0  0  0  0  0  0  0
   59.2250   32.3980   46.7690 C   0  0  0  0  0  0  0  0  0  0  0  0
   59.6400   31.3110   47.5880 C   0  0  0  0  0  0  0  0  0  0  0  0
   60.2050   31.4860   48.8740 C   0  0  0  0  0  0  0  0  0  0  0  0
   60.3024   32.4983   49.2931 H   0  0  0  0  0  0  0  0  0  0  0  0
   60.6390   30.3880   49.6140 C   0  0  0  0  0  0  0  0  0  0  0  0
   61.0734   30.5308   50.6144 H   0  0  0  0  0  0  0  0  0  0  0  0
  1  2  1  0
  2  3  2  0
  3  4  1  0
  4  5  1  0
  5  6  2  0
  6  7  1  0
  7  8  2  0
  8  9  1  0
  8 10  1  0
 10 11  1  0
 10 12  2  0
 12 13  1  0
 13 14  1  0
 14 15  2  0
 14 16  1  0
 16 17  2  0
 17 18  1  0
 17 19  1  0
 19 20  1  0
 19 21  2  0
 21 22  1  0
 21 23  1  0
 23 24  1  0
 23 25  2  0
 25 26  1  0
 12 27  1  0
 27 28  1  0
 27 29  2  0
 29 30  1  0
  5 31  1  0
 31 32  1  0
 32 33  2  0
 33 34  1  0
 33 35  1  0
 35 36  1  0
 35 37  2  0
 37 38  1  0
 37 39  1  0
 39 40  1  0
 39 41  2  0
 41 42  1  0
 42 43  1  0
 43 44  1  0
 43 45  2  0
 45 46  1  0
 45  2  1  0
 42  4  2  0
 29  7  1  0
 41 32  1  0
 25 16  1  0
M  CHG  3  13  -1  28  -1  31  -1
M  END
>  <UniqueID>  (75) 
72

>  <SMILES>  (75) 
O=C([N-]c1ccc(/N=c2/[n-]c3ccccc3c3cccnc23)cc1[O-])c1ccccc1F

>  <Energy>  (75) 
84.44578396687977

>  <Genealogy>  (75) 
O=C([N-]c1ccc(N=c2[n-]c3ccccc3c3cccnc23)cc1[O-])c1ccccc1F (protonated)
O=C([N-]c1ccc(/N=c2/[n-]c3ccccc3c3cccnc23)cc1[O-])c1ccccc1F (cis-trans isomerization)
O=C([N-]c1ccc(/N=c2/[n-]c3ccccc3c3cccnc23)cc1[O-])c1ccccc1F (3D coordinates assigned)
O=C([N-]c1ccc(/N=c2/[n-]c3ccccc3c3cccnc23)cc1[O-])c1ccccc1F (optimized conformer: 84.44578396687977 kcal/mol)

>  <smiles>  (75) 
O=C(Nc1ccc(N=c2[nH]c3ccccc3c3cccnc23)cc1O)c1ccccc1F

>  <score_type>  (75) 
oracle

>  <origin>  (75) 
adg

>  <m_score__min__energy>  (75) 
-16.530000000000001

>  <m_primary>  (75) 
energy

$$$$
75:0
     RDKit          3D

 68 72  0  0  0  0  0  0  0  0999 V2000
   61.1630   26.9120   47.9840 O   0  0  0  0  0  0  0  0  0  0  0  0
   60.5510   27.2980   49.0170 C   0  0  0  0  0  0  0  0  0  0  0  0
   59.9760   28.6780   49.0680 C   0  0  0  0  0  0  0  0  0  0  0  0
   59.1460   28.9470   47.8400 C   0  0  0  0  0  0  0  0  0  0  0  0
   58.5140   27.8860   47.1740 C   0  0  0  0  0  0  0  0  0  0  0  0
   57.7480   28.1340   46.0290 C   0  0  0  0  0  0  0  0  0  0  0  0
   57.6060   29.4340   45.5400 C   0  0  0  0  0  0  0  0  0  0  0  0
   56.6280   29.7070   44.1070 Cl  0  0  0  0  0  0  0  0  0  0  0  0
   58.2570   30.4990   46.1890 C   0  0  0  0  0  0  0  0  0  0  0  0
   58.1140   32.1490   45.6040 Cl  0  0  0  0  0  0  0  0  0  0  0  0
   59.0130   30.2540   47.3400 C   0  0  0  0  0  0  0  0  0  0  0  0
   60.4520   26.4430   50.1600 N   0  0  0  0  0  0  0  0  0  0  0  0
   61.3460   26.5030   51.2800 C   0  0  0  0  0  0  0  0  0  0  0  0
   62.4850   25.6890   51.2600 C   0  0  0  0  0  0  0  0  0  0  0  0
   63.3720   25.6820   52.3340 C   0  0  0  0  0  0  0  0  0  0  0  0
   63.1410   26.5020   53.4390 C   0  0  0  0  0  0  0  0  0  0  0  0
   62.0320   27.3590   53.4660 C   0  0  0  0  0  0  0  0  0  0  0  0
   61.1340   27.3850   52.3710 C   0  0  0  0  0  0  0  0  0  0  0  0
   59.9530   28.3370   52.3910 C   0  0  0  0  0  0  0  0  0  0  0  0
   60.2110   29.5100   53.2520 N   0  0  1  0  0  0  0  0  0  0  0  0
   59.1190   30.5240   53.1930 C   0  0  0  0  0  0  0  0  0  0  0  0
   57.7050   30.0290   52.7640 C   0  0  2  0  0  0  0  0  0  0  0  0
   57.0490   30.9140   51.6690 C   0  0  0  0  0  0  0  0  0  0  0  0
   55.5080   30.8160   51.6260 C   0  0  0  0  0  0  0  0  0  0  0  0
   55.0100   29.4770   52.1930 C   0  0  2  0  0  0  0  0  0  0  0  0
   53.5540   29.3570   52.0370 N   0  0  0  0  0  0  0  0  0  0  0  0
   52.6540   30.4800   51.9270 C   0  0  0  0  0  0  0  0  0  0  0  0
   52.1680   31.1720   53.0540 C   0  0  0  0  0  0  0  0  0  0  0  0
   51.2990   32.2490   52.8840 C   0  0  0  0  0  0  0  0  0  0  0  0
   50.9150   32.6240   51.6360 N   0  0  0  0  0  0  0  0  0  0  0  0
   51.3630   31.9790   50.5270 C   0  0  0  0  0  0  0  0  0  0  0  0
   50.9860   32.3590   49.3860 O   0  0  0  0  0  0  0  0  0  0  0  0
   52.2400   30.8980   50.6510 C   0  0  0  0  0  0  0  0  0  0  0  0
   55.3980   29.3680   53.6870 C   0  0  0  0  0  0  0  0  0  0  0  0
   56.7870   29.9640   54.0040 C   0  0  0  0  0  0  0  0  0  0  0  0
   60.5640   29.0770   54.6210 C   0  0  0  0  0  0  0  0  0  0  0  0
   61.8950   28.3130   54.6290 C   0  0  0  0  0  0  0  0  0  0  0  0
   59.3422   28.7737   49.9619 H   0  0  0  0  0  0  0  0  0  0  0  0
   60.7994   29.4063   49.1086 H   0  0  0  0  0  0  0  0  0  0  0  0
   58.6206   26.8585   47.5520 H   0  0  0  0  0  0  0  0  0  0  0  0
   57.2544   27.2987   45.5107 H   0  0  0  0  0  0  0  0  0  0  0  0
   59.5068   31.0897   47.8574 H   0  0  0  0  0  0  0  0  0  0  0  0
   62.6814   25.0486   50.3874 H   0  0  0  0  0  0  0  0  0  0  0  0
   64.2566   25.0285   52.3109 H   0  0  0  0  0  0  0  0  0  0  0  0
   63.8330   26.4758   54.2937 H   0  0  0  0  0  0  0  0  0  0  0  0
   59.7572   28.6836   51.3656 H   0  0  0  0  0  0  0  0  0  0  0  0
   59.0847   27.7977   52.7974 H   0  0  0  0  0  0  0  0  0  0  0  0
   61.0560   29.9900   52.8520 H   0  0  0  0  0  0  0  0  0  0  0  0
   59.0240   30.9657   54.1959 H   0  0  0  0  0  0  0  0  0  0  0  0
   59.4255   31.2226   52.4006 H   0  0  0  0  0  0  0  0  0  0  0  0
   57.8344   29.0297   52.3227 H   0  0  0  0  0  0  0  0  0  0  0  0
   57.4434   30.6034   50.6902 H   0  0  0  0  0  0  0  0  0  0  0  0
   57.2962   31.9581   51.9115 H   0  0  0  0  0  0  0  0  0  0  0  0
   55.1735   30.9081   50.5822 H   0  0  0  0  0  0  0  0  0  0  0  0
   55.0944   31.6264   52.2442 H   0  0  0  0  0  0  0  0  0  0  0  0
   55.4846   28.6572   51.6339 H   0  0  0  0  0  0  0  0  0  0  0  0
   53.1410   28.3940   52.0130 H   0  0  0  0  0  0  0  0  0  0  0  0
   52.4732   30.8635   54.0648 H   0  0  0  0  0  0  0  0  0  0  0  0
   50.9238   32.7958   53.7616 H   0  0  0  0  0  0  0  0  0  0  0  0
   52.6046   30.3767   49.7536 H   0  0  0  0  0  0  0  0  0  0  0  0
   55.4017   28.3050   53.9698 H   0  0  0  0  0  0  0  0  0  0  0  0
   54.6576   29.9471   54.2583 H   0  0  0  0  0  0  0  0  0  0  0  0
   57.2719   29.3391   54.7684 H   0  0  0  0  0  0  0  0  0  0  0  0
   56.6335   30.9941   54.3580 H   0  0  0  0  0  0  0  0  0  0  0  0
   60.6536   29.9629   55.2668 H   0  0  0  0  0  0  0  0  0  0  0  0
   59.7734   28.4084   54.9924 H   0  0  0  0  0  0  0  0  0  0  0  0
   62.7181   29.0414   54.5843 H   0  0  0  0  0  0  0  0  0  0  0  0
   61.9270   27.7153   55.5519 H   0  0  0  0  0  0  0  0  0  0  0  0
  1  2  2  0
  2  3  1  0
  3  4  1  0
  4  5  2  0
  5  6  1  0
  6  7  2  0
  7  8  1  0
  7  9  1  0
  9 10  1  0
  9 11  2  0
  2 12  1  0
 12 13  1  0
 13 14  2  0
 14 15  1  0
 15 16  2  0
 16 17  1  0
 17 18  2  0
 18 19  1  0
 19 20  1  0
 20 21  1  0
 21 22  1  0
 22 23  1  0
 23 24  1  0
 24 25  1  0
 25 26  1  0
 26 27  1  0
 27 28  1  0
 28 29  2  0
 29 30  1  0
 30 31  1  0
 31 32  2  0
 31 33  1  0
 25 34  1  0
 34 35  1  0
 20 36  1  0
 36 37  1  0
 11  4  1  0
 18 13  1  0
 35 22  1  0
 37 17  1  0
 33 27  2  0
  3 38  1  0
  3 39  1  0
  5 40  1  0
  6 41  1  0
 11 42  1  0
 14 43  1  0
 15 44  1  0
 16 45  1  0
 19 46  1  0
 19 47  1  0
 20 48  1  6
 21 49  1  0
 21 50  1  0
 22 51  1  6
 23 52  1  0
 23 53  1  0
 24 54  1  0
 24 55  1  0
 25 56  1  6
 26 57  1  0
 28 58  1  0
 29 59  1  0
 33 60  1  0
 34 61  1  0
 34 62  1  0
 35 63  1  0
 35 64  1  0
 36 65  1  0
 36 66  1  0
 37 67  1  0
 37 68  1  0
M  CHG  3  12  -1  20   1  30  -1
M  END
>  <UniqueID>  (76) 
73

>  <SMILES>  (76) 
O=C(Cc1ccc(Cl)c(Cl)c1)[N-]c1cccc2c1C[N@@H+](CC1CCC(Nc3cc[n-]c(=O)c3)CC1)CC2

>  <Energy>  (76) 
94.18046039236869

>  <Genealogy>  (76) 
O=C(Cc1ccc(Cl)c(Cl)c1)[N-]c1cccc2c1C[NH+](CC1CCC(Nc3cc[n-]c(=O)c3)CC1)CC2 (protonated)
O=C(Cc1ccc(Cl)c(Cl)c1)[N-]c1cccc2c1C[N@@H+](CC1CCC(Nc3cc[n-]c(=O)c3)CC1)CC2 (chirality)
O=C(Cc1ccc(Cl)c(Cl)c1)[N-]c1cccc2c1C[N@@H+](CC1CCC(Nc3cc[n-]c(=O)c3)CC1)CC2 (3D coordinates assigned)
O=C(Cc1ccc(Cl)c(Cl)c1)[N-]c1cccc2c1C[N@@H+](CC1CCC(Nc3cc[n-]c(=O)c3)CC1)CC2 (nonaromatic ring conformer: 94.18046039236869 kcal/mol)

>  <smiles>  (76) 
O=C(Cc1ccc(Cl)c(Cl)c1)Nc1cccc2c1CN(CC1CCC(Nc3cc[nH]c(=O)c3)CC1)CC2

>  <score_type>  (76) 
oracle

>  <origin>  (76) 
adg

>  <m_score__min__energy>  (76) 
-13.960000000000001

>  <m_primary>  (76) 
energy

$$$$
76:0
     RDKit          3D

 63 66  0  0  0  0  0  0  0  0999 V2000
   57.0070   21.0240   42.6340 C   0  0  0  0  0  0  0  0  0  0  0  0
   56.0820   21.9770   43.1470 O   0  0  0  0  0  0  0  0  0  0  0  0
   56.3730   22.8920   44.1690 C   0  0  0  0  0  0  0  0  0  0  0  0
   55.3700   23.6070   44.8500 C   0  0  0  0  0  0  0  0  0  0  0  0
   55.7100   24.4980   45.8720 C   0  0  0  0  0  0  0  0  0  0  0  0
   57.0520   24.6780   46.2410 C   0  0  0  0  0  0  0  0  0  0  0  0
   57.4190   25.6520   47.3320 C   0  0  0  0  0  0  0  0  0  0  0  0
   57.7730   26.9740   46.7790 N   0  0  0  0  0  0  0  0  0  0  0  0
   56.9570   27.3960   45.6150 C   0  0  0  0  0  0  0  0  0  0  0  0
   57.2480   28.7980   45.1180 C   0  0  0  0  0  0  0  0  0  0  0  0
   57.7170   29.7880   45.9970 C   0  0  0  0  0  0  0  0  0  0  0  0
   57.9770   31.0810   45.5350 C   0  0  0  0  0  0  0  0  0  0  0  0
   57.7650   31.4080   44.1870 C   0  0  0  0  0  0  0  0  0  0  0  0
   58.0120   32.7760   43.6930 C   0  0  0  0  0  0  0  0  0  0  0  0
   58.3620   32.9390   42.4950 O   0  0  0  0  0  0  0  0  0  0  0  0
   57.9070   33.9260   44.5430 N   0  0  0  0  0  0  0  0  0  0  0  0
   59.0090   34.8170   44.8810 C   0  0  0  0  0  0  0  0  0  0  0  0
   59.5760   34.4190   46.2130 C   0  0  0  0  0  0  0  0  0  0  0  0
   60.9550   34.2000   46.3660 C   0  0  0  0  0  0  0  0  0  0  0  0
   61.4720   33.8010   47.6020 C   0  0  0  0  0  0  0  0  0  0  0  0
   60.6160   33.6050   48.6890 C   0  0  0  0  0  0  0  0  0  0  0  0
   59.2410   33.8070   48.5410 C   0  0  0  0  0  0  0  0  0  0  0  0
   58.7210   34.2100   47.3080 C   0  0  0  0  0  0  0  0  0  0  0  0
   57.2500   30.4360   43.3190 C   0  0  0  0  0  0  0  0  0  0  0  0
   56.9930   29.1410   43.7800 C   0  0  0  0  0  0  0  0  0  0  0  0
   59.4920   27.0710   46.4700 S   0  0  0  0  0  0  0  0  0  0  0  0
   59.7480   27.4580   45.0400 O   0  0  0  0  0  0  0  0  0  0  0  0
   60.1360   25.7410   46.7520 O   0  0  0  0  0  0  0  0  0  0  0  0
   60.1910   28.3040   47.5130 C   0  0  0  0  0  0  0  0  0  0  0  0
   60.2570   28.1160   48.9020 C   0  0  0  0  0  0  0  0  0  0  0  0
   60.8050   29.1100   49.7200 C   0  0  0  0  0  0  0  0  0  0  0  0
   61.2940   30.2910   49.1540 C   0  0  0  0  0  0  0  0  0  0  0  0
   61.8260   31.2530   49.9480 F   0  0  0  0  0  0  0  0  0  0  0  0
   61.2340   30.4810   47.7700 C   0  0  0  0  0  0  0  0  0  0  0  0
   60.6860   29.4900   46.9510 C   0  0  0  0  0  0  0  0  0  0  0  0
   58.0540   23.9890   45.5370 C   0  0  0  0  0  0  0  0  0  0  0  0
   57.7130   23.0950   44.5190 C   0  0  0  0  0  0  0  0  0  0  0  0
   57.5055   20.5104   43.4693 H   0  0  0  0  0  0  0  0  0  0  0  0
   56.4706   20.2871   42.0182 H   0  0  0  0  0  0  0  0  0  0  0  0
   57.7596   21.5382   42.0182 H   0  0  0  0  0  0  0  0  0  0  0  0
   54.3141   23.4640   44.5768 H   0  0  0  0  0  0  0  0  0  0  0  0
   54.9205   25.0618   46.3904 H   0  0  0  0  0  0  0  0  0  0  0  0
   56.5621   25.7667   48.0121 H   0  0  0  0  0  0  0  0  0  0  0  0
   58.2940   25.2563   47.8685 H   0  0  0  0  0  0  0  0  0  0  0  0
   57.1458   26.6931   44.7902 H   0  0  0  0  0  0  0  0  0  0  0  0
   55.9094   27.3944   45.9505 H   0  0  0  0  0  0  0  0  0  0  0  0
   57.8809   29.5438   47.0570 H   0  0  0  0  0  0  0  0  0  0  0  0
   58.3498   31.8463   46.2316 H   0  0  0  0  0  0  0  0  0  0  0  0
   59.7913   34.7427   44.1113 H   0  0  0  0  0  0  0  0  0  0  0  0
   58.6440   35.8535   44.9299 H   0  0  0  0  0  0  0  0  0  0  0  0
   61.6307   34.3430   45.5099 H   0  0  0  0  0  0  0  0  0  0  0  0
   62.5540   33.6411   47.7191 H   0  0  0  0  0  0  0  0  0  0  0  0
   61.0244   33.2917   49.6612 H   0  0  0  0  0  0  0  0  0  0  0  0
   58.5673   33.6486   49.3960 H   0  0  0  0  0  0  0  0  0  0  0  0
   57.6378   34.3642   47.1944 H   0  0  0  0  0  0  0  0  0  0  0  0
   57.0467   30.6931   42.2690 H   0  0  0  0  0  0  0  0  0  0  0  0
   56.5884   28.3858   43.0901 H   0  0  0  0  0  0  0  0  0  0  0  0
   59.8771   27.1853   49.3486 H   0  0  0  0  0  0  0  0  0  0  0  0
   60.8511   28.9621   50.8090 H   0  0  0  0  0  0  0  0  0  0  0  0
   61.6183   31.4110   47.3256 H   0  0  0  0  0  0  0  0  0  0  0  0
   60.6427   29.6406   45.8622 H   0  0  0  0  0  0  0  0  0  0  0  0
   59.1120   24.1543   45.7886 H   0  0  0  0  0  0  0  0  0  0  0  0
   58.5044   22.5459   43.9879 H   0  0  0  0  0  0  0  0  0  0  0  0
  1  2  1  0
  2  3  1  0
  3  4  2  0
  4  5  1  0
  5  6  2  0
  6  7  1  0
  7  8  1  0
  8  9  1  0
  9 10  1  0
 10 11  2  0
 11 12  1  0
 12 13  2  0
 13 14  1  0
 14 15  2  0
 14 16  1  0
 16 17  1  0
 17 18  1  0
 18 19  2  0
 19 20  1  0
 20 21  2  0
 21 22  1  0
 22 23  2  0
 13 24  1  0
 24 25  2  0
  8 26  1  0
 26 27  2  0
 26 28  2  0
 26 29  1  0
 29 30  2  0
 30 31  1  0
 31 32  2  0
 32 33  1  0
 32 34  1  0
 34 35  2  0
  6 36  1  0
 36 37  2  0
 37  3  1  0
 25 10  1  0
 35 29  1  0
 23 18  1  0
  1 38  1  0
  1 39  1  0
  1 40  1  0
  4 41  1  0
  5 42  1  0
  7 43  1  0
  7 44  1  0
  9 45  1  0
  9 46  1  0
 11 47  1  0
 12 48  1  0
 17 49  1  0
 17 50  1  0
 19 51  1  0
 20 52  1  0
 21 53  1  0
 22 54  1  0
 23 55  1  0
 24 56  1  0
 25 57  1  0
 30 58  1  0
 31 59  1  0
 34 60  1  0
 35 61  1  0
 36 62  1  0
 37 63  1  0
M  CHG  1  16  -1
M  END
>  <UniqueID>  (77) 
74

>  <SMILES>  (77) 
COc1ccc(CN(Cc2ccc(C(=O)[N-]Cc3ccccc3)cc2)S(=O)(=O)c2ccc(F)cc2)cc1

>  <Energy>  (77) 
72.31436720800501

>  <Genealogy>  (77) 
COc1ccc(CN(Cc2ccc(C(=O)[N-]Cc3ccccc3)cc2)S(=O)(=O)c2ccc(F)cc2)cc1 (protonated)
COc1ccc(CN(Cc2ccc(C(=O)[N-]Cc3ccccc3)cc2)S(=O)(=O)c2ccc(F)cc2)cc1 (3D coordinates assigned)
COc1ccc(CN(Cc2ccc(C(=O)[N-]Cc3ccccc3)cc2)S(=O)(=O)c2ccc(F)cc2)cc1 (optimized conformer: 72.31436720800501 kcal/mol)

>  <smiles>  (77) 
COc1ccc(CN(Cc2ccc(C(=O)NCc3ccccc3)cc2)S(=O)(=O)c2ccc(F)cc2)cc1

>  <score_type>  (77) 
oracle

>  <origin>  (77) 
adg

>  <m_score__min__energy>  (77) 
-11.029999999999999

>  <m_primary>  (77) 
energy

$$$$
77:0
     RDKit          3D

 55 57  0  0  0  0  0  0  0  0999 V2000
   60.2962   28.9894   51.7589 H   0  0  0  0  0  0  0  0  0  0  0  0
   60.0490   29.6280   50.8980 C   0  0  0  0  0  0  0  0  0  0  0  0
   60.7580   29.4930   49.7020 C   0  0  0  0  0  0  0  0  0  0  0  0
   61.5672   28.7519   49.6241 H   0  0  0  0  0  0  0  0  0  0  0  0
   60.4410   30.2980   48.6040 C   0  0  0  0  0  0  0  0  0  0  0  0
   61.0080   30.1944   47.6671 H   0  0  0  0  0  0  0  0  0  0  0  0
   59.4000   31.2400   48.6920 C   0  0  0  0  0  0  0  0  0  0  0  0
   59.0550   32.0960   47.5290 C   0  0  0  0  0  0  0  0  0  0  0  0
   59.5890   33.3970   47.3640 C   0  0  0  0  0  0  0  0  0  0  0  0
   60.6030   33.9300   48.3060 C   0  0  0  0  0  0  0  0  0  0  0  0
   60.2120   34.5470   49.3350 O   0  0  0  0  0  0  0  0  0  0  0  0
   62.0150   33.7370   48.0840 N   0  0  0  0  0  0  0  0  0  0  0  0
   62.9300   33.7680   49.2250 C   0  0  0  0  0  0  0  0  0  0  0  0
   62.3509   33.7484   50.1600 H   0  0  0  0  0  0  0  0  0  0  0  0
   63.5940   32.8918   49.1865 H   0  0  0  0  0  0  0  0  0  0  0  0
   63.5331   34.6871   49.1865 H   0  0  0  0  0  0  0  0  0  0  0  0
   62.5550   33.4720   46.7460 C   0  0  0  0  0  0  0  0  0  0  0  0
   63.5391   32.9890   46.8368 H   0  0  0  0  0  0  0  0  0  0  0  0
   61.8697   32.8078   46.1989 H   0  0  0  0  0  0  0  0  0  0  0  0
   62.6611   34.4204   46.1989 H   0  0  0  0  0  0  0  0  0  0  0  0
   59.1680   34.1680   46.2570 C   0  0  0  0  0  0  0  0  0  0  0  0
   59.6920   35.5520   46.0070 C   0  0  0  0  0  0  0  0  0  0  0  0
   59.8812   36.0517   46.9685 H   0  0  0  0  0  0  0  0  0  0  0  0
   60.6294   35.4913   45.4346 H   0  0  0  0  0  0  0  0  0  0  0  0
   58.9495   36.1274   45.4346 H   0  0  0  0  0  0  0  0  0  0  0  0
   58.2720   33.6490   45.3750 N   0  0  0  0  0  0  0  0  0  0  0  0
   57.7580   32.3970   45.5030 C   0  0  0  0  0  0  0  0  0  0  0  0
   56.9020   31.9250   44.6430 N   0  0  0  0  0  0  0  0  0  0  0  0
   57.1960   31.2410   43.4130 C   0  0  0  0  0  0  0  0  0  0  0  0
   57.3690   31.8800   42.3410 O   0  0  0  0  0  0  0  0  0  0  0  0
   57.3610   29.8190   43.3990 N   0  0  0  0  0  0  0  0  0  0  0  0
   58.0710   29.0390   44.3720 C   0  0  0  0  0  0  0  0  0  0  0  0
   59.4050   29.3170   44.7170 C   0  0  0  0  0  0  0  0  0  0  0  0
   59.9355   30.1489   44.2308 H   0  0  0  0  0  0  0  0  0  0  0  0
   60.0580   28.5400   45.6750 C   0  0  0  0  0  0  0  0  0  0  0  0
   61.1087   28.7478   45.9256 H   0  0  0  0  0  0  0  0  0  0  0  0
   59.3820   27.4990   46.3170 C   0  0  0  0  0  0  0  0  0  0  0  0
   59.9077   26.8770   47.0565 H   0  0  0  0  0  0  0  0  0  0  0  0
   58.0320   27.2450   46.0200 C   0  0  0  0  0  0  0  0  0  0  0  0
   57.3040   26.1790   46.6470 N   0  0  0  0  0  0  0  0  0  0  0  0
   55.9480   25.8090   46.3800 C   0  0  0  0  0  0  0  0  0  0  0  0
   55.1360   26.6900   45.9930 O   0  0  0  0  0  0  0  0  0  0  0  0
   55.4970   24.4690   46.6060 N   0  0  0  0  0  0  0  0  0  0  0  0
   56.2230   23.5230   47.4410 C   0  0  0  0  0  0  0  0  0  0  0  0
   56.0437   23.7566   48.5008 H   0  0  0  0  0  0  0  0  0  0  0  0
   55.8744   22.5020   47.2266 H   0  0  0  0  0  0  0  0  0  0  0  0
   57.2994   23.5956   47.2266 H   0  0  0  0  0  0  0  0  0  0  0  0
   57.3910   28.0110   45.0380 C   0  0  0  0  0  0  0  0  0  0  0  0
   56.3405   27.8028   44.7866 H   0  0  0  0  0  0  0  0  0  0  0  0
   58.1460   31.6020   46.5820 C   0  0  0  0  0  0  0  0  0  0  0  0
   57.7383   30.5861   46.6901 H   0  0  0  0  0  0  0  0  0  0  0  0
   58.7050   31.3810   49.9050 C   0  0  0  0  0  0  0  0  0  0  0  0
   57.9043   32.1301   49.9929 H   0  0  0  0  0  0  0  0  0  0  0  0
   59.0260   30.5740   51.0010 C   0  0  0  0  0  0  0  0  0  0  0  0
   58.4725   30.6841   51.9452 H   0  0  0  0  0  0  0  0  0  0  0  0
  1  2  1  0
  2  3  2  0
  3  4  1  0
  3  5  1  0
  5  6  1  0
  5  7  2  0
  7  8  1  0
  8  9  1  0
  9 10  1  0
 10 11  2  0
 10 12  1  0
 12 13  1  0
 13 14  1  0
 13 15  1  0
 13 16  1  0
 12 17  1  0
 17 18  1  0
 17 19  1  0
 17 20  1  0
  9 21  2  0
 21 22  1  0
 22 23  1  0
 22 24  1  0
 22 25  1  0
 21 26  1  0
 26 27  1  0
 27 28  2  0
 28 29  1  0
 29 30  2  0
 29 31  1  0
 31 32  1  0
 32 33  2  0
 33 34  1  0
 33 35  1  0
 35 36  1  0
 35 37  2  0
 37 38  1  0
 37 39  1  0
 39 40  1  0
 40 41  1  0
 41 42  2  0
 41 43  1  0
 43 44  1  0
 44 45  1  0
 44 46  1  0
 44 47  1  0
 39 48  2  0
 48 49  1  0
 27 50  1  0
 50 51  1  0
  7 52  1  0
 52 53  1  0
 52 54  2  0
 54 55  1  0
 54  2  1  0
 50  8  2  0
 48 32  1  0
M  CHG  4  26  -1  31  -1  40  -1  43  -1
M  END
>  <UniqueID>  (78) 
75

>  <SMILES>  (78) 
C[N-]C(=O)[N-]c1cccc([N-]C(=O)/N=c2/cc(-c3ccccc3)c(C(=O)N(C)C)c(C)[n-]2)c1

>  <Energy>  (78) 
74.68587694054123

>  <Genealogy>  (78) 
C[N-]C(=O)[N-]c1cccc([N-]C(=O)N=c2cc(-c3ccccc3)c(C(=O)N(C)C)c(C)[n-]2)c1 (protonated)
C[N-]C(=O)[N-]c1cccc([N-]C(=O)/N=c2/cc(-c3ccccc3)c(C(=O)N(C)C)c(C)[n-]2)c1 (cis-trans isomerization)
C[N-]C(=O)[N-]c1cccc([N-]C(=O)/N=c2/cc(-c3ccccc3)c(C(=O)N(C)C)c(C)[n-]2)c1 (3D coordinates assigned)
C[N-]C(=O)[N-]c1cccc([N-]C(=O)/N=c2/cc(-c3ccccc3)c(C(=O)N(C)C)c(C)[n-]2)c1 (optimized conformer: 74.68587694054123 kcal/mol)

>  <smiles>  (78) 
CNC(=O)Nc1cccc(NC(=O)N=c2cc(-c3ccccc3)c(C(=O)N(C)C)c(C)[nH]2)c1

>  <score_type>  (78) 
oracle

>  <origin>  (78) 
adg

>  <m_score__min__energy>  (78) 
-16.609999999999999

>  <m_primary>  (78) 
energy

$$$$
78:0
     RDKit          3D

 63 66  0  0  0  0  0  0  0  0999 V2000
   57.4190   32.3450   41.1350 C   0  0  0  0  0  0  0  0  0  0  0  0
   58.1330   31.9700   42.4320 C   0  0  0  0  0  0  0  0  0  0  0  0
   57.9590   33.0290   43.5240 C   0  0  0  0  0  0  0  0  0  0  0  0
   58.1030   32.4580   44.8700 N   0  0  0  0  0  0  0  0  0  0  0  0
   58.7280   32.9700   45.9560 C   0  0  0  0  0  0  0  0  0  0  0  0
   59.4800   34.2700   46.0080 C   0  0  0  0  0  0  0  0  0  0  0  0
   60.6710   34.1350   46.9160 C   0  0  0  0  0  0  0  0  0  0  0  0
   60.5350   34.3070   48.3060 C   0  0  0  0  0  0  0  0  0  0  0  0
   61.6370   34.1230   49.1490 C   0  0  0  0  0  0  0  0  0  0  0  0
   62.8770   33.7660   48.6120 C   0  0  0  0  0  0  0  0  0  0  0  0
   63.0190   33.5870   47.2330 C   0  0  0  0  0  0  0  0  0  0  0  0
   61.9210   33.7680   46.3860 C   0  0  0  0  0  0  0  0  0  0  0  0
   58.5280   32.2020   47.0450 N   0  0  0  0  0  0  0  0  0  0  0  0
   57.7800   31.1760   46.6680 N   0  0  0  0  0  0  0  0  0  0  0  0
   57.5380   31.3300   45.3530 C   0  0  0  0  0  0  0  0  0  0  0  0
   56.6070   30.1470   44.3710 S   0  0  0  0  0  0  0  0  0  0  0  0
   57.9690   28.9440   44.1380 C   0  0  0  0  0  0  0  0  0  0  0  0
   57.8370   27.7210   44.9930 C   0  0  0  0  0  0  0  0  0  0  0  0
   57.4060   26.6480   44.4930 O   0  0  0  0  0  0  0  0  0  0  0  0
   58.2420   27.7880   46.3660 N   0  0  0  0  0  0  0  0  0  0  0  0
   59.2790   28.5890   46.9530 C   0  0  0  0  0  0  0  0  0  0  0  0
   60.0700   29.3710   46.1020 C   0  0  0  0  0  0  0  0  0  0  0  0
   61.0260   30.2440   46.6250 C   0  0  0  0  0  0  0  0  0  0  0  0
   61.1940   30.3510   48.0050 C   0  0  0  0  0  0  0  0  0  0  0  0
   60.4270   29.5620   48.8730 C   0  0  0  0  0  0  0  0  0  0  0  0
   60.6060   29.7420   50.6230 S   0  0  0  0  0  0  0  0  0  0  0  0
   59.9370   28.5780   51.2990 O   0  0  0  0  0  0  0  0  0  0  0  0
   62.0710   29.6810   50.9590 O   0  0  0  0  0  0  0  0  0  0  0  0
   59.9670   31.2560   51.2400 N   0  0  0  0  0  0  0  0  0  0  0  0
   59.3370   31.1260   52.5660 C   0  0  0  0  0  0  0  0  0  0  0  0
   57.9020   30.5590   52.4930 C   0  0  0  0  0  0  0  0  0  0  0  0
   57.4130   30.4630   51.1690 O   0  0  0  0  0  0  0  0  0  0  0  0
   57.6050   31.6880   50.5010 C   0  0  0  0  0  0  0  0  0  0  0  0
   59.1050   31.9540   50.2660 C   0  0  0  0  0  0  0  0  0  0  0  0
   59.4600   28.6900   48.3460 C   0  0  0  0  0  0  0  0  0  0  0  0
   56.4679   32.8445   41.3713 H   0  0  0  0  0  0  0  0  0  0  0  0
   58.0551   33.0254   40.5498 H   0  0  0  0  0  0  0  0  0  0  0  0
   57.2198   31.4351   40.5498 H   0  0  0  0  0  0  0  0  0  0  0  0
   57.7239   31.0163   42.7970 H   0  0  0  0  0  0  0  0  0  0  0  0
   59.2077   31.8908   42.2112 H   0  0  0  0  0  0  0  0  0  0  0  0
   58.7208   33.8104   43.3860 H   0  0  0  0  0  0  0  0  0  0  0  0
   56.9441   33.4442   43.4370 H   0  0  0  0  0  0  0  0  0  0  0  0
   59.8206   34.5353   44.9963 H   0  0  0  0  0  0  0  0  0  0  0  0
   58.8165   35.0575   46.3948 H   0  0  0  0  0  0  0  0  0  0  0  0
   59.5599   34.5868   48.7312 H   0  0  0  0  0  0  0  0  0  0  0  0
   61.5271   34.2595   50.2350 H   0  0  0  0  0  0  0  0  0  0  0  0
   63.7428   33.6256   49.2758 H   0  0  0  0  0  0  0  0  0  0  0  0
   63.9955   33.3034   46.8135 H   0  0  0  0  0  0  0  0  0  0  0  0
   62.0354   33.6229   45.3016 H   0  0  0  0  0  0  0  0  0  0  0  0
   57.9817   28.6320   43.0832 H   0  0  0  0  0  0  0  0  0  0  0  0
   58.9008   29.4478   44.4345 H   0  0  0  0  0  0  0  0  0  0  0  0
   59.9370   29.2968   45.0126 H   0  0  0  0  0  0  0  0  0  0  0  0
   61.6474   30.8481   45.9475 H   0  0  0  0  0  0  0  0  0  0  0  0
   61.9314   31.0574   48.4140 H   0  0  0  0  0  0  0  0  0  0  0  0
   59.9504   30.4521   53.1822 H   0  0  0  0  0  0  0  0  0  0  0  0
   59.2736   32.1334   53.0031 H   0  0  0  0  0  0  0  0  0  0  0  0
   57.8985   29.5547   52.9418 H   0  0  0  0  0  0  0  0  0  0  0  0
   57.2453   31.2538   53.0371 H   0  0  0  0  0  0  0  0  0  0  0  0
   57.0883   31.6544   49.5305 H   0  0  0  0  0  0  0  0  0  0  0  0
   57.1968   32.4973   51.1243 H   0  0  0  0  0  0  0  0  0  0  0  0
   59.3687   31.6121   49.2543 H   0  0  0  0  0  0  0  0  0  0  0  0
   59.2738   33.0342   50.3873 H   0  0  0  0  0  0  0  0  0  0  0  0
   58.8416   28.0836   49.0241 H   0  0  0  0  0  0  0  0  0  0  0  0
  1  2  1  0
  2  3  1  0
  3  4  1  0
  4  5  1  0
  5  6  1  0
  6  7  1  0
  7  8  2  0
  8  9  1  0
  9 10  2  0
 10 11  1  0
 11 12  2  0
  5 13  2  0
 13 14  1  0
 14 15  2  0
 15 16  1  0
 16 17  1  0
 17 18  1  0
 18 19  2  0
 18 20  1  0
 20 21  1  0
 21 22  2  0
 22 23  1  0
 23 24  2  0
 24 25  1  0
 25 26  1  0
 26 27  2  0
 26 28  2  0
 26 29  1  0
 29 30  1  0
 30 31  1  0
 31 32  1  0
 32 33  1  0
 33 34  1  0
 25 35  2  0
 15  4  1  0
 35 21  1  0
 12  7  1  0
 34 29  1  0
  1 36  1  0
  1 37  1  0
  1 38  1  0
  2 39  1  0
  2 40  1  0
  3 41  1  0
  3 42  1  0
  6 43  1  0
  6 44  1  0
  8 45  1  0
  9 46  1  0
 10 47  1  0
 11 48  1  0
 12 49  1  0
 17 50  1  0
 17 51  1  0
 22 52  1  0
 23 53  1  0
 24 54  1  0
 30 55  1  0
 30 56  1  0
 31 57  1  0
 31 58  1  0
 33 59  1  0
 33 60  1  0
 34 61  1  0
 34 62  1  0
 35 63  1  0
M  CHG  1  20  -1
M  END
>  <UniqueID>  (79) 
76

>  <SMILES>  (79) 
CCCn1c(Cc2ccccc2)nnc1SCC(=O)[N-]c1cccc(S(=O)(=O)N2CCOCC2)c1

>  <Energy>  (79) 
104.61790849236547

>  <Genealogy>  (79) 
CCCn1c(Cc2ccccc2)nnc1SCC(=O)[N-]c1cccc(S(=O)(=O)N2CCOCC2)c1 (protonated)
CCCn1c(Cc2ccccc2)nnc1SCC(=O)[N-]c1cccc(S(=O)(=O)N2CCOCC2)c1 (3D coordinates assigned)
CCCn1c(Cc2ccccc2)nnc1SCC(=O)[N-]c1cccc(S(=O)(=O)N2CCOCC2)c1 (nonaromatic ring conformer: 104.61790849236547 kcal/mol)

>  <smiles>  (79) 
CCCn1c(Cc2ccccc2)nnc1SCC(=O)Nc1cccc(S(=O)(=O)N2CCOCC2)c1

>  <score_type>  (79) 
oracle

>  <origin>  (79) 
adg

>  <m_score__min__energy>  (79) 
-12.039999999999999

>  <m_primary>  (79) 
energy

$$$$
79:0
     RDKit          3D

 53 56  0  0  0  0  0  0  0  0999 V2000
   63.9890   32.7020   48.9930 C   0  0  0  0  0  0  0  0  0  0  0  0
   62.9930   31.8590   49.5630 O   0  0  0  0  0  0  0  0  0  0  0  0
   62.0400   31.1460   48.8200 C   0  0  0  0  0  0  0  0  0  0  0  0
   61.0960   30.3790   49.5110 C   0  0  0  0  0  0  0  0  0  0  0  0
   60.1230   29.6550   48.8140 C   0  0  0  0  0  0  0  0  0  0  0  0
   60.0720   29.6980   47.4170 C   0  0  0  0  0  0  0  0  0  0  0  0
   59.0880   28.9490   46.7570 O   0  0  0  0  0  0  0  0  0  0  0  0
   58.2380   29.4210   45.7420 C   0  0  0  0  0  0  0  0  0  0  0  0
   58.4300   30.6960   45.1750 C   0  0  0  0  0  0  0  0  0  0  0  0
   57.5330   31.1990   44.2260 C   0  0  0  0  0  0  0  0  0  0  0  0
   57.7550   32.5200   43.6150 C   0  0  0  0  0  0  0  0  0  0  0  0
   57.9790   32.5940   42.3780 O   0  0  0  0  0  0  0  0  0  0  0  0
   57.7550   33.7220   44.3980 N   0  0  0  0  0  0  0  0  0  0  0  0
   58.9530   34.4050   44.8820 C   0  0  0  0  0  0  0  0  0  0  0  0
   59.1960   34.0830   46.3330 C   0  0  0  0  0  0  0  0  0  0  0  0
   60.3170   34.5970   47.0040 C   0  0  0  0  0  0  0  0  0  0  0  0
   60.5030   34.3480   48.3650 C   0  0  0  0  0  0  0  0  0  0  0  0
   59.5720   33.5780   49.0850 C   0  0  0  0  0  0  0  0  0  0  0  0
   59.7470   33.3130   50.5340 C   0  0  0  0  0  0  0  0  0  0  0  0
   61.0470   33.2050   51.1230 N   0  0  0  0  0  0  0  0  0  0  0  0
   58.7330   33.1980   51.2750 O   0  0  0  0  0  0  0  0  0  0  0  0
   58.4650   33.0400   48.4020 C   0  0  0  0  0  0  0  0  0  0  0  0
   58.2780   33.2940   47.0410 C   0  0  0  0  0  0  0  0  0  0  0  0
   56.4150   30.4410   43.8620 C   0  0  0  0  0  0  0  0  0  0  0  0
   56.2160   29.1750   44.4100 C   0  0  0  0  0  0  0  0  0  0  0  0
   57.1260   28.6430   45.3410 C   0  0  0  0  0  0  0  0  0  0  0  0
   56.8820   27.2850   45.8820 C   0  0  0  0  0  0  0  0  0  0  0  0
   57.8260   26.3730   46.3110 C   0  0  0  0  0  0  0  0  0  0  0  0
   57.2030   25.2430   46.6860 N   0  0  0  0  0  0  0  0  0  0  0  0
   55.8970   25.4970   46.4690 C   0  0  0  0  0  0  0  0  0  0  0  0
   55.6600   26.7270   45.9710 N   0  0  0  0  0  0  0  0  0  0  0  0
   61.0350   30.4450   46.7180 C   0  0  0  0  0  0  0  0  0  0  0  0
   62.0060   31.1730   47.4120 C   0  0  0  0  0  0  0  0  0  0  0  0
   64.5624   33.1873   49.7966 H   0  0  0  0  0  0  0  0  0  0  0  0
   64.6673   32.0994   48.3710 H   0  0  0  0  0  0  0  0  0  0  0  0
   63.5068   33.4705   48.3710 H   0  0  0  0  0  0  0  0  0  0  0  0
   61.1190   30.3450   50.6102 H   0  0  0  0  0  0  0  0  0  0  0  0
   59.3927   29.0475   49.3686 H   0  0  0  0  0  0  0  0  0  0  0  0
   59.2946   31.3030   45.4816 H   0  0  0  0  0  0  0  0  0  0  0  0
   59.8200   34.0784   44.2890 H   0  0  0  0  0  0  0  0  0  0  0  0
   58.8089   35.4906   44.7786 H   0  0  0  0  0  0  0  0  0  0  0  0
   61.0539   35.2002   46.4535 H   0  0  0  0  0  0  0  0  0  0  0  0
   61.3853   34.7575   48.8787 H   0  0  0  0  0  0  0  0  0  0  0  0
   61.1390   32.9730   52.1360 H   0  0  0  0  0  0  0  0  0  0  0  0
   61.9140   33.4420   50.5920 H   0  0  0  0  0  0  0  0  0  0  0  0
   57.7410   32.4143   48.9445 H   0  0  0  0  0  0  0  0  0  0  0  0
   57.4050   32.8723   46.5214 H   0  0  0  0  0  0  0  0  0  0  0  0
   55.6901   30.8457   43.1404 H   0  0  0  0  0  0  0  0  0  0  0  0
   55.3370   28.5851   44.1108 H   0  0  0  0  0  0  0  0  0  0  0  0
   58.9122   26.5439   46.3409 H   0  0  0  0  0  0  0  0  0  0  0  0
   55.0996   24.7689   46.6786 H   0  0  0  0  0  0  0  0  0  0  0  0
   61.0249   30.4571   45.6181 H   0  0  0  0  0  0  0  0  0  0  0  0
   62.7457   31.7687   46.8569 H   0  0  0  0  0  0  0  0  0  0  0  0
  1  2  1  0
  2  3  1  0
  3  4  2  0
  4  5  1  0
  5  6  2  0
  6  7  1  0
  7  8  1  0
  8  9  2  0
  9 10  1  0
 10 11  1  0
 11 12  2  0
 11 13  1  0
 13 14  1  0
 14 15  1  0
 15 16  2  0
 16 17  1  0
 17 18  2  0
 18 19  1  0
 19 20  1  0
 19 21  2  0
 18 22  1  0
 22 23  2  0
 10 24  2  0
 24 25  1  0
 25 26  2  0
 26 27  1  0
 27 28  2  0
 28 29  1  0
 29 30  1  0
 30 31  2  0
  6 32  1  0
 32 33  2  0
 33  3  1  0
 26  8  1  0
 31 27  1  0
 23 15  1  0
  1 34  1  0
  1 35  1  0
  1 36  1  0
  4 37  1  0
  5 38  1  0
  9 39  1  0
 14 40  1  0
 14 41  1  0
 16 42  1  0
 17 43  1  0
 20 44  1  0
 20 45  1  0
 22 46  1  0
 23 47  1  0
 24 48  1  0
 25 49  1  0
 28 50  1  0
 30 51  1  0
 32 52  1  0
 33 53  1  0
M  CHG  2  13  -1  29  -1
M  END
>  <UniqueID>  (80) 
77

>  <SMILES>  (80) 
COc1ccc(Oc2cc(C(=O)[N-]Cc3ccc(C(N)=O)cc3)ccc2-c2c[n-]cn2)cc1

>  <Energy>  (80) 
96.65053443471342

>  <Genealogy>  (80) 
COc1ccc(Oc2cc(C(=O)[N-]Cc3ccc(C(N)=O)cc3)ccc2-c2c[n-]cn2)cc1 (protonated)
COc1ccc(Oc2cc(C(=O)[N-]Cc3ccc(C(N)=O)cc3)ccc2-c2c[n-]cn2)cc1 (3D coordinates assigned)
COc1ccc(Oc2cc(C(=O)[N-]Cc3ccc(C(N)=O)cc3)ccc2-c2c[n-]cn2)cc1 (optimized conformer: 96.65053443471342 kcal/mol)

>  <smiles>  (80) 
COc1ccc(Oc2cc(C(=O)NCc3ccc(C(N)=O)cc3)ccc2-c2c[nH]cn2)cc1

>  <score_type>  (80) 
oracle

>  <origin>  (80) 
adg

>  <m_score__min__energy>  (80) 
-11.119999999999999

>  <m_primary>  (80) 
energy

$$$$
80:0
     RDKit          3D

 61 61  0  0  0  0  0  0  0  0999 V2000
   64.6215   32.7618   46.1851 H   0  0  0  0  0  0  0  0  0  0  0  0
   63.7440   33.1110   46.7490 C   0  0  0  0  0  0  0  0  0  0  0  0
   63.1470   34.1590   46.3920 O   0  0  0  0  0  0  0  0  0  0  0  0
   63.2860   32.3690   47.8880 N   0  0  0  0  0  0  0  0  0  0  0  0
   63.7730   32.4710   49.1430 C   0  0  0  0  0  0  0  0  0  0  0  0
   64.6575   33.0516   49.4439 H   0  0  0  0  0  0  0  0  0  0  0  0
   62.9750   31.7250   49.9840 C   0  0  0  0  0  0  0  0  0  0  0  0
   63.1159   31.6114   51.0690 H   0  0  0  0  0  0  0  0  0  0  0  0
   61.9950   31.1590   49.2560 N   0  0  0  0  0  0  0  0  0  0  0  0
   61.2330   30.5400   49.6080 H   0  0  0  0  0  0  0  0  0  0  0  0
   62.2080   31.5530   47.9860 C   0  0  0  0  0  0  0  0  0  0  0  0
   61.3250   31.1470   46.8760 C   0  0  0  0  0  0  0  0  0  0  0  0
   61.7505   30.5571   46.0508 H   0  0  0  0  0  0  0  0  0  0  0  0
   60.0280   31.4680   46.8340 C   0  0  0  0  0  0  0  0  0  0  0  0
   59.3195   30.8156   46.3026 H   0  0  0  0  0  0  0  0  0  0  0  0
   59.5330   32.7170   47.5100 C   0  0  0  0  0  0  0  0  0  0  0  0
   59.9175   32.7339   48.5405 H   0  0  0  0  0  0  0  0  0  0  0  0
   58.4336   32.6926   47.4828 H   0  0  0  0  0  0  0  0  0  0  0  0
   59.9820   34.0010   46.7990 C   0  0  0  0  0  0  0  0  0  0  0  0
   60.8775   33.7777   46.2005 H   0  0  0  0  0  0  0  0  0  0  0  0
   60.1889   34.7554   47.5723 H   0  0  0  0  0  0  0  0  0  0  0  0
   58.8950   34.5730   45.8670 C   0  0  0  0  0  0  0  0  0  0  0  0
   59.3736   34.9107   44.9359 H   0  0  0  0  0  0  0  0  0  0  0  0
   58.4060   35.4013   46.4007 H   0  0  0  0  0  0  0  0  0  0  0  0
   57.8060   33.5460   45.5140 C   0  0  0  0  0  0  0  0  0  0  0  0
   56.8248   33.9931   45.7318 H   0  0  0  0  0  0  0  0  0  0  0  0
   58.0054   32.6490   46.1187 H   0  0  0  0  0  0  0  0  0  0  0  0
   57.8200   33.1010   44.0340 C   0  0  0  0  0  0  0  0  0  0  0  0
   58.6353   33.6324   43.5212 H   0  0  0  0  0  0  0  0  0  0  0  0
   56.8295   33.3424   43.6208 H   0  0  0  0  0  0  0  0  0  0  0  0
   58.0280   31.5870   43.8340 C   0  0  0  0  0  0  0  0  0  0  0  0
   58.5656   31.1916   44.7084 H   0  0  0  0  0  0  0  0  0  0  0  0
   58.5959   31.4606   42.9005 H   0  0  0  0  0  0  0  0  0  0  0  0
   56.7150   30.7990   43.6730 C   0  0  0  0  0  0  0  0  0  0  0  0
   56.6002   30.5216   42.6148 H   0  0  0  0  0  0  0  0  0  0  0  0
   55.8971   31.4484   44.0184 H   0  0  0  0  0  0  0  0  0  0  0  0
   56.6750   29.5170   44.5230 C   0  0  0  0  0  0  0  0  0  0  0  0
   55.7265   28.9947   44.3291 H   0  0  0  0  0  0  0  0  0  0  0  0
   56.7654   29.8129   45.5786 H   0  0  0  0  0  0  0  0  0  0  0  0
   57.8420   28.5590   44.2030 C   0  0  0  0  0  0  0  0  0  0  0  0
   58.2001   28.7790   43.1865 H   0  0  0  0  0  0  0  0  0  0  0  0
   57.4486   27.5368   44.3044 H   0  0  0  0  0  0  0  0  0  0  0  0
   59.0360   28.6720   45.1710 C   0  0  0  0  0  0  0  0  0  0  0  0
   58.6772   29.1463   46.0964 H   0  0  0  0  0  0  0  0  0  0  0  0
   59.8003   29.2564   44.6377 H   0  0  0  0  0  0  0  0  0  0  0  0
   59.7130   27.3450   45.5520 C   0  0  0  0  0  0  0  0  0  0  0  0
   60.6934   27.2962   45.0555 H   0  0  0  0  0  0  0  0  0  0  0  0
   59.0480   26.5310   45.2277 H   0  0  0  0  0  0  0  0  0  0  0  0
   59.9230   27.1920   47.0680 C   0  0  0  0  0  0  0  0  0  0  0  0
   60.9715   27.4247   47.3058 H   0  0  0  0  0  0  0  0  0  0  0  0
   59.6712   26.1567   47.3414 H   0  0  0  0  0  0  0  0  0  0  0  0
   59.0130   28.1280   47.8760 C   0  0  0  0  0  0  0  0  0  0  0  0
   58.2179   27.5316   48.3472 H   0  0  0  0  0  0  0  0  0  0  0  0
   58.5927   28.8744   47.1859 H   0  0  0  0  0  0  0  0  0  0  0  0
   59.7690   28.8570   48.9440 C   0  0  0  0  0  0  0  0  0  0  0  0
   60.8810   28.4110   49.3440 O   0  0  0  0  0  0  0  0  0  0  0  0
   59.2420   30.0390   49.4760 O   0  0  0  0  0  0  0  0  0  0  0  0
   58.6100   30.0880   50.7490 C   0  0  0  0  0  0  0  0  0  0  0  0
   59.3726   30.0289   51.5395 H   0  0  0  0  0  0  0  0  0  0  0  0
   58.0537   31.0320   50.8461 H   0  0  0  0  0  0  0  0  0  0  0  0
   57.9148   29.2411   50.8461 H   0  0  0  0  0  0  0  0  0  0  0  0
  1  2  1  0
  2  3  2  0
  2  4  1  0
  4  5  1  0
  5  6  1  0
  5  7  2  0
  7  8  1  0
  7  9  1  0
  9 10  1  0
  9 11  2  0
 11 12  1  0
 12 13  1  0
 12 14  2  0
 14 15  1  0
 14 16  1  0
 16 17  1  0
 16 18  1  0
 16 19  1  0
 19 20  1  0
 19 21  1  0
 19 22  1  0
 22 23  1  0
 22 24  1  0
 22 25  1  0
 25 26  1  0
 25 27  1  0
 25 28  1  0
 28 29  1  0
 28 30  1  0
 28 31  1  0
 31 32  1  0
 31 33  1  0
 31 34  1  0
 34 35  1  0
 34 36  1  0
 34 37  1  0
 37 38  1  0
 37 39  1  0
 37 40  1  0
 40 41  1  0
 40 42  1  0
 40 43  1  0
 43 44  1  0
 43 45  1  0
 43 46  1  0
 46 47  1  0
 46 48  1  0
 46 49  1  0
 49 50  1  0
 49 51  1  0
 49 52  1  0
 52 53  1  0
 52 54  1  0
 52 55  1  0
 55 56  2  0
 55 57  1  0
 57 58  1  0
 58 59  1  0
 58 60  1  0
 58 61  1  0
 11  4  1  0
M  CHG  1   9   1
M  END
>  <UniqueID>  (81) 
78

>  <SMILES>  (81) 
COC(=O)CCCCCCCCCCCCC/C=C/c1[nH+]ccn1C=O

>  <Energy>  (81) 
70.24525741507351

>  <Genealogy>  (81) 
COC(=O)CCCCCCCCCCCCCC=Cc1[nH+]ccn1C=O (protonated)
COC(=O)CCCCCCCCCCCCC/C=C/c1[nH+]ccn1C=O (cis-trans isomerization)
COC(=O)CCCCCCCCCCCCC/C=C/c1[nH+]ccn1C=O (3D coordinates assigned)
COC(=O)CCCCCCCCCCCCC/C=C/c1[nH+]ccn1C=O (optimized conformer: 70.24525741507351 kcal/mol)

>  <smiles>  (81) 
COC(=O)CCCCCCCCCCCCCC=Cc1nccn1C=O

>  <score_type>  (81) 
oracle

>  <origin>  (81) 
adg

>  <m_score__min__energy>  (81) 
-6.2000000000000002

>  <m_primary>  (81) 
energy

$$$$
81:0
     RDKit          3D

 57 60  0  0  0  0  0  0  0  0999 V2000
   58.9500   34.7680   44.8070 C   0  0  0  0  0  0  0  0  0  0  0  0
   59.0320   34.2160   46.2040 C   0  0  0  0  0  0  0  0  0  0  0  0
   60.0210   34.6850   47.0840 C   0  0  0  0  0  0  0  0  0  0  0  0
   60.1150   34.1740   48.3770 C   0  0  0  0  0  0  0  0  0  0  0  0
   59.2290   33.1880   48.8040 C   0  0  0  0  0  0  0  0  0  0  0  0
   58.2470   32.7060   47.9360 C   0  0  0  0  0  0  0  0  0  0  0  0
   58.1370   33.2130   46.6330 C   0  0  0  0  0  0  0  0  0  0  0  0
   57.1370   32.7320   45.7210 N   0  0  0  0  0  0  0  0  0  0  0  0
   57.2560   31.3160   44.7280 S   0  0  0  0  0  0  0  0  0  0  0  0
   55.8950   30.7190   44.5060 O   0  0  0  0  0  0  0  0  0  0  0  0
   57.8180   31.7070   43.3910 O   0  0  0  0  0  0  0  0  0  0  0  0
   58.3440   30.1580   45.4870 C   0  0  0  0  0  0  0  0  0  0  0  0
   59.6870   30.5020   45.6880 C   0  0  0  0  0  0  0  0  0  0  0  0
   60.5510   29.6170   46.3320 C   0  0  0  0  0  0  0  0  0  0  0  0
   60.0780   28.3860   46.7850 C   0  0  0  0  0  0  0  0  0  0  0  0
   58.7370   28.0200   46.5900 C   0  0  0  0  0  0  0  0  0  0  0  0
   58.2660   26.7770   47.1370 N   0  0  0  0  0  0  0  0  0  0  0  0
   58.4650   25.4900   46.5330 C   0  0  0  0  0  0  0  0  0  0  0  0
   59.3230   25.3340   45.6250 O   0  0  0  0  0  0  0  0  0  0  0  0
   57.7320   24.2950   47.0640 C   0  0  0  0  0  0  0  0  0  0  0  0
   56.3280   24.3490   46.6610 N   0  0  0  0  0  0  0  0  0  0  0  0
   55.5960   25.5210   46.3570 C   0  0  0  0  0  0  0  0  0  0  0  0
   55.9370   26.6690   46.7400 O   0  0  0  0  0  0  0  0  0  0  0  0
   54.4430   25.2810   45.5590 N   0  0  0  0  0  0  0  0  0  0  0  0
   54.3910   23.8450   45.2690 C   0  0  2  0  0  0  0  0  0  0  0  0
   54.5110   23.6450   43.7520 C   0  0  0  0  0  0  0  0  0  0  0  0
   53.1180   23.2030   45.8200 C   0  0  0  0  0  0  0  0  0  0  0  0
   51.8540   23.4390   45.2390 C   0  0  0  0  0  0  0  0  0  0  0  0
   50.7030   22.8480   45.7690 C   0  0  0  0  0  0  0  0  0  0  0  0
   50.7910   22.0130   46.8800 C   0  0  0  0  0  0  0  0  0  0  0  0
   52.0320   21.7580   47.4600 C   0  0  0  0  0  0  0  0  0  0  0  0
   53.1870   22.3440   46.9360 C   0  0  0  0  0  0  0  0  0  0  0  0
   55.6170   23.3230   45.9780 C   0  0  0  0  0  0  0  0  0  0  0  0
   56.0010   22.1240   45.9540 O   0  0  0  0  0  0  0  0  0  0  0  0
   57.8690   28.9220   45.9430 C   0  0  0  0  0  0  0  0  0  0  0  0
   58.7885   35.8552   44.8512 H   0  0  0  0  0  0  0  0  0  0  0  0
   59.8892   34.5582   44.2741 H   0  0  0  0  0  0  0  0  0  0  0  0
   58.1124   34.2943   44.2741 H   0  0  0  0  0  0  0  0  0  0  0  0
   60.7260   35.4607   46.7504 H   0  0  0  0  0  0  0  0  0  0  0  0
   60.8900   34.5499   49.0612 H   0  0  0  0  0  0  0  0  0  0  0  0
   59.3028   32.7884   49.8262 H   0  0  0  0  0  0  0  0  0  0  0  0
   57.5543   31.9225   48.2769 H   0  0  0  0  0  0  0  0  0  0  0  0
   60.0617   31.4746   45.3363 H   0  0  0  0  0  0  0  0  0  0  0  0
   61.6059   29.8900   46.4827 H   0  0  0  0  0  0  0  0  0  0  0  0
   60.7620   27.6954   47.2999 H   0  0  0  0  0  0  0  0  0  0  0  0
   57.7660   26.8080   48.0540 H   0  0  0  0  0  0  0  0  0  0  0  0
   58.1908   23.3789   46.6636 H   0  0  0  0  0  0  0  0  0  0  0  0
   57.7922   24.2936   48.1623 H   0  0  0  0  0  0  0  0  0  0  0  0
   55.0671   22.7183   43.5472 H   0  0  0  0  0  0  0  0  0  0  0  0
   53.5058   23.5746   43.3108 H   0  0  0  0  0  0  0  0  0  0  0  0
   55.0461   24.4988   43.3108 H   0  0  0  0  0  0  0  0  0  0  0  0
   51.7733   24.0950   44.3597 H   0  0  0  0  0  0  0  0  0  0  0  0
   49.7242   23.0434   45.3066 H   0  0  0  0  0  0  0  0  0  0  0  0
   49.8825   21.5556   47.2989 H   0  0  0  0  0  0  0  0  0  0  0  0
   52.1026   21.0930   48.3334 H   0  0  0  0  0  0  0  0  0  0  0  0
   54.1619   22.1327   47.3996 H   0  0  0  0  0  0  0  0  0  0  0  0
   56.8125   28.6538   45.7953 H   0  0  0  0  0  0  0  0  0  0  0  0
  1  2  1  0
  2  3  2  0
  3  4  1  0
  4  5  2  0
  5  6  1  0
  6  7  2  0
  7  8  1  0
  8  9  1  0
  9 10  2  0
  9 11  2  0
  9 12  1  0
 12 13  2  0
 13 14  1  0
 14 15  2  0
 15 16  1  0
 16 17  1  0
 17 18  1  0
 18 19  2  0
 18 20  1  0
 20 21  1  0
 21 22  1  0
 22 23  2  0
 22 24  1  0
 24 25  1  0
 25 26  1  6
 25 27  1  0
 27 28  2  0
 28 29  1  0
 29 30  2  0
 30 31  1  0
 31 32  2  0
 25 33  1  0
 33 34  2  0
 16 35  2  0
  7  2  1  0
 35 12  1  0
 33 21  1  0
 32 27  1  0
  1 36  1  0
  1 37  1  0
  1 38  1  0
  3 39  1  0
  4 40  1  0
  5 41  1  0
  6 42  1  0
 13 43  1  0
 14 44  1  0
 15 45  1  0
 17 46  1  0
 20 47  1  0
 20 48  1  0
 26 49  1  0
 26 50  1  0
 26 51  1  0
 28 52  1  0
 29 53  1  0
 30 54  1  0
 31 55  1  0
 32 56  1  0
 35 57  1  0
M  CHG  2   8  -1  24  -1
M  END
>  <UniqueID>  (82) 
79

>  <SMILES>  (82) 
Cc1ccccc1[N-]S(=O)(=O)c1cccc(NC(=O)CN2C(=O)[N-][C@](C)(c3ccccc3)C2=O)c1

>  <Energy>  (82) 
86.9489919212698

>  <Genealogy>  (82) 
Cc1ccccc1[N-]S(=O)(=O)c1cccc(NC(=O)CN2C(=O)[N-]C(C)(c3ccccc3)C2=O)c1 (protonated)
Cc1ccccc1[N-]S(=O)(=O)c1cccc(NC(=O)CN2C(=O)[N-][C@](C)(c3ccccc3)C2=O)c1 (chirality)
Cc1ccccc1[N-]S(=O)(=O)c1cccc(NC(=O)CN2C(=O)[N-][C@](C)(c3ccccc3)C2=O)c1 (3D coordinates assigned)
Cc1ccccc1[N-]S(=O)(=O)c1cccc(NC(=O)CN2C(=O)[N-][C@](C)(c3ccccc3)C2=O)c1 (nonaromatic ring conformer: 86.9489919212698 kcal/mol)

>  <smiles>  (82) 
Cc1ccccc1NS(=O)(=O)c1cccc(NC(=O)CN2C(=O)NC(C)(c3ccccc3)C2=O)c1

>  <score_type>  (82) 
oracle

>  <origin>  (82) 
adg

>  <m_score__min__energy>  (82) 
-12.43

>  <m_primary>  (82) 
energy

$$$$
82:0
     RDKit          3D

 47 50  0  0  0  0  0  0  0  0999 V2000
   54.2860   25.9370   45.8640 O   0  0  0  0  0  0  0  0  0  0  0  0
   55.3630   25.2870   45.7930 C   0  0  0  0  0  0  0  0  0  0  0  0
   56.6760   25.8960   46.1390 C   0  0  0  0  0  0  0  0  0  0  0  0
   57.6460   25.0910   46.7580 C   0  0  0  0  0  0  0  0  0  0  0  0
   57.3910   23.7520   47.0370 O   0  0  0  0  0  0  0  0  0  0  0  0
   58.8830   25.6220   47.1080 C   0  0  0  0  0  0  0  0  0  0  0  0
   59.1950   26.9540   46.8500 C   0  0  0  0  0  0  0  0  0  0  0  0
   60.4310   27.4100   47.2820 O   0  0  0  0  0  0  0  0  0  0  0  0
   58.2600   27.7970   46.1930 C   0  0  0  0  0  0  0  0  0  0  0  0
   58.5260   29.1580   45.8350 C   0  0  0  0  0  0  0  0  0  0  0  0
   59.8760   29.8360   45.9940 C   0  0  0  0  0  0  0  0  0  0  0  0
   59.8540   30.8280   47.0800 N   0  0  0  0  0  0  0  0  0  0  0  0
   60.3540   30.4670   48.4170 C   0  0  0  0  0  0  0  0  0  0  0  0
   59.4910   31.0670   49.4960 C   0  0  0  0  0  0  0  0  0  0  0  0
   58.5230   30.2840   50.1480 C   0  0  0  0  0  0  0  0  0  0  0  0
   57.7520   30.8310   51.1790 C   0  0  0  0  0  0  0  0  0  0  0  0
   57.9400   32.1620   51.5630 C   0  0  0  0  0  0  0  0  0  0  0  0
   58.8930   32.9490   50.9130 C   0  0  0  0  0  0  0  0  0  0  0  0
   59.6640   32.4070   49.8810 C   0  0  0  0  0  0  0  0  0  0  0  0
   59.8000   32.2230   46.7340 C   0  0  0  0  0  0  0  0  0  0  0  0
   58.5800   32.8200   46.3800 C   0  0  0  0  0  0  0  0  0  0  0  0
   58.5290   34.1770   46.0490 C   0  0  0  0  0  0  0  0  0  0  0  0
   59.6970   34.9460   46.0670 C   0  0  0  0  0  0  0  0  0  0  0  0
   59.6450   36.2950   45.7380 O   0  0  0  0  0  0  0  0  0  0  0  0
   60.9170   34.3560   46.4130 C   0  0  0  0  0  0  0  0  0  0  0  0
   60.9690   32.9990   46.7450 C   0  0  0  0  0  0  0  0  0  0  0  0
   57.5080   29.9140   45.2300 C   0  0  0  0  0  0  0  0  0  0  0  0
   56.2730   29.3400   44.9600 C   0  0  0  0  0  0  0  0  0  0  0  0
   55.3640   30.0200   44.4150 O   0  0  0  0  0  0  0  0  0  0  0  0
   56.0470   28.0440   45.2700 N   0  0  0  0  0  0  0  0  0  0  0  0
   56.9810   27.2530   45.8630 C   0  0  0  0  0  0  0  0  0  0  0  0
   55.3318   24.2374   45.4653 H   0  0  0  0  0  0  0  0  0  0  0  0
   59.6283   24.9778   47.5975 H   0  0  0  0  0  0  0  0  0  0  0  0
   60.6350   29.0731   46.2215 H   0  0  0  0  0  0  0  0  0  0  0  0
   60.1148   30.3563   45.0547 H   0  0  0  0  0  0  0  0  0  0  0  0
   60.3486   29.3718   48.5195 H   0  0  0  0  0  0  0  0  0  0  0  0
   61.3758   30.8592   48.5268 H   0  0  0  0  0  0  0  0  0  0  0  0
   58.3711   29.2371   49.8464 H   0  0  0  0  0  0  0  0  0  0  0  0
   56.9973   30.2135   51.6880 H   0  0  0  0  0  0  0  0  0  0  0  0
   57.3369   32.5896   52.3776 H   0  0  0  0  0  0  0  0  0  0  0  0
   59.0371   33.9972   51.2137 H   0  0  0  0  0  0  0  0  0  0  0  0
   60.4095   33.0323   49.3680 H   0  0  0  0  0  0  0  0  0  0  0  0
   57.6600   32.2173   46.3630 H   0  0  0  0  0  0  0  0  0  0  0  0
   57.5699   34.6403   45.7743 H   0  0  0  0  0  0  0  0  0  0  0  0
   61.8362   34.9601   46.4239 H   0  0  0  0  0  0  0  0  0  0  0  0
   61.9302   32.5378   47.0159 H   0  0  0  0  0  0  0  0  0  0  0  0
   57.6905   30.9668   44.9687 H   0  0  0  0  0  0  0  0  0  0  0  0
  1  2  2  0
  2  3  1  0
  3  4  2  0
  4  5  1  0
  4  6  1  0
  6  7  2  0
  7  8  1  0
  7  9  1  0
  9 10  1  0
 10 11  1  0
 11 12  1  0
 12 13  1  0
 13 14  1  0
 14 15  2  0
 15 16  1  0
 16 17  2  0
 17 18  1  0
 18 19  2  0
 12 20  1  0
 20 21  2  0
 21 22  1  0
 22 23  2  0
 23 24  1  0
 23 25  1  0
 25 26  2  0
 10 27  2  0
 27 28  1  0
 28 29  2  0
 28 30  1  0
 30 31  1  0
 31  3  1  0
 31  9  2  0
 19 14  1  0
 26 20  1  0
  2 32  1  0
  6 33  1  0
 11 34  1  0
 11 35  1  0
 13 36  1  0
 13 37  1  0
 15 38  1  0
 16 39  1  0
 17 40  1  0
 18 41  1  0
 19 42  1  0
 21 43  1  0
 22 44  1  0
 25 45  1  0
 26 46  1  0
 27 47  1  0
M  CHG  4   5  -1   8  -1  24  -1  30  -1
M  END
>  <UniqueID>  (83) 
80

>  <SMILES>  (83) 
O=Cc1c([O-])cc([O-])c2c(CN(Cc3ccccc3)c3ccc([O-])cc3)cc(=O)[n-]c12

>  <Energy>  (83) 
67.11867268692016

>  <Genealogy>  (83) 
O=Cc1c([O-])cc([O-])c2c(CN(Cc3ccccc3)c3ccc([O-])cc3)cc(=O)[n-]c12 (protonated)
O=Cc1c([O-])cc([O-])c2c(CN(Cc3ccccc3)c3ccc([O-])cc3)cc(=O)[n-]c12 (3D coordinates assigned)
O=Cc1c([O-])cc([O-])c2c(CN(Cc3ccccc3)c3ccc([O-])cc3)cc(=O)[n-]c12 (optimized conformer: 67.11867268692016 kcal/mol)

>  <smiles>  (83) 
O=Cc1c(O)cc(O)c2c(CN(Cc3ccccc3)c3ccc(O)cc3)cc(=O)[nH]c12

>  <score_type>  (83) 
oracle

>  <origin>  (83) 
adg

>  <m_score__min__energy>  (83) 
-16.300000000000001

>  <m_primary>  (83) 
energy

$$$$
83:0
     RDKit          3D

 38 40  0  0  0  0  0  0  0  0999 V2000
   64.5160   32.9030   49.0700 C   0  0  0  0  0  0  0  0  0  0  0  0
   63.8020   32.4630   47.9230 O   0  0  0  0  0  0  0  0  0  0  0  0
   63.1570   33.3460   47.0490 C   0  0  0  0  0  0  0  0  0  0  0  0
   63.7720   33.8010   46.0440 O   0  0  0  0  0  0  0  0  0  0  0  0
   61.7540   33.7430   47.3040 C   0  0  0  0  0  0  0  0  0  0  0  0
   61.2850   33.8790   48.6220 C   0  0  0  0  0  0  0  0  0  0  0  0
   59.9610   34.2490   48.8670 C   0  0  0  0  0  0  0  0  0  0  0  0
   59.0900   34.4880   47.8030 C   0  0  0  0  0  0  0  0  0  0  0  0
   59.5390   34.3600   46.4800 C   0  0  0  0  0  0  0  0  0  0  0  0
   58.5920   34.5710   45.3300 C   0  0  0  0  0  0  0  0  0  0  0  0
   56.9660   33.8080   45.6690 S   0  0  0  0  0  0  0  0  0  0  0  0
   57.4850   32.1540   45.2100 C   0  0  0  0  0  0  0  0  0  0  0  0
   56.7000   31.3050   44.4950 N   0  0  0  0  0  0  0  0  0  0  0  0
   57.4620   30.2000   44.4200 C   0  0  0  0  0  0  0  0  0  0  0  0
   57.1510   28.9920   43.7990 C   0  0  0  0  0  0  0  0  0  0  0  0
   58.1040   27.9500   43.8660 C   0  0  0  0  0  0  0  0  0  0  0  0
   57.8350   26.6440   43.1810 C   0  0  0  0  0  0  0  0  0  0  0  0
   59.3410   28.1650   44.5280 C   0  0  0  0  0  0  0  0  0  0  0  0
   59.6190   29.3990   45.1450 C   0  0  0  0  0  0  0  0  0  0  0  0
   58.6460   30.3910   45.0650 C   0  0  0  0  0  0  0  0  0  0  0  0
   58.6810   31.6300   45.5690 N   0  0  0  0  0  0  0  0  0  0  0  0
   60.8700   33.9840   46.2360 C   0  0  0  0  0  0  0  0  0  0  0  0
   63.9875   32.5773   49.9781 H   0  0  0  0  0  0  0  0  0  0  0  0
   65.5278   32.4715   49.0599 H   0  0  0  0  0  0  0  0  0  0  0  0
   64.5854   34.0008   49.0599 H   0  0  0  0  0  0  0  0  0  0  0  0
   61.9654   33.6928   49.4660 H   0  0  0  0  0  0  0  0  0  0  0  0
   59.6033   34.3524   49.9021 H   0  0  0  0  0  0  0  0  0  0  0  0
   58.0478   34.7778   48.0024 H   0  0  0  0  0  0  0  0  0  0  0  0
   58.4559   35.6508   45.1700 H   0  0  0  0  0  0  0  0  0  0  0  0
   59.0199   34.0985   44.4335 H   0  0  0  0  0  0  0  0  0  0  0  0
   56.1946   28.8536   43.2735 H   0  0  0  0  0  0  0  0  0  0  0  0
   57.6736   25.8604   43.9359 H   0  0  0  0  0  0  0  0  0  0  0  0
   56.9373   26.7378   42.5522 H   0  0  0  0  0  0  0  0  0  0  0  0
   58.6967   26.3754   42.5522 H   0  0  0  0  0  0  0  0  0  0  0  0
   60.0895   27.3595   44.5591 H   0  0  0  0  0  0  0  0  0  0  0  0
   60.5695   29.5729   45.6707 H   0  0  0  0  0  0  0  0  0  0  0  0
   59.4410   32.0810   46.1250 H   0  0  0  0  0  0  0  0  0  0  0  0
   61.2248   33.8769   45.2003 H   0  0  0  0  0  0  0  0  0  0  0  0
  1  2  1  0
  2  3  1  0
  3  4  2  0
  3  5  1  0
  5  6  2  0
  6  7  1  0
  7  8  2  0
  8  9  1  0
  9 10  1  0
 10 11  1  0
 11 12  1  0
 12 13  2  0
 13 14  1  0
 14 15  2  0
 15 16  1  0
 16 17  1  0
 16 18  2  0
 18 19  1  0
 19 20  2  0
 20 21  1  0
  9 22  2  0
 22  5  1  0
 21 12  1  0
 20 14  1  0
  1 23  1  0
  1 24  1  0
  1 25  1  0
  6 26  1  0
  7 27  1  0
  8 28  1  0
 10 29  1  0
 10 30  1  0
 15 31  1  0
 17 32  1  0
 17 33  1  0
 17 34  1  0
 18 35  1  0
 19 36  1  0
 21 37  1  0
 22 38  1  0
M  END
>  <UniqueID>  (84) 
81

>  <SMILES>  (84) 
COC(=O)c1cccc(CSc2nc3cc(C)ccc3[nH]2)c1

>  <Energy>  (84) 
68.54649786464982

>  <Genealogy>  (84) 
COC(=O)c1cccc(CSc2nc3cc(C)ccc3[nH]2)c1 (3D coordinates assigned)
COC(=O)c1cccc(CSc2nc3cc(C)ccc3[nH]2)c1 (optimized conformer: 68.54649786464982 kcal/mol)

>  <smiles>  (84) 
COC(=O)c1cccc(CSc2nc3cc(C)ccc3[nH]2)c1

>  <score_type>  (84) 
oracle

>  <origin>  (84) 
adg

>  <m_score__min__energy>  (84) 
-7.9000000000000004

>  <m_primary>  (84) 
energy

$$$$
84:0
     RDKit          3D

 76 80  0  0  0  0  0  0  0  0999 V2000
   65.3769   32.9193   51.5999 H   0  0  0  0  0  0  0  0  0  0  0  0
   64.5050   33.1200   50.9600 C   0  0  0  0  0  0  0  0  0  0  0  0
   63.3050   33.5410   51.5330 C   0  0  0  0  0  0  0  0  0  0  0  0
   63.2297   33.6615   52.6238 H   0  0  0  0  0  0  0  0  0  0  0  0
   62.1980   33.8100   50.7230 C   0  0  0  0  0  0  0  0  0  0  0  0
   60.9820   34.2070   51.2870 O   0  0  0  0  0  0  0  0  0  0  0  0
   59.8310   33.3990   51.3080 C   0  0  0  0  0  0  0  0  0  0  0  0
   59.2410   33.0080   50.0890 C   0  0  0  0  0  0  0  0  0  0  0  0
   59.7100   33.5340   48.8400 N   0  0  0  0  0  0  0  0  0  0  0  0
   59.6670   32.8300   47.5900 C   0  0  0  0  0  0  0  0  0  0  0  0
   60.6750   32.1690   47.2270 O   0  0  0  0  0  0  0  0  0  0  0  0
   58.4520   32.8730   46.7040 C   0  0  0  0  0  0  0  0  0  0  0  0
   58.6468   33.5526   45.8613 H   0  0  0  0  0  0  0  0  0  0  0  0
   57.5991   33.2282   47.3010 H   0  0  0  0  0  0  0  0  0  0  0  0
   58.1190   31.5050   46.1650 C   0  0  0  0  0  0  0  0  0  0  0  0
   58.4020   30.3550   46.9160 C   0  0  0  0  0  0  0  0  0  0  0  0
   58.8582   30.4503   47.9124 H   0  0  0  0  0  0  0  0  0  0  0  0
   58.1070   29.0880   46.4040 C   0  0  0  0  0  0  0  0  0  0  0  0
   58.3368   28.1925   47.0001 H   0  0  0  0  0  0  0  0  0  0  0  0
   57.5220   28.9480   45.1400 C   0  0  0  0  0  0  0  0  0  0  0  0
   57.2670   27.6460   44.6660 O   0  0  0  0  0  0  0  0  0  0  0  0
   57.4560   26.4390   45.4080 C   0  0  0  0  0  0  0  0  0  0  0  0
   58.2780   26.5850   46.1242 H   0  0  0  0  0  0  0  0  0  0  0  0
   57.6923   25.6320   44.6989 H   0  0  0  0  0  0  0  0  0  0  0  0
   56.2160   26.0550   46.1610 C   0  0  0  0  0  0  0  0  0  0  0  0
   55.1590   26.7200   45.9850 O   0  0  0  0  0  0  0  0  0  0  0  0
   56.2370   24.9720   47.1000 N   0  0  0  0  0  0  0  0  0  0  0  0
   55.6170   23.6840   46.8260 C   0  0  0  0  0  0  0  0  0  0  0  0
   55.3761   23.1836   47.7755 H   0  0  0  0  0  0  0  0  0  0  0  0
   54.6939   23.8370   46.2477 H   0  0  0  0  0  0  0  0  0  0  0  0
   56.3124   23.0579   46.2477 H   0  0  0  0  0  0  0  0  0  0  0  0
   57.2150   30.1040   44.3940 C   0  0  0  0  0  0  0  0  0  0  0  0
   56.7382   30.0094   43.4072 H   0  0  0  0  0  0  0  0  0  0  0  0
   57.5150   31.3710   44.9050 C   0  0  0  0  0  0  0  0  0  0  0  0
   57.2760   32.2684   44.3155 H   0  0  0  0  0  0  0  0  0  0  0  0
   58.1890   32.0810   50.0830 C   0  0  0  0  0  0  0  0  0  0  0  0
   57.7688   31.7338   49.1275 H   0  0  0  0  0  0  0  0  0  0  0  0
   57.6730   31.5970   51.2890 C   0  0  0  0  0  0  0  0  0  0  0  0
   56.6410   30.7130   51.2880 N   0  0  0  0  0  0  0  0  0  0  0  0
   56.1080   30.2530   52.4550 C   0  0  0  0  0  0  0  0  0  0  0  0
   55.1260   29.4040   52.4540 N   0  0  0  0  0  0  0  0  0  0  0  0
   53.7150   29.7450   52.2520 C   0  0  0  0  0  0  0  0  0  0  0  0
   53.1670   28.8522   51.9166 H   0  0  0  0  0  0  0  0  0  0  0  0
   53.6070   30.8400   51.1830 C   0  0  0  0  0  0  0  0  0  0  0  0
   54.2497   31.6854   51.4697 H   0  0  0  0  0  0  0  0  0  0  0  0
   53.9272   30.4174   50.2192 H   0  0  0  0  0  0  0  0  0  0  0  0
   52.1500   31.3410   51.0370 C   0  0  0  0  0  0  0  0  0  0  0  0
   52.1538   32.4407   51.0603 H   0  0  0  0  0  0  0  0  0  0  0  0
   51.7626   30.9510   50.0842 H   0  0  0  0  0  0  0  0  0  0  0  0
   51.2940   30.8700   52.0670 O   0  0  0  0  0  0  0  0  0  0  0  0
   51.8690   31.1350   53.3310 C   0  0  0  0  0  0  0  0  0  0  0  0
   52.1830   32.1885   53.3702 H   0  0  0  0  0  0  0  0  0  0  0  0
   51.1189   30.9287   54.1087 H   0  0  0  0  0  0  0  0  0  0  0  0
   53.0940   30.2340   53.5770 C   0  0  0  0  0  0  0  0  0  0  0  0
   53.8501   30.8045   54.1364 H   0  0  0  0  0  0  0  0  0  0  0  0
   52.7642   29.3535   54.1479 H   0  0  0  0  0  0  0  0  0  0  0  0
   56.6120   30.6810   53.6440 N   0  0  0  0  0  0  0  0  0  0  0  0
   57.6520   31.5530   53.6960 C   0  0  0  0  0  0  0  0  0  0  0  0
   58.0502   31.8790   54.6682 H   0  0  0  0  0  0  0  0  0  0  0  0
   58.2150   32.0350   52.5110 C   0  0  0  0  0  0  0  0  0  0  0  0
   59.2980   32.9200   52.5220 C   0  0  0  0  0  0  0  0  0  0  0  0
   59.7343   33.2426   53.4789 H   0  0  0  0  0  0  0  0  0  0  0  0
   62.3040   33.6770   49.3330 C   0  0  0  0  0  0  0  0  0  0  0  0
   61.4452   33.9345   48.6957 H   0  0  0  0  0  0  0  0  0  0  0  0
   63.4980   33.2170   48.7400 C   0  0  0  0  0  0  0  0  0  0  0  0
   63.5730   32.9870   47.3090 N   0  0  0  0  0  0  0  0  0  0  0  0
   63.7480   31.6300   46.7780 C   0  0  0  0  0  0  0  0  0  0  0  0
   63.8397   30.9188   47.6122 H   0  0  0  0  0  0  0  0  0  0  0  0
   62.8770   31.3622   46.1619 H   0  0  0  0  0  0  0  0  0  0  0  0
   64.6585   31.5919   46.1619 H   0  0  0  0  0  0  0  0  0  0  0  0
   63.3900   34.0960   46.3660 C   0  0  0  0  0  0  0  0  0  0  0  0
   63.2357   35.0308   46.9248 H   0  0  0  0  0  0  0  0  0  0  0  0
   64.2847   34.1905   45.7331 H   0  0  0  0  0  0  0  0  0  0  0  0
   62.5124   33.8981   45.7331 H   0  0  0  0  0  0  0  0  0  0  0  0
   64.6040   32.9520   49.5750 C   0  0  0  0  0  0  0  0  0  0  0  0
   65.5517   32.6105   49.1332 H   0  0  0  0  0  0  0  0  0  0  0  0
  1  2  1  0
  2  3  2  0
  3  4  1  0
  3  5  1  0
  5  6  1  0
  6  7  1  0
  7  8  1  0
  8  9  1  0
  9 10  1  0
 10 11  2  0
 10 12  1  0
 12 13  1  0
 12 14  1  0
 12 15  1  0
 15 16  2  0
 16 17  1  0
 16 18  1  0
 18 19  1  0
 18 20  2  0
 20 21  1  0
 21 22  1  0
 22 23  1  0
 22 24  1  0
 22 25  1  0
 25 26  2  0
 25 27  1  0
 27 28  1  0
 28 29  1  0
 28 30  1  0
 28 31  1  0
 20 32  1  0
 32 33  1  0
 32 34  2  0
 34 35  1  0
  8 36  2  0
 36 37  1  0
 36 38  1  0
 38 39  1  0
 39 40  1  0
 40 41  2  0
 41 42  1  0
 42 43  1  0
 42 44  1  0
 44 45  1  0
 44 46  1  0
 44 47  1  0
 47 48  1  0
 47 49  1  0
 47 50  1  0
 50 51  1  0
 51 52  1  0
 51 53  1  0
 51 54  1  0
 54 55  1  0
 54 56  1  0
 40 57  1  0
 57 58  2  0
 58 59  1  0
 58 60  1  0
 60 61  1  0
 61 62  1  0
  5 63  2  0
 63 64  1  0
 63 65  1  0
 65 66  1  0
 66 67  1  0
 67 68  1  0
 67 69  1  0
 67 70  1  0
 66 71  1  0
 71 72  1  0
 71 73  1  0
 71 74  1  0
 65 75  2  0
 75 76  1  0
 75  2  1  0
 61  7  2  0
 34 15  1  0
 60 38  2  0
 54 42  1  0
M  CHG  3   9  -1  27  -1  39  -1
M  END
>  <UniqueID>  (85) 
82

>  <SMILES>  (85) 
C[N-]C(=O)COc1ccc(CC(=O)[N-]c2cc3[n-]/c(=N\C4CCOCC4)ncc3cc2Oc2cccc(N(C)C)c2)cc1

>  <Energy>  (85) 
101.83094389176837

>  <Genealogy>  (85) 
C[N-]C(=O)COc1ccc(CC(=O)[N-]c2cc3[n-]c(=NC4CCOCC4)ncc3cc2Oc2cccc(N(C)C)c2)cc1 (protonated)
C[N-]C(=O)COc1ccc(CC(=O)[N-]c2cc3[n-]/c(=N\C4CCOCC4)ncc3cc2Oc2cccc(N(C)C)c2)cc1 (cis-trans isomerization)
C[N-]C(=O)COc1ccc(CC(=O)[N-]c2cc3[n-]/c(=N\C4CCOCC4)ncc3cc2Oc2cccc(N(C)C)c2)cc1 (3D coordinates assigned)
C[N-]C(=O)COc1ccc(CC(=O)[N-]c2cc3[n-]/c(=N\C4CCOCC4)ncc3cc2Oc2cccc(N(C)C)c2)cc1 (nonaromatic ring conformer: 101.83094389176837 kcal/mol)

>  <smiles>  (85) 
CNC(=O)COc1ccc(CC(=O)Nc2cc3[nH]c(=NC4CCOCC4)ncc3cc2Oc2cccc(N(C)C)c2)cc1

>  <score_type>  (85) 
oracle

>  <origin>  (85) 
adg

>  <m_score__min__energy>  (85) 
-14.460000000000001

>  <m_primary>  (85) 
energy

$$$$
85:0
     RDKit          3D

 36 39  0  0  0  0  0  0  0  0999 V2000
   55.5150   29.0180   44.5500 O   0  0  0  0  0  0  0  0  0  0  0  0
   56.6070   29.2220   45.1450 C   0  0  0  0  0  0  0  0  0  0  0  0
   57.0250   30.4690   45.2970 O   0  0  0  0  0  0  0  0  0  0  0  0
   58.1830   30.7790   45.8630 C   0  0  0  0  0  0  0  0  0  0  0  0
   58.5640   32.1240   45.9140 C   0  0  0  0  0  0  0  0  0  0  0  0
   59.8250   32.4830   46.3920 C   0  0  0  0  0  0  0  0  0  0  0  0
   60.3190   34.2070   46.4250 S   0  0  0  0  0  0  0  0  0  0  0  0
   61.7740   33.8680   47.4170 C   0  0  0  0  0  0  0  0  0  0  0  0
   61.6780   33.8400   48.8150 C   0  0  0  0  0  0  0  0  0  0  0  0
   62.8130   33.5710   49.5880 C   0  0  0  0  0  0  0  0  0  0  0  0
   64.0430   33.3330   48.9660 C   0  0  0  0  0  0  0  0  0  0  0  0
   64.1400   33.3650   47.5720 C   0  0  0  0  0  0  0  0  0  0  0  0
   63.0070   33.6330   46.7970 C   0  0  0  0  0  0  0  0  0  0  0  0
   60.7160   31.4920   46.8040 C   0  0  0  0  0  0  0  0  0  0  0  0
   60.3390   30.1470   46.7760 C   0  0  0  0  0  0  0  0  0  0  0  0
   59.0360   29.7690   46.3760 C   0  0  0  0  0  0  0  0  0  0  0  0
   58.5630   28.4220   46.3670 C   0  0  0  0  0  0  0  0  0  0  0  0
   59.2060   27.3340   47.0370 C   0  0  0  0  0  0  0  0  0  0  0  0
   60.1440   27.5390   48.1030 N   0  0  0  0  0  0  0  0  0  0  0  0
   61.1430   26.7990   48.2130 O   0  0  0  0  0  0  0  0  0  0  0  0
   59.8180   28.3770   49.1450 O   0  0  0  0  0  0  0  0  0  0  0  0
   58.7820   26.0180   46.7870 C   0  0  0  0  0  0  0  0  0  0  0  0
   57.6750   25.7660   45.9840 C   0  0  0  0  0  0  0  0  0  0  0  0
   56.9470   26.8210   45.4480 C   0  0  0  0  0  0  0  0  0  0  0  0
   57.3670   28.1490   45.6460 C   0  0  0  0  0  0  0  0  0  0  0  0
   57.8655   32.9033   45.5753 H   0  0  0  0  0  0  0  0  0  0  0  0
   60.7111   34.0293   49.3042 H   0  0  0  0  0  0  0  0  0  0  0  0
   62.7379   33.5467   50.6852 H   0  0  0  0  0  0  0  0  0  0  0  0
   64.9345   33.1205   49.5743 H   0  0  0  0  0  0  0  0  0  0  0  0
   65.1082   33.1793   47.0841 H   0  0  0  0  0  0  0  0  0  0  0  0
   63.0847   33.6591   45.7001 H   0  0  0  0  0  0  0  0  0  0  0  0
   61.7212   31.7711   47.1529 H   0  0  0  0  0  0  0  0  0  0  0  0
   61.0639   29.3730   47.0684 H   0  0  0  0  0  0  0  0  0  0  0  0
   59.3328   25.1763   47.2322 H   0  0  0  0  0  0  0  0  0  0  0  0
   57.3750   24.7290   45.7727 H   0  0  0  0  0  0  0  0  0  0  0  0
   56.0367   26.6167   44.8653 H   0  0  0  0  0  0  0  0  0  0  0  0
  1  2  2  0
  2  3  1  0
  3  4  1  0
  4  5  2  0
  5  6  1  0
  6  7  1  0
  7  8  1  0
  8  9  2  0
  9 10  1  0
 10 11  2  0
 11 12  1  0
 12 13  2  0
  6 14  2  0
 14 15  1  0
 15 16  2  0
 16 17  1  0
 17 18  2  0
 18 19  1  0
 19 20  2  0
 19 21  1  0
 18 22  1  0
 22 23  2  0
 23 24  1  0
 24 25  2  0
 25  2  1  0
 16  4  1  0
 25 17  1  0
 13  8  1  0
  5 26  1  0
  9 27  1  0
 10 28  1  0
 11 29  1  0
 12 30  1  0
 13 31  1  0
 14 32  1  0
 15 33  1  0
 22 34  1  0
 23 35  1  0
 24 36  1  0
M  CHG  2  19   1  21  -1
M  END
>  <UniqueID>  (86) 
83

>  <SMILES>  (86) 
O=c1oc2cc(Sc3ccccc3)ccc2c2c([N+](=O)[O-])cccc12

>  <Energy>  (86) 
62.213353431246475

>  <Genealogy>  (86) 
O=c1oc2cc(Sc3ccccc3)ccc2c2c([N+](=O)[O-])cccc12 (3D coordinates assigned)
O=c1oc2cc(Sc3ccccc3)ccc2c2c([N+](=O)[O-])cccc12 (optimized conformer: 62.213353431246475 kcal/mol)

>  <smiles>  (86) 
O=c1oc2cc(Sc3ccccc3)ccc2c2c([N+](=O)[O-])cccc12

>  <score_type>  (86) 
oracle

>  <origin>  (86) 
adg

>  <m_score__min__energy>  (86) 
-8.3300000000000001

>  <m_primary>  (86) 
energy

$$$$
86:0
     RDKit          3D

 52 55  0  0  0  0  0  0  0  0999 V2000
   61.9010   33.6000   46.3630 C   0  0  0  0  0  0  0  0  0  0  0  0
   60.7020   33.5080   47.2760 C   0  0  0  0  0  0  0  0  0  0  0  0
   60.8220   33.5950   48.6790 C   0  0  0  0  0  0  0  0  0  0  0  0
   62.0410   33.7910   49.4910 C   0  0  0  0  0  0  0  0  0  0  0  0
   62.5120   34.9530   49.6220 O   0  0  0  0  0  0  0  0  0  0  0  0
   62.6990   32.6840   50.1130 N   0  0  0  0  0  0  0  0  0  0  0  0
   62.0350   31.7480   51.0130 C   0  0  0  0  0  0  0  0  0  0  0  0
   61.0920   30.8650   50.2410 C   0  0  0  0  0  0  0  0  0  0  0  0
   59.8330   30.5470   50.7750 C   0  0  0  0  0  0  0  0  0  0  0  0
   58.9610   29.7110   50.0730 C   0  0  0  0  0  0  0  0  0  0  0  0
   59.3410   29.1860   48.8330 C   0  0  0  0  0  0  0  0  0  0  0  0
   60.5920   29.4980   48.2960 C   0  0  0  0  0  0  0  0  0  0  0  0
   61.4680   30.3330   48.9970 C   0  0  0  0  0  0  0  0  0  0  0  0
   59.2870   33.4370   49.3560 S   0  0  0  0  0  0  0  0  0  0  0  0
   58.5320   33.2860   47.8730 C   0  0  0  0  0  0  0  0  0  0  0  0
   57.2900   33.1320   47.7350 O   0  0  0  0  0  0  0  0  0  0  0  0
   59.4050   33.3500   46.8370 N   0  0  0  0  0  0  0  0  0  0  0  0
   58.9590   33.2250   45.4380 C   0  0  0  0  0  0  0  0  0  0  0  0
   58.5600   31.8020   45.1360 C   0  0  0  0  0  0  0  0  0  0  0  0
   59.3350   30.7280   45.6000 C   0  0  0  0  0  0  0  0  0  0  0  0
   58.9500   29.4120   45.3370 C   0  0  0  0  0  0  0  0  0  0  0  0
   57.7880   29.1420   44.5990 C   0  0  0  0  0  0  0  0  0  0  0  0
   57.4030   27.7780   44.3600 N   0  0  0  0  0  0  0  0  0  0  0  0
   57.3740   26.7680   45.3820 C   0  0  0  0  0  0  0  0  0  0  0  0
   57.3580   27.0990   46.5980 O   0  0  0  0  0  0  0  0  0  0  0  0
   57.3150   25.3390   45.0310 C   0  0  0  0  0  0  0  0  0  0  0  0
   57.3320   24.2610   45.9120 C   0  0  0  0  0  0  0  0  0  0  0  0
   57.2410   23.0200   45.2700 C   0  0  0  0  0  0  0  0  0  0  0  0
   57.1500   23.1100   43.8880 C   0  0  0  0  0  0  0  0  0  0  0  0
   57.1780   24.7360   43.4650 S   0  0  0  0  0  0  0  0  0  0  0  0
   56.9970   30.2160   44.1570 C   0  0  0  0  0  0  0  0  0  0  0  0
   57.3810   31.5340   44.4210 C   0  0  0  0  0  0  0  0  0  0  0  0
   62.8175   33.6703   46.9673 H   0  0  0  0  0  0  0  0  0  0  0  0
   61.9482   32.7028   45.7283 H   0  0  0  0  0  0  0  0  0  0  0  0
   61.8108   34.4939   45.7283 H   0  0  0  0  0  0  0  0  0  0  0  0
   62.7916   31.1239   51.5110 H   0  0  0  0  0  0  0  0  0  0  0  0
   61.4634   32.3149   51.7626 H   0  0  0  0  0  0  0  0  0  0  0  0
   59.5319   30.9577   51.7500 H   0  0  0  0  0  0  0  0  0  0  0  0
   57.9754   29.4655   50.4953 H   0  0  0  0  0  0  0  0  0  0  0  0
   58.6544   28.5274   48.2809 H   0  0  0  0  0  0  0  0  0  0  0  0
   60.8888   29.0863   47.3201 H   0  0  0  0  0  0  0  0  0  0  0  0
   62.4540   30.5736   48.5728 H   0  0  0  0  0  0  0  0  0  0  0  0
   58.0953   33.8859   45.2729 H   0  0  0  0  0  0  0  0  0  0  0  0
   59.7877   33.5109   44.7735 H   0  0  0  0  0  0  0  0  0  0  0  0
   60.2521   30.9243   46.1748 H   0  0  0  0  0  0  0  0  0  0  0  0
   59.5634   28.5794   45.7119 H   0  0  0  0  0  0  0  0  0  0  0  0
   57.0200   27.5400   43.4180 H   0  0  0  0  0  0  0  0  0  0  0  0
   57.4092   24.3731   47.0035 H   0  0  0  0  0  0  0  0  0  0  0  0
   57.2416   22.0622   45.8110 H   0  0  0  0  0  0  0  0  0  0  0  0
   57.0729   22.2632   43.1902 H   0  0  0  0  0  0  0  0  0  0  0  0
   56.0695   30.0184   43.5996 H   0  0  0  0  0  0  0  0  0  0  0  0
   56.7558   32.3667   44.0665 H   0  0  0  0  0  0  0  0  0  0  0  0
  1  2  1  0
  2  3  2  0
  3  4  1  0
  4  5  2  0
  4  6  1  0
  6  7  1  0
  7  8  1  0
  8  9  2  0
  9 10  1  0
 10 11  2  0
 11 12  1  0
 12 13  2  0
  3 14  1  0
 14 15  1  0
 15 16  2  0
 15 17  1  0
 17 18  1  0
 18 19  1  0
 19 20  2  0
 20 21  1  0
 21 22  2  0
 22 23  1  0
 23 24  1  0
 24 25  2  0
 24 26  1  0
 26 27  2  0
 27 28  1  0
 28 29  2  0
 29 30  1  0
 22 31  1  0
 31 32  2  0
 17  2  1  0
 32 19  1  0
 13  8  1  0
 30 26  1  0
  1 33  1  0
  1 34  1  0
  1 35  1  0
  7 36  1  0
  7 37  1  0
  9 38  1  0
 10 39  1  0
 11 40  1  0
 12 41  1  0
 13 42  1  0
 18 43  1  0
 18 44  1  0
 20 45  1  0
 21 46  1  0
 23 47  1  0
 27 48  1  0
 28 49  1  0
 29 50  1  0
 31 51  1  0
 32 52  1  0
M  CHG  1   6  -1
M  END
>  <UniqueID>  (87) 
84

>  <SMILES>  (87) 
Cc1c(C(=O)[N-]Cc2ccccc2)sc(=O)n1Cc1ccc(NC(=O)c2cccs2)cc1

>  <Energy>  (87) 
116.97260497108383

>  <Genealogy>  (87) 
Cc1c(C(=O)[N-]Cc2ccccc2)sc(=O)n1Cc1ccc(NC(=O)c2cccs2)cc1 (protonated)
Cc1c(C(=O)[N-]Cc2ccccc2)sc(=O)n1Cc1ccc(NC(=O)c2cccs2)cc1 (3D coordinates assigned)
Cc1c(C(=O)[N-]Cc2ccccc2)sc(=O)n1Cc1ccc(NC(=O)c2cccs2)cc1 (optimized conformer: 116.97260497108383 kcal/mol)

>  <smiles>  (87) 
Cc1c(C(=O)NCc2ccccc2)sc(=O)n1Cc1ccc(NC(=O)c2cccs2)cc1

>  <score_type>  (87) 
oracle

>  <origin>  (87) 
adg

>  <m_score__min__energy>  (87) 
-10.300000000000001

>  <m_primary>  (87) 
energy

$$$$
87:0
     RDKit          3D

 59 64  0  0  0  0  0  0  0  0999 V2000
   55.5690   24.8820   46.6320 O   0  0  0  0  0  0  0  0  0  0  0  0
   55.9380   25.5520   45.6290 C   0  0  0  0  0  0  0  0  0  0  0  0
   56.3420   24.8910   44.4220 N   0  0  0  0  0  0  0  0  0  0  0  0
   56.5330   23.4720   44.2990 C   0  0  0  0  0  0  0  0  0  0  0  0
   56.4990   22.8820   43.0250 C   0  0  0  0  0  0  0  0  0  0  0  0
   56.7030   21.5060   42.8770 C   0  0  0  0  0  0  0  0  0  0  0  0
   56.9590   20.7110   43.9960 C   0  0  0  0  0  0  0  0  0  0  0  0
   57.0180   21.2920   45.2660 C   0  0  0  0  0  0  0  0  0  0  0  0
   56.8130   22.6670   45.4180 C   0  0  0  0  0  0  0  0  0  0  0  0
   55.9720   26.9510   45.6780 O   0  0  0  0  0  0  0  0  0  0  0  0
   57.1120   27.7270   45.9400 C   0  0  0  0  0  0  0  0  0  0  0  0
   58.2280   27.2180   46.6290 C   0  0  0  0  0  0  0  0  0  0  0  0
   59.3370   28.0310   46.8730 C   0  0  0  0  0  0  0  0  0  0  0  0
   59.3470   29.3660   46.4420 C   0  0  0  0  0  0  0  0  0  0  0  0
   60.5540   30.2320   46.6830 C   0  0  0  0  0  0  0  0  0  0  0  0
   60.3920   31.0180   47.9110 N   0  0  0  0  0  0  0  0  0  0  0  0
   60.0570   30.4730   49.1870 C   0  0  0  0  0  0  0  0  0  0  0  0
   59.9870   29.2400   49.4380 O   0  0  0  0  0  0  0  0  0  0  0  0
   59.7780   31.5350   50.1210 C   0  0  0  0  0  0  0  0  0  0  0  0
   59.3910   31.4790   51.4580 C   0  0  0  0  0  0  0  0  0  0  0  0
   59.1510   32.6910   52.1280 C   0  0  0  0  0  0  0  0  0  0  0  0
   59.2950   33.9190   51.4510 C   0  0  0  0  0  0  0  0  0  0  0  0
   59.6820   33.9440   50.1000 C   0  0  0  0  0  0  0  0  0  0  0  0
   59.9250   32.7300   49.4510 C   0  0  0  0  0  0  0  0  0  0  0  0
   60.3350   32.4910   48.0150 C   0  0  1  0  0  0  0  0  0  0  0  0
   61.6860   33.1640   47.6590 C   0  0  0  0  0  0  0  0  0  0  0  0
   61.4530   33.9900   46.3780 C   0  0  0  0  0  0  0  0  0  0  0  0
   59.9900   33.8970   46.1430 C   0  0  0  0  0  0  0  0  0  0  0  0
   59.2710   34.5250   45.1230 C   0  0  0  0  0  0  0  0  0  0  0  0
   57.8880   34.3040   45.0370 C   0  0  0  0  0  0  0  0  0  0  0  0
   57.2490   33.4590   45.9600 C   0  0  0  0  0  0  0  0  0  0  0  0
   57.9890   32.8330   46.9730 C   0  0  0  0  0  0  0  0  0  0  0  0
   59.3640   33.0750   47.0480 C   0  0  0  0  0  0  0  0  0  0  0  0
   58.2230   29.8810   45.7790 C   0  0  0  0  0  0  0  0  0  0  0  0
   57.1130   29.0670   45.5350 C   0  0  0  0  0  0  0  0  0  0  0  0
   56.4080   25.4760   43.5590 H   0  0  0  0  0  0  0  0  0  0  0  0
   56.3109   23.5054   42.1385 H   0  0  0  0  0  0  0  0  0  0  0  0
   56.6617   21.0494   41.8771 H   0  0  0  0  0  0  0  0  0  0  0  0
   57.1141   19.6284   43.8782 H   0  0  0  0  0  0  0  0  0  0  0  0
   57.2259   20.6669   46.1469 H   0  0  0  0  0  0  0  0  0  0  0  0
   56.8710   23.1215   46.4180 H   0  0  0  0  0  0  0  0  0  0  0  0
   58.2271   26.1746   46.9772 H   0  0  0  0  0  0  0  0  0  0  0  0
   60.2079   27.6221   47.4063 H   0  0  0  0  0  0  0  0  0  0  0  0
   61.4439   29.5925   46.7785 H   0  0  0  0  0  0  0  0  0  0  0  0
   60.6690   30.9222   45.8342 H   0  0  0  0  0  0  0  0  0  0  0  0
   59.2766   30.5145   51.9743 H   0  0  0  0  0  0  0  0  0  0  0  0
   58.8493   32.6812   53.1858 H   0  0  0  0  0  0  0  0  0  0  0  0
   59.1035   34.8627   51.9828 H   0  0  0  0  0  0  0  0  0  0  0  0
   59.7913   34.8987   49.5647 H   0  0  0  0  0  0  0  0  0  0  0  0
   62.0084   33.8219   48.4795 H   0  0  0  0  0  0  0  0  0  0  0  0
   62.4717   32.4101   47.5031 H   0  0  0  0  0  0  0  0  0  0  0  0
   61.7579   35.0362   46.5280 H   0  0  0  0  0  0  0  0  0  0  0  0
   62.0402   33.6182   45.5254 H   0  0  0  0  0  0  0  0  0  0  0  0
   59.7796   35.1805   44.4008 H   0  0  0  0  0  0  0  0  0  0  0  0
   57.3025   34.7936   44.2449 H   0  0  0  0  0  0  0  0  0  0  0  0
   56.1648   33.2881   45.8876 H   0  0  0  0  0  0  0  0  0  0  0  0
   57.4973   32.1643   47.6949 H   0  0  0  0  0  0  0  0  0  0  0  0
   58.2151   30.9305   45.4495 H   0  0  0  0  0  0  0  0  0  0  0  0
   56.2338   29.4826   45.0209 H   0  0  0  0  0  0  0  0  0  0  0  0
  1  2  2  0
  2  3  1  0
  3  4  1  0
  4  5  2  0
  5  6  1  0
  6  7  2  0
  7  8  1  0
  8  9  2  0
  2 10  1  0
 10 11  1  0
 11 12  2  0
 12 13  1  0
 13 14  2  0
 14 15  1  0
 15 16  1  0
 16 17  1  0
 17 18  2  0
 17 19  1  0
 19 20  2  0
 20 21  1  0
 21 22  2  0
 22 23  1  0
 23 24  2  0
 24 25  1  0
 25 26  1  0
 26 27  1  0
 27 28  1  0
 28 29  2  0
 29 30  1  0
 30 31  2  0
 31 32  1  0
 32 33  2  0
 14 34  1  0
 34 35  2  0
  9  4  1  0
 35 11  1  0
 25 16  1  6
 33 28  1  0
 24 19  1  0
 33 25  1  0
  3 36  1  0
  5 37  1  0
  6 38  1  0
  7 39  1  0
  8 40  1  0
  9 41  1  0
 12 42  1  0
 13 43  1  0
 15 44  1  0
 15 45  1  0
 20 46  1  0
 21 47  1  0
 22 48  1  0
 23 49  1  0
 26 50  1  0
 26 51  1  0
 27 52  1  0
 27 53  1  0
 29 54  1  0
 30 55  1  0
 31 56  1  0
 32 57  1  0
 34 58  1  0
 35 59  1  0
M  END
>  <UniqueID>  (88) 
85

>  <SMILES>  (88) 
O=C(Nc1ccccc1)Oc1ccc(CN2C(=O)c3ccccc3[C@@]23CCc2ccccc23)cc1

>  <Energy>  (88) 
103.0772115228277

>  <Genealogy>  (88) 
O=C(Nc1ccccc1)Oc1ccc(CN2C(=O)c3ccccc3[C@@]23CCc2ccccc23)cc1 (chirality)
O=C(Nc1ccccc1)Oc1ccc(CN2C(=O)c3ccccc3[C@@]23CCc2ccccc23)cc1 (3D coordinates assigned)
O=C(Nc1ccccc1)Oc1ccc(CN2C(=O)c3ccccc3[C@@]23CCc2ccccc23)cc1 (nonaromatic ring conformer: 103.0772115228277 kcal/mol)

>  <smiles>  (88) 
O=C(Nc1ccccc1)Oc1ccc(CN2C(=O)c3ccccc3C23CCc2ccccc23)cc1

>  <score_type>  (88) 
oracle

>  <origin>  (88) 
adg

>  <m_score__min__energy>  (88) 
-11.220000000000001

>  <m_primary>  (88) 
energy

$$$$
88:0
     RDKit          3D

 46 49  0  0  0  0  0  0  0  0999 V2000
   63.8150   33.6730   50.7890 C   0  0  0  0  0  0  0  0  0  0  0  0
   63.3020   33.5390   49.3930 C   0  0  0  0  0  0  0  0  0  0  0  0
   64.0980   33.1360   48.3230 C   0  0  0  0  0  0  0  0  0  0  0  0
   63.1460   33.1520   46.9380 S   0  0  0  0  0  0  0  0  0  0  0  0
   61.7690   33.6790   47.7550 C   0  0  0  0  0  0  0  0  0  0  0  0
   60.4860   33.9290   47.1530 N   0  0  0  0  0  0  0  0  0  0  0  0
   59.2610   33.9420   47.9630 C   0  0  0  0  0  0  0  0  0  0  0  0
   58.0720   33.4780   47.1160 C   0  0  0  0  0  0  0  0  0  0  0  0
   57.8850   34.3150   45.9080 N   0  0  0  0  0  0  0  0  0  0  0  0
   57.0430   33.6570   44.8840 C   0  0  0  0  0  0  0  0  0  0  0  0
   57.2340   32.1670   44.8520 C   0  0  0  0  0  0  0  0  0  0  0  0
   58.4330   31.5630   44.9450 N   0  0  0  0  0  0  0  0  0  0  0  0
   58.0710   30.2640   44.9590 C   0  0  0  0  0  0  0  0  0  0  0  0
   59.0330   29.1520   45.2240 C   0  0  0  0  0  0  0  0  0  0  0  0
   59.6570   29.3500   46.5780 C   0  0  0  0  0  0  0  0  0  0  0  0
   59.1070   28.7260   47.7100 C   0  0  0  0  0  0  0  0  0  0  0  0
   59.6430   28.9700   48.9790 C   0  0  0  0  0  0  0  0  0  0  0  0
   60.7240   29.8420   49.1270 C   0  0  0  0  0  0  0  0  0  0  0  0
   61.2660   30.4790   48.0090 C   0  0  0  0  0  0  0  0  0  0  0  0
   60.7340   30.2390   46.7380 C   0  0  0  0  0  0  0  0  0  0  0  0
   56.7380   30.0940   44.8800 N   0  0  0  0  0  0  0  0  0  0  0  0
   56.2560   31.2970   44.8070 O   0  0  0  0  0  0  0  0  0  0  0  0
   59.1160   34.9380   45.3610 C   0  0  0  0  0  0  0  0  0  0  0  0
   60.3940   34.1580   45.7070 C   0  0  0  0  0  0  0  0  0  0  0  0
   62.0150   33.8450   49.0740 N   0  0  0  0  0  0  0  0  0  0  0  0
   63.0029   33.4609   51.5000 H   0  0  0  0  0  0  0  0  0  0  0  0
   64.6370   32.9594   50.9477 H   0  0  0  0  0  0  0  0  0  0  0  0
   64.1830   34.6974   50.9477 H   0  0  0  0  0  0  0  0  0  0  0  0
   65.1607   32.8569   48.3753 H   0  0  0  0  0  0  0  0  0  0  0  0
   59.3839   33.2650   48.8213 H   0  0  0  0  0  0  0  0  0  0  0  0
   59.0738   34.9652   48.3208 H   0  0  0  0  0  0  0  0  0  0  0  0
   58.2446   32.4377   46.8029 H   0  0  0  0  0  0  0  0  0  0  0  0
   57.1644   33.5656   47.7313 H   0  0  0  0  0  0  0  0  0  0  0  0
   55.9870   33.8725   45.1041 H   0  0  0  0  0  0  0  0  0  0  0  0
   57.3407   34.0531   43.9019 H   0  0  0  0  0  0  0  0  0  0  0  0
   58.4990   28.1905   45.2020 H   0  0  0  0  0  0  0  0  0  0  0  0
   59.8171   29.1499   44.4525 H   0  0  0  0  0  0  0  0  0  0  0  0
   58.2519   28.0431   47.5982 H   0  0  0  0  0  0  0  0  0  0  0  0
   59.2124   28.4743   49.8616 H   0  0  0  0  0  0  0  0  0  0  0  0
   61.1485   30.0270   50.1248 H   0  0  0  0  0  0  0  0  0  0  0  0
   62.1129   31.1708   48.1281 H   0  0  0  0  0  0  0  0  0  0  0  0
   61.1599   30.7477   45.8606 H   0  0  0  0  0  0  0  0  0  0  0  0
   59.0243   34.9909   44.2661 H   0  0  0  0  0  0  0  0  0  0  0  0
   59.2080   35.9351   45.8164 H   0  0  0  0  0  0  0  0  0  0  0  0
   60.3768   33.1882   45.1882 H   0  0  0  0  0  0  0  0  0  0  0  0
   61.2658   34.7471   45.3860 H   0  0  0  0  0  0  0  0  0  0  0  0
  1  2  1  0
  2  3  2  0
  3  4  1  0
  4  5  1  0
  5  6  1  0
  6  7  1  0
  7  8  1  0
  8  9  1  0
  9 10  1  0
 10 11  1  0
 11 12  2  0
 12 13  1  0
 13 14  1  0
 14 15  1  0
 15 16  2  0
 16 17  1  0
 17 18  2  0
 18 19  1  0
 19 20  2  0
 13 21  2  0
 21 22  1  0
  9 23  1  0
 23 24  1  0
  5 25  2  0
 25  2  1  0
 24  6  1  0
 22 11  1  0
 20 15  1  0
  1 26  1  0
  1 27  1  0
  1 28  1  0
  3 29  1  0
  7 30  1  0
  7 31  1  0
  8 32  1  0
  8 33  1  0
 10 34  1  0
 10 35  1  0
 14 36  1  0
 14 37  1  0
 16 38  1  0
 17 39  1  0
 18 40  1  0
 19 41  1  0
 20 42  1  0
 23 43  1  0
 23 44  1  0
 24 45  1  0
 24 46  1  0
M  END
>  <UniqueID>  (89) 
86

>  <SMILES>  (89) 
Cc1csc(N2CCN(Cc3nc(Cc4ccccc4)no3)CC2)n1

>  <Energy>  (89) 
112.57785784785627

>  <Genealogy>  (89) 
Cc1csc(N2CCN(Cc3nc(Cc4ccccc4)no3)CC2)n1 (3D coordinates assigned)
Cc1csc(N2CCN(Cc3nc(Cc4ccccc4)no3)CC2)n1 (nonaromatic ring conformer: 112.57785784785627 kcal/mol)

>  <smiles>  (89) 
Cc1csc(N2CCN(Cc3nc(Cc4ccccc4)no3)CC2)n1

>  <score_type>  (89) 
oracle

>  <origin>  (89) 
adg

>  <m_score__min__energy>  (89) 
-8.5199999999999996

>  <m_primary>  (89) 
energy

$$$$
89:0
     RDKit          3D

 43 44  0  0  0  0  0  0  0  0999 V2000
   53.8410   24.8550   45.5340 C   0  0  0  0  0  0  0  0  0  0  0  0
   54.6130   26.0000   45.8800 O   0  0  0  0  0  0  0  0  0  0  0  0
   56.0160   26.0260   45.9400 C   0  0  0  0  0  0  0  0  0  0  0  0
   56.7680   24.8900   46.3040 C   0  0  0  0  0  0  0  0  0  0  0  0
   58.1610   24.9510   46.3450 C   0  0  0  0  0  0  0  0  0  0  0  0
   58.8200   26.1350   46.0160 C   0  0  0  0  0  0  0  0  0  0  0  0
   58.0870   27.2680   45.6560 C   0  0  0  0  0  0  0  0  0  0  0  0
   56.6790   27.2270   45.6330 C   0  0  0  0  0  0  0  0  0  0  0  0
   55.8930   28.3650   45.2440 N   0  0  0  0  0  0  0  0  0  0  0  0
   56.2920   29.4490   44.3950 C   0  0  0  0  0  0  0  0  0  0  0  0
   55.4370   30.2300   43.8990 O   0  0  0  0  0  0  0  0  0  0  0  0
   57.7430   29.6110   44.0360 C   0  0  0  0  0  0  0  0  0  0  0  0
   58.4010   30.7340   44.7340 N   0  0  0  0  0  0  0  0  0  0  0  0
   57.4440   31.7060   45.2950 C   0  0  0  0  0  0  0  0  0  0  0  0
   58.1520   32.9650   45.7260 C   0  0  0  0  0  0  0  0  0  0  0  0
   58.6900   33.8470   44.7730 C   0  0  0  0  0  0  0  0  0  0  0  0
   59.3450   35.0110   45.1840 C   0  0  0  0  0  0  0  0  0  0  0  0
   59.4760   35.3000   46.5450 C   0  0  0  0  0  0  0  0  0  0  0  0
   58.9540   34.4220   47.4990 C   0  0  0  0  0  0  0  0  0  0  0  0
   58.2970   33.2560   47.0930 C   0  0  0  0  0  0  0  0  0  0  0  0
   59.5940   30.2020   45.9060 S   0  0  0  0  0  0  0  0  0  0  0  0
   60.6870   28.9430   45.2690 C   0  0  0  0  0  0  0  0  0  0  0  0
   60.4250   31.3690   46.3610 O   0  0  0  0  0  0  0  0  0  0  0  0
   58.8770   29.6380   47.1010 O   0  0  0  0  0  0  0  0  0  0  0  0
   53.5013   24.3511   46.4509 H   0  0  0  0  0  0  0  0  0  0  0  0
   52.9679   25.1667   44.9419 H   0  0  0  0  0  0  0  0  0  0  0  0
   54.4573   24.1625   44.9419 H   0  0  0  0  0  0  0  0  0  0  0  0
   56.2536   23.9511   46.5569 H   0  0  0  0  0  0  0  0  0  0  0  0
   58.7409   24.0632   46.6375 H   0  0  0  0  0  0  0  0  0  0  0  0
   59.9189   26.1767   46.0400 H   0  0  0  0  0  0  0  0  0  0  0  0
   58.6118   28.1972   45.3890 H   0  0  0  0  0  0  0  0  0  0  0  0
   58.2717   28.6820   44.2957 H   0  0  0  0  0  0  0  0  0  0  0  0
   57.7873   29.8292   42.9588 H   0  0  0  0  0  0  0  0  0  0  0  0
   56.6947   31.9573   44.5299 H   0  0  0  0  0  0  0  0  0  0  0  0
   56.9578   31.2561   46.1732 H   0  0  0  0  0  0  0  0  0  0  0  0
   58.5952   33.6204   43.7008 H   0  0  0  0  0  0  0  0  0  0  0  0
   59.7586   35.7016   44.4343 H   0  0  0  0  0  0  0  0  0  0  0  0
   59.9899   36.2183   46.8654 H   0  0  0  0  0  0  0  0  0  0  0  0
   59.0600   34.6483   48.5702 H   0  0  0  0  0  0  0  0  0  0  0  0
   57.8923   32.5643   47.8465 H   0  0  0  0  0  0  0  0  0  0  0  0
   61.1542   28.4048   46.1069 H   0  0  0  0  0  0  0  0  0  0  0  0
   60.1120   28.2353   44.6537 H   0  0  0  0  0  0  0  0  0  0  0  0
   61.4684   29.4129   44.6537 H   0  0  0  0  0  0  0  0  0  0  0  0
  1  2  1  0
  2  3  1  0
  3  4  2  0
  4  5  1  0
  5  6  2  0
  6  7  1  0
  7  8  2  0
  8  9  1  0
  9 10  1  0
 10 11  2  0
 10 12  1  0
 12 13  1  0
 13 14  1  0
 14 15  1  0
 15 16  2  0
 16 17  1  0
 17 18  2  0
 18 19  1  0
 19 20  2  0
 13 21  1  0
 21 22  1  0
 21 23  2  0
 21 24  2  0
  8  3  1  0
 20 15  1  0
  1 25  1  0
  1 26  1  0
  1 27  1  0
  4 28  1  0
  5 29  1  0
  6 30  1  0
  7 31  1  0
 12 32  1  0
 12 33  1  0
 14 34  1  0
 14 35  1  0
 16 36  1  0
 17 37  1  0
 18 38  1  0
 19 39  1  0
 20 40  1  0
 22 41  1  0
 22 42  1  0
 22 43  1  0
M  CHG  1   9  -1
M  END
>  <UniqueID>  (90) 
87

>  <SMILES>  (90) 
COc1ccccc1[N-]C(=O)CN(Cc1ccccc1)S(C)(=O)=O

>  <Energy>  (90) 
43.06330801623082

>  <Genealogy>  (90) 
COc1ccccc1[N-]C(=O)CN(Cc1ccccc1)S(C)(=O)=O (protonated)
COc1ccccc1[N-]C(=O)CN(Cc1ccccc1)S(C)(=O)=O (3D coordinates assigned)
COc1ccccc1[N-]C(=O)CN(Cc1ccccc1)S(C)(=O)=O (optimized conformer: 43.06330801623082 kcal/mol)

>  <smiles>  (90) 
COc1ccccc1NC(=O)CN(Cc1ccccc1)S(C)(=O)=O

>  <score_type>  (90) 
oracle

>  <origin>  (90) 
adg

>  <m_score__min__energy>  (90) 
-10.6

>  <m_primary>  (90) 
energy

$$$$
