0:0
     RDKit          3D

 41 44  0  0  1  0  0  0  0  0999 V2000
   60.7410   28.8090   45.3770 C   0  0  0  0  0  0  0  0  0  0  0  0
   59.3650   29.0490   44.8700 C   0  0  0  0  0  0  0  0  0  0  0  0
   58.6870   28.1660   44.0620 C   0  0  0  0  0  0  0  0  0  0  0  0
   57.3980   28.4500   43.6190 C   0  0  0  0  0  0  0  0  0  0  0  0
   56.7490   29.6170   43.9680 C   0  0  0  0  0  0  0  0  0  0  0  0
   57.4370   30.5030   44.7830 C   0  0  0  0  0  0  0  0  0  0  0  0
   56.8700   31.7330   45.2040 N   0  0  0  0  0  0  0  0  0  0  0  0
   57.6370   32.7600   45.4470 C   0  0  0  0  0  0  0  0  0  0  0  0
   57.8340   33.7140   44.5180 N   0  0  0  0  0  0  0  0  0  0  0  0
   58.6500   34.7580   44.8470 C   0  0  0  0  0  0  0  0  0  0  0  0
   59.2420   34.8400   46.0550 N   0  0  0  0  0  0  0  0  0  0  0  0
   59.0390   33.8790   46.9760 C   0  0  0  0  0  0  0  0  0  0  0  0
   58.2240   32.8000   46.7020 C   0  0  0  0  0  0  0  0  0  0  0  0
   58.1810   31.9960   47.7580 N   0  0  0  0  0  0  0  0  0  0  0  0
   58.9540   32.5300   48.7220 C   0  0  0  0  0  0  0  0  0  0  0  0
   59.4740   33.6810   48.2350 N   0  0  0  0  0  0  0  0  0  0  0  0
   60.3640   34.5390   48.9950 C   0  0  0  0  0  0  0  0  0  0  0  0
   61.7660   34.0470   48.9520 C   0  0  0  0  0  0  0  0  0  0  0  0
   62.2550   33.6890   47.6910 C   0  0  0  0  0  0  0  0  0  0  0  0
   63.5380   33.2220   47.5420 C   0  0  0  0  0  0  0  0  0  0  0  0
   64.3550   33.1060   48.6600 C   0  0  0  0  0  0  0  0  0  0  0  0
   63.8410   33.4680   49.8900 C   0  0  0  0  0  0  0  0  0  0  0  0
   62.5640   33.9390   50.0730 C   0  0  0  0  0  0  0  0  0  0  0  0
   58.7220   30.2110   45.2190 C   0  0  0  0  0  0  0  0  0  0  0  0
   60.7319   28.8106   46.4770 H   0  0  0  0  0  0  0  0  0  0  0  0
   61.1005   27.8346   45.0147 H   0  0  0  0  0  0  0  0  0  0  0  0
   61.4092   29.6042   45.0147 H   0  0  0  0  0  0  0  0  0  0  0  0
   59.1692   27.2239   43.7622 H   0  0  0  0  0  0  0  0  0  0  0  0
   56.8825   27.7241   42.9729 H   0  0  0  0  0  0  0  0  0  0  0  0
   55.7302   29.8347   43.6149 H   0  0  0  0  0  0  0  0  0  0  0  0
   57.3720   33.6400   43.5900 H   0  0  0  0  0  0  0  0  0  0  0  0
   58.8288   35.5524   44.1074 H   0  0  0  0  0  0  0  0  0  0  0  0
   59.1308   32.1082   49.7224 H   0  0  0  0  0  0  0  0  0  0  0  0
   60.3286   35.5540   48.5725 H   0  0  0  0  0  0  0  0  0  0  0  0
   60.0308   34.5385   50.0433 H   0  0  0  0  0  0  0  0  0  0  0  0
   61.6045   33.7826   46.8089 H   0  0  0  0  0  0  0  0  0  0  0  0
   63.9152   32.9425   46.5472 H   0  0  0  0  0  0  0  0  0  0  0  0
   65.3864   32.7348   48.5678 H   0  0  0  0  0  0  0  0  0  0  0  0
   64.4910   33.3737   50.7724 H   0  0  0  0  0  0  0  0  0  0  0  0
   62.1930   34.2182   51.0702 H   0  0  0  0  0  0  0  0  0  0  0  0
   59.2420   30.9337   45.8649 H   0  0  0  0  0  0  0  0  0  0  0  0
  1  2  1  0
  2  3  2  0
  3  4  1  0
  4  5  2  0
  5  6  1  0
  6  7  1  0
  7  8  2  0
  8  9  1  0
  9 10  1  0
 10 11  2  0
 11 12  1  0
 12 13  2  0
 13 14  1  0
 14 15  2  0
 15 16  1  0
 16 17  1  0
 17 18  1  0
 18 19  2  0
 19 20  1  0
 20 21  2  0
 21 22  1  0
 22 23  2  0
  6 24  2  0
 24  2  1  0
 13  8  1  0
 23 18  1  0
 16 12  1  0
  1 25  1  0
  1 26  1  0
  1 27  1  0
  3 28  1  0
  4 29  1  0
  5 30  1  0
  9 31  1  0
 10 32  1  0
 15 33  1  0
 17 34  1  0
 17 35  1  0
 19 36  1  0
 20 37  1  0
 21 38  1  0
 22 39  1  0
 23 40  1  0
 24 41  1  0
M  END
>  <smiles>  (1) 
Cc1cccc(N=c2[nH]cnc3c2ncn3Cc2ccccc2)c1

>  <score_type>  (1) 
oracle

>  <origin>  (1) 
adg

>  <m_score__min__energy>  (1) 
-7.8600000000000003

>  <m_primary>  (1) 
energy

$$$$
1:0
     RDKit          3D

 55 58  0  0  0  0  0  0  0  0999 V2000
   55.1420   28.1560   45.8890 H   0  0  0  0  0  0  0  0  0  0  0  0
   55.9420   27.5000   45.7480 N   0  0  0  0  0  0  0  0  0  0  0  0
   55.7740   26.2170   45.7530 C   0  0  0  0  0  0  0  0  0  0  0  0
   54.5200   25.6840   45.6800 N   0  0  0  0  0  0  0  0  0  0  0  0
   54.3260   24.3320   45.6310 C   0  0  0  0  0  0  0  0  0  0  0  0
   53.3060   23.9225   45.5884 H   0  0  0  0  0  0  0  0  0  0  0  0
   55.3990   23.4930   45.6350 N   0  0  0  0  0  0  0  0  0  0  0  0
   56.6180   24.0210   45.7140 N   0  0  0  0  0  0  0  0  0  0  0  0
   57.8110   23.4040   45.6820 C   0  0  0  0  0  0  0  0  0  0  0  0
   58.0050   21.9150   45.5370 C   0  0  0  0  0  0  0  0  0  0  0  0
   58.9621   21.7361   45.0251 H   0  0  0  0  0  0  0  0  0  0  0  0
   57.9888   21.4848   46.5493 H   0  0  0  0  0  0  0  0  0  0  0  0
   56.9260   21.2540   44.7620 N   0  0  0  0  0  0  0  0  0  0  0  0
   57.1660   21.2700   43.3000 C   0  0  0  0  0  0  0  0  0  0  0  0
   58.2465   21.3594   43.1143 H   0  0  0  0  0  0  0  0  0  0  0  0
   56.7760   20.3348   42.8718 H   0  0  0  0  0  0  0  0  0  0  0  0
   56.4470   22.4440   42.6370 C   0  0  0  0  0  0  0  0  0  0  0  0
   56.0394   23.1095   43.4123 H   0  0  0  0  0  0  0  0  0  0  0  0
   57.1579   23.0029   42.0107 H   0  0  0  0  0  0  0  0  0  0  0  0
   55.6261   22.0648   42.0107 H   0  0  0  0  0  0  0  0  0  0  0  0
   56.6400   19.8890   45.2580 C   0  0  0  0  0  0  0  0  0  0  0  0
   55.8816   19.4205   44.6135 H   0  0  0  0  0  0  0  0  0  0  0  0
   57.5687   19.2999   45.2380 H   0  0  0  0  0  0  0  0  0  0  0  0
   56.1180   19.9430   46.6920 C   0  0  0  0  0  0  0  0  0  0  0  0
   56.9614   19.8557   47.3927 H   0  0  0  0  0  0  0  0  0  0  0  0
   55.6007   20.8995   46.8581 H   0  0  0  0  0  0  0  0  0  0  0  0
   55.4159   19.1127   46.8581 H   0  0  0  0  0  0  0  0  0  0  0  0
   58.8320   24.2920   45.7460 N   0  0  0  0  0  0  0  0  0  0  0  0
   58.2330   25.5070   45.8280 C   0  0  0  0  0  0  0  0  0  0  0  0
   58.9910   26.7660   45.9360 C   0  0  0  0  0  0  0  0  0  0  0  0
   59.4960   27.1700   47.1790 C   0  0  0  0  0  0  0  0  0  0  0  0
   59.3414   26.5363   48.0647 H   0  0  0  0  0  0  0  0  0  0  0  0
   60.1950   28.3740   47.2990 C   0  0  0  0  0  0  0  0  0  0  0  0
   60.5966   28.6755   48.2777 H   0  0  0  0  0  0  0  0  0  0  0  0
   60.3890   29.2000   46.1860 C   0  0  0  0  0  0  0  0  0  0  0  0
   61.1110   30.3920   46.3600 O   0  0  0  0  0  0  0  0  0  0  0  0
   60.7400   31.4620   47.2290 C   0  0  0  0  0  0  0  0  0  0  0  0
   60.2400   31.0483   48.1172 H   0  0  0  0  0  0  0  0  0  0  0  0
   61.6481   32.0099   47.5208 H   0  0  0  0  0  0  0  0  0  0  0  0
   59.8040   32.4150   46.5350 C   0  0  0  0  0  0  0  0  0  0  0  0
   58.5580   31.9740   46.0570 C   0  0  0  0  0  0  0  0  0  0  0  0
   58.2637   30.9218   46.1846 H   0  0  0  0  0  0  0  0  0  0  0  0
   57.6910   32.8670   45.4200 C   0  0  0  0  0  0  0  0  0  0  0  0
   56.7196   32.5149   45.0428 H   0  0  0  0  0  0  0  0  0  0  0  0
   58.0570   34.2060   45.2620 C   0  0  0  0  0  0  0  0  0  0  0  0
   57.3757   34.9063   44.7567 H   0  0  0  0  0  0  0  0  0  0  0  0
   59.2890   34.6560   45.7460 C   0  0  0  0  0  0  0  0  0  0  0  0
   59.5752   35.7111   45.6245 H   0  0  0  0  0  0  0  0  0  0  0  0
   60.1570   33.7660   46.3840 C   0  0  0  0  0  0  0  0  0  0  0  0
   61.1222   34.1255   46.7702 H   0  0  0  0  0  0  0  0  0  0  0  0
   59.8510   28.8110   44.9430 C   0  0  0  0  0  0  0  0  0  0  0  0
   59.9815   29.4579   44.0629 H   0  0  0  0  0  0  0  0  0  0  0  0
   59.1520   27.6060   44.8240 C   0  0  0  0  0  0  0  0  0  0  0  0
   58.7257   27.3149   43.8526 H   0  0  0  0  0  0  0  0  0  0  0  0
   56.8540   25.3320   45.7940 C   0  0  0  0  0  0  0  0  0  0  0  0
  1  2  1  0
  2  3  2  0
  3  4  1  0
  4  5  2  0
  5  6  1  0
  5  7  1  0
  7  8  1  0
  8  9  1  0
  9 10  1  0
 10 11  1  0
 10 12  1  0
 10 13  1  0
 13 14  1  0
 14 15  1  0
 14 16  1  0
 14 17  1  0
 17 18  1  0
 17 19  1  0
 17 20  1  0
 13 21  1  0
 21 22  1  0
 21 23  1  0
 21 24  1  0
 24 25  1  0
 24 26  1  0
 24 27  1  0
  9 28  2  0
 28 29  1  0
 29 30  1  0
 30 31  2  0
 31 32  1  0
 31 33  1  0
 33 34  1  0
 33 35  2  0
 35 36  1  0
 36 37  1  0
 37 38  1  0
 37 39  1  0
 37 40  1  0
 40 41  2  0
 41 42  1  0
 41 43  1  0
 43 44  1  0
 43 45  2  0
 45 46  1  0
 45 47  1  0
 47 48  1  0
 47 49  2  0
 49 50  1  0
 35 51  1  0
 51 52  1  0
 51 53  2  0
 53 54  1  0
 29 55  2  0
 55  3  1  0
 55  8  1  0
 53 30  1  0
 49 40  1  0
M  CHG  1   7  -1
M  END
>  <UniqueID>  (2) 
1

>  <SMILES>  (2) 
[H]/N=c1\nc[n-]n2c(CN(CC)CC)nc(-c3ccc(OCc4ccccc4)cc3)c12

>  <Energy>  (2) 
103.83870296934367

>  <Genealogy>  (2) 
CCN(CC)Cc1nc(-c2ccc(OCc3ccccc3)cc2)c2c(=N)nc[n-]n12 (protonated)
[H]/N=c1\nc[n-]n2c(CN(CC)CC)nc(-c3ccc(OCc4ccccc4)cc3)c12 (cis-trans isomerization)
[H]/N=c1\nc[n-]n2c(CN(CC)CC)nc(-c3ccc(OCc4ccccc4)cc3)c12 (3D coordinates assigned)
[H]/N=c1\nc[n-]n2c(CN(CC)CC)nc(-c3ccc(OCc4ccccc4)cc3)c12 (optimized conformer: 103.83870296934367 kcal/mol)

>  <smiles>  (2) 
CCN(CC)Cc1nc(-c2ccc(OCc3ccccc3)cc2)c2c(=N)nc[nH]n12

>  <score_type>  (2) 
oracle

>  <origin>  (2) 
adg

>  <m_score__min__energy>  (2) 
-9.0899999999999999

>  <m_primary>  (2) 
energy

$$$$
2:0
     RDKit          3D

 60 64  0  0  0  0  0  0  0  0999 V2000
   56.0330   29.6250   42.8940 O   0  0  0  0  0  0  0  0  0  0  0  0
   56.1450   29.5960   44.1490 C   0  0  0  0  0  0  0  0  0  0  0  0
   55.1490   28.9710   44.8930 O   0  0  0  0  0  0  0  0  0  0  0  0
   57.2960   30.2390   44.8330 C   0  0  0  0  0  0  0  0  0  0  0  0
   57.3030   31.6410   44.9440 C   0  0  0  0  0  0  0  0  0  0  0  0
   58.3800   32.3110   45.5360 C   0  0  0  0  0  0  0  0  0  0  0  0
   58.4140   34.0750   45.6100 S   0  0  0  0  0  0  0  0  0  0  0  0
   57.0030   34.5840   45.5560 O   0  0  0  0  0  0  0  0  0  0  0  0
   59.1650   34.6120   44.4260 O   0  0  0  0  0  0  0  0  0  0  0  0
   59.1660   34.6570   47.0630 N   0  0  0  0  0  0  0  0  0  0  0  0
   60.4600   34.2490   47.5180 C   0  0  0  0  0  0  0  0  0  0  0  0
   61.4290   33.8890   46.5700 C   0  0  0  0  0  0  0  0  0  0  0  0
   62.7210   33.5340   46.9740 C   0  0  0  0  0  0  0  0  0  0  0  0
   63.0480   33.5190   48.3390 C   0  0  0  0  0  0  0  0  0  0  0  0
   64.3380   33.1870   48.7740 C   0  0  0  0  0  0  0  0  0  0  0  0
   64.6270   33.1790   50.1420 C   0  0  0  0  0  0  0  0  0  0  0  0
   63.6220   33.4980   51.0610 C   0  0  0  0  0  0  0  0  0  0  0  0
   62.3710   33.8140   50.6280 N   0  0  0  0  0  0  0  0  0  0  0  0
   62.0600   33.8360   49.3020 C   0  0  0  0  0  0  0  0  0  0  0  0
   60.7680   34.1790   48.8880 C   0  0  0  0  0  0  0  0  0  0  0  0
   59.4630   31.5780   46.0300 C   0  0  0  0  0  0  0  0  0  0  0  0
   59.4740   30.1880   45.9300 C   0  0  0  0  0  0  0  0  0  0  0  0
   58.3980   29.5040   45.3470 C   0  0  0  0  0  0  0  0  0  0  0  0
   58.4360   28.0280   45.3440 C   0  0  0  0  0  0  0  0  0  0  0  0
   58.7780   27.3310   46.5120 C   0  0  0  0  0  0  0  0  0  0  0  0
   58.8020   25.9340   46.5140 C   0  0  0  0  0  0  0  0  0  0  0  0
   58.4670   25.2230   45.3540 C   0  0  0  0  0  0  0  0  0  0  0  0
   58.4290   23.4630   45.3580 S   0  0  0  0  0  0  0  0  0  0  0  0
   57.9570   22.9840   44.0150 O   0  0  0  0  0  0  0  0  0  0  0  0
   59.7940   22.8950   45.6230 O   0  0  0  0  0  0  0  0  0  0  0  0
   57.3340   22.9080   46.5850 N   0  0  0  0  0  0  0  0  0  0  0  0
   55.9060   22.8550   46.4320 C   0  0  0  0  0  0  0  0  0  0  0  0
   55.2020   21.7580   46.9620 C   0  0  0  0  0  0  0  0  0  0  0  0
   53.8130   21.6680   46.8320 C   0  0  0  0  0  0  0  0  0  0  0  0
   53.0950   22.6790   46.1670 C   0  0  0  0  0  0  0  0  0  0  0  0
   51.6620   22.6040   46.0490 N   0  0  0  0  0  0  0  0  0  0  0  0
   51.1330   22.1580   45.0100 O   0  0  0  0  0  0  0  0  0  0  0  0
   50.8530   22.9780   47.0980 O   0  0  0  0  0  0  0  0  0  0  0  0
   53.7990   23.7730   45.6280 C   0  0  0  0  0  0  0  0  0  0  0  0
   55.1880   23.8650   45.7640 C   0  0  0  0  0  0  0  0  0  0  0  0
   58.1340   25.9210   44.1860 C   0  0  0  0  0  0  0  0  0  0  0  0
   58.1330   27.3170   44.1760 C   0  0  0  0  0  0  0  0  0  0  0  0
   56.4498   32.2194   44.5600 H   0  0  0  0  0  0  0  0  0  0  0  0
   61.1714   33.8857   45.5006 H   0  0  0  0  0  0  0  0  0  0  0  0
   63.4791   33.2671   46.2230 H   0  0  0  0  0  0  0  0  0  0  0  0
   65.1197   32.9338   48.0426 H   0  0  0  0  0  0  0  0  0  0  0  0
   65.6377   32.9236   50.4930 H   0  0  0  0  0  0  0  0  0  0  0  0
   63.8437   33.4935   52.1384 H   0  0  0  0  0  0  0  0  0  0  0  0
   59.9913   34.3944   49.6365 H   0  0  0  0  0  0  0  0  0  0  0  0
   60.3097   32.1003   46.4994 H   0  0  0  0  0  0  0  0  0  0  0  0
   60.3359   29.6216   46.3125 H   0  0  0  0  0  0  0  0  0  0  0  0
   59.0279   27.8854   47.4286 H   0  0  0  0  0  0  0  0  0  0  0  0
   59.0845   25.3912   47.4281 H   0  0  0  0  0  0  0  0  0  0  0  0
   57.7590   22.5930   47.4840 H   0  0  0  0  0  0  0  0  0  0  0  0
   55.7514   20.9614   47.4851 H   0  0  0  0  0  0  0  0  0  0  0  0
   53.2788   20.8027   47.2516 H   0  0  0  0  0  0  0  0  0  0  0  0
   53.2508   24.5635   45.0944 H   0  0  0  0  0  0  0  0  0  0  0  0
   55.7223   24.7313   45.3467 H   0  0  0  0  0  0  0  0  0  0  0  0
   57.8721   25.3667   43.2727 H   0  0  0  0  0  0  0  0  0  0  0  0
   57.8939   27.8594   43.2494 H   0  0  0  0  0  0  0  0  0  0  0  0
  1  2  2  0
  2  3  1  0
  2  4  1  0
  4  5  2  0
  5  6  1  0
  6  7  1  0
  7  8  2  0
  7  9  2  0
  7 10  1  0
 10 11  1  0
 11 12  2  0
 12 13  1  0
 13 14  2  0
 14 15  1  0
 15 16  2  0
 16 17  1  0
 17 18  2  0
 18 19  1  0
 19 20  2  0
  6 21  2  0
 21 22  1  0
 22 23  2  0
 23 24  1  0
 24 25  2  0
 25 26  1  0
 26 27  2  0
 27 28  1  0
 28 29  2  0
 28 30  2  0
 28 31  1  0
 31 32  1  0
 32 33  2  0
 33 34  1  0
 34 35  2  0
 35 36  1  0
 36 37  2  0
 36 38  1  0
 35 39  1  0
 39 40  2  0
 27 41  1  0
 41 42  2  0
 23  4  1  0
 42 24  1  0
 20 11  1  0
 40 32  1  0
 19 14  1  0
  5 43  1  0
 12 44  1  0
 13 45  1  0
 15 46  1  0
 16 47  1  0
 17 48  1  0
 20 49  1  0
 21 50  1  0
 22 51  1  0
 25 52  1  0
 26 53  1  0
 31 54  1  0
 33 55  1  0
 34 56  1  0
 39 57  1  0
 40 58  1  0
 41 59  1  0
 42 60  1  0
M  CHG  4   3  -1  10  -1  36   1  38  -1
M  END
>  <UniqueID>  (3) 
2

>  <SMILES>  (3) 
O=C([O-])c1cc(S(=O)(=O)[N-]c2ccc3cccnc3c2)ccc1-c1ccc(S(=O)(=O)Nc2ccc([N+](=O)[O-])cc2)cc1

>  <Energy>  (3) 
92.87496150325862

>  <Genealogy>  (3) 
O=C([O-])c1cc(S(=O)(=O)[N-]c2ccc3cccnc3c2)ccc1-c1ccc(S(=O)(=O)Nc2ccc([N+](=O)[O-])cc2)cc1 (protonated)
O=C([O-])c1cc(S(=O)(=O)[N-]c2ccc3cccnc3c2)ccc1-c1ccc(S(=O)(=O)Nc2ccc([N+](=O)[O-])cc2)cc1 (3D coordinates assigned)
O=C([O-])c1cc(S(=O)(=O)[N-]c2ccc3cccnc3c2)ccc1-c1ccc(S(=O)(=O)Nc2ccc([N+](=O)[O-])cc2)cc1 (optimized conformer: 92.87496150325862 kcal/mol)

>  <smiles>  (3) 
O=C(O)c1cc(S(=O)(=O)Nc2ccc3cccnc3c2)ccc1-c1ccc(S(=O)(=O)Nc2ccc([N+](=O)[O-])cc2)cc1

>  <score_type>  (3) 
oracle

>  <origin>  (3) 
adg

>  <m_score__min__energy>  (3) 
-15.01

>  <m_primary>  (3) 
energy

$$$$
3:0
     RDKit          3D

 75 79  0  0  0  0  0  0  0  0999 V2000
   58.8390   31.0830   49.9440 C   0  0  0  0  0  0  0  0  0  0  0  0
   59.8910   30.1060   50.2180 N   0  0  0  0  0  0  0  0  0  0  0  0
   60.0730   28.8960   49.6500 C   0  0  0  0  0  0  0  0  0  0  0  0
   59.0890   28.2240   48.3060 S   0  0  0  0  0  0  0  0  0  0  0  0
   60.3790   28.4410   47.0280 C   0  0  0  0  0  0  0  0  0  0  0  0
   60.0530   29.6510   46.2180 C   0  0  0  0  0  0  0  0  0  0  0  0
   60.4410   29.7250   45.0200 O   0  0  0  0  0  0  0  0  0  0  0  0
   59.3490   30.7430   46.8130 N   0  0  0  0  0  0  0  0  0  0  0  0
   59.1790   31.9860   46.1230 C   0  0  0  0  0  0  0  0  0  0  0  0
   59.9770   33.0780   46.5020 C   0  0  0  0  0  0  0  0  0  0  0  0
   59.8210   34.3190   45.8820 C   0  0  0  0  0  0  0  0  0  0  0  0
   58.8760   34.4790   44.8670 C   0  0  0  0  0  0  0  0  0  0  0  0
   58.0770   33.3990   44.4740 C   0  0  0  0  0  0  0  0  0  0  0  0
   58.2080   32.1400   45.1000 C   0  0  0  0  0  0  0  0  0  0  0  0
   57.3780   30.9980   44.6330 C   0  0  0  0  0  0  0  0  0  0  0  0
   56.1340   31.0080   44.8330 O   0  0  0  0  0  0  0  0  0  0  0  0
   57.9850   29.8830   43.9510 N   0  0  0  0  0  0  0  0  0  0  0  0
   57.3900   28.5410   43.8750 C   0  0  0  0  0  0  0  0  0  0  0  0
   56.8350   28.0620   45.2240 C   0  0  0  0  0  0  0  0  0  0  0  0
   57.5370   26.7420   45.5300 C   0  0  0  0  0  0  0  0  0  0  0  0
   58.0860   26.2420   44.2050 C   0  0  0  0  0  0  0  0  0  0  0  0
   58.3960   27.4910   43.4020 C   0  0  0  0  0  0  0  0  0  0  0  0
   61.1240   28.2500   50.1880 N   0  0  0  0  0  0  0  0  0  0  0  0
   61.6360   29.0510   51.1130 N   0  0  0  0  0  0  0  0  0  0  0  0
   60.8930   30.1760   51.1250 C   0  0  0  0  0  0  0  0  0  0  0  0
   61.1990   31.3430   51.9830 C   0  0  0  0  0  0  0  0  0  0  0  0
   60.7970   31.3620   53.1750 O   0  0  0  0  0  0  0  0  0  0  0  0
   61.9310   32.4740   51.4710 N   0  0  0  0  0  0  0  0  0  0  0  0
   61.3720   33.2350   50.3420 C   0  0  0  0  0  0  0  0  0  0  0  0
   62.1830   33.0370   49.0840 C   0  0  0  0  0  0  0  0  0  0  0  0
   62.8980   34.1120   48.5270 C   0  0  0  0  0  0  0  0  0  0  0  0
   63.6850   33.9210   47.3870 C   0  0  0  0  0  0  0  0  0  0  0  0
   63.7650   32.6570   46.7960 C   0  0  0  0  0  0  0  0  0  0  0  0
   63.0550   31.5830   47.3410 C   0  0  0  0  0  0  0  0  0  0  0  0
   62.2670   31.7690   48.4820 C   0  0  0  0  0  0  0  0  0  0  0  0
   62.9780   33.0760   52.3110 C   0  0  0  0  0  0  0  0  0  0  0  0
   64.3200   32.9420   51.6410 C   0  0  0  0  0  0  0  0  0  0  0  0
   65.2200   34.0210   51.6380 C   0  0  0  0  0  0  0  0  0  0  0  0
   66.4860   33.8800   51.0610 C   0  0  0  0  0  0  0  0  0  0  0  0
   66.8650   32.6600   50.4950 C   0  0  0  0  0  0  0  0  0  0  0  0
   65.9780   31.5810   50.4960 C   0  0  0  0  0  0  0  0  0  0  0  0
   64.7070   31.7210   51.0590 C   0  0  0  0  0  0  0  0  0  0  0  0
   58.4326   31.4604   50.8940 H   0  0  0  0  0  0  0  0  0  0  0  0
   59.2575   31.9201   49.3659 H   0  0  0  0  0  0  0  0  0  0  0  0
   58.0351   30.6038   49.3659 H   0  0  0  0  0  0  0  0  0  0  0  0
   61.3591   28.5716   47.5101 H   0  0  0  0  0  0  0  0  0  0  0  0
   60.4150   27.5542   46.3782 H   0  0  0  0  0  0  0  0  0  0  0  0
   60.7308   32.9544   47.2935 H   0  0  0  0  0  0  0  0  0  0  0  0
   60.4430   35.1712   46.1934 H   0  0  0  0  0  0  0  0  0  0  0  0
   58.7590   35.4559   44.3750 H   0  0  0  0  0  0  0  0  0  0  0  0
   57.3393   33.5324   43.6690 H   0  0  0  0  0  0  0  0  0  0  0  0
   58.9340   30.0060   43.5370 H   0  0  0  0  0  0  0  0  0  0  0  0
   56.5700   28.6412   43.1487 H   0  0  0  0  0  0  0  0  0  0  0  0
   57.0528   28.8005   46.0096 H   0  0  0  0  0  0  0  0  0  0  0  0
   55.7430   27.9352   45.1854 H   0  0  0  0  0  0  0  0  0  0  0  0
   58.3558   26.9019   46.2469 H   0  0  0  0  0  0  0  0  0  0  0  0
   56.8465   26.0137   45.9803 H   0  0  0  0  0  0  0  0  0  0  0  0
   58.9995   25.6506   44.3652 H   0  0  0  0  0  0  0  0  0  0  0  0
   57.3700   25.5882   43.6855 H   0  0  0  0  0  0  0  0  0  0  0  0
   59.4245   27.8284   43.5977 H   0  0  0  0  0  0  0  0  0  0  0  0
   58.3185   27.3100   42.3198 H   0  0  0  0  0  0  0  0  0  0  0  0
   60.3411   32.8975   50.1592 H   0  0  0  0  0  0  0  0  0  0  0  0
   61.3946   34.3036   50.6019 H   0  0  0  0  0  0  0  0  0  0  0  0
   62.8380   35.1079   48.9902 H   0  0  0  0  0  0  0  0  0  0  0  0
   64.2414   34.7660   46.9552 H   0  0  0  0  0  0  0  0  0  0  0  0
   64.3871   32.5071   45.9013 H   0  0  0  0  0  0  0  0  0  0  0  0
   63.1160   30.5899   46.8719 H   0  0  0  0  0  0  0  0  0  0  0  0
   61.7117   30.9210   48.9093 H   0  0  0  0  0  0  0  0  0  0  0  0
   62.7530   34.1417   52.4648 H   0  0  0  0  0  0  0  0  0  0  0  0
   63.0058   32.5556   53.2797 H   0  0  0  0  0  0  0  0  0  0  0  0
   64.9278   34.9798   52.0910 H   0  0  0  0  0  0  0  0  0  0  0  0
   67.1840   34.7301   51.0527 H   0  0  0  0  0  0  0  0  0  0  0  0
   67.8638   32.5491   50.0478 H   0  0  0  0  0  0  0  0  0  0  0  0
   66.2803   30.6205   50.0533 H   0  0  0  0  0  0  0  0  0  0  0  0
   64.0062   30.8733   51.0472 H   0  0  0  0  0  0  0  0  0  0  0  0
  1  2  1  0
  2  3  1  0
  3  4  1  0
  4  5  1  0
  5  6  1  0
  6  7  2  0
  6  8  1  0
  8  9  1  0
  9 10  2  0
 10 11  1  0
 11 12  2  0
 12 13  1  0
 13 14  2  0
 14 15  1  0
 15 16  2  0
 15 17  1  0
 17 18  1  0
 18 19  1  0
 19 20  1  0
 20 21  1  0
 21 22  1  0
  3 23  2  0
 23 24  1  0
 24 25  2  0
 25 26  1  0
 26 27  2  0
 26 28  1  0
 28 29  1  0
 29 30  1  0
 30 31  2  0
 31 32  1  0
 32 33  2  0
 33 34  1  0
 34 35  2  0
 28 36  1  0
 36 37  1  0
 37 38  2  0
 38 39  1  0
 39 40  2  0
 40 41  1  0
 41 42  2  0
 25  2  1  0
 35 30  1  0
 42 37  1  0
 14  9  1  0
 22 18  1  0
  1 43  1  0
  1 44  1  0
  1 45  1  0
  5 46  1  0
  5 47  1  0
 10 48  1  0
 11 49  1  0
 12 50  1  0
 13 51  1  0
 17 52  1  0
 18 53  1  0
 19 54  1  0
 19 55  1  0
 20 56  1  0
 20 57  1  0
 21 58  1  0
 21 59  1  0
 22 60  1  0
 22 61  1  0
 29 62  1  0
 29 63  1  0
 31 64  1  0
 32 65  1  0
 33 66  1  0
 34 67  1  0
 35 68  1  0
 36 69  1  0
 36 70  1  0
 38 71  1  0
 39 72  1  0
 40 73  1  0
 41 74  1  0
 42 75  1  0
M  CHG  1   8  -1
M  END
>  <UniqueID>  (4) 
3

>  <SMILES>  (4) 
Cn1c(SCC(=O)[N-]c2ccccc2C(=O)NC2CCCC2)nnc1C(=O)N(Cc1ccccc1)Cc1ccccc1

>  <Energy>  (4) 
125.57117787881477

>  <Genealogy>  (4) 
Cn1c(SCC(=O)[N-]c2ccccc2C(=O)NC2CCCC2)nnc1C(=O)N(Cc1ccccc1)Cc1ccccc1 (protonated)
Cn1c(SCC(=O)[N-]c2ccccc2C(=O)NC2CCCC2)nnc1C(=O)N(Cc1ccccc1)Cc1ccccc1 (3D coordinates assigned)
Cn1c(SCC(=O)[N-]c2ccccc2C(=O)NC2CCCC2)nnc1C(=O)N(Cc1ccccc1)Cc1ccccc1 (nonaromatic ring conformer: 125.57117787881477 kcal/mol)

>  <smiles>  (4) 
Cn1c(SCC(=O)Nc2ccccc2C(=O)NC2CCCC2)nnc1C(=O)N(Cc1ccccc1)Cc1ccccc1

>  <score_type>  (4) 
oracle

>  <origin>  (4) 
adg

>  <m_score__min__energy>  (4) 
-14

>  <m_primary>  (4) 
energy

$$$$
4:0
     RDKit          3D

 45 47  0  0  0  0  0  0  0  0999 V2000
   54.1720   24.9820   45.6370 C   0  0  0  0  0  0  0  0  0  0  0  0
   54.8300   26.2070   45.9420 O   0  0  0  0  0  0  0  0  0  0  0  0
   56.2120   26.4190   45.8210 C   0  0  0  0  0  0  0  0  0  0  0  0
   57.1480   25.3910   46.0500 C   0  0  0  0  0  0  0  0  0  0  0  0
   58.5160   25.6410   45.9280 C   0  0  0  0  0  0  0  0  0  0  0  0
   58.9660   26.9180   45.5880 C   0  0  0  0  0  0  0  0  0  0  0  0
   58.0490   27.9450   45.3600 C   0  0  0  0  0  0  0  0  0  0  0  0
   56.6660   27.6980   45.4530 C   0  0  0  0  0  0  0  0  0  0  0  0
   55.7050   28.7430   45.2460 N   0  0  0  0  0  0  0  0  0  0  0  0
   55.6900   29.6780   44.1620 C   0  0  0  0  0  0  0  0  0  0  0  0
   54.6930   29.7030   43.3940 O   0  0  0  0  0  0  0  0  0  0  0  0
   56.7960   30.5670   43.9520 N   0  0  0  0  0  0  0  0  0  0  0  0
   57.4280   31.3990   44.9330 C   0  0  0  0  0  0  0  0  0  0  0  0
   57.1000   32.7590   45.0850 C   0  0  0  0  0  0  0  0  0  0  0  0
   57.7570   33.5390   46.0420 C   0  0  0  0  0  0  0  0  0  0  0  0
   58.7480   32.9750   46.8580 C   0  0  0  0  0  0  0  0  0  0  0  0
   59.4580   33.7940   47.8630 C   0  0  0  0  0  0  0  0  0  0  0  0
   58.9750   33.8900   49.0230 O   0  0  0  0  0  0  0  0  0  0  0  0
   60.6570   34.5140   47.5530 N   0  0  0  0  0  0  0  0  0  0  0  0
   61.8850   33.9110   47.0490 C   0  0  0  0  0  0  0  0  0  0  0  0
   62.7510   33.5110   48.2080 C   0  0  0  0  0  0  0  0  0  0  0  0
   62.6680   34.1940   49.4300 C   0  0  0  0  0  0  0  0  0  0  0  0
   63.5050   33.8340   50.4880 C   0  0  0  0  0  0  0  0  0  0  0  0
   64.4280   32.8020   50.3100 C   0  0  0  0  0  0  0  0  0  0  0  0
   64.5090   32.1600   49.1140 N   0  0  0  0  0  0  0  0  0  0  0  0
   63.7040   32.4900   48.0700 C   0  0  0  0  0  0  0  0  0  0  0  0
   59.1080   31.6330   46.6730 C   0  0  0  0  0  0  0  0  0  0  0  0
   58.4520   30.8530   45.7160 C   0  0  0  0  0  0  0  0  0  0  0  0
   53.8974   24.4707   46.5715 H   0  0  0  0  0  0  0  0  0  0  0  0
   53.2639   25.1894   45.0519 H   0  0  0  0  0  0  0  0  0  0  0  0
   54.8463   24.3394   45.0519 H   0  0  0  0  0  0  0  0  0  0  0  0
   56.7986   24.3853   46.3266 H   0  0  0  0  0  0  0  0  0  0  0  0
   59.2401   24.8310   46.0999 H   0  0  0  0  0  0  0  0  0  0  0  0
   60.0446   27.1150   45.4997 H   0  0  0  0  0  0  0  0  0  0  0  0
   58.4087   28.9531   45.1062 H   0  0  0  0  0  0  0  0  0  0  0  0
   56.3242   33.2101   44.4489 H   0  0  0  0  0  0  0  0  0  0  0  0
   57.4948   34.6013   46.1552 H   0  0  0  0  0  0  0  0  0  0  0  0
   61.6391   33.0221   46.4496 H   0  0  0  0  0  0  0  0  0  0  0  0
   62.4217   34.6366   46.4201 H   0  0  0  0  0  0  0  0  0  0  0  0
   61.9440   35.0127   49.5549 H   0  0  0  0  0  0  0  0  0  0  0  0
   63.4377   34.3586   51.4525 H   0  0  0  0  0  0  0  0  0  0  0  0
   65.0902   32.5079   51.1377 H   0  0  0  0  0  0  0  0  0  0  0  0
   63.7997   31.9551   47.1136 H   0  0  0  0  0  0  0  0  0  0  0  0
   59.9099   31.1918   47.2832 H   0  0  0  0  0  0  0  0  0  0  0  0
   58.7430   29.8013   45.5771 H   0  0  0  0  0  0  0  0  0  0  0  0
  1  2  1  0
  2  3  1  0
  3  4  2  0
  4  5  1  0
  5  6  2  0
  6  7  1  0
  7  8  2  0
  8  9  1  0
  9 10  1  0
 10 11  2  0
 10 12  1  0
 12 13  1  0
 13 14  2  0
 14 15  1  0
 15 16  2  0
 16 17  1  0
 17 18  2  0
 17 19  1  0
 19 20  1  0
 20 21  1  0
 21 22  2  0
 22 23  1  0
 23 24  2  0
 24 25  1  0
 25 26  2  0
 16 27  1  0
 27 28  2  0
  8  3  1  0
 28 13  1  0
 26 21  1  0
  1 29  1  0
  1 30  1  0
  1 31  1  0
  4 32  1  0
  5 33  1  0
  6 34  1  0
  7 35  1  0
 14 36  1  0
 15 37  1  0
 20 38  1  0
 20 39  1  0
 22 40  1  0
 23 41  1  0
 24 42  1  0
 26 43  1  0
 27 44  1  0
 28 45  1  0
M  CHG  3   9  -1  12  -1  19  -1
M  END
>  <UniqueID>  (5) 
4

>  <SMILES>  (5) 
COc1ccccc1[N-]C(=O)[N-]c1ccc(C(=O)[N-]Cc2cccnc2)cc1

>  <Energy>  (5) 
58.46901765660924

>  <Genealogy>  (5) 
COc1ccccc1[N-]C(=O)[N-]c1ccc(C(=O)[N-]Cc2cccnc2)cc1 (protonated)
COc1ccccc1[N-]C(=O)[N-]c1ccc(C(=O)[N-]Cc2cccnc2)cc1 (3D coordinates assigned)
COc1ccccc1[N-]C(=O)[N-]c1ccc(C(=O)[N-]Cc2cccnc2)cc1 (optimized conformer: 58.46901765660924 kcal/mol)

>  <smiles>  (5) 
COc1ccccc1NC(=O)Nc1ccc(C(=O)NCc2cccnc2)cc1

>  <score_type>  (5) 
oracle

>  <origin>  (5) 
adg

>  <m_score__min__energy>  (5) 
-13.109999999999999

>  <m_primary>  (5) 
energy

$$$$
5:0
     RDKit          3D

 48 51  0  0  0  0  0  0  0  0999 V2000
   57.5810   21.2780   42.9950 C   0  0  0  0  0  0  0  0  0  0  0  0
   56.2350   21.5410   43.5290 N   0  0  0  0  0  0  0  0  0  0  0  0
   55.8070   22.9340   43.2520 C   0  0  0  0  0  0  0  0  0  0  0  0
   55.9200   23.8370   44.4890 C   0  0  0  0  0  0  0  0  0  0  0  0
   55.0710   23.3390   45.5960 N   0  0  0  0  0  0  0  0  0  0  0  0
   55.4980   23.9280   46.8820 C   0  0  0  0  0  0  0  0  0  0  0  0
   56.3150   25.1750   46.6410 C   0  0  0  0  0  0  0  0  0  0  0  0
   57.6640   25.1930   47.0280 C   0  0  0  0  0  0  0  0  0  0  0  0
   58.4510   26.3410   46.8320 C   0  0  0  0  0  0  0  0  0  0  0  0
   59.8330   26.3800   47.2150 N   0  0  0  0  0  0  0  0  0  0  0  0
   60.3930   27.1790   48.2670 C   0  0  0  0  0  0  0  0  0  0  0  0
   61.1540   26.6280   49.1060 O   0  0  0  0  0  0  0  0  0  0  0  0
   60.1430   28.6290   48.3710 C   0  0  0  0  0  0  0  0  0  0  0  0
   60.4600   29.3940   49.4940 C   0  0  0  0  0  0  0  0  0  0  0  0
   59.9850   30.9770   49.1930 S   0  0  0  0  0  0  0  0  0  0  0  0
   59.3890   30.6260   47.6590 C   0  0  0  0  0  0  0  0  0  0  0  0
   58.7770   31.5930   46.7420 C   0  0  0  0  0  0  0  0  0  0  0  0
   59.1910   32.8950   46.5360 C   0  0  0  0  0  0  0  0  0  0  0  0
   58.3260   33.4110   45.5950 C   0  0  0  0  0  0  0  0  0  0  0  0
   57.4430   32.3970   45.2870 C   0  0  0  0  0  0  0  0  0  0  0  0
   57.7380   31.3260   45.9860 O   0  0  0  0  0  0  0  0  0  0  0  0
   59.5410   29.3170   47.3620 N   0  0  0  0  0  0  0  0  0  0  0  0
   57.8900   27.4580   46.2030 C   0  0  0  0  0  0  0  0  0  0  0  0
   56.5500   27.4480   45.8100 C   0  0  0  0  0  0  0  0  0  0  0  0
   55.7580   26.3160   46.0300 C   0  0  0  0  0  0  0  0  0  0  0  0
   54.4260   26.3360   45.6320 O   0  0  0  0  0  0  0  0  0  0  0  0
   54.9860   21.8560   45.6580 C   0  0  0  0  0  0  0  0  0  0  0  0
   56.1710   21.1740   44.9620 C   0  0  0  0  0  0  0  0  0  0  0  0
   58.2856   21.1403   43.8284 H   0  0  0  0  0  0  0  0  0  0  0  0
   57.5595   20.3671   42.3788 H   0  0  0  0  0  0  0  0  0  0  0  0
   57.9039   22.1300   42.3788 H   0  0  0  0  0  0  0  0  0  0  0  0
   56.4417   23.3467   42.4540 H   0  0  0  0  0  0  0  0  0  0  0  0
   54.7492   22.9069   42.9515 H   0  0  0  0  0  0  0  0  0  0  0  0
   56.9680   23.8588   44.8226 H   0  0  0  0  0  0  0  0  0  0  0  0
   55.5785   24.8463   44.2155 H   0  0  0  0  0  0  0  0  0  0  0  0
   54.6089   24.1857   47.4762 H   0  0  0  0  0  0  0  0  0  0  0  0
   56.1140   23.1956   47.4243 H   0  0  0  0  0  0  0  0  0  0  0  0
   58.1099   24.2996   47.4894 H   0  0  0  0  0  0  0  0  0  0  0  0
   60.9369   29.0255   50.4142 H   0  0  0  0  0  0  0  0  0  0  0  0
   60.0331   33.4108   47.0206 H   0  0  0  0  0  0  0  0  0  0  0  0
   58.3375   34.4273   45.1742 H   0  0  0  0  0  0  0  0  0  0  0  0
   56.6168   32.4743   44.5649 H   0  0  0  0  0  0  0  0  0  0  0  0
   58.5079   28.3489   46.0171 H   0  0  0  0  0  0  0  0  0  0  0  0
   56.1152   28.3345   45.3251 H   0  0  0  0  0  0  0  0  0  0  0  0
   54.9702   21.5466   46.7135 H   0  0  0  0  0  0  0  0  0  0  0  0
   54.0678   21.5500   45.1352 H   0  0  0  0  0  0  0  0  0  0  0  0
   57.1040   21.4861   45.4541 H   0  0  0  0  0  0  0  0  0  0  0  0
   56.0382   20.0846   45.0365 H   0  0  0  0  0  0  0  0  0  0  0  0
  1  2  1  0
  2  3  1  0
  3  4  1  0
  4  5  1  0
  5  6  1  0
  6  7  1  0
  7  8  2  0
  8  9  1  0
  9 10  1  0
 10 11  1  0
 11 12  2  0
 11 13  1  0
 13 14  2  0
 14 15  1  0
 15 16  1  0
 16 17  1  0
 17 18  2  0
 18 19  1  0
 19 20  2  0
 20 21  1  0
 16 22  2  0
  9 23  2  0
 23 24  1  0
 24 25  2  0
 25 26  1  0
  5 27  1  0
 27 28  1  0
 28  2  1  0
 25  7  1  0
 22 13  1  0
 21 17  1  0
  1 29  1  0
  1 30  1  0
  1 31  1  0
  3 32  1  0
  3 33  1  0
  4 34  1  0
  4 35  1  0
  6 36  1  0
  6 37  1  0
  8 38  1  0
 14 39  1  0
 18 40  1  0
 19 41  1  0
 20 42  1  0
 23 43  1  0
 24 44  1  0
 27 45  1  0
 27 46  1  0
 28 47  1  0
 28 48  1  0
M  CHG  2  10  -1  26  -1
M  END
>  <UniqueID>  (6) 
5

>  <SMILES>  (6) 
CN1CCN(Cc2cc([N-]C(=O)c3csc(-c4ccco4)n3)ccc2[O-])CC1

>  <Energy>  (6) 
123.33275414960318

>  <Genealogy>  (6) 
CN1CCN(Cc2cc([N-]C(=O)c3csc(-c4ccco4)n3)ccc2[O-])CC1 (protonated)
CN1CCN(Cc2cc([N-]C(=O)c3csc(-c4ccco4)n3)ccc2[O-])CC1 (3D coordinates assigned)
CN1CCN(Cc2cc([N-]C(=O)c3csc(-c4ccco4)n3)ccc2[O-])CC1 (nonaromatic ring conformer: 123.33275414960318 kcal/mol)

>  <smiles>  (6) 
CN1CCN(Cc2cc(NC(=O)c3csc(-c4ccco4)n3)ccc2O)CC1

>  <score_type>  (6) 
oracle

>  <origin>  (6) 
adg

>  <m_score__min__energy>  (6) 
-12.24

>  <m_primary>  (6) 
energy

$$$$
6:0
     RDKit          3D

 38 40  0  0  1  0  0  0  0  0999 V2000
   59.4960   35.9520   44.7900 O   0  0  0  0  0  0  0  0  0  0  0  0
   59.3120   35.2130   45.8060 C   0  0  0  0  0  0  0  0  0  0  0  0
   59.6340   35.7120   47.0620 O   0  0  0  0  0  0  0  0  0  0  0  0
   58.7700   33.8580   45.6660 C   0  0  0  0  0  0  0  0  0  0  0  0
   58.9680   32.9440   46.6770 C   0  0  0  0  0  0  0  0  0  0  0  0
   57.1820   23.6210   45.8670 C   0  0  0  0  0  0  0  0  0  0  0  0
   56.6270   24.8530   46.2240 C   0  0  0  0  0  0  0  0  0  0  0  0
   57.2350   30.0050   45.2770 N   0  0  0  0  0  0  0  0  0  0  0  0
   57.8940   28.9500   45.5430 C   0  0  0  0  0  0  0  0  0  0  0  0
   59.1990   28.8880   45.2140 N   0  0  0  0  0  0  0  0  0  0  0  0
   59.8720   27.7490   45.5110 C   0  0  0  0  0  0  0  0  0  0  0  0
   59.2310   26.6880   46.1320 C   0  0  0  0  0  0  0  0  0  0  0  0
   57.8870   26.8090   46.4460 C   0  0  0  0  0  0  0  0  0  0  0  0
   57.3360   25.7910   47.0250 N   0  0  0  0  0  0  0  0  0  0  0  0
   57.7310   31.3380   45.3410 C   0  0  0  0  0  0  0  0  0  0  0  0
   57.5420   32.2650   44.3370 C   0  0  0  0  0  0  0  0  0  0  0  0
   56.4480   22.7540   45.0900 C   0  0  0  0  0  0  0  0  0  0  0  0
   55.1680   23.0760   44.6520 C   0  0  0  0  0  0  0  0  0  0  0  0
   54.6200   24.2950   45.0060 C   0  0  0  0  0  0  0  0  0  0  0  0
   55.3420   25.1900   45.7910 C   0  0  0  0  0  0  0  0  0  0  0  0
   54.7740   26.4300   46.1460 O   0  0  0  0  0  0  0  0  0  0  0  0
   57.2400   27.9380   46.1470 N   0  0  0  0  0  0  0  0  0  0  0  0
   58.4370   31.6820   46.4970 C   0  0  0  0  0  0  0  0  0  0  0  0
   58.0750   33.5460   44.5130 C   0  0  0  0  0  0  0  0  0  0  0  0
   59.1000   36.4760   47.4150 H   0  0  0  0  0  0  0  0  0  0  0  0
   59.5249   33.2078   47.5882 H   0  0  0  0  0  0  0  0  0  0  0  0
   58.1931   23.3476   46.2029 H   0  0  0  0  0  0  0  0  0  0  0  0
   59.6470   29.7080   44.7470 H   0  0  0  0  0  0  0  0  0  0  0  0
   60.9389   27.6658   45.2563 H   0  0  0  0  0  0  0  0  0  0  0  0
   59.7803   25.7655   46.3714 H   0  0  0  0  0  0  0  0  0  0  0  0
   56.9876   32.0039   43.4235 H   0  0  0  0  0  0  0  0  0  0  0  0
   56.8839   21.7839   44.8089 H   0  0  0  0  0  0  0  0  0  0  0  0
   54.5981   22.3691   44.0311 H   0  0  0  0  0  0  0  0  0  0  0  0
   53.6079   24.5592   44.6655 H   0  0  0  0  0  0  0  0  0  0  0  0
   54.7750   26.7240   47.1240 H   0  0  0  0  0  0  0  0  0  0  0  0
   56.2280   28.0130   46.3900 H   0  0  0  0  0  0  0  0  0  0  0  0
   58.5735   30.9268   47.2851 H   0  0  0  0  0  0  0  0  0  0  0  0
   57.9405   34.3078   43.7310 H   0  0  0  0  0  0  0  0  0  0  0  0
  1  2  2  0
  2  3  1  0
  2  4  1  0
  4  5  2  0
  5  6  1  0
  6  7  2  0
  7  8  1  0
  8  9  2  0
  9 10  1  0
 10 11  1  0
 11 12  2  0
 12 13  1  0
 13 14  2  0
 14 15  1  0
 15 16  2  0
 16 17  1  0
 17 18  2  0
 18 19  1  0
 19 20  2  0
 20 21  1  0
 13 22  1  0
  7 23  1  0
 23 24  2  0
 24  4  1  0
 22  9  1  0
 20 15  1  0
  3 25  1  0
  5 26  1  0
  6 27  1  0
 10 28  1  0
 11 29  1  0
 12 30  1  0
 16 31  1  0
 17 32  1  0
 18 33  1  0
 19 34  1  0
 21 35  1  0
 22 36  1  0
 23 37  1  0
 24 38  1  0
M  END
>  <smiles>  (7) 
O=C(O)c1ccc(N=c2[nH]ccc(=Nc3ccccc3O)[nH]2)cc1

>  <score_type>  (7) 
oracle

>  <origin>  (7) 
adg

>  <m_score__min__energy>  (7) 
-9.0299999999999994

>  <m_primary>  (7) 
energy

$$$$
7:0
     RDKit          3D

 41 42  0  0  0  0  0  0  0  0999 V2000
   56.0900   29.3630   44.6360 C   0  0  0  0  0  0  0  0  0  0  0  0
   56.8440   30.5750   44.1750 C   0  0  0  0  0  0  0  0  0  0  0  0
   56.9400   30.8690   42.8060 C   0  0  0  0  0  0  0  0  0  0  0  0
   57.6070   32.0240   42.3740 C   0  0  0  0  0  0  0  0  0  0  0  0
   57.6730   32.3630   40.9150 C   0  0  0  0  0  0  0  0  0  0  0  0
   58.1520   32.9030   43.3210 C   0  0  0  0  0  0  0  0  0  0  0  0
   58.0770   32.6070   44.6900 C   0  0  0  0  0  0  0  0  0  0  0  0
   58.6080   33.5040   45.6750 N   0  0  0  0  0  0  0  0  0  0  0  0
   58.9090   33.1680   47.0360 C   0  0  0  0  0  0  0  0  0  0  0  0
   57.9630   32.8160   47.7890 O   0  0  0  0  0  0  0  0  0  0  0  0
   60.3320   33.1760   47.5460 C   0  0  0  0  0  0  0  0  0  0  0  0
   61.1250   31.9060   47.1940 C   0  0  0  0  0  0  0  0  0  0  0  0
   60.3030   30.9040   46.5070 N   0  0  0  0  0  0  0  0  0  0  0  0
   59.7680   29.6360   47.5780 S   0  0  0  0  0  0  0  0  0  0  0  0
   58.8400   30.1850   48.6270 O   0  0  0  0  0  0  0  0  0  0  0  0
   60.9630   29.0290   48.2550 O   0  0  0  0  0  0  0  0  0  0  0  0
   58.9490   28.3890   46.6520 C   0  0  0  0  0  0  0  0  0  0  0  0
   59.3630   28.0030   45.3830 C   0  0  0  0  0  0  0  0  0  0  0  0
   58.3160   26.8070   44.8340 S   0  0  0  0  0  0  0  0  0  0  0  0
   57.3380   26.7700   46.2030 C   0  0  0  0  0  0  0  0  0  0  0  0
   56.1740   25.8960   46.3910 C   0  0  0  0  0  0  0  0  0  0  0  0
   54.8600   26.3820   46.1260 N   0  0  0  0  0  0  0  0  0  0  0  0
   56.3330   24.7100   46.7860 O   0  0  0  0  0  0  0  0  0  0  0  0
   57.8180   27.7030   47.1150 C   0  0  0  0  0  0  0  0  0  0  0  0
   57.3950   31.4610   45.1130 C   0  0  0  0  0  0  0  0  0  0  0  0
   56.0741   29.3374   45.7356 H   0  0  0  0  0  0  0  0  0  0  0  0
   55.0589   29.4058   44.2552 H   0  0  0  0  0  0  0  0  0  0  0  0
   56.5841   28.4570   44.2552 H   0  0  0  0  0  0  0  0  0  0  0  0
   56.4893   30.1893   42.0678 H   0  0  0  0  0  0  0  0  0  0  0  0
   57.8820   33.4365   40.7971 H   0  0  0  0  0  0  0  0  0  0  0  0
   58.4743   31.7790   40.4387 H   0  0  0  0  0  0  0  0  0  0  0  0
   56.7111   32.1222   40.4387 H   0  0  0  0  0  0  0  0  0  0  0  0
   58.6413   33.8303   42.9882 H   0  0  0  0  0  0  0  0  0  0  0  0
   60.8519   34.0416   47.1096 H   0  0  0  0  0  0  0  0  0  0  0  0
   60.2786   33.2263   48.6436 H   0  0  0  0  0  0  0  0  0  0  0  0
   61.9637   32.1839   46.5388 H   0  0  0  0  0  0  0  0  0  0  0  0
   61.4784   31.4604   48.1356 H   0  0  0  0  0  0  0  0  0  0  0  0
   60.2251   28.4089   44.8334 H   0  0  0  0  0  0  0  0  0  0  0  0
   54.4040   27.0690   46.7650 H   0  0  0  0  0  0  0  0  0  0  0  0
   57.3580   27.8840   48.0977 H   0  0  0  0  0  0  0  0  0  0  0  0
   57.2901   31.2532   46.1881 H   0  0  0  0  0  0  0  0  0  0  0  0
  1  2  1  0
  2  3  2  0
  3  4  1  0
  4  5  1  0
  4  6  2  0
  6  7  1  0
  7  8  1  0
  8  9  1  0
  9 10  2  0
  9 11  1  0
 11 12  1  0
 12 13  1  0
 13 14  1  0
 14 15  2  0
 14 16  2  0
 14 17  1  0
 17 18  2  0
 18 19  1  0
 19 20  1  0
 20 21  1  0
 21 22  1  0
 21 23  2  0
 20 24  2  0
  7 25  2  0
 25  2  1  0
 24 17  1  0
  1 26  1  0
  1 27  1  0
  1 28  1  0
  3 29  1  0
  5 30  1  0
  5 31  1  0
  5 32  1  0
  6 33  1  0
 11 34  1  0
 11 35  1  0
 12 36  1  0
 12 37  1  0
 18 38  1  0
 22 39  1  0
 24 40  1  0
 25 41  1  0
M  CHG  3   8  -1  13  -1  22  -1
M  END
>  <UniqueID>  (8) 
6

>  <SMILES>  (8) 
Cc1cc(C)cc([N-]C(=O)CC[N-]S(=O)(=O)c2csc(C([NH-])=O)c2)c1

>  <Energy>  (8) 
64.18933606305174

>  <Genealogy>  (8) 
Cc1cc(C)cc([N-]C(=O)CC[N-]S(=O)(=O)c2csc(C([NH-])=O)c2)c1 (protonated)
Cc1cc(C)cc([N-]C(=O)CC[N-]S(=O)(=O)c2csc(C([NH-])=O)c2)c1 (3D coordinates assigned)
Cc1cc(C)cc([N-]C(=O)CC[N-]S(=O)(=O)c2csc(C([NH-])=O)c2)c1 (optimized conformer: 64.18933606305174 kcal/mol)

>  <smiles>  (8) 
Cc1cc(C)cc(NC(=O)CCNS(=O)(=O)c2csc(C(N)=O)c2)c1

>  <score_type>  (8) 
oracle

>  <origin>  (8) 
adg

>  <m_score__min__energy>  (8) 
-13.74

>  <m_primary>  (8) 
energy

$$$$
8:0
     RDKit          3D

 46 48  0  0  0  0  0  0  0  0999 V2000
   55.1980   26.3330   45.9540 N   0  0  0  0  0  0  0  0  0  0  0  0
   56.9070   26.5920   45.9430 S   0  0  0  0  0  0  0  0  0  0  0  0
   57.5640   25.5820   45.0450 O   0  0  0  0  0  0  0  0  0  0  0  0
   57.4420   26.4180   47.3370 O   0  0  0  0  0  0  0  0  0  0  0  0
   57.2590   28.2150   45.3570 C   0  0  0  0  0  0  0  0  0  0  0  0
   58.5820   28.6710   45.3180 C   0  0  0  0  0  0  0  0  0  0  0  0
   58.8680   29.9640   44.8720 C   0  0  0  0  0  0  0  0  0  0  0  0
   57.8390   30.8080   44.4370 C   0  0  0  0  0  0  0  0  0  0  0  0
   58.1600   32.1520   44.0510 N   0  0  0  0  0  0  0  0  0  0  0  0
   57.9540   33.3220   44.8510 C   0  0  0  0  0  0  0  0  0  0  0  0
   57.2110   34.2360   44.4060 O   0  0  0  0  0  0  0  0  0  0  0  0
   58.5370   33.4510   46.2070 C   0  0  0  0  0  0  0  0  0  0  0  0
   59.4540   34.4770   46.4860 C   0  0  0  0  0  0  0  0  0  0  0  0
   59.9770   34.6270   47.7740 C   0  0  0  0  0  0  0  0  0  0  0  0
   59.5780   33.7740   48.8100 C   0  0  0  0  0  0  0  0  0  0  0  0
   60.1390   33.9820   50.1150 N   0  0  0  0  0  0  0  0  0  0  0  0
   60.5630   32.7700   51.2850 S   0  0  0  0  0  0  0  0  0  0  0  0
   59.5420   31.6670   51.2970 O   0  0  0  0  0  0  0  0  0  0  0  0
   60.5740   33.4120   52.6420 O   0  0  0  0  0  0  0  0  0  0  0  0
   62.1950   32.1170   50.9620 C   0  0  0  0  0  0  0  0  0  0  0  0
   62.6230   32.4020   49.5510 C   0  0  0  0  0  0  0  0  0  0  0  0
   62.2130   31.5610   48.5030 C   0  0  0  0  0  0  0  0  0  0  0  0
   62.5570   31.8630   47.1820 C   0  0  0  0  0  0  0  0  0  0  0  0
   63.3100   33.0040   46.8990 C   0  0  0  0  0  0  0  0  0  0  0  0
   63.7250   33.8450   47.9360 C   0  0  0  0  0  0  0  0  0  0  0  0
   63.3810   33.5490   49.2580 C   0  0  0  0  0  0  0  0  0  0  0  0
   58.6510   32.7540   48.5340 C   0  0  0  0  0  0  0  0  0  0  0  0
   58.1430   32.5890   47.2430 C   0  0  0  0  0  0  0  0  0  0  0  0
   56.5110   30.3470   44.4680 C   0  0  0  0  0  0  0  0  0  0  0  0
   56.2240   29.0570   44.9270 C   0  0  0  0  0  0  0  0  0  0  0  0
   54.7780   27.0740   46.5590 H   0  0  0  0  0  0  0  0  0  0  0  0
   59.3995   28.0090   45.6397 H   0  0  0  0  0  0  0  0  0  0  0  0
   59.9084   30.3211   44.8626 H   0  0  0  0  0  0  0  0  0  0  0  0
   59.7627   35.1668   45.6867 H   0  0  0  0  0  0  0  0  0  0  0  0
   60.7091   35.4230   47.9753 H   0  0  0  0  0  0  0  0  0  0  0  0
   62.9114   32.5818   51.6554 H   0  0  0  0  0  0  0  0  0  0  0  0
   62.1692   31.0267   51.1053 H   0  0  0  0  0  0  0  0  0  0  0  0
   61.6191   30.6615   48.7226 H   0  0  0  0  0  0  0  0  0  0  0  0
   62.2341   31.2011   46.3650 H   0  0  0  0  0  0  0  0  0  0  0  0
   63.5772   33.2417   45.8588 H   0  0  0  0  0  0  0  0  0  0  0  0
   64.3229   34.7406   47.7112 H   0  0  0  0  0  0  0  0  0  0  0  0
   63.7043   34.2154   50.0713 H   0  0  0  0  0  0  0  0  0  0  0  0
   58.3233   32.0810   49.3401 H   0  0  0  0  0  0  0  0  0  0  0  0
   57.4292   31.7779   47.0367 H   0  0  0  0  0  0  0  0  0  0  0  0
   55.6950   31.0028   44.1302 H   0  0  0  0  0  0  0  0  0  0  0  0
   55.1830   28.7023   44.9506 H   0  0  0  0  0  0  0  0  0  0  0  0
  1  2  1  0
  2  3  2  0
  2  4  2  0
  2  5  1  0
  5  6  2  0
  6  7  1  0
  7  8  2  0
  8  9  1  0
  9 10  1  0
 10 11  2  0
 10 12  1  0
 12 13  2  0
 13 14  1  0
 14 15  2  0
 15 16  1  0
 16 17  1  0
 17 18  2  0
 17 19  2  0
 17 20  1  0
 20 21  1  0
 21 22  2  0
 22 23  1  0
 23 24  2  0
 24 25  1  0
 25 26  2  0
 15 27  1  0
 27 28  2  0
  8 29  1  0
 29 30  2  0
 30  5  1  0
 28 12  1  0
 26 21  1  0
  1 31  1  0
  6 32  1  0
  7 33  1  0
 13 34  1  0
 14 35  1  0
 20 36  1  0
 20 37  1  0
 22 38  1  0
 23 39  1  0
 24 40  1  0
 25 41  1  0
 26 42  1  0
 27 43  1  0
 28 44  1  0
 29 45  1  0
 30 46  1  0
M  CHG  3   1  -1   9  -1  16  -1
M  END
>  <UniqueID>  (9) 
7

>  <SMILES>  (9) 
[NH-]S(=O)(=O)c1ccc([N-]C(=O)c2ccc([N-]S(=O)(=O)Cc3ccccc3)cc2)cc1

>  <Energy>  (9) 
49.89445345519271

>  <Genealogy>  (9) 
[NH-]S(=O)(=O)c1ccc([N-]C(=O)c2ccc([N-]S(=O)(=O)Cc3ccccc3)cc2)cc1 (protonated)
[NH-]S(=O)(=O)c1ccc([N-]C(=O)c2ccc([N-]S(=O)(=O)Cc3ccccc3)cc2)cc1 (3D coordinates assigned)
[NH-]S(=O)(=O)c1ccc([N-]C(=O)c2ccc([N-]S(=O)(=O)Cc3ccccc3)cc2)cc1 (optimized conformer: 49.89445345519271 kcal/mol)

>  <smiles>  (9) 
NS(=O)(=O)c1ccc(NC(=O)c2ccc(NS(=O)(=O)Cc3ccccc3)cc2)cc1

>  <score_type>  (9) 
oracle

>  <origin>  (9) 
adg

>  <m_score__min__energy>  (9) 
-13.5

>  <m_primary>  (9) 
energy

$$$$
9:0
     RDKit          3D

 61 64  0  0  0  0  0  0  0  0999 V2000
   60.1480   29.2360   49.7280 C   0  0  0  0  0  0  0  0  0  0  0  0
   60.3320   28.9070   48.2760 C   0  0  0  0  0  0  0  0  0  0  0  0
   60.5610   29.9310   47.3450 C   0  0  0  0  0  0  0  0  0  0  0  0
   60.7600   29.6230   45.9970 C   0  0  0  0  0  0  0  0  0  0  0  0
   60.7340   28.2930   45.5690 C   0  0  0  0  0  0  0  0  0  0  0  0
   60.5220   27.2570   46.4920 C   0  0  0  0  0  0  0  0  0  0  0  0
   60.4260   25.8360   46.0110 C   0  0  0  0  0  0  0  0  0  0  0  0
   59.2610   25.2190   46.5580 O   0  0  0  0  0  0  0  0  0  0  0  0
   58.2210   24.6630   45.7940 C   0  0  0  0  0  0  0  0  0  0  0  0
   58.3240   23.3610   45.2720 C   0  0  0  0  0  0  0  0  0  0  0  0
   57.2700   22.8010   44.5470 C   0  0  0  0  0  0  0  0  0  0  0  0
   56.1040   23.5310   44.3340 C   0  0  0  0  0  0  0  0  0  0  0  0
   55.9910   24.8290   44.8330 C   0  0  0  0  0  0  0  0  0  0  0  0
   57.0490   25.4180   45.5510 C   0  0  0  0  0  0  0  0  0  0  0  0
   56.8940   26.7950   46.0820 C   0  0  0  0  0  0  0  0  0  0  0  0
   57.3610   27.0930   47.2160 O   0  0  0  0  0  0  0  0  0  0  0  0
   56.2500   27.8010   45.2860 N   0  0  0  0  0  0  0  0  0  0  0  0
   56.6420   29.1770   45.1720 C   0  0  0  0  0  0  0  0  0  0  0  0
   56.2330   29.9800   44.0920 C   0  0  0  0  0  0  0  0  0  0  0  0
   56.6420   31.3120   44.0120 C   0  0  0  0  0  0  0  0  0  0  0  0
   57.4820   31.8540   44.9950 C   0  0  0  0  0  0  0  0  0  0  0  0
   57.9800   33.5430   44.9170 S   0  0  0  0  0  0  0  0  0  0  0  0
   56.8290   34.4120   44.4970 O   0  0  0  0  0  0  0  0  0  0  0  0
   59.0650   33.6620   43.8840 O   0  0  0  0  0  0  0  0  0  0  0  0
   58.5800   34.1060   46.4440 N   0  0  0  0  0  0  0  0  0  0  0  0
   59.8670   33.7280   46.9530 C   0  0  0  0  0  0  0  0  0  0  0  0
   61.0910   33.9260   46.3380 C   0  0  0  0  0  0  0  0  0  0  0  0
   62.0720   33.4660   47.1390 N   0  0  0  0  0  0  0  0  0  0  0  0
   63.4960   33.4770   46.8330 C   0  0  0  0  0  0  0  0  0  0  0  0
   61.4900   32.9940   48.2630 C   0  0  0  0  0  0  0  0  0  0  0  0
   62.3690   32.2660   49.6000 Cl  0  0  0  0  0  0  0  0  0  0  0  0
   60.1190   33.1720   48.1960 C   0  0  0  0  0  0  0  0  0  0  0  0
   59.1070   32.6980   49.1920 C   0  0  0  0  0  0  0  0  0  0  0  0
   57.9240   31.0470   46.0510 C   0  0  0  0  0  0  0  0  0  0  0  0
   57.5080   29.7150   46.1360 C   0  0  0  0  0  0  0  0  0  0  0  0
   60.3300   27.5690   47.8490 C   0  0  0  0  0  0  0  0  0  0  0  0
   60.5930   28.4403   50.3435 H   0  0  0  0  0  0  0  0  0  0  0  0
   60.6419   30.1929   49.9526 H   0  0  0  0  0  0  0  0  0  0  0  0
   59.0742   29.3161   49.9526 H   0  0  0  0  0  0  0  0  0  0  0  0
   60.5839   30.9794   47.6773 H   0  0  0  0  0  0  0  0  0  0  0  0
   60.9376   30.4296   45.2705 H   0  0  0  0  0  0  0  0  0  0  0  0
   60.8802   28.0570   44.5046 H   0  0  0  0  0  0  0  0  0  0  0  0
   60.3636   25.8254   44.9128 H   0  0  0  0  0  0  0  0  0  0  0  0
   61.3182   25.2809   46.3364 H   0  0  0  0  0  0  0  0  0  0  0  0
   59.2427   22.7788   45.4363 H   0  0  0  0  0  0  0  0  0  0  0  0
   57.3613   21.7817   44.1437 H   0  0  0  0  0  0  0  0  0  0  0  0
   55.2709   23.0840   43.7717 H   0  0  0  0  0  0  0  0  0  0  0  0
   55.0652   25.3983   44.6636 H   0  0  0  0  0  0  0  0  0  0  0  0
   55.5885   29.5566   43.3076 H   0  0  0  0  0  0  0  0  0  0  0  0
   56.3038   31.9393   43.1741 H   0  0  0  0  0  0  0  0  0  0  0  0
   57.8770   34.5100   47.0990 H   0  0  0  0  0  0  0  0  0  0  0  0
   61.2396   34.3866   45.3502 H   0  0  0  0  0  0  0  0  0  0  0  0
   64.0723   33.4815   47.7699 H   0  0  0  0  0  0  0  0  0  0  0  0
   63.7525   32.5808   46.2490 H   0  0  0  0  0  0  0  0  0  0  0  0
   63.7386   34.3770   46.2490 H   0  0  0  0  0  0  0  0  0  0  0  0
   59.4840   32.8746   50.2102 H   0  0  0  0  0  0  0  0  0  0  0  0
   58.1657   33.2489   49.0489 H   0  0  0  0  0  0  0  0  0  0  0  0
   58.9276   31.6222   49.0489 H   0  0  0  0  0  0  0  0  0  0  0  0
   58.5991   31.4616   46.8141 H   0  0  0  0  0  0  0  0  0  0  0  0
   57.8622   29.0842   46.9646 H   0  0  0  0  0  0  0  0  0  0  0  0
   60.1774   26.7614   48.5801 H   0  0  0  0  0  0  0  0  0  0  0  0
  1  2  1  0
  2  3  2  0
  3  4  1  0
  4  5  2  0
  5  6  1  0
  6  7  1  0
  7  8  1  0
  8  9  1  0
  9 10  2  0
 10 11  1  0
 11 12  2  0
 12 13  1  0
 13 14  2  0
 14 15  1  0
 15 16  2  0
 15 17  1  0
 17 18  1  0
 18 19  2  0
 19 20  1  0
 20 21  2  0
 21 22  1  0
 22 23  2  0
 22 24  2  0
 22 25  1  0
 25 26  1  0
 26 27  2  0
 27 28  1  0
 28 29  1  0
 28 30  1  0
 30 31  1  0
 30 32  2  0
 32 33  1  0
 21 34  1  0
 34 35  2  0
  6 36  2  0
 36  2  1  0
 14  9  1  0
 35 18  1  0
 32 26  1  0
  1 37  1  0
  1 38  1  0
  1 39  1  0
  3 40  1  0
  4 41  1  0
  5 42  1  0
  7 43  1  0
  7 44  1  0
 10 45  1  0
 11 46  1  0
 12 47  1  0
 13 48  1  0
 19 49  1  0
 20 50  1  0
 25 51  1  0
 27 52  1  0
 29 53  1  0
 29 54  1  0
 29 55  1  0
 33 56  1  0
 33 57  1  0
 33 58  1  0
 34 59  1  0
 35 60  1  0
 36 61  1  0
M  CHG  1  17  -1
M  END
>  <UniqueID>  (10) 
8

>  <SMILES>  (10) 
Cc1cccc(COc2ccccc2C(=O)[N-]c2ccc(S(=O)(=O)Nc3cn(C)c(Cl)c3C)cc2)c1

>  <Energy>  (10) 
101.99939305284678

>  <Genealogy>  (10) 
Cc1cccc(COc2ccccc2C(=O)[N-]c2ccc(S(=O)(=O)Nc3cn(C)c(Cl)c3C)cc2)c1 (protonated)
Cc1cccc(COc2ccccc2C(=O)[N-]c2ccc(S(=O)(=O)Nc3cn(C)c(Cl)c3C)cc2)c1 (3D coordinates assigned)
Cc1cccc(COc2ccccc2C(=O)[N-]c2ccc(S(=O)(=O)Nc3cn(C)c(Cl)c3C)cc2)c1 (optimized conformer: 101.99939305284678 kcal/mol)

>  <smiles>  (10) 
Cc1cccc(COc2ccccc2C(=O)Nc2ccc(S(=O)(=O)Nc3cn(C)c(Cl)c3C)cc2)c1

>  <score_type>  (10) 
oracle

>  <origin>  (10) 
adg

>  <m_score__min__energy>  (10) 
-11.69

>  <m_primary>  (10) 
energy

$$$$
10:0
     RDKit          3D

 27 28  0  0  0  0  0  0  0  0999 V2000
   59.1670   36.4260   47.1330 H   0  0  0  0  0  0  0  0  0  0  0  0
   59.6580   35.8130   46.4930 O   0  0  0  0  0  0  0  0  0  0  0  0
   59.1200   34.5890   46.1030 C   0  0  0  0  0  0  0  0  0  0  0  0
   58.3660   34.5080   44.9280 C   0  0  0  0  0  0  0  0  0  0  0  0
   58.2011   35.4096   44.3199 H   0  0  0  0  0  0  0  0  0  0  0  0
   57.8210   33.2860   44.5230 C   0  0  0  0  0  0  0  0  0  0  0  0
   57.2187   33.2337   43.6040 H   0  0  0  0  0  0  0  0  0  0  0  0
   58.0380   32.1240   45.2830 C   0  0  0  0  0  0  0  0  0  0  0  0
   57.4360   30.8380   44.8550 C   0  0  0  0  0  0  0  0  0  0  0  0
   56.1810   30.7480   44.7780 O   0  0  0  0  0  0  0  0  0  0  0  0
   58.2380   29.6410   44.5280 C   0  0  0  0  0  0  0  0  0  0  0  0
   58.5664   29.4966   43.4881 H   0  0  0  0  0  0  0  0  0  0  0  0
   58.5830   28.7240   45.4410 C   0  0  0  0  0  0  0  0  0  0  0  0
   59.5503   28.8242   45.9551 H   0  0  0  0  0  0  0  0  0  0  0  0
   57.7080   27.5810   45.7820 C   0  0  0  0  0  0  0  0  0  0  0  0
   56.3260   27.7330   45.6190 C   0  0  0  0  0  0  0  0  0  0  0  0
   55.9206   28.6872   45.2513 H   0  0  0  0  0  0  0  0  0  0  0  0
   55.4830   26.7100   45.9120 N   0  0  0  0  0  0  0  0  0  0  0  0
   55.9570   25.5300   46.3840 C   0  0  0  0  0  0  0  0  0  0  0  0
   55.1610   24.5910   46.6450 O   0  0  0  0  0  0  0  0  0  0  0  0
   57.2890   25.3630   46.5830 N   0  0  0  0  0  0  0  0  0  0  0  0
   58.1780   26.3520   46.3010 C   0  0  0  0  0  0  0  0  0  0  0  0
   59.7570   26.0970   46.6620 S   0  0  0  0  0  0  0  0  0  0  0  0
   58.7830   32.2150   46.4730 C   0  0  0  0  0  0  0  0  0  0  0  0
   58.9389   31.3181   47.0905 H   0  0  0  0  0  0  0  0  0  0  0  0
   59.3260   33.4380   46.8750 C   0  0  0  0  0  0  0  0  0  0  0  0
   59.9172   33.4974   47.8007 H   0  0  0  0  0  0  0  0  0  0  0  0
  1  2  1  0
  2  3  1  0
  3  4  2  0
  4  5  1  0
  4  6  1  0
  6  7  1  0
  6  8  2  0
  8  9  1  0
  9 10  2  0
  9 11  1  0
 11 12  1  0
 11 13  2  0
 13 14  1  0
 13 15  1  0
 15 16  2  0
 16 17  1  0
 16 18  1  0
 18 19  1  0
 19 20  2  0
 19 21  1  0
 21 22  1  0
 22 23  2  0
  8 24  1  0
 24 25  1  0
 24 26  2  0
 26 27  1  0
 26  3  1  0
 22 15  1  0
M  CHG  2  18  -1  21  -1
M  END
>  <UniqueID>  (11) 
9

>  <SMILES>  (11) 
O=C(/C=C/c1c[n-]c(=O)[n-]c1=S)c1ccc(O)cc1

>  <Energy>  (11) 
40.665922347173606

>  <Genealogy>  (11) 
O=C(C=Cc1c[n-]c(=O)[n-]c1=S)c1ccc(O)cc1 (protonated)
O=C(/C=C/c1c[n-]c(=O)[n-]c1=S)c1ccc(O)cc1 (cis-trans isomerization)
O=C(/C=C/c1c[n-]c(=O)[n-]c1=S)c1ccc(O)cc1 (3D coordinates assigned)
O=C(/C=C/c1c[n-]c(=O)[n-]c1=S)c1ccc(O)cc1 (optimized conformer: 40.665922347173606 kcal/mol)

>  <smiles>  (11) 
O=C(C=Cc1c[nH]c(=O)[nH]c1=S)c1ccc(O)cc1

>  <score_type>  (11) 
oracle

>  <origin>  (11) 
adg

>  <m_score__min__energy>  (11) 
-11.02

>  <m_primary>  (11) 
energy

$$$$
11:0
     RDKit          3D

 47 50  0  0  0  0  0  0  0  0999 V2000
   56.2060   25.8080   46.8690 O   0  0  0  0  0  0  0  0  0  0  0  0
   56.8100   26.8070   46.3960 C   0  0  0  0  0  0  0  0  0  0  0  0
   58.2660   27.0100   46.6820 C   0  0  0  0  0  0  0  0  0  0  0  0
   58.6200   28.4320   46.6000 N   0  0  0  0  0  0  0  0  0  0  0  0
   59.7520   29.0920   47.7510 S   0  0  0  0  0  0  0  0  0  0  0  0
   60.6190   27.9950   48.3020 O   0  0  0  0  0  0  0  0  0  0  0  0
   60.6460   30.0890   47.0650 O   0  0  0  0  0  0  0  0  0  0  0  0
   58.8400   29.8650   49.0860 C   0  0  0  0  0  0  0  0  0  0  0  0
   59.6530   30.9570   49.7350 C   0  0  0  0  0  0  0  0  0  0  0  0
   60.7740   30.6070   50.5060 C   0  0  0  0  0  0  0  0  0  0  0  0
   61.5850   31.5950   51.0680 C   0  0  0  0  0  0  0  0  0  0  0  0
   61.2910   32.9420   50.8620 C   0  0  0  0  0  0  0  0  0  0  0  0
   60.1880   33.3070   50.0880 C   0  0  0  0  0  0  0  0  0  0  0  0
   59.3700   32.3260   49.5070 C   0  0  0  0  0  0  0  0  0  0  0  0
   58.2340   32.7220   48.7230 N   0  0  0  0  0  0  0  0  0  0  0  0
   58.3310   33.2890   47.4030 C   0  0  0  0  0  0  0  0  0  0  0  0
   59.5730   33.7580   46.9460 C   0  0  0  0  0  0  0  0  0  0  0  0
   59.6900   34.3410   45.6820 C   0  0  0  0  0  0  0  0  0  0  0  0
   58.5670   34.4710   44.8630 C   0  0  0  0  0  0  0  0  0  0  0  0
   57.3220   34.0290   45.3150 C   0  0  0  0  0  0  0  0  0  0  0  0
   57.2000   33.4460   46.5800 C   0  0  0  0  0  0  0  0  0  0  0  0
   58.0370   29.2470   45.5600 C   0  0  0  0  0  0  0  0  0  0  0  0
   58.6890   30.3850   45.0510 C   0  0  0  0  0  0  0  0  0  0  0  0
   58.0740   31.1720   44.0740 C   0  0  0  0  0  0  0  0  0  0  0  0
   56.8110   30.8280   43.5880 C   0  0  0  0  0  0  0  0  0  0  0  0
   56.1660   29.6860   44.0640 C   0  0  0  0  0  0  0  0  0  0  0  0
   56.7780   28.8890   45.0410 C   0  0  0  0  0  0  0  0  0  0  0  0
   56.1220   27.7120   45.5270 N   0  0  0  0  0  0  0  0  0  0  0  0
   58.4898   26.6404   47.6936 H   0  0  0  0  0  0  0  0  0  0  0  0
   58.8527   26.4569   45.9338 H   0  0  0  0  0  0  0  0  0  0  0  0
   57.9120   30.2979   48.6842 H   0  0  0  0  0  0  0  0  0  0  0  0
   58.6123   29.1005   49.8434 H   0  0  0  0  0  0  0  0  0  0  0  0
   61.0148   29.5460   50.6683 H   0  0  0  0  0  0  0  0  0  0  0  0
   62.4574   31.3099   51.6743 H   0  0  0  0  0  0  0  0  0  0  0  0
   61.9289   33.7182   51.3099 H   0  0  0  0  0  0  0  0  0  0  0  0
   59.9584   34.3715   49.9324 H   0  0  0  0  0  0  0  0  0  0  0  0
   57.2860   32.6210   49.1520 H   0  0  0  0  0  0  0  0  0  0  0  0
   60.4611   33.6656   47.5885 H   0  0  0  0  0  0  0  0  0  0  0  0
   60.6693   34.6985   45.3312 H   0  0  0  0  0  0  0  0  0  0  0  0
   58.6627   34.9207   43.8637 H   0  0  0  0  0  0  0  0  0  0  0  0
   56.4348   34.1397   44.6742 H   0  0  0  0  0  0  0  0  0  0  0  0
   56.2148   33.1082   46.9339 H   0  0  0  0  0  0  0  0  0  0  0  0
   59.6876   30.6564   45.4239 H   0  0  0  0  0  0  0  0  0  0  0  0
   58.5862   32.0651   43.6866 H   0  0  0  0  0  0  0  0  0  0  0  0
   56.3240   31.4580   42.8291 H   0  0  0  0  0  0  0  0  0  0  0  0
   55.1758   29.4108   43.6719 H   0  0  0  0  0  0  0  0  0  0  0  0
   55.1390   27.5050   45.2440 H   0  0  0  0  0  0  0  0  0  0  0  0
  1  2  2  0
  2  3  1  0
  3  4  1  0
  4  5  1  0
  5  6  2  0
  5  7  2  0
  5  8  1  0
  8  9  1  0
  9 10  2  0
 10 11  1  0
 11 12  2  0
 12 13  1  0
 13 14  2  0
 14 15  1  0
 15 16  1  0
 16 17  2  0
 17 18  1  0
 18 19  2  0
 19 20  1  0
 20 21  2  0
  4 22  1  0
 22 23  2  0
 23 24  1  0
 24 25  2  0
 25 26  1  0
 26 27  2  0
 27 28  1  0
 28  2  1  0
 14  9  1  0
 21 16  1  0
 27 22  1  0
  3 29  1  0
  3 30  1  0
  8 31  1  0
  8 32  1  0
 10 33  1  0
 11 34  1  0
 12 35  1  0
 13 36  1  0
 15 37  1  0
 17 38  1  0
 18 39  1  0
 19 40  1  0
 20 41  1  0
 21 42  1  0
 23 43  1  0
 24 44  1  0
 25 45  1  0
 26 46  1  0
 28 47  1  0
M  END
>  <UniqueID>  (12) 
10

>  <SMILES>  (12) 
O=C1CN(S(=O)(=O)Cc2ccccc2Nc2ccccc2)c2ccccc2N1

>  <Energy>  (12) 
57.08088498313411

>  <Genealogy>  (12) 
O=C1CN(S(=O)(=O)Cc2ccccc2Nc2ccccc2)c2ccccc2N1 (3D coordinates assigned)
O=C1CN(S(=O)(=O)Cc2ccccc2Nc2ccccc2)c2ccccc2N1 (nonaromatic ring conformer: 57.08088498313411 kcal/mol)

>  <smiles>  (12) 
O=C1CN(S(=O)(=O)Cc2ccccc2Nc2ccccc2)c2ccccc2N1

>  <score_type>  (12) 
oracle

>  <origin>  (12) 
adg

>  <m_score__min__energy>  (12) 
-9.3800000000000008

>  <m_primary>  (12) 
energy

$$$$
12:0
     RDKit          3D

 38 39  0  0  0  0  0  0  0  0999 V2000
   54.7080   27.0880   46.7200 H   0  0  0  0  0  0  0  0  0  0  0  0
   55.1430   26.4730   45.9950 N   0  0  0  0  0  0  0  0  0  0  0  0
   56.8330   26.8320   45.9790 S   0  0  0  0  0  0  0  0  0  0  0  0
   57.5340   25.9110   45.0200 O   0  0  0  0  0  0  0  0  0  0  0  0
   57.4050   26.6240   47.3540 O   0  0  0  0  0  0  0  0  0  0  0  0
   57.0700   28.5030   45.4810 C   0  0  0  0  0  0  0  0  0  0  0  0
   56.1780   29.1040   44.5840 C   0  0  0  0  0  0  0  0  0  0  0  0
   55.3227   28.5315   44.1958 H   0  0  0  0  0  0  0  0  0  0  0  0
   56.3700   30.4280   44.1800 C   0  0  0  0  0  0  0  0  0  0  0  0
   55.6654   30.8912   43.4736 H   0  0  0  0  0  0  0  0  0  0  0  0
   57.4590   31.1730   44.6710 C   0  0  0  0  0  0  0  0  0  0  0  0
   57.6790   32.5410   44.2850 N   0  0  0  0  0  0  0  0  0  0  0  0
   58.0380   32.7440   43.3250 H   0  0  0  0  0  0  0  0  0  0  0  0
   57.5530   33.8850   45.3760 S   0  0  0  0  0  0  0  0  0  0  0  0
   57.1100   33.3920   46.7250 O   0  0  0  0  0  0  0  0  0  0  0  0
   56.5350   34.8590   44.8520 O   0  0  0  0  0  0  0  0  0  0  0  0
   59.1010   34.7030   45.5180 C   0  0  0  0  0  0  0  0  0  0  0  0
   59.6584   34.9784   44.6106 H   0  0  0  0  0  0  0  0  0  0  0  0
   59.6060   34.9930   46.7200 C   0  0  0  0  0  0  0  0  0  0  0  0
   59.1199   35.7850   47.3086 H   0  0  0  0  0  0  0  0  0  0  0  0
   60.7830   34.3100   47.3070 C   0  0  0  0  0  0  0  0  0  0  0  0
   60.8190   34.1110   48.6970 C   0  0  0  0  0  0  0  0  0  0  0  0
   59.9839   34.4645   49.3196 H   0  0  0  0  0  0  0  0  0  0  0  0
   61.9060   33.4680   49.2970 C   0  0  0  0  0  0  0  0  0  0  0  0
   61.9189   33.3148   50.3862 H   0  0  0  0  0  0  0  0  0  0  0  0
   62.9790   33.0180   48.5160 C   0  0  0  0  0  0  0  0  0  0  0  0
   64.1270   32.2930   49.1550 C   0  0  0  0  0  0  0  0  0  0  0  0
   64.0341   32.3517   50.2495 H   0  0  0  0  0  0  0  0  0  0  0  0
   64.1146   31.2386   48.8420 H   0  0  0  0  0  0  0  0  0  0  0  0
   65.0738   32.7573   48.8420 H   0  0  0  0  0  0  0  0  0  0  0  0
   62.9350   33.1840   47.1250 C   0  0  0  0  0  0  0  0  0  0  0  0
   63.7600   32.8068   46.5029 H   0  0  0  0  0  0  0  0  0  0  0  0
   61.8490   33.8260   46.5240 C   0  0  0  0  0  0  0  0  0  0  0  0
   61.8265   33.9543   45.4317 H   0  0  0  0  0  0  0  0  0  0  0  0
   58.3580   30.5570   45.5540 C   0  0  0  0  0  0  0  0  0  0  0  0
   59.2225   31.1218   45.9331 H   0  0  0  0  0  0  0  0  0  0  0  0
   58.1660   29.2320   45.9570 C   0  0  0  0  0  0  0  0  0  0  0  0
   58.8784   28.7610   46.6503 H   0  0  0  0  0  0  0  0  0  0  0  0
  1  2  1  0
  2  3  1  0
  3  4  2  0
  3  5  2  0
  3  6  1  0
  6  7  2  0
  7  8  1  0
  7  9  1  0
  9 10  1  0
  9 11  2  0
 11 12  1  0
 12 13  1  0
 12 14  1  0
 14 15  2  0
 14 16  2  0
 14 17  1  0
 17 18  1  0
 17 19  2  0
 19 20  1  0
 19 21  1  0
 21 22  2  0
 22 23  1  0
 22 24  1  0
 24 25  1  0
 24 26  2  0
 26 27  1  0
 27 28  1  0
 27 29  1  0
 27 30  1  0
 26 31  1  0
 31 32  1  0
 31 33  2  0
 33 34  1  0
 11 35  1  0
 35 36  1  0
 35 37  2  0
 37 38  1  0
 37  6  1  0
 33 21  1  0
M  CHG  1   2  -1
M  END
>  <UniqueID>  (13) 
11

>  <SMILES>  (13) 
Cc1ccc(/C=C/S(=O)(=O)Nc2ccc(S([NH-])(=O)=O)cc2)cc1

>  <Energy>  (13) 
41.3785480607367

>  <Genealogy>  (13) 
Cc1ccc(C=CS(=O)(=O)Nc2ccc(S([NH-])(=O)=O)cc2)cc1 (protonated)
Cc1ccc(/C=C/S(=O)(=O)Nc2ccc(S([NH-])(=O)=O)cc2)cc1 (cis-trans isomerization)
Cc1ccc(/C=C/S(=O)(=O)Nc2ccc(S([NH-])(=O)=O)cc2)cc1 (3D coordinates assigned)
Cc1ccc(/C=C/S(=O)(=O)Nc2ccc(S([NH-])(=O)=O)cc2)cc1 (optimized conformer: 41.3785480607367 kcal/mol)

>  <smiles>  (13) 
Cc1ccc(C=CS(=O)(=O)Nc2ccc(S(N)(=O)=O)cc2)cc1

>  <score_type>  (13) 
oracle

>  <origin>  (13) 
adg

>  <m_score__min__energy>  (13) 
-11.85

>  <m_primary>  (13) 
energy

$$$$
13:0
     RDKit          3D

 45 47  0  0  0  0  0  0  0  0999 V2000
   59.5480   32.0180   50.8050 N   0  0  0  0  0  0  0  0  0  0  0  0
   59.6070   32.5030   49.7560 C   0  0  0  0  0  0  0  0  0  0  0  0
   59.6800   33.1080   48.4430 C   0  0  0  0  0  0  0  0  0  0  0  0
   60.8830   33.6370   47.9440 C   0  0  0  0  0  0  0  0  0  0  0  0
   62.1530   33.5490   48.7070 C   0  0  0  0  0  0  0  0  0  0  0  0
   62.2940   34.2520   49.9150 C   0  0  0  0  0  0  0  0  0  0  0  0
   63.4960   34.1940   50.6290 C   0  0  0  0  0  0  0  0  0  0  0  0
   64.5680   33.4440   50.1350 C   0  0  0  0  0  0  0  0  0  0  0  0
   65.7340   33.3920   50.8270 F   0  0  0  0  0  0  0  0  0  0  0  0
   64.4410   32.7520   48.9260 C   0  0  0  0  0  0  0  0  0  0  0  0
   63.2400   32.8070   48.2110 C   0  0  0  0  0  0  0  0  0  0  0  0
   60.8850   34.2470   46.7270 N   0  0  0  0  0  0  0  0  0  0  0  0
   59.7570   34.3440   45.9750 C   0  0  0  0  0  0  0  0  0  0  0  0
   59.8240   34.8940   44.8410 O   0  0  0  0  0  0  0  0  0  0  0  0
   58.5670   33.8470   46.4390 N   0  0  0  0  0  0  0  0  0  0  0  0
   57.3500   33.9420   45.6060 C   0  0  0  0  0  0  0  0  0  0  0  0
   57.3860   32.8890   44.4900 C   0  0  0  0  0  0  0  0  0  0  0  0
   57.9250   31.5440   44.9930 C   0  0  0  0  0  0  0  0  0  0  0  0
   57.9230   30.5420   43.9010 N   0  0  0  0  0  0  0  0  0  0  0  0
   56.7230   30.6500   43.0350 C   0  0  0  0  0  0  0  0  0  0  0  0
   55.5760   29.7250   43.4970 C   0  0  0  0  0  0  0  0  0  0  0  0
   55.6670   29.4730   44.8840 O   0  0  0  0  0  0  0  0  0  0  0  0
   56.8150   28.6860   45.1630 C   0  0  0  0  0  0  0  0  0  0  0  0
   58.0800   29.1650   44.4100 C   0  0  0  0  0  0  0  0  0  0  0  0
   58.5210   33.2200   47.6590 C   0  0  0  0  0  0  0  0  0  0  0  0
   57.4340   32.7370   48.0860 O   0  0  0  0  0  0  0  0  0  0  0  0
   61.4559   34.8506   50.3013 H   0  0  0  0  0  0  0  0  0  0  0  0
   63.5978   34.7386   51.5793 H   0  0  0  0  0  0  0  0  0  0  0  0
   65.2858   32.1644   48.5374 H   0  0  0  0  0  0  0  0  0  0  0  0
   63.1453   32.2677   47.2569 H   0  0  0  0  0  0  0  0  0  0  0  0
   61.7800   34.6320   46.3460 H   0  0  0  0  0  0  0  0  0  0  0  0
   56.4645   33.7729   46.2363 H   0  0  0  0  0  0  0  0  0  0  0  0
   57.3035   34.9431   45.1525 H   0  0  0  0  0  0  0  0  0  0  0  0
   56.3658   32.7425   44.1057 H   0  0  0  0  0  0  0  0  0  0  0  0
   58.0582   33.2523   43.6987 H   0  0  0  0  0  0  0  0  0  0  0  0
   58.9539   31.6800   45.3574 H   0  0  0  0  0  0  0  0  0  0  0  0
   57.2785   31.1840   45.8069 H   0  0  0  0  0  0  0  0  0  0  0  0
   56.3666   31.6905   43.0539 H   0  0  0  0  0  0  0  0  0  0  0  0
   57.0139   30.3409   42.0202 H   0  0  0  0  0  0  0  0  0  0  0  0
   54.6122   30.2087   43.2802 H   0  0  0  0  0  0  0  0  0  0  0  0
   55.6527   28.7694   42.9577 H   0  0  0  0  0  0  0  0  0  0  0  0
   57.0142   28.7291   46.2440 H   0  0  0  0  0  0  0  0  0  0  0  0
   56.6001   27.6621   44.8231 H   0  0  0  0  0  0  0  0  0  0  0  0
   58.9376   29.1348   45.0983 H   0  0  0  0  0  0  0  0  0  0  0  0
   58.2411   28.4977   43.5505 H   0  0  0  0  0  0  0  0  0  0  0  0
  1  2  3  0
  2  3  1  0
  3  4  2  0
  4  5  1  0
  5  6  2  0
  6  7  1  0
  7  8  2  0
  8  9  1  0
  8 10  1  0
 10 11  2  0
  4 12  1  0
 12 13  1  0
 13 14  2  0
 13 15  1  0
 15 16  1  0
 16 17  1  0
 17 18  1  0
 18 19  1  0
 19 20  1  0
 20 21  1  0
 21 22  1  0
 22 23  1  0
 23 24  1  0
 15 25  1  0
 25 26  2  0
 25  3  1  0
 11  5  1  0
 24 19  1  0
  6 27  1  0
  7 28  1  0
 10 29  1  0
 11 30  1  0
 12 31  1  0
 16 32  1  0
 16 33  1  0
 17 34  1  0
 17 35  1  0
 18 36  1  0
 18 37  1  0
 20 38  1  0
 20 39  1  0
 21 40  1  0
 21 41  1  0
 23 42  1  0
 23 43  1  0
 24 44  1  0
 24 45  1  0
M  END
>  <UniqueID>  (14) 
12

>  <SMILES>  (14) 
N#Cc1c(-c2ccc(F)cc2)[nH]c(=O)n(CCCN2CCOCC2)c1=O

>  <Energy>  (14) 
66.58177613146557

>  <Genealogy>  (14) 
N#Cc1c(-c2ccc(F)cc2)[nH]c(=O)n(CCCN2CCOCC2)c1=O (3D coordinates assigned)
N#Cc1c(-c2ccc(F)cc2)[nH]c(=O)n(CCCN2CCOCC2)c1=O (nonaromatic ring conformer: 66.58177613146557 kcal/mol)

>  <smiles>  (14) 
N#Cc1c(-c2ccc(F)cc2)[nH]c(=O)n(CCCN2CCOCC2)c1=O

>  <score_type>  (14) 
oracle

>  <origin>  (14) 
adg

>  <m_score__min__energy>  (14) 
-7.9500000000000002

>  <m_primary>  (14) 
energy

$$$$
14:0
     RDKit          3D

 60 63  0  0  0  0  0  0  0  0999 V2000
   57.4320   31.8840   44.5970 C   0  0  0  0  0  0  0  0  0  0  0  0
   56.8250   30.2840   44.1040 S   0  0  0  0  0  0  0  0  0  0  0  0
   56.0120   29.6950   45.2220 O   0  0  0  0  0  0  0  0  0  0  0  0
   55.9540   30.4560   42.8930 O   0  0  0  0  0  0  0  0  0  0  0  0
   58.1260   29.2090   43.7160 N   0  0  0  0  0  0  0  0  0  0  0  0
   57.9710   27.7970   43.8620 C   0  0  0  0  0  0  0  0  0  0  0  0
   57.9900   26.9980   42.7130 C   0  0  0  0  0  0  0  0  0  0  0  0
   57.7670   25.6240   42.8000 C   0  0  0  0  0  0  0  0  0  0  0  0
   57.5190   25.0210   44.0420 C   0  0  0  0  0  0  0  0  0  0  0  0
   57.2670   23.5590   44.1360 C   0  0  0  0  0  0  0  0  0  0  0  0
   56.8950   22.8220   42.9950 C   0  0  0  0  0  0  0  0  0  0  0  0
   56.6590   21.4470   43.0860 C   0  0  0  0  0  0  0  0  0  0  0  0
   56.7910   20.7930   44.3130 C   0  0  0  0  0  0  0  0  0  0  0  0
   57.1600   21.5120   45.4510 C   0  0  0  0  0  0  0  0  0  0  0  0
   57.3980   22.8880   45.3660 C   0  0  0  0  0  0  0  0  0  0  0  0
   57.5180   25.8200   45.1980 C   0  0  0  0  0  0  0  0  0  0  0  0
   57.7640   27.2000   45.1260 C   0  0  0  0  0  0  0  0  0  0  0  0
   57.7960   27.9540   46.3530 N   0  0  0  0  0  0  0  0  0  0  0  0
   58.9620   28.0100   47.2500 C   0  0  0  0  0  0  0  0  0  0  0  0
   58.5550   28.6150   48.6150 C   0  0  0  0  0  0  0  0  0  0  0  0
   59.7320   29.3430   49.2730 C   0  0  0  0  0  0  0  0  0  0  0  0
   60.1950   30.4970   48.4550 N   0  0  0  0  0  0  0  0  0  0  0  0
   61.5700   30.8960   48.8230 C   0  0  0  0  0  0  0  0  0  0  0  0
   62.0550   32.0290   47.9530 C   0  0  0  0  0  0  0  0  0  0  0  0
   61.1730   33.0570   47.5830 C   0  0  0  0  0  0  0  0  0  0  0  0
   61.6220   34.1200   46.7930 C   0  0  0  0  0  0  0  0  0  0  0  0
   62.9540   34.1650   46.3720 C   0  0  0  0  0  0  0  0  0  0  0  0
   63.8390   33.1480   46.7420 C   0  0  0  0  0  0  0  0  0  0  0  0
   63.3940   32.0840   47.5320 C   0  0  0  0  0  0  0  0  0  0  0  0
   60.0640   30.2860   46.9870 C   0  0  0  0  0  0  0  0  0  0  0  0
   60.1200   28.8030   46.5970 C   0  0  0  0  0  0  0  0  0  0  0  0
   57.4551   31.9450   45.6951 H   0  0  0  0  0  0  0  0  0  0  0  0
   58.4476   32.0291   44.2002 H   0  0  0  0  0  0  0  0  0  0  0  0
   56.7681   32.6662   44.2002 H   0  0  0  0  0  0  0  0  0  0  0  0
   58.8340   29.5550   43.0320 H   0  0  0  0  0  0  0  0  0  0  0  0
   58.1826   27.4579   41.7325 H   0  0  0  0  0  0  0  0  0  0  0  0
   57.7857   25.0089   41.8883 H   0  0  0  0  0  0  0  0  0  0  0  0
   56.7894   23.3315   42.0259 H   0  0  0  0  0  0  0  0  0  0  0  0
   56.3688   20.8792   42.1896 H   0  0  0  0  0  0  0  0  0  0  0  0
   56.6041   19.7112   44.3825 H   0  0  0  0  0  0  0  0  0  0  0  0
   57.2639   20.9957   46.4167 H   0  0  0  0  0  0  0  0  0  0  0  0
   57.6894   23.4489   46.2663 H   0  0  0  0  0  0  0  0  0  0  0  0
   57.3211   25.3561   46.1758 H   0  0  0  0  0  0  0  0  0  0  0  0
   56.8750   28.2930   46.7150 H   0  0  0  0  0  0  0  0  0  0  0  0
   59.3250   26.9867   47.4263 H   0  0  0  0  0  0  0  0  0  0  0  0
   57.7331   29.3294   48.4598 H   0  0  0  0  0  0  0  0  0  0  0  0
   58.2382   27.7962   49.2777 H   0  0  0  0  0  0  0  0  0  0  0  0
   59.4162   29.7105   50.2606 H   0  0  0  0  0  0  0  0  0  0  0  0
   60.5662   28.6318   49.3640 H   0  0  0  0  0  0  0  0  0  0  0  0
   61.5816   31.2193   49.8743 H   0  0  0  0  0  0  0  0  0  0  0  0
   62.2362   30.0328   48.6781 H   0  0  0  0  0  0  0  0  0  0  0  0
   60.1250   33.0261   47.9158 H   0  0  0  0  0  0  0  0  0  0  0  0
   60.9264   34.9212   46.5028 H   0  0  0  0  0  0  0  0  0  0  0  0
   63.3060   35.0008   45.7494 H   0  0  0  0  0  0  0  0  0  0  0  0
   64.8873   33.1851   46.4109 H   0  0  0  0  0  0  0  0  0  0  0  0
   64.0942   31.2878   47.8247 H   0  0  0  0  0  0  0  0  0  0  0  0
   59.1007   30.7013   46.6559 H   0  0  0  0  0  0  0  0  0  0  0  0
   60.9118   30.7907   46.5008 H   0  0  0  0  0  0  0  0  0  0  0  0
   60.0427   28.7162   45.5032 H   0  0  0  0  0  0  0  0  0  0  0  0
   61.0733   28.3845   46.9521 H   0  0  0  0  0  0  0  0  0  0  0  0
  1  2  1  0
  2  3  2  0
  2  4  2  0
  2  5  1  0
  5  6  1  0
  6  7  2  0
  7  8  1  0
  8  9  2  0
  9 10  1  0
 10 11  2  0
 11 12  1  0
 12 13  2  0
 13 14  1  0
 14 15  2  0
  9 16  1  0
 16 17  2  0
 17 18  1  0
 18 19  1  0
 19 20  1  0
 20 21  1  0
 21 22  1  0
 22 23  1  0
 23 24  1  0
 24 25  2  0
 25 26  1  0
 26 27  2  0
 27 28  1  0
 28 29  2  0
 22 30  1  0
 30 31  1  0
 17  6  1  0
 31 19  1  0
 15 10  1  0
 29 24  1  0
  1 32  1  0
  1 33  1  0
  1 34  1  0
  5 35  1  0
  7 36  1  0
  8 37  1  0
 11 38  1  0
 12 39  1  0
 13 40  1  0
 14 41  1  0
 15 42  1  0
 16 43  1  0
 18 44  1  0
 19 45  1  0
 20 46  1  0
 20 47  1  0
 21 48  1  0
 21 49  1  0
 23 50  1  0
 23 51  1  0
 25 52  1  0
 26 53  1  0
 27 54  1  0
 28 55  1  0
 29 56  1  0
 30 57  1  0
 30 58  1  0
 31 59  1  0
 31 60  1  0
M  END
>  <UniqueID>  (15) 
13

>  <SMILES>  (15) 
CS(=O)(=O)Nc1ccc(-c2ccccc2)cc1NC1CCN(Cc2ccccc2)CC1

>  <Energy>  (15) 
83.14725130704586

>  <Genealogy>  (15) 
CS(=O)(=O)Nc1ccc(-c2ccccc2)cc1NC1CCN(Cc2ccccc2)CC1 (3D coordinates assigned)
CS(=O)(=O)Nc1ccc(-c2ccccc2)cc1NC1CCN(Cc2ccccc2)CC1 (nonaromatic ring conformer: 83.14725130704586 kcal/mol)

>  <smiles>  (15) 
CS(=O)(=O)Nc1ccc(-c2ccccc2)cc1NC1CCN(Cc2ccccc2)CC1

>  <score_type>  (15) 
oracle

>  <origin>  (15) 
adg

>  <m_score__min__energy>  (15) 
-9.2799999999999994

>  <m_primary>  (15) 
energy

$$$$
15:0
     RDKit          3D

 53 57  0  0  0  0  0  0  0  0999 V2000
   57.6172   34.5410   44.4903 H   0  0  0  0  0  0  0  0  0  0  0  0
   58.3830   34.1010   45.1460 C   0  0  0  0  0  0  0  0  0  0  0  0
   59.2930   34.9340   45.6760 C   0  0  0  0  0  0  0  0  0  0  0  0
   59.3248   35.9618   45.2852 H   0  0  0  0  0  0  0  0  0  0  0  0
   60.2560   34.5830   46.7420 C   0  0  0  0  0  0  0  0  0  0  0  0
   61.5520   34.1780   46.3890 C   0  0  0  0  0  0  0  0  0  0  0  0
   61.8470   34.1476   45.3297 H   0  0  0  0  0  0  0  0  0  0  0  0
   62.4700   33.8130   47.3780 C   0  0  0  0  0  0  0  0  0  0  0  0
   63.4890   33.5094   47.0959 H   0  0  0  0  0  0  0  0  0  0  0  0
   62.0960   33.8330   48.7240 C   0  0  0  0  0  0  0  0  0  0  0  0
   62.8233   33.5560   49.5014 H   0  0  0  0  0  0  0  0  0  0  0  0
   60.7980   34.2050   49.0820 C   0  0  0  0  0  0  0  0  0  0  0  0
   60.5016   34.2123   50.1413 H   0  0  0  0  0  0  0  0  0  0  0  0
   59.8750   34.5680   48.0970 C   0  0  0  0  0  0  0  0  0  0  0  0
   58.8485   34.8426   48.3814 H   0  0  0  0  0  0  0  0  0  0  0  0
   58.3260   32.6440   45.3710 C   0  0  0  0  0  0  0  0  0  0  0  0
   59.5900   31.7420   45.9950 S   0  0  0  0  0  0  0  0  0  0  0  0
   58.8360   30.2490   45.8530 C   0  0  0  0  0  0  0  0  0  0  0  0
   59.4500   29.1140   46.2390 N   0  0  0  0  0  0  0  0  0  0  0  0
   59.0410   27.8290   46.2180 C   0  0  0  0  0  0  0  0  0  0  0  0
   59.7544   27.0836   46.5993 H   0  0  0  0  0  0  0  0  0  0  0  0
   57.8090   27.3360   45.7650 C   0  0  0  0  0  0  0  0  0  0  0  0
   57.5720   25.9150   45.8600 N   0  0  0  0  0  0  0  0  0  0  0  0
   57.0750   25.3330   47.1200 C   0  0  0  0  0  0  0  0  0  0  0  0
   57.9087   25.2620   47.8341 H   0  0  0  0  0  0  0  0  0  0  0  0
   56.2790   25.9842   47.5104 H   0  0  0  0  0  0  0  0  0  0  0  0
   56.4870   23.9340   46.9000 C   0  0  0  0  0  0  0  0  0  0  0  0
   57.3050   23.2048   46.8048 H   0  0  0  0  0  0  0  0  0  0  0  0
   55.8515   23.6679   47.7576 H   0  0  0  0  0  0  0  0  0  0  0  0
   55.6770   23.9220   45.6730 N   0  0  0  0  0  0  0  0  0  0  0  0
   54.3050   23.4870   45.7010 C   0  0  0  0  0  0  0  0  0  0  0  0
   53.9100   22.4250   46.5340 C   0  0  0  0  0  0  0  0  0  0  0  0
   54.6527   21.9280   47.1753 H   0  0  0  0  0  0  0  0  0  0  0  0
   52.5790   21.9970   46.5520 C   0  0  0  0  0  0  0  0  0  0  0  0
   52.2767   21.1700   47.2113 H   0  0  0  0  0  0  0  0  0  0  0  0
   51.6320   22.6190   45.7330 C   0  0  0  0  0  0  0  0  0  0  0  0
   50.3100   22.1900   45.7500 O   0  0  0  0  0  0  0  0  0  0  0  0
   52.0160   23.6690   44.8950 C   0  0  0  0  0  0  0  0  0  0  0  0
   51.2710   24.1565   44.2491 H   0  0  0  0  0  0  0  0  0  0  0  0
   53.3450   24.1010   44.8760 C   0  0  0  0  0  0  0  0  0  0  0  0
   53.6422   24.9261   44.2120 H   0  0  0  0  0  0  0  0  0  0  0  0
   56.2540   24.4290   44.4180 C   0  0  0  0  0  0  0  0  0  0  0  0
   56.3710   23.5920   43.7139 H   0  0  0  0  0  0  0  0  0  0  0  0
   55.5755   25.1916   44.0080 H   0  0  0  0  0  0  0  0  0  0  0  0
   57.6220   25.0770   44.6540 C   0  0  0  0  0  0  0  0  0  0  0  0
   58.3807   24.2915   44.7858 H   0  0  0  0  0  0  0  0  0  0  0  0
   57.8835   25.7016   43.7871 H   0  0  0  0  0  0  0  0  0  0  0  0
   56.8130   28.0920   45.2370 N   0  0  0  0  0  0  0  0  0  0  0  0
   56.6400   29.4120   44.9930 C   0  0  0  0  0  0  0  0  0  0  0  0
   55.5450   29.7510   44.4690 O   0  0  0  0  0  0  0  0  0  0  0  0
   57.5740   30.4120   45.2860 C   0  0  0  0  0  0  0  0  0  0  0  0
   57.3060   31.7720   45.0040 C   0  0  0  0  0  0  0  0  0  0  0  0
   56.3708   32.1112   44.5346 H   0  0  0  0  0  0  0  0  0  0  0  0
  1  2  1  0
  2  3  2  0
  3  4  1  0
  3  5  1  0
  5  6  2  0
  6  7  1  0
  6  8  1  0
  8  9  1  0
  8 10  2  0
 10 11  1  0
 10 12  1  0
 12 13  1  0
 12 14  2  0
 14 15  1  0
  2 16  1  0
 16 17  1  0
 17 18  1  0
 18 19  1  0
 19 20  2  0
 20 21  1  0
 20 22  1  0
 22 23  1  0
 23 24  1  0
 24 25  1  0
 24 26  1  0
 24 27  1  0
 27 28  1  0
 27 29  1  0
 27 30  1  0
 30 31  1  0
 31 32  2  0
 32 33  1  0
 32 34  1  0
 34 35  1  0
 34 36  2  0
 36 37  1  0
 36 38  1  0
 38 39  1  0
 38 40  2  0
 40 41  1  0
 30 42  1  0
 42 43  1  0
 42 44  1  0
 42 45  1  0
 45 46  1  0
 45 47  1  0
 22 48  2  0
 48 49  1  0
 49 50  2  0
 49 51  1  0
 51 52  1  0
 52 53  1  0
 14  5  1  0
 52 16  2  0
 51 18  2  0
 45 23  1  0
 40 31  1  0
M  CHG  1  37  -1
M  END
>  <UniqueID>  (16) 
14

>  <SMILES>  (16) 
O=c1nc(N2CCN(c3ccc([O-])cc3)CC2)cnc2sc(/C=C\c3ccccc3)cc12

>  <Energy>  (16) 
122.6889616421796

>  <Genealogy>  (16) 
O=c1nc(N2CCN(c3ccc([O-])cc3)CC2)cnc2sc(C=Cc3ccccc3)cc12 (protonated)
O=c1nc(N2CCN(c3ccc([O-])cc3)CC2)cnc2sc(/C=C\c3ccccc3)cc12 (cis-trans isomerization)
O=c1nc(N2CCN(c3ccc([O-])cc3)CC2)cnc2sc(/C=C\c3ccccc3)cc12 (3D coordinates assigned)
O=c1nc(N2CCN(c3ccc([O-])cc3)CC2)cnc2sc(/C=C\c3ccccc3)cc12 (nonaromatic ring conformer: 122.6889616421796 kcal/mol)

>  <smiles>  (16) 
O=c1nc(N2CCN(c3ccc(O)cc3)CC2)cnc2sc(C=Cc3ccccc3)cc12

>  <score_type>  (16) 
oracle

>  <origin>  (16) 
adg

>  <m_score__min__energy>  (16) 
-11.029999999999999

>  <m_primary>  (16) 
energy

$$$$
16:0
     RDKit          3D

 83 87  0  0  0  0  0  0  0  0999 V2000
   55.0956   31.6262   51.0019 H   0  0  0  0  0  0  0  0  0  0  0  0
   55.3880   30.8600   51.7350 C   0  0  0  0  0  0  0  0  0  0  0  0
   56.5920   30.3800   51.7440 N   0  0  0  0  0  0  0  0  0  0  0  0
   57.7090   31.0220   52.3520 C   0  0  0  0  0  0  0  0  0  0  0  0
   57.7190   31.2220   53.5960 O   0  0  0  0  0  0  0  0  0  0  0  0
   58.7950   31.5420   51.4940 C   0  0  0  0  0  0  0  0  0  0  0  0
   59.5160   30.8220   50.5420 C   0  0  0  0  0  0  0  0  0  0  0  0
   59.4860   29.3340   50.3470 C   0  0  0  0  0  0  0  0  0  0  0  0
   59.4760   28.8358   51.3277 H   0  0  0  0  0  0  0  0  0  0  0  0
   58.5821   29.0560   49.7852 H   0  0  0  0  0  0  0  0  0  0  0  0
   60.3780   29.0198   49.7852 H   0  0  0  0  0  0  0  0  0  0  0  0
   60.1890   31.7580   49.7650 C   0  0  0  0  0  0  0  0  0  0  0  0
   60.8620   31.5260   48.4360 C   0  0  0  0  0  0  0  0  0  0  0  0
   61.8116   30.9939   48.5945 H   0  0  0  0  0  0  0  0  0  0  0  0
   61.0586   32.4941   47.9522 H   0  0  0  0  0  0  0  0  0  0  0  0
   59.9580   30.6920   47.5460 C   0  0  0  0  0  0  0  0  0  0  0  0
   60.2280   29.3220   47.4820 C   0  0  0  0  0  0  0  0  0  0  0  0
   60.9981   28.9003   48.1447 H   0  0  0  0  0  0  0  0  0  0  0  0
   59.5520   28.4700   46.6040 C   0  0  0  0  0  0  0  0  0  0  0  0
   59.8940   26.9900   46.6520 C   0  0  0  0  0  0  0  0  0  0  0  0
   59.9691   26.6648   47.7002 H   0  0  0  0  0  0  0  0  0  0  0  0
   59.1051   26.4147   46.1453 H   0  0  0  0  0  0  0  0  0  0  0  0
   60.8553   26.8192   46.1453 H   0  0  0  0  0  0  0  0  0  0  0  0
   58.5500   28.9910   45.7480 C   0  0  0  0  0  0  0  0  0  0  0  0
   57.7430   28.0430   44.8660 C   0  0  0  0  0  0  0  0  0  0  0  0
   57.8233   28.3756   43.8206 H   0  0  0  0  0  0  0  0  0  0  0  0
   58.1515   27.0296   44.9935 H   0  0  0  0  0  0  0  0  0  0  0  0
   56.2950   28.0110   45.2540 C   0  0  0  0  0  0  0  0  0  0  0  0
   55.5400   28.9710   44.9500 O   0  0  0  0  0  0  0  0  0  0  0  0
   55.7670   26.8320   45.8770 N   0  0  0  0  0  0  0  0  0  0  0  0
   56.3160   25.4680   45.7860 C   0  0  0  0  0  0  0  0  0  0  0  0
   57.3520   25.2610   46.9060 C   0  0  0  0  0  0  0  0  0  0  0  0
   56.8589   25.3595   47.8843 H   0  0  0  0  0  0  0  0  0  0  0  0
   57.7926   24.2571   46.8169 H   0  0  0  0  0  0  0  0  0  0  0  0
   58.1446   26.0185   46.8169 H   0  0  0  0  0  0  0  0  0  0  0  0
   55.1610   24.4730   45.9970 C   0  0  0  0  0  0  0  0  0  0  0  0
   54.9936   24.3287   47.0746 H   0  0  0  0  0  0  0  0  0  0  0  0
   54.2458   24.8700   45.5336 H   0  0  0  0  0  0  0  0  0  0  0  0
   55.4182   23.5091   45.5336 H   0  0  0  0  0  0  0  0  0  0  0  0
   56.9880   25.2180   44.4100 C   0  0  0  0  0  0  0  0  0  0  0  0
   56.5368   25.9025   43.6766 H   0  0  0  0  0  0  0  0  0  0  0  0
   58.0654   25.3909   44.5491 H   0  0  0  0  0  0  0  0  0  0  0  0
   56.8400   23.8150   43.8970 C   0  0  0  0  0  0  0  0  0  0  0  0
   57.5620   22.7600   44.3130 N   0  0  0  0  0  0  0  0  0  0  0  0
   57.0050   21.7100   43.6820 C   0  0  0  0  0  0  0  0  0  0  0  0
   57.3710   20.6781   43.7877 H   0  0  0  0  0  0  0  0  0  0  0  0
   55.9550   22.0470   42.9080 N   0  0  0  0  0  0  0  0  0  0  0  0
   55.8470   23.3810   43.0550 C   0  0  0  0  0  0  0  0  0  0  0  0
   55.0876   24.0183   42.5785 H   0  0  0  0  0  0  0  0  0  0  0  0
   58.3050   30.3970   45.7440 C   0  0  0  0  0  0  0  0  0  0  0  0
   57.3990   30.9870   44.8290 C   0  0  0  0  0  0  0  0  0  0  0  0
   56.9110   30.3599   44.0683 H   0  0  0  0  0  0  0  0  0  0  0  0
   57.1170   32.3520   44.8790 C   0  0  0  0  0  0  0  0  0  0  0  0
   56.4182   32.7938   44.1534 H   0  0  0  0  0  0  0  0  0  0  0  0
   57.7140   33.1550   45.8400 C   0  0  0  0  0  0  0  0  0  0  0  0
   57.4597   34.2236   45.8983 H   0  0  0  0  0  0  0  0  0  0  0  0
   58.6340   32.6100   46.7300 C   0  0  0  0  0  0  0  0  0  0  0  0
   59.1026   33.2570   47.4862 H   0  0  0  0  0  0  0  0  0  0  0  0
   58.9770   31.2410   46.6800 C   0  0  0  0  0  0  0  0  0  0  0  0
   59.9640   32.9930   50.2500 N   0  0  0  0  0  0  0  0  0  0  0  0
   60.2990   33.8900   49.8320 H   0  0  0  0  0  0  0  0  0  0  0  0
   59.1270   32.8760   51.2970 C   0  0  0  0  0  0  0  0  0  0  0  0
   58.5370   34.0540   52.0000 C   0  0  0  0  0  0  0  0  0  0  0  0
   58.6108   33.9067   53.0876 H   0  0  0  0  0  0  0  0  0  0  0  0
   59.0859   34.9637   51.7151 H   0  0  0  0  0  0  0  0  0  0  0  0
   57.4798   34.1593   51.7151 H   0  0  0  0  0  0  0  0  0  0  0  0
   54.4030   30.3520   52.7410 C   0  0  0  0  0  0  0  0  0  0  0  0
   54.2212   29.2807   52.5700 H   0  0  0  0  0  0  0  0  0  0  0  0
   54.8031   30.4941   53.7558 H   0  0  0  0  0  0  0  0  0  0  0  0
   53.1310   31.1010   52.5960 N   0  0  0  0  0  0  0  0  0  0  0  0
   52.0480   30.5750   53.4690 C   0  0  0  0  0  0  0  0  0  0  0  0
   52.4976   29.9287   54.2372 H   0  0  0  0  0  0  0  0  0  0  0  0
   51.5318   31.4377   53.9154 H   0  0  0  0  0  0  0  0  0  0  0  0
   51.0060   29.7620   52.6920 C   0  0  0  0  0  0  0  0  0  0  0  0
   50.5051   29.0618   53.3767 H   0  0  0  0  0  0  0  0  0  0  0  0
   50.2655   30.4471   52.2536 H   0  0  0  0  0  0  0  0  0  0  0  0
   51.6380   29.0340   51.6560 O   0  0  0  0  0  0  0  0  0  0  0  0
   52.1190   29.9080   50.6490 C   0  0  0  0  0  0  0  0  0  0  0  0
   52.9079   29.3868   50.0869 H   0  0  0  0  0  0  0  0  0  0  0  0
   51.2562   30.1746   50.0209 H   0  0  0  0  0  0  0  0  0  0  0  0
   52.7040   31.2350   51.1920 C   0  0  0  0  0  0  0  0  0  0  0  0
   53.5722   31.5202   50.5798 H   0  0  0  0  0  0  0  0  0  0  0  0
   51.9200   32.0049   51.1411 H   0  0  0  0  0  0  0  0  0  0  0  0
  1  2  1  0
  2  3  2  0
  3  4  1  0
  4  5  2  0
  4  6  1  0
  6  7  1  0
  7  8  1  0
  8  9  1  0
  8 10  1  0
  8 11  1  0
  7 12  2  0
 12 13  1  0
 13 14  1  0
 13 15  1  0
 13 16  1  0
 16 17  2  0
 17 18  1  0
 17 19  1  0
 19 20  1  0
 20 21  1  0
 20 22  1  0
 20 23  1  0
 19 24  2  0
 24 25  1  0
 25 26  1  0
 25 27  1  0
 25 28  1  0
 28 29  2  0
 28 30  1  0
 30 31  1  0
 31 32  1  0
 32 33  1  0
 32 34  1  0
 32 35  1  0
 31 36  1  0
 36 37  1  0
 36 38  1  0
 36 39  1  0
 31 40  1  0
 40 41  1  0
 40 42  1  0
 40 43  1  0
 43 44  1  0
 44 45  2  0
 45 46  1  0
 45 47  1  0
 47 48  1  0
 48 49  1  0
 24 50  1  0
 50 51  2  0
 51 52  1  0
 51 53  1  0
 53 54  1  0
 53 55  2  0
 55 56  1  0
 55 57  1  0
 57 58  1  0
 57 59  2  0
 12 60  1  0
 60 61  1  0
 60 62  1  0
 62 63  1  0
 63 64  1  0
 63 65  1  0
 63 66  1  0
  2 67  1  0
 67 68  1  0
 67 69  1  0
 67 70  1  0
 70 71  1  0
 71 72  1  0
 71 73  1  0
 71 74  1  0
 74 75  1  0
 74 76  1  0
 74 77  1  0
 77 78  1  0
 78 79  1  0
 78 80  1  0
 78 81  1  0
 81 82  1  0
 81 83  1  0
 62  6  2  0
 81 70  1  0
 59 16  1  0
 48 43  2  0
 59 50  1  0
M  CHG  2  30  -1  47  -1
M  END
>  <UniqueID>  (17) 
15

>  <SMILES>  (17) 
Cc1cc(Cc2[nH]c(C)c(C(=O)/N=C/CN3CCOCC3)c2C)c2ccccc2c1CC(=O)[N-]C(C)(C)Cc1c[n-]cn1

>  <Energy>  (17) 
157.24918214902857

>  <Genealogy>  (17) 
Cc1cc(Cc2[nH]c(C)c(C(=O)N=CCN3CCOCC3)c2C)c2ccccc2c1CC(=O)[N-]C(C)(C)Cc1c[n-]cn1 (protonated)
Cc1cc(Cc2[nH]c(C)c(C(=O)/N=C/CN3CCOCC3)c2C)c2ccccc2c1CC(=O)[N-]C(C)(C)Cc1c[n-]cn1 (cis-trans isomerization)
Cc1cc(Cc2[nH]c(C)c(C(=O)/N=C/CN3CCOCC3)c2C)c2ccccc2c1CC(=O)[N-]C(C)(C)Cc1c[n-]cn1 (3D coordinates assigned)
Cc1cc(Cc2[nH]c(C)c(C(=O)/N=C/CN3CCOCC3)c2C)c2ccccc2c1CC(=O)[N-]C(C)(C)Cc1c[n-]cn1 (nonaromatic ring conformer: 157.24918214902857 kcal/mol)

>  <smiles>  (17) 
Cc1cc(Cc2[nH]c(C)c(C(=O)N=CCN3CCOCC3)c2C)c2ccccc2c1CC(=O)NC(C)(C)Cc1c[nH]cn1

>  <score_type>  (17) 
oracle

>  <origin>  (17) 
adg

>  <m_score__min__energy>  (17) 
-13.81

>  <m_primary>  (17) 
energy

$$$$
17:0
     RDKit          3D

 44 47  0  0  0  0  0  0  0  0999 V2000
   58.3772   32.0346   49.6514 H   0  0  0  0  0  0  0  0  0  0  0  0
   58.6120   32.6580   48.7760 C   0  0  0  0  0  0  0  0  0  0  0  0
   57.8360   32.5870   47.6640 N   0  0  0  0  0  0  0  0  0  0  0  0
   58.0860   33.3290   46.5490 C   0  0  0  0  0  0  0  0  0  0  0  0
   57.1710   33.1850   45.3920 C   0  0  0  0  0  0  0  0  0  0  0  0
   56.6490   34.2100   44.8820 O   0  0  0  0  0  0  0  0  0  0  0  0
   56.7790   31.8960   44.8910 N   0  0  0  0  0  0  0  0  0  0  0  0
   57.4100   30.7700   45.0670 C   0  0  0  0  0  0  0  0  0  0  0  0
   56.7320   29.6010   45.2480 N   0  0  0  0  0  0  0  0  0  0  0  0
   57.3680   28.4160   45.4410 C   0  0  0  0  0  0  0  0  0  0  0  0
   56.6290   27.2430   45.6100 C   0  0  0  0  0  0  0  0  0  0  0  0
   55.5298   27.2836   45.5959 H   0  0  0  0  0  0  0  0  0  0  0  0
   57.2790   26.0110   45.7980 C   0  0  0  0  0  0  0  0  0  0  0  0
   58.6910   25.9740   45.8290 C   0  0  0  0  0  0  0  0  0  0  0  0
   59.4300   27.1520   45.6750 C   0  0  0  0  0  0  0  0  0  0  0  0
   60.5288   27.1180   45.7128 H   0  0  0  0  0  0  0  0  0  0  0  0
   58.7770   28.3740   45.4730 C   0  0  0  0  0  0  0  0  0  0  0  0
   59.4940   29.5650   45.3060 C   0  0  0  0  0  0  0  0  0  0  0  0
   60.5936   29.5546   45.3330 H   0  0  0  0  0  0  0  0  0  0  0  0
   58.8100   30.7670   45.1050 C   0  0  0  0  0  0  0  0  0  0  0  0
   59.3684   31.7061   44.9773 H   0  0  0  0  0  0  0  0  0  0  0  0
   59.3730   24.7780   46.0680 O   0  0  0  0  0  0  0  0  0  0  0  0
   59.2280   23.6140   45.2560 C   0  0  0  0  0  0  0  0  0  0  0  0
   60.1125   22.9751   45.3956 H   0  0  0  0  0  0  0  0  0  0  0  0
   59.1275   23.9472   44.2125 H   0  0  0  0  0  0  0  0  0  0  0  0
   57.9770   22.8020   45.6050 C   0  0  0  0  0  0  0  0  0  0  0  0
   57.9929   22.5584   46.6776 H   0  0  0  0  0  0  0  0  0  0  0  0
   57.9752   21.8813   45.0031 H   0  0  0  0  0  0  0  0  0  0  0  0
   56.7610   23.5630   45.3030 N   0  0  0  0  0  0  0  0  0  0  0  0
   55.8900   23.1590   44.1950 C   0  0  0  0  0  0  0  0  0  0  0  0
   54.9612   22.7282   44.5971 H   0  0  0  0  0  0  0  0  0  0  0  0
   55.6498   24.0376   43.5783 H   0  0  0  0  0  0  0  0  0  0  0  0
   56.4056   22.4081   43.5783 H   0  0  0  0  0  0  0  0  0  0  0  0
   56.4790   24.7820   46.0200 C   0  0  0  0  0  0  0  0  0  0  0  0
   55.5280   24.8110   46.8490 O   0  0  0  0  0  0  0  0  0  0  0  0
   59.1980   34.2080   46.5360 C   0  0  0  0  0  0  0  0  0  0  0  0
   59.5480   35.0400   45.3310 C   0  0  0  0  0  0  0  0  0  0  0  0
   59.9551   36.0077   45.6593 H   0  0  0  0  0  0  0  0  0  0  0  0
   60.3002   34.5118   44.7267 H   0  0  0  0  0  0  0  0  0  0  0  0
   58.6444   35.2083   44.7267 H   0  0  0  0  0  0  0  0  0  0  0  0
   59.9940   34.2990   47.6880 C   0  0  0  0  0  0  0  0  0  0  0  0
   60.8507   34.9886   47.7077 H   0  0  0  0  0  0  0  0  0  0  0  0
   59.7050   33.5200   48.8080 C   0  0  0  0  0  0  0  0  0  0  0  0
   60.3343   33.5859   49.7078 H   0  0  0  0  0  0  0  0  0  0  0  0
  1  2  1  0
  2  3  2  0
  3  4  1  0
  4  5  1  0
  5  6  2  0
  5  7  1  0
  7  8  2  0
  8  9  1  0
  9 10  1  0
 10 11  2  0
 11 12  1  0
 11 13  1  0
 13 14  2  0
 14 15  1  0
 15 16  1  0
 15 17  2  0
 17 18  1  0
 18 19  1  0
 18 20  2  0
 20 21  1  0
 14 22  1  0
 22 23  1  0
 23 24  1  0
 23 25  1  0
 23 26  1  0
 26 27  1  0
 26 28  1  0
 26 29  1  0
 29 30  1  0
 30 31  1  0
 30 32  1  0
 30 33  1  0
 29 34  1  0
 34 35  2  0
  4 36  2  0
 36 37  1  0
 37 38  1  0
 37 39  1  0
 37 40  1  0
 36 41  1  0
 41 42  1  0
 41 43  2  0
 43 44  1  0
 43  2  1  0
 20  8  1  0
 17 10  1  0
 34 13  1  0
M  CHG  1   9  -1
M  END
>  <UniqueID>  (18) 
16

>  <SMILES>  (18) 
Cc1cccnc1C(=O)/N=c1/ccc2cc3c(cc2[n-]1)C(=O)N(C)CCO3

>  <Energy>  (18) 
70.19810761881502

>  <Genealogy>  (18) 
Cc1cccnc1C(=O)N=c1ccc2cc3c(cc2[n-]1)C(=O)N(C)CCO3 (protonated)
Cc1cccnc1C(=O)/N=c1/ccc2cc3c(cc2[n-]1)C(=O)N(C)CCO3 (cis-trans isomerization)
Cc1cccnc1C(=O)/N=c1/ccc2cc3c(cc2[n-]1)C(=O)N(C)CCO3 (3D coordinates assigned)
Cc1cccnc1C(=O)/N=c1/ccc2cc3c(cc2[n-]1)C(=O)N(C)CCO3 (nonaromatic ring conformer: 70.19810761881502 kcal/mol)

>  <smiles>  (18) 
Cc1cccnc1C(=O)N=c1ccc2cc3c(cc2[nH]1)C(=O)N(C)CCO3

>  <score_type>  (18) 
oracle

>  <origin>  (18) 
adg

>  <m_score__min__energy>  (18) 
-8.4199999999999999

>  <m_primary>  (18) 
energy

$$$$
18:0
     RDKit          3D

 46 48  0  0  0  0  0  0  0  0999 V2000
   57.4400   29.9390   52.0400 C   0  0  0  0  0  0  0  0  0  0  0  0
   57.7750   30.8890   51.3770 C   0  0  0  0  0  0  0  0  0  0  0  0
   58.1710   32.0540   50.5790 C   0  0  0  0  0  0  0  0  0  0  0  0
   58.2670   31.7160   49.1970 O   0  0  0  0  0  0  0  0  0  0  0  0
   59.2180   32.2240   48.2940 C   0  0  0  0  0  0  0  0  0  0  0  0
   59.0710   33.4810   47.6750 C   0  0  0  0  0  0  0  0  0  0  0  0
   60.0350   33.9560   46.7790 C   0  0  0  0  0  0  0  0  0  0  0  0
   59.8300   35.2100   46.1840 O   0  0  0  0  0  0  0  0  0  0  0  0
   59.2700   35.4050   44.8890 C   0  0  0  0  0  0  0  0  0  0  0  0
   61.1690   33.1700   46.5060 C   0  0  0  0  0  0  0  0  0  0  0  0
   61.3280   31.9300   47.1240 C   0  0  0  0  0  0  0  0  0  0  0  0
   60.3570   31.4510   48.0080 C   0  0  0  0  0  0  0  0  0  0  0  0
   60.6090   29.8600   48.8110 S   0  0  0  0  0  0  0  0  0  0  0  0
   60.7450   28.9070   47.2580 C   0  0  0  0  0  0  0  0  0  0  0  0
   59.4520   28.2030   46.9400 C   0  0  0  0  0  0  0  0  0  0  0  0
   58.5390   28.7900   46.0280 C   0  0  0  0  0  0  0  0  0  0  0  0
   57.3290   28.1530   45.7040 C   0  0  0  0  0  0  0  0  0  0  0  0
   56.4590   28.7520   44.7870 O   0  0  0  0  0  0  0  0  0  0  0  0
   56.5120   30.1070   44.4450 C   0  0  0  0  0  0  0  0  0  0  0  0
   57.6860   30.6270   43.6890 C   0  0  0  0  0  0  0  0  0  0  0  0
   55.5500   30.8780   44.7130 O   0  0  0  0  0  0  0  0  0  0  0  0
   57.0390   26.9420   46.3500 C   0  0  0  0  0  0  0  0  0  0  0  0
   55.9300   26.1200   46.3440 C   0  0  0  0  0  0  0  0  0  0  0  0
   54.7580   26.3210   45.6280 O   0  0  0  0  0  0  0  0  0  0  0  0
   56.1210   25.1060   47.1610 O   0  0  0  0  0  0  0  0  0  0  0  0
   57.3090   25.2270   47.7230 C   0  0  0  0  0  0  0  0  0  0  0  0
   57.9100   26.3760   47.2440 C   0  0  0  0  0  0  0  0  0  0  0  0
   59.1350   26.9730   47.5630 C   0  0  0  0  0  0  0  0  0  0  0  0
   60.0170   26.3890   48.4730 O   0  0  0  0  0  0  0  0  0  0  0  0
   57.1344   29.0725   52.6448 H   0  0  0  0  0  0  0  0  0  0  0  0
   57.4202   32.8481   50.7041 H   0  0  0  0  0  0  0  0  0  0  0  0
   59.1565   32.3985   50.9256 H   0  0  0  0  0  0  0  0  0  0  0  0
   58.1874   34.0967   47.8989 H   0  0  0  0  0  0  0  0  0  0  0  0
   58.2353   35.7653   44.9874 H   0  0  0  0  0  0  0  0  0  0  0  0
   59.8664   36.1484   44.3397 H   0  0  0  0  0  0  0  0  0  0  0  0
   59.2757   34.4520   44.3397 H   0  0  0  0  0  0  0  0  0  0  0  0
   61.9326   33.5344   45.8031 H   0  0  0  0  0  0  0  0  0  0  0  0
   62.2227   31.3254   46.9146 H   0  0  0  0  0  0  0  0  0  0  0  0
   60.9920   29.5940   46.4352 H   0  0  0  0  0  0  0  0  0  0  0  0
   61.5344   28.1506   47.3797 H   0  0  0  0  0  0  0  0  0  0  0  0
   58.7814   29.7588   45.5670 H   0  0  0  0  0  0  0  0  0  0  0  0
   58.4560   30.9681   44.3967 H   0  0  0  0  0  0  0  0  0  0  0  0
   58.0981   29.8272   43.0561 H   0  0  0  0  0  0  0  0  0  0  0  0
   57.3706   31.4696   43.0561 H   0  0  0  0  0  0  0  0  0  0  0  0
   57.7480   24.5294   48.4515 H   0  0  0  0  0  0  0  0  0  0  0  0
   60.4850   26.9270   49.1920 H   0  0  0  0  0  0  0  0  0  0  0  0
  1  2  3  0
  2  3  1  0
  3  4  1  0
  4  5  1  0
  5  6  2  0
  6  7  1  0
  7  8  1  0
  8  9  1  0
  7 10  2  0
 10 11  1  0
 11 12  2  0
 12 13  1  0
 13 14  1  0
 14 15  1  0
 15 16  1  0
 16 17  2  0
 17 18  1  0
 18 19  1  0
 19 20  1  0
 19 21  2  0
 17 22  1  0
 22 23  2  0
 23 24  1  0
 23 25  1  0
 25 26  1  0
 26 27  2  0
 27 28  1  0
 28 29  1  0
 12  5  1  0
 28 15  2  0
 27 22  1  0
  1 30  1  0
  3 31  1  0
  3 32  1  0
  6 33  1  0
  9 34  1  0
  9 35  1  0
  9 36  1  0
 10 37  1  0
 11 38  1  0
 14 39  1  0
 14 40  1  0
 16 41  1  0
 20 42  1  0
 20 43  1  0
 20 44  1  0
 26 45  1  0
 29 46  1  0
M  CHG  1  24  -1
M  END
>  <UniqueID>  (19) 
17

>  <SMILES>  (19) 
C#CCOc1cc(OC)ccc1SCc1cc(OC(C)=O)c2c([O-])occ2c1O

>  <Energy>  (19) 
78.98755621493433

>  <Genealogy>  (19) 
C#CCOc1cc(OC)ccc1SCc1cc(OC(C)=O)c2c([O-])occ2c1O (protonated)
C#CCOc1cc(OC)ccc1SCc1cc(OC(C)=O)c2c([O-])occ2c1O (3D coordinates assigned)
C#CCOc1cc(OC)ccc1SCc1cc(OC(C)=O)c2c([O-])occ2c1O (optimized conformer: 78.98755621493433 kcal/mol)

>  <smiles>  (19) 
C#CCOc1cc(OC)ccc1SCc1cc(OC(C)=O)c2c(O)occ2c1O

>  <score_type>  (19) 
oracle

>  <origin>  (19) 
adg

>  <m_score__min__energy>  (19) 
-10.75

>  <m_primary>  (19) 
energy

$$$$
19:0
     RDKit          3D

 65 68  0  0  0  0  0  0  0  0999 V2000
   60.2287   35.2404   45.8451 H   0  0  0  0  0  0  0  0  0  0  0  0
   59.3660   34.5680   45.7280 C   0  0  0  0  0  0  0  0  0  0  0  0
   58.4770   34.4210   46.7470 N   0  0  0  0  0  0  0  0  0  0  0  0
   57.3990   33.6000   46.6390 C   0  0  0  0  0  0  0  0  0  0  0  0
   56.6952   33.5039   47.4789 H   0  0  0  0  0  0  0  0  0  0  0  0
   57.1840   32.8780   45.4620 C   0  0  0  0  0  0  0  0  0  0  0  0
   56.3183   32.2049   45.3760 H   0  0  0  0  0  0  0  0  0  0  0  0
   58.0790   33.0170   44.3910 C   0  0  0  0  0  0  0  0  0  0  0  0
   57.8990   32.2060   43.1360 C   0  0  0  0  0  0  0  0  0  0  0  0
   58.8455   31.7020   42.8908 H   0  0  0  0  0  0  0  0  0  0  0  0
   57.6058   32.8772   42.3153 H   0  0  0  0  0  0  0  0  0  0  0  0
   56.8040   31.1550   43.3350 C   0  0  0  0  0  0  0  0  0  0  0  0
   56.3270   30.9430   42.3668 H   0  0  0  0  0  0  0  0  0  0  0  0
   56.0637   31.5468   44.0480 H   0  0  0  0  0  0  0  0  0  0  0  0
   57.3650   29.9200   43.8730 N   0  0  0  0  0  0  0  0  0  0  0  0
   56.8920   29.2850   45.0710 C   0  0  0  0  0  0  0  0  0  0  0  0
   55.7260   28.8060   45.0980 O   0  0  0  0  0  0  0  0  0  0  0  0
   57.7850   29.1840   46.2590 C   0  0  0  0  0  0  0  0  0  0  0  0
   58.4580   30.3320   46.7160 C   0  0  0  0  0  0  0  0  0  0  0  0
   58.3147   31.2883   46.1917 H   0  0  0  0  0  0  0  0  0  0  0  0
   59.3090   30.2760   47.8300 C   0  0  0  0  0  0  0  0  0  0  0  0
   60.0140   31.4900   48.3170 C   0  0  0  0  0  0  0  0  0  0  0  0
   61.3290   31.7420   47.8880 C   0  0  0  0  0  0  0  0  0  0  0  0
   61.8181   31.0370   47.1997 H   0  0  0  0  0  0  0  0  0  0  0  0
   62.0250   32.8740   48.3220 C   0  0  0  0  0  0  0  0  0  0  0  0
   63.3370   33.0640   47.8640 O   0  0  0  0  0  0  0  0  0  0  0  0
   64.4840   33.1180   48.7070 C   0  0  0  0  0  0  0  0  0  0  0  0
   64.1662   33.1030   49.7600 H   0  0  0  0  0  0  0  0  0  0  0  0
   65.1280   32.2492   48.5060 H   0  0  0  0  0  0  0  0  0  0  0  0
   65.0435   34.0435   48.5060 H   0  0  0  0  0  0  0  0  0  0  0  0
   61.3930   33.7750   49.1940 C   0  0  0  0  0  0  0  0  0  0  0  0
   61.9279   34.6739   49.5346 H   0  0  0  0  0  0  0  0  0  0  0  0
   60.0880   33.5350   49.6310 C   0  0  0  0  0  0  0  0  0  0  0  0
   59.6019   34.2492   50.3119 H   0  0  0  0  0  0  0  0  0  0  0  0
   59.3890   32.3890   49.2090 C   0  0  0  0  0  0  0  0  0  0  0  0
   58.0910   32.1080   49.6690 O   0  0  0  0  0  0  0  0  0  0  0  0
   57.7570   31.8130   51.0210 C   0  0  0  0  0  0  0  0  0  0  0  0
   58.4092   32.3891   51.6939 H   0  0  0  0  0  0  0  0  0  0  0  0
   56.7073   32.0842   51.2069 H   0  0  0  0  0  0  0  0  0  0  0  0
   57.8964   30.7378   51.2069 H   0  0  0  0  0  0  0  0  0  0  0  0
   59.4950   29.0430   48.4640 C   0  0  0  0  0  0  0  0  0  0  0  0
   60.1676   28.9688   49.3313 H   0  0  0  0  0  0  0  0  0  0  0  0
   58.8500   27.9400   48.0140 N   0  0  0  0  0  0  0  0  0  0  0  0
   58.0070   27.9650   46.9450 C   0  0  0  0  0  0  0  0  0  0  0  0
   57.4190   26.8690   46.5570 N   0  0  0  0  0  0  0  0  0  0  0  0
   57.9920   25.5280   46.6480 C   0  0  0  0  0  0  0  0  0  0  0  0
   59.0487   25.5620   46.3442 H   0  0  0  0  0  0  0  0  0  0  0  0
   57.9134   25.1714   47.6856 H   0  0  0  0  0  0  0  0  0  0  0  0
   57.2420   24.5840   45.7420 C   0  0  0  0  0  0  0  0  0  0  0  0
   55.9190   24.9000   45.3830 C   0  0  0  0  0  0  0  0  0  0  0  0
   55.4446   25.8051   45.7901 H   0  0  0  0  0  0  0  0  0  0  0  0
   55.2030   24.0740   44.5140 C   0  0  0  0  0  0  0  0  0  0  0  0
   54.1674   24.3274   44.2433 H   0  0  0  0  0  0  0  0  0  0  0  0
   55.8000   22.9280   43.9890 C   0  0  0  0  0  0  0  0  0  0  0  0
   55.2340   22.2779   43.3056 H   0  0  0  0  0  0  0  0  0  0  0  0
   57.1170   22.6040   44.3300 C   0  0  0  0  0  0  0  0  0  0  0  0
   57.5827   21.6995   43.9115 H   0  0  0  0  0  0  0  0  0  0  0  0
   57.8520   23.4280   45.2060 C   0  0  0  0  0  0  0  0  0  0  0  0
   59.1800   23.1290   45.5590 O   0  0  0  0  0  0  0  0  0  0  0  0
   60.0080   22.1990   44.8700 C   0  0  0  0  0  0  0  0  0  0  0  0
   60.5552   21.5844   45.5999 H   0  0  0  0  0  0  0  0  0  0  0  0
   59.3836   21.5497   44.2388 H   0  0  0  0  0  0  0  0  0  0  0  0
   60.7252   22.7441   44.2388 H   0  0  0  0  0  0  0  0  0  0  0  0
   59.1860   33.8670   44.5330 C   0  0  0  0  0  0  0  0  0  0  0  0
   59.9067   33.9807   43.7098 H   0  0  0  0  0  0  0  0  0  0  0  0
  1  2  1  0
  2  3  2  0
  3  4  1  0
  4  5  1  0
  4  6  2  0
  6  7  1  0
  6  8  1  0
  8  9  1  0
  9 10  1  0
  9 11  1  0
  9 12  1  0
 12 13  1  0
 12 14  1  0
 12 15  1  0
 15 16  1  0
 16 17  2  0
 16 18  1  0
 18 19  2  0
 19 20  1  0
 19 21  1  0
 21 22  1  0
 22 23  2  0
 23 24  1  0
 23 25  1  0
 25 26  1  0
 26 27  1  0
 27 28  1  0
 27 29  1  0
 27 30  1  0
 25 31  2  0
 31 32  1  0
 31 33  1  0
 33 34  1  0
 33 35  2  0
 35 36  1  0
 36 37  1  0
 37 38  1  0
 37 39  1  0
 37 40  1  0
 21 41  2  0
 41 42  1  0
 41 43  1  0
 43 44  1  0
 44 45  2  0
 45 46  1  0
 46 47  1  0
 46 48  1  0
 46 49  1  0
 49 50  2  0
 50 51  1  0
 50 52  1  0
 52 53  1  0
 52 54  2  0
 54 55  1  0
 54 56  1  0
 56 57  1  0
 56 58  2  0
 58 59  1  0
 59 60  1  0
 60 61  1  0
 60 62  1  0
 60 63  1  0
  8 64  2  0
 64 65  1  0
 64  2  1  0
 44 18  1  0
 58 49  1  0
 35 22  1  0
M  CHG  2  15  -1  43  -1
M  END
>  <UniqueID>  (20) 
18

>  <SMILES>  (20) 
COc1ccc(OC)c(-c2c[n-]/c(=N\Cc3ccccc3OC)c(C(=O)[N-]CCc3ccncc3)c2)c1

>  <Energy>  (20) 
73.95549372361216

>  <Genealogy>  (20) 
COc1ccc(OC)c(-c2c[n-]c(=NCc3ccccc3OC)c(C(=O)[N-]CCc3ccncc3)c2)c1 (protonated)
COc1ccc(OC)c(-c2c[n-]/c(=N\Cc3ccccc3OC)c(C(=O)[N-]CCc3ccncc3)c2)c1 (cis-trans isomerization)
COc1ccc(OC)c(-c2c[n-]/c(=N\Cc3ccccc3OC)c(C(=O)[N-]CCc3ccncc3)c2)c1 (3D coordinates assigned)
COc1ccc(OC)c(-c2c[n-]/c(=N\Cc3ccccc3OC)c(C(=O)[N-]CCc3ccncc3)c2)c1 (optimized conformer: 73.95549372361216 kcal/mol)

>  <smiles>  (20) 
COc1ccc(OC)c(-c2c[nH]c(=NCc3ccccc3OC)c(C(=O)NCCc3ccncc3)c2)c1

>  <score_type>  (20) 
oracle

>  <origin>  (20) 
adg

>  <m_score__min__energy>  (20) 
-11.970000000000001

>  <m_primary>  (20) 
energy

$$$$
20:0
     RDKit          3D

 27 28  0  0  0  0  0  0  0  0999 V2000
   56.4240   33.8360   47.5250 H   0  0  0  0  0  0  0  0  0  0  0  0
   57.3340   33.8360   47.0810 O   0  0  0  0  0  0  0  0  0  0  0  0
   58.3000   32.8590   47.3260 C   0  0  0  0  0  0  0  0  0  0  0  0
   58.8400   32.7700   48.6140 C   0  0  0  0  0  0  0  0  0  0  0  0
   58.4864   33.4505   49.4025 H   0  0  0  0  0  0  0  0  0  0  0  0
   59.8230   31.8250   48.9050 C   0  0  0  0  0  0  0  0  0  0  0  0
   60.3620   31.7570   50.1850 O   0  0  0  0  0  0  0  0  0  0  0  0
   60.2640   30.9480   47.9160 C   0  0  0  0  0  0  0  0  0  0  0  0
   61.0477   30.2123   48.1497 H   0  0  0  0  0  0  0  0  0  0  0  0
   59.7170   30.9950   46.6240 C   0  0  0  0  0  0  0  0  0  0  0  0
   60.2200   30.0280   45.6260 C   0  0  0  0  0  0  0  0  0  0  0  0
   60.7835   30.4020   44.7585 H   0  0  0  0  0  0  0  0  0  0  0  0
   60.0110   28.7100   45.7450 C   0  0  0  0  0  0  0  0  0  0  0  0
   60.8901   28.0503   45.7883 H   0  0  0  0  0  0  0  0  0  0  0  0
   58.6680   28.0850   45.8220 C   0  0  0  0  0  0  0  0  0  0  0  0
   58.4490   26.8150   46.3950 C   0  0  0  0  0  0  0  0  0  0  0  0
   59.2976   26.2450   46.8012 H   0  0  0  0  0  0  0  0  0  0  0  0
   57.1600   26.2760   46.4500 C   0  0  0  0  0  0  0  0  0  0  0  0
   56.9600   25.0220   47.0160 O   0  0  0  0  0  0  0  0  0  0  0  0
   56.0740   26.9970   45.9430 C   0  0  0  0  0  0  0  0  0  0  0  0
   54.7930   26.4580   45.9970 O   0  0  0  0  0  0  0  0  0  0  0  0
   56.2770   28.2640   45.3860 C   0  0  0  0  0  0  0  0  0  0  0  0
   55.2020   28.9890   44.8850 O   0  0  0  0  0  0  0  0  0  0  0  0
   57.5660   28.8050   45.3310 C   0  0  0  0  0  0  0  0  0  0  0  0
   57.7183   29.8049   44.8986 H   0  0  0  0  0  0  0  0  0  0  0  0
   58.7430   31.9760   46.3170 C   0  0  0  0  0  0  0  0  0  0  0  0
   58.1460   32.1690   44.6650 Cl  0  0  0  0  0  0  0  0  0  0  0  0
  1  2  1  0
  2  3  1  0
  3  4  2  0
  4  5  1  0
  4  6  1  0
  6  7  1  0
  6  8  2  0
  8  9  1  0
  8 10  1  0
 10 11  1  0
 11 12  1  0
 11 13  2  0
 13 14  1  0
 13 15  1  0
 15 16  2  0
 16 17  1  0
 16 18  1  0
 18 19  1  0
 18 20  2  0
 20 21  1  0
 20 22  1  0
 22 23  1  0
 22 24  2  0
 24 25  1  0
 10 26  2  0
 26 27  1  0
 26  3  1  0
 24 15  1  0
M  CHG  4   7  -1  19  -1  21  -1  23  -1
M  END
>  <UniqueID>  (21) 
19

>  <SMILES>  (21) 
[O-]c1cc(O)c(Cl)c(/C=C/c2cc([O-])c([O-])c([O-])c2)c1

>  <Energy>  (21) 
38.76664782838087

>  <Genealogy>  (21) 
[O-]c1cc(O)c(Cl)c(C=Cc2cc([O-])c([O-])c([O-])c2)c1 (protonated)
[O-]c1cc(O)c(Cl)c(/C=C/c2cc([O-])c([O-])c([O-])c2)c1 (cis-trans isomerization)
[O-]c1cc(O)c(Cl)c(/C=C/c2cc([O-])c([O-])c([O-])c2)c1 (3D coordinates assigned)
[O-]c1cc(O)c(Cl)c(/C=C/c2cc([O-])c([O-])c([O-])c2)c1 (optimized conformer: 38.76664782838087 kcal/mol)

>  <smiles>  (21) 
Oc1cc(O)c(Cl)c(C=Cc2cc(O)c(O)c(O)c2)c1

>  <score_type>  (21) 
oracle

>  <origin>  (21) 
adg

>  <m_score__min__energy>  (21) 
-17.530000000000001

>  <m_primary>  (21) 
energy

$$$$
21:0
     RDKit          3D

 52 55  0  0  0  0  0  0  0  0999 V2000
   59.2370   34.7660   46.0110 C   0  0  0  0  0  0  0  0  0  0  0  0
   58.4860   34.1240   44.8440 C   0  0  0  0  0  0  0  0  0  0  0  0
   57.3330   33.2120   45.3080 C   0  0  0  0  0  0  0  0  0  0  0  0
   57.4170   31.7280   44.9440 C   0  0  0  0  0  0  0  0  0  0  0  0
   56.6310   31.2160   43.8930 C   0  0  0  0  0  0  0  0  0  0  0  0
   56.7710   29.8950   43.4890 C   0  0  0  0  0  0  0  0  0  0  0  0
   56.0910   29.4510   42.5270 O   0  0  0  0  0  0  0  0  0  0  0  0
   57.6440   29.0830   44.1230 N   0  0  0  0  0  0  0  0  0  0  0  0
   58.3880   29.4870   45.1890 C   0  0  0  0  0  0  0  0  0  0  0  0
   58.2550   30.8140   45.6690 C   0  0  0  0  0  0  0  0  0  0  0  0
   58.9410   31.1340   46.8670 C   0  0  0  0  0  0  0  0  0  0  0  0
   58.7470   32.2420   47.4360 O   0  0  0  0  0  0  0  0  0  0  0  0
   59.7920   30.2290   47.4470 N   0  0  0  0  0  0  0  0  0  0  0  0
   60.4810   30.5780   48.7100 C   0  0  0  0  0  0  0  0  0  0  0  0
   61.4580   31.7040   48.4820 C   0  0  0  0  0  0  0  0  0  0  0  0
   61.3420   32.9020   49.2080 C   0  0  0  0  0  0  0  0  0  0  0  0
   62.2260   33.9590   48.9690 C   0  0  0  0  0  0  0  0  0  0  0  0
   63.2290   33.8310   48.0060 C   0  0  0  0  0  0  0  0  0  0  0  0
   63.3500   32.6450   47.2780 C   0  0  0  0  0  0  0  0  0  0  0  0
   62.4690   31.5840   47.5120 C   0  0  0  0  0  0  0  0  0  0  0  0
   59.9540   28.9820   46.9020 C   0  0  0  0  0  0  0  0  0  0  0  0
   60.7650   28.1700   47.4320 O   0  0  0  0  0  0  0  0  0  0  0  0
   59.2380   28.6020   45.7970 N   0  0  0  0  0  0  0  0  0  0  0  0
   59.3380   27.2130   45.2930 C   0  0  0  0  0  0  0  0  0  0  0  0
   58.2720   26.3490   45.9190 C   0  0  0  0  0  0  0  0  0  0  0  0
   58.5090   25.7120   47.1490 C   0  0  0  0  0  0  0  0  0  0  0  0
   57.5110   24.9360   47.7470 C   0  0  0  0  0  0  0  0  0  0  0  0
   56.2690   24.7910   47.1220 C   0  0  0  0  0  0  0  0  0  0  0  0
   56.0240   25.4200   45.8990 C   0  0  0  0  0  0  0  0  0  0  0  0
   57.0200   26.1980   45.2980 C   0  0  0  0  0  0  0  0  0  0  0  0
   58.8154   34.4056   46.9610 H   0  0  0  0  0  0  0  0  0  0  0  0
   60.3015   34.4944   45.9558 H   0  0  0  0  0  0  0  0  0  0  0  0
   59.1343   35.8598   45.9558 H   0  0  0  0  0  0  0  0  0  0  0  0
   58.0705   34.9221   44.2112 H   0  0  0  0  0  0  0  0  0  0  0  0
   59.2027   33.4984   44.2917 H   0  0  0  0  0  0  0  0  0  0  0  0
   57.2798   33.2800   46.4046 H   0  0  0  0  0  0  0  0  0  0  0  0
   56.4479   33.5832   44.7706 H   0  0  0  0  0  0  0  0  0  0  0  0
   55.9015   31.8671   43.3891 H   0  0  0  0  0  0  0  0  0  0  0  0
   59.7350   30.8908   49.4554 H   0  0  0  0  0  0  0  0  0  0  0  0
   61.0305   29.6966   49.0721 H   0  0  0  0  0  0  0  0  0  0  0  0
   60.5530   33.0085   49.9670 H   0  0  0  0  0  0  0  0  0  0  0  0
   62.1309   34.8937   49.5411 H   0  0  0  0  0  0  0  0  0  0  0  0
   63.9235   34.6637   47.8208 H   0  0  0  0  0  0  0  0  0  0  0  0
   64.1399   32.5452   46.5190 H   0  0  0  0  0  0  0  0  0  0  0  0
   62.5674   30.6525   46.9352 H   0  0  0  0  0  0  0  0  0  0  0  0
   59.2090   27.2136   44.2006 H   0  0  0  0  0  0  0  0  0  0  0  0
   60.3262   26.8079   45.5565 H   0  0  0  0  0  0  0  0  0  0  0  0
   59.4848   25.8244   47.6441 H   0  0  0  0  0  0  0  0  0  0  0  0
   57.7034   24.4395   48.7096 H   0  0  0  0  0  0  0  0  0  0  0  0
   55.4842   24.1813   47.5935 H   0  0  0  0  0  0  0  0  0  0  0  0
   55.0468   25.3036   45.4076 H   0  0  0  0  0  0  0  0  0  0  0  0
   56.8224   26.6933   44.3359 H   0  0  0  0  0  0  0  0  0  0  0  0
  1  2  1  0
  2  3  1  0
  3  4  1  0
  4  5  2  0
  5  6  1  0
  6  7  2  0
  6  8  1  0
  8  9  1  0
  9 10  2  0
 10 11  1  0
 11 12  2  0
 11 13  1  0
 13 14  1  0
 14 15  1  0
 15 16  2  0
 16 17  1  0
 17 18  2  0
 18 19  1  0
 19 20  2  0
 13 21  1  0
 21 22  2  0
 21 23  1  0
 23 24  1  0
 24 25  1  0
 25 26  2  0
 26 27  1  0
 27 28  2  0
 28 29  1  0
 29 30  2  0
 10  4  1  0
 20 15  1  0
 30 25  1  0
 23  9  1  0
  1 31  1  0
  1 32  1  0
  1 33  1  0
  2 34  1  0
  2 35  1  0
  3 36  1  0
  3 37  1  0
  5 38  1  0
 14 39  1  0
 14 40  1  0
 16 41  1  0
 17 42  1  0
 18 43  1  0
 19 44  1  0
 20 45  1  0
 24 46  1  0
 24 47  1  0
 26 48  1  0
 27 49  1  0
 28 50  1  0
 29 51  1  0
 30 52  1  0
M  CHG  1   8  -1
M  END
>  <UniqueID>  (22) 
20

>  <SMILES>  (22) 
CCCc1cc(=O)[n-]c2c1c(=O)n(Cc1ccccc1)c(=O)n2Cc1ccccc1

>  <Energy>  (22) 
74.08836643926239

>  <Genealogy>  (22) 
CCCc1cc(=O)[n-]c2c1c(=O)n(Cc1ccccc1)c(=O)n2Cc1ccccc1 (protonated)
CCCc1cc(=O)[n-]c2c1c(=O)n(Cc1ccccc1)c(=O)n2Cc1ccccc1 (3D coordinates assigned)
CCCc1cc(=O)[n-]c2c1c(=O)n(Cc1ccccc1)c(=O)n2Cc1ccccc1 (optimized conformer: 74.08836643926239 kcal/mol)

>  <smiles>  (22) 
CCCc1cc(=O)[nH]c2c1c(=O)n(Cc1ccccc1)c(=O)n2Cc1ccccc1

>  <score_type>  (22) 
oracle

>  <origin>  (22) 
adg

>  <m_score__min__energy>  (22) 
-9.7899999999999991

>  <m_primary>  (22) 
energy

$$$$
22:0
     RDKit          3D

 40 42  0  0  0  0  0  0  0  0999 V2000
   60.2590   34.2000   48.7950 C   0  0  0  0  0  0  0  0  0  0  0  0
   58.9680   34.2930   48.2040 O   0  0  0  0  0  0  0  0  0  0  0  0
   58.6800   33.9580   46.8720 C   0  0  0  0  0  0  0  0  0  0  0  0
   59.4880   34.4940   45.8630 C   0  0  0  0  0  0  0  0  0  0  0  0
   59.2410   34.1910   44.5230 C   0  0  0  0  0  0  0  0  0  0  0  0
   58.1850   33.3440   44.1770 C   0  0  0  0  0  0  0  0  0  0  0  0
   57.3650   32.7930   45.1770 C   0  0  0  0  0  0  0  0  0  0  0  0
   56.2730   31.9140   44.8700 N   0  0  0  0  0  0  0  0  0  0  0  0
   56.4320   30.3040   44.2470 S   0  0  0  0  0  0  0  0  0  0  0  0
   55.3060   29.4590   44.7690 O   0  0  0  0  0  0  0  0  0  0  0  0
   56.3550   30.3460   42.7470 O   0  0  0  0  0  0  0  0  0  0  0  0
   57.9600   29.6080   44.7810 C   0  0  0  0  0  0  0  0  0  0  0  0
   58.4540   28.4590   44.1510 C   0  0  0  0  0  0  0  0  0  0  0  0
   59.6540   27.8870   44.5790 C   0  0  0  0  0  0  0  0  0  0  0  0
   60.3670   28.4580   45.6350 C   0  0  0  0  0  0  0  0  0  0  0  0
   59.8890   29.6160   46.2720 C   0  0  0  0  0  0  0  0  0  0  0  0
   60.6420   30.2130   47.4040 C   0  0  0  0  0  0  0  0  0  0  0  0
   61.7010   31.0970   47.1470 C   0  0  0  0  0  0  0  0  0  0  0  0
   62.4230   31.6540   48.2010 C   0  0  0  0  0  0  0  0  0  0  0  0
   62.0810   31.3270   49.5120 C   0  0  0  0  0  0  0  0  0  0  0  0
   61.0500   30.4770   49.7590 N   0  0  0  0  0  0  0  0  0  0  0  0
   60.3230   29.9200   48.7480 C   0  0  0  0  0  0  0  0  0  0  0  0
   59.3570   29.1600   49.0270 O   0  0  0  0  0  0  0  0  0  0  0  0
   58.6770   30.1850   45.8390 C   0  0  0  0  0  0  0  0  0  0  0  0
   57.6150   33.1070   46.5200 C   0  0  0  0  0  0  0  0  0  0  0  0
   60.1620   34.2070   49.8907 H   0  0  0  0  0  0  0  0  0  0  0  0
   60.7420   33.2647   48.4756 H   0  0  0  0  0  0  0  0  0  0  0  0
   60.8710   35.0564   48.4756 H   0  0  0  0  0  0  0  0  0  0  0  0
   60.3235   35.1587   46.1277 H   0  0  0  0  0  0  0  0  0  0  0  0
   59.8797   34.6204   43.7370 H   0  0  0  0  0  0  0  0  0  0  0  0
   57.9949   33.1078   43.1196 H   0  0  0  0  0  0  0  0  0  0  0  0
   57.8961   28.0064   43.3180 H   0  0  0  0  0  0  0  0  0  0  0  0
   60.0386   26.9838   44.0827 H   0  0  0  0  0  0  0  0  0  0  0  0
   61.3086   27.9987   45.9704 H   0  0  0  0  0  0  0  0  0  0  0  0
   61.9624   31.3514   46.1093 H   0  0  0  0  0  0  0  0  0  0  0  0
   63.2549   32.3451   48.0001 H   0  0  0  0  0  0  0  0  0  0  0  0
   62.6479   31.7587   50.3500 H   0  0  0  0  0  0  0  0  0  0  0  0
   60.8090   30.2520   50.7510 H   0  0  0  0  0  0  0  0  0  0  0  0
   58.2896   31.0880   46.3335 H   0  0  0  0  0  0  0  0  0  0  0  0
   56.9728   32.6844   47.3067 H   0  0  0  0  0  0  0  0  0  0  0  0
  1  2  1  0
  2  3  1  0
  3  4  2  0
  4  5  1  0
  5  6  2  0
  6  7  1  0
  7  8  1  0
  8  9  1  0
  9 10  2  0
  9 11  2  0
  9 12  1  0
 12 13  2  0
 13 14  1  0
 14 15  2  0
 15 16  1  0
 16 17  1  0
 17 18  2  0
 18 19  1  0
 19 20  2  0
 20 21  1  0
 21 22  1  0
 22 23  2  0
 16 24  2  0
  7 25  2  0
 25  3  1  0
 24 12  1  0
 22 17  1  0
  1 26  1  0
  1 27  1  0
  1 28  1  0
  4 29  1  0
  5 30  1  0
  6 31  1  0
 13 32  1  0
 14 33  1  0
 15 34  1  0
 18 35  1  0
 19 36  1  0
 20 37  1  0
 21 38  1  0
 24 39  1  0
 25 40  1  0
M  CHG  1   8  -1
M  END
>  <UniqueID>  (23) 
21

>  <SMILES>  (23) 
COc1cccc([N-]S(=O)(=O)c2cccc(-c3ccc[nH]c3=O)c2)c1

>  <Energy>  (23) 
52.227760306031705

>  <Genealogy>  (23) 
COc1cccc([N-]S(=O)(=O)c2cccc(-c3ccc[nH]c3=O)c2)c1 (protonated)
COc1cccc([N-]S(=O)(=O)c2cccc(-c3ccc[nH]c3=O)c2)c1 (3D coordinates assigned)
COc1cccc([N-]S(=O)(=O)c2cccc(-c3ccc[nH]c3=O)c2)c1 (optimized conformer: 52.227760306031705 kcal/mol)

>  <smiles>  (23) 
COc1cccc(NS(=O)(=O)c2cccc(-c3ccc[nH]c3=O)c2)c1

>  <score_type>  (23) 
oracle

>  <origin>  (23) 
adg

>  <m_score__min__energy>  (23) 
-10.5

>  <m_primary>  (23) 
energy

$$$$
23:0
     RDKit          3D

 28 29  0  0  0  0  0  0  0  0999 V2000
   56.3510   25.4980   46.7740 O   0  0  0  0  0  0  0  0  0  0  0  0
   56.7500   26.6000   46.3150 C   0  0  0  0  0  0  0  0  0  0  0  0
   55.8910   27.3970   45.6290 N   0  0  0  0  0  0  0  0  0  0  0  0
   56.2880   28.5950   45.1270 C   0  0  0  0  0  0  0  0  0  0  0  0
   55.4550   29.3030   44.5000 O   0  0  0  0  0  0  0  0  0  0  0  0
   57.5770   29.0270   45.3100 N   0  0  0  0  0  0  0  0  0  0  0  0
   58.0070   30.3420   44.8080 C   0  0  0  0  0  0  0  0  0  0  0  0
   56.9780   31.3050   44.9590 O   0  0  0  0  0  0  0  0  0  0  0  0
   57.3890   32.5810   44.4950 C   0  0  0  0  0  0  0  0  0  0  0  0
   58.2130   33.2880   45.5390 C   0  0  0  0  0  0  0  0  0  0  0  0
   58.1500   32.8960   46.8870 C   0  0  0  0  0  0  0  0  0  0  0  0
   58.8950   33.5770   47.8540 C   0  0  0  0  0  0  0  0  0  0  0  0
   59.7150   34.6460   47.4830 C   0  0  0  0  0  0  0  0  0  0  0  0
   59.7980   35.0310   46.1420 C   0  0  0  0  0  0  0  0  0  0  0  0
   59.0540   34.3530   45.1720 C   0  0  0  0  0  0  0  0  0  0  0  0
   58.4670   28.2380   45.9850 C   0  0  0  0  0  0  0  0  0  0  0  0
   58.0680   27.0070   46.5050 C   0  0  0  0  0  0  0  0  0  0  0  0
   58.9460   26.2320   47.1880 F   0  0  0  0  0  0  0  0  0  0  0  0
   58.8924   30.6703   45.3721 H   0  0  0  0  0  0  0  0  0  0  0  0
   58.2445   30.2480   43.7381 H   0  0  0  0  0  0  0  0  0  0  0  0
   57.9914   32.4566   43.5830 H   0  0  0  0  0  0  0  0  0  0  0  0
   56.4943   33.1847   44.2826 H   0  0  0  0  0  0  0  0  0  0  0  0
   57.5120   32.0500   47.1823 H   0  0  0  0  0  0  0  0  0  0  0  0
   58.8357   33.2709   48.9089 H   0  0  0  0  0  0  0  0  0  0  0  0
   60.2953   35.1846   48.2466 H   0  0  0  0  0  0  0  0  0  0  0  0
   60.4491   35.8680   45.8497 H   0  0  0  0  0  0  0  0  0  0  0  0
   59.1270   34.6543   44.1166 H   0  0  0  0  0  0  0  0  0  0  0  0
   59.5050   28.5767   46.1187 H   0  0  0  0  0  0  0  0  0  0  0  0
  1  2  2  0
  2  3  1  0
  3  4  1  0
  4  5  2  0
  4  6  1  0
  6  7  1  0
  7  8  1  0
  8  9  1  0
  9 10  1  0
 10 11  2  0
 11 12  1  0
 12 13  2  0
 13 14  1  0
 14 15  2  0
  6 16  1  0
 16 17  2  0
 17 18  1  0
 17  2  1  0
 15 10  1  0
  7 19  1  0
  7 20  1  0
  9 21  1  0
  9 22  1  0
 11 23  1  0
 12 24  1  0
 13 25  1  0
 14 26  1  0
 15 27  1  0
 16 28  1  0
M  CHG  1   3  -1
M  END
>  <UniqueID>  (24) 
22

>  <SMILES>  (24) 
O=c1[n-]c(=O)n(COCc2ccccc2)cc1F

>  <Energy>  (24) 
32.07091154820427

>  <Genealogy>  (24) 
O=c1[n-]c(=O)n(COCc2ccccc2)cc1F (protonated)
O=c1[n-]c(=O)n(COCc2ccccc2)cc1F (3D coordinates assigned)
O=c1[n-]c(=O)n(COCc2ccccc2)cc1F (optimized conformer: 32.07091154820427 kcal/mol)

>  <smiles>  (24) 
O=c1[nH]c(=O)n(COCc2ccccc2)cc1F

>  <score_type>  (24) 
oracle

>  <origin>  (24) 
adg

>  <m_score__min__energy>  (24) 
-8.5199999999999996

>  <m_primary>  (24) 
energy

$$$$
24:0
     RDKit          3D

 26 27  0  0  0  0  0  0  0  0999 V2000
   56.2050   28.9790   42.2630 N   0  0  0  0  0  0  0  0  0  0  0  0
   56.7310   30.0060   43.1150 C   0  0  0  0  0  0  0  0  0  0  0  0
   57.1420   31.2150   42.5340 C   0  0  0  0  0  0  0  0  0  0  0  0
   57.7050   32.2270   43.3140 C   0  0  0  0  0  0  0  0  0  0  0  0
   57.8700   32.0510   44.6960 C   0  0  0  0  0  0  0  0  0  0  0  0
   58.4760   33.1250   45.5260 C   0  0  0  0  0  0  0  0  0  0  0  0
   59.0240   34.2730   44.9220 C   0  0  0  0  0  0  0  0  0  0  0  0
   59.5940   35.2820   45.7060 C   0  0  0  0  0  0  0  0  0  0  0  0
   59.6230   35.1580   47.0960 C   0  0  0  0  0  0  0  0  0  0  0  0
   59.0830   34.0230   47.7060 C   0  0  0  0  0  0  0  0  0  0  0  0
   58.5120   33.0120   46.9280 C   0  0  0  0  0  0  0  0  0  0  0  0
   57.4490   30.8470   45.2840 C   0  0  0  0  0  0  0  0  0  0  0  0
   56.8700   29.8260   44.5120 C   0  0  0  0  0  0  0  0  0  0  0  0
   56.4100   28.6410   45.1750 N   0  0  0  0  0  0  0  0  0  0  0  0
   56.4790   27.9770   42.3530 H   0  0  0  0  0  0  0  0  0  0  0  0
   55.5980   29.2290   41.4510 H   0  0  0  0  0  0  0  0  0  0  0  0
   57.0193   31.3674   41.4515 H   0  0  0  0  0  0  0  0  0  0  0  0
   58.0213   33.1687   42.8417 H   0  0  0  0  0  0  0  0  0  0  0  0
   59.0038   34.3771   43.8271 H   0  0  0  0  0  0  0  0  0  0  0  0
   60.0203   36.1751   45.2258 H   0  0  0  0  0  0  0  0  0  0  0  0
   60.0705   35.9531   47.7105 H   0  0  0  0  0  0  0  0  0  0  0  0
   59.1073   33.9248   48.8013 H   0  0  0  0  0  0  0  0  0  0  0  0
   58.0878   32.1217   47.4152 H   0  0  0  0  0  0  0  0  0  0  0  0
   57.5747   30.7010   46.3670 H   0  0  0  0  0  0  0  0  0  0  0  0
   56.2500   27.7410   44.6730 H   0  0  0  0  0  0  0  0  0  0  0  0
   56.1260   28.6760   46.1800 H   0  0  0  0  0  0  0  0  0  0  0  0
  1  2  1  0
  2  3  2  0
  3  4  1  0
  4  5  2  0
  5  6  1  0
  6  7  2  0
  7  8  1  0
  8  9  2  0
  9 10  1  0
 10 11  2  0
  5 12  1  0
 12 13  2  0
 13 14  1  0
 13  2  1  0
 11  6  1  0
  1 15  1  0
  1 16  1  0
  3 17  1  0
  4 18  1  0
  7 19  1  0
  8 20  1  0
  9 21  1  0
 10 22  1  0
 11 23  1  0
 12 24  1  0
 14 25  1  0
 14 26  1  0
M  END
>  <UniqueID>  (25) 
23

>  <SMILES>  (25) 
Nc1ccc(-c2ccccc2)cc1N

>  <Energy>  (25) 
33.35599664676398

>  <Genealogy>  (25) 
Nc1ccc(-c2ccccc2)cc1N (3D coordinates assigned)
Nc1ccc(-c2ccccc2)cc1N (optimized conformer: 33.35599664676398 kcal/mol)

>  <smiles>  (25) 
Nc1ccc(-c2ccccc2)cc1N

>  <score_type>  (25) 
oracle

>  <origin>  (25) 
adg

>  <m_score__min__energy>  (25) 
-6.7999999999999998

>  <m_primary>  (25) 
energy

$$$$
25:0
     RDKit          3D

 56 59  0  0  0  0  0  0  0  0999 V2000
   56.0770   29.8140   43.4220 C   0  0  0  0  0  0  0  0  0  0  0  0
   56.0280   29.5380   44.8170 O   0  0  0  0  0  0  0  0  0  0  0  0
   57.1430   29.2370   45.6150 C   0  0  0  0  0  0  0  0  0  0  0  0
   57.7900   30.2310   46.3770 C   0  0  0  0  0  0  0  0  0  0  0  0
   58.9310   29.9220   47.1270 C   0  0  0  0  0  0  0  0  0  0  0  0
   59.5850   30.9410   47.8950 N   0  0  0  0  0  0  0  0  0  0  0  0
   60.8760   30.6570   48.4700 C   0  0  0  0  0  0  0  0  0  0  0  0
   61.0560   29.5720   49.0870 O   0  0  0  0  0  0  0  0  0  0  0  0
   62.0060   31.6090   48.3500 C   0  0  0  0  0  0  0  0  0  0  0  0
   62.3490   32.1630   47.1040 C   0  0  0  0  0  0  0  0  0  0  0  0
   63.4070   33.0730   47.0050 C   0  0  0  0  0  0  0  0  0  0  0  0
   64.1340   33.4290   48.1420 C   0  0  0  0  0  0  0  0  0  0  0  0
   63.8110   32.8700   49.3810 C   0  0  0  0  0  0  0  0  0  0  0  0
   62.7550   31.9600   49.4860 C   0  0  0  0  0  0  0  0  0  0  0  0
   58.9320   32.2180   48.0520 C   0  0  0  0  0  0  0  0  0  0  0  0
   58.2430   32.4390   49.0850 O   0  0  0  0  0  0  0  0  0  0  0  0
   59.0580   33.2850   47.0320 C   0  0  0  0  0  0  0  0  0  0  0  0
   59.8970   34.3920   47.2390 C   0  0  0  0  0  0  0  0  0  0  0  0
   60.0100   35.3770   46.2560 C   0  0  0  0  0  0  0  0  0  0  0  0
   59.2740   35.2550   45.0770 C   0  0  0  0  0  0  0  0  0  0  0  0
   58.4530   34.1880   44.8950 N   0  0  0  0  0  0  0  0  0  0  0  0
   58.3260   33.2140   45.8350 C   0  0  0  0  0  0  0  0  0  0  0  0
   59.4390   28.6200   47.1160 C   0  0  0  0  0  0  0  0  0  0  0  0
   58.8030   27.6270   46.3700 C   0  0  0  0  0  0  0  0  0  0  0  0
   57.6440   27.9170   45.6350 C   0  0  0  0  0  0  0  0  0  0  0  0
   57.0190   26.8620   44.8860 N   0  0  0  0  0  0  0  0  0  0  0  0
   56.2550   25.4970   45.6380 S   0  0  0  0  0  0  0  0  0  0  0  0
   54.7670   25.7140   45.6550 O   0  0  0  0  0  0  0  0  0  0  0  0
   56.7430   25.3760   47.0530 O   0  0  0  0  0  0  0  0  0  0  0  0
   56.6430   24.0210   44.7620 C   0  0  0  0  0  0  0  0  0  0  0  0
   55.9240   23.6730   43.6100 C   0  0  0  0  0  0  0  0  0  0  0  0
   56.2480   22.5100   42.9040 C   0  0  0  0  0  0  0  0  0  0  0  0
   57.2880   21.6880   43.3480 C   0  0  0  0  0  0  0  0  0  0  0  0
   58.0030   22.0280   44.5010 C   0  0  0  0  0  0  0  0  0  0  0  0
   57.6810   23.1910   45.2080 C   0  0  0  0  0  0  0  0  0  0  0  0
   56.2674   30.8862   43.2668 H   0  0  0  0  0  0  0  0  0  0  0  0
   56.8851   29.2276   42.9604 H   0  0  0  0  0  0  0  0  0  0  0  0
   55.1164   29.5416   42.9604 H   0  0  0  0  0  0  0  0  0  0  0  0
   57.3951   31.2577   46.3823 H   0  0  0  0  0  0  0  0  0  0  0  0
   61.7835   31.8799   46.2040 H   0  0  0  0  0  0  0  0  0  0  0  0
   63.6665   33.5089   46.0289 H   0  0  0  0  0  0  0  0  0  0  0  0
   64.9612   34.1497   48.0626 H   0  0  0  0  0  0  0  0  0  0  0  0
   64.3886   33.1464   50.2754 H   0  0  0  0  0  0  0  0  0  0  0  0
   62.5093   31.5167   50.4623 H   0  0  0  0  0  0  0  0  0  0  0  0
   60.4655   34.4831   48.1763 H   0  0  0  0  0  0  0  0  0  0  0  0
   60.6731   36.2411   46.4096 H   0  0  0  0  0  0  0  0  0  0  0  0
   59.3585   36.0233   44.2943 H   0  0  0  0  0  0  0  0  0  0  0  0
   57.6472   32.3668   45.6576 H   0  0  0  0  0  0  0  0  0  0  0  0
   60.3415   28.3777   47.6963 H   0  0  0  0  0  0  0  0  0  0  0  0
   59.2145   26.6069   46.3582 H   0  0  0  0  0  0  0  0  0  0  0  0
   57.2580   26.7620   43.8730 H   0  0  0  0  0  0  0  0  0  0  0  0
   55.1030   24.3162   43.2605 H   0  0  0  0  0  0  0  0  0  0  0  0
   55.6840   22.2418   41.9985 H   0  0  0  0  0  0  0  0  0  0  0  0
   57.5438   20.7746   42.7910 H   0  0  0  0  0  0  0  0  0  0  0  0
   58.8195   21.3799   44.8522 H   0  0  0  0  0  0  0  0  0  0  0  0
   58.2433   23.4549   46.1158 H   0  0  0  0  0  0  0  0  0  0  0  0
  1  2  1  0
  2  3  1  0
  3  4  2  0
  4  5  1  0
  5  6  1  0
  6  7  1  0
  7  8  2  0
  7  9  1  0
  9 10  2  0
 10 11  1  0
 11 12  2  0
 12 13  1  0
 13 14  2  0
  6 15  1  0
 15 16  2  0
 15 17  1  0
 17 18  2  0
 18 19  1  0
 19 20  2  0
 20 21  1  0
 21 22  2  0
  5 23  2  0
 23 24  1  0
 24 25  2  0
 25 26  1  0
 26 27  1  0
 27 28  2  0
 27 29  2  0
 27 30  1  0
 30 31  2  0
 31 32  1  0
 32 33  2  0
 33 34  1  0
 34 35  2  0
 25  3  1  0
 35 30  1  0
 14  9  1  0
 22 17  1  0
  1 36  1  0
  1 37  1  0
  1 38  1  0
  4 39  1  0
 10 40  1  0
 11 41  1  0
 12 42  1  0
 13 43  1  0
 14 44  1  0
 18 45  1  0
 19 46  1  0
 20 47  1  0
 22 48  1  0
 23 49  1  0
 24 50  1  0
 26 51  1  0
 31 52  1  0
 32 53  1  0
 33 54  1  0
 34 55  1  0
 35 56  1  0
M  END
>  <UniqueID>  (26) 
24

>  <SMILES>  (26) 
COc1cc(N(C(=O)c2ccccc2)C(=O)c2cccnc2)ccc1NS(=O)(=O)c1ccccc1

>  <Energy>  (26) 
82.22614584771124

>  <Genealogy>  (26) 
COc1cc(N(C(=O)c2ccccc2)C(=O)c2cccnc2)ccc1NS(=O)(=O)c1ccccc1 (3D coordinates assigned)
COc1cc(N(C(=O)c2ccccc2)C(=O)c2cccnc2)ccc1NS(=O)(=O)c1ccccc1 (optimized conformer: 82.22614584771124 kcal/mol)

>  <smiles>  (26) 
COc1cc(N(C(=O)c2ccccc2)C(=O)c2cccnc2)ccc1NS(=O)(=O)c1ccccc1

>  <score_type>  (26) 
oracle

>  <origin>  (26) 
adg

>  <m_score__min__energy>  (26) 
-11.029999999999999

>  <m_primary>  (26) 
energy

$$$$
26:0
     RDKit          3D

 42 45  0  0  0  0  0  0  0  0999 V2000
   59.7090   28.0410   47.5500 C   0  0  0  0  0  0  0  0  0  0  0  0
   58.6130   28.1820   46.5920 N   0  0  0  0  0  0  0  0  0  0  0  0
   57.8540   27.1980   46.0340 C   0  0  0  0  0  0  0  0  0  0  0  0
   57.9280   25.7450   46.4030 C   0  0  0  0  0  0  0  0  0  0  0  0
   56.7840   24.9940   45.7850 C   0  0  0  0  0  0  0  0  0  0  0  0
   57.0050   23.8410   45.0210 C   0  0  0  0  0  0  0  0  0  0  0  0
   55.9020   23.1810   44.4760 C   0  0  0  0  0  0  0  0  0  0  0  0
   56.0630   22.1410   43.7860 O   0  0  0  0  0  0  0  0  0  0  0  0
   54.6500   23.6620   44.6900 N   0  0  0  0  0  0  0  0  0  0  0  0
   54.4520   24.7830   45.4320 C   0  0  0  0  0  0  0  0  0  0  0  0
   53.2850   25.2140   45.6190 O   0  0  0  0  0  0  0  0  0  0  0  0
   55.5120   25.4390   45.9710 N   0  0  0  0  0  0  0  0  0  0  0  0
   56.9700   27.6790   45.1240 N   0  0  0  0  0  0  0  0  0  0  0  0
   57.2100   29.0000   45.0920 C   0  0  0  0  0  0  0  0  0  0  0  0
   56.5900   29.9640   44.3060 C   0  0  0  0  0  0  0  0  0  0  0  0
   57.0310   31.2940   44.4330 C   0  0  0  0  0  0  0  0  0  0  0  0
   58.0860   31.6290   45.3260 C   0  0  0  0  0  0  0  0  0  0  0  0
   58.5430   33.0320   45.4690 C   0  0  0  0  0  0  0  0  0  0  0  0
   58.1420   33.8890   44.6340 O   0  0  0  0  0  0  0  0  0  0  0  0
   59.4530   33.4640   46.5560 C   0  0  0  0  0  0  0  0  0  0  0  0
   60.8510   33.4280   46.3880 C   0  0  0  0  0  0  0  0  0  0  0  0
   61.6980   33.8220   47.4280 C   0  0  0  0  0  0  0  0  0  0  0  0
   61.1630   34.2430   48.6470 C   0  0  0  0  0  0  0  0  0  0  0  0
   59.7780   34.2660   48.8310 C   0  0  0  0  0  0  0  0  0  0  0  0
   58.9260   33.8740   47.7940 C   0  0  0  0  0  0  0  0  0  0  0  0
   58.6780   30.6150   46.1170 C   0  0  0  0  0  0  0  0  0  0  0  0
   58.2090   29.3090   45.9690 C   0  0  0  0  0  0  0  0  0  0  0  0
   59.3100   28.0923   48.5738 H   0  0  0  0  0  0  0  0  0  0  0  0
   60.2061   27.0715   47.3984 H   0  0  0  0  0  0  0  0  0  0  0  0
   60.4353   28.8531   47.3984 H   0  0  0  0  0  0  0  0  0  0  0  0
   58.8772   25.3254   46.0384 H   0  0  0  0  0  0  0  0  0  0  0  0
   57.8707   25.6493   47.4973 H   0  0  0  0  0  0  0  0  0  0  0  0
   58.0248   23.4639   44.8541 H   0  0  0  0  0  0  0  0  0  0  0  0
   56.2670   27.1420   44.5680 H   0  0  0  0  0  0  0  0  0  0  0  0
   55.7824   29.6964   43.6087 H   0  0  0  0  0  0  0  0  0  0  0  0
   56.5541   32.0842   43.8345 H   0  0  0  0  0  0  0  0  0  0  0  0
   61.2786   33.0880   45.4333 H   0  0  0  0  0  0  0  0  0  0  0  0
   62.7885   33.8003   47.2856 H   0  0  0  0  0  0  0  0  0  0  0  0
   61.8316   34.5565   49.4623 H   0  0  0  0  0  0  0  0  0  0  0  0
   59.3573   34.5931   49.7933 H   0  0  0  0  0  0  0  0  0  0  0  0
   57.8368   33.8863   47.9473 H   0  0  0  0  0  0  0  0  0  0  0  0
   59.4842   30.8498   46.8276 H   0  0  0  0  0  0  0  0  0  0  0  0
  1  2  1  0
  2  3  1  0
  3  4  1  0
  4  5  1  0
  5  6  2  0
  6  7  1  0
  7  8  2  0
  7  9  1  0
  9 10  1  0
 10 11  2  0
 10 12  1  0
  3 13  2  0
 13 14  1  0
 14 15  2  0
 15 16  1  0
 16 17  2  0
 17 18  1  0
 18 19  2  0
 18 20  1  0
 20 21  2  0
 21 22  1  0
 22 23  2  0
 23 24  1  0
 24 25  2  0
 17 26  1  0
 26 27  2  0
 27  2  1  0
 12  5  1  0
 27 14  1  0
 25 20  1  0
  1 28  1  0
  1 29  1  0
  1 30  1  0
  4 31  1  0
  4 32  1  0
  6 33  1  0
 13 34  1  0
 15 35  1  0
 16 36  1  0
 21 37  1  0
 22 38  1  0
 23 39  1  0
 24 40  1  0
 25 41  1  0
 26 42  1  0
M  CHG  3   9  -1  12  -1  13   1
M  END
>  <UniqueID>  (27) 
25

>  <SMILES>  (27) 
Cn1c(Cc2cc(=O)[n-]c(=O)[n-]2)[nH+]c2ccc(C(=O)c3ccccc3)cc21

>  <Energy>  (27) 
90.8854233139328

>  <Genealogy>  (27) 
Cn1c(Cc2cc(=O)[n-]c(=O)[n-]2)[nH+]c2ccc(C(=O)c3ccccc3)cc21 (protonated)
Cn1c(Cc2cc(=O)[n-]c(=O)[n-]2)[nH+]c2ccc(C(=O)c3ccccc3)cc21 (3D coordinates assigned)
Cn1c(Cc2cc(=O)[n-]c(=O)[n-]2)[nH+]c2ccc(C(=O)c3ccccc3)cc21 (optimized conformer: 90.8854233139328 kcal/mol)

>  <smiles>  (27) 
Cn1c(Cc2cc(=O)[nH]c(=O)[nH]2)nc2ccc(C(=O)c3ccccc3)cc21

>  <score_type>  (27) 
oracle

>  <origin>  (27) 
adg

>  <m_score__min__energy>  (27) 
-11.51

>  <m_primary>  (27) 
energy

$$$$
27:0
     RDKit          3D

 27 28  0  0  0  0  0  0  0  0999 V2000
   60.0550   21.8430   45.0300 N   0  0  0  0  0  0  0  0  0  0  0  0
   58.7570   22.4240   44.8850 C   0  0  0  0  0  0  0  0  0  0  0  0
   57.8790   21.9510   43.9000 C   0  0  0  0  0  0  0  0  0  0  0  0
   56.6160   22.5290   43.7500 C   0  0  0  0  0  0  0  0  0  0  0  0
   56.2180   23.5730   44.5870 C   0  0  0  0  0  0  0  0  0  0  0  0
   57.0740   24.0400   45.5920 C   0  0  0  0  0  0  0  0  0  0  0  0
   56.6380   25.1230   46.4270 N   0  0  0  0  0  0  0  0  0  0  0  0
   56.1320   26.3890   45.9780 C   0  0  0  0  0  0  0  0  0  0  0  0
   54.8930   26.6000   46.0510 O   0  0  0  0  0  0  0  0  0  0  0  0
   57.0310   27.4680   45.5010 C   0  0  0  0  0  0  0  0  0  0  0  0
   58.4220   27.2590   45.4590 C   0  0  0  0  0  0  0  0  0  0  0  0
   59.2770   28.2710   45.0160 C   0  0  0  0  0  0  0  0  0  0  0  0
   58.7580   29.5040   44.6190 C   0  0  0  0  0  0  0  0  0  0  0  0
   57.3800   29.7290   44.6660 C   0  0  0  0  0  0  0  0  0  0  0  0
   56.5150   28.7210   45.1050 C   0  0  0  0  0  0  0  0  0  0  0  0
   55.1460   28.9680   45.1260 O   0  0  0  0  0  0  0  0  0  0  0  0
   58.3560   23.4750   45.7240 C   0  0  0  0  0  0  0  0  0  0  0  0
   60.1660   20.8320   45.2690 H   0  0  0  0  0  0  0  0  0  0  0  0
   60.9160   22.4190   44.8980 H   0  0  0  0  0  0  0  0  0  0  0  0
   58.1851   21.1230   43.2437 H   0  0  0  0  0  0  0  0  0  0  0  0
   55.9333   22.1605   42.9702 H   0  0  0  0  0  0  0  0  0  0  0  0
   55.2266   24.0313   44.4563 H   0  0  0  0  0  0  0  0  0  0  0  0
   58.8389   26.2921   45.7772 H   0  0  0  0  0  0  0  0  0  0  0  0
   60.3623   28.0955   44.9800 H   0  0  0  0  0  0  0  0  0  0  0  0
   59.4336   30.2985   44.2692 H   0  0  0  0  0  0  0  0  0  0  0  0
   56.9734   30.7031   44.3564 H   0  0  0  0  0  0  0  0  0  0  0  0
   59.0472   23.8591   46.4886 H   0  0  0  0  0  0  0  0  0  0  0  0
  1  2  1  0
  2  3  2  0
  3  4  1  0
  4  5  2  0
  5  6  1  0
  6  7  1  0
  7  8  1  0
  8  9  2  0
  8 10  1  0
 10 11  2  0
 11 12  1  0
 12 13  2  0
 13 14  1  0
 14 15  2  0
 15 16  1  0
  6 17  2  0
 17  2  1  0
 15 10  1  0
  1 18  1  0
  1 19  1  0
  3 20  1  0
  4 21  1  0
  5 22  1  0
 11 23  1  0
 12 24  1  0
 13 25  1  0
 14 26  1  0
 17 27  1  0
M  CHG  2   7  -1  16  -1
M  END
>  <UniqueID>  (28) 
26

>  <SMILES>  (28) 
Nc1cccc([N-]C(=O)c2ccccc2[O-])c1

>  <Energy>  (28) 
34.79330544376755

>  <Genealogy>  (28) 
Nc1cccc([N-]C(=O)c2ccccc2[O-])c1 (protonated)
Nc1cccc([N-]C(=O)c2ccccc2[O-])c1 (3D coordinates assigned)
Nc1cccc([N-]C(=O)c2ccccc2[O-])c1 (optimized conformer: 34.79330544376755 kcal/mol)

>  <smiles>  (28) 
Nc1cccc(NC(=O)c2ccccc2O)c1

>  <score_type>  (28) 
oracle

>  <origin>  (28) 
adg

>  <m_score__min__energy>  (28) 
-12.449999999999999

>  <m_primary>  (28) 
energy

$$$$
28:0
     RDKit          3D

 38 40  0  0  0  0  0  0  0  0999 V2000
   49.9860   32.3370   49.6980 H   0  0  0  0  0  0  0  0  0  0  0  0
   50.9270   31.9710   49.9660 N   0  0  0  0  0  0  0  0  0  0  0  0
   51.3940   32.0580   51.3110 C   0  0  0  0  0  0  0  0  0  0  0  0
   51.1060   33.0790   51.9940 O   0  0  0  0  0  0  0  0  0  0  0  0
   52.2050   30.9670   51.9000 C   0  0  0  0  0  0  0  0  0  0  0  0
   51.6260   29.7150   52.1680 C   0  0  0  0  0  0  0  0  0  0  0  0
   50.5672   29.5399   51.9266 H   0  0  0  0  0  0  0  0  0  0  0  0
   52.3860   28.6910   52.7390 C   0  0  0  0  0  0  0  0  0  0  0  0
   51.9206   27.7182   52.9559 H   0  0  0  0  0  0  0  0  0  0  0  0
   53.7340   28.8990   53.0350 C   0  0  0  0  0  0  0  0  0  0  0  0
   54.3239   28.0940   53.4976 H   0  0  0  0  0  0  0  0  0  0  0  0
   54.3410   30.1340   52.7440 C   0  0  0  0  0  0  0  0  0  0  0  0
   55.7160   30.4010   53.0670 N   0  0  0  0  0  0  0  0  0  0  0  0
   56.6060   30.9590   52.2970 C   0  0  0  0  0  0  0  0  0  0  0  0
   57.2220   30.2580   51.3040 N   0  0  0  0  0  0  0  0  0  0  0  0
   58.1350   30.8320   50.4740 C   0  0  0  0  0  0  0  0  0  0  0  0
   58.6220   30.2295   49.6931 H   0  0  0  0  0  0  0  0  0  0  0  0
   58.4560   32.1890   50.6120 C   0  0  0  0  0  0  0  0  0  0  0  0
   59.4640   32.8090   49.7220 C   0  0  0  0  0  0  0  0  0  0  0  0
   60.7540   33.1670   50.1860 C   0  0  0  0  0  0  0  0  0  0  0  0
   61.1770   32.9700   51.6190 C   0  0  0  0  0  0  0  0  0  0  0  0
   60.3860   33.3384   52.2888 H   0  0  0  0  0  0  0  0  0  0  0  0
   61.3477   31.8997   51.8071 H   0  0  0  0  0  0  0  0  0  0  0  0
   62.1061   33.5281   51.8071 H   0  0  0  0  0  0  0  0  0  0  0  0
   61.6700   33.7120   49.2740 C   0  0  0  0  0  0  0  0  0  0  0  0
   62.6871   33.9675   49.6059 H   0  0  0  0  0  0  0  0  0  0  0  0
   61.2970   33.9310   47.9500 C   0  0  0  0  0  0  0  0  0  0  0  0
   62.0139   34.3617   47.2355 H   0  0  0  0  0  0  0  0  0  0  0  0
   60.0090   33.6000   47.5390 C   0  0  0  0  0  0  0  0  0  0  0  0
   59.7024   33.7815   46.4983 H   0  0  0  0  0  0  0  0  0  0  0  0
   59.1280   33.0530   48.4190 N   0  0  0  0  0  0  0  0  0  0  0  0
   58.1740   32.8020   48.0720 H   0  0  0  0  0  0  0  0  0  0  0  0
   57.8390   32.9270   51.6300 C   0  0  0  0  0  0  0  0  0  0  0  0
   58.0909   33.9887   51.7690 H   0  0  0  0  0  0  0  0  0  0  0  0
   56.9040   32.3160   52.4690 C   0  0  0  0  0  0  0  0  0  0  0  0
   56.4056   32.8969   53.2590 H   0  0  0  0  0  0  0  0  0  0  0  0
   53.5650   31.1680   52.2030 C   0  0  0  0  0  0  0  0  0  0  0  0
   54.0244   32.1492   52.0127 H   0  0  0  0  0  0  0  0  0  0  0  0
  1  2  1  0
  2  3  1  0
  3  4  2  0
  3  5  1  0
  5  6  2  0
  6  7  1  0
  6  8  1  0
  8  9  1  0
  8 10  2  0
 10 11  1  0
 10 12  1  0
 12 13  1  0
 13 14  2  0
 14 15  1  0
 15 16  1  0
 16 17  1  0
 16 18  2  0
 18 19  1  0
 19 20  2  0
 20 21  1  0
 21 22  1  0
 21 23  1  0
 21 24  1  0
 20 25  1  0
 25 26  1  0
 25 27  2  0
 27 28  1  0
 27 29  1  0
 29 30  1  0
 29 31  2  0
 31 32  1  0
 18 33  1  0
 33 34  1  0
 33 35  2  0
 35 36  1  0
 12 37  2  0
 37 38  1  0
 37  5  1  0
 35 14  1  0
 31 19  1  0
M  CHG  3   2  -1  15  -1  31   1
M  END
>  <UniqueID>  (29) 
27

>  <SMILES>  (29) 
Cc1ccc[nH+]c1-c1cc/c(=N/c2cccc(C([NH-])=O)c2)[n-]c1

>  <Energy>  (29) 
55.33243924760287

>  <Genealogy>  (29) 
Cc1ccc[nH+]c1-c1ccc(=Nc2cccc(C([NH-])=O)c2)[n-]c1 (protonated)
Cc1ccc[nH+]c1-c1cc/c(=N/c2cccc(C([NH-])=O)c2)[n-]c1 (cis-trans isomerization)
Cc1ccc[nH+]c1-c1cc/c(=N/c2cccc(C([NH-])=O)c2)[n-]c1 (3D coordinates assigned)
Cc1ccc[nH+]c1-c1cc/c(=N/c2cccc(C([NH-])=O)c2)[n-]c1 (optimized conformer: 55.33243924760287 kcal/mol)

>  <smiles>  (29) 
Cc1cccnc1-c1ccc(=Nc2cccc(C(N)=O)c2)[nH]c1

>  <score_type>  (29) 
oracle

>  <origin>  (29) 
adg

>  <m_score__min__energy>  (29) 
-11.33

>  <m_primary>  (29) 
energy

$$$$
29:0
     RDKit          3D

 39 41  0  0  0  0  0  0  0  0999 V2000
   60.0080   23.5550   45.6110 C   0  0  0  0  0  0  0  0  0  0  0  0
   59.9530   24.8540   46.1920 O   0  0  0  0  0  0  0  0  0  0  0  0
   58.8500   25.7200   46.1300 C   0  0  0  0  0  0  0  0  0  0  0  0
   59.0310   27.1170   46.0890 C   0  0  0  0  0  0  0  0  0  0  0  0
   57.9360   27.9890   46.0350 C   0  0  0  0  0  0  0  0  0  0  0  0
   58.1460   29.4130   45.9870 N   0  0  0  0  0  0  0  0  0  0  0  0
   59.2860   30.1180   46.5940 C   0  0  0  0  0  0  0  0  0  0  0  0
   59.1100   31.5360   46.1320 C   0  0  0  0  0  0  0  0  0  0  0  0
   59.9210   32.6370   46.4060 C   0  0  0  0  0  0  0  0  0  0  0  0
   59.5560   33.8880   45.8770 C   0  0  0  0  0  0  0  0  0  0  0  0
   60.3250   34.9770   46.1250 F   0  0  0  0  0  0  0  0  0  0  0  0
   58.3920   34.0170   45.0910 C   0  0  0  0  0  0  0  0  0  0  0  0
   57.5860   32.8960   44.8280 C   0  0  0  0  0  0  0  0  0  0  0  0
   57.9760   31.6700   45.3630 C   0  0  0  0  0  0  0  0  0  0  0  0
   57.3610   30.3710   45.2710 C   0  0  0  0  0  0  0  0  0  0  0  0
   56.2650   30.1210   44.7030 O   0  0  0  0  0  0  0  0  0  0  0  0
   56.6410   27.4540   45.9990 C   0  0  0  0  0  0  0  0  0  0  0  0
   56.4350   26.0650   46.0390 C   0  0  0  0  0  0  0  0  0  0  0  0
   55.1470   25.5060   46.0070 O   0  0  0  0  0  0  0  0  0  0  0  0
   54.7350   24.4700   45.1220 C   0  0  0  0  0  0  0  0  0  0  0  0
   57.5330   25.1920   46.1080 C   0  0  0  0  0  0  0  0  0  0  0  0
   57.2430   23.8150   46.1470 O   0  0  0  0  0  0  0  0  0  0  0  0
   56.7640   23.0790   47.2670 C   0  0  0  0  0  0  0  0  0  0  0  0
   60.0401   22.7978   46.4083 H   0  0  0  0  0  0  0  0  0  0  0  0
   59.1159   23.3939   44.9880 H   0  0  0  0  0  0  0  0  0  0  0  0
   60.9106   23.4699   44.9880 H   0  0  0  0  0  0  0  0  0  0  0  0
   60.0504   27.5301   46.0996 H   0  0  0  0  0  0  0  0  0  0  0  0
   59.2478   30.0548   47.6915 H   0  0  0  0  0  0  0  0  0  0  0  0
   60.2570   29.6908   46.3032 H   0  0  0  0  0  0  0  0  0  0  0  0
   60.8259   32.5294   47.0221 H   0  0  0  0  0  0  0  0  0  0  0  0
   58.1137   34.9995   44.6819 H   0  0  0  0  0  0  0  0  0  0  0  0
   56.6747   32.9839   44.2182 H   0  0  0  0  0  0  0  0  0  0  0  0
   55.7754   28.1301   45.9387 H   0  0  0  0  0  0  0  0  0  0  0  0
   54.3906   23.6040   45.7063 H   0  0  0  0  0  0  0  0  0  0  0  0
   53.9134   24.8346   44.4879 H   0  0  0  0  0  0  0  0  0  0  0  0
   55.5826   24.1708   44.4879 H   0  0  0  0  0  0  0  0  0  0  0  0
   57.0858   23.5734   48.1954 H   0  0  0  0  0  0  0  0  0  0  0  0
   55.6652   23.0373   47.2356 H   0  0  0  0  0  0  0  0  0  0  0  0
   57.1708   22.0575   47.2356 H   0  0  0  0  0  0  0  0  0  0  0  0
  1  2  1  0
  2  3  1  0
  3  4  2  0
  4  5  1  0
  5  6  1  0
  6  7  1  0
  7  8  1  0
  8  9  2  0
  9 10  1  0
 10 11  1  0
 10 12  2  0
 12 13  1  0
 13 14  2  0
 14 15  1  0
 15 16  2  0
  5 17  2  0
 17 18  1  0
 18 19  1  0
 19 20  1  0
 18 21  2  0
 21 22  1  0
 22 23  1  0
 21  3  1  0
 15  6  1  0
 14  8  1  0
  1 24  1  0
  1 25  1  0
  1 26  1  0
  4 27  1  0
  7 28  1  0
  7 29  1  0
  9 30  1  0
 12 31  1  0
 13 32  1  0
 17 33  1  0
 20 34  1  0
 20 35  1  0
 20 36  1  0
 23 37  1  0
 23 38  1  0
 23 39  1  0
M  END
>  <UniqueID>  (30) 
28

>  <SMILES>  (30) 
COc1cc(N2Cc3cc(F)ccc3C2=O)cc(OC)c1OC

>  <Energy>  (30) 
68.3508956553722

>  <Genealogy>  (30) 
COc1cc(N2Cc3cc(F)ccc3C2=O)cc(OC)c1OC (3D coordinates assigned)
COc1cc(N2Cc3cc(F)ccc3C2=O)cc(OC)c1OC (nonaromatic ring conformer: 68.3508956553722 kcal/mol)

>  <smiles>  (30) 
COc1cc(N2Cc3cc(F)ccc3C2=O)cc(OC)c1OC

>  <score_type>  (30) 
oracle

>  <origin>  (30) 
adg

>  <m_score__min__energy>  (30) 
-6.2800000000000002

>  <m_primary>  (30) 
energy

$$$$
30:0
     RDKit          3D

 32 34  0  0  0  0  0  0  0  0999 V2000
   55.1250   29.3650   44.6270 N   0  0  0  0  0  0  0  0  0  0  0  0
   56.5420   30.3310   44.4120 S   0  0  0  0  0  0  0  0  0  0  0  0
   56.9400   30.3330   42.9620 O   0  0  0  0  0  0  0  0  0  0  0  0
   56.2530   31.7380   44.8480 O   0  0  0  0  0  0  0  0  0  0  0  0
   57.8200   29.7020   45.3600 O   0  0  0  0  0  0  0  0  0  0  0  0
   58.0880   28.3380   45.5380 C   0  0  0  0  0  0  0  0  0  0  0  0
   59.3800   27.7930   45.4140 C   0  0  0  0  0  0  0  0  0  0  0  0
   59.5930   26.4240   45.6010 C   0  0  0  0  0  0  0  0  0  0  0  0
   58.5160   25.5780   45.9160 C   0  0  0  0  0  0  0  0  0  0  0  0
   58.6780   24.1970   46.1050 C   0  0  0  0  0  0  0  0  0  0  0  0
   59.8130   23.6570   45.9920 O   0  0  0  0  0  0  0  0  0  0  0  0
   57.5640   23.4100   46.4150 C   0  0  0  0  0  0  0  0  0  0  0  0
   57.7090   22.0320   46.5540 O   0  0  0  0  0  0  0  0  0  0  0  0
   56.3040   24.0280   46.5470 C   0  0  0  0  0  0  0  0  0  0  0  0
   55.0840   23.2630   46.8880 C   0  0  0  0  0  0  0  0  0  0  0  0
   54.9000   22.8050   48.2030 C   0  0  0  0  0  0  0  0  0  0  0  0
   53.7650   22.0630   48.5430 C   0  0  0  0  0  0  0  0  0  0  0  0
   52.8100   21.7590   47.5700 C   0  0  0  0  0  0  0  0  0  0  0  0
   52.9930   22.1890   46.2530 C   0  0  0  0  0  0  0  0  0  0  0  0
   52.0510   21.8700   45.2820 O   0  0  0  0  0  0  0  0  0  0  0  0
   54.1270   22.9330   45.9100 C   0  0  0  0  0  0  0  0  0  0  0  0
   56.1900   25.3400   46.3460 O   0  0  0  0  0  0  0  0  0  0  0  0
   57.2210   26.1220   46.0440 C   0  0  0  0  0  0  0  0  0  0  0  0
   57.0180   27.4920   45.8540 C   0  0  0  0  0  0  0  0  0  0  0  0
   55.1560   28.9920   45.6020 H   0  0  0  0  0  0  0  0  0  0  0  0
   60.2281   28.4490   45.1682 H   0  0  0  0  0  0  0  0  0  0  0  0
   60.6064   26.0079   45.5013 H   0  0  0  0  0  0  0  0  0  0  0  0
   55.6544   23.0318   48.9708 H   0  0  0  0  0  0  0  0  0  0  0  0
   53.6238   21.7182   49.5780 H   0  0  0  0  0  0  0  0  0  0  0  0
   51.9139   21.1811   47.8404 H   0  0  0  0  0  0  0  0  0  0  0  0
   54.2716   23.2619   44.8703 H   0  0  0  0  0  0  0  0  0  0  0  0
   56.0056   27.9104   45.9539 H   0  0  0  0  0  0  0  0  0  0  0  0
  1  2  1  0
  2  3  2  0
  2  4  2  0
  2  5  1  0
  5  6  1  0
  6  7  2  0
  7  8  1  0
  8  9  2  0
  9 10  1  0
 10 11  2  0
 10 12  1  0
 12 13  1  0
 12 14  2  0
 14 15  1  0
 15 16  2  0
 16 17  1  0
 17 18  2  0
 18 19  1  0
 19 20  1  0
 19 21  2  0
 14 22  1  0
 22 23  1  0
 23 24  2  0
 24  6  1  0
 23  9  1  0
 21 15  1  0
  1 25  1  0
  7 26  1  0
  8 27  1  0
 16 28  1  0
 17 29  1  0
 18 30  1  0
 21 31  1  0
 24 32  1  0
M  CHG  3   1  -1  13  -1  20  -1
M  END
>  <UniqueID>  (31) 
29

>  <SMILES>  (31) 
[NH-]S(=O)(=O)Oc1ccc2c(=O)c([O-])c(-c3cccc([O-])c3)oc2c1

>  <Energy>  (31) 
44.03945034554864

>  <Genealogy>  (31) 
[NH-]S(=O)(=O)Oc1ccc2c(=O)c([O-])c(-c3cccc([O-])c3)oc2c1 (protonated)
[NH-]S(=O)(=O)Oc1ccc2c(=O)c([O-])c(-c3cccc([O-])c3)oc2c1 (3D coordinates assigned)
[NH-]S(=O)(=O)Oc1ccc2c(=O)c([O-])c(-c3cccc([O-])c3)oc2c1 (optimized conformer: 44.03945034554864 kcal/mol)

>  <smiles>  (31) 
NS(=O)(=O)Oc1ccc2c(=O)c(O)c(-c3cccc(O)c3)oc2c1

>  <score_type>  (31) 
oracle

>  <origin>  (31) 
adg

>  <m_score__min__energy>  (31) 
-13.119999999999999

>  <m_primary>  (31) 
energy

$$$$
31:0
     RDKit          3D

 42 44  0  0  0  0  0  0  0  0999 V2000
   59.7131   30.3538   48.6919 H   0  0  0  0  0  0  0  0  0  0  0  0
   59.1820   30.6840   47.7870 C   0  0  0  0  0  0  0  0  0  0  0  0
   58.5220   31.8510   47.8240 C   0  0  0  0  0  0  0  0  0  0  0  0
   57.8149   32.0315   48.6471 H   0  0  0  0  0  0  0  0  0  0  0  0
   58.7070   32.9080   46.8000 C   0  0  0  0  0  0  0  0  0  0  0  0
   58.0430   32.8260   45.5610 C   0  0  0  0  0  0  0  0  0  0  0  0
   57.4041   31.9579   45.3415 H   0  0  0  0  0  0  0  0  0  0  0  0
   58.1880   33.8360   44.6090 C   0  0  0  0  0  0  0  0  0  0  0  0
   57.6680   33.7577   43.6428 H   0  0  0  0  0  0  0  0  0  0  0  0
   58.9900   34.9440   44.8790 C   0  0  0  0  0  0  0  0  0  0  0  0
   59.1007   35.7386   44.1264 H   0  0  0  0  0  0  0  0  0  0  0  0
   59.6520   35.0460   46.1020 C   0  0  0  0  0  0  0  0  0  0  0  0
   60.2843   35.9223   46.3078 H   0  0  0  0  0  0  0  0  0  0  0  0
   59.5190   34.0400   47.0740 C   0  0  0  0  0  0  0  0  0  0  0  0
   60.2720   34.1700   48.3520 C   0  0  0  0  0  0  0  0  0  0  0  0
   59.6720   34.5780   49.4290 N   0  0  0  0  0  0  0  0  0  0  0  0
   59.9490   34.0520   50.6720 O   0  0  0  0  0  0  0  0  0  0  0  0
   58.9180   33.4640   51.4460 C   0  0  0  0  0  0  0  0  0  0  0  0
   59.1433   33.5925   52.5150 H   0  0  0  0  0  0  0  0  0  0  0  0
   57.9602   33.9517   51.2119 H   0  0  0  0  0  0  0  0  0  0  0  0
   58.8501   32.3913   51.2119 H   0  0  0  0  0  0  0  0  0  0  0  0
   61.7140   33.8110   48.4240 C   0  0  0  0  0  0  0  0  0  0  0  0
   62.4320   33.4590   47.2680 C   0  0  0  0  0  0  0  0  0  0  0  0
   61.9365   33.4688   46.2860 H   0  0  0  0  0  0  0  0  0  0  0  0
   63.7390   33.1070   47.3680 N   0  0  0  0  0  0  0  0  0  0  0  0
   64.3740   33.0910   48.5670 C   0  0  0  0  0  0  0  0  0  0  0  0
   65.4321   32.7972   48.6306 H   0  0  0  0  0  0  0  0  0  0  0  0
   63.6740   33.4500   49.7170 C   0  0  0  0  0  0  0  0  0  0  0  0
   64.1786   33.4464   50.6944 H   0  0  0  0  0  0  0  0  0  0  0  0
   62.3640   33.8050   49.6260 N   0  0  0  0  0  0  0  0  0  0  0  0
   61.8580   34.0550   50.5050 H   0  0  0  0  0  0  0  0  0  0  0  0
   59.2300   29.8180   46.5850 C   0  0  0  0  0  0  0  0  0  0  0  0
   58.0200   29.4280   45.9860 C   0  0  0  0  0  0  0  0  0  0  0  0
   57.0643   29.7532   46.4229 H   0  0  0  0  0  0  0  0  0  0  0  0
   58.0230   28.6290   44.8380 C   0  0  0  0  0  0  0  0  0  0  0  0
   57.0711   28.3198   44.3817 H   0  0  0  0  0  0  0  0  0  0  0  0
   59.2330   28.2230   44.2700 C   0  0  0  0  0  0  0  0  0  0  0  0
   59.2336   27.5901   43.3703 H   0  0  0  0  0  0  0  0  0  0  0  0
   60.4420   28.6210   44.8450 C   0  0  0  0  0  0  0  0  0  0  0  0
   61.3941   28.3061   44.3928 H   0  0  0  0  0  0  0  0  0  0  0  0
   60.4460   29.4180   45.9930 C   0  0  0  0  0  0  0  0  0  0  0  0
   61.4015   29.7346   46.4367 H   0  0  0  0  0  0  0  0  0  0  0  0
  1  2  1  0
  2  3  2  0
  3  4  1  0
  3  5  1  0
  5  6  2  0
  6  7  1  0
  6  8  1  0
  8  9  1  0
  8 10  2  0
 10 11  1  0
 10 12  1  0
 12 13  1  0
 12 14  2  0
 14 15  1  0
 15 16  2  0
 16 17  1  0
 17 18  1  0
 18 19  1  0
 18 20  1  0
 18 21  1  0
 15 22  1  0
 22 23  2  0
 23 24  1  0
 23 25  1  0
 25 26  2  0
 26 27  1  0
 26 28  1  0
 28 29  1  0
 28 30  2  0
 30 31  1  0
  2 32  1  0
 32 33  2  0
 33 34  1  0
 33 35  1  0
 35 36  1  0
 35 37  2  0
 37 38  1  0
 37 39  1  0
 39 40  1  0
 39 41  2  0
 41 42  1  0
 14  5  1  0
 30 22  1  0
 41 32  1  0
M  CHG  1  30   1
M  END
>  <UniqueID>  (32) 
30

>  <SMILES>  (32) 
CO/N=C(/c1cncc[nH+]1)c1ccccc1/C=C/c1ccccc1

>  <Energy>  (32) 
55.67791544196125

>  <Genealogy>  (32) 
CON=C(c1cncc[nH+]1)c1ccccc1C=Cc1ccccc1 (protonated)
CO/N=C(/c1cncc[nH+]1)c1ccccc1/C=C/c1ccccc1 (cis-trans isomerization)
CO/N=C(/c1cncc[nH+]1)c1ccccc1/C=C/c1ccccc1 (3D coordinates assigned)
CO/N=C(/c1cncc[nH+]1)c1ccccc1/C=C/c1ccccc1 (optimized conformer: 55.67791544196125 kcal/mol)

>  <smiles>  (32) 
CON=C(c1cnccn1)c1ccccc1C=Cc1ccccc1

>  <score_type>  (32) 
oracle

>  <origin>  (32) 
adg

>  <m_score__min__energy>  (32) 
-6.6200000000000001

>  <m_primary>  (32) 
energy

$$$$
32:0
     RDKit          3D

 62 65  0  0  0  0  0  0  0  0999 V2000
   59.5540   35.2360   46.5730 C   0  0  0  0  0  0  0  0  0  0  0  0
   58.8880   34.0720   45.8990 C   0  0  0  0  0  0  0  0  0  0  0  0
   58.8110   34.0180   44.4980 C   0  0  0  0  0  0  0  0  0  0  0  0
   58.2120   32.9260   43.8660 C   0  0  0  0  0  0  0  0  0  0  0  0
   57.6960   31.8680   44.6250 C   0  0  0  0  0  0  0  0  0  0  0  0
   56.8320   30.5500   43.8380 S   0  0  0  0  0  0  0  0  0  0  0  0
   56.6320   30.8430   42.3760 O   0  0  0  0  0  0  0  0  0  0  0  0
   55.4870   30.3750   44.4820 O   0  0  0  0  0  0  0  0  0  0  0  0
   57.7540   29.1010   44.0410 N   0  0  0  0  0  0  0  0  0  0  0  0
   58.3950   28.7950   45.2770 C   0  0  0  0  0  0  0  0  0  0  0  0
   59.6950   29.2460   45.5070 C   0  0  0  0  0  0  0  0  0  0  0  0
   60.3600   28.9060   46.6850 C   0  0  0  0  0  0  0  0  0  0  0  0
   59.7110   28.1520   47.6780 C   0  0  0  0  0  0  0  0  0  0  0  0
   60.4160   27.7680   48.9260 C   0  0  0  0  0  0  0  0  0  0  0  0
   61.0370   26.6710   48.9690 O   0  0  0  0  0  0  0  0  0  0  0  0
   60.4550   28.6380   50.0770 N   0  0  0  0  0  0  0  0  0  0  0  0
   59.2440   29.2920   50.5920 C   0  0  0  0  0  0  0  0  0  0  0  0
   59.5400   30.7640   50.9640 C   0  0  0  0  0  0  0  0  0  0  0  0
   60.9900   31.0310   51.0830 N   0  0  0  0  0  0  0  0  0  0  0  0
   61.2660   32.5540   51.8870 S   0  0  0  0  0  0  0  0  0  0  0  0
   60.8180   32.4720   53.3210 O   0  0  0  0  0  0  0  0  0  0  0  0
   62.7350   32.8770   51.8650 O   0  0  0  0  0  0  0  0  0  0  0  0
   60.4270   33.8290   50.9930 C   0  0  0  0  0  0  0  0  0  0  0  0
   60.4300   33.9750   49.6640 C   0  0  0  0  0  0  0  0  0  0  0  0
   61.4390   33.3820   48.7690 C   0  0  0  0  0  0  0  0  0  0  0  0
   61.2010   32.1360   48.1670 C   0  0  0  0  0  0  0  0  0  0  0  0
   62.1770   31.5660   47.3410 C   0  0  0  0  0  0  0  0  0  0  0  0
   63.3900   32.2320   47.1210 C   0  0  0  0  0  0  0  0  0  0  0  0
   63.6270   33.4670   47.7280 C   0  0  0  0  0  0  0  0  0  0  0  0
   62.6590   34.0430   48.5540 C   0  0  0  0  0  0  0  0  0  0  0  0
   61.6710   29.9370   51.7890 C   0  0  0  0  0  0  0  0  0  0  0  0
   61.6800   28.6980   50.8870 C   0  0  0  0  0  0  0  0  0  0  0  0
   58.3980   27.7100   47.4460 C   0  0  0  0  0  0  0  0  0  0  0  0
   57.7470   28.0210   46.2490 C   0  0  0  0  0  0  0  0  0  0  0  0
   57.7830   31.9100   46.0250 C   0  0  0  0  0  0  0  0  0  0  0  0
   58.3810   33.0040   46.6600 C   0  0  0  0  0  0  0  0  0  0  0  0
   59.4854   35.1161   47.6643 H   0  0  0  0  0  0  0  0  0  0  0  0
   60.6119   35.2764   46.2743 H   0  0  0  0  0  0  0  0  0  0  0  0
   59.0528   36.1685   46.2743 H   0  0  0  0  0  0  0  0  0  0  0  0
   59.2245   34.8399   43.8952 H   0  0  0  0  0  0  0  0  0  0  0  0
   58.1453   32.8968   42.7684 H   0  0  0  0  0  0  0  0  0  0  0  0
   60.1979   29.8727   44.7558 H   0  0  0  0  0  0  0  0  0  0  0  0
   61.3999   29.2303   46.8380 H   0  0  0  0  0  0  0  0  0  0  0  0
   58.4612   29.2641   49.8197 H   0  0  0  0  0  0  0  0  0  0  0  0
   58.9070   28.7582   51.4928 H   0  0  0  0  0  0  0  0  0  0  0  0
   59.1227   31.4171   50.1835 H   0  0  0  0  0  0  0  0  0  0  0  0
   59.0791   30.9636   51.9426 H   0  0  0  0  0  0  0  0  0  0  0  0
   59.8550   34.5631   51.5794 H   0  0  0  0  0  0  0  0  0  0  0  0
   59.6283   34.5760   49.2100 H   0  0  0  0  0  0  0  0  0  0  0  0
   60.2513   31.6098   48.3437 H   0  0  0  0  0  0  0  0  0  0  0  0
   61.9911   30.5927   46.8634 H   0  0  0  0  0  0  0  0  0  0  0  0
   64.1548   31.7824   46.4707 H   0  0  0  0  0  0  0  0  0  0  0  0
   64.5800   33.9884   47.5550 H   0  0  0  0  0  0  0  0  0  0  0  0
   62.8522   35.0130   49.0354 H   0  0  0  0  0  0  0  0  0  0  0  0
   62.7047   30.2333   52.0207 H   0  0  0  0  0  0  0  0  0  0  0  0
   61.1437   29.7123   52.7279 H   0  0  0  0  0  0  0  0  0  0  0  0
   62.5529   28.7435   50.2192 H   0  0  0  0  0  0  0  0  0  0  0  0
   61.7308   27.7996   51.5196 H   0  0  0  0  0  0  0  0  0  0  0  0
   57.8786   27.1150   48.2117 H   0  0  0  0  0  0  0  0  0  0  0  0
   56.7244   27.6576   46.0696 H   0  0  0  0  0  0  0  0  0  0  0  0
   57.3800   31.0806   46.6248 H   0  0  0  0  0  0  0  0  0  0  0  0
   58.4547   33.0286   47.7573 H   0  0  0  0  0  0  0  0  0  0  0  0
  1  2  1  0
  2  3  2  0
  3  4  1  0
  4  5  2  0
  5  6  1  0
  6  7  2  0
  6  8  2  0
  6  9  1  0
  9 10  1  0
 10 11  2  0
 11 12  1  0
 12 13  2  0
 13 14  1  0
 14 15  2  0
 14 16  1  0
 16 17  1  0
 17 18  1  0
 18 19  1  0
 19 20  1  0
 20 21  2  0
 20 22  2  0
 20 23  1  0
 23 24  2  3
 24 25  1  0
 25 26  2  0
 26 27  1  0
 27 28  2  0
 28 29  1  0
 29 30  2  0
 19 31  1  0
 31 32  1  0
 13 33  1  0
 33 34  2  0
  5 35  1  0
 35 36  2  0
 36  2  1  0
 34 10  1  0
 32 16  1  0
 30 25  1  0
  1 37  1  0
  1 38  1  0
  1 39  1  0
  3 40  1  0
  4 41  1  0
 11 42  1  0
 12 43  1  0
 17 44  1  0
 17 45  1  0
 18 46  1  0
 18 47  1  0
 23 48  1  0
 24 49  1  0
 26 50  1  0
 27 51  1  0
 28 52  1  0
 29 53  1  0
 30 54  1  0
 31 55  1  0
 31 56  1  0
 32 57  1  0
 32 58  1  0
 33 59  1  0
 34 60  1  0
 35 61  1  0
 36 62  1  0
M  CHG  1   9  -1
M  END
>  <UniqueID>  (33) 
31

>  <SMILES>  (33) 
Cc1ccc(S(=O)(=O)[N-]c2ccc(C(=O)N3CCN(S(=O)(=O)C=Cc4ccccc4)CC3)cc2)cc1

>  <Energy>  (33) 
89.9110075638753

>  <Genealogy>  (33) 
Cc1ccc(S(=O)(=O)[N-]c2ccc(C(=O)N3CCN(S(=O)(=O)C=Cc4ccccc4)CC3)cc2)cc1 (protonated)
Cc1ccc(S(=O)(=O)[N-]c2ccc(C(=O)N3CCN(S(=O)(=O)C=Cc4ccccc4)CC3)cc2)cc1 (3D coordinates assigned)
Cc1ccc(S(=O)(=O)[N-]c2ccc(C(=O)N3CCN(S(=O)(=O)C=Cc4ccccc4)CC3)cc2)cc1 (nonaromatic ring conformer: 89.9110075638753 kcal/mol)

>  <smiles>  (33) 
Cc1ccc(S(=O)(=O)Nc2ccc(C(=O)N3CCN(S(=O)(=O)C=Cc4ccccc4)CC3)cc2)cc1

>  <score_type>  (33) 
oracle

>  <origin>  (33) 
adg

>  <m_score__min__energy>  (33) 
-11.49

>  <m_primary>  (33) 
energy

$$$$
33:0
     RDKit          3D

 41 43  0  0  0  0  0  0  0  0999 V2000
   61.8940   30.9640   47.4820 C   0  0  0  0  0  0  0  0  0  0  0  0
   60.7230   30.2960   46.8360 C   0  0  0  0  0  0  0  0  0  0  0  0
   60.0080   30.9530   46.0320 O   0  0  0  0  0  0  0  0  0  0  0  0
   60.4590   28.9050   47.0950 N   0  0  0  0  0  0  0  0  0  0  0  0
   59.2920   28.2090   46.6270 C   0  0  0  0  0  0  0  0  0  0  0  0
   58.1580   28.9120   46.1810 C   0  0  0  0  0  0  0  0  0  0  0  0
   57.0260   28.2220   45.7170 C   0  0  0  0  0  0  0  0  0  0  0  0
   55.8670   28.9240   45.2440 N   0  0  0  0  0  0  0  0  0  0  0  0
   55.8350   29.8140   44.1190 C   0  0  0  0  0  0  0  0  0  0  0  0
   55.1230   29.5120   43.1250 O   0  0  0  0  0  0  0  0  0  0  0  0
   56.6810   31.0260   44.0710 C   0  0  0  0  0  0  0  0  0  0  0  0
   57.6720   31.2330   43.1090 C   0  0  0  0  0  0  0  0  0  0  0  0
   58.4060   32.7110   43.4340 S   0  0  0  0  0  0  0  0  0  0  0  0
   57.4290   33.0310   44.7680 C   0  0  0  0  0  0  0  0  0  0  0  0
   57.6000   34.2020   45.6860 C   0  0  0  0  0  0  0  0  0  0  0  0
   58.4520   33.8510   46.8740 C   0  0  0  0  0  0  0  0  0  0  0  0
   58.1160   32.7590   47.6930 C   0  0  0  0  0  0  0  0  0  0  0  0
   58.9120   32.4380   48.7980 C   0  0  0  0  0  0  0  0  0  0  0  0
   60.0420   33.2040   49.0950 C   0  0  0  0  0  0  0  0  0  0  0  0
   60.3930   34.2790   48.2780 C   0  0  0  0  0  0  0  0  0  0  0  0
   59.6030   34.6020   47.1700 C   0  0  0  0  0  0  0  0  0  0  0  0
   56.5690   32.0150   44.9990 N   0  0  0  0  0  0  0  0  0  0  0  0
   57.0050   26.8240   45.7640 C   0  0  0  0  0  0  0  0  0  0  0  0
   58.1160   26.1180   46.2340 C   0  0  0  0  0  0  0  0  0  0  0  0
   59.2540   26.8030   46.6690 C   0  0  0  0  0  0  0  0  0  0  0  0
   60.3480   26.0790   47.1330 O   0  0  0  0  0  0  0  0  0  0  0  0
   61.7919   30.9058   48.5757 H   0  0  0  0  0  0  0  0  0  0  0  0
   62.8209   30.4587   47.1728 H   0  0  0  0  0  0  0  0  0  0  0  0
   61.9308   32.0190   47.1728 H   0  0  0  0  0  0  0  0  0  0  0  0
   61.2030   28.3540   47.5850 H   0  0  0  0  0  0  0  0  0  0  0  0
   58.1578   30.0119   46.1958 H   0  0  0  0  0  0  0  0  0  0  0  0
   57.9272   30.5505   42.2849 H   0  0  0  0  0  0  0  0  0  0  0  0
   58.0792   35.0230   45.1326 H   0  0  0  0  0  0  0  0  0  0  0  0
   56.6067   34.5028   46.0505 H   0  0  0  0  0  0  0  0  0  0  0  0
   57.2252   32.1554   47.4646 H   0  0  0  0  0  0  0  0  0  0  0  0
   58.6475   31.5806   49.4343 H   0  0  0  0  0  0  0  0  0  0  0  0
   60.6559   32.9591   49.9743 H   0  0  0  0  0  0  0  0  0  0  0  0
   61.2909   34.8724   48.5052 H   0  0  0  0  0  0  0  0  0  0  0  0
   59.8839   35.4487   46.5264 H   0  0  0  0  0  0  0  0  0  0  0  0
   56.1104   26.2781   45.4297 H   0  0  0  0  0  0  0  0  0  0  0  0
   58.0946   25.0186   46.2617 H   0  0  0  0  0  0  0  0  0  0  0  0
  1  2  1  0
  2  3  2  0
  2  4  1  0
  4  5  1  0
  5  6  2  0
  6  7  1  0
  7  8  1  0
  8  9  1  0
  9 10  2  0
  9 11  1  0
 11 12  2  0
 12 13  1  0
 13 14  1  0
 14 15  1  0
 15 16  1  0
 16 17  2  0
 17 18  1  0
 18 19  2  0
 19 20  1  0
 20 21  2  0
 14 22  2  0
  7 23  2  0
 23 24  1  0
 24 25  2  0
 25 26  1  0
 25  5  1  0
 22 11  1  0
 21 16  1  0
  1 27  1  0
  1 28  1  0
  1 29  1  0
  4 30  1  0
  6 31  1  0
 12 32  1  0
 15 33  1  0
 15 34  1  0
 17 35  1  0
 18 36  1  0
 19 37  1  0
 20 38  1  0
 21 39  1  0
 23 40  1  0
 24 41  1  0
M  CHG  2   8  -1  26  -1
M  END
>  <UniqueID>  (34) 
32

>  <SMILES>  (34) 
CC(=O)Nc1cc([N-]C(=O)c2csc(Cc3ccccc3)n2)ccc1[O-]

>  <Energy>  (34) 
72.58726418044166

>  <Genealogy>  (34) 
CC(=O)Nc1cc([N-]C(=O)c2csc(Cc3ccccc3)n2)ccc1[O-] (protonated)
CC(=O)Nc1cc([N-]C(=O)c2csc(Cc3ccccc3)n2)ccc1[O-] (3D coordinates assigned)
CC(=O)Nc1cc([N-]C(=O)c2csc(Cc3ccccc3)n2)ccc1[O-] (optimized conformer: 72.58726418044166 kcal/mol)

>  <smiles>  (34) 
CC(=O)Nc1cc(NC(=O)c2csc(Cc3ccccc3)n2)ccc1O

>  <score_type>  (34) 
oracle

>  <origin>  (34) 
adg

>  <m_score__min__energy>  (34) 
-12.83

>  <m_primary>  (34) 
energy

$$$$
34:0
     RDKit          3D

 21 22  0  0  0  0  0  0  0  0999 V2000
   56.6560   30.0920   42.3390 N   0  0  0  0  0  0  0  0  0  0  0  0
   57.2630   30.6030   43.8750 S   0  0  0  0  0  0  0  0  0  0  0  0
   56.2220   31.4320   44.5750 O   0  0  0  0  0  0  0  0  0  0  0  0
   58.4940   31.4430   43.6770 O   0  0  0  0  0  0  0  0  0  0  0  0
   57.6550   29.1900   44.8480 C   0  0  0  0  0  0  0  0  0  0  0  0
   58.9750   28.9630   45.2560 C   0  0  0  0  0  0  0  0  0  0  0  0
   59.2960   27.8370   46.0190 C   0  0  0  0  0  0  0  0  0  0  0  0
   58.2950   26.9230   46.3770 C   0  0  0  0  0  0  0  0  0  0  0  0
   58.5950   25.7890   47.1380 C   0  0  0  0  0  0  0  0  0  0  0  0
   57.6040   24.9200   47.4670 N   0  0  0  0  0  0  0  0  0  0  0  0
   56.3440   25.1190   47.0800 N   0  0  0  0  0  0  0  0  0  0  0  0
   55.9850   26.2000   46.3380 C   0  0  0  0  0  0  0  0  0  0  0  0
   54.7800   26.3420   45.9970 O   0  0  0  0  0  0  0  0  0  0  0  0
   56.9620   27.1370   45.9640 C   0  0  0  0  0  0  0  0  0  0  0  0
   56.6510   28.2750   45.1960 C   0  0  0  0  0  0  0  0  0  0  0  0
   55.7450   29.6130   42.5140 H   0  0  0  0  0  0  0  0  0  0  0  0
   57.3140   29.3650   41.9760 H   0  0  0  0  0  0  0  0  0  0  0  0
   59.7643   29.6754   44.9742 H   0  0  0  0  0  0  0  0  0  0  0  0
   60.3348   27.6677   46.3389 H   0  0  0  0  0  0  0  0  0  0  0  0
   59.6274   25.6016   47.4683 H   0  0  0  0  0  0  0  0  0  0  0  0
   55.6155   28.4473   44.8673 H   0  0  0  0  0  0  0  0  0  0  0  0
  1  2  1  0
  2  3  2  0
  2  4  2  0
  2  5  1  0
  5  6  2  0
  6  7  1  0
  7  8  2  0
  8  9  1  0
  9 10  2  0
 10 11  1  0
 11 12  1  0
 12 13  2  0
 12 14  1  0
 14 15  2  0
 15  5  1  0
 14  8  1  0
  1 16  1  0
  1 17  1  0
  6 18  1  0
  7 19  1  0
  9 20  1  0
 15 21  1  0
M  CHG  1  11  -1
M  END
>  <UniqueID>  (35) 
33

>  <SMILES>  (35) 
NS(=O)(=O)c1ccc2cn[n-]c(=O)c2c1

>  <Energy>  (35) 
26.113202118284615

>  <Genealogy>  (35) 
NS(=O)(=O)c1ccc2cn[n-]c(=O)c2c1 (protonated)
NS(=O)(=O)c1ccc2cn[n-]c(=O)c2c1 (3D coordinates assigned)
NS(=O)(=O)c1ccc2cn[n-]c(=O)c2c1 (optimized conformer: 26.113202118284615 kcal/mol)

>  <smiles>  (35) 
NS(=O)(=O)c1ccc2cn[nH]c(=O)c2c1

>  <score_type>  (35) 
oracle

>  <origin>  (35) 
adg

>  <m_score__min__energy>  (35) 
-8.5099999999999998

>  <m_primary>  (35) 
energy

$$$$
35:0
     RDKit          3D

 53 56  0  0  0  0  0  0  0  0999 V2000
   52.5580   23.8280   45.0770 C   0  0  0  0  0  0  0  0  0  0  0  0
   52.9530   22.6030   45.6780 O   0  0  0  0  0  0  0  0  0  0  0  0
   53.1190   22.4080   47.0580 C   0  0  0  0  0  0  0  0  0  0  0  0
   52.2250   21.6270   47.8190 C   0  0  0  0  0  0  0  0  0  0  0  0
   52.4230   21.4690   49.1930 C   0  0  0  0  0  0  0  0  0  0  0  0
   53.5100   22.0780   49.8170 C   0  0  0  0  0  0  0  0  0  0  0  0
   54.4020   22.8520   49.0730 C   0  0  0  0  0  0  0  0  0  0  0  0
   54.2180   23.0170   47.6870 C   0  0  0  0  0  0  0  0  0  0  0  0
   55.1150   23.8010   46.8880 N   0  0  0  0  0  0  0  0  0  0  0  0
   56.1750   23.1970   45.6540 S   0  0  0  0  0  0  0  0  0  0  0  0
   57.2800   22.4240   46.3070 O   0  0  0  0  0  0  0  0  0  0  0  0
   55.4080   22.3160   44.7130 O   0  0  0  0  0  0  0  0  0  0  0  0
   56.8310   24.5630   44.7400 C   0  0  0  0  0  0  0  0  0  0  0  0
   56.9820   25.7940   45.3990 C   0  0  0  0  0  0  0  0  0  0  0  0
   57.5320   26.9000   44.7470 C   0  0  0  0  0  0  0  0  0  0  0  0
   57.6610   28.1470   45.4470 N   0  0  0  0  0  0  0  0  0  0  0  0
   58.8350   28.4180   46.2780 C   0  0  0  0  0  0  0  0  0  0  0  0
   59.4100   29.7990   45.9460 C   0  0  0  0  0  0  0  0  0  0  0  0
   58.3320   30.8700   45.8950 C   0  0  0  0  0  0  0  0  0  0  0  0
   58.6790   32.3080   46.1000 C   0  0  0  0  0  0  0  0  0  0  0  0
   58.5230   33.2360   45.0460 C   0  0  0  0  0  0  0  0  0  0  0  0
   58.8640   34.5790   45.2240 C   0  0  0  0  0  0  0  0  0  0  0  0
   59.3570   35.0230   46.4510 C   0  0  0  0  0  0  0  0  0  0  0  0
   59.5210   34.1220   47.5030 C   0  0  0  0  0  0  0  0  0  0  0  0
   59.1870   32.7740   47.3320 C   0  0  0  0  0  0  0  0  0  0  0  0
   57.1110   30.5550   45.5620 N   0  0  0  0  0  0  0  0  0  0  0  0
   56.7120   29.2110   45.2710 C   0  0  0  0  0  0  0  0  0  0  0  0
   55.5490   28.9850   44.8370 O   0  0  0  0  0  0  0  0  0  0  0  0
   57.9310   26.7860   43.4110 C   0  0  0  0  0  0  0  0  0  0  0  0
   57.7660   25.5790   42.7340 C   0  0  0  0  0  0  0  0  0  0  0  0
   57.1990   24.4640   43.3760 C   0  0  0  0  0  0  0  0  0  0  0  0
   56.9950   23.2630   42.6210 N   0  0  0  0  0  0  0  0  0  0  0  0
   52.3214   24.5618   45.8616 H   0  0  0  0  0  0  0  0  0  0  0  0
   53.3782   24.2110   44.4520 H   0  0  0  0  0  0  0  0  0  0  0  0
   51.6686   23.6598   44.4520 H   0  0  0  0  0  0  0  0  0  0  0  0
   51.3687   21.1404   47.3292 H   0  0  0  0  0  0  0  0  0  0  0  0
   51.7198   20.8630   49.7831 H   0  0  0  0  0  0  0  0  0  0  0  0
   53.6654   21.9485   50.8982 H   0  0  0  0  0  0  0  0  0  0  0  0
   55.2540   23.3361   49.5727 H   0  0  0  0  0  0  0  0  0  0  0  0
   56.6615   25.8888   46.4470 H   0  0  0  0  0  0  0  0  0  0  0  0
   58.5438   28.3908   47.3384 H   0  0  0  0  0  0  0  0  0  0  0  0
   59.6001   27.6531   46.0793 H   0  0  0  0  0  0  0  0  0  0  0  0
   60.1451   30.0720   46.7175 H   0  0  0  0  0  0  0  0  0  0  0  0
   59.8776   29.7413   44.9520 H   0  0  0  0  0  0  0  0  0  0  0  0
   58.1293   32.8978   44.0761 H   0  0  0  0  0  0  0  0  0  0  0  0
   58.7432   35.2894   44.3929 H   0  0  0  0  0  0  0  0  0  0  0  0
   59.6163   36.0831   46.5889 H   0  0  0  0  0  0  0  0  0  0  0  0
   59.9137   34.4719   48.4691 H   0  0  0  0  0  0  0  0  0  0  0  0
   59.3217   32.0699   48.1664 H   0  0  0  0  0  0  0  0  0  0  0  0
   58.3753   27.6496   42.8945 H   0  0  0  0  0  0  0  0  0  0  0  0
   58.0834   25.4976   41.6839 H   0  0  0  0  0  0  0  0  0  0  0  0
   56.8320   22.3520   43.1140 H   0  0  0  0  0  0  0  0  0  0  0  0
   57.0080   23.2480   41.5710 H   0  0  0  0  0  0  0  0  0  0  0  0
  1  2  1  0
  2  3  1  0
  3  4  2  0
  4  5  1  0
  5  6  2  0
  6  7  1  0
  7  8  2  0
  8  9  1  0
  9 10  1  0
 10 11  2  0
 10 12  2  0
 10 13  1  0
 13 14  2  0
 14 15  1  0
 15 16  1  0
 16 17  1  0
 17 18  1  0
 18 19  1  0
 19 20  1  0
 20 21  2  0
 21 22  1  0
 22 23  2  0
 23 24  1  0
 24 25  2  0
 19 26  2  0
 26 27  1  0
 27 28  2  0
 15 29  2  0
 29 30  1  0
 30 31  2  0
 31 32  1  0
  8  3  1  0
 31 13  1  0
 27 16  1  0
 25 20  1  0
  1 33  1  0
  1 34  1  0
  1 35  1  0
  4 36  1  0
  5 37  1  0
  6 38  1  0
  7 39  1  0
 14 40  1  0
 17 41  1  0
 17 42  1  0
 18 43  1  0
 18 44  1  0
 21 45  1  0
 22 46  1  0
 23 47  1  0
 24 48  1  0
 25 49  1  0
 29 50  1  0
 30 51  1  0
 32 52  1  0
 32 53  1  0
M  CHG  1   9  -1
M  END
>  <UniqueID>  (36) 
34

>  <SMILES>  (36) 
COc1ccccc1[N-]S(=O)(=O)c1cc(N2CCC(c3ccccc3)=NC2=O)ccc1N

>  <Energy>  (36) 
72.71465063647528

>  <Genealogy>  (36) 
COc1ccccc1[N-]S(=O)(=O)c1cc(N2CCC(c3ccccc3)=NC2=O)ccc1N (protonated)
COc1ccccc1[N-]S(=O)(=O)c1cc(N2CCC(c3ccccc3)=NC2=O)ccc1N (3D coordinates assigned)
COc1ccccc1[N-]S(=O)(=O)c1cc(N2CCC(c3ccccc3)=NC2=O)ccc1N (nonaromatic ring conformer: 72.71465063647528 kcal/mol)

>  <smiles>  (36) 
COc1ccccc1NS(=O)(=O)c1cc(N2CCC(c3ccccc3)=NC2=O)ccc1N

>  <score_type>  (36) 
oracle

>  <origin>  (36) 
adg

>  <m_score__min__energy>  (36) 
-10.710000000000001

>  <m_primary>  (36) 
energy

$$$$
36:0
     RDKit          3D

 56 58  0  0  0  0  0  0  0  0999 V2000
   54.5106   30.3230   43.5681 H   0  0  0  0  0  0  0  0  0  0  0  0
   55.5250   30.1010   43.9310 C   0  0  0  0  0  0  0  0  0  0  0  0
   55.7160   29.1290   44.8590 N   0  0  0  0  0  0  0  0  0  0  0  0
   56.9440   28.8000   45.3450 C   0  0  0  0  0  0  0  0  0  0  0  0
   56.9870   27.8750   46.2700 N   0  0  0  0  0  0  0  0  0  0  0  0
   57.0550   26.4510   46.1250 C   0  0  0  0  0  0  0  0  0  0  0  0
   58.2860   25.7880   46.2570 C   0  0  0  0  0  0  0  0  0  0  0  0
   59.2071   26.3686   46.4137 H   0  0  0  0  0  0  0  0  0  0  0  0
   58.3450   24.3930   46.1900 C   0  0  0  0  0  0  0  0  0  0  0  0
   59.3146   23.8790   46.2646 H   0  0  0  0  0  0  0  0  0  0  0  0
   57.1700   23.6510   46.0280 C   0  0  0  0  0  0  0  0  0  0  0  0
   57.2172   22.5541   45.9597 H   0  0  0  0  0  0  0  0  0  0  0  0
   55.9370   24.3030   45.9530 C   0  0  0  0  0  0  0  0  0  0  0  0
   55.0123   23.7177   45.8419 H   0  0  0  0  0  0  0  0  0  0  0  0
   55.8760   25.7000   46.0190 C   0  0  0  0  0  0  0  0  0  0  0  0
   54.6700   26.3160   45.9930 F   0  0  0  0  0  0  0  0  0  0  0  0
   58.0890   29.4680   44.8140 C   0  0  0  0  0  0  0  0  0  0  0  0
   59.4770   29.0320   45.0480 C   0  0  0  0  0  0  0  0  0  0  0  0
   60.0500   28.3040   44.1970 O   0  0  0  0  0  0  0  0  0  0  0  0
   60.1690   29.3580   46.2580 N   0  0  0  0  0  0  0  0  0  0  0  0
   59.7680   28.9160   47.5940 C   0  0  0  0  0  0  0  0  0  0  0  0
   60.2430   27.9451   47.7986 H   0  0  0  0  0  0  0  0  0  0  0  0
   58.6702   28.8475   47.6006 H   0  0  0  0  0  0  0  0  0  0  0  0
   60.1710   29.8990   48.7000 C   0  0  0  0  0  0  0  0  0  0  0  0
   61.2413   30.1302   48.5956 H   0  0  0  0  0  0  0  0  0  0  0  0
   59.9565   29.4237   49.6686 H   0  0  0  0  0  0  0  0  0  0  0  0
   59.3720   31.2110   48.6310 C   0  0  0  0  0  0  0  0  0  0  0  0
   59.7790   31.9002   49.3856 H   0  0  0  0  0  0  0  0  0  0  0  0
   58.3202   30.9443   48.8114 H   0  0  0  0  0  0  0  0  0  0  0  0
   59.4120   31.8950   47.3080 N   0  0  2  0  0  0  0  0  0  0  0  0
   59.0800   31.1350   46.6660 H   0  0  0  0  0  0  0  0  0  0  0  0
   60.8000   32.1670   46.8310 C   0  0  0  0  0  0  0  0  0  0  0  0
   60.8259   32.0000   45.7441 H   0  0  0  0  0  0  0  0  0  0  0  0
   61.4566   31.4872   47.3937 H   0  0  0  0  0  0  0  0  0  0  0  0
   61.3140   33.5820   47.1060 C   0  0  0  0  0  0  0  0  0  0  0  0
   62.2899   33.7146   46.6160 H   0  0  0  0  0  0  0  0  0  0  0  0
   61.4145   33.7199   48.1927 H   0  0  0  0  0  0  0  0  0  0  0  0
   60.3430   34.6100   46.5690 C   0  0  0  0  0  0  0  0  0  0  0  0
   60.2130   34.4619   45.4868 H   0  0  0  0  0  0  0  0  0  0  0  0
   60.7369   35.6200   46.7552 H   0  0  0  0  0  0  0  0  0  0  0  0
   59.0010   34.4510   47.2680 C   0  0  0  0  0  0  0  0  0  0  0  0
   58.2852   35.1461   46.8049 H   0  0  0  0  0  0  0  0  0  0  0  0
   59.1697   34.6648   48.3337 H   0  0  0  0  0  0  0  0  0  0  0  0
   58.4120   33.0160   47.1850 C   0  0  1  0  0  0  0  0  0  0  0  0
   57.8110   32.9231   48.1016 H   0  0  0  0  0  0  0  0  0  0  0  0
   57.4380   32.8360   45.9820 C   0  0  0  0  0  0  0  0  0  0  0  0
   56.4215   32.7128   46.3840 H   0  0  0  0  0  0  0  0  0  0  0  0
   57.8029   31.9601   45.4255 H   0  0  0  0  0  0  0  0  0  0  0  0
   57.4120   33.9890   44.9810 C   0  0  0  0  0  0  0  0  0  0  0  0
   57.3904   34.9455   45.5239 H   0  0  0  0  0  0  0  0  0  0  0  0
   58.3113   33.9463   44.3490 H   0  0  0  0  0  0  0  0  0  0  0  0
   56.5155   33.9058   44.3490 H   0  0  0  0  0  0  0  0  0  0  0  0
   57.8920   30.4960   43.8790 C   0  0  0  0  0  0  0  0  0  0  0  0
   58.7572   31.0534   43.4908 H   0  0  0  0  0  0  0  0  0  0  0  0
   56.6110   30.8160   43.4390 C   0  0  0  0  0  0  0  0  0  0  0  0
   56.4595   31.6257   42.7100 H   0  0  0  0  0  0  0  0  0  0  0  0
  1  2  1  0
  2  3  1  0
  3  4  1  0
  4  5  2  0
  5  6  1  0
  6  7  2  0
  7  8  1  0
  7  9  1  0
  9 10  1  0
  9 11  2  0
 11 12  1  0
 11 13  1  0
 13 14  1  0
 13 15  2  0
 15 16  1  0
  4 17  1  0
 17 18  1  0
 18 19  2  0
 18 20  1  0
 20 21  1  0
 21 22  1  0
 21 23  1  0
 21 24  1  0
 24 25  1  0
 24 26  1  0
 24 27  1  0
 27 28  1  0
 27 29  1  0
 27 30  1  0
 30 31  1  6
 30 32  1  0
 32 33  1  0
 32 34  1  0
 32 35  1  0
 35 36  1  0
 35 37  1  0
 35 38  1  0
 38 39  1  0
 38 40  1  0
 38 41  1  0
 41 42  1  0
 41 43  1  0
 41 44  1  0
 44 45  1  1
 44 46  1  0
 46 47  1  0
 46 48  1  0
 46 49  1  0
 49 50  1  0
 49 51  1  0
 49 52  1  0
 17 53  2  0
 53 54  1  0
 53 55  1  0
 55 56  1  0
 55  2  2  0
 15  6  1  0
 44 30  1  0
M  CHG  3   3  -1  20  -1  30   1
M  END
>  <UniqueID>  (37) 
35

>  <SMILES>  (37) 
CC[C@@H]1CCCC[N@H+]1CCC[N-]C(=O)c1ccc[n-]/c1=N/c1ccccc1F

>  <Energy>  (37) 
90.52908106825366

>  <Genealogy>  (37) 
CCC1CCCC[NH+]1CCC[N-]C(=O)c1ccc[n-]c1=Nc1ccccc1F (protonated)
CC[C@@H]1CCCC[N@H+]1CCC[N-]C(=O)c1ccc[n-]c1=Nc1ccccc1F (chirality)
CC[C@@H]1CCCC[N@H+]1CCC[N-]C(=O)c1ccc[n-]/c1=N/c1ccccc1F (cis-trans isomerization)
CC[C@@H]1CCCC[N@H+]1CCC[N-]C(=O)c1ccc[n-]/c1=N/c1ccccc1F (3D coordinates assigned)
CC[C@@H]1CCCC[N@H+]1CCC[N-]C(=O)c1ccc[n-]/c1=N/c1ccccc1F (nonaromatic ring conformer: 90.52908106825366 kcal/mol)

>  <smiles>  (37) 
CCC1CCCCN1CCCNC(=O)c1ccc[nH]c1=Nc1ccccc1F

>  <score_type>  (37) 
oracle

>  <origin>  (37) 
adg

>  <m_score__min__energy>  (37) 
-9.4800000000000004

>  <m_primary>  (37) 
energy

$$$$
37:0
     RDKit          3D

 32 33  0  0  0  0  0  0  0  0999 V2000
   61.0230   33.6930   46.7080 C   0  0  0  0  0  0  0  0  0  0  0  0
   59.5530   34.6060   46.2830 S   0  0  0  0  0  0  0  0  0  0  0  0
   59.8900   36.0410   45.9930 O   0  0  0  0  0  0  0  0  0  0  0  0
   58.6090   34.5590   47.4520 O   0  0  0  0  0  0  0  0  0  0  0  0
   58.7760   33.8850   44.9080 N   0  0  0  0  0  0  0  0  0  0  0  0
   58.2070   32.5630   44.8900 C   0  0  0  0  0  0  0  0  0  0  0  0
   58.3470   31.6720   45.9700 C   0  0  0  0  0  0  0  0  0  0  0  0
   57.7810   30.3950   45.9130 C   0  0  0  0  0  0  0  0  0  0  0  0
   57.0790   29.9760   44.7750 C   0  0  0  0  0  0  0  0  0  0  0  0
   56.4870   28.6650   44.7510 N   0  0  0  0  0  0  0  0  0  0  0  0
   57.0220   27.5250   45.4410 C   0  0  0  0  0  0  0  0  0  0  0  0
   58.4100   27.3210   45.4520 C   0  0  0  0  0  0  0  0  0  0  0  0
   58.9570   26.2130   46.1050 C   0  0  0  0  0  0  0  0  0  0  0  0
   58.1200   25.2910   46.7390 C   0  0  0  0  0  0  0  0  0  0  0  0
   56.7340   25.4700   46.7100 C   0  0  0  0  0  0  0  0  0  0  0  0
   56.1810   26.5740   46.0540 C   0  0  0  0  0  0  0  0  0  0  0  0
   54.7980   26.7060   45.9960 O   0  0  0  0  0  0  0  0  0  0  0  0
   56.9250   30.8690   43.7010 C   0  0  0  0  0  0  0  0  0  0  0  0
   57.4900   32.1460   43.7580 C   0  0  0  0  0  0  0  0  0  0  0  0
   61.1154   33.6356   47.8026 H   0  0  0  0  0  0  0  0  0  0  0  0
   60.9567   32.6769   46.2919 H   0  0  0  0  0  0  0  0  0  0  0  0
   61.9044   34.2028   46.2919 H   0  0  0  0  0  0  0  0  0  0  0  0
   58.6790   34.4860   44.0590 H   0  0  0  0  0  0  0  0  0  0  0  0
   58.9056   31.9824   46.8653 H   0  0  0  0  0  0  0  0  0  0  0  0
   57.8877   29.7129   46.7693 H   0  0  0  0  0  0  0  0  0  0  0  0
   55.6530   28.5140   44.1380 H   0  0  0  0  0  0  0  0  0  0  0  0
   59.0718   28.0375   44.9435 H   0  0  0  0  0  0  0  0  0  0  0  0
   60.0471   26.0666   46.1199 H   0  0  0  0  0  0  0  0  0  0  0  0
   58.5518   24.4243   47.2609 H   0  0  0  0  0  0  0  0  0  0  0  0
   56.0764   24.7401   47.2048 H   0  0  0  0  0  0  0  0  0  0  0  0
   56.3568   30.5613   42.8108 H   0  0  0  0  0  0  0  0  0  0  0  0
   57.3714   32.8318   42.9062 H   0  0  0  0  0  0  0  0  0  0  0  0
  1  2  1  0
  2  3  2  0
  2  4  2  0
  2  5  1  0
  5  6  1  0
  6  7  2  0
  7  8  1  0
  8  9  2  0
  9 10  1  0
 10 11  1  0
 11 12  2  0
 12 13  1  0
 13 14  2  0
 14 15  1  0
 15 16  2  0
 16 17  1  0
  9 18  1  0
 18 19  2  0
 19  6  1  0
 16 11  1  0
  1 20  1  0
  1 21  1  0
  1 22  1  0
  5 23  1  0
  7 24  1  0
  8 25  1  0
 10 26  1  0
 12 27  1  0
 13 28  1  0
 14 29  1  0
 15 30  1  0
 18 31  1  0
 19 32  1  0
M  CHG  1  17  -1
M  END
>  <UniqueID>  (38) 
36

>  <SMILES>  (38) 
CS(=O)(=O)Nc1ccc(Nc2ccccc2[O-])cc1

>  <Energy>  (38) 
38.07888451224581

>  <Genealogy>  (38) 
CS(=O)(=O)Nc1ccc(Nc2ccccc2[O-])cc1 (protonated)
CS(=O)(=O)Nc1ccc(Nc2ccccc2[O-])cc1 (3D coordinates assigned)
CS(=O)(=O)Nc1ccc(Nc2ccccc2[O-])cc1 (optimized conformer: 38.07888451224581 kcal/mol)

>  <smiles>  (38) 
CS(=O)(=O)Nc1ccc(Nc2ccccc2O)cc1

>  <score_type>  (38) 
oracle

>  <origin>  (38) 
adg

>  <m_score__min__energy>  (38) 
-11.24

>  <m_primary>  (38) 
energy

$$$$
38:0
     RDKit          3D

 30 31  0  0  0  0  0  0  0  0999 V2000
   60.4550   27.0680   46.0960 C   0  0  0  0  0  0  0  0  0  0  0  0
   59.1230   27.6230   45.8750 N   0  0  0  0  0  0  0  0  0  0  0  0
   59.0390   28.9050   45.4640 C   0  0  0  0  0  0  0  0  0  0  0  0
   58.1460   25.6750   46.4580 O   0  0  0  0  0  0  0  0  0  0  0  0
   56.7980   27.3880   45.8680 N   0  0  0  0  0  0  0  0  0  0  0  0
   56.6490   28.6750   45.4540 C   0  0  0  0  0  0  0  0  0  0  0  0
   55.3960   29.2190   45.2390 O   0  0  0  0  0  0  0  0  0  0  0  0
   57.7770   29.4680   45.2410 C   0  0  0  0  0  0  0  0  0  0  0  0
   57.6790   31.1210   44.7140 S   0  0  0  0  0  0  0  0  0  0  0  0
   56.2670   31.5620   44.4650 O   0  0  0  0  0  0  0  0  0  0  0  0
   58.3950   31.2750   43.3890 O   0  0  0  0  0  0  0  0  0  0  0  0
   58.3680   32.2490   45.8620 C   0  0  0  0  0  0  0  0  0  0  0  0
   58.4880   31.8630   47.2010 C   0  0  0  0  0  0  0  0  0  0  0  0
   59.0370   32.7540   48.1260 C   0  0  0  0  0  0  0  0  0  0  0  0
   59.4670   34.0130   47.7580 C   0  0  0  0  0  0  0  0  0  0  0  0
   59.9920   34.8400   48.6900 F   0  0  0  0  0  0  0  0  0  0  0  0
   59.3450   34.3940   46.4220 C   0  0  0  0  0  0  0  0  0  0  0  0
   58.8000   33.5180   45.4830 C   0  0  0  0  0  0  0  0  0  0  0  0
   58.0130   26.8620   46.0770 C   0  0  0  0  0  0  0  0  0  0  0  0
   60.0950   29.6340   45.2700 N   0  0  0  0  0  0  0  0  0  0  0  0
   60.6446   26.9890   47.1766 H   0  0  0  0  0  0  0  0  0  0  0  0
   60.5166   26.0693   45.6389 H   0  0  0  0  0  0  0  0  0  0  0  0
   61.2075   27.7275   45.6389 H   0  0  0  0  0  0  0  0  0  0  0  0
   55.9180   26.8420   46.0100 H   0  0  0  0  0  0  0  0  0  0  0  0
   55.1290   30.1010   45.6210 H   0  0  0  0  0  0  0  0  0  0  0  0
   58.1528   30.8660   47.5229 H   0  0  0  0  0  0  0  0  0  0  0  0
   59.1293   32.4437   49.1773 H   0  0  0  0  0  0  0  0  0  0  0  0
   59.6810   35.3927   46.1063 H   0  0  0  0  0  0  0  0  0  0  0  0
   58.7105   33.8325   44.4327 H   0  0  0  0  0  0  0  0  0  0  0  0
   60.0320   30.3710   44.5350 H   0  0  0  0  0  0  0  0  0  0  0  0
  1  2  1  0
  2  3  1  0
  3  4  2  0
  3  5  1  0
  5  6  1  0
  6  7  1  0
  6  8  2  0
  8  9  1  0
  9 10  2  0
  9 11  2  0
  9 12  1  0
 12 13  2  0
 13 14  1  0
 14 15  2  0
 15 16  1  0
 15 17  1  0
 17 18  2  0
  8 19  1  0
 19 20  2  3
 19  2  1  0
 18 12  1  0
  1 21  1  0
  1 22  1  0
  1 23  1  0
  5 24  1  0
  7 25  1  0
 13 26  1  0
 14 27  1  0
 17 28  1  0
 18 29  1  0
 20 30  1  0
M  END
>  <smiles>  (39) 
Cn1c(=O)[nH]c(O)c(S(=O)(=O)c2ccc(F)cc2)c1=N

>  <score_type>  (39) 
oracle

>  <origin>  (39) 
adg

>  <m_score__min__energy>  (39) 
-6.9900000000000002

>  <m_primary>  (39) 
energy

$$$$
39:0
     RDKit          3D

 31 33  0  0  0  0  0  0  0  0999 V2000
   61.3050   26.7611   45.8850 H   0  0  0  0  0  0  0  0  0  0  0  0
   60.3450   27.2550   45.6740 C   0  0  0  0  0  0  0  0  0  0  0  0
   59.1550   26.6940   46.1430 C   0  0  0  0  0  0  0  0  0  0  0  0
   59.1846   25.7601   46.7235 H   0  0  0  0  0  0  0  0  0  0  0  0
   57.9190   27.3120   45.8800 C   0  0  0  0  0  0  0  0  0  0  0  0
   56.6630   26.6380   46.3700 C   0  0  0  0  0  0  0  0  0  0  0  0
   56.6545   26.6335   47.4700 H   0  0  0  0  0  0  0  0  0  0  0  0
   55.7842   27.1857   45.9988 H   0  0  0  0  0  0  0  0  0  0  0  0
   56.6336   25.6029   45.9988 H   0  0  0  0  0  0  0  0  0  0  0  0
   57.8910   28.5370   45.1600 C   0  0  0  0  0  0  0  0  0  0  0  0
   56.6350   29.2780   44.8850 C   0  0  0  0  0  0  0  0  0  0  0  0
   55.5400   28.6510   44.8730 O   0  0  0  0  0  0  0  0  0  0  0  0
   56.6850   30.6660   44.5220 N   0  0  0  0  0  0  0  0  0  0  0  0
   57.4160   31.6050   45.0490 C   0  0  0  0  0  0  0  0  0  0  0  0
   58.1200   31.4590   46.5800 S   0  0  0  0  0  0  0  0  0  0  0  0
   58.7870   32.9990   46.5010 C   0  0  0  0  0  0  0  0  0  0  0  0
   59.5650   33.6590   47.4490 C   0  0  0  0  0  0  0  0  0  0  0  0
   59.8324   33.1733   48.3991 H   0  0  0  0  0  0  0  0  0  0  0  0
   59.9980   34.9620   47.1570 C   0  0  0  0  0  0  0  0  0  0  0  0
   60.6147   35.5095   47.8849 H   0  0  0  0  0  0  0  0  0  0  0  0
   59.6470   35.5720   45.9370 C   0  0  0  0  0  0  0  0  0  0  0  0
   59.9922   36.5934   45.7187 H   0  0  0  0  0  0  0  0  0  0  0  0
   58.8600   34.8870   44.9970 C   0  0  0  0  0  0  0  0  0  0  0  0
   58.5818   35.3630   44.0451 H   0  0  0  0  0  0  0  0  0  0  0  0
   58.4370   33.5880   45.2950 C   0  0  0  0  0  0  0  0  0  0  0  0
   57.6680   32.8170   44.4830 N   0  0  0  0  0  0  0  0  0  0  0  0
   57.3030   33.1550   43.5670 H   0  0  0  0  0  0  0  0  0  0  0  0
   59.1030   29.0750   44.6830 C   0  0  0  0  0  0  0  0  0  0  0  0
   59.0911   30.0083   44.1010 H   0  0  0  0  0  0  0  0  0  0  0  0
   60.3190   28.4380   44.9400 C   0  0  0  0  0  0  0  0  0  0  0  0
   61.4750   28.9760   44.4820 F   0  0  0  0  0  0  0  0  0  0  0  0
  1  2  1  0
  2  3  2  0
  3  4  1  0
  3  5  1  0
  5  6  1  0
  6  7  1  0
  6  8  1  0
  6  9  1  0
  5 10  2  0
 10 11  1  0
 11 12  2  0
 11 13  1  0
 13 14  2  0
 14 15  1  0
 15 16  1  0
 16 17  2  0
 17 18  1  0
 17 19  1  0
 19 20  1  0
 19 21  2  0
 21 22  1  0
 21 23  1  0
 23 24  1  0
 23 25  2  0
 25 26  1  0
 26 27  1  0
 10 28  1  0
 28 29  1  0
 28 30  2  0
 30 31  1  0
 30  2  1  0
 26 14  1  0
 25 16  1  0
M  END
>  <UniqueID>  (40) 
37

>  <SMILES>  (40) 
Cc1ccc(F)cc1C(=O)/N=c1\[nH]c2ccccc2s1

>  <Energy>  (40) 
78.10598429549235

>  <Genealogy>  (40) 
Cc1ccc(F)cc1C(=O)/N=c1\[nH]c2ccccc2s1 (cis-trans isomerization)
Cc1ccc(F)cc1C(=O)/N=c1\[nH]c2ccccc2s1 (3D coordinates assigned)
Cc1ccc(F)cc1C(=O)/N=c1\[nH]c2ccccc2s1 (optimized conformer: 78.10598429549235 kcal/mol)

>  <smiles>  (40) 
Cc1ccc(F)cc1C(=O)N=c1[nH]c2ccccc2s1

>  <score_type>  (40) 
oracle

>  <origin>  (40) 
adg

>  <m_score__min__energy>  (40) 
-7.54

>  <m_primary>  (40) 
energy

$$$$
40:0
     RDKit          3D

 45 47  0  0  0  0  0  0  0  0999 V2000
   58.4223   31.8323   42.1762 H   0  0  0  0  0  0  0  0  0  0  0  0
   57.9780   31.8870   43.1810 C   0  0  0  0  0  0  0  0  0  0  0  0
   57.7730   33.0910   43.7310 C   0  0  0  0  0  0  0  0  0  0  0  0
   57.1936   33.8306   43.1590 H   0  0  0  0  0  0  0  0  0  0  0  0
   58.2830   33.4840   45.0680 C   0  0  0  0  0  0  0  0  0  0  0  0
   59.2390   34.5040   45.2440 C   0  0  0  0  0  0  0  0  0  0  0  0
   59.6391   35.0358   44.3681 H   0  0  0  0  0  0  0  0  0  0  0  0
   59.6820   34.8440   46.5260 C   0  0  0  0  0  0  0  0  0  0  0  0
   60.4340   35.6370   46.6512 H   0  0  0  0  0  0  0  0  0  0  0  0
   59.1750   34.1820   47.6530 C   0  0  0  0  0  0  0  0  0  0  0  0
   59.6690   34.5320   49.0390 C   0  0  0  0  0  0  0  0  0  0  0  0
   58.8795   35.0857   49.5683 H   0  0  0  0  0  0  0  0  0  0  0  0
   60.5785   35.1415   48.9323 H   0  0  0  0  0  0  0  0  0  0  0  0
   60.0170   33.3210   49.8270 N   0  0  1  0  0  0  0  0  0  0  0  0
   59.2260   32.6400   49.7270 H   0  0  0  0  0  0  0  0  0  0  0  0
   61.2390   32.6700   49.2890 C   0  0  0  0  0  0  0  0  0  0  0  0
   61.7330   33.3648   48.5939 H   0  0  0  0  0  0  0  0  0  0  0  0
   61.8904   32.4219   50.1399 H   0  0  0  0  0  0  0  0  0  0  0  0
   60.9310   31.3940   48.5590 C   0  0  0  0  0  0  0  0  0  0  0  0
   60.2690   30.0100   49.2530 S   0  0  0  0  0  0  0  0  0  0  0  0
   60.2170   29.1230   47.8270 C   0  0  0  0  0  0  0  0  0  0  0  0
   59.6230   27.4820   47.6840 Cl  0  0  0  0  0  0  0  0  0  0  0  0
   60.7140   29.8970   46.7880 C   0  0  0  0  0  0  0  0  0  0  0  0
   60.7862   29.5433   45.7489 H   0  0  0  0  0  0  0  0  0  0  0  0
   61.1140   31.1740   47.1980 C   0  0  0  0  0  0  0  0  0  0  0  0
   61.5308   31.9272   46.5132 H   0  0  0  0  0  0  0  0  0  0  0  0
   60.1040   33.6300   51.2800 C   0  0  0  0  0  0  0  0  0  0  0  0
   60.4774   34.6589   51.3897 H   0  0  0  0  0  0  0  0  0  0  0  0
   60.7754   32.8768   51.7181 H   0  0  0  0  0  0  0  0  0  0  0  0
   58.7730   33.5200   52.0410 C   0  0  0  0  0  0  0  0  0  0  0  0
   58.9672   33.5361   53.1236 H   0  0  0  0  0  0  0  0  0  0  0  0
   58.1257   34.3677   51.7720 H   0  0  0  0  0  0  0  0  0  0  0  0
   58.2736   32.5775   51.7720 H   0  0  0  0  0  0  0  0  0  0  0  0
   58.2130   33.1760   47.4810 C   0  0  0  0  0  0  0  0  0  0  0  0
   57.8074   32.6516   48.3588 H   0  0  0  0  0  0  0  0  0  0  0  0
   57.7670   32.8360   46.2020 C   0  0  0  0  0  0  0  0  0  0  0  0
   57.0040   32.0529   46.0817 H   0  0  0  0  0  0  0  0  0  0  0  0
   57.6300   30.6320   43.8730 C   0  0  0  0  0  0  0  0  0  0  0  0
   56.0810   30.0290   44.1630 S   0  0  0  0  0  0  0  0  0  0  0  0
   56.5720   28.6300   44.9570 C   0  0  0  0  0  0  0  0  0  0  0  0
   55.9077   27.8558   45.3685 H   0  0  0  0  0  0  0  0  0  0  0  0
   57.9600   28.6200   45.0040 C   0  0  0  0  0  0  0  0  0  0  0  0
   58.5404   27.8115   45.4724 H   0  0  0  0  0  0  0  0  0  0  0  0
   58.5510   29.7360   44.3990 C   0  0  0  0  0  0  0  0  0  0  0  0
   59.6391   29.8880   44.3456 H   0  0  0  0  0  0  0  0  0  0  0  0
  1  2  1  0
  2  3  2  0
  3  4  1  0
  3  5  1  0
  5  6  2  0
  6  7  1  0
  6  8  1  0
  8  9  1  0
  8 10  2  0
 10 11  1  0
 11 12  1  0
 11 13  1  0
 11 14  1  0
 14 15  1  1
 14 16  1  0
 16 17  1  0
 16 18  1  0
 16 19  1  0
 19 20  1  0
 20 21  1  0
 21 22  1  0
 21 23  2  0
 23 24  1  0
 23 25  1  0
 25 26  1  0
 14 27  1  0
 27 28  1  0
 27 29  1  0
 27 30  1  0
 30 31  1  0
 30 32  1  0
 30 33  1  0
 10 34  1  0
 34 35  1  0
 34 36  2  0
 36 37  1  0
  2 38  1  0
 38 39  1  0
 39 40  1  0
 40 41  1  0
 40 42  2  0
 42 43  1  0
 42 44  1  0
 44 45  1  0
 36  5  1  0
 44 38  2  0
 25 19  2  0
M  CHG  1  14   1
M  END
>  <UniqueID>  (41) 
38

>  <SMILES>  (41) 
CC[N@@H+](Cc1ccc(/C=C/c2cccs2)cc1)Cc1ccc(Cl)s1

>  <Energy>  (41) 
103.65255994341244

>  <Genealogy>  (41) 
CC[NH+](Cc1ccc(C=Cc2cccs2)cc1)Cc1ccc(Cl)s1 (protonated)
CC[N@@H+](Cc1ccc(C=Cc2cccs2)cc1)Cc1ccc(Cl)s1 (chirality)
CC[N@@H+](Cc1ccc(/C=C/c2cccs2)cc1)Cc1ccc(Cl)s1 (cis-trans isomerization)
CC[N@@H+](Cc1ccc(/C=C/c2cccs2)cc1)Cc1ccc(Cl)s1 (3D coordinates assigned)
CC[N@@H+](Cc1ccc(/C=C/c2cccs2)cc1)Cc1ccc(Cl)s1 (optimized conformer: 103.65255994341244 kcal/mol)

>  <smiles>  (41) 
CCN(Cc1ccc(C=Cc2cccs2)cc1)Cc1ccc(Cl)s1

>  <score_type>  (41) 
oracle

>  <origin>  (41) 
adg

>  <m_score__min__energy>  (41) 
-6.25

>  <m_primary>  (41) 
energy

$$$$
41:0
     RDKit          3D

 45 47  0  0  0  0  0  0  0  0999 V2000
   60.9560   30.8740   47.1170 C   0  0  0  0  0  0  0  0  0  0  0  0
   60.4880   32.1810   47.4310 O   0  0  0  0  0  0  0  0  0  0  0  0
   59.6920   32.9650   46.5810 C   0  0  0  0  0  0  0  0  0  0  0  0
   60.0940   34.2420   46.1440 C   0  0  0  0  0  0  0  0  0  0  0  0
   59.2780   34.9810   45.2840 C   0  0  0  0  0  0  0  0  0  0  0  0
   58.0530   34.4620   44.8610 C   0  0  0  0  0  0  0  0  0  0  0  0
   57.6410   33.2010   45.2950 C   0  0  0  0  0  0  0  0  0  0  0  0
   58.4570   32.4500   46.1490 C   0  0  0  0  0  0  0  0  0  0  0  0
   58.0480   31.1400   46.5410 N   0  0  0  0  0  0  0  0  0  0  0  0
   57.6960   29.9340   45.3510 S   0  0  0  0  0  0  0  0  0  0  0  0
   58.6450   30.0770   44.1940 O   0  0  0  0  0  0  0  0  0  0  0  0
   56.2900   30.1220   44.8540 O   0  0  0  0  0  0  0  0  0  0  0  0
   57.8600   28.3280   46.0600 C   0  0  0  0  0  0  0  0  0  0  0  0
   58.8350   28.0760   47.0340 C   0  0  0  0  0  0  0  0  0  0  0  0
   59.0020   26.7860   47.5410 C   0  0  0  0  0  0  0  0  0  0  0  0
   58.1910   25.7420   47.0870 C   0  0  0  0  0  0  0  0  0  0  0  0
   57.1960   25.9880   46.1240 C   0  0  0  0  0  0  0  0  0  0  0  0
   56.3630   24.9390   45.6120 N   0  0  0  0  0  0  0  0  0  0  0  0
   54.9300   24.9370   45.5970 C   0  0  0  0  0  0  0  0  0  0  0  0
   54.2800   25.9570   45.9520 O   0  0  0  0  0  0  0  0  0  0  0  0
   54.1990   23.7200   45.1310 C   0  0  0  0  0  0  0  0  0  0  0  0
   54.6990   22.2630   46.1090 S   0  0  0  0  0  0  0  0  0  0  0  0
   56.1990   21.9690   45.1740 C   0  0  0  0  0  0  0  0  0  0  0  0
   57.4090   22.0580   45.7860 N   0  0  0  0  0  0  0  0  0  0  0  0
   58.5580   21.8420   45.0940 C   0  0  0  0  0  0  0  0  0  0  0  0
   58.5030   21.5290   43.7370 C   0  0  0  0  0  0  0  0  0  0  0  0
   57.2530   21.4370   43.1250 C   0  0  0  0  0  0  0  0  0  0  0  0
   56.1270   21.6610   43.8520 N   0  0  0  0  0  0  0  0  0  0  0  0
   57.0540   27.2780   45.5990 C   0  0  0  0  0  0  0  0  0  0  0  0
   61.1537   30.3219   48.0477 H   0  0  0  0  0  0  0  0  0  0  0  0
   60.1924   30.3422   46.5303 H   0  0  0  0  0  0  0  0  0  0  0  0
   61.8836   30.9478   46.5303 H   0  0  0  0  0  0  0  0  0  0  0  0
   61.0543   34.6592   46.4812 H   0  0  0  0  0  0  0  0  0  0  0  0
   59.6015   35.9742   44.9393 H   0  0  0  0  0  0  0  0  0  0  0  0
   57.4120   35.0472   44.1852 H   0  0  0  0  0  0  0  0  0  0  0  0
   56.6727   32.7965   44.9651 H   0  0  0  0  0  0  0  0  0  0  0  0
   59.4702   28.8961   47.4000 H   0  0  0  0  0  0  0  0  0  0  0  0
   59.7740   26.5906   48.2999 H   0  0  0  0  0  0  0  0  0  0  0  0
   58.3313   24.7257   47.4838 H   0  0  0  0  0  0  0  0  0  0  0  0
   53.1170   23.8805   45.2474 H   0  0  0  0  0  0  0  0  0  0  0  0
   54.4433   23.5405   44.0736 H   0  0  0  0  0  0  0  0  0  0  0  0
   59.5300   21.9140   45.6038 H   0  0  0  0  0  0  0  0  0  0  0  0
   59.4248   21.3583   43.1615 H   0  0  0  0  0  0  0  0  0  0  0  0
   57.1789   21.1839   42.0571 H   0  0  0  0  0  0  0  0  0  0  0  0
   56.3034   27.4692   44.8179 H   0  0  0  0  0  0  0  0  0  0  0  0
  1  2  1  0
  2  3  1  0
  3  4  2  0
  4  5  1  0
  5  6  2  0
  6  7  1  0
  7  8  2  0
  8  9  1  0
  9 10  1  0
 10 11  2  0
 10 12  2  0
 10 13  1  0
 13 14  2  0
 14 15  1  0
 15 16  2  0
 16 17  1  0
 17 18  1  0
 18 19  1  0
 19 20  2  0
 19 21  1  0
 21 22  1  0
 22 23  1  0
 23 24  2  0
 24 25  1  0
 25 26  2  0
 26 27  1  0
 27 28  2  0
 17 29  2  0
  8  3  1  0
 29 13  1  0
 28 23  1  0
  1 30  1  0
  1 31  1  0
  1 32  1  0
  4 33  1  0
  5 34  1  0
  6 35  1  0
  7 36  1  0
 14 37  1  0
 15 38  1  0
 16 39  1  0
 21 40  1  0
 21 41  1  0
 25 42  1  0
 26 43  1  0
 27 44  1  0
 29 45  1  0
M  CHG  2   9  -1  18  -1
M  END
>  <UniqueID>  (42) 
39

>  <SMILES>  (42) 
COc1ccccc1[N-]S(=O)(=O)c1cccc([N-]C(=O)CSc2ncccn2)c1

>  <Energy>  (42) 
51.241769154754124

>  <Genealogy>  (42) 
COc1ccccc1[N-]S(=O)(=O)c1cccc([N-]C(=O)CSc2ncccn2)c1 (protonated)
COc1ccccc1[N-]S(=O)(=O)c1cccc([N-]C(=O)CSc2ncccn2)c1 (3D coordinates assigned)
COc1ccccc1[N-]S(=O)(=O)c1cccc([N-]C(=O)CSc2ncccn2)c1 (optimized conformer: 51.241769154754124 kcal/mol)

>  <smiles>  (42) 
COc1ccccc1NS(=O)(=O)c1cccc(NC(=O)CSc2ncccn2)c1

>  <score_type>  (42) 
oracle

>  <origin>  (42) 
adg

>  <m_score__min__energy>  (42) 
-11.390000000000001

>  <m_primary>  (42) 
energy

$$$$
42:0
     RDKit          3D

 24 26  0  0  0  0  0  0  0  0999 V2000
   55.1610   29.0130   44.9160 O   0  0  0  0  0  0  0  0  0  0  0  0
   56.4990   29.3580   44.7400 C   0  0  0  0  0  0  0  0  0  0  0  0
   56.7770   30.5780   44.1050 C   0  0  0  0  0  0  0  0  0  0  0  0
   58.0810   31.0490   44.0040 C   0  0  0  0  0  0  0  0  0  0  0  0
   59.1260   30.3240   44.5590 C   0  0  0  0  0  0  0  0  0  0  0  0
   58.8840   29.0920   45.1860 C   0  0  0  0  0  0  0  0  0  0  0  0
   59.9580   28.4200   45.7800 C   0  0  0  0  0  0  0  0  0  0  0  0
   59.7630   27.2090   46.4260 C   0  0  0  0  0  0  0  0  0  0  0  0
   58.5070   26.6100   46.4360 C   0  0  0  0  0  0  0  0  0  0  0  0
   58.3700   25.3940   47.0310 N   0  0  0  0  0  0  0  0  0  0  0  0
   57.1970   24.7160   47.0290 C   0  0  0  0  0  0  0  0  0  0  0  0
   56.0950   25.2460   46.3690 C   0  0  0  0  0  0  0  0  0  0  0  0
   56.1940   26.4900   45.7470 C   0  0  0  0  0  0  0  0  0  0  0  0
   57.3950   27.2390   45.8070 C   0  0  0  0  0  0  0  0  0  0  0  0
   57.5660   28.5450   45.2340 C   0  0  0  0  0  0  0  0  0  0  0  0
   54.7580   28.1860   44.4910 H   0  0  0  0  0  0  0  0  0  0  0  0
   55.9520   31.1696   43.6814 H   0  0  0  0  0  0  0  0  0  0  0  0
   58.2846   31.9967   43.4840 H   0  0  0  0  0  0  0  0  0  0  0  0
   60.1517   30.7179   44.5071 H   0  0  0  0  0  0  0  0  0  0  0  0
   60.9665   28.8567   45.7339 H   0  0  0  0  0  0  0  0  0  0  0  0
   60.6065   26.7185   46.9339 H   0  0  0  0  0  0  0  0  0  0  0  0
   57.1173   23.7494   47.5480 H   0  0  0  0  0  0  0  0  0  0  0  0
   55.1485   24.6865   46.3374 H   0  0  0  0  0  0  0  0  0  0  0  0
   55.3283   26.8951   45.2026 H   0  0  0  0  0  0  0  0  0  0  0  0
  1  2  1  0
  2  3  2  0
  3  4  1  0
  4  5  2  0
  5  6  1  0
  6  7  2  0
  7  8  1  0
  8  9  2  0
  9 10  1  0
 10 11  2  0
 11 12  1  0
 12 13  2  0
 13 14  1  0
 14 15  2  0
 15  2  1  0
 15  6  1  0
 14  9  1  0
  1 16  1  0
  3 17  1  0
  4 18  1  0
  5 19  1  0
  7 20  1  0
  8 21  1  0
 11 22  1  0
 12 23  1  0
 13 24  1  0
M  END
>  <UniqueID>  (43) 
40

>  <SMILES>  (43) 
Oc1cccc2ccc3ncccc3c12

>  <Energy>  (43) 
43.9946237093709

>  <Genealogy>  (43) 
Oc1cccc2ccc3ncccc3c12 (3D coordinates assigned)
Oc1cccc2ccc3ncccc3c12 (optimized conformer: 43.9946237093709 kcal/mol)

>  <smiles>  (43) 
Oc1cccc2ccc3ncccc3c12

>  <score_type>  (43) 
oracle

>  <origin>  (43) 
adg

>  <m_score__min__energy>  (43) 
-7.0899999999999999

>  <m_primary>  (43) 
energy

$$$$
43:0
     RDKit          3D

 58 62  0  0  0  0  0  0  0  0999 V2000
   54.7840   29.3380   44.4840 O   0  0  0  0  0  0  0  0  0  0  0  0
   55.9990   29.4870   44.7800 C   0  0  0  0  0  0  0  0  0  0  0  0
   56.6220   28.5270   45.5710 O   0  0  0  0  0  0  0  0  0  0  0  0
   56.7500   30.6680   44.3040 C   0  0  0  0  0  0  0  0  0  0  0  0
   56.9890   30.8500   42.9300 C   0  0  0  0  0  0  0  0  0  0  0  0
   57.7100   31.9590   42.4790 C   0  0  0  0  0  0  0  0  0  0  0  0
   58.1940   32.9010   43.3880 C   0  0  0  0  0  0  0  0  0  0  0  0
   57.9490   32.7440   44.7640 C   0  0  0  0  0  0  0  0  0  0  0  0
   58.4590   33.6720   45.7330 N   0  0  0  0  0  0  0  0  0  0  0  0
   59.1260   33.3370   46.9590 C   0  0  0  0  0  0  0  0  0  0  0  0
   59.5020   34.2540   47.7380 O   0  0  0  0  0  0  0  0  0  0  0  0
   59.3340   31.9110   47.3200 C   0  0  0  0  0  0  0  0  0  0  0  0
   59.7880   31.0120   46.3380 C   0  0  0  0  0  0  0  0  0  0  0  0
   60.0090   29.6620   46.6430 C   0  0  0  0  0  0  0  0  0  0  0  0
   60.4630   28.7710   45.6580 C   0  0  0  0  0  0  0  0  0  0  0  0
   60.6750   27.4250   45.9720 C   0  0  0  0  0  0  0  0  0  0  0  0
   60.4370   26.9610   47.2680 C   0  0  0  0  0  0  0  0  0  0  0  0
   59.9840   27.8390   48.2570 C   0  0  0  0  0  0  0  0  0  0  0  0
   59.7690   29.1930   47.9530 C   0  0  0  0  0  0  0  0  0  0  0  0
   59.3100   30.0810   48.9340 C   0  0  0  0  0  0  0  0  0  0  0  0
   59.1000   31.4390   48.6340 C   0  0  0  0  0  0  0  0  0  0  0  0
   58.5970   32.3160   49.6090 O   0  0  0  0  0  0  0  0  0  0  0  0
   59.2710   32.7110   50.7750 C   0  0  0  0  0  0  0  0  0  0  0  0
   58.7460   33.6830   51.6430 C   0  0  0  0  0  0  0  0  0  0  0  0
   59.4440   34.0430   52.7990 C   0  0  0  0  0  0  0  0  0  0  0  0
   60.6640   33.4320   53.1010 C   0  0  0  0  0  0  0  0  0  0  0  0
   61.1900   32.4430   52.2510 C   0  0  0  0  0  0  0  0  0  0  0  0
   62.4350   31.7870   52.5210 N   0  0  0  0  0  0  0  0  0  0  0  0
   63.6190   31.3560   51.3300 S   0  0  0  0  0  0  0  0  0  0  0  0
   64.9770   31.7900   51.8090 O   0  0  0  0  0  0  0  0  0  0  0  0
   63.6070   29.8710   51.1030 O   0  0  0  0  0  0  0  0  0  0  0  0
   63.2360   32.1700   49.8180 C   0  0  0  0  0  0  0  0  0  0  0  0
   63.0100   31.4180   48.6560 C   0  0  0  0  0  0  0  0  0  0  0  0
   62.7170   32.0600   47.4490 C   0  0  0  0  0  0  0  0  0  0  0  0
   62.6490   33.4560   47.3960 C   0  0  0  0  0  0  0  0  0  0  0  0
   62.8800   34.2110   48.5500 C   0  0  0  0  0  0  0  0  0  0  0  0
   63.1760   33.5710   49.7590 C   0  0  0  0  0  0  0  0  0  0  0  0
   60.4810   32.0850   51.0970 C   0  0  0  0  0  0  0  0  0  0  0  0
   57.2470   31.6180   45.2140 C   0  0  0  0  0  0  0  0  0  0  0  0
   56.6063   30.1153   42.2063 H   0  0  0  0  0  0  0  0  0  0  0  0
   57.8968   32.0900   41.4029 H   0  0  0  0  0  0  0  0  0  0  0  0
   58.7679   33.7675   43.0277 H   0  0  0  0  0  0  0  0  0  0  0  0
   59.9723   31.3738   45.3157 H   0  0  0  0  0  0  0  0  0  0  0  0
   60.6525   29.1325   44.6365 H   0  0  0  0  0  0  0  0  0  0  0  0
   61.0300   26.7300   45.1968 H   0  0  0  0  0  0  0  0  0  0  0  0
   60.6065   25.9017   47.5110 H   0  0  0  0  0  0  0  0  0  0  0  0
   59.7956   27.4685   49.2754 H   0  0  0  0  0  0  0  0  0  0  0  0
   59.1114   29.7120   49.9511 H   0  0  0  0  0  0  0  0  0  0  0  0
   57.7830   34.1619   51.4121 H   0  0  0  0  0  0  0  0  0  0  0  0
   59.0322   34.8089   53.4726 H   0  0  0  0  0  0  0  0  0  0  0  0
   61.2147   33.7257   54.0068 H   0  0  0  0  0  0  0  0  0  0  0  0
   63.0634   30.3200   48.6943 H   0  0  0  0  0  0  0  0  0  0  0  0
   62.5397   31.4665   46.5400 H   0  0  0  0  0  0  0  0  0  0  0  0
   62.4139   33.9598   46.4468 H   0  0  0  0  0  0  0  0  0  0  0  0
   62.8290   35.3090   48.5076 H   0  0  0  0  0  0  0  0  0  0  0  0
   63.3619   34.1671   50.6646 H   0  0  0  0  0  0  0  0  0  0  0  0
   60.8802   31.3020   50.4355 H   0  0  0  0  0  0  0  0  0  0  0  0
   57.0826   31.4754   46.2923 H   0  0  0  0  0  0  0  0  0  0  0  0
  1  2  2  0
  2  3  1  0
  2  4  1  0
  4  5  2  0
  5  6  1  0
  6  7  2  0
  7  8  1  0
  8  9  1  0
  9 10  1  0
 10 11  2  0
 10 12  1  0
 12 13  2  0
 13 14  1  0
 14 15  2  0
 15 16  1  0
 16 17  2  0
 17 18  1  0
 18 19  2  0
 19 20  1  0
 20 21  2  0
 21 22  1  0
 22 23  1  0
 23 24  2  0
 24 25  1  0
 25 26  2  0
 26 27  1  0
 27 28  1  0
 28 29  1  0
 29 30  2  0
 29 31  2  0
 29 32  1  0
 32 33  2  0
 33 34  1  0
 34 35  2  0
 35 36  1  0
 36 37  2  0
 27 38  2  0
  8 39  2  0
 39  4  1  0
 21 12  1  0
 38 23  1  0
 19 14  1  0
 37 32  1  0
  5 40  1  0
  6 41  1  0
  7 42  1  0
 13 43  1  0
 15 44  1  0
 16 45  1  0
 17 46  1  0
 18 47  1  0
 20 48  1  0
 24 49  1  0
 25 50  1  0
 26 51  1  0
 33 52  1  0
 34 53  1  0
 35 54  1  0
 36 55  1  0
 37 56  1  0
 38 57  1  0
 39 58  1  0
M  CHG  3   3  -1   9  -1  28  -1
M  END
>  <UniqueID>  (44) 
41

>  <SMILES>  (44) 
O=C([O-])c1cccc([N-]C(=O)c2cc3ccccc3cc2Oc2cccc([N-]S(=O)(=O)c3ccccc3)c2)c1

>  <Energy>  (44) 
85.79544424706405

>  <Genealogy>  (44) 
O=C([O-])c1cccc([N-]C(=O)c2cc3ccccc3cc2Oc2cccc([N-]S(=O)(=O)c3ccccc3)c2)c1 (protonated)
O=C([O-])c1cccc([N-]C(=O)c2cc3ccccc3cc2Oc2cccc([N-]S(=O)(=O)c3ccccc3)c2)c1 (3D coordinates assigned)
O=C([O-])c1cccc([N-]C(=O)c2cc3ccccc3cc2Oc2cccc([N-]S(=O)(=O)c3ccccc3)c2)c1 (optimized conformer: 85.79544424706405 kcal/mol)

>  <smiles>  (44) 
O=C(O)c1cccc(NC(=O)c2cc3ccccc3cc2Oc2cccc(NS(=O)(=O)c3ccccc3)c2)c1

>  <score_type>  (44) 
oracle

>  <origin>  (44) 
adg

>  <m_score__min__energy>  (44) 
-17.23

>  <m_primary>  (44) 
energy

$$$$
44:0
     RDKit          3D

 35 37  0  0  0  0  0  0  0  0999 V2000
   58.8180   32.6740   49.1810 C   0  0  0  0  0  0  0  0  0  0  0  0
   58.2630   32.9740   47.9260 O   0  0  0  0  0  0  0  0  0  0  0  0
   59.2110   33.0210   46.8600 C   0  0  1  0  0  0  0  0  0  0  0  0
   60.1960   34.0390   46.8690 C   0  0  0  0  0  0  0  0  0  0  0  0
   61.4690   34.1800   47.2540 C   0  0  0  0  0  0  0  0  0  0  0  0
   62.3640   33.0510   47.8020 C   0  0  0  0  0  0  0  0  0  0  0  0
   62.2450   32.9360   49.3370 C   0  0  0  0  0  0  0  0  0  0  0  0
   63.8240   33.4620   47.4950 C   0  0  0  0  0  0  0  0  0  0  0  0
   62.1370   31.6510   47.1250 C   0  0  0  0  0  0  0  0  0  0  0  0
   60.7280   31.0850   47.1870 C   0  0  0  0  0  0  0  0  0  0  0  0
   60.4630   30.1690   47.9530 O   0  0  0  0  0  0  0  0  0  0  0  0
   59.6690   31.6790   46.2970 C   0  0  1  0  0  0  0  0  0  0  0  0
   58.4320   30.8120   45.9590 C   0  0  0  0  0  0  0  0  0  0  0  0
   57.4120   31.5890   45.1050 C   0  0  0  0  0  0  0  0  0  0  0  0
   56.5160   30.9630   44.5590 O   0  0  0  0  0  0  0  0  0  0  0  0
   57.4520   33.1100   44.9200 C   0  0  0  0  0  0  0  0  0  0  0  0
   58.5310   33.6620   45.7840 C   0  0  0  0  0  0  0  0  0  0  0  0
   59.3160   34.7260   45.9260 N   0  0  0  0  0  0  0  0  0  0  0  0
   58.1477   33.0363   49.9744 H   0  0  0  0  0  0  0  0  0  0  0  0
   58.9434   31.5853   49.2757 H   0  0  0  0  0  0  0  0  0  0  0  0
   59.7975   33.1655   49.2757 H   0  0  0  0  0  0  0  0  0  0  0  0
   61.9134   35.1830   47.1730 H   0  0  0  0  0  0  0  0  0  0  0  0
   62.9582   33.6252   49.8127 H   0  0  0  0  0  0  0  0  0  0  0  0
   61.2219   33.1963   49.6460 H   0  0  0  0  0  0  0  0  0  0  0  0
   62.4701   31.9046   49.6460 H   0  0  0  0  0  0  0  0  0  0  0  0
   64.3680   33.6151   48.4387 H   0  0  0  0  0  0  0  0  0  0  0  0
   64.3143   32.6670   46.9140 H   0  0  0  0  0  0  0  0  0  0  0  0
   63.8275   34.3961   46.9140 H   0  0  0  0  0  0  0  0  0  0  0  0
   62.4125   31.7448   46.0642 H   0  0  0  0  0  0  0  0  0  0  0  0
   62.7575   30.9474   47.6994 H   0  0  0  0  0  0  0  0  0  0  0  0
   60.1848   31.7768   45.3304 H   0  0  0  0  0  0  0  0  0  0  0  0
   58.7608   29.9227   45.4013 H   0  0  0  0  0  0  0  0  0  0  0  0
   57.9441   30.5255   46.9023 H   0  0  0  0  0  0  0  0  0  0  0  0
   57.6602   33.3505   43.8670 H   0  0  0  0  0  0  0  0  0  0  0  0
   56.4831   33.5495   45.1994 H   0  0  0  0  0  0  0  0  0  0  0  0
  1  2  1  0
  3  2  1  1
  3  4  1  0
  4  5  2  0
  5  6  1  0
  6  7  1  0
  6  8  1  0
  6  9  1  0
  9 10  1  0
 10 11  2  0
 10 12  1  0
 12 13  1  0
 13 14  1  0
 14 15  2  0
 14 16  1  0
 16 17  1  0
 17 18  2  0
 12  3  1  0
 17  3  1  0
 18  4  1  0
  1 19  1  0
  1 20  1  0
  1 21  1  0
  5 22  1  0
  7 23  1  0
  7 24  1  0
  7 25  1  0
  8 26  1  0
  8 27  1  0
  8 28  1  0
  9 29  1  0
  9 30  1  0
 12 31  1  6
 13 32  1  0
 13 33  1  0
 16 34  1  0
 16 35  1  0
M  END
>  <UniqueID>  (45) 
42

>  <SMILES>  (45) 
CO[C@@]12C3=CC(C)(C)CC(=O)[C@H]1CC(=O)CC2=N3

>  <Energy>  (45) 
83.21958222944606

>  <Genealogy>  (45) 
CO[C@@]12C3=CC(C)(C)CC(=O)[C@H]1CC(=O)CC2=N3 (chirality)
CO[C@@]12C3=CC(C)(C)CC(=O)[C@H]1CC(=O)CC2=N3 (3D coordinates assigned)
CO[C@@]12C3=CC(C)(C)CC(=O)[C@H]1CC(=O)CC2=N3 (nonaromatic ring conformer: 83.21958222944606 kcal/mol)

>  <smiles>  (45) 
COC12C3=CC(C)(C)CC(=O)C1CC(=O)CC2=N3

>  <score_type>  (45) 
oracle

>  <origin>  (45) 
adg

>  <m_score__min__energy>  (45) 
-5.9199999999999999

>  <m_primary>  (45) 
energy

$$$$
45:0
     RDKit          3D

 43 45  0  0  0  0  0  0  0  0999 V2000
   62.1280   32.1550   47.2610 C   0  0  0  0  0  0  0  0  0  0  0  0
   61.3590   31.2180   48.0090 O   0  0  0  0  0  0  0  0  0  0  0  0
   60.4950   30.2710   47.4390 C   0  0  0  0  0  0  0  0  0  0  0  0
   60.6440   29.9690   46.0800 C   0  0  0  0  0  0  0  0  0  0  0  0
   59.8080   29.0320   45.4640 C   0  0  0  0  0  0  0  0  0  0  0  0
   58.8150   28.3740   46.2060 C   0  0  0  0  0  0  0  0  0  0  0  0
   57.8940   27.3970   45.5370 C   0  0  0  0  0  0  0  0  0  0  0  0
   57.1520   28.0790   44.4840 N   0  0  0  0  0  0  0  0  0  0  0  0
   56.4710   29.3310   44.6410 C   0  0  0  0  0  0  0  0  0  0  0  0
   55.3640   29.3480   45.2400 O   0  0  0  0  0  0  0  0  0  0  0  0
   57.0090   30.5920   44.0930 C   0  0  0  0  0  0  0  0  0  0  0  0
   57.0280   30.8410   42.7090 C   0  0  0  0  0  0  0  0  0  0  0  0
   57.5760   32.0540   42.2360 C   0  0  0  0  0  0  0  0  0  0  0  0
   57.6220   32.3350   40.7680 C   0  0  0  0  0  0  0  0  0  0  0  0
   58.0980   32.9600   43.1140 N   0  0  0  0  0  0  0  0  0  0  0  0
   58.0720   32.6760   44.4390 C   0  0  0  0  0  0  0  0  0  0  0  0
   58.5380   33.4380   45.4840 C   0  0  0  0  0  0  0  0  0  0  0  0
   59.2620   34.7440   45.4230 C   0  0  0  0  0  0  0  0  0  0  0  0
   58.2790   32.6420   46.6000 C   0  0  0  0  0  0  0  0  0  0  0  0
   58.5950   32.9890   48.0190 C   0  0  0  0  0  0  0  0  0  0  0  0
   57.6670   31.4930   46.2260 N   0  0  0  0  0  0  0  0  0  0  0  0
   57.5570   31.5340   44.9070 N   0  0  0  0  0  0  0  0  0  0  0  0
   58.6530   28.6850   47.5640 C   0  0  0  0  0  0  0  0  0  0  0  0
   59.4890   29.6230   48.1800 C   0  0  0  0  0  0  0  0  0  0  0  0
   62.6715   32.8172   47.9510 H   0  0  0  0  0  0  0  0  0  0  0  0
   62.8475   31.6159   46.6272 H   0  0  0  0  0  0  0  0  0  0  0  0
   61.4589   32.7555   46.6272 H   0  0  0  0  0  0  0  0  0  0  0  0
   61.4251   30.4729   45.4918 H   0  0  0  0  0  0  0  0  0  0  0  0
   59.9293   28.8099   44.3935 H   0  0  0  0  0  0  0  0  0  0  0  0
   58.4827   26.5770   45.0999 H   0  0  0  0  0  0  0  0  0  0  0  0
   57.1911   26.9866   46.2770 H   0  0  0  0  0  0  0  0  0  0  0  0
   56.6215   30.1009   42.0041 H   0  0  0  0  0  0  0  0  0  0  0  0
   57.7978   33.4086   40.6055 H   0  0  0  0  0  0  0  0  0  0  0  0
   58.4374   31.7564   40.3093 H   0  0  0  0  0  0  0  0  0  0  0  0
   56.6647   32.0466   40.3093 H   0  0  0  0  0  0  0  0  0  0  0  0
   59.4602   35.1014   46.4443 H   0  0  0  0  0  0  0  0  0  0  0  0
   60.2149   34.6104   44.8899 H   0  0  0  0  0  0  0  0  0  0  0  0
   58.6439   35.4814   44.8899 H   0  0  0  0  0  0  0  0  0  0  0  0
   58.0096   32.3461   48.6928 H   0  0  0  0  0  0  0  0  0  0  0  0
   59.6681   32.8334   48.2043 H   0  0  0  0  0  0  0  0  0  0  0  0
   58.3400   34.0429   48.2043 H   0  0  0  0  0  0  0  0  0  0  0  0
   57.8642   28.1887   48.1483 H   0  0  0  0  0  0  0  0  0  0  0  0
   59.3594   29.8548   49.2475 H   0  0  0  0  0  0  0  0  0  0  0  0
  1  2  1  0
  2  3  1  0
  3  4  2  0
  4  5  1  0
  5  6  2  0
  6  7  1  0
  7  8  1  0
  8  9  1  0
  9 10  2  0
  9 11  1  0
 11 12  2  0
 12 13  1  0
 13 14  1  0
 13 15  2  0
 15 16  1  0
 16 17  2  0
 17 18  1  0
 17 19  1  0
 19 20  1  0
 19 21  2  0
 21 22  1  0
  6 23  1  0
 23 24  2  0
 24  3  1  0
 22 11  1  0
 22 16  1  0
  1 25  1  0
  1 26  1  0
  1 27  1  0
  4 28  1  0
  5 29  1  0
  7 30  1  0
  7 31  1  0
 12 32  1  0
 14 33  1  0
 14 34  1  0
 14 35  1  0
 18 36  1  0
 18 37  1  0
 18 38  1  0
 20 39  1  0
 20 40  1  0
 20 41  1  0
 23 42  1  0
 24 43  1  0
M  CHG  1   8  -1
M  END
>  <UniqueID>  (46) 
43

>  <SMILES>  (46) 
COc1ccc(C[N-]C(=O)c2cc(C)nc3c(C)c(C)nn23)cc1

>  <Energy>  (46) 
81.4228661903438

>  <Genealogy>  (46) 
COc1ccc(C[N-]C(=O)c2cc(C)nc3c(C)c(C)nn23)cc1 (protonated)
COc1ccc(C[N-]C(=O)c2cc(C)nc3c(C)c(C)nn23)cc1 (3D coordinates assigned)
COc1ccc(C[N-]C(=O)c2cc(C)nc3c(C)c(C)nn23)cc1 (optimized conformer: 81.4228661903438 kcal/mol)

>  <smiles>  (46) 
COc1ccc(CNC(=O)c2cc(C)nc3c(C)c(C)nn23)cc1

>  <score_type>  (46) 
oracle

>  <origin>  (46) 
adg

>  <m_score__min__energy>  (46) 
-10.51

>  <m_primary>  (46) 
energy

$$$$
46:0
     RDKit          3D

 31 32  0  0  0  0  0  0  0  0999 V2000
   54.7820   26.1710   45.9650 N   0  0  0  0  0  0  0  0  0  0  0  0
   56.3800   25.5390   46.1580 S   0  0  0  0  0  0  0  0  0  0  0  0
   56.4400   24.7550   47.4380 O   0  0  0  0  0  0  0  0  0  0  0  0
   56.7070   24.6360   45.0020 O   0  0  0  0  0  0  0  0  0  0  0  0
   57.5370   26.8650   46.2080 C   0  0  0  0  0  0  0  0  0  0  0  0
   58.4720   26.9500   47.2470 C   0  0  0  0  0  0  0  0  0  0  0  0
   59.3940   27.9980   47.2750 C   0  0  0  0  0  0  0  0  0  0  0  0
   59.3970   28.9570   46.2590 C   0  0  0  0  0  0  0  0  0  0  0  0
   58.4780   28.8780   45.2020 C   0  0  0  0  0  0  0  0  0  0  0  0
   58.5210   29.8700   44.1600 N   0  0  0  0  0  0  0  0  0  0  0  0
   57.4550   31.2380   44.0840 S   0  0  0  0  0  0  0  0  0  0  0  0
   57.3290   31.6830   42.6530 O   0  0  0  0  0  0  0  0  0  0  0  0
   56.0990   30.8400   44.5930 O   0  0  0  0  0  0  0  0  0  0  0  0
   58.0780   32.5410   45.0920 C   0  0  0  0  0  0  0  0  0  0  0  0
   58.4750   33.7490   44.5010 C   0  0  0  0  0  0  0  0  0  0  0  0
   58.9470   34.7970   45.2970 C   0  0  0  0  0  0  0  0  0  0  0  0
   59.0260   34.6430   46.6840 C   0  0  0  0  0  0  0  0  0  0  0  0
   58.6360   33.4380   47.2770 C   0  0  0  0  0  0  0  0  0  0  0  0
   58.1640   32.3880   46.4830 C   0  0  0  0  0  0  0  0  0  0  0  0
   57.5410   27.8280   45.1900 C   0  0  0  0  0  0  0  0  0  0  0  0
   54.7590   27.0960   46.4500 H   0  0  0  0  0  0  0  0  0  0  0  0
   58.4800   26.1900   48.0422 H   0  0  0  0  0  0  0  0  0  0  0  0
   60.1196   28.0688   48.0987 H   0  0  0  0  0  0  0  0  0  0  0  0
   60.1257   29.7805   46.2881 H   0  0  0  0  0  0  0  0  0  0  0  0
   59.1640   29.7270   43.3490 H   0  0  0  0  0  0  0  0  0  0  0  0
   58.4150   33.8723   43.4096 H   0  0  0  0  0  0  0  0  0  0  0  0
   59.2566   35.7441   44.8311 H   0  0  0  0  0  0  0  0  0  0  0  0
   59.3949   35.4696   47.3091 H   0  0  0  0  0  0  0  0  0  0  0  0
   58.7005   33.3161   48.3683 H   0  0  0  0  0  0  0  0  0  0  0  0
   57.8596   31.4401   46.9508 H   0  0  0  0  0  0  0  0  0  0  0  0
   56.8055   27.7627   44.3746 H   0  0  0  0  0  0  0  0  0  0  0  0
  1  2  1  0
  2  3  2  0
  2  4  2  0
  2  5  1  0
  5  6  2  0
  6  7  1  0
  7  8  2  0
  8  9  1  0
  9 10  1  0
 10 11  1  0
 11 12  2  0
 11 13  2  0
 11 14  1  0
 14 15  2  0
 15 16  1  0
 16 17  2  0
 17 18  1  0
 18 19  2  0
  9 20  2  0
 20  5  1  0
 19 14  1  0
  1 21  1  0
  6 22  1  0
  7 23  1  0
  8 24  1  0
 10 25  1  0
 15 26  1  0
 16 27  1  0
 17 28  1  0
 18 29  1  0
 19 30  1  0
 20 31  1  0
M  CHG  1   1  -1
M  END
>  <UniqueID>  (47) 
44

>  <SMILES>  (47) 
[NH-]S(=O)(=O)c1cccc(NS(=O)(=O)c2ccccc2)c1

>  <Energy>  (47) 
33.57625987567207

>  <Genealogy>  (47) 
[NH-]S(=O)(=O)c1cccc(NS(=O)(=O)c2ccccc2)c1 (protonated)
[NH-]S(=O)(=O)c1cccc(NS(=O)(=O)c2ccccc2)c1 (3D coordinates assigned)
[NH-]S(=O)(=O)c1cccc(NS(=O)(=O)c2ccccc2)c1 (optimized conformer: 33.57625987567207 kcal/mol)

>  <smiles>  (47) 
NS(=O)(=O)c1cccc(NS(=O)(=O)c2ccccc2)c1

>  <score_type>  (47) 
oracle

>  <origin>  (47) 
adg

>  <m_score__min__energy>  (47) 
-12.109999999999999

>  <m_primary>  (47) 
energy

$$$$
47:0
     RDKit          3D

 48 51  0  0  0  0  0  0  0  0999 V2000
   67.9220   33.5890   50.5980 C   0  0  0  0  0  0  0  0  0  0  0  0
   66.7770   33.1410   49.8250 N   0  0  0  0  0  0  0  0  0  0  0  0
   65.4360   33.4460   50.1870 C   0  0  0  0  0  0  0  0  0  0  0  0
   65.2110   34.1330   51.2170 O   0  0  0  0  0  0  0  0  0  0  0  0
   64.2800   33.0040   49.4210 C   0  0  0  0  0  0  0  0  0  0  0  0
   64.1670   33.4070   48.1230 C   0  0  0  0  0  0  0  0  0  0  0  0
   63.0860   33.0240   47.3240 C   0  0  0  0  0  0  0  0  0  0  0  0
   62.0950   32.2050   47.8710 C   0  0  0  0  0  0  0  0  0  0  0  0
   61.0040   31.8300   47.0360 N   0  0  0  0  0  0  0  0  0  0  0  0
   60.5710   30.4870   46.8820 C   0  0  0  0  0  0  0  0  0  0  0  0
   61.1450   29.5290   47.4940 O   0  0  0  0  0  0  0  0  0  0  0  0
   59.4740   30.2290   46.0240 N   0  0  0  0  0  0  0  0  0  0  0  0
   58.9560   28.9230   45.7940 C   0  0  0  0  0  0  0  0  0  0  0  0
   59.0890   28.0080   46.8190 C   0  0  0  0  0  0  0  0  0  0  0  0
   58.6000   26.7300   46.6410 C   0  0  0  0  0  0  0  0  0  0  0  0
   57.9810   26.3290   45.4750 C   0  0  0  0  0  0  0  0  0  0  0  0
   57.4920   24.9320   45.3080 C   0  0  0  0  0  0  0  0  0  0  0  0
   58.4970   23.9670   44.9650 C   0  0  0  0  0  0  0  0  0  0  0  0
   57.5770   22.4080   44.7810 S   0  0  0  0  0  0  0  0  0  0  0  0
   55.9380   23.1820   45.1790 C   0  0  0  0  0  0  0  0  0  0  0  0
   54.7480   22.6230   45.2490 N   0  0  0  0  0  0  0  0  0  0  0  0
   53.6880   23.3790   45.5720 C   0  0  0  0  0  0  0  0  0  0  0  0
   53.9130   24.6790   45.8060 N   0  0  0  0  0  0  0  0  0  0  0  0
   55.0950   25.2650   45.7430 C   0  0  0  0  0  0  0  0  0  0  0  0
   55.1780   26.5170   46.0100 N   0  0  0  0  0  0  0  0  0  0  0  0
   56.2540   24.5090   45.4040 C   0  0  0  0  0  0  0  0  0  0  0  0
   57.8580   27.2550   44.4610 C   0  0  0  0  0  0  0  0  0  0  0  0
   58.3430   28.5530   44.6140 C   0  0  0  0  0  0  0  0  0  0  0  0
   62.2020   31.7910   49.1910 C   0  0  0  0  0  0  0  0  0  0  0  0
   63.2890   32.1980   49.9370 C   0  0  0  0  0  0  0  0  0  0  0  0
   67.6970   33.5010   51.6711 H   0  0  0  0  0  0  0  0  0  0  0  0
   68.7954   32.9663   50.3542 H   0  0  0  0  0  0  0  0  0  0  0  0
   68.1408   34.6391   50.3542 H   0  0  0  0  0  0  0  0  0  0  0  0
   66.9640   32.5720   48.9710 H   0  0  0  0  0  0  0  0  0  0  0  0
   64.9481   34.0512   47.6930 H   0  0  0  0  0  0  0  0  0  0  0  0
   63.0165   33.3625   46.2797 H   0  0  0  0  0  0  0  0  0  0  0  0
   60.5040   32.5960   46.5120 H   0  0  0  0  0  0  0  0  0  0  0  0
   58.9850   31.0140   45.5060 H   0  0  0  0  0  0  0  0  0  0  0  0
   59.5770   28.2931   47.7627 H   0  0  0  0  0  0  0  0  0  0  0  0
   58.7078   26.0034   47.4598 H   0  0  0  0  0  0  0  0  0  0  0  0
   59.5775   24.1321   44.8414 H   0  0  0  0  0  0  0  0  0  0  0  0
   54.6630   21.5990   45.0490 H   0  0  0  0  0  0  0  0  0  0  0  0
   52.6775   22.9501   45.6418 H   0  0  0  0  0  0  0  0  0  0  0  0
   54.3900   27.0840   46.3560 H   0  0  0  0  0  0  0  0  0  0  0  0
   57.3705   26.9657   43.5183 H   0  0  0  0  0  0  0  0  0  0  0  0
   58.2374   29.2808   43.7960 H   0  0  0  0  0  0  0  0  0  0  0  0
   61.4301   31.1466   49.6370 H   0  0  0  0  0  0  0  0  0  0  0  0
   63.3673   31.8665   50.9829 H   0  0  0  0  0  0  0  0  0  0  0  0
  1  2  1  0
  2  3  1  0
  3  4  2  0
  3  5  1  0
  5  6  2  0
  6  7  1  0
  7  8  2  0
  8  9  1  0
  9 10  1  0
 10 11  2  0
 10 12  1  0
 12 13  1  0
 13 14  2  0
 14 15  1  0
 15 16  2  0
 16 17  1  0
 17 18  2  0
 18 19  1  0
 19 20  1  0
 20 21  1  0
 21 22  1  0
 22 23  2  0
 23 24  1  0
 24 25  2  3
 24 26  1  0
 16 27  1  0
 27 28  2  0
  8 29  1  0
 29 30  2  0
 30  5  1  0
 28 13  1  0
 26 17  1  0
 26 20  2  0
  1 31  1  0
  1 32  1  0
  1 33  1  0
  2 34  1  0
  6 35  1  0
  7 36  1  0
  9 37  1  0
 12 38  1  0
 14 39  1  0
 15 40  1  0
 18 41  1  0
 21 42  1  0
 22 43  1  0
 25 44  1  0
 27 45  1  0
 28 46  1  0
 29 47  1  0
 30 48  1  0
M  END
>  <smiles>  (48) 
CNC(=O)c1ccc(NC(=O)Nc2ccc(-c3csc4[nH]cnc(=N)c34)cc2)cc1

>  <score_type>  (48) 
oracle

>  <origin>  (48) 
adg

>  <m_score__min__energy>  (48) 
-8.2100000000000009

>  <m_primary>  (48) 
energy

$$$$
48:0
     RDKit          3D

 57 60  0  0  0  0  0  0  0  0999 V2000
   59.2670   30.0154   47.8811 H   0  0  0  0  0  0  0  0  0  0  0  0
   59.1910   29.8330   46.7990 C   0  0  0  0  0  0  0  0  0  0  0  0
   58.8110   30.8540   46.0030 C   0  0  0  0  0  0  0  0  0  0  0  0
   59.1980   32.2530   46.3000 C   0  0  0  0  0  0  0  0  0  0  0  0
   58.3040   33.3110   46.0720 C   0  0  0  0  0  0  0  0  0  0  0  0
   57.3193   33.1107   45.6245 H   0  0  0  0  0  0  0  0  0  0  0  0
   58.6620   34.6170   46.4120 C   0  0  0  0  0  0  0  0  0  0  0  0
   57.9717   35.4477   46.2037 H   0  0  0  0  0  0  0  0  0  0  0  0
   59.8950   34.8700   47.0160 C   0  0  0  0  0  0  0  0  0  0  0  0
   60.1767   35.9024   47.2705 H   0  0  0  0  0  0  0  0  0  0  0  0
   60.7750   33.8200   47.3000 C   0  0  0  0  0  0  0  0  0  0  0  0
   62.0040   34.1180   47.9740 N   0  0  0  0  0  0  0  0  0  0  0  0
   62.4140   33.7050   49.6130 S   0  0  0  0  0  0  0  0  0  0  0  0
   62.8250   34.9650   50.3250 O   0  0  0  0  0  0  0  0  0  0  0  0
   63.5620   32.7410   49.6900 O   0  0  0  0  0  0  0  0  0  0  0  0
   60.9930   32.9920   50.4000 C   0  0  0  0  0  0  0  0  0  0  0  0
   60.1620   33.8340   51.1570 C   0  0  0  0  0  0  0  0  0  0  0  0
   60.4119   34.9013   51.2491 H   0  0  0  0  0  0  0  0  0  0  0  0
   59.0260   33.3380   51.7930 C   0  0  0  0  0  0  0  0  0  0  0  0
   58.3908   34.0136   52.3847 H   0  0  0  0  0  0  0  0  0  0  0  0
   58.6910   31.9910   51.6830 C   0  0  0  0  0  0  0  0  0  0  0  0
   57.7926   31.6068   52.1883 H   0  0  0  0  0  0  0  0  0  0  0  0
   59.4940   31.1230   50.9310 C   0  0  0  0  0  0  0  0  0  0  0  0
   59.1420   29.7680   50.8220 C   0  0  0  0  0  0  0  0  0  0  0  0
   58.2399   29.3940   51.3283 H   0  0  0  0  0  0  0  0  0  0  0  0
   59.9320   28.8940   50.0740 C   0  0  0  0  0  0  0  0  0  0  0  0
   59.6519   27.8334   49.9927 H   0  0  0  0  0  0  0  0  0  0  0  0
   61.0750   29.3630   49.4300 C   0  0  0  0  0  0  0  0  0  0  0  0
   61.6940   28.6706   48.8406 H   0  0  0  0  0  0  0  0  0  0  0  0
   61.4390   30.7080   49.5290 C   0  0  0  0  0  0  0  0  0  0  0  0
   62.3445   31.0653   49.0168 H   0  0  0  0  0  0  0  0  0  0  0  0
   60.6580   31.6140   50.2790 C   0  0  0  0  0  0  0  0  0  0  0  0
   60.4360   32.5140   46.9070 C   0  0  0  0  0  0  0  0  0  0  0  0
   61.1458   31.6909   47.0763 H   0  0  0  0  0  0  0  0  0  0  0  0
   57.9550   30.6050   44.8100 C   0  0  0  0  0  0  0  0  0  0  0  0
   58.0450   31.4430   43.6860 C   0  0  0  0  0  0  0  0  0  0  0  0
   58.7722   32.2683   43.6757 H   0  0  0  0  0  0  0  0  0  0  0  0
   57.2170   31.2340   42.5830 C   0  0  0  0  0  0  0  0  0  0  0  0
   57.2885   31.8894   41.7025 H   0  0  0  0  0  0  0  0  0  0  0  0
   56.2980   30.1860   42.6080 C   0  0  0  0  0  0  0  0  0  0  0  0
   55.6433   30.0096   41.7419 H   0  0  0  0  0  0  0  0  0  0  0  0
   56.2090   29.3810   43.7010 N   0  0  0  0  0  0  0  0  0  0  0  0
   55.5080   28.6070   43.7080 H   0  0  0  0  0  0  0  0  0  0  0  0
   57.0040   29.5670   44.7900 C   0  0  0  0  0  0  0  0  0  0  0  0
   56.9028   28.9019   45.6603 H   0  0  0  0  0  0  0  0  0  0  0  0
   59.5170   28.4540   46.2810 C   0  0  0  0  0  0  0  0  0  0  0  0
   60.5398   28.1929   46.5902 H   0  0  0  0  0  0  0  0  0  0  0  0
   59.4209   28.4752   45.1854 H   0  0  0  0  0  0  0  0  0  0  0  0
   58.5500   27.3840   46.8170 C   0  0  0  0  0  0  0  0  0  0  0  0
   57.8200   27.8742   47.4779 H   0  0  0  0  0  0  0  0  0  0  0  0
   59.1572   26.6361   47.3480 H   0  0  0  0  0  0  0  0  0  0  0  0
   57.7830   26.6410   45.7110 C   0  0  0  0  0  0  0  0  0  0  0  0
   58.1832   25.6200   45.6251 H   0  0  0  0  0  0  0  0  0  0  0  0
   57.9138   27.1987   44.7719 H   0  0  0  0  0  0  0  0  0  0  0  0
   56.3160   26.5630   46.0040 C   0  0  0  0  0  0  0  0  0  0  0  0
   55.5440   27.4780   45.6170 O   0  0  0  0  0  0  0  0  0  0  0  0
   55.8060   25.4940   46.7310 O   0  0  0  0  0  0  0  0  0  0  0  0
  1  2  1  0
  2  3  2  0
  3  4  1  0
  4  5  2  0
  5  6  1  0
  5  7  1  0
  7  8  1  0
  7  9  2  0
  9 10  1  0
  9 11  1  0
 11 12  1  0
 12 13  1  0
 13 14  2  0
 13 15  2  0
 13 16  1  0
 16 17  2  0
 17 18  1  0
 17 19  1  0
 19 20  1  0
 19 21  2  0
 21 22  1  0
 21 23  1  0
 23 24  2  0
 24 25  1  0
 24 26  1  0
 26 27  1  0
 26 28  2  0
 28 29  1  0
 28 30  1  0
 30 31  1  0
 30 32  2  0
 11 33  2  0
 33 34  1  0
  3 35  1  0
 35 36  2  0
 36 37  1  0
 36 38  1  0
 38 39  1  0
 38 40  2  0
 40 41  1  0
 40 42  1  0
 42 43  1  0
 42 44  2  0
 44 45  1  0
  2 46  1  0
 46 47  1  0
 46 48  1  0
 46 49  1  0
 49 50  1  0
 49 51  1  0
 49 52  1  0
 52 53  1  0
 52 54  1  0
 52 55  1  0
 55 56  2  0
 55 57  1  0
 33  4  1  0
 44 35  1  0
 32 16  1  0
 32 23  1  0
M  CHG  3  12  -1  42   1  57  -1
M  END
>  <UniqueID>  (49) 
45

>  <SMILES>  (49) 
O=C([O-])CCC/C=C(/c1ccc[nH+]c1)c1cccc([N-]S(=O)(=O)c2cccc3ccccc23)c1

>  <Energy>  (49) 
79.02195993776552

>  <Genealogy>  (49) 
O=C([O-])CCCC=C(c1ccc[nH+]c1)c1cccc([N-]S(=O)(=O)c2cccc3ccccc23)c1 (protonated)
O=C([O-])CCC/C=C(/c1ccc[nH+]c1)c1cccc([N-]S(=O)(=O)c2cccc3ccccc23)c1 (cis-trans isomerization)
O=C([O-])CCC/C=C(/c1ccc[nH+]c1)c1cccc([N-]S(=O)(=O)c2cccc3ccccc23)c1 (3D coordinates assigned)
O=C([O-])CCC/C=C(/c1ccc[nH+]c1)c1cccc([N-]S(=O)(=O)c2cccc3ccccc23)c1 (optimized conformer: 79.02195993776552 kcal/mol)

>  <smiles>  (49) 
O=C(O)CCCC=C(c1cccnc1)c1cccc(NS(=O)(=O)c2cccc3ccccc23)c1

>  <score_type>  (49) 
oracle

>  <origin>  (49) 
adg

>  <m_score__min__energy>  (49) 
-13.69

>  <m_primary>  (49) 
energy

$$$$
49:0
     RDKit          3D

 39 41  0  0  0  0  0  0  0  0999 V2000
   59.1070   34.8380   46.9900 C   0  0  0  0  0  0  0  0  0  0  0  0
   58.2230   33.7220   46.4390 C   0  0  0  0  0  0  0  0  0  0  0  0
   59.0380   32.5030   45.9800 C   0  0  0  0  0  0  0  0  0  0  0  0
   58.3120   31.7210   44.9640 N   0  0  0  0  0  0  0  0  0  0  0  0
   57.9830   32.2450   43.7310 C   0  0  0  0  0  0  0  0  0  0  0  0
   58.3160   33.4210   43.4230 O   0  0  0  0  0  0  0  0  0  0  0  0
   57.2840   31.4940   42.8210 N   0  0  0  0  0  0  0  0  0  0  0  0
   56.8900   30.2200   43.1000 C   0  0  0  0  0  0  0  0  0  0  0  0
   56.2440   29.5470   42.2550 O   0  0  0  0  0  0  0  0  0  0  0  0
   57.2220   29.6970   44.3380 C   0  0  0  0  0  0  0  0  0  0  0  0
   56.9350   28.4920   44.8530 N   0  0  0  0  0  0  0  0  0  0  0  0
   57.5060   28.5660   46.0860 C   0  0  0  0  0  0  0  0  0  0  0  0
   57.3980   27.4660   47.0920 C   0  0  0  0  0  0  0  0  0  0  0  0
   57.1560   26.1550   46.3910 C   0  0  0  0  0  0  0  0  0  0  0  0
   58.1980   25.2180   46.2900 C   0  0  0  0  0  0  0  0  0  0  0  0
   57.9890   23.9740   45.6820 C   0  0  0  0  0  0  0  0  0  0  0  0
   59.0680   23.0800   45.6060 O   0  0  0  0  0  0  0  0  0  0  0  0
   59.3060   22.1990   44.5140 C   0  0  0  0  0  0  0  0  0  0  0  0
   56.7140   23.6620   45.1740 C   0  0  0  0  0  0  0  0  0  0  0  0
   55.6700   24.5830   45.2840 C   0  0  0  0  0  0  0  0  0  0  0  0
   55.8810   25.8230   45.8950 C   0  0  0  0  0  0  0  0  0  0  0  0
   54.8210   26.7160   46.0080 O   0  0  0  0  0  0  0  0  0  0  0  0
   58.1110   29.7530   46.3620 N   0  0  0  0  0  0  0  0  0  0  0  0
   57.9140   30.4420   45.2280 C   0  0  0  0  0  0  0  0  0  0  0  0
   59.0869   34.8126   48.0895 H   0  0  0  0  0  0  0  0  0  0  0  0
   60.1396   34.6951   46.6388 H   0  0  0  0  0  0  0  0  0  0  0  0
   58.7315   35.8104   46.6388 H   0  0  0  0  0  0  0  0  0  0  0  0
   57.5239   33.4036   47.2263 H   0  0  0  0  0  0  0  0  0  0  0  0
   57.6891   34.1183   45.5627 H   0  0  0  0  0  0  0  0  0  0  0  0
   59.9898   32.8499   45.5515 H   0  0  0  0  0  0  0  0  0  0  0  0
   59.2145   31.8568   46.8525 H   0  0  0  0  0  0  0  0  0  0  0  0
   58.3331   27.4049   47.6680 H   0  0  0  0  0  0  0  0  0  0  0  0
   56.5577   27.6755   47.7703 H   0  0  0  0  0  0  0  0  0  0  0  0
   59.1910   25.4648   46.6938 H   0  0  0  0  0  0  0  0  0  0  0  0
   59.5749   21.2038   44.8977 H   0  0  0  0  0  0  0  0  0  0  0  0
   58.3965   22.1219   43.9001 H   0  0  0  0  0  0  0  0  0  0  0  0
   60.1306   22.5904   43.9001 H   0  0  0  0  0  0  0  0  0  0  0  0
   56.5394   22.6902   44.6891 H   0  0  0  0  0  0  0  0  0  0  0  0
   54.6753   24.3314   44.8875 H   0  0  0  0  0  0  0  0  0  0  0  0
  1  2  1  0
  2  3  1  0
  3  4  1  0
  4  5  1  0
  5  6  2  0
  5  7  1  0
  7  8  1  0
  8  9  2  0
  8 10  1  0
 10 11  1  0
 11 12  1  0
 12 13  1  0
 13 14  1  0
 14 15  2  0
 15 16  1  0
 16 17  1  0
 17 18  1  0
 16 19  2  0
 19 20  1  0
 20 21  2  0
 21 22  1  0
 12 23  2  0
 23 24  1  0
 24  4  1  0
 24 10  2  0
 21 14  1  0
  1 25  1  0
  1 26  1  0
  1 27  1  0
  2 28  1  0
  2 29  1  0
  3 30  1  0
  3 31  1  0
 13 32  1  0
 13 33  1  0
 15 34  1  0
 18 35  1  0
 18 36  1  0
 18 37  1  0
 19 38  1  0
 20 39  1  0
M  CHG  3   7  -1  11  -1  22  -1
M  END
>  <UniqueID>  (50) 
46

>  <SMILES>  (50) 
CCCn1c(=O)[n-]c(=O)c2[n-]c(Cc3cc(OC)ccc3[O-])nc21

>  <Energy>  (50) 
73.92321287577987

>  <Genealogy>  (50) 
CCCn1c(=O)[n-]c(=O)c2[n-]c(Cc3cc(OC)ccc3[O-])nc21 (protonated)
CCCn1c(=O)[n-]c(=O)c2[n-]c(Cc3cc(OC)ccc3[O-])nc21 (3D coordinates assigned)
CCCn1c(=O)[n-]c(=O)c2[n-]c(Cc3cc(OC)ccc3[O-])nc21 (optimized conformer: 73.92321287577987 kcal/mol)

>  <smiles>  (50) 
CCCn1c(=O)[nH]c(=O)c2[nH]c(Cc3cc(OC)ccc3O)nc21

>  <score_type>  (50) 
oracle

>  <origin>  (50) 
adg

>  <m_score__min__energy>  (50) 
-13.140000000000001

>  <m_primary>  (50) 
energy

$$$$
50:0
     RDKit          3D

 37 39  0  0  0  0  0  0  0  0999 V2000
   57.9970   32.8760   44.4900 C   0  0  0  0  0  0  0  0  0  0  0  0
   57.7330   31.4080   44.6440 C   0  0  0  0  0  0  0  0  0  0  0  0
   56.5450   30.8400   44.1190 C   0  0  0  0  0  0  0  0  0  0  0  0
   56.2660   29.4720   44.2910 C   0  0  0  0  0  0  0  0  0  0  0  0
   57.1880   28.7030   44.9980 C   0  0  0  0  0  0  0  0  0  0  0  0
   57.1070   27.3940   45.2870 N   0  0  0  0  0  0  0  0  0  0  0  0
   58.2230   27.1100   45.9970 C   0  0  0  0  0  0  0  0  0  0  0  0
   58.5040   25.7670   46.5950 C   0  0  0  0  0  0  0  0  0  0  0  0
   57.9110   24.7130   45.7590 N   0  0  0  0  0  0  0  0  0  0  0  0
   56.6000   24.7590   45.4850 N   0  0  0  0  0  0  0  0  0  0  0  0
   55.9890   23.7890   44.7490 C   0  0  0  0  0  0  0  0  0  0  0  0
   54.5200   23.8980   44.4300 C   0  0  0  0  0  0  0  0  0  0  0  0
   53.8400   24.7640   45.4420 C   0  0  0  0  0  0  0  0  0  0  0  0
   54.4300   25.9990   45.8350 N   0  0  0  0  0  0  0  0  0  0  0  0
   52.7240   24.4210   45.9200 O   0  0  0  0  0  0  0  0  0  0  0  0
   56.7690   22.7330   44.2620 C   0  0  0  0  0  0  0  0  0  0  0  0
   56.2620   21.8220   43.5530 O   0  0  0  0  0  0  0  0  0  0  0  0
   58.0890   22.6920   44.5590 N   0  0  0  0  0  0  0  0  0  0  0  0
   58.6660   23.6620   45.3080 C   0  0  0  0  0  0  0  0  0  0  0  0
   59.8950   23.5830   45.5770 O   0  0  0  0  0  0  0  0  0  0  0  0
   59.0100   28.2460   46.1740 C   0  0  0  0  0  0  0  0  0  0  0  0
   58.3300   29.2510   45.5200 C   0  0  0  0  0  0  0  0  0  0  0  0
   58.6360   30.6010   45.3720 C   0  0  0  0  0  0  0  0  0  0  0  0
   58.0804   33.3398   45.4840 H   0  0  0  0  0  0  0  0  0  0  0  0
   58.9361   33.0236   43.9365 H   0  0  0  0  0  0  0  0  0  0  0  0
   57.1682   33.3415   43.9365 H   0  0  0  0  0  0  0  0  0  0  0  0
   55.8338   31.4757   43.5713 H   0  0  0  0  0  0  0  0  0  0  0  0
   55.3492   29.0237   43.8804 H   0  0  0  0  0  0  0  0  0  0  0  0
   56.3360   26.7380   45.0320 H   0  0  0  0  0  0  0  0  0  0  0  0
   59.5918   25.6153   46.6561 H   0  0  0  0  0  0  0  0  0  0  0  0
   58.0649   25.7201   47.6025 H   0  0  0  0  0  0  0  0  0  0  0  0
   56.0240   25.5560   45.8430 H   0  0  0  0  0  0  0  0  0  0  0  0
   54.3961   24.3398   43.4303 H   0  0  0  0  0  0  0  0  0  0  0  0
   54.0700   22.8945   44.4526 H   0  0  0  0  0  0  0  0  0  0  0  0
   53.8830   26.7100   46.3680 H   0  0  0  0  0  0  0  0  0  0  0  0
   59.9639   28.3238   46.7162 H   0  0  0  0  0  0  0  0  0  0  0  0
   59.5520   31.0261   45.8081 H   0  0  0  0  0  0  0  0  0  0  0  0
  1  2  1  0
  2  3  2  0
  3  4  1  0
  4  5  2  0
  5  6  1  0
  6  7  1  0
  7  8  1  0
  8  9  1  0
  9 10  1  0
 10 11  2  0
 11 12  1  0
 12 13  1  0
 13 14  1  0
 13 15  2  0
 11 16  1  0
 16 17  2  0
 16 18  1  0
 18 19  1  0
 19 20  2  0
  7 21  2  0
 21 22  1  0
 22 23  2  0
 23  2  1  0
 22  5  1  0
 19  9  1  0
  1 24  1  0
  1 25  1  0
  1 26  1  0
  3 27  1  0
  4 28  1  0
  6 29  1  0
  8 30  1  0
  8 31  1  0
 10 32  1  0
 12 33  1  0
 12 34  1  0
 14 35  1  0
 21 36  1  0
 23 37  1  0
M  CHG  3  10   1  14  -1  18  -1
M  END
>  <UniqueID>  (51) 
47

>  <SMILES>  (51) 
Cc1ccc2[nH]c(Cn3[nH+]c(CC([NH-])=O)c(=O)[n-]c3=O)cc2c1

>  <Energy>  (51) 
69.89026089492376

>  <Genealogy>  (51) 
Cc1ccc2[nH]c(Cn3[nH+]c(CC([NH-])=O)c(=O)[n-]c3=O)cc2c1 (protonated)
Cc1ccc2[nH]c(Cn3[nH+]c(CC([NH-])=O)c(=O)[n-]c3=O)cc2c1 (3D coordinates assigned)
Cc1ccc2[nH]c(Cn3[nH+]c(CC([NH-])=O)c(=O)[n-]c3=O)cc2c1 (optimized conformer: 69.89026089492376 kcal/mol)

>  <smiles>  (51) 
Cc1ccc2[nH]c(Cn3nc(CC(N)=O)c(=O)[nH]c3=O)cc2c1

>  <score_type>  (51) 
oracle

>  <origin>  (51) 
adg

>  <m_score__min__energy>  (51) 
-10.59

>  <m_primary>  (51) 
energy

$$$$
51:0
     RDKit          3D

 34 36  0  0  0  0  0  0  0  0999 V2000
   57.9130   28.1170   44.1180 C   0  0  0  0  0  0  0  0  0  0  0  0
   58.0990   29.4370   44.8070 C   0  0  0  0  0  0  0  0  0  0  0  0
   58.7860   29.5120   46.0230 C   0  0  0  0  0  0  0  0  0  0  0  0
   58.9880   30.7120   46.6320 N   0  0  0  0  0  0  0  0  0  0  0  0
   58.5490   31.8870   46.0810 C   0  0  0  0  0  0  0  0  0  0  0  0
   58.7670   33.1410   46.7130 C   0  0  0  0  0  0  0  0  0  0  0  0
   59.6360   33.2870   48.2520 S   0  0  0  0  0  0  0  0  0  0  0  0
   59.2410   32.1420   49.1410 O   0  0  0  0  0  0  0  0  0  0  0  0
   59.2800   34.5740   48.9420 O   0  0  0  0  0  0  0  0  0  0  0  0
   61.3740   33.2790   47.9600 C   0  0  0  0  0  0  0  0  0  0  0  0
   61.9020   33.8420   46.7880 C   0  0  0  0  0  0  0  0  0  0  0  0
   63.2840   33.8370   46.5690 C   0  0  0  0  0  0  0  0  0  0  0  0
   64.1420   33.2680   47.5160 C   0  0  0  0  0  0  0  0  0  0  0  0
   63.6180   32.7020   48.6820 C   0  0  0  0  0  0  0  0  0  0  0  0
   62.2380   32.7050   48.9040 C   0  0  0  0  0  0  0  0  0  0  0  0
   58.2990   34.3120   46.0970 C   0  0  0  0  0  0  0  0  0  0  0  0
   57.6260   34.2580   44.8760 C   0  0  0  0  0  0  0  0  0  0  0  0
   57.4090   33.0340   44.2480 C   0  0  0  0  0  0  0  0  0  0  0  0
   57.8650   31.8490   44.8400 C   0  0  0  0  0  0  0  0  0  0  0  0
   57.6520   30.6170   44.2090 C   0  0  0  0  0  0  0  0  0  0  0  0
   57.8011   27.3229   44.8709 H   0  0  0  0  0  0  0  0  0  0  0  0
   57.0114   28.1555   43.4890 H   0  0  0  0  0  0  0  0  0  0  0  0
   58.7901   27.9049   43.4890 H   0  0  0  0  0  0  0  0  0  0  0  0
   59.1666   28.5924   46.4914 H   0  0  0  0  0  0  0  0  0  0  0  0
   59.4970   30.6930   47.5410 H   0  0  0  0  0  0  0  0  0  0  0  0
   61.2288   34.2876   46.0408 H   0  0  0  0  0  0  0  0  0  0  0  0
   63.6963   34.2811   45.6510 H   0  0  0  0  0  0  0  0  0  0  0  0
   65.2284   33.2659   47.3434 H   0  0  0  0  0  0  0  0  0  0  0  0
   64.2929   32.2536   49.4260 H   0  0  0  0  0  0  0  0  0  0  0  0
   61.8287   32.2562   49.8211 H   0  0  0  0  0  0  0  0  0  0  0  0
   58.4649   35.2848   46.5830 H   0  0  0  0  0  0  0  0  0  0  0  0
   57.2654   35.1857   44.4076 H   0  0  0  0  0  0  0  0  0  0  0  0
   56.8784   32.9976   43.2851 H   0  0  0  0  0  0  0  0  0  0  0  0
   57.1317   30.5788   43.2406 H   0  0  0  0  0  0  0  0  0  0  0  0
  1  2  1  0
  2  3  2  0
  3  4  1  0
  4  5  2  0
  5  6  1  0
  6  7  1  0
  7  8  2  0
  7  9  2  0
  7 10  1  0
 10 11  2  0
 11 12  1  0
 12 13  2  0
 13 14  1  0
 14 15  2  0
  6 16  2  0
 16 17  1  0
 17 18  2  0
 18 19  1  0
 19 20  2  0
 20  2  1  0
 19  5  1  0
 15 10  1  0
  1 21  1  0
  1 22  1  0
  1 23  1  0
  3 24  1  0
  4 25  1  0
 11 26  1  0
 12 27  1  0
 13 28  1  0
 14 29  1  0
 15 30  1  0
 16 31  1  0
 17 32  1  0
 18 33  1  0
 20 34  1  0
M  CHG  1   4   1
M  END
>  <UniqueID>  (52) 
48

>  <SMILES>  (52) 
Cc1c[nH+]c2c(S(=O)(=O)c3ccccc3)cccc2c1

>  <Energy>  (52) 
43.188874949094696

>  <Genealogy>  (52) 
Cc1c[nH+]c2c(S(=O)(=O)c3ccccc3)cccc2c1 (protonated)
Cc1c[nH+]c2c(S(=O)(=O)c3ccccc3)cccc2c1 (3D coordinates assigned)
Cc1c[nH+]c2c(S(=O)(=O)c3ccccc3)cccc2c1 (optimized conformer: 43.188874949094696 kcal/mol)

>  <smiles>  (52) 
Cc1cnc2c(S(=O)(=O)c3ccccc3)cccc2c1

>  <score_type>  (52) 
oracle

>  <origin>  (52) 
adg

>  <m_score__min__energy>  (52) 
-6.5499999999999998

>  <m_primary>  (52) 
energy

$$$$
52:0
     RDKit          3D

 41 43  0  0  0  0  0  0  0  0999 V2000
   51.1810   23.7910   44.2760 C   0  0  0  0  0  0  0  0  0  0  0  0
   52.2830   23.3640   45.1890 C   0  0  0  0  0  0  0  0  0  0  0  0
   52.0550   22.9270   46.4910 C   0  0  0  0  0  0  0  0  0  0  0  0
   53.5410   22.5240   47.1670 S   0  0  0  0  0  0  0  0  0  0  0  0
   54.4050   22.9200   45.7720 C   0  0  0  0  0  0  0  0  0  0  0  0
   55.6920   22.8360   45.6030 N   0  0  0  0  0  0  0  0  0  0  0  0
   56.7130   23.6780   46.1680 C   0  0  0  0  0  0  0  0  0  0  0  0
   57.4010   23.2820   47.1500 O   0  0  0  0  0  0  0  0  0  0  0  0
   56.9590   25.0220   45.5960 C   0  0  0  0  0  0  0  0  0  0  0  0
   56.5840   26.1800   46.3030 C   0  0  0  0  0  0  0  0  0  0  0  0
   56.8150   27.4490   45.7630 C   0  0  0  0  0  0  0  0  0  0  0  0
   57.4160   27.5860   44.5010 C   0  0  0  0  0  0  0  0  0  0  0  0
   57.6870   28.8800   43.9350 N   0  0  0  0  0  0  0  0  0  0  0  0
   56.8210   30.0180   44.0740 C   0  0  0  0  0  0  0  0  0  0  0  0
   55.6530   29.8850   44.5320 O   0  0  0  0  0  0  0  0  0  0  0  0
   57.2670   31.3610   43.5850 C   0  0  0  0  0  0  0  0  0  0  0  0
   57.9360   32.1200   44.6970 C   0  0  0  0  0  0  0  0  0  0  0  0
   58.5460   31.4290   45.7580 C   0  0  0  0  0  0  0  0  0  0  0  0
   59.1390   32.1340   46.8100 C   0  0  0  0  0  0  0  0  0  0  0  0
   59.1180   33.5320   46.8170 C   0  0  0  0  0  0  0  0  0  0  0  0
   59.9270   34.4930   48.2560 Br  0  0  0  0  0  0  0  0  0  0  0  0
   58.5030   34.2260   45.7710 C   0  0  0  0  0  0  0  0  0  0  0  0
   57.9100   33.5250   44.7160 C   0  0  0  0  0  0  0  0  0  0  0  0
   57.8140   26.4360   43.8070 C   0  0  0  0  0  0  0  0  0  0  0  0
   57.5820   25.1650   44.3430 C   0  0  0  0  0  0  0  0  0  0  0  0
   53.5850   23.3550   44.7930 N   0  0  0  0  0  0  0  0  0  0  0  0
   50.3192   24.1249   44.8726 H   0  0  0  0  0  0  0  0  0  0  0  0
   51.5305   24.6188   43.6415 H   0  0  0  0  0  0  0  0  0  0  0  0
   50.8815   22.9438   43.6415 H   0  0  0  0  0  0  0  0  0  0  0  0
   51.0767   22.8577   46.9890 H   0  0  0  0  0  0  0  0  0  0  0  0
   56.1051   26.0858   47.2888 H   0  0  0  0  0  0  0  0  0  0  0  0
   56.5242   28.3455   46.3301 H   0  0  0  0  0  0  0  0  0  0  0  0
   58.5200   28.9760   43.3110 H   0  0  0  0  0  0  0  0  0  0  0  0
   57.9777   31.2286   42.7559 H   0  0  0  0  0  0  0  0  0  0  0  0
   56.3898   31.9277   43.2394 H   0  0  0  0  0  0  0  0  0  0  0  0
   58.5570   30.3291   45.7609 H   0  0  0  0  0  0  0  0  0  0  0  0
   59.6227   31.5879   47.6333 H   0  0  0  0  0  0  0  0  0  0  0  0
   58.4854   35.3258   45.7777 H   0  0  0  0  0  0  0  0  0  0  0  0
   57.4216   34.0753   43.8983 H   0  0  0  0  0  0  0  0  0  0  0  0
   58.3135   26.5334   42.8318 H   0  0  0  0  0  0  0  0  0  0  0  0
   57.8890   24.2709   43.7806 H   0  0  0  0  0  0  0  0  0  0  0  0
  1  2  1  0
  2  3  2  0
  3  4  1  0
  4  5  1  0
  5  6  2  3
  6  7  1  0
  7  8  2  0
  7  9  1  0
  9 10  2  0
 10 11  1  0
 11 12  2  0
 12 13  1  0
 13 14  1  0
 14 15  2  0
 14 16  1  0
 16 17  1  0
 17 18  2  0
 18 19  1  0
 19 20  2  0
 20 21  1  0
 20 22  1  0
 22 23  2  0
 12 24  1  0
 24 25  2  0
  5 26  1  0
 26  2  1  0
 25  9  1  0
 23 17  1  0
  1 27  1  0
  1 28  1  0
  1 29  1  0
  3 30  1  0
 10 31  1  0
 11 32  1  0
 13 33  1  0
 16 34  1  0
 16 35  1  0
 18 36  1  0
 19 37  1  0
 22 38  1  0
 23 39  1  0
 24 40  1  0
 25 41  1  0
M  CHG  1  26  -1
M  END
>  <UniqueID>  (53) 
49

>  <SMILES>  (53) 
Cc1csc(=NC(=O)c2ccc(NC(=O)Cc3ccc(Br)cc3)cc2)[n-]1

>  <Energy>  (53) 
77.33949400406529

>  <Genealogy>  (53) 
Cc1csc(=NC(=O)c2ccc(NC(=O)Cc3ccc(Br)cc3)cc2)[n-]1 (protonated)
Cc1csc(=NC(=O)c2ccc(NC(=O)Cc3ccc(Br)cc3)cc2)[n-]1 (3D coordinates assigned)
Cc1csc(=NC(=O)c2ccc(NC(=O)Cc3ccc(Br)cc3)cc2)[n-]1 (optimized conformer: 77.33949400406529 kcal/mol)

>  <smiles>  (53) 
Cc1csc(=NC(=O)c2ccc(NC(=O)Cc3ccc(Br)cc3)cc2)[nH]1

>  <score_type>  (53) 
oracle

>  <origin>  (53) 
adg

>  <m_score__min__energy>  (53) 
-10

>  <m_primary>  (53) 
energy

$$$$
53:0
     RDKit          3D

 43 46  0  0  0  0  0  0  0  0999 V2000
   61.8950   34.1630   49.0090 C   0  0  0  0  0  0  0  0  0  0  0  0
   61.5220   32.7590   48.6370 C   0  0  0  0  0  0  0  0  0  0  0  0
   62.0820   32.1560   47.5000 C   0  0  0  0  0  0  0  0  0  0  0  0
   61.7090   30.8600   47.1330 C   0  0  0  0  0  0  0  0  0  0  0  0
   60.7530   30.1580   47.8850 C   0  0  0  0  0  0  0  0  0  0  0  0
   60.3810   28.7490   47.5120 C   0  0  0  0  0  0  0  0  0  0  0  0
   59.1260   28.7460   46.6850 C   0  0  0  0  0  0  0  0  0  0  0  0
   58.2490   27.6330   46.7260 C   0  0  0  0  0  0  0  0  0  0  0  0
   57.0500   27.6380   45.9920 C   0  0  0  0  0  0  0  0  0  0  0  0
   56.7520   28.7670   45.2350 C   0  0  0  0  0  0  0  0  0  0  0  0
   55.6920   28.9710   44.4930 O   0  0  0  0  0  0  0  0  0  0  0  0
   55.8010   30.1720   43.9530 C   0  0  0  0  0  0  0  0  0  0  0  0
   56.9840   30.7800   44.3700 C   0  0  0  0  0  0  0  0  0  0  0  0
   57.5000   32.1030   43.9540 C   0  0  0  0  0  0  0  0  0  0  0  0
   57.4080   32.4430   42.7430 O   0  0  0  0  0  0  0  0  0  0  0  0
   58.1010   33.0500   44.9220 C   0  0  0  0  0  0  0  0  0  0  0  0
   58.9770   34.0660   44.4970 C   0  0  0  0  0  0  0  0  0  0  0  0
   59.5230   34.9620   45.4210 C   0  0  0  0  0  0  0  0  0  0  0  0
   59.1910   34.8630   46.7740 C   0  0  0  0  0  0  0  0  0  0  0  0
   58.3090   33.8690   47.2060 C   0  0  0  0  0  0  0  0  0  0  0  0
   57.7600   32.9710   46.2850 C   0  0  0  0  0  0  0  0  0  0  0  0
   57.5920   29.8500   45.1920 C   0  0  0  0  0  0  0  0  0  0  0  0
   58.7860   29.8790   45.9120 C   0  0  0  0  0  0  0  0  0  0  0  0
   60.1890   30.7640   49.0190 C   0  0  0  0  0  0  0  0  0  0  0  0
   60.5640   32.0600   49.3850 C   0  0  0  0  0  0  0  0  0  0  0  0
   61.9201   34.2576   50.1046 H   0  0  0  0  0  0  0  0  0  0  0  0
   62.8873   34.4000   48.5976 H   0  0  0  0  0  0  0  0  0  0  0  0
   61.1512   34.8612   48.5976 H   0  0  0  0  0  0  0  0  0  0  0  0
   62.8178   32.7059   46.8950 H   0  0  0  0  0  0  0  0  0  0  0  0
   62.1663   30.3877   46.2511 H   0  0  0  0  0  0  0  0  0  0  0  0
   61.1997   28.2984   46.9318 H   0  0  0  0  0  0  0  0  0  0  0  0
   60.2078   28.1682   48.4299 H   0  0  0  0  0  0  0  0  0  0  0  0
   58.5092   26.7569   47.3381 H   0  0  0  0  0  0  0  0  0  0  0  0
   56.3679   26.7754   46.0154 H   0  0  0  0  0  0  0  0  0  0  0  0
   55.0651   30.6261   43.2731 H   0  0  0  0  0  0  0  0  0  0  0  0
   59.2338   34.1558   43.4312 H   0  0  0  0  0  0  0  0  0  0  0  0
   60.2154   35.7465   45.0817 H   0  0  0  0  0  0  0  0  0  0  0  0
   59.6238   35.5675   47.4995 H   0  0  0  0  0  0  0  0  0  0  0  0
   58.0462   33.7927   48.2714 H   0  0  0  0  0  0  0  0  0  0  0  0
   57.0570   32.1978   46.6283 H   0  0  0  0  0  0  0  0  0  0  0  0
   59.4448   30.7593   45.8791 H   0  0  0  0  0  0  0  0  0  0  0  0
   59.4492   30.2169   49.6218 H   0  0  0  0  0  0  0  0  0  0  0  0
   60.1048   32.5342   50.2650 H   0  0  0  0  0  0  0  0  0  0  0  0
  1  2  1  0
  2  3  2  0
  3  4  1  0
  4  5  2  0
  5  6  1  0
  6  7  1  0
  7  8  2  0
  8  9  1  0
  9 10  2  0
 10 11  1  0
 11 12  1  0
 12 13  2  0
 13 14  1  0
 14 15  2  0
 14 16  1  0
 16 17  2  0
 17 18  1  0
 18 19  2  0
 19 20  1  0
 20 21  2  0
 13 22  1  0
 22 23  2  0
  5 24  1  0
 24 25  2  0
 25  2  1  0
 23  7  1  0
 22 10  1  0
 21 16  1  0
  1 26  1  0
  1 27  1  0
  1 28  1  0
  3 29  1  0
  4 30  1  0
  6 31  1  0
  6 32  1  0
  8 33  1  0
  9 34  1  0
 12 35  1  0
 17 36  1  0
 18 37  1  0
 19 38  1  0
 20 39  1  0
 21 40  1  0
 23 41  1  0
 24 42  1  0
 25 43  1  0
M  END
>  <UniqueID>  (54) 
50

>  <SMILES>  (54) 
Cc1ccc(Cc2ccc3occ(C(=O)c4ccccc4)c3c2)cc1

>  <Energy>  (54) 
84.44453691000571

>  <Genealogy>  (54) 
Cc1ccc(Cc2ccc3occ(C(=O)c4ccccc4)c3c2)cc1 (3D coordinates assigned)
Cc1ccc(Cc2ccc3occ(C(=O)c4ccccc4)c3c2)cc1 (optimized conformer: 84.44453691000571 kcal/mol)

>  <smiles>  (54) 
Cc1ccc(Cc2ccc3occ(C(=O)c4ccccc4)c3c2)cc1

>  <score_type>  (54) 
oracle

>  <origin>  (54) 
adg

>  <m_score__min__energy>  (54) 
-8.6500000000000004

>  <m_primary>  (54) 
energy

$$$$
54:0
     RDKit          3D

 50 53  0  0  0  0  0  0  0  0999 V2000
   56.5450   26.1260   46.3800 C   0  0  0  0  0  0  0  0  0  0  0  0
   57.9430   26.7490   46.5010 C   0  0  2  0  0  0  0  0  0  0  0  0
   57.8630   28.2310   46.1520 C   0  0  0  0  0  0  0  0  0  0  0  0
   57.4320   28.6700   44.9400 N   0  0  0  0  0  0  0  0  0  0  0  0
   57.5260   30.0050   45.0460 C   0  0  0  0  0  0  0  0  0  0  0  0
   57.2390   30.9760   44.0750 C   0  0  0  0  0  0  0  0  0  0  0  0
   56.7050   30.6360   42.7360 C   0  0  0  0  0  0  0  0  0  0  0  0
   56.2150   29.3260   42.4370 N   0  0  0  0  0  0  0  0  0  0  0  0
   56.6570   31.5250   41.8420 O   0  0  0  0  0  0  0  0  0  0  0  0
   57.5030   32.3210   44.4220 C   0  0  0  0  0  0  0  0  0  0  0  0
   58.0000   32.6660   45.7010 C   0  0  0  0  0  0  0  0  0  0  0  0
   58.2230   34.0510   45.9950 N   0  0  0  0  0  0  0  0  0  0  0  0
   59.7300   34.7430   46.5030 S   0  0  0  0  0  0  0  0  0  0  0  0
   60.8480   34.2130   45.6490 O   0  0  0  0  0  0  0  0  0  0  0  0
   59.6580   36.2320   46.3290 O   0  0  0  0  0  0  0  0  0  0  0  0
   60.0430   34.3790   48.2240 C   0  0  0  0  0  0  0  0  0  0  0  0
   61.3320   33.6210   48.3760 C   0  0  0  0  0  0  0  0  0  0  0  0
   62.4310   34.2100   49.0240 C   0  0  0  0  0  0  0  0  0  0  0  0
   63.6430   33.5200   49.1200 C   0  0  0  0  0  0  0  0  0  0  0  0
   63.7670   32.2410   48.5710 C   0  0  0  0  0  0  0  0  0  0  0  0
   62.6790   31.6480   47.9240 C   0  0  0  0  0  0  0  0  0  0  0  0
   61.4660   32.3360   47.8240 C   0  0  0  0  0  0  0  0  0  0  0  0
   58.2610   31.6490   46.6470 C   0  0  0  0  0  0  0  0  0  0  0  0
   58.0130   30.3330   46.2740 C   0  0  0  0  0  0  0  0  0  0  0  0
   58.2350   29.2290   47.0000 N   0  0  0  0  0  0  0  0  0  0  0  0
   58.9420   26.0010   45.6120 C   0  0  0  0  0  0  0  0  0  0  0  0
   60.2660   26.1740   46.3250 C   0  0  0  0  0  0  0  0  0  0  0  0
   59.8970   26.4260   47.7830 C   0  0  0  0  0  0  0  0  0  0  0  0
   58.4410   26.5680   47.8710 N   0  0  0  0  0  0  0  0  0  0  0  0
   56.1365   25.9439   47.3850 H   0  0  0  0  0  0  0  0  0  0  0  0
   55.8829   26.8142   45.8342 H   0  0  0  0  0  0  0  0  0  0  0  0
   56.6140   25.1735   45.8342 H   0  0  0  0  0  0  0  0  0  0  0  0
   55.8990   29.0960   41.4680 H   0  0  0  0  0  0  0  0  0  0  0  0
   56.0570   28.6180   43.1870 H   0  0  0  0  0  0  0  0  0  0  0  0
   57.3184   33.1147   43.6831 H   0  0  0  0  0  0  0  0  0  0  0  0
   60.1088   35.3216   48.7872 H   0  0  0  0  0  0  0  0  0  0  0  0
   59.2195   33.7618   48.6125 H   0  0  0  0  0  0  0  0  0  0  0  0
   62.3373   35.2169   49.4569 H   0  0  0  0  0  0  0  0  0  0  0  0
   64.5006   33.9847   49.6286 H   0  0  0  0  0  0  0  0  0  0  0  0
   64.7218   31.7002   48.6480 H   0  0  0  0  0  0  0  0  0  0  0  0
   62.7772   30.6404   47.4937 H   0  0  0  0  0  0  0  0  0  0  0  0
   60.6125   31.8690   47.3107 H   0  0  0  0  0  0  0  0  0  0  0  0
   58.6484   31.8913   47.6476 H   0  0  0  0  0  0  0  0  0  0  0  0
   58.6758   24.9365   45.5342 H   0  0  0  0  0  0  0  0  0  0  0  0
   58.9623   26.3849   44.5814 H   0  0  0  0  0  0  0  0  0  0  0  0
   60.8772   25.2642   46.2322 H   0  0  0  0  0  0  0  0  0  0  0  0
   60.8604   26.9964   45.9004 H   0  0  0  0  0  0  0  0  0  0  0  0
   60.2262   25.5783   48.4019 H   0  0  0  0  0  0  0  0  0  0  0  0
   60.3897   27.3400   48.1462 H   0  0  0  0  0  0  0  0  0  0  0  0
   58.1960   27.3770   48.4910 H   0  0  0  0  0  0  0  0  0  0  0  0
  2  1  1  1
  2  3  1  0
  3  4  2  0
  4  5  1  0
  5  6  2  0
  6  7  1  0
  7  8  1  0
  7  9  2  0
  6 10  1  0
 10 11  2  0
 11 12  1  0
 12 13  1  0
 13 14  2  0
 13 15  2  0
 13 16  1  0
 16 17  1  0
 17 18  2  0
 18 19  1  0
 19 20  2  0
 20 21  1  0
 21 22  2  0
 11 23  1  0
 23 24  2  0
 24 25  1  0
  2 26  1  0
 26 27  1  0
 27 28  1  0
 28 29  1  0
 29  2  1  0
 25  3  1  0
 24  5  1  0
 22 17  1  0
  1 30  1  0
  1 31  1  0
  1 32  1  0
  8 33  1  0
  8 34  1  0
 10 35  1  0
 16 36  1  0
 16 37  1  0
 18 38  1  0
 19 39  1  0
 20 40  1  0
 21 41  1  0
 22 42  1  0
 23 43  1  0
 26 44  1  0
 26 45  1  0
 27 46  1  0
 27 47  1  0
 28 48  1  0
 28 49  1  0
 29 50  1  0
M  CHG  2  12  -1  25  -1
M  END
>  <UniqueID>  (55) 
51

>  <SMILES>  (55) 
C[C@]1(c2nc3c(C(N)=O)cc([N-]S(=O)(=O)Cc4ccccc4)cc3[n-]2)CCCN1

>  <Energy>  (55) 
88.23163157629406

>  <Genealogy>  (55) 
CC1(c2nc3c(C(N)=O)cc([N-]S(=O)(=O)Cc4ccccc4)cc3[n-]2)CCCN1 (protonated)
C[C@]1(c2nc3c(C(N)=O)cc([N-]S(=O)(=O)Cc4ccccc4)cc3[n-]2)CCCN1 (chirality)
C[C@]1(c2nc3c(C(N)=O)cc([N-]S(=O)(=O)Cc4ccccc4)cc3[n-]2)CCCN1 (3D coordinates assigned)
C[C@]1(c2nc3c(C(N)=O)cc([N-]S(=O)(=O)Cc4ccccc4)cc3[n-]2)CCCN1 (nonaromatic ring conformer: 88.23163157629406 kcal/mol)

>  <smiles>  (55) 
CC1(c2nc3c(C(N)=O)cc(NS(=O)(=O)Cc4ccccc4)cc3[nH]2)CCCN1

>  <score_type>  (55) 
oracle

>  <origin>  (55) 
adg

>  <m_score__min__energy>  (55) 
-12.460000000000001

>  <m_primary>  (55) 
energy

$$$$
55:0
     RDKit          3D

 30 31  0  0  0  0  0  0  0  0999 V2000
   61.7210   34.2050   49.3350 C   0  0  0  0  0  0  0  0  0  0  0  0
   60.2260   34.1520   49.2290 C   0  0  0  0  0  0  0  0  0  0  0  0
   59.5480   34.2150   50.2910 O   0  0  0  0  0  0  0  0  0  0  0  0
   59.5330   34.0280   47.9180 C   0  0  0  0  0  0  0  0  0  0  0  0
   58.4370   33.1610   47.7470 C   0  0  0  0  0  0  0  0  0  0  0  0
   57.7980   33.0580   46.5080 C   0  0  0  0  0  0  0  0  0  0  0  0
   58.2330   33.8150   45.4160 C   0  0  0  0  0  0  0  0  0  0  0  0
   57.5510   33.6730   44.1960 O   0  0  0  0  0  0  0  0  0  0  0  0
   57.7700   32.6310   43.2460 C   0  0  0  0  0  0  0  0  0  0  0  0
   57.3840   31.3060   43.8240 C   0  0  0  0  0  0  0  0  0  0  0  0
   58.1170   30.1850   43.7220 N   0  0  0  0  0  0  0  0  0  0  0  0
   57.3730   29.2880   44.3940 C   0  0  0  0  0  0  0  0  0  0  0  0
   57.7160   27.8410   44.5190 C   0  0  0  0  0  0  0  0  0  0  0  0
   56.2350   29.8350   44.8690 N   0  0  0  0  0  0  0  0  0  0  0  0
   56.2830   31.0840   44.5030 O   0  0  0  0  0  0  0  0  0  0  0  0
   59.3300   34.6800   45.5780 C   0  0  0  0  0  0  0  0  0  0  0  0
   59.9700   34.7860   46.8160 C   0  0  0  0  0  0  0  0  0  0  0  0
   62.0133   34.2154   50.3954 H   0  0  0  0  0  0  0  0  0  0  0  0
   62.1550   33.3217   48.8437 H   0  0  0  0  0  0  0  0  0  0  0  0
   62.0913   35.1168   48.8437 H   0  0  0  0  0  0  0  0  0  0  0  0
   58.0803   32.5593   48.5960 H   0  0  0  0  0  0  0  0  0  0  0  0
   56.9442   32.3744   46.3910 H   0  0  0  0  0  0  0  0  0  0  0  0
   57.1635   32.8253   42.3491 H   0  0  0  0  0  0  0  0  0  0  0  0
   58.8379   32.6073   42.9834 H   0  0  0  0  0  0  0  0  0  0  0  0
   59.0300   30.0430   43.2340 H   0  0  0  0  0  0  0  0  0  0  0  0
   57.7802   27.5700   45.5832 H   0  0  0  0  0  0  0  0  0  0  0  0
   56.9364   27.2361   44.0330 H   0  0  0  0  0  0  0  0  0  0  0  0
   58.6842   27.6504   44.0330 H   0  0  0  0  0  0  0  0  0  0  0  0
   59.6864   35.2766   44.7254 H   0  0  0  0  0  0  0  0  0  0  0  0
   60.8245   35.4693   46.9301 H   0  0  0  0  0  0  0  0  0  0  0  0
  1  2  1  0
  2  3  2  0
  2  4  1  0
  4  5  2  0
  5  6  1  0
  6  7  2  0
  7  8  1  0
  8  9  1  0
  9 10  1  0
 10 11  2  0
 11 12  1  0
 12 13  1  0
 12 14  2  0
 14 15  1  0
  7 16  1  0
 16 17  2  0
 17  4  1  0
 15 10  1  0
  1 18  1  0
  1 19  1  0
  1 20  1  0
  5 21  1  0
  6 22  1  0
  9 23  1  0
  9 24  1  0
 11 25  1  0
 13 26  1  0
 13 27  1  0
 13 28  1  0
 16 29  1  0
 17 30  1  0
M  CHG  1  11   1
M  END
>  <UniqueID>  (56) 
52

>  <SMILES>  (56) 
CC(=O)c1ccc(OCc2[nH+]c(C)no2)cc1

>  <Energy>  (56) 
62.80337761351029

>  <Genealogy>  (56) 
CC(=O)c1ccc(OCc2[nH+]c(C)no2)cc1 (protonated)
CC(=O)c1ccc(OCc2[nH+]c(C)no2)cc1 (3D coordinates assigned)
CC(=O)c1ccc(OCc2[nH+]c(C)no2)cc1 (optimized conformer: 62.80337761351029 kcal/mol)

>  <smiles>  (56) 
CC(=O)c1ccc(OCc2nc(C)no2)cc1

>  <score_type>  (56) 
oracle

>  <origin>  (56) 
adg

>  <m_score__min__energy>  (56) 
-5.3700000000000001

>  <m_primary>  (56) 
energy

$$$$
56:0
     RDKit          3D

 42 44  0  0  0  0  0  0  0  0999 V2000
   57.0940   31.5850   41.8970 C   0  0  0  0  0  0  0  0  0  0  0  0
   57.4950   31.7170   43.3430 C   0  0  0  0  0  0  0  0  0  0  0  0
   58.0860   32.9140   43.7830 C   0  0  0  0  0  0  0  0  0  0  0  0
   58.4670   33.0710   45.1170 C   0  0  0  0  0  0  0  0  0  0  0  0
   58.2610   32.0370   46.0290 C   0  0  0  0  0  0  0  0  0  0  0  0
   57.6650   30.8450   45.6140 C   0  0  0  0  0  0  0  0  0  0  0  0
   57.2580   30.6760   44.2770 C   0  0  0  0  0  0  0  0  0  0  0  0
   56.6390   29.3640   43.8670 C   0  0  0  0  0  0  0  0  0  0  0  0
   55.9400   28.7820   45.0060 N   0  0  0  0  0  0  0  0  0  0  0  0
   56.2820   27.5360   45.6250 C   0  0  0  0  0  0  0  0  0  0  0  0
   55.3690   26.6990   45.8480 O   0  0  0  0  0  0  0  0  0  0  0  0
   57.6730   27.1920   45.9790 C   0  0  0  0  0  0  0  0  0  0  0  0
   58.2040   25.9350   45.6550 C   0  0  0  0  0  0  0  0  0  0  0  0
   59.5190   25.6180   45.9990 C   0  0  0  0  0  0  0  0  0  0  0  0
   60.3220   26.5610   46.6460 C   0  0  0  0  0  0  0  0  0  0  0  0
   59.8230   27.8390   46.9360 C   0  0  0  0  0  0  0  0  0  0  0  0
   60.6660   28.7870   47.6140 N   0  0  0  0  0  0  0  0  0  0  0  0
   60.9930   30.0860   47.0940 C   0  0  0  0  0  0  0  0  0  0  0  0
   60.7480   30.3750   45.8920 O   0  0  0  0  0  0  0  0  0  0  0  0
   61.6570   31.0760   47.9550 C   0  0  0  0  0  0  0  0  0  0  0  0
   62.0450   32.3480   47.5790 C   0  0  0  0  0  0  0  0  0  0  0  0
   62.6170   32.9080   48.7010 C   0  0  0  0  0  0  0  0  0  0  0  0
   62.5430   31.9490   49.6890 C   0  0  0  0  0  0  0  0  0  0  0  0
   61.9660   30.8680   49.2150 O   0  0  0  0  0  0  0  0  0  0  0  0
   58.4890   28.1450   46.6100 C   0  0  0  0  0  0  0  0  0  0  0  0
   56.0508   31.2416   41.8357 H   0  0  0  0  0  0  0  0  0  0  0  0
   57.1884   32.5616   41.3997 H   0  0  0  0  0  0  0  0  0  0  0  0
   57.7500   30.8554   41.3997 H   0  0  0  0  0  0  0  0  0  0  0  0
   58.2499   33.7350   43.0695 H   0  0  0  0  0  0  0  0  0  0  0  0
   58.9303   34.0119   45.4488 H   0  0  0  0  0  0  0  0  0  0  0  0
   58.5688   32.1607   47.0778 H   0  0  0  0  0  0  0  0  0  0  0  0
   57.5121   30.0309   46.3377 H   0  0  0  0  0  0  0  0  0  0  0  0
   55.9260   29.5349   43.0470 H   0  0  0  0  0  0  0  0  0  0  0  0
   57.4273   28.6755   43.5285 H   0  0  0  0  0  0  0  0  0  0  0  0
   57.5820   25.1965   45.1280 H   0  0  0  0  0  0  0  0  0  0  0  0
   59.9242   24.6236   45.7603 H   0  0  0  0  0  0  0  0  0  0  0  0
   61.3520   26.2992   46.9296 H   0  0  0  0  0  0  0  0  0  0  0  0
   61.1390   28.4780   48.4930 H   0  0  0  0  0  0  0  0  0  0  0  0
   61.9229   32.8157   46.5909 H   0  0  0  0  0  0  0  0  0  0  0  0
   63.0462   33.9169   48.7903 H   0  0  0  0  0  0  0  0  0  0  0  0
   62.9113   32.0706   50.7183 H   0  0  0  0  0  0  0  0  0  0  0  0
   58.0821   29.1381   46.8512 H   0  0  0  0  0  0  0  0  0  0  0  0
  1  2  1  0
  2  3  2  0
  3  4  1  0
  4  5  2  0
  5  6  1  0
  6  7  2  0
  7  8  1  0
  8  9  1  0
  9 10  1  0
 10 11  2  0
 10 12  1  0
 12 13  2  0
 13 14  1  0
 14 15  2  0
 15 16  1  0
 16 17  1  0
 17 18  1  0
 18 19  2  0
 18 20  1  0
 20 21  2  0
 21 22  1  0
 22 23  2  0
 23 24  1  0
 16 25  2  0
  7  2  1  0
 25 12  1  0
 24 20  1  0
  1 26  1  0
  1 27  1  0
  1 28  1  0
  3 29  1  0
  4 30  1  0
  5 31  1  0
  6 32  1  0
  8 33  1  0
  8 34  1  0
 13 35  1  0
 14 36  1  0
 15 37  1  0
 17 38  1  0
 21 39  1  0
 22 40  1  0
 23 41  1  0
 25 42  1  0
M  CHG  1   9  -1
M  END
>  <UniqueID>  (57) 
53

>  <SMILES>  (57) 
Cc1ccccc1C[N-]C(=O)c1cccc(NC(=O)c2ccco2)c1

>  <Energy>  (57) 
77.02600844651738

>  <Genealogy>  (57) 
Cc1ccccc1C[N-]C(=O)c1cccc(NC(=O)c2ccco2)c1 (protonated)
Cc1ccccc1C[N-]C(=O)c1cccc(NC(=O)c2ccco2)c1 (3D coordinates assigned)
Cc1ccccc1C[N-]C(=O)c1cccc(NC(=O)c2ccco2)c1 (optimized conformer: 77.02600844651738 kcal/mol)

>  <smiles>  (57) 
Cc1ccccc1CNC(=O)c1cccc(NC(=O)c2ccco2)c1

>  <score_type>  (57) 
oracle

>  <origin>  (57) 
adg

>  <m_score__min__energy>  (57) 
-10

>  <m_primary>  (57) 
energy

$$$$
57:0
     RDKit          3D

 61 66  0  0  0  0  0  0  0  0999 V2000
   56.2580   30.3600   42.0620 O   0  0  0  0  0  0  0  0  0  0  0  0
   56.7050   30.3050   43.2410 C   0  0  0  0  0  0  0  0  0  0  0  0
   56.6000   29.1180   43.9770 O   0  0  0  0  0  0  0  0  0  0  0  0
   57.6960   28.2360   44.2050 C   0  0  0  0  0  0  0  0  0  0  0  0
   58.3780   28.5760   45.4980 C   0  0  0  0  0  0  0  0  0  0  0  0
   59.4860   29.4350   45.5250 C   0  0  0  0  0  0  0  0  0  0  0  0
   60.1150   29.7090   46.7460 C   0  0  0  0  0  0  0  0  0  0  0  0
   61.2270   30.5640   46.8060 C   0  0  0  0  0  0  0  0  0  0  0  0
   61.8440   30.8240   48.0340 C   0  0  0  0  0  0  0  0  0  0  0  0
   61.3590   30.2350   49.2050 C   0  0  0  0  0  0  0  0  0  0  0  0
   60.2530   29.3800   49.1570 C   0  0  0  0  0  0  0  0  0  0  0  0
   59.6270   29.1130   47.9300 C   0  0  0  0  0  0  0  0  0  0  0  0
   58.5200   28.2580   47.8540 C   0  0  0  0  0  0  0  0  0  0  0  0
   57.9310   28.0110   46.6540 N   0  0  0  0  0  0  0  0  0  0  0  0
   57.3440   31.4920   43.8490 C   0  0  0  0  0  0  0  0  0  0  0  0
   57.1200   31.8150   45.2000 C   0  0  0  0  0  0  0  0  0  0  0  0
   57.7300   32.9350   45.7720 C   0  0  0  0  0  0  0  0  0  0  0  0
   58.5660   33.7570   45.0030 C   0  0  0  0  0  0  0  0  0  0  0  0
   59.2580   34.9370   45.6300 C   0  0  0  0  0  0  0  0  0  0  0  0
   59.9550   34.5190   46.8950 C   0  0  0  0  0  0  0  0  0  0  0  0
   59.2600   34.5060   48.1140 C   0  0  0  0  0  0  0  0  0  0  0  0
   59.9120   34.1560   49.2990 C   0  0  0  0  0  0  0  0  0  0  0  0
   61.2780   33.8090   49.2860 C   0  0  0  0  0  0  0  0  0  0  0  0
   61.9880   33.4450   50.4530 C   0  0  0  0  0  0  0  0  0  0  0  0
   61.3410   33.3150   51.7770 C   0  0  0  0  0  0  0  0  0  0  0  0
   61.9940   33.7800   52.9310 C   0  0  0  0  0  0  0  0  0  0  0  0
   61.3920   33.6390   54.1860 C   0  0  0  0  0  0  0  0  0  0  0  0
   60.1410   33.0260   54.2980 C   0  0  0  0  0  0  0  0  0  0  0  0
   59.5600   32.8890   55.5150 F   0  0  0  0  0  0  0  0  0  0  0  0
   59.4910   32.5490   53.1560 C   0  0  0  0  0  0  0  0  0  0  0  0
   60.0900   32.6880   51.9000 C   0  0  0  0  0  0  0  0  0  0  0  0
   63.3600   33.1790   50.3490 C   0  0  0  0  0  0  0  0  0  0  0  0
   63.9820   33.2540   49.1010 C   0  0  0  0  0  0  0  0  0  0  0  0
   65.2110   33.0060   48.9960 O   0  0  0  0  0  0  0  0  0  0  0  0
   63.2840   33.5800   48.0200 O   0  0  0  0  0  0  0  0  0  0  0  0
   61.9850   33.8560   48.0600 C   0  0  0  0  0  0  0  0  0  0  0  0
   61.3220   34.2050   46.8780 C   0  0  0  0  0  0  0  0  0  0  0  0
   58.8020   33.4320   43.6590 C   0  0  0  0  0  0  0  0  0  0  0  0
   58.1930   32.3110   43.0860 C   0  0  0  0  0  0  0  0  0  0  0  0
   57.3255   27.2013   44.2513 H   0  0  0  0  0  0  0  0  0  0  0  0
   58.4175   28.3415   43.3814 H   0  0  0  0  0  0  0  0  0  0  0  0
   59.8580   29.8898   44.5951 H   0  0  0  0  0  0  0  0  0  0  0  0
   61.6130   31.0295   45.8871 H   0  0  0  0  0  0  0  0  0  0  0  0
   62.7146   31.4949   48.0783 H   0  0  0  0  0  0  0  0  0  0  0  0
   61.8486   30.4445   50.1675 H   0  0  0  0  0  0  0  0  0  0  0  0
   59.8743   28.9174   50.0804 H   0  0  0  0  0  0  0  0  0  0  0  0
   58.1269   27.7859   48.7664 H   0  0  0  0  0  0  0  0  0  0  0  0
   56.4599   31.1814   45.8106 H   0  0  0  0  0  0  0  0  0  0  0  0
   57.5532   33.1729   46.8313 H   0  0  0  0  0  0  0  0  0  0  0  0
   59.9983   35.3413   44.9239 H   0  0  0  0  0  0  0  0  0  0  0  0
   58.5090   35.7059   45.8704 H   0  0  0  0  0  0  0  0  0  0  0  0
   58.1933   34.7735   48.1367 H   0  0  0  0  0  0  0  0  0  0  0  0
   59.3558   34.1512   50.2480 H   0  0  0  0  0  0  0  0  0  0  0  0
   62.9819   34.2565   52.8474 H   0  0  0  0  0  0  0  0  0  0  0  0
   61.9039   34.0111   55.0857 H   0  0  0  0  0  0  0  0  0  0  0  0
   58.5077   32.0640   53.2454 H   0  0  0  0  0  0  0  0  0  0  0  0
   59.5793   32.3046   51.0044 H   0  0  0  0  0  0  0  0  0  0  0  0
   63.9424   32.9132   51.2435 H   0  0  0  0  0  0  0  0  0  0  0  0
   61.8769   34.2333   45.9287 H   0  0  0  0  0  0  0  0  0  0  0  0
   59.4694   34.0620   43.0527 H   0  0  0  0  0  0  0  0  0  0  0  0
   58.3802   32.0686   42.0295 H   0  0  0  0  0  0  0  0  0  0  0  0
  1  2  2  0
  2  3  1  0
  3  4  1  0
  4  5  1  0
  5  6  2  0
  6  7  1  0
  7  8  2  0
  8  9  1  0
  9 10  2  0
 10 11  1  0
 11 12  2  0
 12 13  1  0
 13 14  2  0
  2 15  1  0
 15 16  2  0
 16 17  1  0
 17 18  2  0
 18 19  1  0
 19 20  1  0
 20 21  2  0
 21 22  1  0
 22 23  2  0
 23 24  1  0
 24 25  1  0
 25 26  2  0
 26 27  1  0
 27 28  2  0
 28 29  1  0
 28 30  1  0
 30 31  2  0
 24 32  2  0
 32 33  1  0
 33 34  2  0
 33 35  1  0
 35 36  1  0
 36 37  2  0
 18 38  1  0
 38 39  2  0
 14  5  1  0
 39 15  1  0
 12  7  1  0
 37 20  1  0
 36 23  1  0
 31 25  1  0
  4 40  1  0
  4 41  1  0
  6 42  1  0
  8 43  1  0
  9 44  1  0
 10 45  1  0
 11 46  1  0
 13 47  1  0
 16 48  1  0
 17 49  1  0
 19 50  1  0
 19 51  1  0
 21 52  1  0
 22 53  1  0
 26 54  1  0
 27 55  1  0
 30 56  1  0
 31 57  1  0
 32 58  1  0
 37 59  1  0
 38 60  1  0
 39 61  1  0
M  END
>  <UniqueID>  (58) 
54

>  <SMILES>  (58) 
O=C(OCc1cc2ccccc2cn1)c1ccc(Cc2ccc3c(-c4ccc(F)cc4)cc(=O)oc3c2)cc1

>  <Energy>  (58) 
83.22397421373705

>  <Genealogy>  (58) 
O=C(OCc1cc2ccccc2cn1)c1ccc(Cc2ccc3c(-c4ccc(F)cc4)cc(=O)oc3c2)cc1 (3D coordinates assigned)
O=C(OCc1cc2ccccc2cn1)c1ccc(Cc2ccc3c(-c4ccc(F)cc4)cc(=O)oc3c2)cc1 (optimized conformer: 83.22397421373705 kcal/mol)

>  <smiles>  (58) 
O=C(OCc1cc2ccccc2cn1)c1ccc(Cc2ccc3c(-c4ccc(F)cc4)cc(=O)oc3c2)cc1

>  <score_type>  (58) 
oracle

>  <origin>  (58) 
adg

>  <m_score__min__energy>  (58) 
-10.640000000000001

>  <m_primary>  (58) 
energy

$$$$
58:0
     RDKit          3D

 37 39  0  0  0  0  0  0  0  0999 V2000
   56.9740   29.3730   52.0710 O   0  0  0  0  0  0  0  0  0  0  0  0
   56.3040   30.4390   52.0100 C   0  0  0  0  0  0  0  0  0  0  0  0
   56.8730   31.6100   51.3980 N   0  0  0  0  0  0  0  0  0  0  0  0
   58.0440   31.5910   50.5630 C   0  0  0  0  0  0  0  0  0  0  0  0
   59.1590   30.8000   50.8860 C   0  0  0  0  0  0  0  0  0  0  0  0
   60.2770   30.7840   50.0500 C   0  0  0  0  0  0  0  0  0  0  0  0
   60.2890   31.5440   48.8780 C   0  0  0  0  0  0  0  0  0  0  0  0
   59.1750   32.3240   48.5240 C   0  0  0  0  0  0  0  0  0  0  0  0
   59.1820   33.1240   47.2710 C   0  0  0  0  0  0  0  0  0  0  0  0
   59.7440   34.4110   47.2420 C   0  0  0  0  0  0  0  0  0  0  0  0
   59.7430   35.1510   46.0580 C   0  0  0  0  0  0  0  0  0  0  0  0
   59.1800   34.6000   44.9080 C   0  0  0  0  0  0  0  0  0  0  0  0
   58.6390   33.3540   44.9450 N   0  0  0  0  0  0  0  0  0  0  0  0
   58.6260   32.6130   46.0850 C   0  0  0  0  0  0  0  0  0  0  0  0
   58.0530   32.3340   49.3730 C   0  0  0  0  0  0  0  0  0  0  0  0
   54.9630   30.5010   52.6320 C   0  0  0  0  0  0  0  0  0  0  0  0
   54.8690   30.4260   53.8870 O   0  0  0  0  0  0  0  0  0  0  0  0
   53.7240   30.6290   51.8270 C   0  0  0  0  0  0  0  0  0  0  0  0
   53.4660   29.7120   50.7920 C   0  0  0  0  0  0  0  0  0  0  0  0
   52.2960   29.8110   50.0320 C   0  0  0  0  0  0  0  0  0  0  0  0
   51.3660   30.8160   50.3060 C   0  0  0  0  0  0  0  0  0  0  0  0
   51.6010   31.7220   51.3440 C   0  0  0  0  0  0  0  0  0  0  0  0
   50.6680   32.7130   51.6240 O   0  0  0  0  0  0  0  0  0  0  0  0
   52.7720   31.6280   52.1050 C   0  0  0  0  0  0  0  0  0  0  0  0
   56.4590   32.5410   51.6300 H   0  0  0  0  0  0  0  0  0  0  0  0
   59.1512   30.1905   51.8017 H   0  0  0  0  0  0  0  0  0  0  0  0
   61.1511   30.1711   50.3150 H   0  0  0  0  0  0  0  0  0  0  0  0
   61.1763   31.5318   48.2279 H   0  0  0  0  0  0  0  0  0  0  0  0
   60.1861   34.8371   48.1547 H   0  0  0  0  0  0  0  0  0  0  0  0
   60.1823   36.1592   46.0329 H   0  0  0  0  0  0  0  0  0  0  0  0
   59.1736   35.1743   43.9698 H   0  0  0  0  0  0  0  0  0  0  0  0
   58.1781   31.6083   46.0793 H   0  0  0  0  0  0  0  0  0  0  0  0
   57.1712   32.9323   49.1001 H   0  0  0  0  0  0  0  0  0  0  0  0
   54.1895   28.9114   50.5788 H   0  0  0  0  0  0  0  0  0  0  0  0
   52.1082   29.0962   49.2173 H   0  0  0  0  0  0  0  0  0  0  0  0
   50.4482   30.8946   49.7048 H   0  0  0  0  0  0  0  0  0  0  0  0
   52.9494   32.3391   52.9253 H   0  0  0  0  0  0  0  0  0  0  0  0
  1  2  2  0
  2  3  1  0
  3  4  1  0
  4  5  2  0
  5  6  1  0
  6  7  2  0
  7  8  1  0
  8  9  1  0
  9 10  2  0
 10 11  1  0
 11 12  2  0
 12 13  1  0
 13 14  2  0
  8 15  2  0
  2 16  1  0
 16 17  2  0
 16 18  1  0
 18 19  2  0
 19 20  1  0
 20 21  2  0
 21 22  1  0
 22 23  1  0
 22 24  2  0
 15  4  1  0
 24 18  1  0
 14  9  1  0
  3 25  1  0
  5 26  1  0
  6 27  1  0
  7 28  1  0
 10 29  1  0
 11 30  1  0
 12 31  1  0
 14 32  1  0
 15 33  1  0
 19 34  1  0
 20 35  1  0
 21 36  1  0
 24 37  1  0
M  CHG  1  23  -1
M  END
>  <UniqueID>  (59) 
55

>  <SMILES>  (59) 
O=C(Nc1cccc(-c2cccnc2)c1)C(=O)c1cccc([O-])c1

>  <Energy>  (59) 
53.63786852766415

>  <Genealogy>  (59) 
O=C(Nc1cccc(-c2cccnc2)c1)C(=O)c1cccc([O-])c1 (protonated)
O=C(Nc1cccc(-c2cccnc2)c1)C(=O)c1cccc([O-])c1 (3D coordinates assigned)
O=C(Nc1cccc(-c2cccnc2)c1)C(=O)c1cccc([O-])c1 (optimized conformer: 53.63786852766415 kcal/mol)

>  <smiles>  (59) 
O=C(Nc1cccc(-c2cccnc2)c1)C(=O)c1cccc(O)c1

>  <score_type>  (59) 
oracle

>  <origin>  (59) 
adg

>  <m_score__min__energy>  (59) 
-12.140000000000001

>  <m_primary>  (59) 
energy

$$$$
59:0
     RDKit          3D

 60 63  0  0  1  0  0  0  0  0999 V2000
   56.9970   21.5180   43.0090 C   0  0  0  0  0  0  0  0  0  0  0  0
   57.6260   22.5580   43.7560 N   0  0  0  0  0  0  0  0  0  0  0  0
   57.0140   23.8320   43.8700 C   0  0  0  0  0  0  0  0  0  0  0  0
   55.9230   24.0170   43.3040 O   0  0  0  0  0  0  0  0  0  0  0  0
   57.6030   24.9420   44.6190 C   0  0  0  0  0  0  0  0  0  0  0  0
   57.8520   24.7290   45.9620 C   0  0  0  0  0  0  0  0  0  0  0  0
   58.4160   25.7530   46.7310 C   0  0  0  0  0  0  0  0  0  0  0  0
   58.7310   26.9830   46.1760 C   0  0  0  0  0  0  0  0  0  0  0  0
   59.4350   28.2820   47.1120 S   0  0  0  0  0  0  0  0  0  0  0  0
   60.7470   29.0350   46.1690 C   0  0  0  0  0  0  0  0  0  0  0  0
   59.9690   27.7100   48.4030 O   0  0  0  0  0  0  0  0  0  0  0  0
   58.4390   29.3370   47.4310 O   0  0  0  0  0  0  0  0  0  0  0  0
   58.4720   27.1690   44.8330 C   0  0  0  0  0  0  0  0  0  0  0  0
   58.7550   28.3930   44.1530 N   0  0  0  0  0  0  0  0  0  0  0  0
   57.8810   29.3470   44.2570 C   0  0  0  0  0  0  0  0  0  0  0  0
   58.3200   30.5570   44.7450 C   0  0  0  0  0  0  0  0  0  0  0  0
   57.4330   31.6360   44.8870 C   0  0  0  0  0  0  0  0  0  0  0  0
   57.9110   32.8640   45.3860 N   0  0  0  0  0  0  0  0  0  0  0  0
   59.0340   33.0740   46.1980 C   0  0  0  0  0  0  0  0  0  0  0  0
   59.2470   32.5220   47.4340 C   0  0  0  0  0  0  0  0  0  0  0  0
   60.3800   32.7740   48.1930 C   0  0  0  0  0  0  0  0  0  0  0  0
   61.3770   33.6180   47.7240 C   0  0  0  0  0  0  0  0  0  0  0  0
   62.5460   33.8740   48.4860 N   0  0  0  0  0  0  0  0  0  0  0  0
   63.8790   33.4480   48.0770 C   0  0  0  0  0  0  0  0  0  0  0  0
   64.5790   32.6810   49.1990 C   0  0  0  0  0  0  0  0  0  0  0  0
   64.6130   33.5890   50.2750 O   0  0  0  0  0  0  0  0  0  0  0  0
   63.3240   33.7740   50.7460 C   0  0  0  0  0  0  0  0  0  0  0  0
   62.4970   34.5890   49.7660 C   0  0  0  0  0  0  0  0  0  0  0  0
   61.1780   34.1770   46.4870 C   0  0  0  0  0  0  0  0  0  0  0  0
   60.0420   33.9210   45.7320 C   0  0  0  0  0  0  0  0  0  0  0  0
   56.1720   31.3780   44.5160 N   0  0  0  0  0  0  0  0  0  0  0  0
   55.7490   30.1930   44.0390 C   0  0  0  0  0  0  0  0  0  0  0  0
   56.5870   29.1470   43.8970 N   0  0  0  0  0  0  0  0  0  0  0  0
   57.9090   26.1580   44.0450 C   0  0  0  0  0  0  0  0  0  0  0  0
   56.5543   20.7860   43.7006 H   0  0  0  0  0  0  0  0  0  0  0  0
   56.2073   21.9478   42.3752 H   0  0  0  0  0  0  0  0  0  0  0  0
   57.7444   21.0182   42.3752 H   0  0  0  0  0  0  0  0  0  0  0  0
   58.5400   22.3770   44.2190 H   0  0  0  0  0  0  0  0  0  0  0  0
   57.6083   23.7606   46.4233 H   0  0  0  0  0  0  0  0  0  0  0  0
   58.6135   25.5778   47.7988 H   0  0  0  0  0  0  0  0  0  0  0  0
   61.4927   29.4630   46.8551 H   0  0  0  0  0  0  0  0  0  0  0  0
   61.2260   28.2744   45.5350 H   0  0  0  0  0  0  0  0  0  0  0  0
   60.3319   29.8323   45.5350 H   0  0  0  0  0  0  0  0  0  0  0  0
   59.3763   30.6797   45.0265 H   0  0  0  0  0  0  0  0  0  0  0  0
   57.3500   33.7230   45.1090 H   0  0  0  0  0  0  0  0  0  0  0  0
   58.4821   31.8461   47.8441 H   0  0  0  0  0  0  0  0  0  0  0  0
   60.4899   32.2990   49.1791 H   0  0  0  0  0  0  0  0  0  0  0  0
   63.7932   32.7961   47.1951 H   0  0  0  0  0  0  0  0  0  0  0  0
   64.4745   34.3419   47.8399 H   0  0  0  0  0  0  0  0  0  0  0  0
   64.0095   31.7792   49.4684 H   0  0  0  0  0  0  0  0  0  0  0  0
   65.5826   32.3364   48.9090 H   0  0  0  0  0  0  0  0  0  0  0  0
   62.8487   32.7922   50.8880 H   0  0  0  0  0  0  0  0  0  0  0  0
   63.3747   34.3197   51.6998 H   0  0  0  0  0  0  0  0  0  0  0  0
   61.4579   34.6671   50.1183 H   0  0  0  0  0  0  0  0  0  0  0  0
   62.8907   35.6113   49.6665 H   0  0  0  0  0  0  0  0  0  0  0  0
   61.9455   34.8515   46.0795 H   0  0  0  0  0  0  0  0  0  0  0  0
   59.9332   34.3953   44.7455 H   0  0  0  0  0  0  0  0  0  0  0  0
   54.6921   30.0750   43.7577 H   0  0  0  0  0  0  0  0  0  0  0  0
   56.2860   28.2220   43.5320 H   0  0  0  0  0  0  0  0  0  0  0  0
   57.7124   26.3322   42.9768 H   0  0  0  0  0  0  0  0  0  0  0  0
  1  2  1  0
  2  3  1  0
  3  4  2  0
  3  5  1  0
  5  6  2  0
  6  7  1  0
  7  8  2  0
  8  9  1  0
  9 10  1  0
  9 11  2  0
  9 12  2  0
  8 13  1  0
 13 14  1  0
 14 15  2  0
 15 16  1  0
 16 17  2  0
 17 18  1  0
 18 19  1  0
 19 20  2  0
 20 21  1  0
 21 22  2  0
 22 23  1  0
 23 24  1  0
 24 25  1  0
 25 26  1  0
 26 27  1  0
 27 28  1  0
 22 29  1  0
 29 30  2  0
 17 31  1  0
 31 32  2  0
 32 33  1  0
 13 34  2  0
 34  5  1  0
 33 15  1  0
 30 19  1  0
 28 23  1  0
  1 35  1  0
  1 36  1  0
  1 37  1  0
  2 38  1  0
  6 39  1  0
  7 40  1  0
 10 41  1  0
 10 42  1  0
 10 43  1  0
 16 44  1  0
 18 45  1  0
 20 46  1  0
 21 47  1  0
 24 48  1  0
 24 49  1  0
 25 50  1  0
 25 51  1  0
 27 52  1  0
 27 53  1  0
 28 54  1  0
 28 55  1  0
 29 56  1  0
 30 57  1  0
 32 58  1  0
 33 59  1  0
 34 60  1  0
M  END
>  <smiles>  (60) 
CNC(=O)c1ccc(S(C)(=O)=O)c(N=c2cc(Nc3ccc(N4CCOCC4)cc3)nc[nH]2)c1

>  <score_type>  (60) 
oracle

>  <origin>  (60) 
adg

>  <m_score__min__energy>  (60) 
-9.4499999999999993

>  <m_primary>  (60) 
energy

$$$$
60:0
     RDKit          3D

 17 18  0  0  0  0  0  0  0  0999 V2000
   55.2770   28.9810   44.4830 O   0  0  0  0  0  0  0  0  0  0  0  0
   56.0250   29.9610   44.2280 C   0  0  0  0  0  0  0  0  0  0  0  0
   56.6350   30.6230   45.2450 N   0  0  0  0  0  0  0  0  0  0  0  0
   57.4470   31.6840   45.0040 C   0  0  0  0  0  0  0  0  0  0  0  0
   58.0650   32.3510   46.0690 C   0  0  0  0  0  0  0  0  0  0  0  0
   58.9020   33.4430   45.8190 C   0  0  0  0  0  0  0  0  0  0  0  0
   59.1240   33.8720   44.5070 C   0  0  0  0  0  0  0  0  0  0  0  0
   58.5120   33.2120   43.4370 C   0  0  0  0  0  0  0  0  0  0  0  0
   57.6690   32.1130   43.6780 C   0  0  0  0  0  0  0  0  0  0  0  0
   57.0270   31.4110   42.6430 C   0  0  0  0  0  0  0  0  0  0  0  0
   57.1890   31.7510   41.4390 O   0  0  0  0  0  0  0  0  0  0  0  0
   56.2220   30.3540   42.9400 N   0  0  0  0  0  0  0  0  0  0  0  0
   57.8920   32.0159   47.1023 H   0  0  0  0  0  0  0  0  0  0  0  0
   59.3869   33.9657   46.6566 H   0  0  0  0  0  0  0  0  0  0  0  0
   59.7826   34.7320   44.3158 H   0  0  0  0  0  0  0  0  0  0  0  0
   58.6902   33.5527   42.4064 H   0  0  0  0  0  0  0  0  0  0  0  0
   55.7470   29.8350   42.1660 H   0  0  0  0  0  0  0  0  0  0  0  0
  1  2  2  0
  2  3  1  0
  3  4  1  0
  4  5  2  0
  5  6  1  0
  6  7  2  0
  7  8  1  0
  8  9  2  0
  9 10  1  0
 10 11  2  0
 10 12  1  0
 12  2  1  0
  9  4  1  0
  5 13  1  0
  6 14  1  0
  7 15  1  0
  8 16  1  0
 12 17  1  0
M  CHG  1   3  -1
M  END
>  <UniqueID>  (61) 
56

>  <SMILES>  (61) 
O=c1[n-]c2ccccc2c(=O)[nH]1

>  <Energy>  (61) 
22.504894250814157

>  <Genealogy>  (61) 
O=c1[n-]c2ccccc2c(=O)[nH]1 (protonated)
O=c1[n-]c2ccccc2c(=O)[nH]1 (3D coordinates assigned)
O=c1[n-]c2ccccc2c(=O)[nH]1 (optimized conformer: 22.504894250814157 kcal/mol)

>  <smiles>  (61) 
O=c1[nH]c(=O)c2ccccc2[nH]1

>  <score_type>  (61) 
oracle

>  <origin>  (61) 
adg

>  <m_score__min__energy>  (61) 
-7.3399999999999999

>  <m_primary>  (61) 
energy

$$$$
61:0
     RDKit          3D

 46 48  0  0  0  0  0  0  0  0999 V2000
   60.0090   33.3150   50.7910 C   0  0  0  0  0  0  0  0  0  0  0  0
   61.0180   32.8500   49.8170 N   0  0  0  0  0  0  0  0  0  0  0  0
   61.8490   31.7960   50.1240 C   0  0  0  0  0  0  0  0  0  0  0  0
   61.7560   31.0350   51.4350 C   0  0  0  0  0  0  0  0  0  0  0  0
   61.4620   29.5710   51.2230 C   0  0  0  0  0  0  0  0  0  0  0  0
   62.2850   28.6960   51.6030 O   0  0  0  0  0  0  0  0  0  0  0  0
   60.3400   29.1680   50.4280 N   0  0  0  0  0  0  0  0  0  0  0  0
   59.9680   29.6840   49.2910 C   0  0  0  0  0  0  0  0  0  0  0  0
   60.5370   29.3050   48.0630 C   0  0  0  0  0  0  0  0  0  0  0  0
   60.0910   29.9070   46.8890 C   0  0  0  0  0  0  0  0  0  0  0  0
   59.0820   30.8700   46.9550 C   0  0  0  0  0  0  0  0  0  0  0  0
   58.5910   31.5440   45.7390 C   0  0  0  0  0  0  0  0  0  0  0  0
   58.9310   32.8940   45.5470 C   0  0  0  0  0  0  0  0  0  0  0  0
   58.5210   33.5720   44.3980 C   0  0  0  0  0  0  0  0  0  0  0  0
   57.7650   32.9130   43.4310 C   0  0  0  0  0  0  0  0  0  0  0  0
   57.4010   31.5780   43.6140 C   0  0  0  0  0  0  0  0  0  0  0  0
   57.7940   30.8820   44.7690 C   0  0  0  0  0  0  0  0  0  0  0  0
   57.2300   29.2150   44.9810 S   0  0  0  0  0  0  0  0  0  0  0  0
   55.5100   29.1600   44.8400 N   0  0  0  0  0  0  0  0  0  0  0  0
   57.8540   28.3190   43.9490 O   0  0  0  0  0  0  0  0  0  0  0  0
   57.6270   28.7150   46.3420 O   0  0  0  0  0  0  0  0  0  0  0  0
   58.5880   31.2290   48.1690 N   0  0  0  0  0  0  0  0  0  0  0  0
   59.0160   30.6560   49.2950 N   0  0  0  0  0  0  0  0  0  0  0  0
   62.7900   31.3660   49.1880 C   0  0  0  0  0  0  0  0  0  0  0  0
   62.9050   32.0330   47.9760 C   0  0  0  0  0  0  0  0  0  0  0  0
   63.7470   31.6210   47.1310 O   0  0  0  0  0  0  0  0  0  0  0  0
   62.1180   33.1200   47.7120 N   0  0  0  0  0  0  0  0  0  0  0  0
   62.2380   33.8190   46.4190 C   0  0  0  0  0  0  0  0  0  0  0  0
   61.1680   33.5150   48.6210 C   0  0  0  0  0  0  0  0  0  0  0  0
   60.4240   34.5000   48.3510 O   0  0  0  0  0  0  0  0  0  0  0  0
   60.3795   33.1442   51.8126 H   0  0  0  0  0  0  0  0  0  0  0  0
   59.8241   34.3892   50.6428 H   0  0  0  0  0  0  0  0  0  0  0  0
   59.0722   32.7578   50.6428 H   0  0  0  0  0  0  0  0  0  0  0  0
   62.7129   31.1307   51.9690 H   0  0  0  0  0  0  0  0  0  0  0  0
   60.9282   31.4652   52.0178 H   0  0  0  0  0  0  0  0  0  0  0  0
   61.3270   28.5403   48.0295 H   0  0  0  0  0  0  0  0  0  0  0  0
   60.5291   29.6267   45.9197 H   0  0  0  0  0  0  0  0  0  0  0  0
   59.5251   33.4206   46.3084 H   0  0  0  0  0  0  0  0  0  0  0  0
   58.7951   34.6278   44.2558 H   0  0  0  0  0  0  0  0  0  0  0  0
   57.4540   33.4463   42.5206 H   0  0  0  0  0  0  0  0  0  0  0  0
   56.8011   31.0665   42.8469 H   0  0  0  0  0  0  0  0  0  0  0  0
   55.1540   28.5950   45.6440 H   0  0  0  0  0  0  0  0  0  0  0  0
   63.4366   30.5040   49.4090 H   0  0  0  0  0  0  0  0  0  0  0  0
   62.4217   34.8890   46.5963 H   0  0  0  0  0  0  0  0  0  0  0  0
   63.0761   33.3927   45.8481 H   0  0  0  0  0  0  0  0  0  0  0  0
   61.3057   33.6967   45.8481 H   0  0  0  0  0  0  0  0  0  0  0  0
  1  2  1  0
  2  3  1  0
  3  4  1  0
  4  5  1  0
  5  6  2  0
  5  7  1  0
  7  8  2  3
  8  9  1  0
  9 10  2  0
 10 11  1  0
 11 12  1  0
 12 13  2  0
 13 14  1  0
 14 15  2  0
 15 16  1  0
 16 17  2  0
 17 18  1  0
 18 19  1  0
 18 20  2  0
 18 21  2  0
 11 22  2  0
 22 23  1  0
  3 24  2  0
 24 25  1  0
 25 26  2  0
 25 27  1  0
 27 28  1  0
 27 29  1  0
 29 30  2  0
 29  2  1  0
 23  8  1  0
 17 12  1  0
  1 31  1  0
  1 32  1  0
  1 33  1  0
  4 34  1  0
  4 35  1  0
  9 36  1  0
 10 37  1  0
 13 38  1  0
 14 39  1  0
 15 40  1  0
 16 41  1  0
 19 42  1  0
 24 43  1  0
 28 44  1  0
 28 45  1  0
 28 46  1  0
M  CHG  2  19  -1  23  -1
M  END
>  <UniqueID>  (62) 
57

>  <SMILES>  (62) 
Cn1c(CC(=O)N=c2ccc(-c3ccccc3S([NH-])(=O)=O)n[n-]2)cc(=O)n(C)c1=O

>  <Energy>  (62) 
76.63243616372067

>  <Genealogy>  (62) 
Cn1c(CC(=O)N=c2ccc(-c3ccccc3S([NH-])(=O)=O)n[n-]2)cc(=O)n(C)c1=O (protonated)
Cn1c(CC(=O)N=c2ccc(-c3ccccc3S([NH-])(=O)=O)n[n-]2)cc(=O)n(C)c1=O (3D coordinates assigned)
Cn1c(CC(=O)N=c2ccc(-c3ccccc3S([NH-])(=O)=O)n[n-]2)cc(=O)n(C)c1=O (optimized conformer: 76.63243616372067 kcal/mol)

>  <smiles>  (62) 
Cn1c(CC(=O)N=c2ccc(-c3ccccc3S(N)(=O)=O)n[nH]2)cc(=O)n(C)c1=O

>  <score_type>  (62) 
oracle

>  <origin>  (62) 
adg

>  <m_score__min__energy>  (62) 
-12.49

>  <m_primary>  (62) 
energy

$$$$
62:0
     RDKit          3D

 32 34  0  0  0  0  0  0  0  0999 V2000
   56.5240   30.7590   44.6980 O   0  0  0  0  0  0  0  0  0  0  0  0
   57.6380   30.3060   45.0790 C   0  0  0  0  0  0  0  0  0  0  0  0
   58.8640   31.1550   44.9290 C   0  0  0  0  0  0  0  0  0  0  0  0
   59.9110   30.8610   46.0200 C   0  0  1  0  0  0  0  0  0  0  0  0
   59.5640   31.5450   47.3380 C   0  0  0  0  0  0  0  0  0  0  0  0
   59.2560   30.7500   48.4610 C   0  0  0  0  0  0  0  0  0  0  0  0
   58.9640   31.3400   49.6940 C   0  0  0  0  0  0  0  0  0  0  0  0
   58.9860   32.7290   49.8290 C   0  0  0  0  0  0  0  0  0  0  0  0
   59.3040   33.5300   48.7320 C   0  0  0  0  0  0  0  0  0  0  0  0
   59.5970   32.9470   47.4960 C   0  0  0  0  0  0  0  0  0  0  0  0
   60.1990   29.3460   46.1540 C   0  0  0  0  0  0  0  0  0  0  0  0
   58.9650   28.4790   46.1480 C   0  0  0  0  0  0  0  0  0  0  0  0
   59.0550   27.2140   46.6390 N   0  0  0  0  0  0  0  0  0  0  0  0
   58.0010   26.3580   46.6550 C   0  0  0  0  0  0  0  0  0  0  0  0
   58.1630   25.2030   47.1320 O   0  0  0  0  0  0  0  0  0  0  0  0
   56.7510   26.7660   46.1430 C   0  0  0  0  0  0  0  0  0  0  0  0
   55.5680   25.8660   46.1420 C   0  0  0  0  0  0  0  0  0  0  0  0
   54.4110   26.3340   45.9650 O   0  0  0  0  0  0  0  0  0  0  0  0
   55.7090   24.4960   46.3360 O   0  0  0  0  0  0  0  0  0  0  0  0
   56.6420   28.0660   45.6190 C   0  0  0  0  0  0  0  0  0  0  0  0
   57.7480   28.9290   45.6080 C   0  0  0  0  0  0  0  0  0  0  0  0
   59.3132   30.9581   43.9444 H   0  0  0  0  0  0  0  0  0  0  0  0
   58.5604   32.2077   45.0266 H   0  0  0  0  0  0  0  0  0  0  0  0
   60.8632   31.3090   45.6997 H   0  0  0  0  0  0  0  0  0  0  0  0
   59.2454   29.6542   48.3658 H   0  0  0  0  0  0  0  0  0  0  0  0
   58.7163   30.7083   50.5598 H   0  0  0  0  0  0  0  0  0  0  0  0
   58.7528   33.1916   50.7994 H   0  0  0  0  0  0  0  0  0  0  0  0
   59.3242   34.6245   48.8402 H   0  0  0  0  0  0  0  0  0  0  0  0
   59.8555   33.5864   46.6391 H   0  0  0  0  0  0  0  0  0  0  0  0
   60.8390   29.0409   45.3130 H   0  0  0  0  0  0  0  0  0  0  0  0
   60.6820   29.2014   47.1317 H   0  0  0  0  0  0  0  0  0  0  0  0
   55.6792   28.4102   45.2133 H   0  0  0  0  0  0  0  0  0  0  0  0
  1  2  2  0
  2  3  1  0
  3  4  1  0
  4  5  1  0
  5  6  2  0
  6  7  1  0
  7  8  2  0
  8  9  1  0
  9 10  2  0
  4 11  1  0
 11 12  1  0
 12 13  1  0
 13 14  1  0
 14 15  2  0
 14 16  1  0
 16 17  1  0
 17 18  2  0
 17 19  1  0
 16 20  2  0
 20 21  1  0
 21  2  1  0
 10  5  1  0
 21 12  2  0
  3 22  1  0
  3 23  1  0
  4 24  1  6
  6 25  1  0
  7 26  1  0
  8 27  1  0
  9 28  1  0
 10 29  1  0
 11 30  1  0
 11 31  1  0
 20 32  1  0
M  CHG  2  13  -1  19  -1
M  END
>  <UniqueID>  (63) 
58

>  <SMILES>  (63) 
O=C1C[C@@H](c2ccccc2)Cc2[n-]c(=O)c(C(=O)[O-])cc21

>  <Energy>  (63) 
41.77634437543891

>  <Genealogy>  (63) 
O=C1CC(c2ccccc2)Cc2[n-]c(=O)c(C(=O)[O-])cc21 (protonated)
O=C1C[C@@H](c2ccccc2)Cc2[n-]c(=O)c(C(=O)[O-])cc21 (chirality)
O=C1C[C@@H](c2ccccc2)Cc2[n-]c(=O)c(C(=O)[O-])cc21 (3D coordinates assigned)
O=C1C[C@@H](c2ccccc2)Cc2[n-]c(=O)c(C(=O)[O-])cc21 (nonaromatic ring conformer: 41.77634437543891 kcal/mol)

>  <smiles>  (63) 
O=C1CC(c2ccccc2)Cc2[nH]c(=O)c(C(=O)O)cc21

>  <score_type>  (63) 
oracle

>  <origin>  (63) 
adg

>  <m_score__min__energy>  (63) 
-10.9

>  <m_primary>  (63) 
energy

$$$$
63:0
     RDKit          3D

 49 52  0  0  0  0  0  0  0  0999 V2000
   63.9540   31.4690   50.7820 C   0  0  0  0  0  0  0  0  0  0  0  0
   62.7320   31.8590   50.1630 O   0  0  0  0  0  0  0  0  0  0  0  0
   62.6360   32.4920   48.9130 C   0  0  0  0  0  0  0  0  0  0  0  0
   63.7430   33.1410   48.3290 C   0  0  0  0  0  0  0  0  0  0  0  0
   63.6220   33.7770   47.0920 C   0  0  0  0  0  0  0  0  0  0  0  0
   62.3990   33.7790   46.4240 C   0  0  0  0  0  0  0  0  0  0  0  0
   61.2930   33.1410   46.9860 C   0  0  0  0  0  0  0  0  0  0  0  0
   61.3980   32.4830   48.2270 C   0  0  0  0  0  0  0  0  0  0  0  0
   60.1720   31.8160   48.8260 C   0  0  2  0  0  0  0  0  0  0  0  0
   60.5890   30.7550   49.7520 N   0  0  0  0  0  0  0  0  0  0  0  0
   60.4630   29.3540   49.4430 C   0  0  0  0  0  0  0  0  0  0  0  0
   61.0860   28.3250   50.3100 C   0  0  0  0  0  0  0  0  0  0  0  0
   61.9920   28.7040   51.3150 C   0  0  0  0  0  0  0  0  0  0  0  0
   62.5870   27.7440   52.1380 C   0  0  0  0  0  0  0  0  0  0  0  0
   62.2950   26.3790   51.9690 C   0  0  0  0  0  0  0  0  0  0  0  0
   62.9270   25.3610   52.8410 C   0  0  0  0  0  0  0  0  0  0  0  0
   62.5090   23.9990   52.7850 N   0  0  0  0  0  0  0  0  0  0  0  0
   63.8410   25.6900   53.6440 O   0  0  0  0  0  0  0  0  0  0  0  0
   61.3990   25.9990   50.9560 C   0  0  0  0  0  0  0  0  0  0  0  0
   60.8030   26.9600   50.1340 C   0  0  0  0  0  0  0  0  0  0  0  0
   59.8000   28.9810   48.3900 N   0  0  0  0  0  0  0  0  0  0  0  0
   59.1560   29.9070   47.5120 C   0  0  0  0  0  0  0  0  0  0  0  0
   58.3770   29.4280   46.4540 C   0  0  0  0  0  0  0  0  0  0  0  0
   57.7150   30.3200   45.6000 C   0  0  0  0  0  0  0  0  0  0  0  0
   56.7220   29.7090   44.2810 S   0  0  0  0  0  0  0  0  0  0  0  0
   55.1410   29.3420   44.8720 N   0  0  0  0  0  0  0  0  0  0  0  0
   57.3470   28.4670   43.7080 O   0  0  0  0  0  0  0  0  0  0  0  0
   56.6230   30.7430   43.1960 O   0  0  0  0  0  0  0  0  0  0  0  0
   57.8280   31.7000   45.8190 C   0  0  0  0  0  0  0  0  0  0  0  0
   58.6100   32.1830   46.8720 C   0  0  0  0  0  0  0  0  0  0  0  0
   59.2820   31.2920   47.7220 C   0  0  0  0  0  0  0  0  0  0  0  0
   63.8392   31.5056   51.8754 H   0  0  0  0  0  0  0  0  0  0  0  0
   64.2102   30.4445   50.4743 H   0  0  0  0  0  0  0  0  0  0  0  0
   64.7564   32.1557   50.4743 H   0  0  0  0  0  0  0  0  0  0  0  0
   64.7104   33.1463   48.8525 H   0  0  0  0  0  0  0  0  0  0  0  0
   64.4933   34.2772   46.6441 H   0  0  0  0  0  0  0  0  0  0  0  0
   62.3055   34.2847   45.4516 H   0  0  0  0  0  0  0  0  0  0  0  0
   60.3297   33.1519   46.4549 H   0  0  0  0  0  0  0  0  0  0  0  0
   59.5873   32.5490   49.4011 H   0  0  0  0  0  0  0  0  0  0  0  0
   61.1350   31.0510   50.5910 H   0  0  0  0  0  0  0  0  0  0  0  0
   62.2355   29.7675   51.4554 H   0  0  0  0  0  0  0  0  0  0  0  0
   63.2892   28.0586   52.9241 H   0  0  0  0  0  0  0  0  0  0  0  0
   62.3160   23.5330   51.8700 H   0  0  0  0  0  0  0  0  0  0  0  0
   61.1640   24.9346   50.8081 H   0  0  0  0  0  0  0  0  0  0  0  0
   60.1067   26.6449   49.3429 H   0  0  0  0  0  0  0  0  0  0  0  0
   58.2834   28.3441   46.2912 H   0  0  0  0  0  0  0  0  0  0  0  0
   55.2570   28.6380   45.6360 H   0  0  0  0  0  0  0  0  0  0  0  0
   57.2997   32.4049   45.1602 H   0  0  0  0  0  0  0  0  0  0  0  0
   58.6989   33.2672   47.0350 H   0  0  0  0  0  0  0  0  0  0  0  0
  1  2  1  0
  2  3  1  0
  3  4  2  0
  4  5  1  0
  5  6  2  0
  6  7  1  0
  7  8  2  0
  8  9  1  0
  9 10  1  0
 10 11  1  0
 11 12  1  0
 12 13  2  0
 13 14  1  0
 14 15  2  0
 15 16  1  0
 16 17  1  0
 16 18  2  0
 15 19  1  0
 19 20  2  0
 11 21  2  0
 21 22  1  0
 22 23  2  0
 23 24  1  0
 24 25  1  0
 25 26  1  0
 25 27  2  0
 25 28  2  0
 24 29  2  0
 29 30  1  0
 30 31  2  0
  8  3  1  0
 31  9  1  0
 20 12  1  0
 31 22  1  0
  1 32  1  0
  1 33  1  0
  1 34  1  0
  4 35  1  0
  5 36  1  0
  6 37  1  0
  7 38  1  0
  9 39  1  1
 10 40  1  0
 13 41  1  0
 14 42  1  0
 17 43  1  0
 19 44  1  0
 20 45  1  0
 23 46  1  0
 26 47  1  0
 29 48  1  0
 30 49  1  0
M  CHG  2  17  -1  26  -1
M  END
>  <UniqueID>  (64) 
59

>  <SMILES>  (64) 
COc1ccccc1[C@@H]1NC(c2ccc(C([NH-])=O)cc2)=Nc2cc(S([NH-])(=O)=O)ccc21

>  <Energy>  (64) 
57.82078264140511

>  <Genealogy>  (64) 
COc1ccccc1C1NC(c2ccc(C([NH-])=O)cc2)=Nc2cc(S([NH-])(=O)=O)ccc21 (protonated)
COc1ccccc1[C@@H]1NC(c2ccc(C([NH-])=O)cc2)=Nc2cc(S([NH-])(=O)=O)ccc21 (chirality)
COc1ccccc1[C@@H]1NC(c2ccc(C([NH-])=O)cc2)=Nc2cc(S([NH-])(=O)=O)ccc21 (3D coordinates assigned)
COc1ccccc1[C@@H]1NC(c2ccc(C([NH-])=O)cc2)=Nc2cc(S([NH-])(=O)=O)ccc21 (nonaromatic ring conformer: 57.82078264140511 kcal/mol)

>  <smiles>  (64) 
COc1ccccc1C1NC(c2ccc(C(N)=O)cc2)=Nc2cc(S(N)(=O)=O)ccc21

>  <score_type>  (64) 
oracle

>  <origin>  (64) 
adg

>  <m_score__min__energy>  (64) 
-10.890000000000001

>  <m_primary>  (64) 
energy

$$$$
64:0
     RDKit          3D

 52 55  0  0  1  0  0  0  0  0999 V2000
   60.9770   30.8130   50.4560 C   0  0  0  0  0  0  0  0  0  0  0  0
   59.6790   30.7830   49.9140 O   0  0  0  0  0  0  0  0  0  0  0  0
   59.4530   31.5300   48.7560 C   0  0  0  0  0  0  0  0  0  0  0  0
   58.7740   32.7330   48.7680 C   0  0  0  0  0  0  0  0  0  0  0  0
   58.5550   33.4690   47.6100 C   0  0  0  0  0  0  0  0  0  0  0  0
   59.0410   32.9620   46.4170 C   0  0  0  0  0  0  0  0  0  0  0  0
   58.8020   33.7620   45.1650 C   0  0  0  0  0  0  0  0  0  0  0  0
   57.4100   33.4480   44.6250 C   0  0  0  0  0  0  0  0  0  0  0  0
   57.0870   27.7070   45.9910 N   0  0  0  0  0  0  0  0  0  0  0  0
   56.4210   26.6250   45.7590 C   0  0  0  0  0  0  0  0  0  0  0  0
   56.9300   25.4490   45.2340 C   0  0  0  0  0  0  0  0  0  0  0  0
   56.9240   29.6940   42.9180 C   0  0  0  0  0  0  0  0  0  0  0  0
   56.9790   28.6330   43.7440 N   0  0  0  0  0  0  0  0  0  0  0  0
   57.0280   28.8060   45.0840 C   0  0  0  0  0  0  0  0  0  0  0  0
   56.9620   32.2640   45.3500 N   0  0  0  0  0  0  0  0  0  0  0  0
   56.9660   31.0940   44.8120 C   0  0  0  0  0  0  0  0  0  0  0  0
   56.9150   30.9740   43.4390 C   0  0  0  0  0  0  0  0  0  0  0  0
   55.8600   24.5800   45.1660 C   0  0  0  0  0  0  0  0  0  0  0  0
   55.9270   23.1860   44.6630 C   0  0  0  0  0  0  0  0  0  0  0  0
   57.2890   22.7570   44.1790 C   0  0  0  0  0  0  0  0  0  0  0  0
   56.1680   22.9280   43.1910 C   0  0  0  0  0  0  0  0  0  0  0  0
   54.7560   25.1960   45.6250 N   0  0  0  0  0  0  0  0  0  0  0  0
   55.0970   26.4400   45.9860 N   0  0  0  0  0  0  0  0  0  0  0  0
   57.0220   30.0390   45.6440 N   0  0  0  0  0  0  0  0  0  0  0  0
   59.7300   31.7580   46.3540 C   0  0  0  0  0  0  0  0  0  0  0  0
   59.9250   31.0620   47.5280 C   0  0  0  0  0  0  0  0  0  0  0  0
   60.6080   29.8410   47.5520 O   0  0  0  0  0  0  0  0  0  0  0  0
   59.9190   28.6170   47.3770 C   0  0  0  0  0  0  0  0  0  0  0  0
   60.9159   30.8116   51.5543 H   0  0  0  0  0  0  0  0  0  0  0  0
   61.5357   29.9275   50.1187 H   0  0  0  0  0  0  0  0  0  0  0  0
   61.4942   31.7233   50.1187 H   0  0  0  0  0  0  0  0  0  0  0  0
   58.3946   33.1207   49.7250 H   0  0  0  0  0  0  0  0  0  0  0  0
   58.0121   34.4252   47.6403 H   0  0  0  0  0  0  0  0  0  0  0  0
   58.8735   34.8352   45.3953 H   0  0  0  0  0  0  0  0  0  0  0  0
   59.5581   33.5003   44.4101 H   0  0  0  0  0  0  0  0  0  0  0  0
   56.7281   34.2912   44.8094 H   0  0  0  0  0  0  0  0  0  0  0  0
   57.4256   33.2765   43.5386 H   0  0  0  0  0  0  0  0  0  0  0  0
   57.9693   25.2493   44.9340 H   0  0  0  0  0  0  0  0  0  0  0  0
   56.8862   29.5426   41.8291 H   0  0  0  0  0  0  0  0  0  0  0  0
   56.9850   27.6730   43.3370 H   0  0  0  0  0  0  0  0  0  0  0  0
   56.8692   31.8587   42.7869 H   0  0  0  0  0  0  0  0  0  0  0  0
   55.1692   22.8250   45.3739 H   0  0  0  0  0  0  0  0  0  0  0  0
   58.1255   23.4713   44.1894 H   0  0  0  0  0  0  0  0  0  0  0  0
   57.9811   21.9407   44.4334 H   0  0  0  0  0  0  0  0  0  0  0  0
   56.1840   23.7678   42.4807 H   0  0  0  0  0  0  0  0  0  0  0  0
   55.7009   22.2902   42.4261 H   0  0  0  0  0  0  0  0  0  0  0  0
   53.7920   24.7900   45.6950 H   0  0  0  0  0  0  0  0  0  0  0  0
   54.4000   27.1100   46.3730 H   0  0  0  0  0  0  0  0  0  0  0  0
   60.1087   31.3713   45.3964 H   0  0  0  0  0  0  0  0  0  0  0  0
   59.6776   28.1882   48.3608 H   0  0  0  0  0  0  0  0  0  0  0  0
   58.9893   28.7964   46.8171 H   0  0  0  0  0  0  0  0  0  0  0  0
   60.5546   27.9152   46.8171 H   0  0  0  0  0  0  0  0  0  0  0  0
  1  2  1  0
  2  3  1  0
  3  4  2  0
  4  5  1  0
  5  6  2  0
  6  7  1  0
  7  8  1  0
  8  9  1  0
  9 10  2  0
 10 11  1  0
 11 12  2  0
 12 13  1  0
 13 14  1  0
 14 15  1  0
 15 16  2  0
 16 17  1  0
 17 18  2  0
 18 19  1  0
 19 20  1  0
 20 21  1  0
 18 22  1  0
 22 23  1  0
 14 24  2  0
  6 25  1  0
 25 26  2  0
 26 27  1  0
 27 28  1  0
 26  3  1  0
 24 10  1  0
 23 16  1  0
 21 19  1  0
  1 29  1  0
  1 30  1  0
  1 31  1  0
  4 32  1  0
  5 33  1  0
  7 34  1  0
  7 35  1  0
  8 36  1  0
  8 37  1  0
 11 38  1  0
 12 39  1  0
 13 40  1  0
 17 41  1  0
 19 42  1  0
 20 43  1  0
 20 44  1  0
 21 45  1  0
 21 46  1  0
 22 47  1  0
 23 48  1  0
 25 49  1  0
 28 50  1  0
 28 51  1  0
 28 52  1  0
M  END
>  <smiles>  (65) 
COc1ccc(CCN=c2cc[nH]c(N=c3cc(C4CC4)[nH][nH]3)n2)cc1OC

>  <score_type>  (65) 
oracle

>  <origin>  (65) 
adg

>  <m_score__min__energy>  (65) 
-8.6099999999999994

>  <m_primary>  (65) 
energy

$$$$
65:0
     RDKit          3D

 62 65  0  0  1  0  0  0  0  0999 V2000
   55.4220   20.3530   47.0550 C   0  0  0  0  0  0  0  0  0  0  0  0
   55.0770   21.5300   46.3680 O   0  0  0  0  0  0  0  0  0  0  0  0
   55.6010   21.8620   45.1190 C   0  0  0  0  0  0  0  0  0  0  0  0
   56.5240   21.0380   44.5140 C   0  0  0  0  0  0  0  0  0  0  0  0
   57.0440   21.3750   43.2660 C   0  0  0  0  0  0  0  0  0  0  0  0
   56.6170   22.5480   42.6510 C   0  0  0  0  0  0  0  0  0  0  0  0
   55.6910   23.3530   43.2830 C   0  0  0  0  0  0  0  0  0  0  0  0
   55.1600   23.0460   44.5150 C   0  0  0  0  0  0  0  0  0  0  0  0
   54.1660   23.8890   45.2190 C   0  0  0  0  0  0  0  0  0  0  0  0
   54.8440   24.6850   46.1930 N   0  0  0  0  0  0  0  0  0  0  0  0
   56.0850   24.9990   46.1750 C   0  0  0  0  0  0  0  0  0  0  0  0
   56.5450   25.8090   45.2080 N   0  0  0  0  0  0  0  0  0  0  0  0
   57.8360   26.1520   45.1600 C   0  0  0  0  0  0  0  0  0  0  0  0
   58.2650   26.9430   44.2080 N   0  0  0  0  0  0  0  0  0  0  0  0
   58.1070   28.3540   44.4180 C   0  0  0  0  0  0  0  0  0  0  0  0
   57.0530   29.0670   43.8860 C   0  0  0  0  0  0  0  0  0  0  0  0
   56.9940   30.4170   44.1470 C   0  0  0  0  0  0  0  0  0  0  0  0
   57.9380   31.0840   44.9120 C   0  0  0  0  0  0  0  0  0  0  0  0
   57.8110   32.4650   45.1330 N   0  0  0  0  0  0  0  0  0  0  0  0
   57.0190   33.0730   46.1860 C   0  0  0  0  0  0  0  0  0  0  0  0
   58.0210   33.8180   47.0440 C   0  0  0  0  0  0  0  0  0  0  0  0
   58.6840   34.8080   46.2760 N   0  0  0  0  0  0  0  0  0  0  0  0
   60.0450   35.0620   46.7000 C   0  0  0  0  0  0  0  0  0  0  0  0
   58.5120   34.7940   44.8720 C   0  0  0  0  0  0  0  0  0  0  0  0
   58.5190   33.4110   44.2580 C   0  0  0  0  0  0  0  0  0  0  0  0
   58.9670   30.3230   45.4160 C   0  0  0  0  0  0  0  0  0  0  0  0
   59.0770   28.9620   45.1870 C   0  0  0  0  0  0  0  0  0  0  0  0
   58.7070   25.6890   46.0830 N   0  0  0  0  0  0  0  0  0  0  0  0
   58.2560   24.8730   47.0600 C   0  0  0  0  0  0  0  0  0  0  0  0
   56.9310   24.5000   47.1390 C   0  0  0  0  0  0  0  0  0  0  0  0
   56.5010   23.6190   48.2150 C   0  0  0  0  0  0  0  0  0  0  0  0
   55.1520   23.2850   48.4730 N   0  0  0  0  0  0  0  0  0  0  0  0
   57.3640   23.0910   48.9940 O   0  0  0  0  0  0  0  0  0  0  0  0
   55.3694   20.5324   48.1390 H   0  0  0  0  0  0  0  0  0  0  0  0
   54.7214   19.5502   46.7818 H   0  0  0  0  0  0  0  0  0  0  0  0
   56.4451   20.0555   46.7818 H   0  0  0  0  0  0  0  0  0  0  0  0
   56.8503   20.1149   45.0155 H   0  0  0  0  0  0  0  0  0  0  0  0
   57.7812   20.7234   42.7741 H   0  0  0  0  0  0  0  0  0  0  0  0
   57.0156   22.8323   41.6659 H   0  0  0  0  0  0  0  0  0  0  0  0
   55.3645   24.2764   42.7822 H   0  0  0  0  0  0  0  0  0  0  0  0
   53.6579   24.5435   44.4955 H   0  0  0  0  0  0  0  0  0  0  0  0
   53.4181   23.2512   45.7128 H   0  0  0  0  0  0  0  0  0  0  0  0
   55.8910   26.1630   44.5070 H   0  0  0  0  0  0  0  0  0  0  0  0
   56.2847   28.5728   43.2732 H   0  0  0  0  0  0  0  0  0  0  0  0
   56.1569   30.9948   43.7281 H   0  0  0  0  0  0  0  0  0  0  0  0
   56.2794   33.7682   45.7621 H   0  0  0  0  0  0  0  0  0  0  0  0
   56.4527   32.3268   46.7627 H   0  0  0  0  0  0  0  0  0  0  0  0
   57.4949   34.2998   47.8813 H   0  0  0  0  0  0  0  0  0  0  0  0
   58.7648   33.1044   47.4280 H   0  0  0  0  0  0  0  0  0  0  0  0
   60.0911   35.0706   47.7990 H   0  0  0  0  0  0  0  0  0  0  0  0
   60.7037   34.2713   46.3116 H   0  0  0  0  0  0  0  0  0  0  0  0
   60.3741   36.0371   46.3116 H   0  0  0  0  0  0  0  0  0  0  0  0
   57.5483   35.2700   44.6381 H   0  0  0  0  0  0  0  0  0  0  0  0
   59.3699   35.3333   44.4440 H   0  0  0  0  0  0  0  0  0  0  0  0
   58.0185   33.4452   43.2790 H   0  0  0  0  0  0  0  0  0  0  0  0
   59.5600   33.0773   44.1353 H   0  0  0  0  0  0  0  0  0  0  0  0
   59.7361   30.8173   46.0277 H   0  0  0  0  0  0  0  0  0  0  0  0
   59.9131   28.3829   45.6059 H   0  0  0  0  0  0  0  0  0  0  0  0
   59.7210   25.9420   46.0680 H   0  0  0  0  0  0  0  0  0  0  0  0
   58.9643   24.4961   47.8125 H   0  0  0  0  0  0  0  0  0  0  0  0
   54.4390   23.0420   47.7800 H   0  0  0  0  0  0  0  0  0  0  0  0
   54.8420   23.2860   49.4840 H   0  0  0  0  0  0  0  0  0  0  0  0
  1  2  1  0
  2  3  1  0
  3  4  2  0
  4  5  1  0
  5  6  2  0
  6  7  1  0
  7  8  2  0
  8  9  1  0
  9 10  1  0
 10 11  2  0
 11 12  1  0
 12 13  1  0
 13 14  2  0
 14 15  1  0
 15 16  2  0
 16 17  1  0
 17 18  2  0
 18 19  1  0
 19 20  1  0
 20 21  1  0
 21 22  1  0
 22 23  1  0
 22 24  1  0
 24 25  1  0
 18 26  1  0
 26 27  2  0
 13 28  1  0
 28 29  1  0
 29 30  2  0
 30 31  1  0
 31 32  1  0
 31 33  2  0
  8  3  1  0
 30 11  1  0
 27 15  1  0
 25 19  1  0
  1 34  1  0
  1 35  1  0
  1 36  1  0
  4 37  1  0
  5 38  1  0
  6 39  1  0
  7 40  1  0
  9 41  1  0
  9 42  1  0
 12 43  1  0
 16 44  1  0
 17 45  1  0
 20 46  1  0
 20 47  1  0
 21 48  1  0
 21 49  1  0
 23 50  1  0
 23 51  1  0
 23 52  1  0
 24 53  1  0
 24 54  1  0
 25 55  1  0
 25 56  1  0
 26 57  1  0
 27 58  1  0
 28 59  1  0
 29 60  1  0
 32 61  1  0
 32 62  1  0
M  END
>  <smiles>  (66) 
COc1ccccc1CN=c1[nH]c(=Nc2ccc(N3CCN(C)CC3)cc2)[nH]cc1C(N)=O

>  <score_type>  (66) 
oracle

>  <origin>  (66) 
adg

>  <m_score__min__energy>  (66) 
-8.7699999999999996

>  <m_primary>  (66) 
energy

$$$$
66:0
     RDKit          3D

 62 64  0  0  0  0  0  0  0  0999 V2000
   57.4437   32.5616   43.1836 H   0  0  0  0  0  0  0  0  0  0  0  0
   57.7820   32.4670   44.2260 C   0  0  0  0  0  0  0  0  0  0  0  0
   57.7600   33.5820   44.9880 C   0  0  0  0  0  0  0  0  0  0  0  0
   58.8300   33.7860   46.0000 C   0  0  0  0  0  0  0  0  0  0  0  0
   58.5060   33.9490   47.3620 C   0  0  0  0  0  0  0  0  0  0  0  0
   57.4531   33.9258   47.6797 H   0  0  0  0  0  0  0  0  0  0  0  0
   59.5140   34.1400   48.3120 C   0  0  0  0  0  0  0  0  0  0  0  0
   59.2521   34.2699   49.3724 H   0  0  0  0  0  0  0  0  0  0  0  0
   60.8530   34.1660   47.9160 C   0  0  0  0  0  0  0  0  0  0  0  0
   61.6451   34.3147   48.6647 H   0  0  0  0  0  0  0  0  0  0  0  0
   61.1870   34.0030   46.5680 C   0  0  0  0  0  0  0  0  0  0  0  0
   62.2421   34.0243   46.2576 H   0  0  0  0  0  0  0  0  0  0  0  0
   60.1830   33.8130   45.6140 C   0  0  0  0  0  0  0  0  0  0  0  0
   60.4522   33.6838   44.5553 H   0  0  0  0  0  0  0  0  0  0  0  0
   56.6470   34.5940   44.8850 C   0  0  0  0  0  0  0  0  0  0  0  0
   56.3239   34.8878   45.8946 H   0  0  0  0  0  0  0  0  0  0  0  0
   57.0068   35.4808   44.3426 H   0  0  0  0  0  0  0  0  0  0  0  0
   55.7983   34.1517   44.3426 H   0  0  0  0  0  0  0  0  0  0  0  0
   58.2340   31.0970   44.6880 C   0  0  0  0  0  0  0  0  0  0  0  0
   58.8038   31.2153   45.6214 H   0  0  0  0  0  0  0  0  0  0  0  0
   58.8421   30.6679   43.8780 H   0  0  0  0  0  0  0  0  0  0  0  0
   57.1140   30.1540   44.9380 N   0  0  0  0  0  0  0  0  0  0  0  0
   55.9220   30.5400   44.1660 C   0  0  0  0  0  0  0  0  0  0  0  0
   55.1075   30.8038   44.8566 H   0  0  0  0  0  0  0  0  0  0  0  0
   56.1605   31.4068   43.5322 H   0  0  0  0  0  0  0  0  0  0  0  0
   55.6071   29.6979   43.5322 H   0  0  0  0  0  0  0  0  0  0  0  0
   57.4370   28.7270   44.6950 C   0  0  0  0  0  0  0  0  0  0  0  0
   57.2881   28.5077   43.6274 H   0  0  0  0  0  0  0  0  0  0  0  0
   56.7724   28.1197   45.3270 H   0  0  0  0  0  0  0  0  0  0  0  0
   58.8930   28.3820   45.0740 C   0  0  0  0  0  0  0  0  0  0  0  0
   59.5575   28.6940   44.2548 H   0  0  0  0  0  0  0  0  0  0  0  0
   58.9543   27.2966   45.2417 H   0  0  0  0  0  0  0  0  0  0  0  0
   59.3160   29.0670   46.3240 N   0  0  0  0  0  0  0  0  0  0  0  0
   58.6540   29.8600   46.5090 H   0  0  0  0  0  0  0  0  0  0  0  0
   59.2240   28.1340   47.4770 C   0  0  0  0  0  0  0  0  0  0  0  0
   59.6726   27.1725   47.1866 H   0  0  0  0  0  0  0  0  0  0  0  0
   58.1591   28.0297   47.7320 H   0  0  0  0  0  0  0  0  0  0  0  0
   59.9520   28.6570   48.7360 C   0  0  0  0  0  0  0  0  0  0  0  0
   60.8811   28.0857   48.8784 H   0  0  0  0  0  0  0  0  0  0  0  0
   59.2879   28.5320   49.6039 H   0  0  0  0  0  0  0  0  0  0  0  0
   60.2790   30.0780   48.5970 N   0  0  0  0  0  0  0  0  0  0  0  0
   59.8920   31.0220   49.6080 C   0  0  0  0  0  0  0  0  0  0  0  0
   58.5330   31.2080   49.9030 C   0  0  0  0  0  0  0  0  0  0  0  0
   57.7704   30.6339   49.3562 H   0  0  0  0  0  0  0  0  0  0  0  0
   58.1440   32.1190   50.8880 C   0  0  0  0  0  0  0  0  0  0  0  0
   57.0768   32.2653   51.1107 H   0  0  0  0  0  0  0  0  0  0  0  0
   59.1090   32.8440   51.5900 C   0  0  0  0  0  0  0  0  0  0  0  0
   58.8005   33.5666   52.3599 H   0  0  0  0  0  0  0  0  0  0  0  0
   60.4670   32.6530   51.3160 C   0  0  0  0  0  0  0  0  0  0  0  0
   61.2235   33.2242   51.8741 H   0  0  0  0  0  0  0  0  0  0  0  0
   60.8710   31.7330   50.3290 C   0  0  0  0  0  0  0  0  0  0  0  0
   62.2250   31.4870   50.0510 O   0  0  0  0  0  0  0  0  0  0  0  0
   63.1800   32.4900   49.7190 C   0  0  0  0  0  0  0  0  0  0  0  0
   63.5926   32.9233   50.6420 H   0  0  0  0  0  0  0  0  0  0  0  0
   63.9930   32.0414   49.1293 H   0  0  0  0  0  0  0  0  0  0  0  0
   62.6921   33.2800   49.1293 H   0  0  0  0  0  0  0  0  0  0  0  0
   60.9930   30.5350   47.4010 C   0  0  0  0  0  0  0  0  0  0  0  0
   62.0749   30.5283   47.5996 H   0  0  0  0  0  0  0  0  0  0  0  0
   60.6614   31.5543   47.1541 H   0  0  0  0  0  0  0  0  0  0  0  0
   60.6900   29.6090   46.2120 C   0  0  0  0  0  0  0  0  0  0  0  0
   61.4096   28.7771   46.2066 H   0  0  0  0  0  0  0  0  0  0  0  0
   60.7744   30.1841   45.2781 H   0  0  0  0  0  0  0  0  0  0  0  0
  1  2  1  0
  2  3  2  0
  3  4  1  0
  4  5  2  0
  5  6  1  0
  5  7  1  0
  7  8  1  0
  7  9  2  0
  9 10  1  0
  9 11  1  0
 11 12  1  0
 11 13  2  0
 13 14  1  0
  3 15  1  0
 15 16  1  0
 15 17  1  0
 15 18  1  0
  2 19  1  0
 19 20  1  0
 19 21  1  0
 19 22  1  0
 22 23  1  0
 23 24  1  0
 23 25  1  0
 23 26  1  0
 22 27  1  0
 27 28  1  0
 27 29  1  0
 27 30  1  0
 30 31  1  0
 30 32  1  0
 30 33  1  0
 33 34  1  0
 33 35  1  0
 35 36  1  0
 35 37  1  0
 35 38  1  0
 38 39  1  0
 38 40  1  0
 38 41  1  0
 41 42  1  0
 42 43  2  0
 43 44  1  0
 43 45  1  0
 45 46  1  0
 45 47  2  0
 47 48  1  0
 47 49  1  0
 49 50  1  0
 49 51  2  0
 51 52  1  0
 52 53  1  0
 53 54  1  0
 53 55  1  0
 53 56  1  0
 41 57  1  0
 57 58  1  0
 57 59  1  0
 57 60  1  0
 60 61  1  0
 60 62  1  0
 13  4  1  0
 60 33  1  0
 51 42  1  0
M  CHG  1  33   1
M  END
>  <UniqueID>  (67) 
60

>  <SMILES>  (67) 
COc1ccccc1N1CC[NH+](CCN(C)C/C=C(\C)c2ccccc2)CC1

>  <Energy>  (67) 
83.01153792656503

>  <Genealogy>  (67) 
COc1ccccc1N1CC[NH+](CCN(C)CC=C(C)c2ccccc2)CC1 (protonated)
COc1ccccc1N1CC[NH+](CCN(C)C/C=C(\C)c2ccccc2)CC1 (cis-trans isomerization)
COc1ccccc1N1CC[NH+](CCN(C)C/C=C(\C)c2ccccc2)CC1 (3D coordinates assigned)
COc1ccccc1N1CC[NH+](CCN(C)C/C=C(\C)c2ccccc2)CC1 (nonaromatic ring conformer: 83.01153792656503 kcal/mol)

>  <smiles>  (67) 
COc1ccccc1N1CCN(CCN(C)CC=C(C)c2ccccc2)CC1

>  <score_type>  (67) 
oracle

>  <origin>  (67) 
adg

>  <m_score__min__energy>  (67) 
-6.2999999999999998

>  <m_primary>  (67) 
energy

$$$$
67:0
     RDKit          3D

 31 33  0  0  0  0  0  0  0  0999 V2000
   58.8900   32.5860   50.4530 C   0  0  0  0  0  0  0  0  0  0  0  0
   59.8720   33.1020   49.5600 O   0  0  0  0  0  0  0  0  0  0  0  0
   59.6150   33.5800   48.2660 C   0  0  0  0  0  0  0  0  0  0  0  0
   59.9970   34.8840   47.8920 C   0  0  0  0  0  0  0  0  0  0  0  0
   59.7420   35.3590   46.6100 C   0  0  0  0  0  0  0  0  0  0  0  0
   59.1000   34.5520   45.6780 C   0  0  0  0  0  0  0  0  0  0  0  0
   58.7040   33.2480   46.0150 C   0  0  0  0  0  0  0  0  0  0  0  0
   58.0000   32.4160   45.0060 C   0  0  0  0  0  0  0  0  0  0  0  0
   58.2530   32.5880   43.6170 C   0  0  0  0  0  0  0  0  0  0  0  0
   57.5610   31.7860   42.6960 C   0  0  0  0  0  0  0  0  0  0  0  0
   57.7530   31.8980   41.4560 O   0  0  0  0  0  0  0  0  0  0  0  0
   56.6820   30.8850   43.1910 N   0  0  0  0  0  0  0  0  0  0  0  0
   55.9100   30.0140   42.5750 N   0  0  0  0  0  0  0  0  0  0  0  0
   55.2180   29.3400   43.4890 N   0  0  0  0  0  0  0  0  0  0  0  0
   55.5390   29.7690   44.7120 N   0  0  0  0  0  0  0  0  0  0  0  0
   56.4530   30.7290   44.4900 C   0  0  0  0  0  0  0  0  0  0  0  0
   57.0910   31.4770   45.4200 N   0  0  0  0  0  0  0  0  0  0  0  0
   58.9620   32.7470   47.3150 C   0  0  0  0  0  0  0  0  0  0  0  0
   58.5680   31.4230   47.5920 O   0  0  0  0  0  0  0  0  0  0  0  0
   59.3220   30.2400   47.3540 C   0  0  0  0  0  0  0  0  0  0  0  0
   59.2128   32.7556   51.4908 H   0  0  0  0  0  0  0  0  0  0  0  0
   57.9315   33.0970   50.2790 H   0  0  0  0  0  0  0  0  0  0  0  0
   58.7671   31.5068   50.2790 H   0  0  0  0  0  0  0  0  0  0  0  0
   60.5024   35.5332   48.6221 H   0  0  0  0  0  0  0  0  0  0  0  0
   60.0498   36.3779   46.3323 H   0  0  0  0  0  0  0  0  0  0  0  0
   58.9005   34.9385   44.6676 H   0  0  0  0  0  0  0  0  0  0  0  0
   58.9794   33.3376   43.2700 H   0  0  0  0  0  0  0  0  0  0  0  0
   55.8460   29.8730   41.5420 H   0  0  0  0  0  0  0  0  0  0  0  0
   59.6095   29.7889   48.3152 H   0  0  0  0  0  0  0  0  0  0  0  0
   58.7123   29.5256   46.7814 H   0  0  0  0  0  0  0  0  0  0  0  0
   60.2271   30.4910   46.7814 H   0  0  0  0  0  0  0  0  0  0  0  0
  1  2  1  0
  2  3  1  0
  3  4  2  0
  4  5  1  0
  5  6  2  0
  6  7  1  0
  7  8  1  0
  8  9  2  0
  9 10  1  0
 10 11  2  0
 10 12  1  0
 12 13  1  0
 13 14  2  0
 14 15  1  0
 15 16  2  0
 16 17  1  0
  7 18  2  0
 18 19  1  0
 19 20  1  0
 18  3  1  0
 17  8  1  0
 16 12  1  0
  1 21  1  0
  1 22  1  0
  1 23  1  0
  4 24  1  0
  5 25  1  0
  6 26  1  0
  9 27  1  0
 13 28  1  0
 20 29  1  0
 20 30  1  0
 20 31  1  0
M  CHG  2  13   1  17  -1
M  END
>  <UniqueID>  (68) 
61

>  <SMILES>  (68) 
COc1cccc(-c2cc(=O)n3[nH+]nnc3[n-]2)c1OC

>  <Energy>  (68) 
91.22866705104823

>  <Genealogy>  (68) 
COc1cccc(-c2cc(=O)n3[nH+]nnc3[n-]2)c1OC (protonated)
COc1cccc(-c2cc(=O)n3[nH+]nnc3[n-]2)c1OC (3D coordinates assigned)
COc1cccc(-c2cc(=O)n3[nH+]nnc3[n-]2)c1OC (optimized conformer: 91.22866705104823 kcal/mol)

>  <smiles>  (68) 
COc1cccc(-c2cc(=O)n3nnnc3[nH]2)c1OC

>  <score_type>  (68) 
oracle

>  <origin>  (68) 
adg

>  <m_score__min__energy>  (68) 
-7.8799999999999999

>  <m_primary>  (68) 
energy

$$$$
68:0
     RDKit          3D

 25 26  0  0  0  0  0  0  0  0999 V2000
   56.3410   30.8360   44.8610 O   0  0  0  0  0  0  0  0  0  0  0  0
   57.4300   31.0330   44.2550 C   0  0  0  0  0  0  0  0  0  0  0  0
   57.7480   32.4010   43.7390 C   0  0  0  0  0  0  0  0  0  0  0  0
   58.2380   33.2630   44.8570 C   0  0  0  0  0  0  0  0  0  0  0  0
   59.2710   34.1890   44.7780 C   0  0  0  0  0  0  0  0  0  0  0  0
   59.5640   34.7910   46.0080 C   0  0  0  0  0  0  0  0  0  0  0  0
   58.7770   34.3310   47.0550 C   0  0  0  0  0  0  0  0  0  0  0  0
   57.7170   33.1720   46.4530 S   0  0  0  0  0  0  0  0  0  0  0  0
   58.3620   29.9590   44.0610 N   0  0  0  0  0  0  0  0  0  0  0  0
   58.2690   28.6910   44.7340 C   0  0  0  0  0  0  0  0  0  0  0  0
   57.8830   27.5320   44.0400 C   0  0  0  0  0  0  0  0  0  0  0  0
   57.7670   26.3160   44.7140 C   0  0  0  0  0  0  0  0  0  0  0  0
   58.0290   26.2660   46.0820 C   0  0  0  0  0  0  0  0  0  0  0  0
   58.3860   27.3940   46.7480 N   0  0  0  0  0  0  0  0  0  0  0  0
   58.5060   28.5950   46.1190 C   0  0  0  0  0  0  0  0  0  0  0  0
   58.9920   29.9930   47.0650 Cl  0  0  0  0  0  0  0  0  0  0  0  0
   58.5272   32.3276   42.9661 H   0  0  0  0  0  0  0  0  0  0  0  0
   56.8393   32.8468   43.3084 H   0  0  0  0  0  0  0  0  0  0  0  0
   59.8039   34.4250   43.8451 H   0  0  0  0  0  0  0  0  0  0  0  0
   60.3443   35.5563   46.1328 H   0  0  0  0  0  0  0  0  0  0  0  0
   58.8365   34.6673   48.1006 H   0  0  0  0  0  0  0  0  0  0  0  0
   59.1300   30.0990   43.3670 H   0  0  0  0  0  0  0  0  0  0  0  0
   57.6716   27.5835   42.9617 H   0  0  0  0  0  0  0  0  0  0  0  0
   57.4717   25.4059   44.1713 H   0  0  0  0  0  0  0  0  0  0  0  0
   57.9465   25.3116   46.6227 H   0  0  0  0  0  0  0  0  0  0  0  0
  1  2  2  0
  2  3  1  0
  3  4  1  0
  4  5  2  0
  5  6  1  0
  6  7  2  0
  7  8  1  0
  2  9  1  0
  9 10  1  0
 10 11  2  0
 11 12  1  0
 12 13  2  0
 13 14  1  0
 14 15  2  0
 15 16  1  0
  8  4  1  0
 15 10  1  0
  3 17  1  0
  3 18  1  0
  5 19  1  0
  6 20  1  0
  7 21  1  0
  9 22  1  0
 11 23  1  0
 12 24  1  0
 13 25  1  0
M  END
>  <UniqueID>  (69) 
62

>  <SMILES>  (69) 
O=C(Cc1cccs1)Nc1cccnc1Cl

>  <Energy>  (69) 
53.37880954219513

>  <Genealogy>  (69) 
O=C(Cc1cccs1)Nc1cccnc1Cl (3D coordinates assigned)
O=C(Cc1cccs1)Nc1cccnc1Cl (optimized conformer: 53.37880954219513 kcal/mol)

>  <smiles>  (69) 
O=C(Cc1cccs1)Nc1cccnc1Cl

>  <score_type>  (69) 
oracle

>  <origin>  (69) 
adg

>  <m_score__min__energy>  (69) 
-6.5599999999999996

>  <m_primary>  (69) 
energy

$$$$
69:0
     RDKit          3D

 31 33  0  0  0  0  0  0  0  0999 V2000
   58.6630   25.0850   46.6320 O   0  0  0  0  0  0  0  0  0  0  0  0
   57.4900   25.4170   46.3020 C   0  0  0  0  0  0  0  0  0  0  0  0
   56.4550   24.4610   46.3300 C   0  0  0  0  0  0  0  0  0  0  0  0
   56.7290   23.0510   46.7030 C   0  0  0  0  0  0  0  0  0  0  0  0
   57.3800   22.1900   45.8030 C   0  0  0  0  0  0  0  0  0  0  0  0
   57.6360   20.8610   46.1560 C   0  0  0  0  0  0  0  0  0  0  0  0
   57.2430   20.3820   47.4090 C   0  0  0  0  0  0  0  0  0  0  0  0
   56.5950   21.2310   48.3100 C   0  0  0  0  0  0  0  0  0  0  0  0
   56.3380   22.5600   47.9610 C   0  0  0  0  0  0  0  0  0  0  0  0
   55.1510   24.8720   46.0010 C   0  0  0  0  0  0  0  0  0  0  0  0
   54.0990   23.9620   45.9980 O   0  0  0  0  0  0  0  0  0  0  0  0
   54.9080   26.1620   45.6610 N   0  0  0  0  0  0  0  0  0  0  0  0
   55.8890   27.1000   45.6210 C   0  0  0  0  0  0  0  0  0  0  0  0
   55.5670   28.3990   45.2430 O   0  0  0  0  0  0  0  0  0  0  0  0
   57.2130   26.7510   45.9400 C   0  0  0  0  0  0  0  0  0  0  0  0
   58.2900   27.7700   45.8990 C   0  0  0  0  0  0  0  0  0  0  0  0
   59.1060   27.8970   44.7610 C   0  0  0  0  0  0  0  0  0  0  0  0
   60.1220   28.8570   44.7250 C   0  0  0  0  0  0  0  0  0  0  0  0
   60.3330   29.6950   45.8230 C   0  0  0  0  0  0  0  0  0  0  0  0
   59.5270   29.5760   46.9580 C   0  0  0  0  0  0  0  0  0  0  0  0
   58.5100   28.6170   46.9990 C   0  0  0  0  0  0  0  0  0  0  0  0
   57.6898   22.5632   44.8157 H   0  0  0  0  0  0  0  0  0  0  0  0
   58.1468   20.1925   45.4473 H   0  0  0  0  0  0  0  0  0  0  0  0
   57.4439   19.3365   47.6858 H   0  0  0  0  0  0  0  0  0  0  0  0
   56.2865   20.8528   49.2958 H   0  0  0  0  0  0  0  0  0  0  0  0
   55.8276   23.2245   48.6737 H   0  0  0  0  0  0  0  0  0  0  0  0
   58.9444   27.2381   43.8951 H   0  0  0  0  0  0  0  0  0  0  0  0
   60.7560   28.9526   43.8312 H   0  0  0  0  0  0  0  0  0  0  0  0
   61.1338   30.4485   45.7938 H   0  0  0  0  0  0  0  0  0  0  0  0
   59.6927   30.2378   47.8209 H   0  0  0  0  0  0  0  0  0  0  0  0
   57.8796   28.5251   47.8958 H   0  0  0  0  0  0  0  0  0  0  0  0
  1  2  2  0
  2  3  1  0
  3  4  1  0
  4  5  2  0
  5  6  1  0
  6  7  2  0
  7  8  1  0
  8  9  2  0
  3 10  2  0
 10 11  1  0
 10 12  1  0
 12 13  1  0
 13 14  1  0
 13 15  2  0
 15 16  1  0
 16 17  2  0
 17 18  1  0
 18 19  2  0
 19 20  1  0
 20 21  2  0
 15  2  1  0
 21 16  1  0
  9  4  1  0
  5 22  1  0
  6 23  1  0
  7 24  1  0
  8 25  1  0
  9 26  1  0
 17 27  1  0
 18 28  1  0
 19 29  1  0
 20 30  1  0
 21 31  1  0
M  CHG  3  11  -1  12  -1  14  -1
M  END
>  <UniqueID>  (70) 
63

>  <SMILES>  (70) 
O=c1c(-c2ccccc2)c([O-])[n-]c([O-])c1-c1ccccc1

>  <Energy>  (70) 
51.12297708245205

>  <Genealogy>  (70) 
O=c1c(-c2ccccc2)c([O-])[n-]c([O-])c1-c1ccccc1 (protonated)
O=c1c(-c2ccccc2)c([O-])[n-]c([O-])c1-c1ccccc1 (3D coordinates assigned)
O=c1c(-c2ccccc2)c([O-])[n-]c([O-])c1-c1ccccc1 (optimized conformer: 51.12297708245205 kcal/mol)

>  <smiles>  (70) 
O=c1c(-c2ccccc2)c(O)[nH]c(O)c1-c1ccccc1

>  <score_type>  (70) 
oracle

>  <origin>  (70) 
adg

>  <m_score__min__energy>  (70) 
-13.07

>  <m_primary>  (70) 
energy

$$$$
70:0
     RDKit          3D

 47 50  0  0  0  0  0  0  0  0999 V2000
   58.2961   34.7112   53.5848 H   0  0  0  0  0  0  0  0  0  0  0  0
   58.4510   33.9530   52.8030 C   0  0  0  0  0  0  0  0  0  0  0  0
   57.3880   33.1410   52.3970 C   0  0  0  0  0  0  0  0  0  0  0  0
   56.3981   33.2581   52.8622 H   0  0  0  0  0  0  0  0  0  0  0  0
   57.5820   32.1800   51.4000 C   0  0  0  0  0  0  0  0  0  0  0  0
   56.7457   31.5378   51.0866 H   0  0  0  0  0  0  0  0  0  0  0  0
   58.8420   32.0330   50.7980 C   0  0  0  0  0  0  0  0  0  0  0  0
   59.0380   31.0300   49.7290 C   0  0  0  0  0  0  0  0  0  0  0  0
   59.5970   31.3730   48.4770 C   0  0  0  0  0  0  0  0  0  0  0  0
   60.0020   32.7820   48.1260 C   0  0  0  0  0  0  0  0  0  0  0  0
   59.8613   33.4254   49.0070 H   0  0  0  0  0  0  0  0  0  0  0  0
   61.0572   32.7732   47.8156 H   0  0  0  0  0  0  0  0  0  0  0  0
   59.1750   33.3210   46.9870 C   0  0  0  0  0  0  0  0  0  0  0  0
   57.8080   33.0050   46.8930 C   0  0  0  0  0  0  0  0  0  0  0  0
   57.3438   32.3498   47.6448 H   0  0  0  0  0  0  0  0  0  0  0  0
   57.0370   33.5210   45.8470 C   0  0  0  0  0  0  0  0  0  0  0  0
   55.9677   33.2719   45.7791 H   0  0  0  0  0  0  0  0  0  0  0  0
   57.6210   34.3520   44.8880 C   0  0  0  0  0  0  0  0  0  0  0  0
   57.0107   34.7614   44.0695 H   0  0  0  0  0  0  0  0  0  0  0  0
   58.9810   34.6630   44.9690 C   0  0  0  0  0  0  0  0  0  0  0  0
   59.4407   35.3151   44.2117 H   0  0  0  0  0  0  0  0  0  0  0  0
   59.7580   34.1480   46.0090 C   0  0  0  0  0  0  0  0  0  0  0  0
   60.8297   34.3897   46.0638 H   0  0  0  0  0  0  0  0  0  0  0  0
   59.7290   30.4110   47.5240 N   0  0  0  0  0  0  0  0  0  0  0  0
   59.3440   29.1260   47.7450 C   0  0  0  0  0  0  0  0  0  0  0  0
   59.4800   28.2210   46.8240 N   0  0  0  0  0  0  0  0  0  0  0  0
   58.3670   27.6400   46.0770 C   0  0  0  0  0  0  0  0  0  0  0  0
   58.7393   26.8262   45.4374 H   0  0  0  0  0  0  0  0  0  0  0  0
   57.6212   27.2404   46.7799 H   0  0  0  0  0  0  0  0  0  0  0  0
   57.7330   28.7010   45.2210 C   0  0  0  0  0  0  0  0  0  0  0  0
   58.5290   29.7110   44.6520 C   0  0  0  0  0  0  0  0  0  0  0  0
   59.6167   29.7086   44.8159 H   0  0  0  0  0  0  0  0  0  0  0  0
   57.9440   30.7180   43.8790 C   0  0  0  0  0  0  0  0  0  0  0  0
   58.5734   31.4994   43.4282 H   0  0  0  0  0  0  0  0  0  0  0  0
   56.5630   30.7340   43.6780 C   0  0  0  0  0  0  0  0  0  0  0  0
   56.1061   31.5263   43.0669 H   0  0  0  0  0  0  0  0  0  0  0  0
   55.7600   29.7450   44.2520 C   0  0  0  0  0  0  0  0  0  0  0  0
   54.6715   29.7621   44.0942 H   0  0  0  0  0  0  0  0  0  0  0  0
   56.3370   28.7330   45.0270 C   0  0  0  0  0  0  0  0  0  0  0  0
   55.5200   27.7660   45.6020 O   0  0  0  0  0  0  0  0  0  0  0  0
   58.8050   28.7820   48.9410 N   0  0  0  0  0  0  0  0  0  0  0  0
   58.6410   29.6970   49.9300 C   0  0  0  0  0  0  0  0  0  0  0  0
   58.1350   29.3350   51.0270 O   0  0  0  0  0  0  0  0  0  0  0  0
   59.9080   32.8430   51.2170 C   0  0  0  0  0  0  0  0  0  0  0  0
   60.9009   32.7237   50.7589 H   0  0  0  0  0  0  0  0  0  0  0  0
   59.7110   33.8020   52.2160 C   0  0  0  0  0  0  0  0  0  0  0  0
   60.5480   34.4379   52.5401 H   0  0  0  0  0  0  0  0  0  0  0  0
  1  2  1  0
  2  3  2  0
  3  4  1  0
  3  5  1  0
  5  6  1  0
  5  7  2  0
  7  8  1  0
  8  9  2  0
  9 10  1  0
 10 11  1  0
 10 12  1  0
 10 13  1  0
 13 14  2  0
 14 15  1  0
 14 16  1  0
 16 17  1  0
 16 18  2  0
 18 19  1  0
 18 20  1  0
 20 21  1  0
 20 22  2  0
 22 23  1  0
  9 24  1  0
 24 25  1  0
 25 26  2  0
 26 27  1  0
 27 28  1  0
 27 29  1  0
 27 30  1  0
 30 31  2  0
 31 32  1  0
 31 33  1  0
 33 34  1  0
 33 35  2  0
 35 36  1  0
 35 37  1  0
 37 38  1  0
 37 39  2  0
 39 40  1  0
 25 41  1  0
 41 42  1  0
 42 43  2  0
  7 44  1  0
 44 45  1  0
 44 46  2  0
 46 47  1  0
 46  2  1  0
 42  8  1  0
 22 13  1  0
 39 30  1  0
M  CHG  3  24  -1  40  -1  41  -1
M  END
>  <UniqueID>  (71) 
64

>  <SMILES>  (71) 
O=c1[n-]/c(=N/Cc2ccccc2[O-])[n-]c(Cc2ccccc2)c1-c1ccccc1

>  <Energy>  (71) 
58.10860718947

>  <Genealogy>  (71) 
O=c1[n-]c(=NCc2ccccc2[O-])[n-]c(Cc2ccccc2)c1-c1ccccc1 (protonated)
O=c1[n-]/c(=N/Cc2ccccc2[O-])[n-]c(Cc2ccccc2)c1-c1ccccc1 (cis-trans isomerization)
O=c1[n-]/c(=N/Cc2ccccc2[O-])[n-]c(Cc2ccccc2)c1-c1ccccc1 (3D coordinates assigned)
O=c1[n-]/c(=N/Cc2ccccc2[O-])[n-]c(Cc2ccccc2)c1-c1ccccc1 (optimized conformer: 58.10860718947 kcal/mol)

>  <smiles>  (71) 
O=c1[nH]c(=NCc2ccccc2O)[nH]c(Cc2ccccc2)c1-c1ccccc1

>  <score_type>  (71) 
oracle

>  <origin>  (71) 
adg

>  <m_score__min__energy>  (71) 
-14.59

>  <m_primary>  (71) 
energy

$$$$
71:0
     RDKit          3D

 52 54  0  0  0  0  0  0  0  0999 V2000
   57.2170   28.4280   45.1600 C   0  0  0  0  0  0  0  0  0  0  0  0
   55.8780   29.0150   45.2130 N   0  0  0  0  0  0  0  0  0  0  0  0
   55.5780   29.7120   43.9580 C   0  0  0  0  0  0  0  0  0  0  0  0
   56.5290   30.8640   43.7770 C   0  0  0  0  0  0  0  0  0  0  0  0
   57.1340   31.0930   42.5320 C   0  0  0  0  0  0  0  0  0  0  0  0
   58.0440   32.1410   42.3740 C   0  0  0  0  0  0  0  0  0  0  0  0
   58.3650   32.9620   43.4590 C   0  0  0  0  0  0  0  0  0  0  0  0
   57.7810   32.7350   44.7160 C   0  0  0  0  0  0  0  0  0  0  0  0
   58.1500   33.6120   45.8930 C   0  0  0  0  0  0  0  0  0  0  0  0
   59.3860   33.1490   46.5720 N   0  0  1  0  0  0  0  0  0  0  0  0
   60.2620   34.2890   46.9640 C   0  0  0  0  0  0  0  0  0  0  0  0
   61.5930   33.8850   47.5750 C   0  0  0  0  0  0  0  0  0  0  0  0
   62.6460   33.4320   46.7600 C   0  0  0  0  0  0  0  0  0  0  0  0
   63.8700   33.0610   47.3240 C   0  0  0  0  0  0  0  0  0  0  0  0
   64.0630   33.1560   48.7040 C   0  0  0  0  0  0  0  0  0  0  0  0
   63.0350   33.6330   49.5210 C   0  0  0  0  0  0  0  0  0  0  0  0
   61.8080   34.0020   48.9600 C   0  0  0  0  0  0  0  0  0  0  0  0
   59.0770   32.2490   47.7170 C   0  0  0  0  0  0  0  0  0  0  0  0
   59.4130   30.8040   47.4170 C   0  0  0  0  0  0  0  0  0  0  0  0
   59.0120   29.7770   48.2890 C   0  0  0  0  0  0  0  0  0  0  0  0
   59.3210   28.4430   48.0000 C   0  0  0  0  0  0  0  0  0  0  0  0
   60.0210   28.1230   46.8320 C   0  0  0  0  0  0  0  0  0  0  0  0
   60.4070   26.4500   46.4700 Cl  0  0  0  0  0  0  0  0  0  0  0  0
   60.4050   29.1360   45.9470 C   0  0  0  0  0  0  0  0  0  0  0  0
   60.0970   30.4700   46.2350 C   0  0  0  0  0  0  0  0  0  0  0  0
   56.8650   31.6800   44.8690 C   0  0  0  0  0  0  0  0  0  0  0  0
   57.5870   28.2658   46.1831 H   0  0  0  0  0  0  0  0  0  0  0  0
   57.1748   27.4658   44.6285 H   0  0  0  0  0  0  0  0  0  0  0  0
   57.8960   29.1110   44.6285 H   0  0  0  0  0  0  0  0  0  0  0  0
   55.8760   29.7230   45.9850 H   0  0  0  0  0  0  0  0  0  0  0  0
   55.6870   29.0123   43.1162 H   0  0  0  0  0  0  0  0  0  0  0  0
   54.5467   30.0931   43.9908 H   0  0  0  0  0  0  0  0  0  0  0  0
   56.8908   30.4449   41.6771 H   0  0  0  0  0  0  0  0  0  0  0  0
   58.5091   32.3207   41.3935 H   0  0  0  0  0  0  0  0  0  0  0  0
   59.0780   33.7893   43.3277 H   0  0  0  0  0  0  0  0  0  0  0  0
   58.3072   34.6396   45.5334 H   0  0  0  0  0  0  0  0  0  0  0  0
   57.3268   33.5638   46.6210 H   0  0  0  0  0  0  0  0  0  0  0  0
   59.9350   32.6050   45.8640 H   0  0  0  0  0  0  0  0  0  0  0  0
   60.4656   34.8896   46.0652 H   0  0  0  0  0  0  0  0  0  0  0  0
   59.7188   34.8455   47.7420 H   0  0  0  0  0  0  0  0  0  0  0  0
   62.5053   33.3692   45.6708 H   0  0  0  0  0  0  0  0  0  0  0  0
   64.6825   32.6936   46.6799 H   0  0  0  0  0  0  0  0  0  0  0  0
   65.0238   32.8554   49.1473 H   0  0  0  0  0  0  0  0  0  0  0  0
   63.1907   33.7185   50.6066 H   0  0  0  0  0  0  0  0  0  0  0  0
   61.0055   34.3864   49.6066 H   0  0  0  0  0  0  0  0  0  0  0  0
   59.6611   32.5742   48.5906 H   0  0  0  0  0  0  0  0  0  0  0  0
   57.9961   32.3103   47.9118 H   0  0  0  0  0  0  0  0  0  0  0  0
   58.4523   30.0232   49.2034 H   0  0  0  0  0  0  0  0  0  0  0  0
   59.0131   27.6453   48.6920 H   0  0  0  0  0  0  0  0  0  0  0  0
   60.9490   28.8838   45.0248 H   0  0  0  0  0  0  0  0  0  0  0  0
   60.3920   31.2629   45.5319 H   0  0  0  0  0  0  0  0  0  0  0  0
   56.4079   31.4922   45.8517 H   0  0  0  0  0  0  0  0  0  0  0  0
  1  2  1  0
  2  3  1  0
  3  4  1  0
  4  5  2  0
  5  6  1  0
  6  7  2  0
  7  8  1  0
  8  9  1  0
  9 10  1  0
 10 11  1  0
 11 12  1  0
 12 13  2  0
 13 14  1  0
 14 15  2  0
 15 16  1  0
 16 17  2  0
 10 18  1  0
 18 19  1  0
 19 20  2  0
 20 21  1  0
 21 22  2  0
 22 23  1  0
 22 24  1  0
 24 25  2  0
  8 26  2  0
 26  4  1  0
 17 12  1  0
 25 19  1  0
  1 27  1  0
  1 28  1  0
  1 29  1  0
  2 30  1  0
  3 31  1  0
  3 32  1  0
  5 33  1  0
  6 34  1  0
  7 35  1  0
  9 36  1  0
  9 37  1  0
 10 38  1  6
 11 39  1  0
 11 40  1  0
 13 41  1  0
 14 42  1  0
 15 43  1  0
 16 44  1  0
 17 45  1  0
 18 46  1  0
 18 47  1  0
 20 48  1  0
 21 49  1  0
 24 50  1  0
 25 51  1  0
 26 52  1  0
M  CHG  1  10   1
M  END
>  <UniqueID>  (72) 
65

>  <SMILES>  (72) 
CNCc1cccc(C[N@@H+](Cc2ccccc2)Cc2ccc(Cl)cc2)c1

>  <Energy>  (72) 
57.26088294748831

>  <Genealogy>  (72) 
CNCc1cccc(C[NH+](Cc2ccccc2)Cc2ccc(Cl)cc2)c1 (protonated)
CNCc1cccc(C[N@@H+](Cc2ccccc2)Cc2ccc(Cl)cc2)c1 (chirality)
CNCc1cccc(C[N@@H+](Cc2ccccc2)Cc2ccc(Cl)cc2)c1 (3D coordinates assigned)
CNCc1cccc(C[N@@H+](Cc2ccccc2)Cc2ccc(Cl)cc2)c1 (optimized conformer: 57.26088294748831 kcal/mol)

>  <smiles>  (72) 
CNCc1cccc(CN(Cc2ccccc2)Cc2ccc(Cl)cc2)c1

>  <score_type>  (72) 
oracle

>  <origin>  (72) 
adg

>  <m_score__min__energy>  (72) 
-7.5199999999999996

>  <m_primary>  (72) 
energy

$$$$
72:0
     RDKit          3D

 48 50  0  0  0  0  0  0  0  0999 V2000
   62.4480   30.1040   50.8940 C   0  0  0  0  0  0  0  0  0  0  0  0
   61.0600   30.2400   50.6080 O   0  0  0  0  0  0  0  0  0  0  0  0
   60.5120   30.2540   49.3160 C   0  0  0  0  0  0  0  0  0  0  0  0
   61.3020   30.4630   48.1720 C   0  0  0  0  0  0  0  0  0  0  0  0
   60.7180   30.4740   46.9040 C   0  0  0  0  0  0  0  0  0  0  0  0
   59.3400   30.2750   46.7540 C   0  0  0  0  0  0  0  0  0  0  0  0
   58.7460   30.2860   45.4410 N   0  0  0  0  0  0  0  0  0  0  0  0
   59.0970   29.2270   44.4900 C   0  0  0  0  0  0  0  0  0  0  0  0
   58.0110   31.4430   44.9920 C   0  0  0  0  0  0  0  0  0  0  0  0
   56.7550   31.3980   44.9040 O   0  0  0  0  0  0  0  0  0  0  0  0
   58.7180   32.7250   44.6420 C   0  0  0  0  0  0  0  0  0  0  0  0
   58.0930   34.1260   45.6370 S   0  0  0  0  0  0  0  0  0  0  0  0
   59.2620   33.8980   46.9760 C   0  0  0  0  0  0  0  0  0  0  0  0
   58.8250   33.7780   48.2510 N   0  0  0  0  0  0  0  0  0  0  0  0
   59.7090   33.6360   49.2710 C   0  0  0  0  0  0  0  0  0  0  0  0
   59.2660   33.5290   50.4470 O   0  0  0  0  0  0  0  0  0  0  0  0
   61.0580   33.6110   49.0170 N   0  0  0  0  0  0  0  0  0  0  0  0
   61.9640   33.4710   50.0370 C   0  0  0  0  0  0  0  0  0  0  0  0
   63.3340   33.4420   49.7730 C   0  0  0  0  0  0  0  0  0  0  0  0
   63.7850   33.5640   48.4640 C   0  0  0  0  0  0  0  0  0  0  0  0
   62.8700   33.7230   47.4180 C   0  0  0  0  0  0  0  0  0  0  0  0
   63.3630   33.8420   46.0000 C   0  0  0  0  0  0  0  0  0  0  0  0
   61.4920   33.7310   47.7150 C   0  0  0  0  0  0  0  0  0  0  0  0
   60.5890   33.8730   46.7110 N   0  0  0  0  0  0  0  0  0  0  0  0
   58.5510   30.0530   47.8930 C   0  0  0  0  0  0  0  0  0  0  0  0
   59.1310   30.0520   49.1780 C   0  0  0  0  0  0  0  0  0  0  0  0
   58.3670   29.8560   50.3390 O   0  0  0  0  0  0  0  0  0  0  0  0
   58.0290   30.8820   51.2660 C   0  0  0  0  0  0  0  0  0  0  0  0
   62.5981   30.0893   51.9836 H   0  0  0  0  0  0  0  0  0  0  0  0
   62.8216   29.1650   50.4597 H   0  0  0  0  0  0  0  0  0  0  0  0
   62.9967   30.9527   50.4597 H   0  0  0  0  0  0  0  0  0  0  0  0
   62.3859   30.6187   48.2765 H   0  0  0  0  0  0  0  0  0  0  0  0
   61.3452   30.6403   46.0158 H   0  0  0  0  0  0  0  0  0  0  0  0
   59.3965   28.3235   45.0414 H   0  0  0  0  0  0  0  0  0  0  0  0
   58.2264   28.9989   43.8575 H   0  0  0  0  0  0  0  0  0  0  0  0
   59.9315   29.5640   43.8575 H   0  0  0  0  0  0  0  0  0  0  0  0
   59.7946   32.6033   44.8323 H   0  0  0  0  0  0  0  0  0  0  0  0
   58.5311   32.9443   43.5804 H   0  0  0  0  0  0  0  0  0  0  0  0
   61.6072   33.3807   51.0736 H   0  0  0  0  0  0  0  0  0  0  0  0
   64.0533   33.3232   50.5967 H   0  0  0  0  0  0  0  0  0  0  0  0
   64.8636   33.5355   48.2502 H   0  0  0  0  0  0  0  0  0  0  0  0
   64.4323   34.1001   46.0040 H   0  0  0  0  0  0  0  0  0  0  0  0
   63.2191   32.8833   45.4801 H   0  0  0  0  0  0  0  0  0  0  0  0
   62.7977   34.6295   45.4801 H   0  0  0  0  0  0  0  0  0  0  0  0
   57.4706   29.8782   47.7823 H   0  0  0  0  0  0  0  0  0  0  0  0
   58.1533   30.5048   52.2918 H   0  0  0  0  0  0  0  0  0  0  0  0
   58.6893   31.7480   51.1113 H   0  0  0  0  0  0  0  0  0  0  0  0
   56.9832   31.1860   51.1113 H   0  0  0  0  0  0  0  0  0  0  0  0
  1  2  1  0
  2  3  1  0
  3  4  2  0
  4  5  1  0
  5  6  2  0
  6  7  1  0
  7  8  1  0
  7  9  1  0
  9 10  2  0
  9 11  1  0
 11 12  1  0
 12 13  1  0
 13 14  2  0
 14 15  1  0
 15 16  2  0
 15 17  1  0
 17 18  1  0
 18 19  2  0
 19 20  1  0
 20 21  2  0
 21 22  1  0
 21 23  1  0
 23 24  2  0
  6 25  1  0
 25 26  2  0
 26 27  1  0
 27 28  1  0
 26  3  1  0
 24 13  1  0
 23 17  1  0
  1 29  1  0
  1 30  1  0
  1 31  1  0
  4 32  1  0
  5 33  1  0
  8 34  1  0
  8 35  1  0
  8 36  1  0
 11 37  1  0
 11 38  1  0
 18 39  1  0
 19 40  1  0
 20 41  1  0
 22 42  1  0
 22 43  1  0
 22 44  1  0
 25 45  1  0
 28 46  1  0
 28 47  1  0
 28 48  1  0
M  END
>  <UniqueID>  (73) 
66

>  <SMILES>  (73) 
COc1ccc(N(C)C(=O)CSc2nc(=O)n3cccc(C)c3n2)cc1OC

>  <Energy>  (73) 
50.53413685342642

>  <Genealogy>  (73) 
COc1ccc(N(C)C(=O)CSc2nc(=O)n3cccc(C)c3n2)cc1OC (3D coordinates assigned)
COc1ccc(N(C)C(=O)CSc2nc(=O)n3cccc(C)c3n2)cc1OC (optimized conformer: 50.53413685342642 kcal/mol)

>  <smiles>  (73) 
COc1ccc(N(C)C(=O)CSc2nc(=O)n3cccc(C)c3n2)cc1OC

>  <score_type>  (73) 
oracle

>  <origin>  (73) 
adg

>  <m_score__min__energy>  (73) 
-8.0800000000000001

>  <m_primary>  (73) 
energy

$$$$
73:0
     RDKit          3D

 33 35  0  0  0  0  0  0  0  0999 V2000
   57.6370   28.5310   43.8330 N   0  0  0  0  0  0  0  0  0  0  0  0
   56.6520   29.9390   44.0270 S   0  0  0  0  0  0  0  0  0  0  0  0
   55.4540   29.5990   44.8690 O   0  0  0  0  0  0  0  0  0  0  0  0
   56.1770   30.4070   42.6810 O   0  0  0  0  0  0  0  0  0  0  0  0
   57.5880   31.2110   44.8050 C   0  0  0  0  0  0  0  0  0  0  0  0
   57.2470   32.5570   44.6130 C   0  0  0  0  0  0  0  0  0  0  0  0
   57.9800   33.5660   45.2460 C   0  0  0  0  0  0  0  0  0  0  0  0
   59.0470   33.2410   46.0900 C   0  0  0  0  0  0  0  0  0  0  0  0
   59.7830   34.3020   46.7170 N   0  0  0  0  0  0  0  0  0  0  0  0
   60.3070   34.2930   48.0530 C   0  0  0  0  0  0  0  0  0  0  0  0
   59.5470   34.6240   49.0000 O   0  0  0  0  0  0  0  0  0  0  0  0
   61.6920   33.8580   48.3520 C   0  0  0  0  0  0  0  0  0  0  0  0
   62.4580   33.1940   47.3580 C   0  0  0  0  0  0  0  0  0  0  0  0
   63.7740   32.7760   47.6280 C   0  0  0  0  0  0  0  0  0  0  0  0
   64.2950   33.0440   48.8890 C   0  0  0  0  0  0  0  0  0  0  0  0
   63.5770   33.6890   49.8410 C   0  0  0  0  0  0  0  0  0  0  0  0
   62.2740   34.1200   49.6160 C   0  0  0  0  0  0  0  0  0  0  0  0
   64.3420   33.8230   50.9830 O   0  0  0  0  0  0  0  0  0  0  0  0
   65.6200   33.2200   50.7330 C   0  0  0  0  0  0  0  0  0  0  0  0
   65.5480   32.7370   49.3850 O   0  0  0  0  0  0  0  0  0  0  0  0
   59.4010   31.8910   46.2670 C   0  0  0  0  0  0  0  0  0  0  0  0
   58.6670   30.8840   45.6360 C   0  0  0  0  0  0  0  0  0  0  0  0
   58.2490   28.7000   43.0020 H   0  0  0  0  0  0  0  0  0  0  0  0
   56.9980   27.7450   43.5800 H   0  0  0  0  0  0  0  0  0  0  0  0
   56.4001   32.8205   43.9623 H   0  0  0  0  0  0  0  0  0  0  0  0
   57.7160   34.6207   45.0792 H   0  0  0  0  0  0  0  0  0  0  0  0
   62.0185   33.0046   46.3676 H   0  0  0  0  0  0  0  0  0  0  0  0
   64.3715   32.2540   46.8661 H   0  0  0  0  0  0  0  0  0  0  0  0
   61.7110   34.6499   50.3985 H   0  0  0  0  0  0  0  0  0  0  0  0
   66.4243   33.9636   50.8343 H   0  0  0  0  0  0  0  0  0  0  0  0
   65.8425   32.4143   51.4481 H   0  0  0  0  0  0  0  0  0  0  0  0
   60.2582   31.6277   46.9041 H   0  0  0  0  0  0  0  0  0  0  0  0
   58.9376   29.8293   45.7924 H   0  0  0  0  0  0  0  0  0  0  0  0
  1  2  1  0
  2  3  2  0
  2  4  2  0
  2  5  1  0
  5  6  2  0
  6  7  1  0
  7  8  2  0
  8  9  1  0
  9 10  1  0
 10 11  2  0
 10 12  1  0
 12 13  2  0
 13 14  1  0
 14 15  2  0
 15 16  1  0
 16 17  2  0
 16 18  1  0
 18 19  1  0
 19 20  1  0
  8 21  1  0
 21 22  2  0
 22  5  1  0
 17 12  1  0
 20 15  1  0
  1 23  1  0
  1 24  1  0
  6 25  1  0
  7 26  1  0
 13 27  1  0
 14 28  1  0
 17 29  1  0
 19 30  1  0
 19 31  1  0
 21 32  1  0
 22 33  1  0
M  CHG  1   9  -1
M  END
>  <UniqueID>  (74) 
67

>  <SMILES>  (74) 
NS(=O)(=O)c1ccc([N-]C(=O)c2ccc3c(c2)OCO3)cc1

>  <Energy>  (74) 
68.24539388966859

>  <Genealogy>  (74) 
NS(=O)(=O)c1ccc([N-]C(=O)c2ccc3c(c2)OCO3)cc1 (protonated)
NS(=O)(=O)c1ccc([N-]C(=O)c2ccc3c(c2)OCO3)cc1 (3D coordinates assigned)
NS(=O)(=O)c1ccc([N-]C(=O)c2ccc3c(c2)OCO3)cc1 (nonaromatic ring conformer: 68.24539388966859 kcal/mol)

>  <smiles>  (74) 
NS(=O)(=O)c1ccc(NC(=O)c2ccc3c(c2)OCO3)cc1

>  <score_type>  (74) 
oracle

>  <origin>  (74) 
adg

>  <m_score__min__energy>  (74) 
-8.9399999999999995

>  <m_primary>  (74) 
energy

$$$$
74:0
     RDKit          3D

 36 38  0  0  0  0  0  0  0  0999 V2000
   55.5190   29.1500   45.2170 N   0  0  0  0  0  0  0  0  0  0  0  0
   56.3530   29.8690   44.3100 C   0  0  0  0  0  0  0  0  0  0  0  0
   56.3230   29.5750   43.0840 O   0  0  0  0  0  0  0  0  0  0  0  0
   57.2440   30.9470   44.7970 C   0  0  0  0  0  0  0  0  0  0  0  0
   57.0440   32.2780   44.3900 C   0  0  0  0  0  0  0  0  0  0  0  0
   57.8830   33.2970   44.8490 C   0  0  0  0  0  0  0  0  0  0  0  0
   58.9410   33.0040   45.7230 C   0  0  0  0  0  0  0  0  0  0  0  0
   59.8310   34.0990   46.2480 C   0  0  0  0  0  0  0  0  0  0  0  0
   60.2530   33.7940   47.6160 N   0  0  0  0  0  0  0  0  0  0  0  0
   59.4460   33.7710   48.7030 C   0  0  0  0  0  0  0  0  0  0  0  0
   60.1870   33.5260   49.8580 C   0  0  0  0  0  0  0  0  0  0  0  0
   59.6640   33.4400   51.2410 C   0  0  0  0  0  0  0  0  0  0  0  0
   58.8750   34.4940   51.7980 N   0  0  0  0  0  0  0  0  0  0  0  0
   59.9110   32.4270   51.9460 O   0  0  0  0  0  0  0  0  0  0  0  0
   61.5050   33.4050   49.4320 C   0  0  0  0  0  0  0  0  0  0  0  0
   62.6910   33.1690   50.1360 C   0  0  0  0  0  0  0  0  0  0  0  0
   63.8910   33.1130   49.4090 C   0  0  0  0  0  0  0  0  0  0  0  0
   63.8920   33.2920   48.0110 C   0  0  0  0  0  0  0  0  0  0  0  0
   62.6880   33.5280   47.3240 C   0  0  0  0  0  0  0  0  0  0  0  0
   61.5050   33.5790   48.0670 C   0  0  0  0  0  0  0  0  0  0  0  0
   59.1430   31.6780   46.1350 C   0  0  0  0  0  0  0  0  0  0  0  0
   58.3040   30.6590   45.6750 C   0  0  0  0  0  0  0  0  0  0  0  0
   54.4940   29.3410   45.2720 H   0  0  0  0  0  0  0  0  0  0  0  0
   56.2191   32.5195   43.7036 H   0  0  0  0  0  0  0  0  0  0  0  0
   57.7132   34.3339   44.5235 H   0  0  0  0  0  0  0  0  0  0  0  0
   60.7189   34.1857   45.6045 H   0  0  0  0  0  0  0  0  0  0  0  0
   59.2730   35.0470   46.2470 H   0  0  0  0  0  0  0  0  0  0  0  0
   58.3570   33.9243   48.6781 H   0  0  0  0  0  0  0  0  0  0  0  0
   58.5280   34.4180   52.7810 H   0  0  0  0  0  0  0  0  0  0  0  0
   58.6140   35.3400   51.2480 H   0  0  0  0  0  0  0  0  0  0  0  0
   62.6835   33.0313   51.2273 H   0  0  0  0  0  0  0  0  0  0  0  0
   64.8389   32.9277   49.9354 H   0  0  0  0  0  0  0  0  0  0  0  0
   64.8397   33.2468   47.4544 H   0  0  0  0  0  0  0  0  0  0  0  0
   62.6773   33.6685   46.2331 H   0  0  0  0  0  0  0  0  0  0  0  0
   59.9665   31.4390   46.8240 H   0  0  0  0  0  0  0  0  0  0  0  0
   58.4744   29.6229   46.0027 H   0  0  0  0  0  0  0  0  0  0  0  0
  1  2  1  0
  2  3  2  0
  2  4  1  0
  4  5  2  0
  5  6  1  0
  6  7  2  0
  7  8  1  0
  8  9  1  0
  9 10  1  0
 10 11  2  0
 11 12  1  0
 12 13  1  0
 12 14  2  0
 11 15  1  0
 15 16  2  0
 16 17  1  0
 17 18  2  0
 18 19  1  0
 19 20  2  0
  7 21  1  0
 21 22  2  0
 22  4  1  0
 20  9  1  0
 20 15  1  0
  1 23  1  0
  5 24  1  0
  6 25  1  0
  8 26  1  0
  8 27  1  0
 10 28  1  0
 13 29  1  0
 13 30  1  0
 16 31  1  0
 17 32  1  0
 18 33  1  0
 19 34  1  0
 21 35  1  0
 22 36  1  0
M  CHG  1   1  -1
M  END
>  <UniqueID>  (75) 
68

>  <SMILES>  (75) 
[NH-]C(=O)c1ccc(Cn2cc(C(N)=O)c3ccccc32)cc1

>  <Energy>  (75) 
70.95359644994794

>  <Genealogy>  (75) 
[NH-]C(=O)c1ccc(Cn2cc(C(N)=O)c3ccccc32)cc1 (protonated)
[NH-]C(=O)c1ccc(Cn2cc(C(N)=O)c3ccccc32)cc1 (3D coordinates assigned)
[NH-]C(=O)c1ccc(Cn2cc(C(N)=O)c3ccccc32)cc1 (optimized conformer: 70.95359644994794 kcal/mol)

>  <smiles>  (75) 
NC(=O)c1ccc(Cn2cc(C(N)=O)c3ccccc32)cc1

>  <score_type>  (75) 
oracle

>  <origin>  (75) 
adg

>  <m_score__min__energy>  (75) 
-11

>  <m_primary>  (75) 
energy

$$$$
75:0
     RDKit          3D

 56 59  0  0  0  0  0  0  0  0999 V2000
   65.3040   33.0570   50.0010 C   0  0  0  0  0  0  0  0  0  0  0  0
   64.5210   32.3540   49.0420 O   0  0  0  0  0  0  0  0  0  0  0  0
   63.4080   32.8950   48.3780 C   0  0  0  0  0  0  0  0  0  0  0  0
   63.4610   33.3170   47.0360 C   0  0  0  0  0  0  0  0  0  0  0  0
   62.3220   33.8440   46.4190 C   0  0  0  0  0  0  0  0  0  0  0  0
   61.1200   33.9510   47.1280 C   0  0  0  0  0  0  0  0  0  0  0  0
   59.6870   34.5870   46.3220 S   0  0  0  0  0  0  0  0  0  0  0  0
   59.9840   36.0000   45.9120 O   0  0  0  0  0  0  0  0  0  0  0  0
   58.5210   34.6200   47.2700 O   0  0  0  0  0  0  0  0  0  0  0  0
   59.2630   33.6790   44.8920 N   0  0  0  0  0  0  0  0  0  0  0  0
   58.4890   32.4370   45.0880 C   0  0  1  0  0  0  0  0  0  0  0  0
   57.7900   31.9730   43.8040 C   0  0  0  0  0  0  0  0  0  0  0  0
   56.7420   30.9040   44.1390 C   0  0  0  0  0  0  0  0  0  0  0  0
   57.2790   29.8280   45.0580 C   0  0  0  0  0  0  0  0  0  0  0  0
   56.5620   28.6270   45.1780 C   0  0  0  0  0  0  0  0  0  0  0  0
   56.9970   27.6170   46.0480 C   0  0  0  0  0  0  0  0  0  0  0  0
   56.2630   26.3420   46.1490 C   0  0  0  0  0  0  0  0  0  0  0  0
   55.0150   26.3380   45.9760 O   0  0  0  0  0  0  0  0  0  0  0  0
   56.9180   25.1040   46.4650 N   0  0  0  0  0  0  0  0  0  0  0  0
   58.1860   24.6360   45.9070 C   0  0  0  0  0  0  0  0  0  0  0  0
   57.9550   23.8300   44.6190 C   0  0  0  0  0  0  0  0  0  0  0  0
   56.7230   22.9270   44.6630 C   0  0  0  0  0  0  0  0  0  0  0  0
   56.0890   23.7410   43.5430 C   0  0  0  0  0  0  0  0  0  0  0  0
   57.3130   24.6460   43.4990 C   0  0  0  0  0  0  0  0  0  0  0  0
   58.1240   27.8370   46.8500 C   0  0  0  0  0  0  0  0  0  0  0  0
   58.8360   29.0340   46.7540 C   0  0  0  0  0  0  0  0  0  0  0  0
   58.4200   30.0410   45.8710 C   0  0  0  0  0  0  0  0  0  0  0  0
   59.2780   31.2760   45.7190 C   0  0  0  0  0  0  0  0  0  0  0  0
   61.0680   33.5400   48.4680 C   0  0  0  0  0  0  0  0  0  0  0  0
   62.2060   33.0130   49.0850 C   0  0  0  0  0  0  0  0  0  0  0  0
   64.9858   32.7714   51.0145 H   0  0  0  0  0  0  0  0  0  0  0  0
   66.3656   32.8031   49.8647 H   0  0  0  0  0  0  0  0  0  0  0  0
   65.1655   34.1397   49.8647 H   0  0  0  0  0  0  0  0  0  0  0  0
   64.4010   33.2320   46.4711 H   0  0  0  0  0  0  0  0  0  0  0  0
   62.3710   34.1760   45.3714 H   0  0  0  0  0  0  0  0  0  0  0  0
   57.7237   32.7211   45.8253 H   0  0  0  0  0  0  0  0  0  0  0  0
   57.2956   32.8319   43.3267 H   0  0  0  0  0  0  0  0  0  0  0  0
   58.5368   31.5466   43.1182 H   0  0  0  0  0  0  0  0  0  0  0  0
   55.8866   31.3913   44.6297 H   0  0  0  0  0  0  0  0  0  0  0  0
   56.4481   30.4196   43.1961 H   0  0  0  0  0  0  0  0  0  0  0  0
   55.6491   28.4767   44.5831 H   0  0  0  0  0  0  0  0  0  0  0  0
   58.8214   25.5045   45.6791 H   0  0  0  0  0  0  0  0  0  0  0  0
   58.6756   23.9845   46.6458 H   0  0  0  0  0  0  0  0  0  0  0  0
   58.9574   23.3943   44.4947 H   0  0  0  0  0  0  0  0  0  0  0  0
   56.9246   21.8786   44.3980 H   0  0  0  0  0  0  0  0  0  0  0  0
   56.1841   22.7649   45.6082 H   0  0  0  0  0  0  0  0  0  0  0  0
   55.9186   23.1724   42.6169 H   0  0  0  0  0  0  0  0  0  0  0  0
   55.0850   24.1719   43.6705 H   0  0  0  0  0  0  0  0  0  0  0  0
   57.8626   24.6123   42.5468 H   0  0  0  0  0  0  0  0  0  0  0  0
   57.2036   25.7362   43.5963 H   0  0  0  0  0  0  0  0  0  0  0  0
   58.4500   27.0622   47.5595 H   0  0  0  0  0  0  0  0  0  0  0  0
   59.7302   29.1885   47.3757 H   0  0  0  0  0  0  0  0  0  0  0  0
   59.6374   31.5858   46.7114 H   0  0  0  0  0  0  0  0  0  0  0  0
   60.1209   31.0311   45.0560 H   0  0  0  0  0  0  0  0  0  0  0  0
   60.1296   33.6326   49.0345 H   0  0  0  0  0  0  0  0  0  0  0  0
   62.1565   32.6883   50.1348 H   0  0  0  0  0  0  0  0  0  0  0  0
  1  2  1  0
  2  3  1  0
  3  4  2  0
  4  5  1  0
  5  6  2  0
  6  7  1  0
  7  8  2  0
  7  9  2  0
  7 10  1  0
 10 11  1  0
 11 12  1  0
 12 13  1  0
 13 14  1  0
 14 15  2  0
 15 16  1  0
 16 17  1  0
 17 18  2  0
 17 19  1  0
 19 20  1  0
 20 21  1  0
 21 22  1  0
 22 23  1  0
 23 24  1  0
 16 25  2  0
 25 26  1  0
 26 27  2  0
 27 28  1  0
  6 29  1  0
 29 30  2  0
 30  3  1  0
 28 11  1  0
 27 14  1  0
 24 21  1  0
  1 31  1  0
  1 32  1  0
  1 33  1  0
  4 34  1  0
  5 35  1  0
 11 36  1  1
 12 37  1  0
 12 38  1  0
 13 39  1  0
 13 40  1  0
 15 41  1  0
 20 42  1  0
 20 43  1  0
 21 44  1  0
 22 45  1  0
 22 46  1  0
 23 47  1  0
 23 48  1  0
 24 49  1  0
 24 50  1  0
 25 51  1  0
 26 52  1  0
 28 53  1  0
 28 54  1  0
 29 55  1  0
 30 56  1  0
M  CHG  2  10  -1  19  -1
M  END
>  <UniqueID>  (76) 
69

>  <SMILES>  (76) 
COc1ccc(S(=O)(=O)[N-][C@H]2CCc3cc(C(=O)[N-]CC4CCC4)ccc3C2)cc1

>  <Energy>  (76) 
124.57094956429914

>  <Genealogy>  (76) 
COc1ccc(S(=O)(=O)[N-]C2CCc3cc(C(=O)[N-]CC4CCC4)ccc3C2)cc1 (protonated)
COc1ccc(S(=O)(=O)[N-][C@H]2CCc3cc(C(=O)[N-]CC4CCC4)ccc3C2)cc1 (chirality)
COc1ccc(S(=O)(=O)[N-][C@H]2CCc3cc(C(=O)[N-]CC4CCC4)ccc3C2)cc1 (3D coordinates assigned)
COc1ccc(S(=O)(=O)[N-][C@H]2CCc3cc(C(=O)[N-]CC4CCC4)ccc3C2)cc1 (nonaromatic ring conformer: 124.57094956429914 kcal/mol)

>  <smiles>  (76) 
COc1ccc(S(=O)(=O)NC2CCc3cc(C(=O)NCC4CCC4)ccc3C2)cc1

>  <score_type>  (76) 
oracle

>  <origin>  (76) 
adg

>  <m_score__min__energy>  (76) 
-12.359999999999999

>  <m_primary>  (76) 
energy

$$$$
76:0
     RDKit          3D

 45 47  0  0  0  0  0  0  0  0999 V2000
   59.9160   30.5910   49.1650 O   0  0  0  0  0  0  0  0  0  0  0  0
   59.7530   30.2120   47.9720 C   0  0  0  0  0  0  0  0  0  0  0  0
   58.5560   29.3760   47.6000 C   0  0  0  0  0  0  0  0  0  0  0  0
   58.6640   28.6960   46.2240 C   0  0  0  0  0  0  0  0  0  0  0  0
   57.9360   29.4460   45.1370 C   0  0  0  0  0  0  0  0  0  0  0  0
   58.5760   30.4850   44.4400 C   0  0  0  0  0  0  0  0  0  0  0  0
   57.9090   31.1630   43.4140 C   0  0  0  0  0  0  0  0  0  0  0  0
   56.6020   30.8060   43.0740 C   0  0  0  0  0  0  0  0  0  0  0  0
   55.9630   29.7650   43.7510 C   0  0  0  0  0  0  0  0  0  0  0  0
   56.6290   29.0810   44.7730 C   0  0  0  0  0  0  0  0  0  0  0  0
   60.6260   30.6850   46.9350 N   0  0  0  0  0  0  0  0  0  0  0  0
   61.5370   31.7770   47.1250 C   0  0  0  0  0  0  0  0  0  0  0  0
   62.8330   31.5010   47.5880 C   0  0  0  0  0  0  0  0  0  0  0  0
   63.7580   32.5320   47.7640 C   0  0  0  0  0  0  0  0  0  0  0  0
   63.3950   33.8500   47.4910 C   0  0  0  0  0  0  0  0  0  0  0  0
   62.1020   34.1430   47.0520 C   0  0  0  0  0  0  0  0  0  0  0  0
   61.1590   33.1160   46.8750 C   0  0  0  0  0  0  0  0  0  0  0  0
   59.8110   33.4430   46.4990 N   0  0  0  0  0  0  0  0  0  0  0  0
   58.7370   33.3050   47.4840 C   0  0  0  0  0  0  0  0  0  0  0  0
   57.4060   33.0980   46.7580 C   0  0  0  0  0  0  0  0  0  0  0  0
   57.1860   34.1230   45.8050 O   0  0  0  0  0  0  0  0  0  0  0  0
   58.1700   34.0620   44.7890 C   0  0  0  0  0  0  0  0  0  0  0  0
   59.5670   34.3290   45.3590 C   0  0  0  0  0  0  0  0  0  0  0  0
   58.4316   28.5932   48.3627 H   0  0  0  0  0  0  0  0  0  0  0  0
   57.6966   30.0606   47.5474 H   0  0  0  0  0  0  0  0  0  0  0  0
   59.7271   28.6262   45.9501 H   0  0  0  0  0  0  0  0  0  0  0  0
   58.1958   27.7043   46.3096 H   0  0  0  0  0  0  0  0  0  0  0  0
   59.6065   30.7666   44.7024 H   0  0  0  0  0  0  0  0  0  0  0  0
   58.4141   31.9778   42.8746 H   0  0  0  0  0  0  0  0  0  0  0  0
   56.0758   31.3452   42.2725 H   0  0  0  0  0  0  0  0  0  0  0  0
   54.9349   29.4828   43.4802 H   0  0  0  0  0  0  0  0  0  0  0  0
   56.1269   28.2529   45.2946 H   0  0  0  0  0  0  0  0  0  0  0  0
   60.3920   30.4250   45.9500 H   0  0  0  0  0  0  0  0  0  0  0  0
   63.1223   30.4641   47.8140 H   0  0  0  0  0  0  0  0  0  0  0  0
   64.7741   32.3041   48.1184 H   0  0  0  0  0  0  0  0  0  0  0  0
   64.1277   34.6600   47.6215 H   0  0  0  0  0  0  0  0  0  0  0  0
   61.8195   35.1854   46.8432 H   0  0  0  0  0  0  0  0  0  0  0  0
   58.9410   32.4389   48.1307 H   0  0  0  0  0  0  0  0  0  0  0  0
   58.6828   34.2155   48.0989 H   0  0  0  0  0  0  0  0  0  0  0  0
   57.4235   32.1257   46.2438 H   0  0  0  0  0  0  0  0  0  0  0  0
   56.5932   33.1260   47.4987 H   0  0  0  0  0  0  0  0  0  0  0  0
   58.1534   33.0615   44.3321 H   0  0  0  0  0  0  0  0  0  0  0  0
   57.9454   34.8333   44.0376 H   0  0  0  0  0  0  0  0  0  0  0  0
   60.3217   34.1407   44.5812 H   0  0  0  0  0  0  0  0  0  0  0  0
   59.6320   35.3760   45.6901 H   0  0  0  0  0  0  0  0  0  0  0  0
  1  2  2  0
  2  3  1  0
  3  4  1  0
  4  5  1  0
  5  6  2  0
  6  7  1  0
  7  8  2  0
  8  9  1  0
  9 10  2  0
  2 11  1  0
 11 12  1  0
 12 13  2  0
 13 14  1  0
 14 15  2  0
 15 16  1  0
 16 17  2  0
 17 18  1  0
 18 19  1  0
 19 20  1  0
 20 21  1  0
 21 22  1  0
 22 23  1  0
 10  5  1  0
 17 12  1  0
 23 18  1  0
  3 24  1  0
  3 25  1  0
  4 26  1  0
  4 27  1  0
  6 28  1  0
  7 29  1  0
  8 30  1  0
  9 31  1  0
 10 32  1  0
 11 33  1  0
 13 34  1  0
 14 35  1  0
 15 36  1  0
 16 37  1  0
 19 38  1  0
 19 39  1  0
 20 40  1  0
 20 41  1  0
 22 42  1  0
 22 43  1  0
 23 44  1  0
 23 45  1  0
M  END
>  <UniqueID>  (77) 
70

>  <SMILES>  (77) 
O=C(CCc1ccccc1)Nc1ccccc1N1CCOCC1

>  <Energy>  (77) 
51.910891317259846

>  <Genealogy>  (77) 
O=C(CCc1ccccc1)Nc1ccccc1N1CCOCC1 (3D coordinates assigned)
O=C(CCc1ccccc1)Nc1ccccc1N1CCOCC1 (nonaromatic ring conformer: 51.910891317259846 kcal/mol)

>  <smiles>  (77) 
O=C(CCc1ccccc1)Nc1ccccc1N1CCOCC1

>  <score_type>  (77) 
oracle

>  <origin>  (77) 
adg

>  <m_score__min__energy>  (77) 
-7.54

>  <m_primary>  (77) 
energy

$$$$
77:0
     RDKit          3D

 47 49  0  0  0  0  0  0  0  0999 V2000
   58.3960   22.3580   44.1680 C   0  0  0  0  0  0  0  0  0  0  0  0
   57.0360   22.8290   44.5840 C   0  0  0  0  0  0  0  0  0  0  0  0
   55.9920   21.9860   44.7340 N   0  0  0  0  0  0  0  0  0  0  0  0
   54.9700   22.7770   45.1110 C   0  0  0  0  0  0  0  0  0  0  0  0
   55.4100   24.0820   45.1860 C   0  0  0  0  0  0  0  0  0  0  0  0
   54.5980   25.2010   45.5790 N   0  0  0  0  0  0  0  0  0  0  0  0
   53.3540   25.1000   45.5570 O   0  0  0  0  0  0  0  0  0  0  0  0
   55.1550   26.3660   46.0500 O   0  0  0  0  0  0  0  0  0  0  0  0
   56.7170   24.1210   44.8380 N   0  0  0  0  0  0  0  0  0  0  0  0
   57.6250   25.2720   44.7880 C   0  0  0  0  0  0  0  0  0  0  0  0
   57.9360   25.7710   46.2020 C   0  0  0  0  0  0  0  0  0  0  0  0
   57.6460   27.1640   46.3160 O   0  0  0  0  0  0  0  0  0  0  0  0
   58.5880   28.1820   46.5420 C   0  0  0  0  0  0  0  0  0  0  0  0
   59.4370   28.1840   47.6680 C   0  0  0  0  0  0  0  0  0  0  0  0
   60.3720   29.2050   47.8480 C   0  0  0  0  0  0  0  0  0  0  0  0
   60.4740   30.2340   46.9120 C   0  0  0  0  0  0  0  0  0  0  0  0
   59.6370   30.2500   45.7950 C   0  0  0  0  0  0  0  0  0  0  0  0
   58.6820   29.2370   45.6080 C   0  0  0  0  0  0  0  0  0  0  0  0
   57.8210   29.2440   44.3700 C   0  0  0  0  0  0  0  0  0  0  0  0
   56.4680   29.7960   44.6910 C   0  0  0  0  0  0  0  0  0  0  0  0
   55.5160   29.0090   44.9440 O   0  0  0  0  0  0  0  0  0  0  0  0
   56.2510   31.2100   44.6060 N   0  0  0  0  0  0  0  0  0  0  0  0
   57.1940   32.2420   44.9290 C   0  0  0  0  0  0  0  0  0  0  0  0
   57.3960   32.6710   46.2540 C   0  0  0  0  0  0  0  0  0  0  0  0
   58.3370   33.6660   46.5370 C   0  0  0  0  0  0  0  0  0  0  0  0
   59.0920   34.2310   45.5080 C   0  0  0  0  0  0  0  0  0  0  0  0
   58.9140   33.7960   44.1930 C   0  0  0  0  0  0  0  0  0  0  0  0
   57.9740   32.8000   43.9010 C   0  0  0  0  0  0  0  0  0  0  0  0
   57.7580   32.2310   42.0840 Br  0  0  0  0  0  0  0  0  0  0  0  0
   59.0010   22.1485   45.0625 H   0  0  0  0  0  0  0  0  0  0  0  0
   58.2989   21.4412   43.5680 H   0  0  0  0  0  0  0  0  0  0  0  0
   58.8867   23.1385   43.5680 H   0  0  0  0  0  0  0  0  0  0  0  0
   53.9462   22.4365   45.3253 H   0  0  0  0  0  0  0  0  0  0  0  0
   58.5619   24.9729   44.2953 H   0  0  0  0  0  0  0  0  0  0  0  0
   57.1416   26.0825   44.2228 H   0  0  0  0  0  0  0  0  0  0  0  0
   57.3232   25.2133   46.9255 H   0  0  0  0  0  0  0  0  0  0  0  0
   59.0048   25.6123   46.4081 H   0  0  0  0  0  0  0  0  0  0  0  0
   59.3620   27.3753   48.4098 H   0  0  0  0  0  0  0  0  0  0  0  0
   61.0296   29.1979   48.7298 H   0  0  0  0  0  0  0  0  0  0  0  0
   61.2152   31.0342   47.0543 H   0  0  0  0  0  0  0  0  0  0  0  0
   59.7258   31.0607   45.0568 H   0  0  0  0  0  0  0  0  0  0  0  0
   58.2960   29.8690   43.5994 H   0  0  0  0  0  0  0  0  0  0  0  0
   57.7123   28.2139   43.9999 H   0  0  0  0  0  0  0  0  0  0  0  0
   56.8113   32.2219   47.0704 H   0  0  0  0  0  0  0  0  0  0  0  0
   58.4826   34.0043   47.5735 H   0  0  0  0  0  0  0  0  0  0  0  0
   59.8266   35.0183   45.7327 H   0  0  0  0  0  0  0  0  0  0  0  0
   59.5143   34.2373   43.3837 H   0  0  0  0  0  0  0  0  0  0  0  0
  1  2  1  0
  2  3  2  0
  3  4  1  0
  4  5  2  0
  5  6  1  0
  6  7  2  0
  6  8  1  0
  5  9  1  0
  9 10  1  0
 10 11  1  0
 11 12  1  0
 12 13  1  0
 13 14  2  0
 14 15  1  0
 15 16  2  0
 16 17  1  0
 17 18  2  0
 18 19  1  0
 19 20  1  0
 20 21  2  0
 20 22  1  0
 22 23  1  0
 23 24  2  0
 24 25  1  0
 25 26  2  0
 26 27  1  0
 27 28  2  0
 28 29  1  0
  9  2  1  0
 18 13  1  0
 28 23  1  0
  1 30  1  0
  1 31  1  0
  1 32  1  0
  4 33  1  0
 10 34  1  0
 10 35  1  0
 11 36  1  0
 11 37  1  0
 14 38  1  0
 15 39  1  0
 16 40  1  0
 17 41  1  0
 19 42  1  0
 19 43  1  0
 24 44  1  0
 25 45  1  0
 26 46  1  0
 27 47  1  0
M  CHG  3   6   1   8  -1  22  -1
M  END
>  <UniqueID>  (78) 
71

>  <SMILES>  (78) 
Cc1ncc([N+](=O)[O-])n1CCOc1ccccc1CC(=O)[N-]c1ccccc1Br

>  <Energy>  (78) 
80.05472765167197

>  <Genealogy>  (78) 
Cc1ncc([N+](=O)[O-])n1CCOc1ccccc1CC(=O)[N-]c1ccccc1Br (protonated)
Cc1ncc([N+](=O)[O-])n1CCOc1ccccc1CC(=O)[N-]c1ccccc1Br (3D coordinates assigned)
Cc1ncc([N+](=O)[O-])n1CCOc1ccccc1CC(=O)[N-]c1ccccc1Br (optimized conformer: 80.05472765167197 kcal/mol)

>  <smiles>  (78) 
Cc1ncc([N+](=O)[O-])n1CCOc1ccccc1CC(=O)Nc1ccccc1Br

>  <score_type>  (78) 
oracle

>  <origin>  (78) 
adg

>  <m_score__min__energy>  (78) 
-11.57

>  <m_primary>  (78) 
energy

$$$$
78:0
     RDKit          3D

 48 50  0  0  0  0  0  0  0  0999 V2000
   63.7220   33.4950   46.5620 C   0  0  0  0  0  0  0  0  0  0  0  0
   62.2610   33.9320   46.5990 C   0  0  0  0  0  0  0  0  0  0  0  0
   61.5220   33.2310   47.7080 C   0  0  0  0  0  0  0  0  0  0  0  0
   60.6010   33.9340   48.4980 C   0  0  0  0  0  0  0  0  0  0  0  0
   59.8940   33.2750   49.5060 C   0  0  0  0  0  0  0  0  0  0  0  0
   60.0950   31.9110   49.7300 C   0  0  0  0  0  0  0  0  0  0  0  0
   61.0120   31.1880   48.9420 C   0  0  0  0  0  0  0  0  0  0  0  0
   61.2420   29.7830   49.1450 N   0  0  0  0  0  0  0  0  0  0  0  0
   59.9720   28.6240   49.3770 S   0  0  0  0  0  0  0  0  0  0  0  0
   59.1410   29.0270   50.5620 O   0  0  0  0  0  0  0  0  0  0  0  0
   60.5730   27.2710   49.6320 O   0  0  0  0  0  0  0  0  0  0  0  0
   58.9450   28.5740   47.9570 C   0  0  0  0  0  0  0  0  0  0  0  0
   58.1320   27.5150   47.5860 C   0  0  0  0  0  0  0  0  0  0  0  0
   57.4020   27.7570   46.4110 C   0  0  0  0  0  0  0  0  0  0  0  0
   56.5520   26.7140   45.8040 C   0  0  0  0  0  0  0  0  0  0  0  0
   57.0630   25.8440   45.0500 O   0  0  0  0  0  0  0  0  0  0  0  0
   55.1760   26.7160   45.9960 O   0  0  0  0  0  0  0  0  0  0  0  0
   57.6390   29.0340   45.8750 C   0  0  0  0  0  0  0  0  0  0  0  0
   56.9700   29.6820   44.7340 C   0  0  0  0  0  0  0  0  0  0  0  0
   56.9030   29.0710   43.6330 O   0  0  0  0  0  0  0  0  0  0  0  0
   56.5120   31.0350   44.8400 N   0  0  0  0  0  0  0  0  0  0  0  0
   57.3220   32.2040   45.0430 C   0  0  0  0  0  0  0  0  0  0  0  0
   57.4050   32.8270   46.3030 C   0  0  0  0  0  0  0  0  0  0  0  0
   58.2180   33.9490   46.4840 C   0  0  0  0  0  0  0  0  0  0  0  0
   58.9640   34.4530   45.4180 C   0  0  0  0  0  0  0  0  0  0  0  0
   58.9100   33.8290   44.1700 C   0  0  0  0  0  0  0  0  0  0  0  0
   58.1000   32.6980   43.9740 C   0  0  0  0  0  0  0  0  0  0  0  0
   58.0520   32.0340   42.6260 C   0  0  0  0  0  0  0  0  0  0  0  0
   58.7630   29.8220   46.8530 S   0  0  0  0  0  0  0  0  0  0  0  0
   61.7120   31.8580   47.9260 C   0  0  0  0  0  0  0  0  0  0  0  0
   64.0973   33.3827   47.5899 H   0  0  0  0  0  0  0  0  0  0  0  0
   63.8038   32.5331   46.0347 H   0  0  0  0  0  0  0  0  0  0  0  0
   64.3185   34.2540   46.0347 H   0  0  0  0  0  0  0  0  0  0  0  0
   62.2135   35.0185   46.7642 H   0  0  0  0  0  0  0  0  0  0  0  0
   61.7898   33.6700   45.6402 H   0  0  0  0  0  0  0  0  0  0  0  0
   60.4350   35.0073   48.3232 H   0  0  0  0  0  0  0  0  0  0  0  0
   59.1761   33.8322   50.1259 H   0  0  0  0  0  0  0  0  0  0  0  0
   59.5344   31.3987   50.5258 H   0  0  0  0  0  0  0  0  0  0  0  0
   62.2220   29.4420   49.2660 H   0  0  0  0  0  0  0  0  0  0  0  0
   58.0650   26.5766   48.1561 H   0  0  0  0  0  0  0  0  0  0  0  0
   56.8267   32.4283   47.1495 H   0  0  0  0  0  0  0  0  0  0  0  0
   58.2700   34.4360   47.4690 H   0  0  0  0  0  0  0  0  0  0  0  0
   59.5951   35.3425   45.5608 H   0  0  0  0  0  0  0  0  0  0  0  0
   59.5057   34.2257   43.3347 H   0  0  0  0  0  0  0  0  0  0  0  0
   57.9732   30.9446   42.7565 H   0  0  0  0  0  0  0  0  0  0  0  0
   57.1780   32.4005   42.0676 H   0  0  0  0  0  0  0  0  0  0  0  0
   58.9696   32.2710   42.0676 H   0  0  0  0  0  0  0  0  0  0  0  0
   62.4178   31.2999   47.2933 H   0  0  0  0  0  0  0  0  0  0  0  0
  1  2  1  0
  2  3  1  0
  3  4  2  0
  4  5  1  0
  5  6  2  0
  6  7  1  0
  7  8  1  0
  8  9  1  0
  9 10  2  0
  9 11  2  0
  9 12  1  0
 12 13  2  0
 13 14  1  0
 14 15  1  0
 15 16  2  0
 15 17  1  0
 14 18  2  0
 18 19  1  0
 19 20  2  0
 19 21  1  0
 21 22  1  0
 22 23  2  0
 23 24  1  0
 24 25  2  0
 25 26  1  0
 26 27  2  0
 27 28  1  0
 18 29  1  0
  7 30  2  0
 30  3  1  0
 29 12  1  0
 27 22  1  0
  1 31  1  0
  1 32  1  0
  1 33  1  0
  2 34  1  0
  2 35  1  0
  4 36  1  0
  5 37  1  0
  6 38  1  0
  8 39  1  0
 13 40  1  0
 23 41  1  0
 24 42  1  0
 25 43  1  0
 26 44  1  0
 28 45  1  0
 28 46  1  0
 28 47  1  0
 30 48  1  0
M  CHG  2  17  -1  21  -1
M  END
>  <UniqueID>  (79) 
72

>  <SMILES>  (79) 
CCc1cccc(NS(=O)(=O)c2cc(C(=O)[O-])c(C(=O)[N-]c3ccccc3C)s2)c1

>  <Energy>  (79) 
83.38463621849355

>  <Genealogy>  (79) 
CCc1cccc(NS(=O)(=O)c2cc(C(=O)[O-])c(C(=O)[N-]c3ccccc3C)s2)c1 (protonated)
CCc1cccc(NS(=O)(=O)c2cc(C(=O)[O-])c(C(=O)[N-]c3ccccc3C)s2)c1 (3D coordinates assigned)
CCc1cccc(NS(=O)(=O)c2cc(C(=O)[O-])c(C(=O)[N-]c3ccccc3C)s2)c1 (optimized conformer: 83.38463621849355 kcal/mol)

>  <smiles>  (79) 
CCc1cccc(NS(=O)(=O)c2cc(C(=O)O)c(C(=O)Nc3ccccc3C)s2)c1

>  <score_type>  (79) 
oracle

>  <origin>  (79) 
adg

>  <m_score__min__energy>  (79) 
-12.789999999999999

>  <m_primary>  (79) 
energy

$$$$
79:0
     RDKit          3D

 44 47  0  0  0  0  0  0  0  0999 V2000
   56.7710   30.8300   54.3000 C   0  0  0  0  0  0  0  0  0  0  0  0
   56.5920   30.8010   52.5320 S   0  0  0  0  0  0  0  0  0  0  0  0
   55.1990   31.2410   52.1770 O   0  0  0  0  0  0  0  0  0  0  0  0
   56.8070   29.4120   52.0000 O   0  0  0  0  0  0  0  0  0  0  0  0
   57.7250   31.8990   51.8150 N   0  0  0  0  0  0  0  0  0  0  0  0
   58.6760   31.5840   50.7880 C   0  0  0  0  0  0  0  0  0  0  0  0
   58.6440   32.3290   49.6060 C   0  0  0  0  0  0  0  0  0  0  0  0
   59.5220   32.0410   48.5600 C   0  0  0  0  0  0  0  0  0  0  0  0
   60.4530   30.9930   48.6730 C   0  0  0  0  0  0  0  0  0  0  0  0
   61.3280   30.6620   47.5190 C   0  0  0  0  0  0  0  0  0  0  0  0
   62.5150   31.0850   47.5110 O   0  0  0  0  0  0  0  0  0  0  0  0
   60.8650   29.9460   46.3660 N   0  0  0  0  0  0  0  0  0  0  0  0
   59.5190   29.5600   46.0340 C   0  0  0  0  0  0  0  0  0  0  0  0
   58.6450   30.4500   45.3890 C   0  0  0  0  0  0  0  0  0  0  0  0
   57.3300   30.0770   45.1000 C   0  0  0  0  0  0  0  0  0  0  0  0
   56.2870   31.2050   44.1710 S   0  0  0  0  0  0  0  0  0  0  0  0
   57.1510   32.6330   44.8150 C   0  0  0  0  0  0  0  0  0  0  0  0
   57.0020   33.0940   46.0710 N   0  0  0  0  0  0  0  0  0  0  0  0
   57.8790   34.1170   46.0920 C   0  0  0  0  0  0  0  0  0  0  0  0
   58.5220   34.2650   44.9190 N   0  0  0  0  0  0  0  0  0  0  0  0
   58.0630   33.3260   44.1120 N   0  0  0  0  0  0  0  0  0  0  0  0
   56.8450   28.8260   45.5030 C   0  0  0  0  0  0  0  0  0  0  0  0
   55.5220   28.4830   45.2330 O   0  0  0  0  0  0  0  0  0  0  0  0
   57.6960   27.9240   46.1660 C   0  0  0  0  0  0  0  0  0  0  0  0
   57.2280   26.6590   46.5690 C   0  0  0  0  0  0  0  0  0  0  0  0
   58.0780   25.7660   47.2220 C   0  0  0  0  0  0  0  0  0  0  0  0
   59.4020   26.1200   47.4820 C   0  0  0  0  0  0  0  0  0  0  0  0
   59.8850   27.3710   47.0900 C   0  0  0  0  0  0  0  0  0  0  0  0
   59.0430   28.2880   46.4290 C   0  0  0  0  0  0  0  0  0  0  0  0
   60.4860   30.2450   49.8630 C   0  0  0  0  0  0  0  0  0  0  0  0
   59.6180   30.5470   50.9190 C   0  0  0  0  0  0  0  0  0  0  0  0
   55.7895   30.6710   54.7706 H   0  0  0  0  0  0  0  0  0  0  0  0
   57.4608   30.0319   54.6118 H   0  0  0  0  0  0  0  0  0  0  0  0
   57.1735   31.8051   54.6118 H   0  0  0  0  0  0  0  0  0  0  0  0
   57.9199   33.1502   49.4990 H   0  0  0  0  0  0  0  0  0  0  0  0
   59.4854   32.6397   47.6380 H   0  0  0  0  0  0  0  0  0  0  0  0
   58.9999   31.4526   45.1080 H   0  0  0  0  0  0  0  0  0  0  0  0
   58.0500   34.7587   46.9689 H   0  0  0  0  0  0  0  0  0  0  0  0
   56.1852   26.3727   46.3677 H   0  0  0  0  0  0  0  0  0  0  0  0
   57.7030   24.7797   47.5328 H   0  0  0  0  0  0  0  0  0  0  0  0
   60.0678   25.4120   47.9972 H   0  0  0  0  0  0  0  0  0  0  0  0
   60.9303   27.6424   47.2988 H   0  0  0  0  0  0  0  0  0  0  0  0
   61.2004   29.4148   49.9652 H   0  0  0  0  0  0  0  0  0  0  0  0
   59.6726   29.9714   51.8548 H   0  0  0  0  0  0  0  0  0  0  0  0
  1  2  1  0
  2  3  2  0
  2  4  2  0
  2  5  1  0
  5  6  1  0
  6  7  2  0
  7  8  1  0
  8  9  2  0
  9 10  1  0
 10 11  2  0
 10 12  1  0
 12 13  1  0
 13 14  2  0
 14 15  1  0
 15 16  1  0
 16 17  1  0
 17 18  1  0
 18 19  2  0
 19 20  1  0
 20 21  1  0
 15 22  2  0
 22 23  1  0
 22 24  1  0
 24 25  2  0
 25 26  1  0
 26 27  2  0
 27 28  1  0
 28 29  2  0
  9 30  1  0
 30 31  2  0
 31  6  1  0
 29 13  1  0
 21 17  2  0
 29 24  1  0
  1 32  1  0
  1 33  1  0
  1 34  1  0
  7 35  1  0
  8 36  1  0
 14 37  1  0
 19 38  1  0
 25 39  1  0
 26 40  1  0
 27 41  1  0
 28 42  1  0
 30 43  1  0
 31 44  1  0
M  CHG  4   5  -1  12  -1  20  -1  23  -1
M  END
>  <UniqueID>  (80) 
73

>  <SMILES>  (80) 
CS(=O)(=O)[N-]c1ccc(C(=O)[N-]c2cc(Sc3nc[n-]n3)c([O-])c3ccccc23)cc1

>  <Energy>  (80) 
87.71142545545266

>  <Genealogy>  (80) 
CS(=O)(=O)[N-]c1ccc(C(=O)[N-]c2cc(Sc3nc[n-]n3)c([O-])c3ccccc23)cc1 (protonated)
CS(=O)(=O)[N-]c1ccc(C(=O)[N-]c2cc(Sc3nc[n-]n3)c([O-])c3ccccc23)cc1 (3D coordinates assigned)
CS(=O)(=O)[N-]c1ccc(C(=O)[N-]c2cc(Sc3nc[n-]n3)c([O-])c3ccccc23)cc1 (optimized conformer: 87.71142545545266 kcal/mol)

>  <smiles>  (80) 
CS(=O)(=O)Nc1ccc(C(=O)Nc2cc(Sc3nc[nH]n3)c(O)c3ccccc23)cc1

>  <score_type>  (80) 
oracle

>  <origin>  (80) 
adg

>  <m_score__min__energy>  (80) 
-14.380000000000001

>  <m_primary>  (80) 
energy

$$$$
80:0
     RDKit          3D

 36 38  0  0  0  0  0  0  0  0999 V2000
   54.9490   26.3380   46.0010 N   0  0  0  0  0  0  0  0  0  0  0  0
   56.6740   26.2590   46.0680 S   0  0  0  0  0  0  0  0  0  0  0  0
   57.0800   25.6420   47.3760 O   0  0  0  0  0  0  0  0  0  0  0  0
   57.1800   25.4100   44.9360 O   0  0  0  0  0  0  0  0  0  0  0  0
   57.3540   27.8770   45.9310 C   0  0  0  0  0  0  0  0  0  0  0  0
   56.8380   28.7850   44.9980 C   0  0  0  0  0  0  0  0  0  0  0  0
   57.3610   30.0780   44.9120 C   0  0  0  0  0  0  0  0  0  0  0  0
   58.4100   30.4830   45.7510 C   0  0  0  0  0  0  0  0  0  0  0  0
   58.8670   31.8480   45.6900 N   0  0  0  0  0  0  0  0  0  0  0  0
   58.1100   32.9490   45.1620 C   0  0  0  0  0  0  0  0  0  0  0  0
   56.8500   32.9450   45.2090 O   0  0  0  0  0  0  0  0  0  0  0  0
   58.8230   34.1160   44.5480 C   0  0  0  0  0  0  0  0  0  0  0  0
   59.3360   35.3300   45.8170 S   0  0  0  0  0  0  0  0  0  0  0  0
   60.4600   34.2170   46.6580 C   0  0  0  0  0  0  0  0  0  0  0  0
   60.0570   33.4120   47.6750 N   0  0  0  0  0  0  0  0  0  0  0  0
   61.2040   32.8340   48.0550 C   0  0  0  0  0  0  0  0  0  0  0  0
   61.3970   31.9360   49.1010 C   0  0  0  0  0  0  0  0  0  0  0  0
   62.7090   31.4880   49.3430 C   0  0  0  0  0  0  0  0  0  0  0  0
   63.7800   31.9460   48.5410 C   0  0  0  0  0  0  0  0  0  0  0  0
   63.5450   32.8600   47.4940 C   0  0  0  0  0  0  0  0  0  0  0  0
   62.2340   33.2800   47.2860 C   0  0  0  0  0  0  0  0  0  0  0  0
   61.7890   34.1660   46.3820 N   0  0  0  0  0  0  0  0  0  0  0  0
   58.9160   29.5700   46.6970 C   0  0  0  0  0  0  0  0  0  0  0  0
   58.3900   28.2780   46.7830 C   0  0  0  0  0  0  0  0  0  0  0  0
   54.6520   27.0900   46.6630 H   0  0  0  0  0  0  0  0  0  0  0  0
   56.0185   28.4795   44.3308 H   0  0  0  0  0  0  0  0  0  0  0  0
   56.9460   30.7855   44.1790 H   0  0  0  0  0  0  0  0  0  0  0  0
   59.8460   32.0440   45.9980 H   0  0  0  0  0  0  0  0  0  0  0  0
   59.7164   33.7516   44.0198 H   0  0  0  0  0  0  0  0  0  0  0  0
   58.1332   34.6149   43.8514 H   0  0  0  0  0  0  0  0  0  0  0  0
   60.5540   31.5889   49.7165 H   0  0  0  0  0  0  0  0  0  0  0  0
   62.9025   30.7778   50.1604 H   0  0  0  0  0  0  0  0  0  0  0  0
   64.8015   31.5872   48.7352 H   0  0  0  0  0  0  0  0  0  0  0  0
   64.3680   33.2283   46.8638 H   0  0  0  0  0  0  0  0  0  0  0  0
   59.7294   29.8756   47.3715 H   0  0  0  0  0  0  0  0  0  0  0  0
   58.7924   27.5721   47.5245 H   0  0  0  0  0  0  0  0  0  0  0  0
  1  2  1  0
  2  3  2  0
  2  4  2  0
  2  5  1  0
  5  6  2  0
  6  7  1  0
  7  8  2  0
  8  9  1  0
  9 10  1  0
 10 11  2  0
 10 12  1  0
 12 13  1  0
 13 14  1  0
 14 15  2  0
 15 16  1  0
 16 17  2  0
 17 18  1  0
 18 19  2  0
 19 20  1  0
 20 21  2  0
 21 22  1  0
  8 23  1  0
 23 24  2  0
 24  5  1  0
 22 14  1  0
 21 16  1  0
  1 25  1  0
  6 26  1  0
  7 27  1  0
  9 28  1  0
 12 29  1  0
 12 30  1  0
 17 31  1  0
 18 32  1  0
 19 33  1  0
 20 34  1  0
 23 35  1  0
 24 36  1  0
M  CHG  2   1  -1  22  -1
M  END
>  <UniqueID>  (81) 
74

>  <SMILES>  (81) 
[NH-]S(=O)(=O)c1ccc(NC(=O)CSc2nc3ccccc3[n-]2)cc1

>  <Energy>  (81) 
69.23367706503751

>  <Genealogy>  (81) 
[NH-]S(=O)(=O)c1ccc(NC(=O)CSc2nc3ccccc3[n-]2)cc1 (protonated)
[NH-]S(=O)(=O)c1ccc(NC(=O)CSc2nc3ccccc3[n-]2)cc1 (3D coordinates assigned)
[NH-]S(=O)(=O)c1ccc(NC(=O)CSc2nc3ccccc3[n-]2)cc1 (optimized conformer: 69.23367706503751 kcal/mol)

>  <smiles>  (81) 
NS(=O)(=O)c1ccc(NC(=O)CSc2nc3ccccc3[nH]2)cc1

>  <score_type>  (81) 
oracle

>  <origin>  (81) 
adg

>  <m_score__min__energy>  (81) 
-11.710000000000001

>  <m_primary>  (81) 
energy

$$$$
81:0
     RDKit          3D

 31 33  0  0  0  0  0  0  0  0999 V2000
   58.7868   34.7950   44.2856 H   0  0  0  0  0  0  0  0  0  0  0  0
   58.5890   33.7320   44.4880 C   0  0  0  0  0  0  0  0  0  0  0  0
   58.1490   32.8960   43.4610 C   0  0  0  0  0  0  0  0  0  0  0  0
   58.0024   33.3006   42.4487 H   0  0  0  0  0  0  0  0  0  0  0  0
   57.8940   31.5450   43.7160 C   0  0  0  0  0  0  0  0  0  0  0  0
   57.5484   30.8920   42.9011 H   0  0  0  0  0  0  0  0  0  0  0  0
   58.0760   31.0130   45.0080 C   0  0  0  0  0  0  0  0  0  0  0  0
   57.8110   29.5790   45.2920 C   0  0  0  0  0  0  0  0  0  0  0  0
   58.9960   28.4330   45.7240 S   0  0  0  0  0  0  0  0  0  0  0  0
   57.9200   27.1580   45.8530 C   0  0  0  0  0  0  0  0  0  0  0  0
   56.6450   27.5870   45.5760 C   0  0  0  0  0  0  0  0  0  0  0  0
   55.6060   26.7190   45.6320 N   0  0  0  0  0  0  0  0  0  0  0  0
   55.8200   25.4080   45.9560 C   0  0  0  0  0  0  0  0  0  0  0  0
   54.7900   24.6110   46.0070 N   0  0  0  0  0  0  0  0  0  0  0  0
   54.4290   23.5560   45.1030 C   0  0  0  0  0  0  0  0  0  0  0  0
   53.2100   23.3490   44.8640 O   0  0  0  0  0  0  0  0  0  0  0  0
   55.4310   22.8180   44.3940 N   0  0  0  0  0  0  0  0  0  0  0  0
   56.1280   23.3510   43.2340 C   0  0  0  0  0  0  0  0  0  0  0  0
   56.9607   23.9878   43.5672 H   0  0  0  0  0  0  0  0  0  0  0  0
   56.5208   22.5207   42.6287 H   0  0  0  0  0  0  0  0  0  0  0  0
   55.4296   23.9476   42.6287 H   0  0  0  0  0  0  0  0  0  0  0  0
   57.1470   24.9850   46.2620 C   0  0  0  0  0  0  0  0  0  0  0  0
   57.3389   23.9405   46.5488 H   0  0  0  0  0  0  0  0  0  0  0  0
   58.1790   25.8760   46.1990 N   0  0  0  0  0  0  0  0  0  0  0  0
   59.1520   25.5740   46.4270 H   0  0  0  0  0  0  0  0  0  0  0  0
   56.5580   28.9430   45.2570 C   0  0  0  0  0  0  0  0  0  0  0  0
   55.6171   29.4551   45.0070 H   0  0  0  0  0  0  0  0  0  0  0  0
   58.5260   31.8690   46.0330 C   0  0  0  0  0  0  0  0  0  0  0  0
   58.6803   31.4715   47.0470 H   0  0  0  0  0  0  0  0  0  0  0  0
   58.7780   33.2190   45.7720 C   0  0  0  0  0  0  0  0  0  0  0  0
   59.1261   33.8785   46.5806 H   0  0  0  0  0  0  0  0  0  0  0  0
  1  2  1  0
  2  3  2  0
  3  4  1  0
  3  5  1  0
  5  6  1  0
  5  7  2  0
  7  8  1  0
  8  9  1  0
  9 10  1  0
 10 11  2  0
 11 12  1  0
 12 13  1  0
 13 14  2  0
 14 15  1  0
 15 16  2  0
 15 17  1  0
 17 18  1  0
 18 19  1  0
 18 20  1  0
 18 21  1  0
 13 22  1  0
 22 23  1  0
 22 24  2  0
 24 25  1  0
 11 26  1  0
 26 27  1  0
  7 28  1  0
 28 29  1  0
 28 30  2  0
 30 31  1  0
 30  2  1  0
 26  8  2  0
 24 10  1  0
M  CHG  3  12  -1  17  -1  24   1
M  END
>  <UniqueID>  (82) 
75

>  <SMILES>  (82) 
C[N-]C(=O)/N=c1\c[nH+]c2sc(-c3ccccc3)cc2[n-]1

>  <Energy>  (82) 
74.7479415191529

>  <Genealogy>  (82) 
C[N-]C(=O)N=c1c[nH+]c2sc(-c3ccccc3)cc2[n-]1 (protonated)
C[N-]C(=O)/N=c1\c[nH+]c2sc(-c3ccccc3)cc2[n-]1 (cis-trans isomerization)
C[N-]C(=O)/N=c1\c[nH+]c2sc(-c3ccccc3)cc2[n-]1 (3D coordinates assigned)
C[N-]C(=O)/N=c1\c[nH+]c2sc(-c3ccccc3)cc2[n-]1 (optimized conformer: 74.7479415191529 kcal/mol)

>  <smiles>  (82) 
CNC(=O)N=c1cnc2sc(-c3ccccc3)cc2[nH]1

>  <score_type>  (82) 
oracle

>  <origin>  (82) 
adg

>  <m_score__min__energy>  (82) 
-7.71

>  <m_primary>  (82) 
energy

$$$$
82:0
     RDKit          3D

 59 62  0  0  0  0  0  0  0  0999 V2000
   58.8660   33.9470   44.2710 O   0  0  0  0  0  0  0  0  0  0  0  0
   58.5900   33.5760   45.4430 C   0  0  0  0  0  0  0  0  0  0  0  0
   58.3630   34.5710   46.4520 N   0  0  0  0  0  0  0  0  0  0  0  0
   59.4090   35.1860   47.2680 C   0  0  0  0  0  0  0  0  0  0  0  0
   59.8810   34.2240   48.3670 C   0  0  0  0  0  0  0  0  0  0  0  0
   61.3310   33.8670   48.1750 C   0  0  0  0  0  0  0  0  0  0  0  0
   62.1700   33.7120   49.2920 C   0  0  0  0  0  0  0  0  0  0  0  0
   63.5260   33.4180   49.1190 C   0  0  0  0  0  0  0  0  0  0  0  0
   64.0540   33.2860   47.8320 C   0  0  0  0  0  0  0  0  0  0  0  0
   63.2280   33.4500   46.7170 C   0  0  0  0  0  0  0  0  0  0  0  0
   61.8710   33.7460   46.8850 C   0  0  0  0  0  0  0  0  0  0  0  0
   58.5480   32.1350   45.7500 C   0  0  0  0  0  0  0  0  0  0  0  0
   59.3380   31.6040   46.7760 C   0  0  0  0  0  0  0  0  0  0  0  0
   59.3540   30.2290   47.0090 C   0  0  0  0  0  0  0  0  0  0  0  0
   58.5690   29.3660   46.2320 C   0  0  0  0  0  0  0  0  0  0  0  0
   58.7030   27.9500   46.4180 N   0  0  0  0  0  0  0  0  0  0  0  0
   57.4990   27.1090   46.3860 C   0  0  0  0  0  0  0  0  0  0  0  0
   57.8130   25.6660   46.7960 C   0  0  0  0  0  0  0  0  0  0  0  0
   59.0550   25.2160   46.1550 N   0  0  0  0  0  0  0  0  0  0  0  0
   59.1610   23.8800   45.6320 C   0  0  0  0  0  0  0  0  0  0  0  0
   60.1630   23.1750   45.9350 O   0  0  0  0  0  0  0  0  0  0  0  0
   58.1300   23.3220   44.7260 C   0  0  0  0  0  0  0  0  0  0  0  0
   57.0200   24.0990   44.3510 C   0  0  0  0  0  0  0  0  0  0  0  0
   56.0430   23.5710   43.5020 C   0  0  0  0  0  0  0  0  0  0  0  0
   56.1580   22.2610   43.0290 C   0  0  0  0  0  0  0  0  0  0  0  0
   57.2480   21.4750   43.4090 C   0  0  0  0  0  0  0  0  0  0  0  0
   58.2300   22.0000   44.2570 C   0  0  0  0  0  0  0  0  0  0  0  0
   60.2630   26.0510   46.2170 C   0  0  0  0  0  0  0  0  0  0  0  0
   59.9870   27.4080   46.8750 C   0  0  0  0  0  0  0  0  0  0  0  0
   57.7260   29.8950   45.2270 C   0  0  0  0  0  0  0  0  0  0  0  0
   56.8740   29.0480   44.4320 N   0  0  0  0  0  0  0  0  0  0  0  0
   57.3550   28.3120   43.5470 O   0  0  0  0  0  0  0  0  0  0  0  0
   55.5370   28.9370   44.7300 O   0  0  0  0  0  0  0  0  0  0  0  0
   57.7270   31.2830   44.9980 C   0  0  0  0  0  0  0  0  0  0  0  0
   60.2628   35.4447   46.6244 H   0  0  0  0  0  0  0  0  0  0  0  0
   58.9992   36.0895   47.7432 H   0  0  0  0  0  0  0  0  0  0  0  0
   59.7546   34.7061   49.3476 H   0  0  0  0  0  0  0  0  0  0  0  0
   59.2802   33.3041   48.3137 H   0  0  0  0  0  0  0  0  0  0  0  0
   61.7583   33.8224   50.3061 H   0  0  0  0  0  0  0  0  0  0  0  0
   64.1773   33.2906   49.9963 H   0  0  0  0  0  0  0  0  0  0  0  0
   65.1204   33.0529   47.6966 H   0  0  0  0  0  0  0  0  0  0  0  0
   63.6457   33.3461   45.7047 H   0  0  0  0  0  0  0  0  0  0  0  0
   61.2261   33.8841   46.0047 H   0  0  0  0  0  0  0  0  0  0  0  0
   59.9481   32.2731   47.4005 H   0  0  0  0  0  0  0  0  0  0  0  0
   59.9877   29.8185   47.8089 H   0  0  0  0  0  0  0  0  0  0  0  0
   56.7540   27.5242   47.0806 H   0  0  0  0  0  0  0  0  0  0  0  0
   57.1109   27.0995   45.3568 H   0  0  0  0  0  0  0  0  0  0  0  0
   57.9291   25.6157   47.8887 H   0  0  0  0  0  0  0  0  0  0  0  0
   56.9870   25.0139   46.4759 H   0  0  0  0  0  0  0  0  0  0  0  0
   56.9198   25.1277   44.7276 H   0  0  0  0  0  0  0  0  0  0  0  0
   55.1819   24.1879   43.2056 H   0  0  0  0  0  0  0  0  0  0  0  0
   55.3902   21.8491   42.3576 H   0  0  0  0  0  0  0  0  0  0  0  0
   57.3349   20.4419   43.0414 H   0  0  0  0  0  0  0  0  0  0  0  0
   59.0841   21.3755   44.5580 H   0  0  0  0  0  0  0  0  0  0  0  0
   61.0311   25.5224   46.8007 H   0  0  0  0  0  0  0  0  0  0  0  0
   60.6037   26.2345   45.1873 H   0  0  0  0  0  0  0  0  0  0  0  0
   59.9580   27.2812   47.9673 H   0  0  0  0  0  0  0  0  0  0  0  0
   60.7880   28.1081   46.5951 H   0  0  0  0  0  0  0  0  0  0  0  0
   57.0753   31.7052   44.2189 H   0  0  0  0  0  0  0  0  0  0  0  0
  1  2  2  0
  2  3  1  0
  3  4  1  0
  4  5  1  0
  5  6  1  0
  6  7  2  0
  7  8  1  0
  8  9  2  0
  9 10  1  0
 10 11  2  0
  2 12  1  0
 12 13  2  0
 13 14  1  0
 14 15  2  0
 15 16  1  0
 16 17  1  0
 17 18  1  0
 18 19  1  0
 19 20  1  0
 20 21  2  0
 20 22  1  0
 22 23  2  0
 23 24  1  0
 24 25  2  0
 25 26  1  0
 26 27  2  0
 19 28  1  0
 28 29  1  0
 15 30  1  0
 30 31  1  0
 31 32  2  0
 31 33  1  0
 30 34  2  0
 11  6  1  0
 34 12  1  0
 29 16  1  0
 27 22  1  0
  4 35  1  0
  4 36  1  0
  5 37  1  0
  5 38  1  0
  7 39  1  0
  8 40  1  0
  9 41  1  0
 10 42  1  0
 11 43  1  0
 13 44  1  0
 14 45  1  0
 17 46  1  0
 17 47  1  0
 18 48  1  0
 18 49  1  0
 23 50  1  0
 24 51  1  0
 25 52  1  0
 26 53  1  0
 27 54  1  0
 28 55  1  0
 28 56  1  0
 29 57  1  0
 29 58  1  0
 34 59  1  0
M  CHG  3   3  -1  31   1  33  -1
M  END
>  <UniqueID>  (83) 
76

>  <SMILES>  (83) 
O=C([N-]CCc1ccccc1)c1ccc(N2CCN(C(=O)c3ccccc3)CC2)c([N+](=O)[O-])c1

>  <Energy>  (83) 
76.16621177883783

>  <Genealogy>  (83) 
O=C([N-]CCc1ccccc1)c1ccc(N2CCN(C(=O)c3ccccc3)CC2)c([N+](=O)[O-])c1 (protonated)
O=C([N-]CCc1ccccc1)c1ccc(N2CCN(C(=O)c3ccccc3)CC2)c([N+](=O)[O-])c1 (3D coordinates assigned)
O=C([N-]CCc1ccccc1)c1ccc(N2CCN(C(=O)c3ccccc3)CC2)c([N+](=O)[O-])c1 (nonaromatic ring conformer: 76.16621177883783 kcal/mol)

>  <smiles>  (83) 
O=C(NCCc1ccccc1)c1ccc(N2CCN(C(=O)c3ccccc3)CC2)c([N+](=O)[O-])c1

>  <score_type>  (83) 
oracle

>  <origin>  (83) 
adg

>  <m_score__min__energy>  (83) 
-11.130000000000001

>  <m_primary>  (83) 
energy

$$$$
83:0
     RDKit          3D

 53 56  0  0  0  0  0  0  0  0999 V2000
   52.3200   22.1120   46.9820 C   0  0  0  0  0  0  0  0  0  0  0  0
   51.8650   21.8450   45.6070 N   0  0  0  0  0  0  0  0  0  0  0  0
   50.9590   20.6830   45.6070 C   0  0  0  0  0  0  0  0  0  0  0  0
   51.2070   23.0390   45.0240 C   0  0  0  0  0  0  0  0  0  0  0  0
   52.2560   24.0630   44.5920 C   0  0  0  0  0  0  0  0  0  0  0  0
   53.5690   23.4380   44.4860 N   0  0  0  0  0  0  0  0  0  0  0  0
   54.7270   23.9120   45.1840 C   0  0  0  0  0  0  0  0  0  0  0  0
   54.6040   24.8430   46.0230 O   0  0  0  0  0  0  0  0  0  0  0  0
   56.0610   23.3540   44.9130 C   0  0  0  0  0  0  0  0  0  0  0  0
   56.2160   22.4150   43.8820 C   0  0  0  0  0  0  0  0  0  0  0  0
   57.4810   21.9110   43.5720 C   0  0  0  0  0  0  0  0  0  0  0  0
   58.6010   22.3430   44.2850 C   0  0  0  0  0  0  0  0  0  0  0  0
   58.4590   23.2850   45.3070 C   0  0  0  0  0  0  0  0  0  0  0  0
   57.1910   23.8040   45.6260 C   0  0  0  0  0  0  0  0  0  0  0  0
   57.0520   24.7700   46.6800 N   0  0  0  0  0  0  0  0  0  0  0  0
   57.4420   26.1480   46.5580 C   0  0  0  0  0  0  0  0  0  0  0  0
   58.5290   26.6260   47.3050 C   0  0  0  0  0  0  0  0  0  0  0  0
   58.9210   27.9660   47.2160 C   0  0  0  0  0  0  0  0  0  0  0  0
   58.2190   28.8460   46.3880 C   0  0  0  0  0  0  0  0  0  0  0  0
   58.5980   30.1470   46.2920 N   0  0  0  0  0  0  0  0  0  0  0  0
   57.9240   31.0190   45.4940 C   0  0  0  0  0  0  0  0  0  0  0  0
   58.3580   32.4210   45.4010 C   0  0  0  0  0  0  0  0  0  0  0  0
   57.7340   33.4130   44.6660 C   0  0  0  0  0  0  0  0  0  0  0  0
   58.4700   34.5640   44.8660 C   0  0  0  0  0  0  0  0  0  0  0  0
   59.5090   34.2270   45.7110 C   0  0  0  0  0  0  0  0  0  0  0  0
   59.4370   32.9230   46.0340 N   0  0  0  0  0  0  0  0  0  0  0  0
   56.8470   30.5890   44.7810 N   0  0  0  0  0  0  0  0  0  0  0  0
   56.4280   29.2990   44.8450 C   0  0  0  0  0  0  0  0  0  0  0  0
   57.1110   28.3840   45.6520 C   0  0  0  0  0  0  0  0  0  0  0  0
   56.7210   27.0400   45.7390 C   0  0  0  0  0  0  0  0  0  0  0  0
   51.5982   21.6884   47.6958 H   0  0  0  0  0  0  0  0  0  0  0  0
   53.3054   21.6489   47.1386 H   0  0  0  0  0  0  0  0  0  0  0  0
   52.3963   23.1981   47.1386 H   0  0  0  0  0  0  0  0  0  0  0  0
   50.7335   20.3938   46.6441 H   0  0  0  0  0  0  0  0  0  0  0  0
   50.0252   20.9461   45.0885 H   0  0  0  0  0  0  0  0  0  0  0  0
   51.4418   19.8416   45.0885 H   0  0  0  0  0  0  0  0  0  0  0  0
   50.6137   22.7356   44.1488 H   0  0  0  0  0  0  0  0  0  0  0  0
   50.5530   23.4940   45.7824 H   0  0  0  0  0  0  0  0  0  0  0  0
   51.9736   24.4793   43.6138 H   0  0  0  0  0  0  0  0  0  0  0  0
   52.3033   24.8625   45.3461 H   0  0  0  0  0  0  0  0  0  0  0  0
   55.3370   22.0742   43.3152 H   0  0  0  0  0  0  0  0  0  0  0  0
   57.5952   21.1725   42.7648 H   0  0  0  0  0  0  0  0  0  0  0  0
   59.5958   21.9414   44.0419 H   0  0  0  0  0  0  0  0  0  0  0  0
   59.3442   23.6229   45.8657 H   0  0  0  0  0  0  0  0  0  0  0  0
   56.6440   24.4510   47.5890 H   0  0  0  0  0  0  0  0  0  0  0  0
   59.0784   25.9406   47.9671 H   0  0  0  0  0  0  0  0  0  0  0  0
   59.7819   28.3269   47.7979 H   0  0  0  0  0  0  0  0  0  0  0  0
   56.8317   33.3062   44.0460 H   0  0  0  0  0  0  0  0  0  0  0  0
   58.2681   35.5561   44.4360 H   0  0  0  0  0  0  0  0  0  0  0  0
   60.2824   34.9230   46.0678 H   0  0  0  0  0  0  0  0  0  0  0  0
   60.0990   32.4060   46.6560 H   0  0  0  0  0  0  0  0  0  0  0  0
   55.5528   28.9744   44.2630 H   0  0  0  0  0  0  0  0  0  0  0  0
   55.8519   26.6817   45.1678 H   0  0  0  0  0  0  0  0  0  0  0  0
  1  2  1  0
  2  3  1  0
  2  4  1  0
  4  5  1  0
  5  6  1  0
  6  7  1  0
  7  8  2  0
  7  9  1  0
  9 10  2  0
 10 11  1  0
 11 12  2  0
 12 13  1  0
 13 14  2  0
 14 15  1  0
 15 16  1  0
 16 17  2  0
 17 18  1  0
 18 19  2  0
 19 20  1  0
 20 21  2  0
 21 22  1  0
 22 23  2  0
 23 24  1  0
 24 25  2  0
 25 26  1  0
 21 27  1  0
 27 28  2  0
 28 29  1  0
 29 30  2  0
 14  9  1  0
 30 16  1  0
 29 19  1  0
 26 22  1  0
  1 31  1  0
  1 32  1  0
  1 33  1  0
  3 34  1  0
  3 35  1  0
  3 36  1  0
  4 37  1  0
  4 38  1  0
  5 39  1  0
  5 40  1  0
 10 41  1  0
 11 42  1  0
 12 43  1  0
 13 44  1  0
 15 45  1  0
 17 46  1  0
 18 47  1  0
 23 48  1  0
 24 49  1  0
 25 50  1  0
 26 51  1  0
 28 52  1  0
 30 53  1  0
M  CHG  1   6  -1
M  END
>  <UniqueID>  (84) 
77

>  <SMILES>  (84) 
CN(C)CC[N-]C(=O)c1ccccc1Nc1ccc2nc(-c3ccc[nH]3)ncc2c1

>  <Energy>  (84) 
95.49334688929605

>  <Genealogy>  (84) 
CN(C)CC[N-]C(=O)c1ccccc1Nc1ccc2nc(-c3ccc[nH]3)ncc2c1 (protonated)
CN(C)CC[N-]C(=O)c1ccccc1Nc1ccc2nc(-c3ccc[nH]3)ncc2c1 (3D coordinates assigned)
CN(C)CC[N-]C(=O)c1ccccc1Nc1ccc2nc(-c3ccc[nH]3)ncc2c1 (optimized conformer: 95.49334688929605 kcal/mol)

>  <smiles>  (84) 
CN(C)CCNC(=O)c1ccccc1Nc1ccc2nc(-c3ccc[nH]3)ncc2c1

>  <score_type>  (84) 
oracle

>  <origin>  (84) 
adg

>  <m_score__min__energy>  (84) 
-9.9299999999999997

>  <m_primary>  (84) 
energy

$$$$
84:0
     RDKit          3D

 53 55  0  0  0  0  0  0  0  0999 V2000
   57.1150   34.2270   46.3950 O   0  0  0  0  0  0  0  0  0  0  0  0
   57.7030   33.3800   45.6710 C   0  0  0  0  0  0  0  0  0  0  0  0
   57.3190   32.0070   45.7170 N   0  0  0  0  0  0  0  0  0  0  0  0
   57.2030   31.0240   44.2970 S   0  0  0  0  0  0  0  0  0  0  0  0
   57.5730   31.8360   43.0890 O   0  0  0  0  0  0  0  0  0  0  0  0
   55.7970   30.5170   44.1560 O   0  0  0  0  0  0  0  0  0  0  0  0
   58.2560   29.6860   44.4110 O   0  0  0  0  0  0  0  0  0  0  0  0
   57.9530   28.5610   45.1810 C   0  0  0  0  0  0  0  0  0  0  0  0
   56.6290   28.0940   45.2380 C   0  0  0  0  0  0  0  0  0  0  0  0
   56.3100   26.9390   45.9550 C   0  0  0  0  0  0  0  0  0  0  0  0
   54.9920   26.4930   45.9900 O   0  0  0  0  0  0  0  0  0  0  0  0
   57.3170   26.2380   46.6240 C   0  0  0  0  0  0  0  0  0  0  0  0
   58.6370   26.6930   46.5810 C   0  0  0  0  0  0  0  0  0  0  0  0
   58.9750   27.8590   45.8630 C   0  0  0  0  0  0  0  0  0  0  0  0
   60.3830   28.3320   45.8560 C   0  0  0  0  0  0  0  0  0  0  0  0
   61.2700   27.6510   45.2710 O   0  0  0  0  0  0  0  0  0  0  0  0
   60.7360   29.5180   46.5120 O   0  0  0  0  0  0  0  0  0  0  0  0
   59.8310   30.6000   46.7260 C   0  0  0  0  0  0  0  0  0  0  0  0
   59.4570   30.6930   48.1800 C   0  0  0  0  0  0  0  0  0  0  0  0
   58.7780   31.8190   48.6720 C   0  0  0  0  0  0  0  0  0  0  0  0
   58.4060   31.8850   50.0190 C   0  0  0  0  0  0  0  0  0  0  0  0
   58.7030   30.8250   50.8790 C   0  0  0  0  0  0  0  0  0  0  0  0
   59.3720   29.6980   50.3930 C   0  0  0  0  0  0  0  0  0  0  0  0
   59.7460   29.6280   49.0480 C   0  0  0  0  0  0  0  0  0  0  0  0
   58.7350   33.7700   44.8110 O   0  0  0  0  0  0  0  0  0  0  0  0
   59.9220   34.4260   45.2560 C   0  0  0  0  0  0  0  0  0  0  0  0
   60.4880   33.7370   46.5090 C   0  0  2  0  0  0  0  0  0  0  0  0
   60.2700   34.5920   47.7720 C   0  0  0  0  0  0  0  0  0  0  0  0
   61.1860   34.0680   48.8760 C   0  0  0  0  0  0  0  0  0  0  0  0
   62.5860   33.3870   48.0400 S   0  0  0  0  0  0  0  0  0  0  0  0
   62.8560   31.9750   48.4770 O   0  0  0  0  0  0  0  0  0  0  0  0
   63.8070   34.2440   48.2180 O   0  0  0  0  0  0  0  0  0  0  0  0
   61.9880   33.4500   46.3800 C   0  0  0  0  0  0  0  0  0  0  0  0
   55.8350   28.6443   44.7120 H   0  0  0  0  0  0  0  0  0  0  0  0
   54.3820   26.6970   46.7760 H   0  0  0  0  0  0  0  0  0  0  0  0
   57.0695   25.3254   47.1860 H   0  0  0  0  0  0  0  0  0  0  0  0
   59.4219   26.1355   47.1132 H   0  0  0  0  0  0  0  0  0  0  0  0
   60.3101   31.5399   46.4144 H   0  0  0  0  0  0  0  0  0  0  0  0
   58.9203   30.4249   46.1345 H   0  0  0  0  0  0  0  0  0  0  0  0
   58.5376   32.6526   47.9957 H   0  0  0  0  0  0  0  0  0  0  0  0
   57.8794   32.7720   50.4011 H   0  0  0  0  0  0  0  0  0  0  0  0
   58.4105   30.8772   51.9381 H   0  0  0  0  0  0  0  0  0  0  0  0
   59.6048   28.8637   51.0710 H   0  0  0  0  0  0  0  0  0  0  0  0
   60.2677   28.7369   48.6689 H   0  0  0  0  0  0  0  0  0  0  0  0
   60.6748   34.3926   44.4547 H   0  0  0  0  0  0  0  0  0  0  0  0
   59.6766   35.4686   45.5067 H   0  0  0  0  0  0  0  0  0  0  0  0
   59.9415   32.7868   46.6012 H   0  0  0  0  0  0  0  0  0  0  0  0
   60.5134   35.6426   47.5554 H   0  0  0  0  0  0  0  0  0  0  0  0
   59.2196   34.5297   48.0926 H   0  0  0  0  0  0  0  0  0  0  0  0
   61.4959   34.8880   49.5405 H   0  0  0  0  0  0  0  0  0  0  0  0
   60.6817   33.3201   49.5055 H   0  0  0  0  0  0  0  0  0  0  0  0
   62.4884   34.2531   45.8191 H   0  0  0  0  0  0  0  0  0  0  0  0
   62.1843   32.5152   45.8345 H   0  0  0  0  0  0  0  0  0  0  0  0
  1  2  2  0
  2  3  1  0
  3  4  1  0
  4  5  2  0
  4  6  2  0
  4  7  1  0
  7  8  1  0
  8  9  2  0
  9 10  1  0
 10 11  1  0
 10 12  2  0
 12 13  1  0
 13 14  2  0
 14 15  1  0
 15 16  2  0
 15 17  1  0
 17 18  1  0
 18 19  1  0
 19 20  2  0
 20 21  1  0
 21 22  2  0
 22 23  1  0
 23 24  2  0
  2 25  1  0
 25 26  1  0
 26 27  1  0
 27 28  1  0
 28 29  1  0
 29 30  1  0
 30 31  2  0
 30 32  2  0
 30 33  1  0
 14  8  1  0
 24 19  1  0
 33 27  1  0
  9 34  1  0
 11 35  1  0
 12 36  1  0
 13 37  1  0
 18 38  1  0
 18 39  1  0
 20 40  1  0
 21 41  1  0
 22 42  1  0
 23 43  1  0
 24 44  1  0
 26 45  1  0
 26 46  1  0
 27 47  1  1
 28 48  1  0
 28 49  1  0
 29 50  1  0
 29 51  1  0
 33 52  1  0
 33 53  1  0
M  CHG  1   3  -1
M  END
>  <UniqueID>  (85) 
78

>  <SMILES>  (85) 
O=C([N-]S(=O)(=O)Oc1cc(O)ccc1C(=O)OCc1ccccc1)OC[C@@H]1CCS(=O)(=O)C1

>  <Energy>  (85) 
53.5417405207675

>  <Genealogy>  (85) 
O=C([N-]S(=O)(=O)Oc1cc(O)ccc1C(=O)OCc1ccccc1)OCC1CCS(=O)(=O)C1 (protonated)
O=C([N-]S(=O)(=O)Oc1cc(O)ccc1C(=O)OCc1ccccc1)OC[C@@H]1CCS(=O)(=O)C1 (chirality)
O=C([N-]S(=O)(=O)Oc1cc(O)ccc1C(=O)OCc1ccccc1)OC[C@@H]1CCS(=O)(=O)C1 (3D coordinates assigned)
O=C([N-]S(=O)(=O)Oc1cc(O)ccc1C(=O)OCc1ccccc1)OC[C@@H]1CCS(=O)(=O)C1 (nonaromatic ring conformer: 53.5417405207675 kcal/mol)

>  <smiles>  (85) 
O=C(NS(=O)(=O)Oc1cc(O)ccc1C(=O)OCc1ccccc1)OCC1CCS(=O)(=O)C1

>  <score_type>  (85) 
oracle

>  <origin>  (85) 
adg

>  <m_score__min__energy>  (85) 
-10.4

>  <m_primary>  (85) 
energy

$$$$
85:0
     RDKit          3D

 51 53  0  0  0  0  0  0  0  0999 V2000
   59.8530   28.9960   50.4260 C   0  0  0  0  0  0  0  0  0  0  0  0
   60.5690   28.9650   49.1960 O   0  0  0  0  0  0  0  0  0  0  0  0
   59.9420   28.7350   47.9660 C   0  0  0  0  0  0  0  0  0  0  0  0
   59.6840   29.7850   47.0630 C   0  0  0  0  0  0  0  0  0  0  0  0
   59.9300   31.1200   47.4140 O   0  0  0  0  0  0  0  0  0  0  0  0
   58.9830   31.9420   48.0360 C   0  0  0  0  0  0  0  0  0  0  0  0
   58.4920   33.1580   47.3270 C   0  0  0  0  0  0  0  0  0  0  0  0
   58.4900   31.6300   49.1530 O   0  0  0  0  0  0  0  0  0  0  0  0
   59.1570   29.5050   45.7880 C   0  0  0  0  0  0  0  0  0  0  0  0
   58.8990   30.6390   44.8240 C   0  0  0  0  0  0  0  0  0  0  0  0
   57.4140   30.9000   44.7300 C   0  0  0  0  0  0  0  0  0  0  0  0
   56.6480   30.6170   43.6530 C   0  0  0  0  0  0  0  0  0  0  0  0
   57.0230   31.2290   42.3280 C   0  0  0  0  0  0  0  0  0  0  0  0
   55.4400   29.7170   43.7390 C   0  0  0  0  0  0  0  0  0  0  0  0
   58.7850   28.1850   45.4630 C   0  0  0  0  0  0  0  0  0  0  0  0
   58.2390   27.9300   44.2770 O   0  0  0  0  0  0  0  0  0  0  0  0
   57.8530   26.7190   43.9000 C   0  0  0  0  0  0  0  0  0  0  0  0
   58.0050   25.6190   44.7530 C   0  0  0  0  0  0  0  0  0  0  0  0
   57.5580   24.2740   44.3100 C   0  0  0  0  0  0  0  0  0  0  0  0
   58.3190   23.1340   44.6250 C   0  0  0  0  0  0  0  0  0  0  0  0
   57.9050   21.8680   44.2010 C   0  0  0  0  0  0  0  0  0  0  0  0
   56.7300   21.7250   43.4530 C   0  0  0  0  0  0  0  0  0  0  0  0
   56.3070   20.4690   43.0250 O   0  0  0  0  0  0  0  0  0  0  0  0
   55.9720   22.8560   43.1280 C   0  0  0  0  0  0  0  0  0  0  0  0
   56.3830   24.1220   43.5520 C   0  0  0  0  0  0  0  0  0  0  0  0
   58.5890   25.8320   46.0150 C   0  0  0  0  0  0  0  0  0  0  0  0
   58.7710   24.8540   46.7910 O   0  0  0  0  0  0  0  0  0  0  0  0
   58.9830   27.1360   46.3930 C   0  0  0  0  0  0  0  0  0  0  0  0
   59.5700   27.4250   47.6440 C   0  0  0  0  0  0  0  0  0  0  0  0
   59.8030   26.4190   48.5790 O   0  0  0  0  0  0  0  0  0  0  0  0
   60.5638   28.9652   51.2649 H   0  0  0  0  0  0  0  0  0  0  0  0
   59.2598   29.9207   50.4818 H   0  0  0  0  0  0  0  0  0  0  0  0
   59.1821   28.1261   50.4818 H   0  0  0  0  0  0  0  0  0  0  0  0
   58.1866   33.9144   48.0649 H   0  0  0  0  0  0  0  0  0  0  0  0
   59.2964   33.5647   46.6965 H   0  0  0  0  0  0  0  0  0  0  0  0
   57.6308   32.8921   46.6965 H   0  0  0  0  0  0  0  0  0  0  0  0
   59.4077   31.5462   45.1822 H   0  0  0  0  0  0  0  0  0  0  0  0
   59.2845   30.3670   43.8303 H   0  0  0  0  0  0  0  0  0  0  0  0
   56.9200   31.3536   45.6019 H   0  0  0  0  0  0  0  0  0  0  0  0
   57.5907   32.1554   42.4996 H   0  0  0  0  0  0  0  0  0  0  0  0
   57.6418   30.5199   41.7586 H   0  0  0  0  0  0  0  0  0  0  0  0
   56.1102   31.4584   41.7586 H   0  0  0  0  0  0  0  0  0  0  0  0
   55.1938   29.5336   44.7953 H   0  0  0  0  0  0  0  0  0  0  0  0
   54.5861   30.2009   43.2422 H   0  0  0  0  0  0  0  0  0  0  0  0
   55.6593   28.7604   43.2422 H   0  0  0  0  0  0  0  0  0  0  0  0
   57.4076   26.5765   42.9043 H   0  0  0  0  0  0  0  0  0  0  0  0
   59.2455   23.2392   45.2085 H   0  0  0  0  0  0  0  0  0  0  0  0
   58.5041   20.9814   44.4558 H   0  0  0  0  0  0  0  0  0  0  0  0
   56.8550   19.6360   43.2080 H   0  0  0  0  0  0  0  0  0  0  0  0
   55.0504   22.7476   42.5373 H   0  0  0  0  0  0  0  0  0  0  0  0
   55.7833   25.0065   43.2911 H   0  0  0  0  0  0  0  0  0  0  0  0
  1  2  1  0
  2  3  1  0
  3  4  2  0
  4  5  1  0
  5  6  1  0
  6  7  1  0
  6  8  2  0
  4  9  1  0
  9 10  1  0
 10 11  1  0
 11 12  2  3
 12 13  1  0
 12 14  1  0
  9 15  2  0
 15 16  1  0
 16 17  1  0
 17 18  2  0
 18 19  1  0
 19 20  2  0
 20 21  1  0
 21 22  2  0
 22 23  1  0
 22 24  1  0
 24 25  2  0
 18 26  1  0
 26 27  2  0
 26 28  1  0
 28 29  2  0
 29 30  1  0
 29  3  1  0
 28 15  1  0
 25 19  1  0
  1 31  1  0
  1 32  1  0
  1 33  1  0
  7 34  1  0
  7 35  1  0
  7 36  1  0
 10 37  1  0
 10 38  1  0
 11 39  1  0
 13 40  1  0
 13 41  1  0
 13 42  1  0
 14 43  1  0
 14 44  1  0
 14 45  1  0
 17 46  1  0
 20 47  1  0
 21 48  1  0
 23 49  1  0
 24 50  1  0
 25 51  1  0
M  CHG  1  30  -1
M  END
>  <UniqueID>  (86) 
79

>  <SMILES>  (86) 
COc1c(OC(C)=O)c(CC=C(C)C)c2occ(-c3ccc(O)cc3)c(=O)c2c1[O-]

>  <Energy>  (86) 
72.36851579353231

>  <Genealogy>  (86) 
COc1c(OC(C)=O)c(CC=C(C)C)c2occ(-c3ccc(O)cc3)c(=O)c2c1[O-] (protonated)
COc1c(OC(C)=O)c(CC=C(C)C)c2occ(-c3ccc(O)cc3)c(=O)c2c1[O-] (3D coordinates assigned)
COc1c(OC(C)=O)c(CC=C(C)C)c2occ(-c3ccc(O)cc3)c(=O)c2c1[O-] (optimized conformer: 72.36851579353231 kcal/mol)

>  <smiles>  (86) 
COc1c(OC(C)=O)c(CC=C(C)C)c2occ(-c3ccc(O)cc3)c(=O)c2c1O

>  <score_type>  (86) 
oracle

>  <origin>  (86) 
adg

>  <m_score__min__energy>  (86) 
-10.279999999999999

>  <m_primary>  (86) 
energy

$$$$
86:0
     RDKit          3D

 46 48  0  0  0  0  0  0  0  0999 V2000
   58.2850   34.3550   46.1910 O   0  0  0  0  0  0  0  0  0  0  0  0
   58.0180   33.1240   46.1120 C   0  0  0  0  0  0  0  0  0  0  0  0
   57.9480   32.3440   47.2740 O   0  0  0  0  0  0  0  0  0  0  0  0
   59.0290   31.5470   47.7540 C   0  0  2  0  0  0  0  0  0  0  0  0
   60.1790   31.6100   46.7380 C   0  0  0  0  0  0  0  0  0  0  0  0
   61.4580   32.1070   47.3660 C   0  0  0  0  0  0  0  0  0  0  0  0
   62.0140   31.4330   48.4660 C   0  0  0  0  0  0  0  0  0  0  0  0
   63.2170   31.8740   49.0270 C   0  0  0  0  0  0  0  0  0  0  0  0
   63.8770   32.9840   48.4890 C   0  0  0  0  0  0  0  0  0  0  0  0
   65.0720   33.4190   49.0470 O   0  0  0  0  0  0  0  0  0  0  0  0
   63.3330   33.6530   47.3880 C   0  0  0  0  0  0  0  0  0  0  0  0
   62.1310   33.2160   46.8260 C   0  0  0  0  0  0  0  0  0  0  0  0
   58.5640   30.1300   47.9520 C   0  0  0  0  0  0  0  0  0  0  0  0
   58.6350   29.6050   49.0960 O   0  0  0  0  0  0  0  0  0  0  0  0
   58.1240   29.3680   46.8210 N   0  0  0  0  0  0  0  0  0  0  0  0
   58.5640   28.0500   46.4600 C   0  0  0  0  0  0  0  0  0  0  0  0
   59.8920   27.6510   46.7050 C   0  0  0  0  0  0  0  0  0  0  0  0
   60.3160   26.3620   46.3860 C   0  0  0  0  0  0  0  0  0  0  0  0
   59.4220   25.4490   45.8330 C   0  0  0  0  0  0  0  0  0  0  0  0
   58.0950   25.8180   45.6040 C   0  0  0  0  0  0  0  0  0  0  0  0
   57.6430   27.1150   45.9170 C   0  0  0  0  0  0  0  0  0  0  0  0
   56.2210   27.4590   45.6500 C   0  0  0  0  0  0  0  0  0  0  0  0
   55.9010   28.5550   45.1180 O   0  0  0  0  0  0  0  0  0  0  0  0
   55.2100   26.5630   45.9810 O   0  0  0  0  0  0  0  0  0  0  0  0
   57.7760   32.4990   44.7930 C   0  0  0  0  0  0  0  0  0  0  0  0
   56.9710   31.3500   44.6790 C   0  0  0  0  0  0  0  0  0  0  0  0
   56.7490   30.7640   43.4290 C   0  0  0  0  0  0  0  0  0  0  0  0
   57.3260   31.3160   42.2830 C   0  0  0  0  0  0  0  0  0  0  0  0
   58.1280   32.4550   42.3860 C   0  0  0  0  0  0  0  0  0  0  0  0
   58.3530   33.0460   43.6330 C   0  0  0  0  0  0  0  0  0  0  0  0
   59.3846   31.9292   48.7222 H   0  0  0  0  0  0  0  0  0  0  0  0
   60.3504   30.6022   46.3319 H   0  0  0  0  0  0  0  0  0  0  0  0
   59.8933   32.3145   45.9430 H   0  0  0  0  0  0  0  0  0  0  0  0
   61.5016   30.5556   48.8875 H   0  0  0  0  0  0  0  0  0  0  0  0
   63.6448   31.3472   49.8927 H   0  0  0  0  0  0  0  0  0  0  0  0
   63.8525   34.5249   46.9637 H   0  0  0  0  0  0  0  0  0  0  0  0
   61.7095   33.7424   45.9569 H   0  0  0  0  0  0  0  0  0  0  0  0
   60.6013   28.3630   47.1522 H   0  0  0  0  0  0  0  0  0  0  0  0
   61.3589   26.0655   46.5715 H   0  0  0  0  0  0  0  0  0  0  0  0
   59.7619   24.4349   45.5760 H   0  0  0  0  0  0  0  0  0  0  0  0
   57.3942   25.0872   45.1741 H   0  0  0  0  0  0  0  0  0  0  0  0
   56.5141   30.9107   45.5780 H   0  0  0  0  0  0  0  0  0  0  0  0
   56.1185   29.8663   43.3480 H   0  0  0  0  0  0  0  0  0  0  0  0
   57.1490   30.8543   41.3004 H   0  0  0  0  0  0  0  0  0  0  0  0
   58.5838   32.8882   41.4835 H   0  0  0  0  0  0  0  0  0  0  0  0
   58.9846   33.9435   43.7071 H   0  0  0  0  0  0  0  0  0  0  0  0
  1  2  2  0
  2  3  1  0
  3  4  1  0
  4  5  1  0
  5  6  1  0
  6  7  2  0
  7  8  1  0
  8  9  2  0
  9 10  1  0
  9 11  1  0
 11 12  2  0
  4 13  1  0
 13 14  2  0
 13 15  1  0
 15 16  1  0
 16 17  2  0
 17 18  1  0
 18 19  2  0
 19 20  1  0
 20 21  2  0
 21 22  1  0
 22 23  2  0
 22 24  1  0
  2 25  1  0
 25 26  2  0
 26 27  1  0
 27 28  2  0
 28 29  1  0
 29 30  2  0
 12  6  1  0
 21 16  1  0
 30 25  1  0
  4 31  1  1
  5 32  1  0
  5 33  1  0
  7 34  1  0
  8 35  1  0
 11 36  1  0
 12 37  1  0
 17 38  1  0
 18 39  1  0
 19 40  1  0
 20 41  1  0
 26 42  1  0
 27 43  1  0
 28 44  1  0
 29 45  1  0
 30 46  1  0
M  CHG  3  10  -1  15  -1  24  -1
M  END
>  <UniqueID>  (87) 
80

>  <SMILES>  (87) 
O=C(O[C@H](Cc1ccc([O-])cc1)C(=O)[N-]c1ccccc1C(=O)[O-])c1ccccc1

>  <Energy>  (87) 
50.48684777362503

>  <Genealogy>  (87) 
O=C(OC(Cc1ccc([O-])cc1)C(=O)[N-]c1ccccc1C(=O)[O-])c1ccccc1 (protonated)
O=C(O[C@H](Cc1ccc([O-])cc1)C(=O)[N-]c1ccccc1C(=O)[O-])c1ccccc1 (chirality)
O=C(O[C@H](Cc1ccc([O-])cc1)C(=O)[N-]c1ccccc1C(=O)[O-])c1ccccc1 (3D coordinates assigned)
O=C(O[C@H](Cc1ccc([O-])cc1)C(=O)[N-]c1ccccc1C(=O)[O-])c1ccccc1 (optimized conformer: 50.48684777362503 kcal/mol)

>  <smiles>  (87) 
O=C(OC(Cc1ccc(O)cc1)C(=O)Nc1ccccc1C(=O)O)c1ccccc1

>  <score_type>  (87) 
oracle

>  <origin>  (87) 
adg

>  <m_score__min__energy>  (87) 
-13.68

>  <m_primary>  (87) 
energy

$$$$
87:0
     RDKit          3D

 34 35  0  0  0  0  0  0  0  0999 V2000
   59.6470   35.5870   45.5490 C   0  0  0  0  0  0  0  0  0  0  0  0
   59.8420   34.2690   46.1440 N   0  0  0  0  0  0  0  0  0  0  0  0
   60.9490   33.8280   46.7630 C   0  0  0  0  0  0  0  0  0  0  0  0
   60.6880   32.5660   47.2540 C   0  0  0  0  0  0  0  0  0  0  0  0
   59.4180   32.2180   46.9590 N   0  0  0  0  0  0  0  0  0  0  0  0
   58.9310   33.2860   46.2920 C   0  0  0  0  0  0  0  0  0  0  0  0
   57.2380   33.3700   45.6980 S   0  0  0  0  0  0  0  0  0  0  0  0
   57.4580   32.1020   44.4030 C   0  0  0  0  0  0  0  0  0  0  0  0
   57.3690   30.7250   44.9860 C   0  0  0  0  0  0  0  0  0  0  0  0
   56.2950   30.0750   44.8640 O   0  0  0  0  0  0  0  0  0  0  0  0
   58.5230   30.1290   45.6010 N   0  0  0  0  0  0  0  0  0  0  0  0
   58.5320   28.8200   46.1910 C   0  0  0  0  0  0  0  0  0  0  0  0
   59.5550   28.4790   47.0900 C   0  0  0  0  0  0  0  0  0  0  0  0
   59.5740   27.2190   47.6950 C   0  0  0  0  0  0  0  0  0  0  0  0
   58.5660   26.2930   47.4170 C   0  0  0  0  0  0  0  0  0  0  0  0
   57.5290   26.6240   46.5340 C   0  0  0  0  0  0  0  0  0  0  0  0
   56.2360   25.4740   46.2110 S   0  0  0  0  0  0  0  0  0  0  0  0
   54.7500   26.3250   45.9820 N   0  0  0  0  0  0  0  0  0  0  0  0
   56.0950   24.5260   47.3680 O   0  0  0  0  0  0  0  0  0  0  0  0
   56.5580   24.6820   44.9750 O   0  0  0  0  0  0  0  0  0  0  0  0
   57.5070   27.8920   45.9340 C   0  0  0  0  0  0  0  0  0  0  0  0
   59.5361   36.3365   46.3464 H   0  0  0  0  0  0  0  0  0  0  0  0
   60.5174   35.8405   44.9260 H   0  0  0  0  0  0  0  0  0  0  0  0
   58.7405   35.5776   44.9260 H   0  0  0  0  0  0  0  0  0  0  0  0
   61.8972   34.3768   46.8612 H   0  0  0  0  0  0  0  0  0  0  0  0
   61.4058   31.9385   47.8026 H   0  0  0  0  0  0  0  0  0  0  0  0
   56.6724   32.2231   43.6426 H   0  0  0  0  0  0  0  0  0  0  0  0
   58.4523   32.2295   43.9501 H   0  0  0  0  0  0  0  0  0  0  0  0
   59.4400   30.6210   45.4960 H   0  0  0  0  0  0  0  0  0  0  0  0
   60.3463   29.2077   47.3197 H   0  0  0  0  0  0  0  0  0  0  0  0
   60.3841   26.9563   48.3912 H   0  0  0  0  0  0  0  0  0  0  0  0
   58.5860   25.3012   47.8923 H   0  0  0  0  0  0  0  0  0  0  0  0
   54.7260   27.0920   46.6910 H   0  0  0  0  0  0  0  0  0  0  0  0
   56.6824   28.1622   45.2579 H   0  0  0  0  0  0  0  0  0  0  0  0
  1  2  1  0
  2  3  1  0
  3  4  2  0
  4  5  1  0
  5  6  2  0
  6  7  1  0
  7  8  1  0
  8  9  1  0
  9 10  2  0
  9 11  1  0
 11 12  1  0
 12 13  2  0
 13 14  1  0
 14 15  2  0
 15 16  1  0
 16 17  1  0
 17 18  1  0
 17 19  2  0
 17 20  2  0
 16 21  2  0
  6  2  1  0
 21 12  1  0
  1 22  1  0
  1 23  1  0
  1 24  1  0
  3 25  1  0
  4 26  1  0
  8 27  1  0
  8 28  1  0
 11 29  1  0
 13 30  1  0
 14 31  1  0
 15 32  1  0
 18 33  1  0
 21 34  1  0
M  CHG  1  18  -1
M  END
>  <UniqueID>  (88) 
81

>  <SMILES>  (88) 
Cn1ccnc1SCC(=O)Nc1cccc(S([NH-])(=O)=O)c1

>  <Energy>  (88) 
59.611146049741

>  <Genealogy>  (88) 
Cn1ccnc1SCC(=O)Nc1cccc(S([NH-])(=O)=O)c1 (protonated)
Cn1ccnc1SCC(=O)Nc1cccc(S([NH-])(=O)=O)c1 (3D coordinates assigned)
Cn1ccnc1SCC(=O)Nc1cccc(S([NH-])(=O)=O)c1 (optimized conformer: 59.611146049741 kcal/mol)

>  <smiles>  (88) 
Cn1ccnc1SCC(=O)Nc1cccc(S(N)(=O)=O)c1

>  <score_type>  (88) 
oracle

>  <origin>  (88) 
adg

>  <m_score__min__energy>  (88) 
-10.76

>  <m_primary>  (88) 
energy

$$$$
88:0
     RDKit          3D

 34 36  0  0  0  0  0  0  0  0999 V2000
   55.8680   30.1420   43.5530 C   0  0  0  0  0  0  0  0  0  0  0  0
   57.0120   29.9310   44.4570 N   0  0  0  0  0  0  0  0  0  0  0  0
   58.0660   30.8150   44.4510 C   0  0  0  0  0  0  0  0  0  0  0  0
   58.1330   32.2210   43.3260 S   0  0  0  0  0  0  0  0  0  0  0  0
   57.4000   33.4080   44.5090 C   0  0  0  0  0  0  0  0  0  0  0  0
   58.3200   33.6480   45.6760 C   0  0  0  0  0  0  0  0  0  0  0  0
   58.0200   33.1020   46.9350 C   0  0  0  0  0  0  0  0  0  0  0  0
   58.8970   33.2860   48.0080 C   0  0  0  0  0  0  0  0  0  0  0  0
   60.0780   34.0120   47.8320 C   0  0  0  0  0  0  0  0  0  0  0  0
   60.3840   34.5560   46.5820 C   0  0  0  0  0  0  0  0  0  0  0  0
   59.5100   34.3780   45.5070 C   0  0  0  0  0  0  0  0  0  0  0  0
   59.1170   30.6340   45.2910 N   0  0  0  0  0  0  0  0  0  0  0  0
   59.1860   29.5730   46.1260 C   0  0  0  0  0  0  0  0  0  0  0  0
   60.2960   29.4130   46.9640 C   0  0  0  0  0  0  0  0  0  0  0  0
   60.3770   28.3060   47.8130 C   0  0  0  0  0  0  0  0  0  0  0  0
   59.3520   27.3570   47.8270 C   0  0  0  0  0  0  0  0  0  0  0  0
   58.2410   27.5100   46.9900 C   0  0  0  0  0  0  0  0  0  0  0  0
   58.1500   28.6220   46.1320 C   0  0  0  0  0  0  0  0  0  0  0  0
   57.0570   28.8230   45.2710 C   0  0  0  0  0  0  0  0  0  0  0  0
   56.1200   27.9760   45.2470 O   0  0  0  0  0  0  0  0  0  0  0  0
   54.9575   30.3099   44.1469 H   0  0  0  0  0  0  0  0  0  0  0  0
   56.0591   31.0200   42.9186 H   0  0  0  0  0  0  0  0  0  0  0  0
   55.7333   29.2536   42.9186 H   0  0  0  0  0  0  0  0  0  0  0  0
   57.2170   34.3624   43.9935 H   0  0  0  0  0  0  0  0  0  0  0  0
   56.4573   32.9865   44.8881 H   0  0  0  0  0  0  0  0  0  0  0  0
   57.0924   32.5281   47.0770 H   0  0  0  0  0  0  0  0  0  0  0  0
   58.6570   32.8585   48.9927 H   0  0  0  0  0  0  0  0  0  0  0  0
   60.7668   34.1552   48.6776 H   0  0  0  0  0  0  0  0  0  0  0  0
   61.3149   35.1255   46.4442 H   0  0  0  0  0  0  0  0  0  0  0  0
   59.7533   34.8102   44.5252 H   0  0  0  0  0  0  0  0  0  0  0  0
   61.1045   30.1588   46.9541 H   0  0  0  0  0  0  0  0  0  0  0  0
   61.2494   28.1817   48.4714 H   0  0  0  0  0  0  0  0  0  0  0  0
   59.4183   26.4875   48.4975 H   0  0  0  0  0  0  0  0  0  0  0  0
   57.4369   26.7594   47.0027 H   0  0  0  0  0  0  0  0  0  0  0  0
  1  2  1  0
  2  3  1  0
  3  4  1  0
  4  5  1  0
  5  6  1  0
  6  7  2  0
  7  8  1  0
  8  9  2  0
  9 10  1  0
 10 11  2  0
  3 12  2  0
 12 13  1  0
 13 14  2  0
 14 15  1  0
 15 16  2  0
 16 17  1  0
 17 18  2  0
 18 19  1  0
 19 20  2  0
 19  2  1  0
 11  6  1  0
 18 13  1  0
  1 21  1  0
  1 22  1  0
  1 23  1  0
  5 24  1  0
  5 25  1  0
  7 26  1  0
  8 27  1  0
  9 28  1  0
 10 29  1  0
 11 30  1  0
 14 31  1  0
 15 32  1  0
 16 33  1  0
 17 34  1  0
M  END
>  <UniqueID>  (89) 
82

>  <SMILES>  (89) 
Cn1c(SCc2ccccc2)nc2ccccc2c1=O

>  <Energy>  (89) 
39.43811806921118

>  <Genealogy>  (89) 
Cn1c(SCc2ccccc2)nc2ccccc2c1=O (3D coordinates assigned)
Cn1c(SCc2ccccc2)nc2ccccc2c1=O (optimized conformer: 39.43811806921118 kcal/mol)

>  <smiles>  (89) 
Cn1c(SCc2ccccc2)nc2ccccc2c1=O

>  <score_type>  (89) 
oracle

>  <origin>  (89) 
adg

>  <m_score__min__energy>  (89) 
-7.2800000000000002

>  <m_primary>  (89) 
energy

$$$$
89:0
     RDKit          3D

 67 71  0  0  0  0  0  0  0  0999 V2000
   59.6100   22.1380   44.5610 C   0  0  0  0  0  0  0  0  0  0  0  0
   59.3620   23.0160   45.6530 O   0  0  0  0  0  0  0  0  0  0  0  0
   58.5050   24.1260   45.6020 C   0  0  0  0  0  0  0  0  0  0  0  0
   58.9710   25.3460   46.1020 C   0  0  0  0  0  0  0  0  0  0  0  0
   58.1470   26.4780   46.1050 C   0  0  0  0  0  0  0  0  0  0  0  0
   56.8420   26.4030   45.5860 C   0  0  0  0  0  0  0  0  0  0  0  0
   55.9370   27.5150   45.6240 N   0  0  0  0  0  0  0  0  0  0  0  0
   56.0480   28.7410   44.8840 C   0  0  0  0  0  0  0  0  0  0  0  0
   55.2100   29.6710   45.0470 O   0  0  0  0  0  0  0  0  0  0  0  0
   57.1690   28.9080   43.9010 C   0  0  0  0  0  0  0  0  0  0  0  0
   58.2510   29.7110   44.4900 N   0  0  0  0  0  0  0  0  0  0  0  0
   59.4240   29.0420   44.9920 C   0  0  0  0  0  0  0  0  0  0  0  0
   60.0330   28.2190   44.2560 O   0  0  0  0  0  0  0  0  0  0  0  0
   60.0230   29.4440   46.2740 C   0  0  0  0  0  0  0  0  0  0  0  0
   59.3700   29.1860   47.5070 C   0  0  0  0  0  0  0  0  0  0  0  0
   59.9350   29.6180   48.7200 C   0  0  0  0  0  0  0  0  0  0  0  0
   61.1380   30.3120   48.6670 C   0  0  0  0  0  0  0  0  0  0  0  0
   61.7690   30.5670   47.4830 C   0  0  0  0  0  0  0  0  0  0  0  0
   61.2550   30.1310   46.2680 C   0  0  0  0  0  0  0  0  0  0  0  0
   62.9430   31.3710   47.7800 C   0  0  0  0  0  0  0  0  0  0  0  0
   63.7930   31.7350   46.9210 O   0  0  0  0  0  0  0  0  0  0  0  0
   63.0490   31.6810   49.1860 N   0  0  1  0  0  0  0  0  0  0  0  0
   62.9450   33.1370   49.4440 C   0  0  0  0  0  0  0  0  0  0  0  0
   61.7830   33.8060   48.7290 C   0  0  0  0  0  0  0  0  0  0  0  0
   61.8460   34.0530   47.3460 C   0  0  0  0  0  0  0  0  0  0  0  0
   60.7460   34.5890   46.6700 C   0  0  0  0  0  0  0  0  0  0  0  0
   59.5760   34.8930   47.3710 C   0  0  0  0  0  0  0  0  0  0  0  0
   59.5080   34.6720   48.7510 C   0  0  0  0  0  0  0  0  0  0  0  0
   60.6050   34.1260   49.4270 C   0  0  0  0  0  0  0  0  0  0  0  0
   61.9280   30.9410   49.7160 C   0  0  0  0  0  0  0  0  0  0  0  0
   61.6840   30.8420   50.9490 O   0  0  0  0  0  0  0  0  0  0  0  0
   57.9980   31.0800   44.8470 C   0  0  0  0  0  0  0  0  0  0  0  0
   57.8500   31.4230   46.2030 C   0  0  0  0  0  0  0  0  0  0  0  0
   57.5500   32.7360   46.5720 C   0  0  0  0  0  0  0  0  0  0  0  0
   57.3850   33.7170   45.5920 C   0  0  0  0  0  0  0  0  0  0  0  0
   57.5380   33.3930   44.2420 C   0  0  0  0  0  0  0  0  0  0  0  0
   57.8700   32.0830   43.8570 C   0  0  0  0  0  0  0  0  0  0  0  0
   58.0370   31.7630   42.3960 C   0  0  0  0  0  0  0  0  0  0  0  0
   56.3750   25.1800   45.0870 C   0  0  0  0  0  0  0  0  0  0  0  0
   57.2000   24.0510   45.0850 C   0  0  0  0  0  0  0  0  0  0  0  0
   59.8902   21.1459   44.9446 H   0  0  0  0  0  0  0  0  0  0  0  0
   58.7014   22.0506   43.9471 H   0  0  0  0  0  0  0  0  0  0  0  0
   60.4301   22.5388   43.9471 H   0  0  0  0  0  0  0  0  0  0  0  0
   59.9952   25.4170   46.4969 H   0  0  0  0  0  0  0  0  0  0  0  0
   58.5211   27.4281   46.5142 H   0  0  0  0  0  0  0  0  0  0  0  0
   57.5608   27.9176   43.6262 H   0  0  0  0  0  0  0  0  0  0  0  0
   56.7869   29.4240   43.0079 H   0  0  0  0  0  0  0  0  0  0  0  0
   58.4133   28.6432   47.5140 H   0  0  0  0  0  0  0  0  0  0  0  0
   59.4403   29.4131   49.6809 H   0  0  0  0  0  0  0  0  0  0  0  0
   61.7940   30.3165   45.3272 H   0  0  0  0  0  0  0  0  0  0  0  0
   63.9430   31.2940   49.5650 H   0  0  0  0  0  0  0  0  0  0  0  0
   62.8200   33.2892   50.5262 H   0  0  0  0  0  0  0  0  0  0  0  0
   63.8663   33.5971   49.0573 H   0  0  0  0  0  0  0  0  0  0  0  0
   62.7679   33.8227   46.7919 H   0  0  0  0  0  0  0  0  0  0  0  0
   60.8014   34.7714   45.5866 H   0  0  0  0  0  0  0  0  0  0  0  0
   58.7075   35.3065   46.8374 H   0  0  0  0  0  0  0  0  0  0  0  0
   58.5923   34.9274   49.3045 H   0  0  0  0  0  0  0  0  0  0  0  0
   60.5454   33.9461   50.5106 H   0  0  0  0  0  0  0  0  0  0  0  0
   57.9714   30.6519   46.9780 H   0  0  0  0  0  0  0  0  0  0  0  0
   57.4436   32.9976   47.6351 H   0  0  0  0  0  0  0  0  0  0  0  0
   57.1339   34.7474   45.8839 H   0  0  0  0  0  0  0  0  0  0  0  0
   57.3976   34.1687   43.4748 H   0  0  0  0  0  0  0  0  0  0  0  0
   58.5435   30.7925   42.2888 H   0  0  0  0  0  0  0  0  0  0  0  0
   57.0485   31.7158   41.9157 H   0  0  0  0  0  0  0  0  0  0  0  0
   58.6410   32.5469   41.9157 H   0  0  0  0  0  0  0  0  0  0  0  0
   55.3504   25.1073   44.6934 H   0  0  0  0  0  0  0  0  0  0  0  0
   56.8262   23.1002   44.6772 H   0  0  0  0  0  0  0  0  0  0  0  0
  1  2  1  0
  2  3  1  0
  3  4  2  0
  4  5  1  0
  5  6  2  0
  6  7  1  0
  7  8  1  0
  8  9  2  0
  8 10  1  0
 10 11  1  0
 11 12  1  0
 12 13  2  0
 12 14  1  0
 14 15  2  0
 15 16  1  0
 16 17  2  0
 17 18  1  0
 18 19  2  0
 18 20  1  0
 20 21  2  0
 20 22  1  0
 22 23  1  0
 23 24  1  0
 24 25  2  0
 25 26  1  0
 26 27  2  0
 27 28  1  0
 28 29  2  0
 22 30  1  0
 30 31  2  0
 11 32  1  0
 32 33  2  0
 33 34  1  0
 34 35  2  0
 35 36  1  0
 36 37  2  0
 37 38  1  0
  6 39  1  0
 39 40  2  0
 40  3  1  0
 19 14  1  0
 29 24  1  0
 37 32  1  0
 30 17  1  0
  1 41  1  0
  1 42  1  0
  1 43  1  0
  4 44  1  0
  5 45  1  0
 10 46  1  0
 10 47  1  0
 15 48  1  0
 16 49  1  0
 19 50  1  0
 22 51  1  1
 23 52  1  0
 23 53  1  0
 25 54  1  0
 26 55  1  0
 27 56  1  0
 28 57  1  0
 29 58  1  0
 33 59  1  0
 34 60  1  0
 35 61  1  0
 36 62  1  0
 38 63  1  0
 38 64  1  0
 38 65  1  0
 39 66  1  0
 40 67  1  0
M  CHG  2   7  -1  22   1
M  END
>  <UniqueID>  (90) 
83

>  <SMILES>  (90) 
COc1ccc([N-]C(=O)CN(C(=O)c2ccc3c(c2)C(=O)[N@@H+](Cc2ccccc2)C3=O)c2ccccc2C)cc1

>  <Energy>  (90) 
112.81797346374184

>  <Genealogy>  (90) 
COc1ccc([N-]C(=O)CN(C(=O)c2ccc3c(c2)C(=O)[NH+](Cc2ccccc2)C3=O)c2ccccc2C)cc1 (protonated)
COc1ccc([N-]C(=O)CN(C(=O)c2ccc3c(c2)C(=O)[N@@H+](Cc2ccccc2)C3=O)c2ccccc2C)cc1 (chirality)
COc1ccc([N-]C(=O)CN(C(=O)c2ccc3c(c2)C(=O)[N@@H+](Cc2ccccc2)C3=O)c2ccccc2C)cc1 (3D coordinates assigned)
COc1ccc([N-]C(=O)CN(C(=O)c2ccc3c(c2)C(=O)[N@@H+](Cc2ccccc2)C3=O)c2ccccc2C)cc1 (nonaromatic ring conformer: 112.81797346374184 kcal/mol)

>  <smiles>  (90) 
COc1ccc(NC(=O)CN(C(=O)c2ccc3c(c2)C(=O)N(Cc2ccccc2)C3=O)c2ccccc2C)cc1

>  <score_type>  (90) 
oracle

>  <origin>  (90) 
adg

>  <m_score__min__energy>  (90) 
-10.99

>  <m_primary>  (90) 
energy

$$$$
90:0
     RDKit          3D

 38 40  0  0  0  0  0  0  0  0999 V2000
   55.1390   26.7080   45.9810 O   0  0  0  0  0  0  0  0  0  0  0  0
   56.3980   27.2970   45.9380 C   0  0  0  0  0  0  0  0  0  0  0  0
   57.4800   26.6530   46.5380 C   0  0  0  0  0  0  0  0  0  0  0  0
   58.7500   27.2280   46.5040 C   0  0  0  0  0  0  0  0  0  0  0  0
   58.9660   28.4620   45.8680 C   0  0  0  0  0  0  0  0  0  0  0  0
   60.3630   29.0460   45.8780 C   0  0  0  0  0  0  0  0  0  0  0  0
   60.6950   29.5860   47.2050 N   0  0  0  0  0  0  0  0  0  0  0  0
   61.2960   30.9300   47.1430 C   0  0  0  0  0  0  0  0  0  0  0  0
   60.5180   31.9600   47.9760 C   0  0  0  0  0  0  0  0  0  0  0  0
   59.5960   32.7600   47.0940 C   0  0  0  0  0  0  0  0  0  0  0  0
   60.1180   33.5850   46.0830 C   0  0  0  0  0  0  0  0  0  0  0  0
   59.2590   34.2990   45.2430 C   0  0  0  0  0  0  0  0  0  0  0  0
   57.8740   34.1870   45.3990 C   0  0  0  0  0  0  0  0  0  0  0  0
   57.3470   33.3580   46.3930 C   0  0  0  0  0  0  0  0  0  0  0  0
   58.2040   32.6420   47.2350 C   0  0  0  0  0  0  0  0  0  0  0  0
   57.8690   29.1260   45.2580 C   0  0  0  0  0  0  0  0  0  0  0  0
   57.9990   30.3690   44.6060 C   0  0  0  0  0  0  0  0  0  0  0  0
   56.8870   30.9770   44.0220 C   0  0  0  0  0  0  0  0  0  0  0  0
   55.6450   30.3490   44.0900 C   0  0  0  0  0  0  0  0  0  0  0  0
   55.5210   29.1520   44.7190 N   0  0  0  0  0  0  0  0  0  0  0  0
   56.5820   28.5280   45.2990 C   0  0  0  0  0  0  0  0  0  0  0  0
   57.3307   25.6861   47.0408 H   0  0  0  0  0  0  0  0  0  0  0  0
   59.5939   26.7085   46.9815 H   0  0  0  0  0  0  0  0  0  0  0  0
   61.0850   28.2577   45.6187 H   0  0  0  0  0  0  0  0  0  0  0  0
   60.4080   29.8638   45.1437 H   0  0  0  0  0  0  0  0  0  0  0  0
   59.8240   29.6160   47.7850 H   0  0  0  0  0  0  0  0  0  0  0  0
   62.3264   30.8738   47.5239 H   0  0  0  0  0  0  0  0  0  0  0  0
   61.2707   31.2600   46.0940 H   0  0  0  0  0  0  0  0  0  0  0  0
   59.9246   31.4352   48.7391 H   0  0  0  0  0  0  0  0  0  0  0  0
   61.2333   32.6432   48.4572 H   0  0  0  0  0  0  0  0  0  0  0  0
   61.2070   33.6691   45.9523 H   0  0  0  0  0  0  0  0  0  0  0  0
   59.6728   34.9496   44.4585 H   0  0  0  0  0  0  0  0  0  0  0  0
   57.1990   34.7516   44.7391 H   0  0  0  0  0  0  0  0  0  0  0  0
   56.2573   33.2685   46.5133 H   0  0  0  0  0  0  0  0  0  0  0  0
   57.7858   31.9838   48.0108 H   0  0  0  0  0  0  0  0  0  0  0  0
   58.9812   30.8618   44.5574 H   0  0  0  0  0  0  0  0  0  0  0  0
   56.9902   31.9458   43.5113 H   0  0  0  0  0  0  0  0  0  0  0  0
   54.7638   30.8235   43.6335 H   0  0  0  0  0  0  0  0  0  0  0  0
  1  2  1  0
  2  3  2  0
  3  4  1  0
  4  5  2  0
  5  6  1  0
  6  7  1  0
  7  8  1  0
  8  9  1  0
  9 10  1  0
 10 11  2  0
 11 12  1  0
 12 13  2  0
 13 14  1  0
 14 15  2  0
  5 16  1  0
 16 17  2  0
 17 18  1  0
 18 19  2  0
 19 20  1  0
 20 21  2  0
 21  2  1  0
 15 10  1  0
 21 16  1  0
  3 22  1  0
  4 23  1  0
  6 24  1  0
  6 25  1  0
  7 26  1  0
  8 27  1  0
  8 28  1  0
  9 29  1  0
  9 30  1  0
 11 31  1  0
 12 32  1  0
 13 33  1  0
 14 34  1  0
 15 35  1  0
 17 36  1  0
 18 37  1  0
 19 38  1  0
M  CHG  1   1  -1
M  END
>  <UniqueID>  (91) 
84

>  <SMILES>  (91) 
[O-]c1ccc(CNCCc2ccccc2)c2cccnc12

>  <Energy>  (91) 
44.6128846299977

>  <Genealogy>  (91) 
[O-]c1ccc(CNCCc2ccccc2)c2cccnc12 (protonated)
[O-]c1ccc(CNCCc2ccccc2)c2cccnc12 (3D coordinates assigned)
[O-]c1ccc(CNCCc2ccccc2)c2cccnc12 (optimized conformer: 44.6128846299977 kcal/mol)

>  <smiles>  (91) 
Oc1ccc(CNCCc2ccccc2)c2cccnc12

>  <score_type>  (91) 
oracle

>  <origin>  (91) 
adg

>  <m_score__min__energy>  (91) 
-11.5

>  <m_primary>  (91) 
energy

$$$$
91:0
     RDKit          3D

 42 45  0  0  0  0  0  0  0  0999 V2000
   57.4320   24.9070   47.6010 C   0  0  0  0  0  0  0  0  0  0  0  0
   58.1840   26.1790   47.2990 C   0  0  0  0  0  0  0  0  0  0  0  0
   59.4920   26.3090   47.8040 C   0  0  0  0  0  0  0  0  0  0  0  0
   60.2440   27.4560   47.5640 C   0  0  0  0  0  0  0  0  0  0  0  0
   59.7090   28.5000   46.8140 C   0  0  0  0  0  0  0  0  0  0  0  0
   58.4150   28.4060   46.2990 C   0  0  0  0  0  0  0  0  0  0  0  0
   57.9170   29.4390   45.5730 N   0  0  0  0  0  0  0  0  0  0  0  0
   56.6650   29.4020   45.0560 C   0  0  0  0  0  0  0  0  0  0  0  0
   56.2000   30.5080   44.2720 N   0  0  0  0  0  0  0  0  0  0  0  0
   56.9550   31.2660   43.3160 C   0  0  0  0  0  0  0  0  0  0  0  0
   56.6420   31.1780   42.0990 O   0  0  0  0  0  0  0  0  0  0  0  0
   58.0860   32.1710   43.7260 C   0  0  0  0  0  0  0  0  0  0  0  0
   58.2420   32.1980   45.1810 N   0  0  0  0  0  0  0  0  0  0  0  0
   58.7560   33.3520   45.8640 C   0  0  0  0  0  0  0  0  0  0  0  0
   58.9880   34.4090   45.2140 O   0  0  0  0  0  0  0  0  0  0  0  0
   59.0040   33.3290   47.3250 C   0  0  0  0  0  0  0  0  0  0  0  0
   59.8130   34.3180   47.9470 C   0  0  0  0  0  0  0  0  0  0  0  0
   60.0400   34.2930   49.3360 C   0  0  0  0  0  0  0  0  0  0  0  0
   59.4440   33.2770   50.0730 C   0  0  0  0  0  0  0  0  0  0  0  0
   58.6630   32.3320   49.4930 C   0  0  0  0  0  0  0  0  0  0  0  0
   58.4120   32.3200   48.1240 C   0  0  0  0  0  0  0  0  0  0  0  0
   58.2050   31.4570   50.4590 O   0  0  0  0  0  0  0  0  0  0  0  0
   58.7310   31.8790   51.7240 C   0  0  0  0  0  0  0  0  0  0  0  0
   59.5170   33.0440   51.4320 O   0  0  0  0  0  0  0  0  0  0  0  0
   55.8950   28.3030   45.2440 N   0  0  0  0  0  0  0  0  0  0  0  0
   56.3300   27.2350   45.9600 C   0  0  0  0  0  0  0  0  0  0  0  0
   55.5550   26.2520   46.0980 O   0  0  0  0  0  0  0  0  0  0  0  0
   57.6290   27.2460   46.5280 C   0  0  0  0  0  0  0  0  0  0  0  0
   57.3549   24.7765   48.6905 H   0  0  0  0  0  0  0  0  0  0  0  0
   56.4232   24.9655   47.1664 H   0  0  0  0  0  0  0  0  0  0  0  0
   57.9695   24.0513   47.1664 H   0  0  0  0  0  0  0  0  0  0  0  0
   59.9267   25.4913   48.3976 H   0  0  0  0  0  0  0  0  0  0  0  0
   61.2638   27.5376   47.9681 H   0  0  0  0  0  0  0  0  0  0  0  0
   60.3087   29.4029   46.6265 H   0  0  0  0  0  0  0  0  0  0  0  0
   59.0194   31.8070   43.2718 H   0  0  0  0  0  0  0  0  0  0  0  0
   57.8585   33.1905   43.3813 H   0  0  0  0  0  0  0  0  0  0  0  0
   57.7620   31.4570   45.7410 H   0  0  0  0  0  0  0  0  0  0  0  0
   60.2670   35.1121   47.3361 H   0  0  0  0  0  0  0  0  0  0  0  0
   60.6689   35.0533   49.8223 H   0  0  0  0  0  0  0  0  0  0  0  0
   57.7709   31.5475   47.6744 H   0  0  0  0  0  0  0  0  0  0  0  0
   57.9147   32.1278   52.4181 H   0  0  0  0  0  0  0  0  0  0  0  0
   59.3267   31.0902   52.2066 H   0  0  0  0  0  0  0  0  0  0  0  0
  1  2  1  0
  2  3  2  0
  3  4  1  0
  4  5  2  0
  5  6  1  0
  6  7  1  0
  7  8  1  0
  8  9  1  0
  9 10  1  0
 10 11  2  0
 10 12  1  0
 12 13  1  0
 13 14  1  0
 14 15  2  0
 14 16  1  0
 16 17  2  0
 17 18  1  0
 18 19  2  0
 19 20  1  0
 20 21  2  0
 20 22  1  0
 22 23  1  0
 23 24  1  0
  8 25  2  0
 25 26  1  0
 26 27  2  0
 26 28  1  0
 28  2  1  0
 28  6  2  0
 21 16  1  0
 24 19  1  0
  1 29  1  0
  1 30  1  0
  1 31  1  0
  3 32  1  0
  4 33  1  0
  5 34  1  0
 12 35  1  0
 12 36  1  0
 13 37  1  0
 17 38  1  0
 18 39  1  0
 21 40  1  0
 23 41  1  0
 23 42  1  0
M  CHG  2   7  -1   9  -1
M  END
>  <UniqueID>  (92) 
85

>  <SMILES>  (92) 
Cc1cccc2[n-]c([N-]C(=O)CNC(=O)c3ccc4c(c3)OCO4)nc(=O)c12

>  <Energy>  (92) 
85.70838156782112

>  <Genealogy>  (92) 
Cc1cccc2[n-]c([N-]C(=O)CNC(=O)c3ccc4c(c3)OCO4)nc(=O)c12 (protonated)
Cc1cccc2[n-]c([N-]C(=O)CNC(=O)c3ccc4c(c3)OCO4)nc(=O)c12 (3D coordinates assigned)
Cc1cccc2[n-]c([N-]C(=O)CNC(=O)c3ccc4c(c3)OCO4)nc(=O)c12 (nonaromatic ring conformer: 85.70838156782112 kcal/mol)

>  <smiles>  (92) 
Cc1cccc2[nH]c(NC(=O)CNC(=O)c3ccc4c(c3)OCO4)nc(=O)c12

>  <score_type>  (92) 
oracle

>  <origin>  (92) 
adg

>  <m_score__min__energy>  (92) 
-10.880000000000001

>  <m_primary>  (92) 
energy

$$$$
92:0
     RDKit          3D

 64 67  0  0  0  0  0  0  0  0999 V2000
   63.7660   33.2390   47.0720 C   0  0  0  0  0  0  0  0  0  0  0  0
   62.9660   32.2490   47.9120 C   0  0  0  0  0  0  0  0  0  0  0  0
   61.9070   31.6740   47.1470 O   0  0  0  0  0  0  0  0  0  0  0  0
   60.7250   32.3310   46.7560 C   0  0  0  0  0  0  0  0  0  0  0  0
   60.7170   33.6650   46.3200 C   0  0  0  0  0  0  0  0  0  0  0  0
   59.5160   34.2670   45.9390 C   0  0  0  0  0  0  0  0  0  0  0  0
   59.5340   35.4610   45.5300 O   0  0  0  0  0  0  0  0  0  0  0  0
   58.3370   33.5700   46.0020 N   0  0  0  0  0  0  0  0  0  0  0  0
   57.0850   34.1950   45.5590 C   0  0  0  0  0  0  0  0  0  0  0  0
   58.3280   32.2650   46.4110 C   0  0  0  0  0  0  0  0  0  0  0  0
   59.5150   31.6200   46.7880 C   0  0  0  0  0  0  0  0  0  0  0  0
   59.4850   30.1810   47.1480 C   0  0  0  0  0  0  0  0  0  0  0  0
   59.9540   29.7680   48.4210 C   0  0  0  0  0  0  0  0  0  0  0  0
   60.4690   30.6790   49.3560 O   0  0  0  0  0  0  0  0  0  0  0  0
   59.6820   31.4830   50.1930 C   0  0  0  0  0  0  0  0  0  0  0  0
   58.5230   30.9850   50.8150 C   0  0  0  0  0  0  0  0  0  0  0  0
   57.7780   31.8000   51.6730 C   0  0  0  0  0  0  0  0  0  0  0  0
   58.1770   33.1200   51.9040 C   0  0  0  0  0  0  0  0  0  0  0  0
   57.4600   33.9070   52.7440 F   0  0  0  0  0  0  0  0  0  0  0  0
   59.3140   33.6290   51.2680 C   0  0  0  0  0  0  0  0  0  0  0  0
   60.0610   32.8140   50.4110 C   0  0  0  0  0  0  0  0  0  0  0  0
   61.1760   33.3080   49.8190 F   0  0  0  0  0  0  0  0  0  0  0  0
   59.8780   28.4250   48.7850 C   0  0  0  0  0  0  0  0  0  0  0  0
   59.4090   27.4710   47.8860 C   0  0  0  0  0  0  0  0  0  0  0  0
   58.9810   27.8460   46.6030 C   0  0  0  0  0  0  0  0  0  0  0  0
   58.4950   26.8620   45.6750 N   0  0  0  0  0  0  0  0  0  0  0  0
   57.6420   25.7510   45.9790 C   0  0  0  0  0  0  0  0  0  0  0  0
   58.1090   24.7170   46.5280 O   0  0  0  0  0  0  0  0  0  0  0  0
   56.2610   25.8050   45.6020 N   0  0  0  0  0  0  0  0  0  0  0  0
   55.3830   24.6390   45.6550 C   0  0  0  0  0  0  0  0  0  0  0  0
   55.9530   23.5290   44.8140 C   0  0  0  0  0  0  0  0  0  0  0  0
   55.8920   23.5880   43.4120 C   0  0  0  0  0  0  0  0  0  0  0  0
   56.3720   22.5250   42.6410 C   0  0  0  0  0  0  0  0  0  0  0  0
   56.9120   21.3940   43.2630 C   0  0  0  0  0  0  0  0  0  0  0  0
   56.9730   21.3270   44.6580 C   0  0  0  0  0  0  0  0  0  0  0  0
   56.4940   22.3890   45.4320 C   0  0  0  0  0  0  0  0  0  0  0  0
   58.9630   29.2140   46.2470 C   0  0  0  0  0  0  0  0  0  0  0  0
   58.4320   29.6200   44.8880 C   0  0  0  0  0  0  0  0  0  0  0  0
   64.3174   33.9213   47.7356 H   0  0  0  0  0  0  0  0  0  0  0  0
   64.4774   32.6904   46.4372 H   0  0  0  0  0  0  0  0  0  0  0  0
   63.0803   33.8194   46.4372 H   0  0  0  0  0  0  0  0  0  0  0  0
   63.6351   31.4484   48.2602 H   0  0  0  0  0  0  0  0  0  0  0  0
   62.5311   32.7846   48.7687 H   0  0  0  0  0  0  0  0  0  0  0  0
   61.6563   34.2360   46.2784 H   0  0  0  0  0  0  0  0  0  0  0  0
   56.4922   34.4909   46.4371 H   0  0  0  0  0  0  0  0  0  0  0  0
   57.3134   35.0848   44.9540 H   0  0  0  0  0  0  0  0  0  0  0  0
   56.5111   33.4776   44.9540 H   0  0  0  0  0  0  0  0  0  0  0  0
   57.3767   31.7137   46.4448 H   0  0  0  0  0  0  0  0  0  0  0  0
   58.2013   29.9503   50.6258 H   0  0  0  0  0  0  0  0  0  0  0  0
   56.8784   31.4028   52.1660 H   0  0  0  0  0  0  0  0  0  0  0  0
   59.6210   34.6709   51.4419 H   0  0  0  0  0  0  0  0  0  0  0  0
   60.1917   28.1155   49.7929 H   0  0  0  0  0  0  0  0  0  0  0  0
   59.3735   26.4128   48.1842 H   0  0  0  0  0  0  0  0  0  0  0  0
   55.8850   26.6960   45.2100 H   0  0  0  0  0  0  0  0  0  0  0  0
   55.2928   24.2976   46.6968 H   0  0  0  0  0  0  0  0  0  0  0  0
   54.3915   24.9147   45.2664 H   0  0  0  0  0  0  0  0  0  0  0  0
   55.4650   24.4737   42.9188 H   0  0  0  0  0  0  0  0  0  0  0  0
   56.3250   22.5780   41.5433 H   0  0  0  0  0  0  0  0  0  0  0  0
   57.2882   20.5582   42.6548 H   0  0  0  0  0  0  0  0  0  0  0  0
   57.3981   20.4383   45.1474 H   0  0  0  0  0  0  0  0  0  0  0  0
   56.5410   22.3315   46.5295 H   0  0  0  0  0  0  0  0  0  0  0  0
   57.5642   30.2835   45.0167 H   0  0  0  0  0  0  0  0  0  0  0  0
   59.2186   30.1492   44.3301 H   0  0  0  0  0  0  0  0  0  0  0  0
   58.1276   28.7222   44.3301 H   0  0  0  0  0  0  0  0  0  0  0  0
  1  2  1  0
  2  3  1  0
  3  4  1  0
  4  5  2  0
  5  6  1  0
  6  7  2  0
  6  8  1  0
  8  9  1  0
  8 10  1  0
 10 11  2  0
 11 12  1  0
 12 13  1  0
 13 14  1  0
 14 15  1  0
 15 16  2  0
 16 17  1  0
 17 18  2  0
 18 19  1  0
 18 20  1  0
 20 21  2  0
 21 22  1  0
 13 23  2  0
 23 24  1  0
 24 25  2  0
 25 26  1  0
 26 27  1  0
 27 28  2  0
 27 29  1  0
 29 30  1  0
 30 31  1  0
 31 32  2  0
 32 33  1  0
 33 34  2  0
 34 35  1  0
 35 36  2  0
 25 37  1  0
 37 38  1  0
 11  4  1  0
 37 12  2  0
 21 15  1  0
 36 31  1  0
  1 39  1  0
  1 40  1  0
  1 41  1  0
  2 42  1  0
  2 43  1  0
  5 44  1  0
  9 45  1  0
  9 46  1  0
  9 47  1  0
 10 48  1  0
 16 49  1  0
 17 50  1  0
 20 51  1  0
 23 52  1  0
 24 53  1  0
 29 54  1  0
 30 55  1  0
 30 56  1  0
 32 57  1  0
 33 58  1  0
 34 59  1  0
 35 60  1  0
 36 61  1  0
 38 62  1  0
 38 63  1  0
 38 64  1  0
M  CHG  1  26  -1
M  END
>  <UniqueID>  (93) 
86

>  <SMILES>  (93) 
CCOc1cc(=O)n(C)cc1-c1c(Oc2ccc(F)cc2F)ccc([N-]C(=O)NCc2ccccc2)c1C

>  <Energy>  (93) 
83.79835824562696

>  <Genealogy>  (93) 
CCOc1cc(=O)n(C)cc1-c1c(Oc2ccc(F)cc2F)ccc([N-]C(=O)NCc2ccccc2)c1C (protonated)
CCOc1cc(=O)n(C)cc1-c1c(Oc2ccc(F)cc2F)ccc([N-]C(=O)NCc2ccccc2)c1C (3D coordinates assigned)
CCOc1cc(=O)n(C)cc1-c1c(Oc2ccc(F)cc2F)ccc([N-]C(=O)NCc2ccccc2)c1C (optimized conformer: 83.79835824562696 kcal/mol)

>  <smiles>  (93) 
CCOc1cc(=O)n(C)cc1-c1c(Oc2ccc(F)cc2F)ccc(NC(=O)NCc2ccccc2)c1C

>  <score_type>  (93) 
oracle

>  <origin>  (93) 
adg

>  <m_score__min__energy>  (93) 
-10.15

>  <m_primary>  (93) 
energy

$$$$
93:0
     RDKit          3D

 59 62  0  0  0  0  0  0  0  0999 V2000
   60.0810   30.3640   46.1170 C   0  0  0  0  0  0  0  0  0  0  0  0
   58.7190   29.9170   45.6590 C   0  0  0  0  0  0  0  0  0  0  0  0
   58.2620   28.6350   46.0110 C   0  0  0  0  0  0  0  0  0  0  0  0
   57.0020   28.1840   45.5970 C   0  0  0  0  0  0  0  0  0  0  0  0
   56.5360   26.8410   45.9910 C   0  0  0  0  0  0  0  0  0  0  0  0
   57.3880   25.9640   46.2900 O   0  0  0  0  0  0  0  0  0  0  0  0
   55.1450   26.4910   46.0220 N   0  0  0  0  0  0  0  0  0  0  0  0
   54.5740   25.2140   45.6040 C   0  0  0  0  0  0  0  0  0  0  0  0
   55.3760   24.0060   46.1380 C   0  0  0  0  0  0  0  0  0  0  0  0
   56.0640   23.1900   45.1110 N   0  0  0  0  0  0  0  0  0  0  0  0
   57.5350   23.2270   45.1790 C   0  0  0  0  0  0  0  0  0  0  0  0
   58.1290   22.0190   44.4300 C   0  0  0  0  0  0  0  0  0  0  0  0
   57.1660   21.4460   43.3740 C   0  0  0  0  0  0  0  0  0  0  0  0
   56.3520   22.5590   42.7030 C   0  0  0  0  0  0  0  0  0  0  0  0
   55.5630   23.3960   43.7350 C   0  0  0  0  0  0  0  0  0  0  0  0
   56.1800   29.0320   44.8460 C   0  0  0  0  0  0  0  0  0  0  0  0
   56.6230   30.3040   44.4840 C   0  0  0  0  0  0  0  0  0  0  0  0
   57.8900   30.7640   44.8850 C   0  0  0  0  0  0  0  0  0  0  0  0
   58.3290   32.0850   44.5170 N   0  0  0  0  0  0  0  0  0  0  0  0
   58.2590   33.4290   45.6120 S   0  0  0  0  0  0  0  0  0  0  0  0
   57.0000   33.3300   46.4280 O   0  0  0  0  0  0  0  0  0  0  0  0
   58.2350   34.7110   44.8270 O   0  0  0  0  0  0  0  0  0  0  0  0
   59.6860   33.4320   46.6560 C   0  0  0  0  0  0  0  0  0  0  0  0
   60.9270   33.8330   46.1390 C   0  0  0  0  0  0  0  0  0  0  0  0
   62.0550   33.8830   46.9620 C   0  0  0  0  0  0  0  0  0  0  0  0
   61.9600   33.5350   48.3110 C   0  0  0  0  0  0  0  0  0  0  0  0
   60.7300   33.1280   48.8440 C   0  0  0  0  0  0  0  0  0  0  0  0
   60.6080   32.7800   50.1960 C   0  0  0  0  0  0  0  0  0  0  0  0
   59.3700   32.3820   50.7020 C   0  0  0  0  0  0  0  0  0  0  0  0
   58.2650   32.3310   49.8510 C   0  0  0  0  0  0  0  0  0  0  0  0
   58.3950   32.6700   48.5410 N   0  0  0  0  0  0  0  0  0  0  0  0
   59.5860   33.0700   48.0140 C   0  0  0  0  0  0  0  0  0  0  0  0
   60.1130   30.3745   47.2165 H   0  0  0  0  0  0  0  0  0  0  0  0
   60.8429   29.6688   45.7346 H   0  0  0  0  0  0  0  0  0  0  0  0
   60.2827   31.3755   45.7346 H   0  0  0  0  0  0  0  0  0  0  0  0
   58.9015   27.9781   46.6189 H   0  0  0  0  0  0  0  0  0  0  0  0
   53.5429   25.1479   45.9814 H   0  0  0  0  0  0  0  0  0  0  0  0
   54.6047   25.1770   44.5051 H   0  0  0  0  0  0  0  0  0  0  0  0
   56.1380   24.3867   46.8340 H   0  0  0  0  0  0  0  0  0  0  0  0
   54.6381   23.3389   46.6076 H   0  0  0  0  0  0  0  0  0  0  0  0
   57.8975   24.1566   44.7160 H   0  0  0  0  0  0  0  0  0  0  0  0
   57.8483   23.1874   46.2327 H   0  0  0  0  0  0  0  0  0  0  0  0
   59.0547   22.3363   43.9276 H   0  0  0  0  0  0  0  0  0  0  0  0
   58.3203   21.2286   45.1707 H   0  0  0  0  0  0  0  0  0  0  0  0
   57.7493   20.9158   42.6067 H   0  0  0  0  0  0  0  0  0  0  0  0
   56.4687   20.7587   43.8753 H   0  0  0  0  0  0  0  0  0  0  0  0
   57.0388   23.2225   42.1570 H   0  0  0  0  0  0  0  0  0  0  0  0
   55.6291   22.0891   42.0200 H   0  0  0  0  0  0  0  0  0  0  0  0
   55.6592   24.4610   43.4773 H   0  0  0  0  0  0  0  0  0  0  0  0
   54.5118   23.0736   43.7032 H   0  0  0  0  0  0  0  0  0  0  0  0
   55.1792   28.6935   44.5396 H   0  0  0  0  0  0  0  0  0  0  0  0
   55.9745   30.9542   43.8785 H   0  0  0  0  0  0  0  0  0  0  0  0
   58.8360   32.2370   43.6180 H   0  0  0  0  0  0  0  0  0  0  0  0
   61.0126   34.1101   45.0779 H   0  0  0  0  0  0  0  0  0  0  0  0
   63.0229   34.1981   46.5451 H   0  0  0  0  0  0  0  0  0  0  0  0
   62.8507   33.5804   48.9550 H   0  0  0  0  0  0  0  0  0  0  0  0
   61.4863   32.8205   50.8570 H   0  0  0  0  0  0  0  0  0  0  0  0
   59.2658   32.1107   51.7629 H   0  0  0  0  0  0  0  0  0  0  0  0
   57.2862   32.0156   50.2414 H   0  0  0  0  0  0  0  0  0  0  0  0
  1  2  1  0
  2  3  2  0
  3  4  1  0
  4  5  1  0
  5  6  2  0
  5  7  1  0
  7  8  1  0
  8  9  1  0
  9 10  1  0
 10 11  1  0
 11 12  1  0
 12 13  1  0
 13 14  1  0
 14 15  1  0
  4 16  2  0
 16 17  1  0
 17 18  2  0
 18 19  1  0
 19 20  1  0
 20 21  2  0
 20 22  2  0
 20 23  1  0
 23 24  2  0
 24 25  1  0
 25 26  2  0
 26 27  1  0
 27 28  2  0
 28 29  1  0
 29 30  2  0
 30 31  1  0
 31 32  2  0
 18  2  1  0
 32 23  1  0
 15 10  1  0
 32 27  1  0
  1 33  1  0
  1 34  1  0
  1 35  1  0
  3 36  1  0
  8 37  1  0
  8 38  1  0
  9 39  1  0
  9 40  1  0
 11 41  1  0
 11 42  1  0
 12 43  1  0
 12 44  1  0
 13 45  1  0
 13 46  1  0
 14 47  1  0
 14 48  1  0
 15 49  1  0
 15 50  1  0
 16 51  1  0
 17 52  1  0
 19 53  1  0
 24 54  1  0
 25 55  1  0
 26 56  1  0
 28 57  1  0
 29 58  1  0
 30 59  1  0
M  CHG  1   7  -1
M  END
>  <UniqueID>  (94) 
87

>  <SMILES>  (94) 
Cc1cc(C(=O)[N-]CCN2CCCCC2)ccc1NS(=O)(=O)c1cccc2cccnc12

>  <Energy>  (94) 
80.91492031983066

>  <Genealogy>  (94) 
Cc1cc(C(=O)[N-]CCN2CCCCC2)ccc1NS(=O)(=O)c1cccc2cccnc12 (protonated)
Cc1cc(C(=O)[N-]CCN2CCCCC2)ccc1NS(=O)(=O)c1cccc2cccnc12 (3D coordinates assigned)
Cc1cc(C(=O)[N-]CCN2CCCCC2)ccc1NS(=O)(=O)c1cccc2cccnc12 (nonaromatic ring conformer: 80.91492031983066 kcal/mol)

>  <smiles>  (94) 
Cc1cc(C(=O)NCCN2CCCCC2)ccc1NS(=O)(=O)c1cccc2cccnc12

>  <score_type>  (94) 
oracle

>  <origin>  (94) 
adg

>  <m_score__min__energy>  (94) 
-11.83

>  <m_primary>  (94) 
energy

$$$$
94:0
     RDKit          3D

 71 76  0  0  1  0  0  0  0  0999 V2000
   60.9040   33.4460   50.1070 O   0  0  0  0  0  0  0  0  0  0  0  0
   62.0570   33.6850   49.6580 C   0  0  0  0  0  0  0  0  0  0  0  0
   63.1560   34.2640   50.4430 C   0  0  0  0  0  0  0  0  0  0  0  0
   64.1450   33.2490   50.8920 C   0  0  0  0  0  0  0  0  0  0  0  0
   64.8320   32.5840   49.8790 C   0  0  0  0  0  0  0  0  0  0  0  0
   65.7800   31.6180   50.1330 C   0  0  0  0  0  0  0  0  0  0  0  0
   66.0270   31.3300   51.4630 C   0  0  0  0  0  0  0  0  0  0  0  0
   67.0140   30.3190   51.7090 N   0  0  0  0  0  0  0  0  0  0  0  0
   66.6040   29.0850   51.6570 C   0  0  0  0  0  0  0  0  0  0  0  0
   65.5410   28.7610   52.4270 N   0  0  0  0  0  0  0  0  0  0  0  0
   65.0940   27.4820   52.3900 C   0  0  0  0  0  0  0  0  0  0  0  0
   65.7070   26.5690   51.5990 N   0  0  0  0  0  0  0  0  0  0  0  0
   66.7600   26.8910   50.8380 C   0  0  0  0  0  0  0  0  0  0  0  0
   67.5180   26.1570   49.9840 N   0  0  0  0  0  0  0  0  0  0  0  0
   68.4560   27.0080   49.4830 C   0  0  0  0  0  0  0  0  0  0  0  0
   68.2890   28.2320   50.0060 N   0  0  0  0  0  0  0  0  0  0  0  0
   67.2440   28.1760   50.8460 C   0  0  0  0  0  0  0  0  0  0  0  0
   65.3580   31.9770   52.4850 C   0  0  0  0  0  0  0  0  0  0  0  0
   64.3980   32.9560   52.2130 C   0  0  0  0  0  0  0  0  0  0  0  0
   62.2880   33.3630   48.2960 N   0  0  0  0  0  0  0  0  0  0  0  0
   61.2810   32.8040   47.4470 C   0  0  0  0  0  0  0  0  0  0  0  0
   61.3210   31.4430   47.2030 C   0  0  0  0  0  0  0  0  0  0  0  0
   60.3730   30.8590   46.3800 C   0  0  0  0  0  0  0  0  0  0  0  0
   59.4090   31.6740   45.8240 C   0  0  0  0  0  0  0  0  0  0  0  0
   58.3270   31.1530   44.9330 C   0  0  0  0  0  0  0  0  0  0  0  0
   57.9390   29.8270   45.4080 C   0  0  0  0  0  0  0  0  0  0  0  0
   56.7600   29.6730   45.8370 O   0  0  0  0  0  0  0  0  0  0  0  0
   58.7730   28.6780   45.4330 N   0  0  0  0  0  0  0  0  0  0  0  0
   58.1610   27.4770   45.9400 C   0  0  0  0  0  0  0  0  0  0  0  0
   57.0450   26.9980   45.2680 C   0  0  0  0  0  0  0  0  0  0  0  0
   56.3900   25.8590   45.6740 C   0  0  0  0  0  0  0  0  0  0  0  0
   56.8880   25.2040   46.7860 C   0  0  0  0  0  0  0  0  0  0  0  0
   58.0070   25.6920   47.4550 C   0  0  0  0  0  0  0  0  0  0  0  0
   58.6740   26.8260   47.0660 C   0  0  0  0  0  0  0  0  0  0  0  0
   59.8500   27.3750   47.6900 C   0  0  0  0  0  0  0  0  0  0  0  0
   60.9660   26.8710   47.3280 O   0  0  0  0  0  0  0  0  0  0  0  0
   59.9270   28.4240   48.6750 C   0  0  0  0  0  0  0  0  0  0  0  0
   60.9740   28.6320   49.5400 C   0  0  0  0  0  0  0  0  0  0  0  0
   60.9920   29.6960   50.4500 C   0  0  0  0  0  0  0  0  0  0  0  0
   59.9400   30.5690   50.4980 C   0  0  0  0  0  0  0  0  0  0  0  0
   58.8860   30.3900   49.6550 C   0  0  0  0  0  0  0  0  0  0  0  0
   58.8810   29.3440   48.7680 C   0  0  0  0  0  0  0  0  0  0  0  0
   59.3750   33.0480   46.0750 C   0  0  0  0  0  0  0  0  0  0  0  0
   60.3210   33.6280   46.8960 C   0  0  0  0  0  0  0  0  0  0  0  0
   63.6753   35.0094   49.8228 H   0  0  0  0  0  0  0  0  0  0  0  0
   62.7152   34.7157   51.3439 H   0  0  0  0  0  0  0  0  0  0  0  0
   64.6081   32.8411   48.8332 H   0  0  0  0  0  0  0  0  0  0  0  0
   66.3130   31.1024   49.3205 H   0  0  0  0  0  0  0  0  0  0  0  0
   65.0590   29.4430   53.0370 H   0  0  0  0  0  0  0  0  0  0  0  0
   64.2311   27.1846   53.0040 H   0  0  0  0  0  0  0  0  0  0  0  0
   67.4020   25.1550   49.7620 H   0  0  0  0  0  0  0  0  0  0  0  0
   69.2351   26.7324   48.7570 H   0  0  0  0  0  0  0  0  0  0  0  0
   65.5848   31.7172   53.5295 H   0  0  0  0  0  0  0  0  0  0  0  0
   63.8646   33.4730   53.0243 H   0  0  0  0  0  0  0  0  0  0  0  0
   63.2250   33.5180   47.8220 H   0  0  0  0  0  0  0  0  0  0  0  0
   62.1060   30.8247   47.6628 H   0  0  0  0  0  0  0  0  0  0  0  0
   60.3881   29.7782   46.1758 H   0  0  0  0  0  0  0  0  0  0  0  0
   57.4597   31.8287   44.9673 H   0  0  0  0  0  0  0  0  0  0  0  0
   58.6872   31.0930   43.8954 H   0  0  0  0  0  0  0  0  0  0  0  0
   59.7370   28.7420   45.1040 H   0  0  0  0  0  0  0  0  0  0  0  0
   56.6748   27.5437   44.3876 H   0  0  0  0  0  0  0  0  0  0  0  0
   55.5064   25.4842   45.1366 H   0  0  0  0  0  0  0  0  0  0  0  0
   56.3950   24.2886   47.1451 H   0  0  0  0  0  0  0  0  0  0  0  0
   58.3730   25.1435   48.3355 H   0  0  0  0  0  0  0  0  0  0  0  0
   61.8276   27.9386   49.5168 H   0  0  0  0  0  0  0  0  0  0  0  0
   61.8503   29.8296   51.1249 H   0  0  0  0  0  0  0  0  0  0  0  0
   59.9455   31.4071   51.2104 H   0  0  0  0  0  0  0  0  0  0  0  0
   58.0354   31.0868   49.6854 H   0  0  0  0  0  0  0  0  0  0  0  0
   58.0148   29.2247   48.1005 H   0  0  0  0  0  0  0  0  0  0  0  0
   58.5917   33.6697   45.6168 H   0  0  0  0  0  0  0  0  0  0  0  0
   60.3100   34.7082   47.1036 H   0  0  0  0  0  0  0  0  0  0  0  0
  1  2  2  0
  2  3  1  0
  3  4  1  0
  4  5  2  0
  5  6  1  0
  6  7  2  0
  7  8  1  0
  8  9  2  0
  9 10  1  0
 10 11  1  0
 11 12  2  0
 12 13  1  0
 13 14  1  0
 14 15  1  0
 15 16  2  0
 16 17  1  0
  7 18  1  0
 18 19  2  0
  2 20  1  0
 20 21  1  0
 21 22  2  0
 22 23  1  0
 23 24  2  0
 24 25  1  0
 25 26  1  0
 26 27  2  0
 26 28  1  0
 28 29  1  0
 29 30  2  0
 30 31  1  0
 31 32  2  0
 32 33  1  0
 33 34  2  0
 34 35  1  0
 35 36  2  0
 35 37  1  0
 37 38  2  0
 38 39  1  0
 39 40  2  0
 40 41  1  0
 41 42  2  0
 24 43  1  0
 43 44  2  0
 19  4  1  0
 44 21  1  0
 17  9  1  0
 34 29  1  0
 42 37  1  0
 17 13  2  0
  3 45  1  0
  3 46  1  0
  5 47  1  0
  6 48  1  0
 10 49  1  0
 11 50  1  0
 14 51  1  0
 15 52  1  0
 18 53  1  0
 19 54  1  0
 20 55  1  0
 22 56  1  0
 23 57  1  0
 25 58  1  0
 25 59  1  0
 28 60  1  0
 30 61  1  0
 31 62  1  0
 32 63  1  0
 33 64  1  0
 38 65  1  0
 39 66  1  0
 40 67  1  0
 41 68  1  0
 42 69  1  0
 43 70  1  0
 44 71  1  0
M  END
>  <smiles>  (95) 
O=C(Cc1ccc(N=c2[nH]cnc3[nH]cnc23)cc1)Nc1ccc(CC(=O)Nc2ccccc2C(=O)c2ccccc2)cc1

>  <score_type>  (95) 
oracle

>  <origin>  (95) 
adg

>  <m_score__min__energy>  (95) 
-10.94

>  <m_primary>  (95) 
energy

$$$$
