0:0
     RDKit          3D

 49 52  0  0  0  0  0  0  0  0999 V2000
   57.4230   28.0170   43.1040 C   0  0  0  0  0  0  0  0  0  0  0  0
   57.6510   28.5440   44.3280 C   0  0  0  0  0  0  0  0  0  0  0  0
   57.9150   29.9300   44.4520 C   0  0  0  0  0  0  0  0  0  0  0  0
   57.8830   30.6730   43.4310 O   0  0  0  0  0  0  0  0  0  0  0  0
   58.1730   30.4690   45.7340 C   0  0  0  0  0  0  0  0  0  0  0  0
   58.4640   31.7650   45.9780 C   0  0  0  0  0  0  0  0  0  0  0  0
   59.6900   32.2760   46.6210 C   0  0  0  0  0  0  0  0  0  0  0  0
   60.5310   31.3910   47.3090 C   0  0  0  0  0  0  0  0  0  0  0  0
   61.7180   31.8540   47.8860 C   0  0  0  0  0  0  0  0  0  0  0  0
   62.0900   33.1990   47.7670 C   0  0  0  0  0  0  0  0  0  0  0  0
   63.2850   33.6120   48.3800 O   0  0  0  0  0  0  0  0  0  0  0  0
   64.3970   32.7630   48.6720 C   0  0  0  0  0  0  0  0  0  0  0  0
   65.0850   33.1980   49.9380 C   0  0  0  0  0  0  0  0  0  0  0  0
   66.4580   32.9550   50.1140 C   0  0  0  0  0  0  0  0  0  0  0  0
   67.1010   33.3630   51.2860 C   0  0  0  0  0  0  0  0  0  0  0  0
   66.3820   34.0220   52.2870 C   0  0  0  0  0  0  0  0  0  0  0  0
   65.0190   34.2780   52.1150 C   0  0  0  0  0  0  0  0  0  0  0  0
   64.3720   33.8730   50.9440 C   0  0  0  0  0  0  0  0  0  0  0  0
   61.2650   34.0780   47.0410 C   0  0  0  0  0  0  0  0  0  0  0  0
   60.0770   33.6160   46.4660 C   0  0  0  0  0  0  0  0  0  0  0  0
   58.0970   29.6420   46.8060 N   0  0  0  0  0  0  0  0  0  0  0  0
   57.8290   28.3210   46.6930 C   0  0  0  0  0  0  0  0  0  0  0  0
   57.7830   27.6160   47.7380 O   0  0  0  0  0  0  0  0  0  0  0  0
   57.6190   27.7580   45.4620 N   0  0  0  0  0  0  0  0  0  0  0  0
   57.3560   26.3400   45.3970 C   0  0  0  0  0  0  0  0  0  0  0  0
   58.3910   25.4500   45.0730 C   0  0  0  0  0  0  0  0  0  0  0  0
   58.1410   24.0770   45.0100 C   0  0  0  0  0  0  0  0  0  0  0  0
   56.8580   23.5860   45.2680 C   0  0  0  0  0  0  0  0  0  0  0  0
   55.8220   24.4680   45.5880 C   0  0  0  0  0  0  0  0  0  0  0  0
   56.0670   25.8440   45.6530 C   0  0  0  0  0  0  0  0  0  0  0  0
   55.0310   26.7150   45.9730 O   0  0  0  0  0  0  0  0  0  0  0  0
   57.2171   26.9417   42.9978 H   0  0  0  0  0  0  0  0  0  0  0  0
   57.4434   28.6636   42.2143 H   0  0  0  0  0  0  0  0  0  0  0  0
   57.7165   32.5101   45.6682 H   0  0  0  0  0  0  0  0  0  0  0  0
   60.2568   30.3292   47.3955 H   0  0  0  0  0  0  0  0  0  0  0  0
   62.3647   31.1560   48.4378 H   0  0  0  0  0  0  0  0  0  0  0  0
   64.0396   31.7297   48.7928 H   0  0  0  0  0  0  0  0  0  0  0  0
   65.1155   32.8256   47.8414 H   0  0  0  0  0  0  0  0  0  0  0  0
   67.0289   32.4417   49.3262 H   0  0  0  0  0  0  0  0  0  0  0  0
   68.1746   33.1651   51.4207 H   0  0  0  0  0  0  0  0  0  0  0  0
   66.8890   34.3392   53.2102 H   0  0  0  0  0  0  0  0  0  0  0  0
   64.4544   34.7990   52.9023 H   0  0  0  0  0  0  0  0  0  0  0  0
   63.3007   34.0833   50.8092 H   0  0  0  0  0  0  0  0  0  0  0  0
   61.5558   35.1326   46.9254 H   0  0  0  0  0  0  0  0  0  0  0  0
   59.4431   34.3059   45.8897 H   0  0  0  0  0  0  0  0  0  0  0  0
   59.4012   25.8340   44.8682 H   0  0  0  0  0  0  0  0  0  0  0  0
   58.9548   23.3815   44.7570 H   0  0  0  0  0  0  0  0  0  0  0  0
   56.6635   22.5044   45.2192 H   0  0  0  0  0  0  0  0  0  0  0  0
   54.8126   24.0798   45.7890 H   0  0  0  0  0  0  0  0  0  0  0  0
  1  2  2  0
  2  3  1  0
  3  4  2  0
  3  5  1  0
  5  6  2  3
  6  7  1  0
  7  8  2  0
  8  9  1  0
  9 10  2  0
 10 11  1  0
 11 12  1  0
 12 13  1  0
 13 14  2  0
 14 15  1  0
 15 16  2  0
 16 17  1  0
 17 18  2  0
 10 19  1  0
 19 20  2  0
  5 21  1  0
 21 22  1  0
 22 23  2  0
 22 24  1  0
 24 25  1  0
 25 26  2  0
 26 27  1  0
 27 28  2  0
 28 29  1  0
 29 30  2  0
 30 31  1  0
 24  2  1  0
 30 25  1  0
 20  7  1  0
 18 13  1  0
  1 32  1  0
  1 33  1  0
  6 34  1  0
  8 35  1  0
  9 36  1  0
 12 37  1  0
 12 38  1  0
 14 39  1  0
 15 40  1  0
 16 41  1  0
 17 42  1  0
 18 43  1  0
 19 44  1  0
 20 45  1  0
 26 46  1  0
 27 47  1  0
 28 48  1  0
 29 49  1  0
M  CHG  2  21  -1  31  -1
M  END
>  <UniqueID>  (1) 
1

>  <SMILES>  (1) 
C=c1c(=O)c(=Cc2ccc(OCc3ccccc3)cc2)[n-]c(=O)n1-c1ccccc1[O-]

>  <Energy>  (1) 
82.4203362175592

>  <Genealogy>  (1) 
C=c1c(=O)c(=Cc2ccc(OCc3ccccc3)cc2)[n-]c(=O)n1-c1ccccc1[O-] (protonated)
C=c1c(=O)c(=Cc2ccc(OCc3ccccc3)cc2)[n-]c(=O)n1-c1ccccc1[O-] (3D coordinates assigned)
C=c1c(=O)c(=Cc2ccc(OCc3ccccc3)cc2)[n-]c(=O)n1-c1ccccc1[O-] (optimized conformer: 82.4203362175592 kcal/mol)

>  <smiles>  (1) 
C=c1c(=O)c(=Cc2ccc(OCc3ccccc3)cc2)[nH]c(=O)n1-c1ccccc1O

>  <score_type>  (1) 
oracle

>  <origin>  (1) 
adg

>  <m_score__min__energy>  (1) 
-13.550000000000001

>  <m_primary>  (1) 
energy

$$$$
1:0
     RDKit          3D

 55 57  0  0  0  0  0  0  0  0999 V2000
   57.0160   33.5130   46.0230 C   0  0  0  0  0  0  0  0  0  0  0  0
   57.8550   33.1840   45.0230 C   0  0  0  0  0  0  0  0  0  0  0  0
   59.1110   33.9870   44.8010 C   0  0  0  0  0  0  0  0  0  0  0  0
   57.5650   32.0000   44.1390 C   0  0  0  0  0  0  0  0  0  0  0  0
   56.5540   31.1970   44.7400 O   0  0  0  0  0  0  0  0  0  0  0  0
   56.0030   30.0850   44.1000 C   0  0  0  0  0  0  0  0  0  0  0  0
   55.9350   30.0430   42.8410 O   0  0  0  0  0  0  0  0  0  0  0  0
   55.5200   28.9930   44.8890 N   0  0  0  0  0  0  0  0  0  0  0  0
   56.3710   27.9190   45.3930 C   0  0  0  0  0  0  0  0  0  0  0  0
   57.8000   28.3880   45.4580 C   0  0  0  0  0  0  0  0  0  0  0  0
   58.7590   27.8700   44.5730 C   0  0  0  0  0  0  0  0  0  0  0  0
   60.0690   28.3530   44.5950 C   0  0  0  0  0  0  0  0  0  0  0  0
   60.4280   29.3770   45.4770 C   0  0  0  0  0  0  0  0  0  0  0  0
   59.4770   29.9240   46.3550 C   0  0  0  0  0  0  0  0  0  0  0  0
   59.8290   31.0590   47.2450 C   0  0  0  0  0  0  0  0  0  0  0  0
   58.8770   31.6100   48.1180 C   0  0  0  0  0  0  0  0  0  0  0  0
   59.2190   32.6790   48.9500 C   0  0  0  0  0  0  0  0  0  0  0  0
   60.5140   33.2000   48.9290 C   0  0  0  0  0  0  0  0  0  0  0  0
   61.4820   32.6500   48.0780 C   0  0  0  0  0  0  0  0  0  0  0  0
   63.1270   33.2980   48.0560 S   0  0  0  0  0  0  0  0  0  0  0  0
   63.5770   33.4430   46.6290 O   0  0  0  0  0  0  0  0  0  0  0  0
   63.1230   34.6630   48.6850 O   0  0  0  0  0  0  0  0  0  0  0  0
   64.2610   32.2800   48.9110 N   0  0  0  0  0  0  0  0  0  0  0  0
   63.6120   31.4450   49.9240 C   0  0  0  0  0  0  0  0  0  0  0  0
   64.6740   31.1230   50.9640 C   0  0  0  0  0  0  0  0  0  0  0  0
   65.7540   32.1810   50.7790 C   0  0  0  0  0  0  0  0  0  0  0  0
   65.2770   33.0530   49.6250 C   0  0  0  0  0  0  0  0  0  0  0  0
   61.1330   31.5890   47.2320 C   0  0  0  0  0  0  0  0  0  0  0  0
   58.1690   29.4070   46.3530 C   0  0  0  0  0  0  0  0  0  0  0  0
   56.0989   32.9280   46.1864 H   0  0  0  0  0  0  0  0  0  0  0  0
   57.2475   34.3668   46.6767 H   0  0  0  0  0  0  0  0  0  0  0  0
   59.5453   34.2646   45.7728 H   0  0  0  0  0  0  0  0  0  0  0  0
   59.8360   33.3845   44.2341 H   0  0  0  0  0  0  0  0  0  0  0  0
   58.8684   34.8979   44.2341 H   0  0  0  0  0  0  0  0  0  0  0  0
   57.2181   32.3520   43.1563 H   0  0  0  0  0  0  0  0  0  0  0  0
   58.4805   31.4036   44.0118 H   0  0  0  0  0  0  0  0  0  0  0  0
   56.0356   27.6294   46.3998 H   0  0  0  0  0  0  0  0  0  0  0  0
   56.3032   27.0543   44.7165 H   0  0  0  0  0  0  0  0  0  0  0  0
   58.4775   27.0811   43.8600 H   0  0  0  0  0  0  0  0  0  0  0  0
   60.8216   27.9262   43.9157 H   0  0  0  0  0  0  0  0  0  0  0  0
   61.4605   29.7564   45.4835 H   0  0  0  0  0  0  0  0  0  0  0  0
   57.8574   31.1981   48.1469 H   0  0  0  0  0  0  0  0  0  0  0  0
   58.4651   33.1117   49.6241 H   0  0  0  0  0  0  0  0  0  0  0  0
   60.7754   34.0452   49.5827 H   0  0  0  0  0  0  0  0  0  0  0  0
   64.7340   31.6580   48.2120 H   0  0  0  0  0  0  0  0  0  0  0  0
   62.7780   31.9911   50.3891 H   0  0  0  0  0  0  0  0  0  0  0  0
   63.2005   30.5272   49.4786 H   0  0  0  0  0  0  0  0  0  0  0  0
   64.2499   31.1789   51.9774 H   0  0  0  0  0  0  0  0  0  0  0  0
   65.0725   30.1052   50.8406 H   0  0  0  0  0  0  0  0  0  0  0  0
   65.8647   32.7813   51.6941 H   0  0  0  0  0  0  0  0  0  0  0  0
   66.7354   31.7299   50.5707 H   0  0  0  0  0  0  0  0  0  0  0  0
   64.8425   33.9875   50.0095 H   0  0  0  0  0  0  0  0  0  0  0  0
   66.1107   33.3230   48.9601 H   0  0  0  0  0  0  0  0  0  0  0  0
   61.8858   31.1658   46.5506 H   0  0  0  0  0  0  0  0  0  0  0  0
   57.4262   29.8048   47.0601 H   0  0  0  0  0  0  0  0  0  0  0  0
  1  2  2  0
  2  3  1  0
  2  4  1  0
  4  5  1  0
  5  6  1  0
  6  7  2  0
  6  8  1  0
  8  9  1  0
  9 10  1  0
 10 11  2  0
 11 12  1  0
 12 13  2  0
 13 14  1  0
 14 15  1  0
 15 16  2  0
 16 17  1  0
 17 18  2  0
 18 19  1  0
 19 20  1  0
 20 21  2  0
 20 22  2  0
 20 23  1  0
 23 24  1  0
 24 25  1  0
 25 26  1  0
 26 27  1  0
 19 28  2  0
 14 29  2  0
 29 10  1  0
 28 15  1  0
 27 23  1  0
  1 30  1  0
  1 31  1  0
  3 32  1  0
  3 33  1  0
  3 34  1  0
  4 35  1  0
  4 36  1  0
  9 37  1  0
  9 38  1  0
 11 39  1  0
 12 40  1  0
 13 41  1  0
 16 42  1  0
 17 43  1  0
 18 44  1  0
 23 45  1  0
 24 46  1  0
 24 47  1  0
 25 48  1  0
 25 49  1  0
 26 50  1  0
 26 51  1  0
 27 52  1  0
 27 53  1  0
 28 54  1  0
 29 55  1  0
M  CHG  2   8  -1  23   1
M  END
>  <UniqueID>  (2) 
2

>  <SMILES>  (2) 
C=C(C)COC(=O)[N-]Cc1cccc(-c2cccc(S(=O)(=O)[NH+]3CCCC3)c2)c1

>  <Energy>  (2) 
53.56198396765087

>  <Genealogy>  (2) 
C=C(C)COC(=O)[N-]Cc1cccc(-c2cccc(S(=O)(=O)[NH+]3CCCC3)c2)c1 (protonated)
C=C(C)COC(=O)[N-]Cc1cccc(-c2cccc(S(=O)(=O)[NH+]3CCCC3)c2)c1 (3D coordinates assigned)
C=C(C)COC(=O)[N-]Cc1cccc(-c2cccc(S(=O)(=O)[NH+]3CCCC3)c2)c1 (nonaromatic ring conformer: 53.56198396765087 kcal/mol)

>  <smiles>  (2) 
C=C(C)COC(=O)NCc1cccc(-c2cccc(S(=O)(=O)N3CCCC3)c2)c1

>  <score_type>  (2) 
oracle

>  <origin>  (2) 
adg

>  <m_score__min__energy>  (2) 
-10.470000000000001

>  <m_primary>  (2) 
energy

$$$$
2:0
     RDKit          3D

 56 60  0  0  0  0  0  0  0  0999 V2000
   66.7750   32.2960   50.4810 C   0  0  0  0  0  0  0  0  0  0  0  0
   65.9040   33.1440   49.7380 O   0  0  0  0  0  0  0  0  0  0  0  0
   64.6450   32.7570   49.2570 C   0  0  0  0  0  0  0  0  0  0  0  0
   64.1030   33.4570   48.1720 C   0  0  0  0  0  0  0  0  0  0  0  0
   62.8520   33.1110   47.6560 C   0  0  0  0  0  0  0  0  0  0  0  0
   62.1190   32.0550   48.2200 C   0  0  0  0  0  0  0  0  0  0  0  0
   60.7740   31.6780   47.6550 C   0  0  0  0  0  0  0  0  0  0  0  0
   59.9190   31.0870   48.7040 N   0  0  0  0  0  0  0  0  0  0  0  0
   59.3210   29.8200   48.5880 C   0  0  0  0  0  0  0  0  0  0  0  0
   59.4710   28.9560   47.3610 C   0  0  0  0  0  0  0  0  0  0  0  0
   58.2260   29.0030   46.5300 C   0  0  0  0  0  0  0  0  0  0  0  0
   57.6140   27.9340   46.2640 O   0  0  0  0  0  0  0  0  0  0  0  0
   57.7450   30.2650   46.0470 N   0  0  0  0  0  0  0  0  0  0  0  0
   57.3750   30.5840   44.6680 C   0  0  1  0  0  0  0  0  0  0  0  0
   56.3020   29.6480   44.1690 C   0  0  0  0  0  0  0  0  0  0  0  0
   55.3440   29.3570   44.8670 O   0  0  0  0  0  0  0  0  0  0  0  0
   56.9860   32.0680   44.5250 C   0  0  0  0  0  0  0  0  0  0  0  0
   57.8880   32.9590   45.3420 C   0  0  0  0  0  0  0  0  0  0  0  0
   58.9120   33.6910   44.7160 C   0  0  0  0  0  0  0  0  0  0  0  0
   59.7310   34.5400   45.4670 C   0  0  0  0  0  0  0  0  0  0  0  0
   59.5280   34.6700   46.8440 C   0  0  0  0  0  0  0  0  0  0  0  0
   58.5060   33.9540   47.4720 C   0  0  0  0  0  0  0  0  0  0  0  0
   57.6850   33.1030   46.7250 C   0  0  0  0  0  0  0  0  0  0  0  0
   58.4590   29.3620   49.5680 N   0  0  0  0  0  0  0  0  0  0  0  0
   58.3040   30.1000   50.6930 C   0  0  0  0  0  0  0  0  0  0  0  0
   57.3140   30.0320   51.6140 N   0  0  0  0  0  0  0  0  0  0  0  0
   57.3420   31.1790   52.3130 N   0  0  0  0  0  0  0  0  0  0  0  0
   58.3480   31.9280   51.8050 C   0  0  0  0  0  0  0  0  0  0  0  0
   58.5590   33.2630   51.9420 N   0  0  0  0  0  0  0  0  0  0  0  0
   59.4180   33.8700   51.0480 C   0  0  0  0  0  0  0  0  0  0  0  0
   59.9370   33.1650   49.9780 N   0  0  0  0  0  0  0  0  0  0  0  0
   59.6630   31.8290   49.8370 C   0  0  0  0  0  0  0  0  0  0  0  0
   58.9350   31.2540   50.8220 C   0  0  0  0  0  0  0  0  0  0  0  0
   62.6600   31.3490   49.3070 C   0  0  0  0  0  0  0  0  0  0  0  0
   63.9130   31.6950   49.8230 C   0  0  0  0  0  0  0  0  0  0  0  0
   66.6116   32.4551   51.5571 H   0  0  0  0  0  0  0  0  0  0  0  0
   66.5664   31.2456   50.2298 H   0  0  0  0  0  0  0  0  0  0  0  0
   67.8195   32.5326   50.2298 H   0  0  0  0  0  0  0  0  0  0  0  0
   64.6676   34.2869   47.7220 H   0  0  0  0  0  0  0  0  0  0  0  0
   62.4389   33.6691   46.8029 H   0  0  0  0  0  0  0  0  0  0  0  0
   60.2848   32.5779   47.2539 H   0  0  0  0  0  0  0  0  0  0  0  0
   60.9194   30.9367   46.8554 H   0  0  0  0  0  0  0  0  0  0  0  0
   60.3191   29.3208   46.7630 H   0  0  0  0  0  0  0  0  0  0  0  0
   59.6483   27.9174   47.6772 H   0  0  0  0  0  0  0  0  0  0  0  0
   58.2545   30.4296   44.0257 H   0  0  0  0  0  0  0  0  0  0  0  0
   56.3845   29.2205   43.1588 H   0  0  0  0  0  0  0  0  0  0  0  0
   57.0625   32.3568   43.4663 H   0  0  0  0  0  0  0  0  0  0  0  0
   55.9563   32.1910   44.8920 H   0  0  0  0  0  0  0  0  0  0  0  0
   59.0696   33.5956   43.6315 H   0  0  0  0  0  0  0  0  0  0  0  0
   60.5353   35.1058   44.9740 H   0  0  0  0  0  0  0  0  0  0  0  0
   60.1739   35.3370   47.4338 H   0  0  0  0  0  0  0  0  0  0  0  0
   58.3468   34.0596   48.5553 H   0  0  0  0  0  0  0  0  0  0  0  0
   56.8778   32.5447   47.2217 H   0  0  0  0  0  0  0  0  0  0  0  0
   59.6925   34.9259   51.1885 H   0  0  0  0  0  0  0  0  0  0  0  0
   62.0946   30.5187   49.7553 H   0  0  0  0  0  0  0  0  0  0  0  0
   64.3285   31.1356   50.6742 H   0  0  0  0  0  0  0  0  0  0  0  0
  1  2  1  0
  2  3  1  0
  3  4  2  0
  4  5  1  0
  5  6  2  0
  6  7  1  0
  7  8  1  0
  8  9  1  0
  9 10  1  0
 10 11  1  0
 11 12  2  0
 11 13  1  0
 13 14  1  0
 14 15  1  0
 15 16  2  0
 14 17  1  0
 17 18  1  0
 18 19  2  0
 19 20  1  0
 20 21  2  0
 21 22  1  0
 22 23  2  0
  9 24  2  0
 24 25  1  0
 25 26  2  0
 26 27  1  0
 27 28  2  0
 28 29  1  0
 29 30  2  0
 30 31  1  0
 31 32  1  0
 32 33  2  0
  6 34  1  0
 34 35  2  0
 35  3  1  0
 32  8  1  0
 23 18  1  0
 33 25  1  0
 33 28  1  0
  1 36  1  0
  1 37  1  0
  1 38  1  0
  4 39  1  0
  5 40  1  0
  7 41  1  0
  7 42  1  0
 10 43  1  0
 10 44  1  0
 14 45  1  6
 15 46  1  0
 17 47  1  0
 17 48  1  0
 19 49  1  0
 20 50  1  0
 21 51  1  0
 22 52  1  0
 23 53  1  0
 30 54  1  0
 34 55  1  0
 35 56  1  0
M  CHG  2  13  -1  31  -1
M  END
>  <UniqueID>  (3) 
3

>  <SMILES>  (3) 
COc1ccc(Cn2c(CC(=O)[N-][C@@H](C=O)Cc3ccccc3)nc3nnc4nc[n-]c2c43)cc1

>  <Energy>  (3) 
129.309864598242

>  <Genealogy>  (3) 
COc1ccc(Cn2c(CC(=O)[N-]C(C=O)Cc3ccccc3)nc3nnc4nc[n-]c2c43)cc1 (protonated)
COc1ccc(Cn2c(CC(=O)[N-][C@@H](C=O)Cc3ccccc3)nc3nnc4nc[n-]c2c43)cc1 (chirality)
COc1ccc(Cn2c(CC(=O)[N-][C@@H](C=O)Cc3ccccc3)nc3nnc4nc[n-]c2c43)cc1 (3D coordinates assigned)
COc1ccc(Cn2c(CC(=O)[N-][C@@H](C=O)Cc3ccccc3)nc3nnc4nc[n-]c2c43)cc1 (optimized conformer: 129.309864598242 kcal/mol)

>  <smiles>  (3) 
COc1ccc(Cn2c(CC(=O)NC(C=O)Cc3ccccc3)nc3nnc4nc[nH]c2c43)cc1

>  <score_type>  (3) 
oracle

>  <origin>  (3) 
adg

>  <m_score__min__energy>  (3) 
-12.31

>  <m_primary>  (3) 
energy

$$$$
3:0
     RDKit          3D

 55 58  0  0  1  0  0  0  0  0999 V2000
   60.2820   33.5860   51.7720 C   0  0  0  0  0  0  0  0  0  0  0  0
   60.3130   33.6810   50.3780 O   0  0  0  0  0  0  0  0  0  0  0  0
   61.4260   33.3520   49.6560 C   0  0  0  0  0  0  0  0  0  0  0  0
   62.2580   34.2210   49.0070 C   0  0  0  0  0  0  0  0  0  0  0  0
   63.3850   33.7990   48.2850 C   0  0  0  0  0  0  0  0  0  0  0  0
   63.7100   32.4560   48.1960 C   0  0  0  0  0  0  0  0  0  0  0  0
   62.8770   31.5770   48.8450 C   0  0  0  0  0  0  0  0  0  0  0  0
   61.7560   31.9920   49.5630 C   0  0  0  0  0  0  0  0  0  0  0  0
   60.9270   30.9170   50.1540 C   0  0  0  0  0  0  0  0  0  0  0  0
   60.8230   29.8870   49.0990 N   0  0  0  0  0  0  0  0  0  0  0  0
   60.0720   30.2120   48.0670 C   0  0  0  0  0  0  0  0  0  0  0  0
   59.5490   31.4480   47.9620 N   0  0  0  0  0  0  0  0  0  0  0  0
   58.7350   31.8390   46.9440 C   0  0  0  0  0  0  0  0  0  0  0  0
   58.2660   33.1730   46.9430 N   0  0  0  0  0  0  0  0  0  0  0  0
   57.0790   33.3780   46.0950 C   0  0  0  0  0  0  0  0  0  0  0  0
   57.6230   34.1350   44.8960 C   0  0  0  0  0  0  0  0  0  0  0  0
   59.1060   33.8900   44.7630 C   0  0  0  0  0  0  0  0  0  0  0  0
   59.9360   34.7350   45.5560 N   0  0  0  0  0  0  0  0  0  0  0  0
   59.3560   35.2780   46.7360 C   0  0  0  0  0  0  0  0  0  0  0  0
   58.9130   34.1950   47.6960 C   0  0  0  0  0  0  0  0  0  0  0  0
   58.4630   30.9240   46.0180 N   0  0  0  0  0  0  0  0  0  0  0  0
   58.9540   29.6660   46.0610 C   0  0  0  0  0  0  0  0  0  0  0  0
   58.6600   28.6890   45.0660 N   0  0  0  0  0  0  0  0  0  0  0  0
   59.3610   27.5570   44.5040 C   0  0  0  0  0  0  0  0  0  0  0  0
   58.4000   27.4770   43.3370 C   0  0  0  0  0  0  0  0  0  0  0  0
   57.7580   26.2710   43.1420 O   0  0  0  0  0  0  0  0  0  0  0  0
   57.5470   28.4070   44.1780 C   0  0  0  0  0  0  0  0  0  0  0  0
   59.7660   29.3260   47.1040 N   0  0  0  0  0  0  0  0  0  0  0  0
   60.5947   34.5445   52.2119 H   0  0  0  0  0  0  0  0  0  0  0  0
   59.2596   33.3480   52.1007 H   0  0  0  0  0  0  0  0  0  0  0  0
   60.9673   32.7908   52.1007 H   0  0  0  0  0  0  0  0  0  0  0  0
   62.0346   35.2971   49.0526 H   0  0  0  0  0  0  0  0  0  0  0  0
   64.0186   34.5451   47.7831 H   0  0  0  0  0  0  0  0  0  0  0  0
   64.5903   32.1104   47.6343 H   0  0  0  0  0  0  0  0  0  0  0  0
   63.1037   30.5017   48.7962 H   0  0  0  0  0  0  0  0  0  0  0  0
   61.4122   30.5039   51.0506 H   0  0  0  0  0  0  0  0  0  0  0  0
   59.9395   31.2845   50.4700 H   0  0  0  0  0  0  0  0  0  0  0  0
   56.6449   32.4151   45.7876 H   0  0  0  0  0  0  0  0  0  0  0  0
   56.2727   33.9189   46.6120 H   0  0  0  0  0  0  0  0  0  0  0  0
   57.1131   33.7894   43.9846 H   0  0  0  0  0  0  0  0  0  0  0  0
   57.4451   35.2114   45.0364 H   0  0  0  0  0  0  0  0  0  0  0  0
   59.3058   32.8480   45.0532 H   0  0  0  0  0  0  0  0  0  0  0  0
   59.3584   34.1116   43.7155 H   0  0  0  0  0  0  0  0  0  0  0  0
   60.8770   34.3480   45.7470 H   0  0  0  0  0  0  0  0  0  0  0  0
   60.0995   35.9153   47.2371 H   0  0  0  0  0  0  0  0  0  0  0  0
   58.4688   35.8590   46.4440 H   0  0  0  0  0  0  0  0  0  0  0  0
   59.7876   33.7776   48.2164 H   0  0  0  0  0  0  0  0  0  0  0  0
   58.2237   34.6097   48.4462 H   0  0  0  0  0  0  0  0  0  0  0  0
   57.8500   31.1630   45.2240 H   0  0  0  0  0  0  0  0  0  0  0  0
   60.3966   27.7812   44.2086 H   0  0  0  0  0  0  0  0  0  0  0  0
   59.5313   26.6652   45.1250 H   0  0  0  0  0  0  0  0  0  0  0  0
   58.7417   27.6577   42.3071 H   0  0  0  0  0  0  0  0  0  0  0  0
   56.7950   26.4380   42.9770 H   0  0  0  0  0  0  0  0  0  0  0  0
   57.1821   29.2890   43.6313 H   0  0  0  0  0  0  0  0  0  0  0  0
   56.5973   28.0425   44.5967 H   0  0  0  0  0  0  0  0  0  0  0  0
  1  2  1  0
  2  3  1  0
  3  4  2  0
  4  5  1  0
  5  6  2  0
  6  7  1  0
  7  8  2  0
  8  9  1  0
  9 10  1  0
 10 11  2  0
 11 12  1  0
 12 13  2  0
 13 14  1  0
 14 15  1  0
 15 16  1  0
 16 17  1  0
 17 18  1  0
 18 19  1  0
 19 20  1  0
 13 21  1  0
 21 22  1  0
 22 23  1  0
 23 24  1  0
 24 25  1  0
 25 26  1  0
 25 27  1  0
 22 28  2  0
  8  3  1  0
 28 11  1  0
 20 14  1  0
 27 23  1  0
  1 29  1  0
  1 30  1  0
  1 31  1  0
  4 32  1  0
  5 33  1  0
  6 34  1  0
  7 35  1  0
  9 36  1  0
  9 37  1  0
 15 38  1  0
 15 39  1  0
 16 40  1  0
 16 41  1  0
 17 42  1  0
 17 43  1  0
 18 44  1  0
 19 45  1  0
 19 46  1  0
 20 47  1  0
 20 48  1  0
 21 49  1  0
 24 50  1  0
 24 51  1  0
 25 52  1  0
 26 53  1  0
 27 54  1  0
 27 55  1  0
M  END
>  <smiles>  (4) 
COc1ccccc1CN=c1nc(N2CCCNCC2)[nH]c(N2CC(O)C2)n1

>  <score_type>  (4) 
oracle

>  <origin>  (4) 
adg

>  <m_score__min__energy>  (4) 
-4.8700000000000001

>  <m_primary>  (4) 
energy

$$$$
4:0
     RDKit          3D

 37 38  0  0  0  0  0  0  0  0999 V2000
   55.8230   23.2750   43.0310 C   0  0  0  0  0  0  0  0  0  0  0  0
   56.9920   22.3090   43.2050 C   0  0  0  0  0  0  0  0  0  0  0  0
   56.9620   21.6890   44.5450 N   0  0  0  0  0  0  0  0  0  0  0  0
   56.4460   20.4210   44.7220 C   0  0  0  0  0  0  0  0  0  0  0  0
   55.8900   19.6790   43.6740 O   0  0  0  0  0  0  0  0  0  0  0  0
   56.4520   19.8300   45.9860 C   0  0  0  0  0  0  0  0  0  0  0  0
   56.9370   20.5530   47.0660 C   0  0  0  0  0  0  0  0  0  0  0  0
   56.9430   20.0480   48.2190 O   0  0  0  0  0  0  0  0  0  0  0  0
   57.3960   21.8110   46.8780 N   0  0  0  0  0  0  0  0  0  0  0  0
   57.4150   22.3850   45.6470 C   0  0  0  0  0  0  0  0  0  0  0  0
   58.0150   24.0820   45.5420 S   0  0  0  0  0  0  0  0  0  0  0  0
   56.8830   24.6920   46.8310 C   0  0  0  0  0  0  0  0  0  0  0  0
   56.0610   25.8040   46.2710 C   0  0  0  0  0  0  0  0  0  0  0  0
   54.9720   25.5460   45.6920 O   0  0  0  0  0  0  0  0  0  0  0  0
   56.5210   27.1540   46.4020 N   0  0  0  0  0  0  0  0  0  0  0  0
   57.7100   27.7130   45.8210 C   0  0  0  0  0  0  0  0  0  0  0  0
   58.9600   27.0910   46.0170 C   0  0  0  0  0  0  0  0  0  0  0  0
   60.1230   27.6510   45.4920 C   0  0  0  0  0  0  0  0  0  0  0  0
   60.0630   28.8460   44.7790 C   0  0  0  0  0  0  0  0  0  0  0  0
   58.8390   29.4900   44.5930 C   0  0  0  0  0  0  0  0  0  0  0  0
   57.6480   28.9410   45.1120 C   0  0  0  0  0  0  0  0  0  0  0  0
   56.3650   29.6630   44.8900 C   0  0  0  0  0  0  0  0  0  0  0  0
   56.3590   30.9160   44.7500 O   0  0  0  0  0  0  0  0  0  0  0  0
   55.1560   28.9830   44.8200 O   0  0  0  0  0  0  0  0  0  0  0  0
   55.4511   23.5823   44.0195 H   0  0  0  0  0  0  0  0  0  0  0  0
   56.1599   24.1617   42.4740 H   0  0  0  0  0  0  0  0  0  0  0  0
   55.0156   22.7770   42.4740 H   0  0  0  0  0  0  0  0  0  0  0  0
   56.9257   21.5206   42.4408 H   0  0  0  0  0  0  0  0  0  0  0  0
   57.9326   22.8688   43.0954 H   0  0  0  0  0  0  0  0  0  0  0  0
   56.3500   18.9080   43.2100 H   0  0  0  0  0  0  0  0  0  0  0  0
   56.0774   18.8050   46.1241 H   0  0  0  0  0  0  0  0  0  0  0  0
   56.2234   23.8751   47.1589 H   0  0  0  0  0  0  0  0  0  0  0  0
   57.4628   25.0563   47.6918 H   0  0  0  0  0  0  0  0  0  0  0  0
   59.0178   26.1540   46.5903 H   0  0  0  0  0  0  0  0  0  0  0  0
   61.0901   27.1484   45.6409 H   0  0  0  0  0  0  0  0  0  0  0  0
   60.9822   29.2830   44.3617 H   0  0  0  0  0  0  0  0  0  0  0  0
   58.8027   30.4372   44.0349 H   0  0  0  0  0  0  0  0  0  0  0  0
  1  2  1  0
  2  3  1  0
  3  4  1  0
  4  5  1  0
  4  6  2  0
  6  7  1  0
  7  8  2  0
  7  9  1  0
  9 10  2  0
 10 11  1  0
 11 12  1  0
 12 13  1  0
 13 14  2  0
 13 15  1  0
 15 16  1  0
 16 17  2  0
 17 18  1  0
 18 19  2  0
 19 20  1  0
 20 21  2  0
 21 22  1  0
 22 23  2  0
 22 24  1  0
 10  3  1  0
 21 16  1  0
  1 25  1  0
  1 26  1  0
  1 27  1  0
  2 28  1  0
  2 29  1  0
  5 30  1  0
  6 31  1  0
 12 32  1  0
 12 33  1  0
 17 34  1  0
 18 35  1  0
 19 36  1  0
 20 37  1  0
M  CHG  2  15  -1  24  -1
M  END
>  <UniqueID>  (5) 
4

>  <SMILES>  (5) 
CCn1c(O)cc(=O)nc1SCC(=O)[N-]c1ccccc1C(=O)[O-]

>  <Energy>  (5) 
42.50037255643872

>  <Genealogy>  (5) 
CCn1c(O)cc(=O)nc1SCC(=O)[N-]c1ccccc1C(=O)[O-] (protonated)
CCn1c(O)cc(=O)nc1SCC(=O)[N-]c1ccccc1C(=O)[O-] (3D coordinates assigned)
CCn1c(O)cc(=O)nc1SCC(=O)[N-]c1ccccc1C(=O)[O-] (optimized conformer: 42.50037255643872 kcal/mol)

>  <smiles>  (5) 
CCn1c(O)cc(=O)nc1SCC(=O)Nc1ccccc1C(=O)O

>  <score_type>  (5) 
oracle

>  <origin>  (5) 
adg

>  <m_score__min__energy>  (5) 
-12.279999999999999

>  <m_primary>  (5) 
energy

$$$$
5:0
     RDKit          3D

 39 41  0  0  0  0  0  0  0  0999 V2000
   58.8200   31.0620   48.4200 N   0  0  0  0  0  0  0  0  0  0  0  0
   59.0210   32.2980   48.1260 C   0  0  0  0  0  0  0  0  0  0  0  0
   59.2990   33.2690   49.0270 N   0  0  0  0  0  0  0  0  0  0  0  0
   59.4400   34.4370   48.4010 N   0  0  0  0  0  0  0  0  0  0  0  0
   59.2530   34.2190   47.0960 C   0  0  0  0  0  0  0  0  0  0  0  0
   59.2730   35.0520   46.0020 C   0  0  0  0  0  0  0  0  0  0  0  0
   59.0290   34.5510   44.7220 C   0  0  0  0  0  0  0  0  0  0  0  0
   58.7610   33.2060   44.5080 C   0  0  0  0  0  0  0  0  0  0  0  0
   58.7440   32.3650   45.6270 C   0  0  0  0  0  0  0  0  0  0  0  0
   58.4920   30.9590   45.3600 C   0  0  0  0  0  0  0  0  0  0  0  0
   59.4400   29.9990   45.2190 C   0  0  0  0  0  0  0  0  0  0  0  0
   59.1550   28.6590   44.9790 C   0  0  0  0  0  0  0  0  0  0  0  0
   57.8180   28.3050   44.8820 C   0  0  0  0  0  0  0  0  0  0  0  0
   57.4120   26.9580   44.6390 N   0  0  0  0  0  0  0  0  0  0  0  0
   56.6300   26.2350   45.6020 C   0  0  0  0  0  0  0  0  0  0  0  0
   56.3270   26.8470   46.6590 O   0  0  0  0  0  0  0  0  0  0  0  0
   56.1990   24.8310   45.3640 C   0  0  0  0  0  0  0  0  0  0  0  0
   54.7340   24.7320   45.4520 C   0  0  0  0  0  0  0  0  0  0  0  0
   53.9970   23.5270   45.3150 N   0  0  0  0  0  0  0  0  0  0  0  0
   54.0960   25.8100   45.6700 O   0  0  0  0  0  0  0  0  0  0  0  0
   56.8120   29.2550   45.0190 C   0  0  0  0  0  0  0  0  0  0  0  0
   55.4800   28.8850   44.9190 O   0  0  0  0  0  0  0  0  0  0  0  0
   57.1650   30.5760   45.2570 C   0  0  0  0  0  0  0  0  0  0  0  0
   58.9870   32.8820   46.8790 C   0  0  0  0  0  0  0  0  0  0  0  0
   59.5190   30.3370   48.2020 H   0  0  0  0  0  0  0  0  0  0  0  0
   59.3930   33.1440   50.0630 H   0  0  0  0  0  0  0  0  0  0  0  0
   59.6580   35.3750   48.8160 H   0  0  0  0  0  0  0  0  0  0  0  0
   59.4833   36.1233   46.1368 H   0  0  0  0  0  0  0  0  0  0  0  0
   59.0496   35.2380   43.8632 H   0  0  0  0  0  0  0  0  0  0  0  0
   58.5693   32.8158   43.4976 H   0  0  0  0  0  0  0  0  0  0  0  0
   60.4956   30.2977   45.2992 H   0  0  0  0  0  0  0  0  0  0  0  0
   59.9556   27.9125   44.8708 H   0  0  0  0  0  0  0  0  0  0  0  0
   57.6820   26.4810   43.7490 H   0  0  0  0  0  0  0  0  0  0  0  0
   56.5259   24.5145   44.3625 H   0  0  0  0  0  0  0  0  0  0  0  0
   56.6511   24.1805   46.1272 H   0  0  0  0  0  0  0  0  0  0  0  0
   54.2940   22.6050   45.6710 H   0  0  0  0  0  0  0  0  0  0  0  0
   53.0700   23.5890   44.8040 H   0  0  0  0  0  0  0  0  0  0  0  0
   55.1440   27.9590   45.1270 H   0  0  0  0  0  0  0  0  0  0  0  0
   56.3752   31.3338   45.3660 H   0  0  0  0  0  0  0  0  0  0  0  0
  1  2  2  3
  2  3  1  0
  3  4  1  0
  4  5  1  0
  5  6  2  0
  6  7  1  0
  7  8  2  0
  8  9  1  0
  9 10  1  0
 10 11  2  0
 11 12  1  0
 12 13  2  0
 13 14  1  0
 14 15  1  0
 15 16  2  0
 15 17  1  0
 17 18  1  0
 18 19  1  0
 18 20  2  0
 13 21  1  0
 21 22  1  0
 21 23  2  0
  9 24  2  0
 24  2  1  0
 24  5  1  0
 23 10  1  0
  1 25  1  0
  3 26  1  0
  4 27  1  0
  6 28  1  0
  7 29  1  0
  8 30  1  0
 11 31  1  0
 12 32  1  0
 14 33  1  0
 17 34  1  0
 17 35  1  0
 19 36  1  0
 19 37  1  0
 22 38  1  0
 23 39  1  0
M  END
>  <smiles>  (6) 
N=c1[nH][nH]c2cccc(-c3ccc(NC(=O)CC(N)=O)c(O)c3)c12

>  <score_type>  (6) 
oracle

>  <origin>  (6) 
adg

>  <m_score__min__energy>  (6) 
-8.4499999999999993

>  <m_primary>  (6) 
energy

$$$$
6:0
     RDKit          3D

 64 68  0  0  0  0  0  0  0  0999 V2000
   63.0770   33.3800   46.5900 C   0  0  0  0  0  0  0  0  0  0  0  0
   62.5510   33.4340   47.8220 C   0  0  0  0  0  0  0  0  0  0  0  0
   63.2400   33.5460   49.0410 C   0  0  0  0  0  0  0  0  0  0  0  0
   64.5530   33.4650   49.3220 C   0  0  0  0  0  0  0  0  0  0  0  0
   65.2040   32.3590   50.0380 C   0  0  0  0  0  0  0  0  0  0  0  0
   64.5510   31.3060   50.5680 N   0  0  0  0  0  0  0  0  0  0  0  0
   65.5160   30.6590   51.2560 C   0  0  0  0  0  0  0  0  0  0  0  0
   65.2930   29.6010   51.9030 O   0  0  0  0  0  0  0  0  0  0  0  0
   66.7320   31.2450   51.2150 N   0  0  0  0  0  0  0  0  0  0  0  0
   66.5120   32.3260   50.4510 C   0  0  0  0  0  0  0  0  0  0  0  0
   67.4830   33.2720   50.1490 O   0  0  0  0  0  0  0  0  0  0  0  0
   62.2760   33.7580   50.0140 C   0  0  0  0  0  0  0  0  0  0  0  0
   61.0510   33.7180   49.3790 C   0  0  0  0  0  0  0  0  0  0  0  0
   59.7250   33.8340   50.0660 C   0  0  0  0  0  0  0  0  0  0  0  0
   61.2160   33.5110   48.0570 N   0  0  0  0  0  0  0  0  0  0  0  0
   60.1590   33.4840   47.0860 C   0  0  0  0  0  0  0  0  0  0  0  0
   59.8330   34.6430   46.3720 C   0  0  0  0  0  0  0  0  0  0  0  0
   58.8280   34.6070   45.4010 C   0  0  0  0  0  0  0  0  0  0  0  0
   58.1610   33.4090   45.1250 C   0  0  0  0  0  0  0  0  0  0  0  0
   58.4990   32.2330   45.8170 C   0  0  0  0  0  0  0  0  0  0  0  0
   57.8220   30.9530   45.5030 C   0  0  0  0  0  0  0  0  0  0  0  0
   56.7070   30.9750   44.9150 O   0  0  0  0  0  0  0  0  0  0  0  0
   58.4170   29.6890   45.8550 N   0  0  0  0  0  0  0  0  0  0  0  0
   58.9140   29.4670   47.2140 C   0  0  0  0  0  0  0  0  0  0  0  0
   60.1300   28.5340   47.1860 C   0  0  0  0  0  0  0  0  0  0  0  0
   59.9100   27.3280   46.3610 N   0  0  0  0  0  0  0  0  0  0  0  0
   59.5000   26.0970   47.0700 C   0  0  0  0  0  0  0  0  0  0  0  0
   58.5050   25.2570   46.3050 C   0  0  0  0  0  0  0  0  0  0  0  0
   58.9320   24.1230   45.5970 C   0  0  0  0  0  0  0  0  0  0  0  0
   58.0110   23.3380   44.9020 C   0  0  0  0  0  0  0  0  0  0  0  0
   56.6550   23.6740   44.9100 C   0  0  0  0  0  0  0  0  0  0  0  0
   56.2040   24.7980   45.6250 C   0  0  0  0  0  0  0  0  0  0  0  0
   54.7690   25.1630   45.6320 C   0  0  0  0  0  0  0  0  0  0  0  0
   54.4040   26.3270   45.9490 O   0  0  0  0  0  0  0  0  0  0  0  0
   53.8020   24.2260   45.2940 O   0  0  0  0  0  0  0  0  0  0  0  0
   57.1370   25.5760   46.3310 C   0  0  0  0  0  0  0  0  0  0  0  0
   59.3210   27.5590   45.0270 C   0  0  0  0  0  0  0  0  0  0  0  0
   58.1070   28.4950   45.0670 C   0  0  0  0  0  0  0  0  0  0  0  0
   59.4880   32.2840   46.8130 C   0  0  0  0  0  0  0  0  0  0  0  0
   62.4177   33.2916   45.7139 H   0  0  0  0  0  0  0  0  0  0  0  0
   64.1678   33.4241   46.4553 H   0  0  0  0  0  0  0  0  0  0  0  0
   65.1924   34.2955   48.9882 H   0  0  0  0  0  0  0  0  0  0  0  0
   62.4531   33.9259   51.0866 H   0  0  0  0  0  0  0  0  0  0  0  0
   59.8743   33.8209   51.1558 H   0  0  0  0  0  0  0  0  0  0  0  0
   59.2418   34.7778   49.7734 H   0  0  0  0  0  0  0  0  0  0  0  0
   59.0852   32.9884   49.7734 H   0  0  0  0  0  0  0  0  0  0  0  0
   60.3679   35.5825   46.5751 H   0  0  0  0  0  0  0  0  0  0  0  0
   58.5612   35.5227   44.8529 H   0  0  0  0  0  0  0  0  0  0  0  0
   57.3682   33.3869   44.3628 H   0  0  0  0  0  0  0  0  0  0  0  0
   59.2055   30.4310   47.6565 H   0  0  0  0  0  0  0  0  0  0  0  0
   58.1189   29.0031   47.8161 H   0  0  0  0  0  0  0  0  0  0  0  0
   60.9879   29.0876   46.7768 H   0  0  0  0  0  0  0  0  0  0  0  0
   60.3135   28.1995   48.2177 H   0  0  0  0  0  0  0  0  0  0  0  0
   60.3973   25.4885   47.2561 H   0  0  0  0  0  0  0  0  0  0  0  0
   59.0054   26.4123   48.0006 H   0  0  0  0  0  0  0  0  0  0  0  0
   59.9980   23.8516   45.5899 H   0  0  0  0  0  0  0  0  0  0  0  0
   58.3536   22.4525   44.3465 H   0  0  0  0  0  0  0  0  0  0  0  0
   55.9354   23.0555   44.3535 H   0  0  0  0  0  0  0  0  0  0  0  0
   56.7924   26.4449   46.9108 H   0  0  0  0  0  0  0  0  0  0  0  0
   60.0878   28.0056   44.3769 H   0  0  0  0  0  0  0  0  0  0  0  0
   58.9770   26.5868   44.6442 H   0  0  0  0  0  0  0  0  0  0  0  0
   57.8445   28.7941   44.0415 H   0  0  0  0  0  0  0  0  0  0  0  0
   57.2611   27.9672   45.5316 H   0  0  0  0  0  0  0  0  0  0  0  0
   59.7376   31.3765   47.3824 H   0  0  0  0  0  0  0  0  0  0  0  0
  1  2  2  0
  2  3  1  0
  3  4  2  3
  4  5  1  0
  5  6  1  0
  6  7  1  0
  7  8  2  0
  7  9  1  0
  9 10  1  0
 10 11  1  0
  3 12  1  0
 12 13  2  0
 13 14  1  0
 13 15  1  0
 15 16  1  0
 16 17  2  0
 17 18  1  0
 18 19  2  0
 19 20  1  0
 20 21  1  0
 21 22  2  0
 21 23  1  0
 23 24  1  0
 24 25  1  0
 25 26  1  0
 26 27  1  0
 27 28  1  0
 28 29  2  0
 29 30  1  0
 30 31  2  0
 31 32  1  0
 32 33  1  0
 33 34  2  0
 33 35  1  0
 32 36  2  0
 26 37  1  0
 37 38  1  0
 20 39  2  0
 15  2  1  0
 39 16  1  0
 10  5  2  0
 38 23  1  0
 36 28  1  0
  1 40  1  0
  1 41  1  0
  4 42  1  0
 12 43  1  0
 14 44  1  0
 14 45  1  0
 14 46  1  0
 17 47  1  0
 18 48  1  0
 19 49  1  0
 24 50  1  0
 24 51  1  0
 25 52  1  0
 25 53  1  0
 27 54  1  0
 27 55  1  0
 29 56  1  0
 30 57  1  0
 31 58  1  0
 36 59  1  0
 37 60  1  0
 37 61  1  0
 38 62  1  0
 38 63  1  0
 39 64  1  0
M  CHG  4   6  -1   9  -1  11  -1  35  -1
M  END
>  <UniqueID>  (7) 
5

>  <SMILES>  (7) 
C=c1c(=Cc2[n-]c(=O)[n-]c2[O-])cc(C)n1-c1cccc(C(=O)N2CCN(Cc3cccc(C(=O)[O-])c3)CC2)c1

>  <Energy>  (7) 
157.98369348088315

>  <Genealogy>  (7) 
C=c1c(=Cc2[n-]c(=O)[n-]c2[O-])cc(C)n1-c1cccc(C(=O)N2CCN(Cc3cccc(C(=O)[O-])c3)CC2)c1 (protonated)
C=c1c(=Cc2[n-]c(=O)[n-]c2[O-])cc(C)n1-c1cccc(C(=O)N2CCN(Cc3cccc(C(=O)[O-])c3)CC2)c1 (3D coordinates assigned)
C=c1c(=Cc2[n-]c(=O)[n-]c2[O-])cc(C)n1-c1cccc(C(=O)N2CCN(Cc3cccc(C(=O)[O-])c3)CC2)c1 (nonaromatic ring conformer: 157.98369348088315 kcal/mol)

>  <smiles>  (7) 
C=c1c(=Cc2[nH]c(=O)[nH]c2O)cc(C)n1-c1cccc(C(=O)N2CCN(Cc3cccc(C(=O)O)c3)CC2)c1

>  <score_type>  (7) 
oracle

>  <origin>  (7) 
adg

>  <m_score__min__energy>  (7) 
-21.190000000000001

>  <m_primary>  (7) 
energy

$$$$
7:0
     RDKit          3D

 38 40  0  0  0  0  0  0  0  0999 V2000
   55.1430   27.4970   45.3860 H   0  0  0  0  0  0  0  0  0  0  0  0
   55.0120   26.7030   46.0000 O   0  0  0  0  0  0  0  0  0  0  0  0
   56.0210   25.7650   46.1980 C   0  0  0  0  0  0  0  0  0  0  0  0
   55.8970   24.7050   47.0120 N   0  0  0  0  0  0  0  0  0  0  0  0
   57.1010   24.1050   46.9090 C   0  0  0  0  0  0  0  0  0  0  0  0
   57.3930   23.0550   47.5380 O   0  0  0  0  0  0  0  0  0  0  0  0
   57.9740   24.7240   46.0850 N   0  0  0  0  0  0  0  0  0  0  0  0
   57.2680   25.7700   45.6150 C   0  0  0  0  0  0  0  0  0  0  0  0
   57.8290   26.8370   44.7690 C   0  0  0  0  0  0  0  0  0  0  0  0
   57.9655   26.6152   43.7003 H   0  0  0  0  0  0  0  0  0  0  0  0
   58.1890   28.0640   45.1980 C   0  0  0  0  0  0  0  0  0  0  0  0
   57.5380   29.2470   44.8630 C   0  0  0  0  0  0  0  0  0  0  0  0
   56.3390   29.3920   43.9790 C   0  0  0  0  0  0  0  0  0  0  0  0
   55.4372   29.5011   44.5993 H   0  0  0  0  0  0  0  0  0  0  0  0
   56.4572   30.2824   43.3440 H   0  0  0  0  0  0  0  0  0  0  0  0
   56.2415   28.4991   43.3440 H   0  0  0  0  0  0  0  0  0  0  0  0
   58.0910   30.2800   45.5230 N   0  0  0  0  0  0  0  0  0  0  0  0
   59.1020   29.8170   46.2390 N   0  0  0  0  0  0  0  0  0  0  0  0
   59.9220   30.6850   47.0900 C   0  0  0  0  0  0  0  0  0  0  0  0
   60.9114   30.2253   47.2307 H   0  0  0  0  0  0  0  0  0  0  0  0
   60.0278   31.6660   46.6038 H   0  0  0  0  0  0  0  0  0  0  0  0
   59.2660   30.8720   48.4320 C   0  0  0  0  0  0  0  0  0  0  0  0
   59.0900   29.7850   49.3010 C   0  0  0  0  0  0  0  0  0  0  0  0
   59.4406   28.7853   49.0049 H   0  0  0  0  0  0  0  0  0  0  0  0
   58.4710   29.9660   50.5420 C   0  0  0  0  0  0  0  0  0  0  0  0
   58.3360   29.1065   51.2150 H   0  0  0  0  0  0  0  0  0  0  0  0
   58.0200   31.2380   50.9360 C   0  0  0  0  0  0  0  0  0  0  0  0
   57.3630   31.4330   52.2470 C   0  0  0  0  0  0  0  0  0  0  0  0
   56.4330   30.6680   52.6180 O   0  0  0  0  0  0  0  0  0  0  0  0
   57.7630   32.4640   53.0890 O   0  0  0  0  0  0  0  0  0  0  0  0
   58.2020   32.3250   50.0640 C   0  0  0  0  0  0  0  0  0  0  0  0
   57.8549   33.3261   50.3594 H   0  0  0  0  0  0  0  0  0  0  0  0
   58.8210   32.1430   48.8240 C   0  0  0  0  0  0  0  0  0  0  0  0
   58.9600   33.0022   48.1513 H   0  0  0  0  0  0  0  0  0  0  0  0
   59.2190   28.4760   46.0560 C   0  0  0  0  0  0  0  0  0  0  0  0
   60.2420   27.7460   46.5210 C   0  0  0  0  0  0  0  0  0  0  0  0
   60.9832   28.2032   47.1930 H   0  0  0  0  0  0  0  0  0  0  0  0
   60.3406   26.6896   46.2307 H   0  0  0  0  0  0  0  0  0  0  0  0
  1  2  1  0
  2  3  1  0
  3  4  1  0
  4  5  1  0
  5  6  2  0
  5  7  1  0
  7  8  1  0
  8  9  1  0
  9 10  1  0
  9 11  2  0
 11 12  1  0
 12 13  1  0
 13 14  1  0
 13 15  1  0
 13 16  1  0
 12 17  2  0
 17 18  1  0
 18 19  1  0
 19 20  1  0
 19 21  1  0
 19 22  1  0
 22 23  2  0
 23 24  1  0
 23 25  1  0
 25 26  1  0
 25 27  2  0
 27 28  1  0
 28 29  2  0
 28 30  1  0
 27 31  1  0
 31 32  1  0
 31 33  2  0
 33 34  1  0
 18 35  1  0
 35 36  2  0
 36 37  1  0
 36 38  1  0
  8  3  2  0
 35 11  1  0
 33 22  1  0
M  CHG  3   4  -1   7  -1  30  -1
M  END
>  <UniqueID>  (8) 
6

>  <SMILES>  (8) 
C=c1/c(=C\c2[n-]c(=O)[n-]c2O)c(C)nn1Cc1ccc(C(=O)[O-])cc1

>  <Energy>  (8) 
111.28732536206127

>  <Genealogy>  (8) 
C=c1c(=Cc2[n-]c(=O)[n-]c2O)c(C)nn1Cc1ccc(C(=O)[O-])cc1 (protonated)
C=c1/c(=C\c2[n-]c(=O)[n-]c2O)c(C)nn1Cc1ccc(C(=O)[O-])cc1 (cis-trans isomerization)
C=c1/c(=C\c2[n-]c(=O)[n-]c2O)c(C)nn1Cc1ccc(C(=O)[O-])cc1 (3D coordinates assigned)
C=c1/c(=C\c2[n-]c(=O)[n-]c2O)c(C)nn1Cc1ccc(C(=O)[O-])cc1 (optimized conformer: 111.28732536206127 kcal/mol)

>  <smiles>  (8) 
C=c1c(=Cc2[nH]c(=O)[nH]c2O)c(C)nn1Cc1ccc(C(=O)O)cc1

>  <score_type>  (8) 
oracle

>  <origin>  (8) 
adg

>  <m_score__min__energy>  (8) 
-12.960000000000001

>  <m_primary>  (8) 
energy

$$$$
8:0
     RDKit          3D

 28 29  0  0  0  0  0  0  0  0999 V2000
   59.1078   35.2677   47.0215 H   0  0  0  0  0  0  0  0  0  0  0  0
   58.7760   34.4380   46.3800 C   0  0  0  0  0  0  0  0  0  0  0  0
   58.2000   33.2990   46.9520 C   0  0  0  0  0  0  0  0  0  0  0  0
   58.0780   33.2336   48.0433 H   0  0  0  0  0  0  0  0  0  0  0  0
   57.7790   32.2430   46.1370 C   0  0  0  0  0  0  0  0  0  0  0  0
   57.3301   31.3468   46.5901 H   0  0  0  0  0  0  0  0  0  0  0  0
   57.9270   32.3220   44.7430 C   0  0  0  0  0  0  0  0  0  0  0  0
   57.4940   31.1720   43.8730 C   0  0  0  0  0  0  0  0  0  0  0  0
   58.3819   30.6085   43.5503 H   0  0  0  0  0  0  0  0  0  0  0  0
   56.9580   31.5707   42.9991 H   0  0  0  0  0  0  0  0  0  0  0  0
   56.5990   30.2790   44.6080 N   0  0  0  0  0  0  0  0  0  0  0  0
   56.9700   29.1970   45.2280 C   0  0  0  0  0  0  0  0  0  0  0  0
   58.2130   29.1030   45.7800 N   0  0  0  0  0  0  0  0  0  0  0  0
   58.6130   27.9860   46.4390 C   0  0  0  0  0  0  0  0  0  0  0  0
   59.9860   27.9180   47.0250 C   0  0  0  0  0  0  0  0  0  0  0  0
   59.9167   27.9214   48.1228 H   0  0  0  0  0  0  0  0  0  0  0  0
   60.4816   26.9942   46.6918 H   0  0  0  0  0  0  0  0  0  0  0  0
   60.5704   28.7883   46.6918 H   0  0  0  0  0  0  0  0  0  0  0  0
   57.7410   26.8990   46.5440 C   0  0  0  0  0  0  0  0  0  0  0  0
   58.0478   25.9807   47.0662 H   0  0  0  0  0  0  0  0  0  0  0  0
   56.4730   27.0040   45.9720 C   0  0  0  0  0  0  0  0  0  0  0  0
   55.6650   26.0410   46.0540 O   0  0  0  0  0  0  0  0  0  0  0  0
   56.1090   28.1470   45.3270 N   0  0  0  0  0  0  0  0  0  0  0  0
   55.1540   28.2160   44.9030 H   0  0  0  0  0  0  0  0  0  0  0  0
   58.5090   33.4700   44.1760 C   0  0  0  0  0  0  0  0  0  0  0  0
   58.6332   33.5400   43.0853 H   0  0  0  0  0  0  0  0  0  0  0  0
   58.9300   34.5220   44.9940 C   0  0  0  0  0  0  0  0  0  0  0  0
   59.3836   35.4182   44.5456 H   0  0  0  0  0  0  0  0  0  0  0  0
  1  2  1  0
  2  3  2  0
  3  4  1  0
  3  5  1  0
  5  6  1  0
  5  7  2  0
  7  8  1  0
  8  9  1  0
  8 10  1  0
  8 11  1  0
 11 12  2  0
 12 13  1  0
 13 14  1  0
 14 15  1  0
 15 16  1  0
 15 17  1  0
 15 18  1  0
 14 19  2  0
 19 20  1  0
 19 21  1  0
 21 22  2  0
 21 23  1  0
 23 24  1  0
  7 25  1  0
 25 26  1  0
 25 27  2  0
 27 28  1  0
 27  2  1  0
 23 12  1  0
M  CHG  1  13  -1
M  END
>  <UniqueID>  (9) 
7

>  <SMILES>  (9) 
Cc1cc(=O)[nH]/c(=N/Cc2ccccc2)[n-]1

>  <Energy>  (9) 
26.88243325929924

>  <Genealogy>  (9) 
Cc1cc(=O)[nH]c(=NCc2ccccc2)[n-]1 (protonated)
Cc1cc(=O)[nH]/c(=N/Cc2ccccc2)[n-]1 (cis-trans isomerization)
Cc1cc(=O)[nH]/c(=N/Cc2ccccc2)[n-]1 (3D coordinates assigned)
Cc1cc(=O)[nH]/c(=N/Cc2ccccc2)[n-]1 (optimized conformer: 26.88243325929924 kcal/mol)

>  <smiles>  (9) 
Cc1cc(=O)[nH]c(=NCc2ccccc2)[nH]1

>  <score_type>  (9) 
oracle

>  <origin>  (9) 
adg

>  <m_score__min__energy>  (9) 
-8.6699999999999999

>  <m_primary>  (9) 
energy

$$$$
9:0
     RDKit          3D

 53 56  0  0  0  0  0  0  0  0999 V2000
   57.0400   31.3520   46.3840 H   0  0  0  0  0  0  0  0  0  0  0  0
   57.7310   32.0920   46.4090 O   0  0  0  0  0  0  0  0  0  0  0  0
   59.0800   31.8240   46.6480 C   0  0  0  0  0  0  0  0  0  0  0  0
   59.8600   32.7280   47.3820 C   0  0  0  0  0  0  0  0  0  0  0  0
   59.4074   33.6562   47.7609 H   0  0  0  0  0  0  0  0  0  0  0  0
   61.2150   32.4590   47.6380 C   0  0  0  0  0  0  0  0  0  0  0  0
   62.0190   33.3970   48.3800 N   0  0  0  0  0  0  0  0  0  0  0  0
   63.3770   33.7430   47.9500 C   0  0  0  0  0  0  0  0  0  0  0  0
   63.6490   33.1295   47.0784 H   0  0  0  0  0  0  0  0  0  0  0  0
   63.4071   34.8100   47.6841 H   0  0  0  0  0  0  0  0  0  0  0  0
   64.3810   33.4820   49.0880 C   0  0  0  0  0  0  0  0  0  0  0  0
   64.7332   32.4430   49.0072 H   0  0  0  0  0  0  0  0  0  0  0  0
   65.1931   34.2146   48.9705 H   0  0  0  0  0  0  0  0  0  0  0  0
   63.8160   33.6800   50.4500 N   0  0  0  0  0  0  0  0  0  0  0  0
   63.5480   32.3980   51.1230 C   0  0  0  0  0  0  0  0  0  0  0  0
   63.5783   32.5427   52.2130 H   0  0  0  0  0  0  0  0  0  0  0  0
   62.5536   32.0306   50.8294 H   0  0  0  0  0  0  0  0  0  0  0  0
   64.3119   31.6630   50.8294 H   0  0  0  0  0  0  0  0  0  0  0  0
   62.6330   34.5690   50.4690 C   0  0  0  0  0  0  0  0  0  0  0  0
   62.2761   34.6644   51.5051 H   0  0  0  0  0  0  0  0  0  0  0  0
   62.9334   35.5459   50.0623 H   0  0  0  0  0  0  0  0  0  0  0  0
   61.4910   34.0200   49.5980 C   0  0  0  0  0  0  0  0  0  0  0  0
   60.9282   33.2694   50.1723 H   0  0  0  0  0  0  0  0  0  0  0  0
   60.8337   34.8541   49.3112 H   0  0  0  0  0  0  0  0  0  0  0  0
   61.7840   31.2780   47.1350 C   0  0  0  0  0  0  0  0  0  0  0  0
   62.8468   31.0620   47.3187 H   0  0  0  0  0  0  0  0  0  0  0  0
   61.0090   30.3760   46.4030 C   0  0  0  0  0  0  0  0  0  0  0  0
   61.4631   29.4506   46.0191 H   0  0  0  0  0  0  0  0  0  0  0  0
   59.6570   30.6430   46.1550 C   0  0  0  0  0  0  0  0  0  0  0  0
   58.8670   29.7060   45.4000 N   0  0  0  0  0  0  0  0  0  0  0  0
   58.1480   29.9970   44.2950 C   0  0  0  0  0  0  0  0  0  0  0  0
   58.0550   31.3530   43.6640 C   0  0  0  0  0  0  0  0  0  0  0  0
   58.0024   32.1205   44.4503 H   0  0  0  0  0  0  0  0  0  0  0  0
   58.9432   31.5284   43.0393 H   0  0  0  0  0  0  0  0  0  0  0  0
   57.1511   31.4055   43.0393 H   0  0  0  0  0  0  0  0  0  0  0  0
   57.4820   28.8750   43.8470 C   0  0  0  0  0  0  0  0  0  0  0  0
   56.8031   28.8178   42.9834 H   0  0  0  0  0  0  0  0  0  0  0  0
   57.8310   27.8340   44.6920 C   0  0  0  0  0  0  0  0  0  0  0  0
   57.4030   26.5700   44.5060 C   0  0  0  0  0  0  0  0  0  0  0  0
   57.2858   26.2264   43.4676 H   0  0  0  0  0  0  0  0  0  0  0  0
   57.0780   25.6070   45.5760 C   0  0  0  0  0  0  0  0  0  0  0  0
   55.8550   25.6920   46.2560 C   0  0  0  0  0  0  0  0  0  0  0  0
   54.9560   26.7140   45.9700 O   0  0  0  0  0  0  0  0  0  0  0  0
   55.5440   24.7780   47.2110 N   0  0  0  0  0  0  0  0  0  0  0  0
   56.3930   23.7620   47.5100 C   0  0  0  0  0  0  0  0  0  0  0  0
   56.0850   22.9290   48.4010 O   0  0  0  0  0  0  0  0  0  0  0  0
   57.5710   23.6410   46.8460 N   0  0  0  0  0  0  0  0  0  0  0  0
   57.9280   24.5290   45.8840 C   0  0  0  0  0  0  0  0  0  0  0  0
   59.0190   24.3730   45.2720 O   0  0  0  0  0  0  0  0  0  0  0  0
   58.6680   28.3910   45.6760 C   0  0  0  0  0  0  0  0  0  0  0  0
   59.1170   27.8000   46.7940 C   0  0  0  0  0  0  0  0  0  0  0  0
   59.7708   28.3534   47.4841 H   0  0  0  0  0  0  0  0  0  0  0  0
   58.8313   26.7621   47.0203 H   0  0  0  0  0  0  0  0  0  0  0  0
  1  2  1  0
  2  3  1  0
  3  4  2  0
  4  5  1  0
  4  6  1  0
  6  7  1  0
  7  8  1  0
  8  9  1  0
  8 10  1  0
  8 11  1  0
 11 12  1  0
 11 13  1  0
 11 14  1  0
 14 15  1  0
 15 16  1  0
 15 17  1  0
 15 18  1  0
 14 19  1  0
 19 20  1  0
 19 21  1  0
 19 22  1  0
 22 23  1  0
 22 24  1  0
  6 25  2  0
 25 26  1  0
 25 27  1  0
 27 28  1  0
 27 29  2  0
 29 30  1  0
 30 31  1  0
 31 32  1  0
 32 33  1  0
 32 34  1  0
 32 35  1  0
 31 36  2  0
 36 37  1  0
 36 38  1  0
 38 39  2  0
 39 40  1  0
 39 41  1  0
 41 42  2  0
 42 43  1  0
 42 44  1  0
 44 45  1  0
 45 46  2  0
 45 47  1  0
 47 48  1  0
 48 49  2  0
 38 50  1  0
 50 51  2  0
 51 52  1  0
 51 53  1  0
 29  3  1  0
 50 30  1  0
 22  7  1  0
 48 41  1  0
M  CHG  3  43  -1  44  -1  47  -1
M  END
>  <UniqueID>  (10) 
8

>  <SMILES>  (10) 
C=c1/c(=C\c2c([O-])[n-]c(=O)[n-]c2=O)cc(C)n1-c1ccc(N2CCN(C)CC2)cc1O

>  <Energy>  (10) 
116.40125995366968

>  <Genealogy>  (10) 
C=c1c(=Cc2c([O-])[n-]c(=O)[n-]c2=O)cc(C)n1-c1ccc(N2CCN(C)CC2)cc1O (protonated)
C=c1/c(=C\c2c([O-])[n-]c(=O)[n-]c2=O)cc(C)n1-c1ccc(N2CCN(C)CC2)cc1O (cis-trans isomerization)
C=c1/c(=C\c2c([O-])[n-]c(=O)[n-]c2=O)cc(C)n1-c1ccc(N2CCN(C)CC2)cc1O (3D coordinates assigned)
C=c1/c(=C\c2c([O-])[n-]c(=O)[n-]c2=O)cc(C)n1-c1ccc(N2CCN(C)CC2)cc1O (nonaromatic ring conformer: 116.40125995366968 kcal/mol)

>  <smiles>  (10) 
C=c1c(=Cc2c(O)[nH]c(=O)[nH]c2=O)cc(C)n1-c1ccc(N2CCN(C)CC2)cc1O

>  <score_type>  (10) 
oracle

>  <origin>  (10) 
adg

>  <m_score__min__energy>  (10) 
-15.75

>  <m_primary>  (10) 
energy

$$$$
10:0
     RDKit          3D

 46 48  0  0  0  0  0  0  0  0999 V2000
   55.1470   27.4990   45.4120 H   0  0  0  0  0  0  0  0  0  0  0  0
   54.9870   26.6870   45.9950 O   0  0  0  0  0  0  0  0  0  0  0  0
   55.9890   25.7480   46.2240 C   0  0  0  0  0  0  0  0  0  0  0  0
   55.8380   24.6850   47.0300 N   0  0  0  0  0  0  0  0  0  0  0  0
   57.0310   24.0610   46.9290 C   0  0  0  0  0  0  0  0  0  0  0  0
   57.2930   22.9960   47.5450 O   0  0  0  0  0  0  0  0  0  0  0  0
   57.9160   24.6630   46.1060 N   0  0  0  0  0  0  0  0  0  0  0  0
   57.2540   25.7540   45.6790 C   0  0  0  0  0  0  0  0  0  0  0  0
   57.7520   26.6790   44.6470 C   0  0  0  0  0  0  0  0  0  0  0  0
   57.6423   26.3699   43.5970 H   0  0  0  0  0  0  0  0  0  0  0  0
   58.3320   27.8750   44.8830 C   0  0  0  0  0  0  0  0  0  0  0  0
   57.7190   29.1090   44.6540 C   0  0  0  0  0  0  0  0  0  0  0  0
   56.3010   29.3510   44.1990 C   0  0  0  0  0  0  0  0  0  0  0  0
   55.7256   28.4193   44.3030 H   0  0  0  0  0  0  0  0  0  0  0  0
   55.8632   30.1451   44.8217 H   0  0  0  0  0  0  0  0  0  0  0  0
   56.2650   29.8000   42.7410 C   0  0  0  0  0  0  0  0  0  0  0  0
   56.1772   30.8956   42.6968 H   0  0  0  0  0  0  0  0  0  0  0  0
   57.1912   29.4858   42.2376 H   0  0  0  0  0  0  0  0  0  0  0  0
   55.4007   29.3422   42.2376 H   0  0  0  0  0  0  0  0  0  0  0  0
   58.6610   30.0850   44.9570 C   0  0  0  0  0  0  0  0  0  0  0  0
   58.4690   31.5760   44.8960 C   0  0  0  0  0  0  0  0  0  0  0  0
   59.0179   31.9740   44.0298 H   0  0  0  0  0  0  0  0  0  0  0  0
   57.3935   31.7867   44.8015 H   0  0  0  0  0  0  0  0  0  0  0  0
   58.9790   32.2390   46.1490 C   0  0  0  0  0  0  0  0  0  0  0  0
   59.6080   33.4930   46.0780 C   0  0  0  0  0  0  0  0  0  0  0  0
   59.7173   33.9962   45.1059 H   0  0  0  0  0  0  0  0  0  0  0  0
   60.0960   34.1050   47.2370 C   0  0  0  0  0  0  0  0  0  0  0  0
   60.6006   35.0801   47.1701 H   0  0  0  0  0  0  0  0  0  0  0  0
   59.9450   33.4810   48.4850 C   0  0  0  0  0  0  0  0  0  0  0  0
   60.4830   34.1290   49.6980 C   0  0  0  0  0  0  0  0  0  0  0  0
   59.7370   34.2560   50.7040 O   0  0  0  0  0  0  0  0  0  0  0  0
   61.8390   34.5870   49.7830 N   0  0  0  0  0  0  0  0  0  0  0  0
   62.9870   33.9010   49.2060 C   0  0  0  0  0  0  0  0  0  0  0  0
   63.6287   33.5176   50.0130 H   0  0  0  0  0  0  0  0  0  0  0  0
   62.6390   33.0627   48.5846 H   0  0  0  0  0  0  0  0  0  0  0  0
   63.5604   34.6047   48.5846 H   0  0  0  0  0  0  0  0  0  0  0  0
   59.3270   32.2230   48.5540 C   0  0  0  0  0  0  0  0  0  0  0  0
   59.2271   31.7152   49.5247 H   0  0  0  0  0  0  0  0  0  0  0  0
   58.8380   31.6120   47.3970 C   0  0  0  0  0  0  0  0  0  0  0  0
   58.3395   30.6338   47.4642 H   0  0  0  0  0  0  0  0  0  0  0  0
   59.7980   29.5110   45.3870 N   0  0  0  0  0  0  0  0  0  0  0  0
   60.6460   30.0180   45.7310 H   0  0  0  0  0  0  0  0  0  0  0  0
   59.6110   28.1760   45.3790 C   0  0  0  0  0  0  0  0  0  0  0  0
   60.5040   27.3420   45.9230 C   0  0  0  0  0  0  0  0  0  0  0  0
   60.3265   26.2566   45.9026 H   0  0  0  0  0  0  0  0  0  0  0  0
   61.4159   27.7415   46.3907 H   0  0  0  0  0  0  0  0  0  0  0  0
  1  2  1  0
  2  3  1  0
  3  4  1  0
  4  5  1  0
  5  6  2  0
  5  7  1  0
  7  8  1  0
  8  9  1  0
  9 10  1  0
  9 11  2  0
 11 12  1  0
 12 13  1  0
 13 14  1  0
 13 15  1  0
 13 16  1  0
 16 17  1  0
 16 18  1  0
 16 19  1  0
 12 20  2  0
 20 21  1  0
 21 22  1  0
 21 23  1  0
 21 24  1  0
 24 25  2  0
 25 26  1  0
 25 27  1  0
 27 28  1  0
 27 29  2  0
 29 30  1  0
 30 31  2  0
 30 32  1  0
 32 33  1  0
 33 34  1  0
 33 35  1  0
 33 36  1  0
 29 37  1  0
 37 38  1  0
 37 39  2  0
 39 40  1  0
 20 41  1  0
 41 42  1  0
 41 43  1  0
 43 44  2  0
 44 45  1  0
 44 46  1  0
  8  3  2  0
 43 11  1  0
 39 24  1  0
M  CHG  3   4  -1   7  -1  32  -1
M  END
>  <UniqueID>  (11) 
9

>  <SMILES>  (11) 
C=c1[nH]c(Cc2ccc(C(=O)[N-]C)cc2)c(CC)/c1=C/c1[n-]c(=O)[n-]c1O

>  <Energy>  (11) 
113.07401360912253

>  <Genealogy>  (11) 
C=c1[nH]c(Cc2ccc(C(=O)[N-]C)cc2)c(CC)c1=Cc1[n-]c(=O)[n-]c1O (protonated)
C=c1[nH]c(Cc2ccc(C(=O)[N-]C)cc2)c(CC)/c1=C/c1[n-]c(=O)[n-]c1O (cis-trans isomerization)
C=c1[nH]c(Cc2ccc(C(=O)[N-]C)cc2)c(CC)/c1=C/c1[n-]c(=O)[n-]c1O (3D coordinates assigned)
C=c1[nH]c(Cc2ccc(C(=O)[N-]C)cc2)c(CC)/c1=C/c1[n-]c(=O)[n-]c1O (optimized conformer: 113.07401360912253 kcal/mol)

>  <smiles>  (11) 
C=c1[nH]c(Cc2ccc(C(=O)NC)cc2)c(CC)c1=Cc1[nH]c(=O)[nH]c1O

>  <score_type>  (11) 
oracle

>  <origin>  (11) 
adg

>  <m_score__min__energy>  (11) 
-13.34

>  <m_primary>  (11) 
energy

$$$$
11:0
     RDKit          3D

 59 63  0  0  0  0  0  0  0  0999 V2000
   66.5610   33.5140   50.6470 O   0  0  0  0  0  0  0  0  0  0  0  0
   65.6090   32.8720   50.1250 C   0  0  0  0  0  0  0  0  0  0  0  0
   65.1780   31.5800   50.7740 C   0  0  0  0  0  0  0  0  0  0  0  0
   63.7030   31.5770   51.1050 C   0  0  0  0  0  0  0  0  0  0  0  0
   62.8360   30.6550   50.4870 C   0  0  0  0  0  0  0  0  0  0  0  0
   61.4770   30.6300   50.8170 C   0  0  0  0  0  0  0  0  0  0  0  0
   60.9720   31.5150   51.7730 C   0  0  0  0  0  0  0  0  0  0  0  0
   61.8280   32.4210   52.4080 C   0  0  0  0  0  0  0  0  0  0  0  0
   63.1910   32.4450   52.0870 C   0  0  0  0  0  0  0  0  0  0  0  0
   64.9660   33.4380   48.9660 N   0  0  0  0  0  0  0  0  0  0  0  0
   63.7100   33.3970   48.6350 C   0  0  0  0  0  0  0  0  0  0  0  0
   62.7010   33.8960   49.3880 N   0  0  0  0  0  0  0  0  0  0  0  0
   61.5040   33.6990   48.7820 C   0  0  0  0  0  0  0  0  0  0  0  0
   60.2760   34.1030   49.3070 C   0  0  0  0  0  0  0  0  0  0  0  0
   59.1080   33.8510   48.5700 C   0  0  0  0  0  0  0  0  0  0  0  0
   59.1700   33.2080   47.3090 C   0  0  0  0  0  0  0  0  0  0  0  0
   57.9370   32.9620   46.5250 C   0  0  0  0  0  0  0  0  0  0  0  0
   57.0270   33.8340   46.5170 O   0  0  0  0  0  0  0  0  0  0  0  0
   57.7710   31.7890   45.7160 N   0  0  0  0  0  0  0  0  0  0  0  0
   57.5720   31.7560   44.2930 C   0  0  0  0  0  0  0  0  0  0  0  0
   58.1410   32.7500   43.4770 C   0  0  0  0  0  0  0  0  0  0  0  0
   57.9760   32.7140   42.0930 C   0  0  0  0  0  0  0  0  0  0  0  0
   57.2550   31.6790   41.5030 C   0  0  0  0  0  0  0  0  0  0  0  0
   56.7060   30.6690   42.2930 C   0  0  0  0  0  0  0  0  0  0  0  0
   56.8580   30.6870   43.6930 C   0  0  0  0  0  0  0  0  0  0  0  0
   56.2540   29.5870   44.4890 C   0  0  0  0  0  0  0  0  0  0  0  0
   55.1440   29.7430   45.0700 O   0  0  0  0  0  0  0  0  0  0  0  0
   56.9270   28.3660   44.6000 O   0  0  0  0  0  0  0  0  0  0  0  0
   58.3290   28.2340   44.3860 C   0  0  0  0  0  0  0  0  0  0  0  0
   59.0640   28.7460   45.5890 C   0  0  0  0  0  0  0  0  0  0  0  0
   58.5050   28.6300   46.8740 C   0  0  0  0  0  0  0  0  0  0  0  0
   59.2110   29.0880   47.9920 C   0  0  0  0  0  0  0  0  0  0  0  0
   60.4810   29.6540   47.8370 C   0  0  0  0  0  0  0  0  0  0  0  0
   61.0480   29.7600   46.5630 C   0  0  0  0  0  0  0  0  0  0  0  0
   60.3450   29.3050   45.4430 C   0  0  0  0  0  0  0  0  0  0  0  0
   60.4190   32.7820   46.8080 C   0  0  0  0  0  0  0  0  0  0  0  0
   61.5600   33.0460   47.5620 C   0  0  0  0  0  0  0  0  0  0  0  0
   63.1590   32.6820   47.2050 S   0  0  0  0  0  0  0  0  0  0  0  0
   65.3891   30.7488   50.0851 H   0  0  0  0  0  0  0  0  0  0  0  0
   65.7375   31.4691   51.7146 H   0  0  0  0  0  0  0  0  0  0  0  0
   63.2301   29.9501   49.7401 H   0  0  0  0  0  0  0  0  0  0  0  0
   60.8050   29.9127   50.3233 H   0  0  0  0  0  0  0  0  0  0  0  0
   59.9017   31.4993   52.0262 H   0  0  0  0  0  0  0  0  0  0  0  0
   61.4295   33.1164   53.1614 H   0  0  0  0  0  0  0  0  0  0  0  0
   63.8637   33.1449   52.6044 H   0  0  0  0  0  0  0  0  0  0  0  0
   60.2239   34.6103   50.2817 H   0  0  0  0  0  0  0  0  0  0  0  0
   58.1326   34.1565   48.9766 H   0  0  0  0  0  0  0  0  0  0  0  0
   58.7220   33.5640   43.9352 H   0  0  0  0  0  0  0  0  0  0  0  0
   58.4158   33.5040   41.4665 H   0  0  0  0  0  0  0  0  0  0  0  0
   57.1181   31.6579   40.4117 H   0  0  0  0  0  0  0  0  0  0  0  0
   56.1480   29.8491   41.8171 H   0  0  0  0  0  0  0  0  0  0  0  0
   58.5783   27.1746   44.2264 H   0  0  0  0  0  0  0  0  0  0  0  0
   58.6229   28.8151   43.4995 H   0  0  0  0  0  0  0  0  0  0  0  0
   57.5102   28.1781   47.0007 H   0  0  0  0  0  0  0  0  0  0  0  0
   58.7666   29.0028   48.9946 H   0  0  0  0  0  0  0  0  0  0  0  0
   61.0334   30.0155   48.7169 H   0  0  0  0  0  0  0  0  0  0  0  0
   62.0481   30.2018   46.4418 H   0  0  0  0  0  0  0  0  0  0  0  0
   60.7968   29.3850   44.4433 H   0  0  0  0  0  0  0  0  0  0  0  0
   60.4895   32.2543   45.8454 H   0  0  0  0  0  0  0  0  0  0  0  0
  1  2  2  0
  2  3  1  0
  3  4  1  0
  4  5  2  0
  5  6  1  0
  6  7  2  0
  7  8  1  0
  8  9  2  0
  2 10  1  0
 10 11  2  3
 11 12  1  0
 12 13  1  0
 13 14  2  0
 14 15  1  0
 15 16  2  0
 16 17  1  0
 17 18  2  0
 17 19  1  0
 19 20  1  0
 20 21  2  0
 21 22  1  0
 22 23  2  0
 23 24  1  0
 24 25  2  0
 25 26  1  0
 26 27  2  0
 26 28  1  0
 28 29  1  0
 29 30  1  0
 30 31  2  0
 31 32  1  0
 32 33  2  0
 33 34  1  0
 34 35  2  0
 16 36  1  0
 36 37  2  0
 37 38  1  0
  9  4  1  0
 38 11  1  0
 37 13  1  0
 25 20  1  0
 35 30  1  0
  3 39  1  0
  3 40  1  0
  5 41  1  0
  6 42  1  0
  7 43  1  0
  8 44  1  0
  9 45  1  0
 14 46  1  0
 15 47  1  0
 21 48  1  0
 22 49  1  0
 23 50  1  0
 24 51  1  0
 29 52  1  0
 29 53  1  0
 31 54  1  0
 32 55  1  0
 33 56  1  0
 34 57  1  0
 35 58  1  0
 36 59  1  0
M  CHG  2  12  -1  19  -1
M  END
>  <UniqueID>  (12) 
10

>  <SMILES>  (12) 
O=C(Cc1ccccc1)N=c1[n-]c2ccc(C(=O)[N-]c3ccccc3C(=O)OCc3ccccc3)cc2s1

>  <Energy>  (12) 
110.85983259300446

>  <Genealogy>  (12) 
O=C(Cc1ccccc1)N=c1[n-]c2ccc(C(=O)[N-]c3ccccc3C(=O)OCc3ccccc3)cc2s1 (protonated)
O=C(Cc1ccccc1)N=c1[n-]c2ccc(C(=O)[N-]c3ccccc3C(=O)OCc3ccccc3)cc2s1 (3D coordinates assigned)
O=C(Cc1ccccc1)N=c1[n-]c2ccc(C(=O)[N-]c3ccccc3C(=O)OCc3ccccc3)cc2s1 (optimized conformer: 110.85983259300446 kcal/mol)

>  <smiles>  (12) 
O=C(Cc1ccccc1)N=c1[nH]c2ccc(C(=O)Nc3ccccc3C(=O)OCc3ccccc3)cc2s1

>  <score_type>  (12) 
oracle

>  <origin>  (12) 
adg

>  <m_score__min__energy>  (12) 
-12.390000000000001

>  <m_primary>  (12) 
energy

$$$$
12:0
     RDKit          3D

 45 48  0  0  0  0  0  0  0  0999 V2000
   61.1330   27.8000   45.2430 O   0  0  0  0  0  0  0  0  0  0  0  0
   60.0690   28.0700   45.8580 C   0  0  0  0  0  0  0  0  0  0  0  0
   59.7140   29.4520   46.0370 N   0  0  0  0  0  0  0  0  0  0  0  0
   58.6680   30.0560   45.5550 C   0  0  0  0  0  0  0  0  0  0  0  0
   58.6630   31.3970   45.3380 N   0  0  0  0  0  0  0  0  0  0  0  0
   57.5460   32.0160   44.8820 C   0  0  0  0  0  0  0  0  0  0  0  0
   57.5590   33.7830   44.5910 S   0  0  0  0  0  0  0  0  0  0  0  0
   57.6850   34.2270   46.3560 C   0  0  0  0  0  0  0  0  0  0  0  0
   59.1130   34.1760   46.7970 C   0  0  0  0  0  0  0  0  0  0  0  0
   60.1460   34.0480   45.9230 N   0  0  0  0  0  0  0  0  0  0  0  0
   61.2070   33.9760   46.7380 C   0  0  0  0  0  0  0  0  0  0  0  0
   62.5470   33.8360   46.3840 C   0  0  0  0  0  0  0  0  0  0  0  0
   63.4940   33.7710   47.4230 C   0  0  0  0  0  0  0  0  0  0  0  0
   63.0790   33.8450   48.7730 C   0  0  0  0  0  0  0  0  0  0  0  0
   61.7150   33.9860   49.0920 C   0  0  0  0  0  0  0  0  0  0  0  0
   60.8090   34.0520   48.0370 C   0  0  0  0  0  0  0  0  0  0  0  0
   59.4770   34.1760   48.1070 N   0  0  0  0  0  0  0  0  0  0  0  0
   56.4220   31.2960   44.6460 N   0  0  0  0  0  0  0  0  0  0  0  0
   56.4190   29.9560   44.8620 C   0  0  0  0  0  0  0  0  0  0  0  0
   55.3770   29.2860   44.6420 O   0  0  0  0  0  0  0  0  0  0  0  0
   57.5390   29.3390   45.3170 N   0  0  0  0  0  0  0  0  0  0  0  0
   59.2650   26.9640   46.4180 C   0  0  0  0  0  0  0  0  0  0  0  0
   59.8260   25.8850   46.7490 O   0  0  0  0  0  0  0  0  0  0  0  0
   57.8430   27.1030   46.5560 N   0  0  0  0  0  0  0  0  0  0  0  0
   57.0150   26.0870   47.2020 C   0  0  0  0  0  0  0  0  0  0  0  0
   56.5030   25.1010   46.1840 C   0  0  0  0  0  0  0  0  0  0  0  0
   57.3070   24.0220   45.7810 C   0  0  0  0  0  0  0  0  0  0  0  0
   56.8430   23.1150   44.8240 C   0  0  0  0  0  0  0  0  0  0  0  0
   55.5750   23.2790   44.2600 C   0  0  0  0  0  0  0  0  0  0  0  0
   54.7690   24.3510   44.6520 C   0  0  0  0  0  0  0  0  0  0  0  0
   55.2270   25.2640   45.6090 C   0  0  0  0  0  0  0  0  0  0  0  0
   54.4120   26.3260   45.9830 O   0  0  0  0  0  0  0  0  0  0  0  0
   57.2944   35.2446   46.5042 H   0  0  0  0  0  0  0  0  0  0  0  0
   57.0983   33.5112   46.9505 H   0  0  0  0  0  0  0  0  0  0  0  0
   62.8542   33.7783   45.3293 H   0  0  0  0  0  0  0  0  0  0  0  0
   64.5622   33.6621   47.1839 H   0  0  0  0  0  0  0  0  0  0  0  0
   63.8263   33.7921   49.5785 H   0  0  0  0  0  0  0  0  0  0  0  0
   61.3772   34.0420   50.1374 H   0  0  0  0  0  0  0  0  0  0  0  0
   57.3800   27.9830   46.2360 H   0  0  0  0  0  0  0  0  0  0  0  0
   57.6161   25.5534   47.9529 H   0  0  0  0  0  0  0  0  0  0  0  0
   56.1577   26.5794   47.6842 H   0  0  0  0  0  0  0  0  0  0  0  0
   58.3067   23.8902   46.2207 H   0  0  0  0  0  0  0  0  0  0  0  0
   57.4768   22.2710   44.5144 H   0  0  0  0  0  0  0  0  0  0  0  0
   55.2113   22.5640   43.5073 H   0  0  0  0  0  0  0  0  0  0  0  0
   53.7711   24.4778   44.2070 H   0  0  0  0  0  0  0  0  0  0  0  0
  1  2  2  0
  2  3  1  0
  3  4  2  3
  4  5  1  0
  5  6  2  0
  6  7  1  0
  7  8  1  0
  8  9  1  0
  9 10  2  0
 10 11  1  0
 11 12  2  0
 12 13  1  0
 13 14  2  0
 14 15  1  0
 15 16  2  0
 16 17  1  0
  6 18  1  0
 18 19  1  0
 19 20  2  0
 19 21  1  0
  2 22  1  0
 22 23  2  0
 22 24  1  0
 24 25  1  0
 25 26  1  0
 26 27  2  0
 27 28  1  0
 28 29  2  0
 29 30  1  0
 30 31  2  0
 31 32  1  0
 21  4  1  0
 31 26  1  0
 17  9  1  0
 16 11  1  0
  8 33  1  0
  8 34  1  0
 12 35  1  0
 13 36  1  0
 14 37  1  0
 15 38  1  0
 24 39  1  0
 25 40  1  0
 25 41  1  0
 27 42  1  0
 28 43  1  0
 29 44  1  0
 30 45  1  0
M  CHG  4  17  -1  18  -1  21  -1  32  -1
M  END
>  <UniqueID>  (13) 
11

>  <SMILES>  (13) 
O=C(N=c1nc(SCc2nc3ccccc3[n-]2)[n-]c(=O)[n-]1)C(=O)NCc1ccccc1[O-]

>  <Energy>  (13) 
79.4259256222937

>  <Genealogy>  (13) 
O=C(N=c1nc(SCc2nc3ccccc3[n-]2)[n-]c(=O)[n-]1)C(=O)NCc1ccccc1[O-] (protonated)
O=C(N=c1nc(SCc2nc3ccccc3[n-]2)[n-]c(=O)[n-]1)C(=O)NCc1ccccc1[O-] (3D coordinates assigned)
O=C(N=c1nc(SCc2nc3ccccc3[n-]2)[n-]c(=O)[n-]1)C(=O)NCc1ccccc1[O-] (optimized conformer: 79.4259256222937 kcal/mol)

>  <smiles>  (13) 
O=C(N=c1nc(SCc2nc3ccccc3[nH]2)[nH]c(=O)[nH]1)C(=O)NCc1ccccc1O

>  <score_type>  (13) 
oracle

>  <origin>  (13) 
adg

>  <m_score__min__energy>  (13) 
-16.050000000000001

>  <m_primary>  (13) 
energy

$$$$
13:0
     RDKit          3D

 35 37  0  0  0  0  0  0  0  0999 V2000
   56.6420   34.5800   45.2550 O   0  0  0  0  0  0  0  0  0  0  0  0
   57.4660   33.6570   45.4990 C   0  0  0  0  0  0  0  0  0  0  0  0
   58.5530   33.3540   44.5190 C   0  0  0  0  0  0  0  0  0  0  0  0
   57.8950   32.4590   43.0700 S   0  0  0  0  0  0  0  0  0  0  0  0
   57.4060   31.0100   44.0020 C   0  0  0  0  0  0  0  0  0  0  0  0
   56.2330   30.8900   44.6470 N   0  0  0  0  0  0  0  0  0  0  0  0
   56.2340   29.6810   45.1860 N   0  0  0  0  0  0  0  0  0  0  0  0
   57.4120   29.1130   44.8570 C   0  0  0  0  0  0  0  0  0  0  0  0
   57.8210   27.7480   45.2540 C   0  0  0  0  0  0  0  0  0  0  0  0
   59.1820   27.3880   45.2160 C   0  0  0  0  0  0  0  0  0  0  0  0
   59.5900   26.1120   45.6100 C   0  0  0  0  0  0  0  0  0  0  0  0
   58.6460   25.1780   46.0450 C   0  0  0  0  0  0  0  0  0  0  0  0
   59.0540   23.9110   46.4460 O   0  0  0  0  0  0  0  0  0  0  0  0
   57.2880   25.5160   46.0720 C   0  0  0  0  0  0  0  0  0  0  0  0
   56.8680   26.7910   45.6660 C   0  0  0  0  0  0  0  0  0  0  0  0
   55.5070   27.0960   45.6460 O   0  0  0  0  0  0  0  0  0  0  0  0
   58.1380   29.9290   44.1280 O   0  0  0  0  0  0  0  0  0  0  0  0
   57.3540   32.8790   46.6980 N   0  0  0  0  0  0  0  0  0  0  0  0
   58.4170   32.7500   47.6880 C   0  0  0  0  0  0  0  0  0  0  0  0
   59.0820   31.4110   47.5890 C   0  0  0  0  0  0  0  0  0  0  0  0
   60.3110   31.1660   47.0060 C   0  0  0  0  0  0  0  0  0  0  0  0
   60.5460   29.8200   47.1880 C   0  0  0  0  0  0  0  0  0  0  0  0
   59.4480   29.3270   47.8670 C   0  0  0  0  0  0  0  0  0  0  0  0
   58.5920   30.2970   48.0910 O   0  0  0  0  0  0  0  0  0  0  0  0
   59.0081   34.2975   44.1831 H   0  0  0  0  0  0  0  0  0  0  0  0
   59.3035   32.7191   45.0126 H   0  0  0  0  0  0  0  0  0  0  0  0
   59.9299   28.1181   44.8731 H   0  0  0  0  0  0  0  0  0  0  0  0
   60.6558   25.8417   45.5779 H   0  0  0  0  0  0  0  0  0  0  0  0
   56.5468   24.7783   46.4132 H   0  0  0  0  0  0  0  0  0  0  0  0
   55.1440   27.8690   45.1030 H   0  0  0  0  0  0  0  0  0  0  0  0
   59.1659   33.5373   47.5167 H   0  0  0  0  0  0  0  0  0  0  0  0
   57.9764   32.8496   48.6910 H   0  0  0  0  0  0  0  0  0  0  0  0
   60.9648   31.8931   46.5022 H   0  0  0  0  0  0  0  0  0  0  0  0
   61.4293   29.2528   46.8591 H   0  0  0  0  0  0  0  0  0  0  0  0
   59.3117   28.2795   48.1737 H   0  0  0  0  0  0  0  0  0  0  0  0
  1  2  2  0
  2  3  1  0
  3  4  1  0
  4  5  1  0
  5  6  2  0
  6  7  1  0
  7  8  2  0
  8  9  1  0
  9 10  2  0
 10 11  1  0
 11 12  2  0
 12 13  1  0
 12 14  1  0
 14 15  2  0
 15 16  1  0
  8 17  1  0
  2 18  1  0
 18 19  1  0
 19 20  1  0
 20 21  2  0
 21 22  1  0
 22 23  2  0
 23 24  1  0
 17  5  1  0
 24 20  1  0
 15  9  1  0
  3 25  1  0
  3 26  1  0
 10 27  1  0
 11 28  1  0
 14 29  1  0
 16 30  1  0
 19 31  1  0
 19 32  1  0
 21 33  1  0
 22 34  1  0
 23 35  1  0
M  CHG  2  13  -1  18  -1
M  END
>  <UniqueID>  (14) 
12

>  <SMILES>  (14) 
O=C(CSc1nnc(-c2ccc([O-])cc2O)o1)[N-]Cc1ccco1

>  <Energy>  (14) 
89.13772354867409

>  <Genealogy>  (14) 
O=C(CSc1nnc(-c2ccc([O-])cc2O)o1)[N-]Cc1ccco1 (protonated)
O=C(CSc1nnc(-c2ccc([O-])cc2O)o1)[N-]Cc1ccco1 (3D coordinates assigned)
O=C(CSc1nnc(-c2ccc([O-])cc2O)o1)[N-]Cc1ccco1 (optimized conformer: 89.13772354867409 kcal/mol)

>  <smiles>  (14) 
O=C(CSc1nnc(-c2ccc(O)cc2O)o1)NCc1ccco1

>  <score_type>  (14) 
oracle

>  <origin>  (14) 
adg

>  <m_score__min__energy>  (14) 
-11.859999999999999

>  <m_primary>  (14) 
energy

$$$$
14:0
     RDKit          3D

 61 64  0  0  0  0  0  0  0  0999 V2000
   61.1430   27.1680   50.0290 C   0  0  0  0  0  0  0  0  0  0  0  0
   60.3740   28.4420   49.7980 C   0  0  0  0  0  0  0  0  0  0  0  0
   59.3400   28.4440   48.8510 C   0  0  0  0  0  0  0  0  0  0  0  0
   58.6220   29.6080   48.5890 C   0  0  0  0  0  0  0  0  0  0  0  0
   58.9270   30.7900   49.2620 C   0  0  0  0  0  0  0  0  0  0  0  0
   59.9430   30.8190   50.2360 C   0  0  0  0  0  0  0  0  0  0  0  0
   60.3160   32.0320   50.9210 N   0  0  0  0  0  0  0  0  0  0  0  0
   60.2800   33.4010   50.4900 C   0  0  0  0  0  0  0  0  0  0  0  0
   59.3260   34.1660   50.7940 O   0  0  0  0  0  0  0  0  0  0  0  0
   61.4340   33.9430   49.6950 C   0  0  0  0  0  0  0  0  0  0  0  0
   62.4190   32.8910   49.3640 N   0  0  2  0  0  0  0  0  0  0  0  0
   63.7560   33.2160   49.8880 C   0  0  0  0  0  0  0  0  0  0  0  0
   62.4960   32.6780   47.6270 S   0  0  0  0  0  0  0  0  0  0  0  0
   62.9450   33.9490   46.9610 O   0  0  0  0  0  0  0  0  0  0  0  0
   63.5060   31.6090   47.3130 O   0  0  0  0  0  0  0  0  0  0  0  0
   60.9250   32.2060   46.9700 C   0  0  0  0  0  0  0  0  0  0  0  0
   59.8520   33.1100   46.9960 C   0  0  0  0  0  0  0  0  0  0  0  0
   58.6270   32.7650   46.4210 C   0  0  0  0  0  0  0  0  0  0  0  0
   58.4670   31.5190   45.8060 C   0  0  0  0  0  0  0  0  0  0  0  0
   57.2890   31.2030   45.2220 N   0  0  0  0  0  0  0  0  0  0  0  0
   57.0950   30.0150   44.5960 C   0  0  0  0  0  0  0  0  0  0  0  0
   55.6240   29.7620   43.9080 S   0  0  0  0  0  0  0  0  0  0  0  0
   58.1120   29.0800   44.5390 N   0  0  0  0  0  0  0  0  0  0  0  0
   57.9200   27.7810   43.8520 C   0  0  0  0  0  0  0  0  0  0  0  0
   57.7820   26.6540   44.8460 C   0  0  0  0  0  0  0  0  0  0  0  0
   57.6910   26.9230   46.2230 C   0  0  0  0  0  0  0  0  0  0  0  0
   57.5520   25.8760   47.1390 C   0  0  0  0  0  0  0  0  0  0  0  0
   57.4980   24.5550   46.6910 C   0  0  0  0  0  0  0  0  0  0  0  0
   57.5800   24.2780   45.3230 C   0  0  0  0  0  0  0  0  0  0  0  0
   57.7200   25.3210   44.4020 C   0  0  0  0  0  0  0  0  0  0  0  0
   59.3230   29.3640   45.1350 C   0  0  0  0  0  0  0  0  0  0  0  0
   60.2660   28.5220   45.0980 O   0  0  0  0  0  0  0  0  0  0  0  0
   59.5270   30.5990   45.7790 C   0  0  0  0  0  0  0  0  0  0  0  0
   60.7570   30.9450   46.3740 C   0  0  0  0  0  0  0  0  0  0  0  0
   60.6540   29.6270   50.5310 C   0  0  0  0  0  0  0  0  0  0  0  0
   61.7610   29.6410   51.5620 C   0  0  0  0  0  0  0  0  0  0  0  0
   61.2480   26.9940   51.1101 H   0  0  0  0  0  0  0  0  0  0  0  0
   60.6024   26.3256   49.5728 H   0  0  0  0  0  0  0  0  0  0  0  0
   62.1403   27.2538   49.5728 H   0  0  0  0  0  0  0  0  0  0  0  0
   59.0939   27.5182   48.3104 H   0  0  0  0  0  0  0  0  0  0  0  0
   57.8099   29.5947   47.8471 H   0  0  0  0  0  0  0  0  0  0  0  0
   58.3685   31.7088   49.0298 H   0  0  0  0  0  0  0  0  0  0  0  0
   61.0492   34.3765   48.7601 H   0  0  0  0  0  0  0  0  0  0  0  0
   61.9410   34.7041   50.3063 H   0  0  0  0  0  0  0  0  0  0  0  0
   62.1100   31.9790   49.7770 H   0  0  0  0  0  0  0  0  0  0  0  0
   63.7303   33.2098   50.9877 H   0  0  0  0  0  0  0  0  0  0  0  0
   64.4804   32.4678   49.5339 H   0  0  0  0  0  0  0  0  0  0  0  0
   64.0561   34.2133   49.5339 H   0  0  0  0  0  0  0  0  0  0  0  0
   59.9763   34.0943   47.4712 H   0  0  0  0  0  0  0  0  0  0  0  0
   57.7867   33.4742   46.4518 H   0  0  0  0  0  0  0  0  0  0  0  0
   57.0090   27.8312   43.2375 H   0  0  0  0  0  0  0  0  0  0  0  0
   58.8012   27.5855   43.2233 H   0  0  0  0  0  0  0  0  0  0  0  0
   57.7294   27.9623   46.5814 H   0  0  0  0  0  0  0  0  0  0  0  0
   57.4850   26.0937   48.2152 H   0  0  0  0  0  0  0  0  0  0  0  0
   57.3910   23.7326   47.4137 H   0  0  0  0  0  0  0  0  0  0  0  0
   57.5343   23.2371   44.9703 H   0  0  0  0  0  0  0  0  0  0  0  0
   57.7818   25.0980   43.3266 H   0  0  0  0  0  0  0  0  0  0  0  0
   61.5885   30.2249   46.3717 H   0  0  0  0  0  0  0  0  0  0  0  0
   61.3226   29.6355   52.5708 H   0  0  0  0  0  0  0  0  0  0  0  0
   62.3940   28.7508   51.4324 H   0  0  0  0  0  0  0  0  0  0  0  0
   62.3713   30.5469   51.4324 H   0  0  0  0  0  0  0  0  0  0  0  0
  1  2  1  0
  2  3  2  0
  3  4  1  0
  4  5  2  0
  5  6  1  0
  6  7  1  0
  7  8  1  0
  8  9  2  0
  8 10  1  0
 10 11  1  0
 11 12  1  0
 11 13  1  0
 13 14  2  0
 13 15  2  0
 13 16  1  0
 16 17  2  0
 17 18  1  0
 18 19  2  0
 19 20  1  0
 20 21  1  0
 21 22  2  0
 21 23  1  0
 23 24  1  0
 24 25  1  0
 25 26  2  0
 26 27  1  0
 27 28  2  0
 28 29  1  0
 29 30  2  0
 23 31  1  0
 31 32  2  0
 31 33  1  0
 33 34  2  0
  6 35  2  0
 35 36  1  0
 35  2  1  0
 34 16  1  0
 33 19  1  0
 30 25  1  0
  1 37  1  0
  1 38  1  0
  1 39  1  0
  3 40  1  0
  4 41  1  0
  5 42  1  0
 10 43  1  0
 10 44  1  0
 11 45  1  1
 12 46  1  0
 12 47  1  0
 12 48  1  0
 17 49  1  0
 18 50  1  0
 24 51  1  0
 24 52  1  0
 26 53  1  0
 27 54  1  0
 28 55  1  0
 29 56  1  0
 30 57  1  0
 34 58  1  0
 36 59  1  0
 36 60  1  0
 36 61  1  0
M  CHG  3   7  -1  11   1  20  -1
M  END
>  <UniqueID>  (15) 
13

>  <SMILES>  (15) 
Cc1cccc([N-]C(=O)C[N@H+](C)S(=O)(=O)c2ccc3[n-]c(=S)n(Cc4ccccc4)c(=O)c3c2)c1C

>  <Energy>  (15) 
80.84582748550056

>  <Genealogy>  (15) 
Cc1cccc([N-]C(=O)C[NH+](C)S(=O)(=O)c2ccc3[n-]c(=S)n(Cc4ccccc4)c(=O)c3c2)c1C (protonated)
Cc1cccc([N-]C(=O)C[N@H+](C)S(=O)(=O)c2ccc3[n-]c(=S)n(Cc4ccccc4)c(=O)c3c2)c1C (chirality)
Cc1cccc([N-]C(=O)C[N@H+](C)S(=O)(=O)c2ccc3[n-]c(=S)n(Cc4ccccc4)c(=O)c3c2)c1C (3D coordinates assigned)
Cc1cccc([N-]C(=O)C[N@H+](C)S(=O)(=O)c2ccc3[n-]c(=S)n(Cc4ccccc4)c(=O)c3c2)c1C (optimized conformer: 80.84582748550056 kcal/mol)

>  <smiles>  (15) 
Cc1cccc(NC(=O)CN(C)S(=O)(=O)c2ccc3[nH]c(=S)n(Cc4ccccc4)c(=O)c3c2)c1C

>  <score_type>  (15) 
oracle

>  <origin>  (15) 
adg

>  <m_score__min__energy>  (15) 
-12.539999999999999

>  <m_primary>  (15) 
energy

$$$$
15:0
     RDKit          3D

 41 44  0  0  0  0  0  0  0  0999 V2000
   61.5920   30.2570   49.5000 C   0  0  0  0  0  0  0  0  0  0  0  0
   60.9210   29.9940   48.1940 C   0  0  0  0  0  0  0  0  0  0  0  0
   61.5020   30.1220   46.9490 C   0  0  0  0  0  0  0  0  0  0  0  0
   60.5380   29.7300   46.0450 C   0  0  0  0  0  0  0  0  0  0  0  0
   59.4320   29.3850   46.8000 C   0  0  0  0  0  0  0  0  0  0  0  0
   58.1540   28.8480   46.2890 C   0  0  0  0  0  0  0  0  0  0  0  0
   57.6880   27.5480   46.5020 C   0  0  0  0  0  0  0  0  0  0  0  0
   58.3410   26.4640   47.2680 C   0  0  0  0  0  0  0  0  0  0  0  0
   59.1210   26.7700   48.2090 O   0  0  0  0  0  0  0  0  0  0  0  0
   58.1080   25.0340   46.9550 C   0  0  0  0  0  0  0  0  0  0  0  0
   58.6850   24.4540   45.8160 C   0  0  0  0  0  0  0  0  0  0  0  0
   58.4390   23.1140   45.5090 C   0  0  0  0  0  0  0  0  0  0  0  0
   57.6250   22.3580   46.3550 C   0  0  0  0  0  0  0  0  0  0  0  0
   57.0860   22.9240   47.4650 N   0  0  0  0  0  0  0  0  0  0  0  0
   57.3080   24.2280   47.7850 C   0  0  0  0  0  0  0  0  0  0  0  0
   56.4770   27.4660   45.8360 C   0  0  0  0  0  0  0  0  0  0  0  0
   55.6350   26.3600   45.7440 O   0  0  0  0  0  0  0  0  0  0  0  0
   56.2550   28.6870   45.2500 C   0  0  0  0  0  0  0  0  0  0  0  0
   55.1350   29.0200   44.4960 O   0  0  0  0  0  0  0  0  0  0  0  0
   57.2650   29.5370   45.5240 N   0  0  0  0  0  0  0  0  0  0  0  0
   57.3040   30.9200   45.1370 C   0  0  0  0  0  0  0  0  0  0  0  0
   57.3690   31.2860   43.7830 C   0  0  0  0  0  0  0  0  0  0  0  0
   57.4260   32.6380   43.4410 C   0  0  0  0  0  0  0  0  0  0  0  0
   57.4310   33.6090   44.4430 C   0  0  0  0  0  0  0  0  0  0  0  0
   57.3870   33.2100   45.7800 C   0  0  0  0  0  0  0  0  0  0  0  0
   57.3290   31.8880   46.0950 N   0  0  0  0  0  0  0  0  0  0  0  0
   59.6920   29.5510   48.0780 O   0  0  0  0  0  0  0  0  0  0  0  0
   60.9115   29.9903   50.3221 H   0  0  0  0  0  0  0  0  0  0  0  0
   62.5074   29.6511   49.5705 H   0  0  0  0  0  0  0  0  0  0  0  0
   61.8519   31.3235   49.5705 H   0  0  0  0  0  0  0  0  0  0  0  0
   62.5226   30.4655   46.7245 H   0  0  0  0  0  0  0  0  0  0  0  0
   60.6296   29.6982   44.9493 H   0  0  0  0  0  0  0  0  0  0  0  0
   59.3332   25.0563   45.1625 H   0  0  0  0  0  0  0  0  0  0  0  0
   58.8816   22.6591   44.6106 H   0  0  0  0  0  0  0  0  0  0  0  0
   57.4203   21.3027   46.1218 H   0  0  0  0  0  0  0  0  0  0  0  0
   56.8604   24.6530   48.6955 H   0  0  0  0  0  0  0  0  0  0  0  0
   55.3620   25.9740   44.8500 H   0  0  0  0  0  0  0  0  0  0  0  0
   57.3749   30.5144   42.9991 H   0  0  0  0  0  0  0  0  0  0  0  0
   57.4669   32.9375   42.3834 H   0  0  0  0  0  0  0  0  0  0  0  0
   57.4692   34.6770   44.1823 H   0  0  0  0  0  0  0  0  0  0  0  0
   57.3992   33.9654   46.5795 H   0  0  0  0  0  0  0  0  0  0  0  0
  1  2  1  0
  2  3  2  0
  3  4  1  0
  4  5  2  0
  5  6  1  0
  6  7  2  0
  7  8  1  0
  8  9  2  0
  8 10  1  0
 10 11  2  0
 11 12  1  0
 12 13  2  0
 13 14  1  0
 14 15  2  0
  7 16  1  0
 16 17  1  0
 16 18  2  0
 18 19  1  0
 18 20  1  0
 20 21  1  0
 21 22  2  0
 22 23  1  0
 23 24  2  0
 24 25  1  0
 25 26  2  0
  5 27  1  0
 27  2  1  0
 20  6  1  0
 26 21  1  0
 15 10  1  0
  1 28  1  0
  1 29  1  0
  1 30  1  0
  3 31  1  0
  4 32  1  0
 11 33  1  0
 12 34  1  0
 13 35  1  0
 15 36  1  0
 17 37  1  0
 22 38  1  0
 23 39  1  0
 24 40  1  0
 25 41  1  0
M  CHG  1  19  -1
M  END
>  <UniqueID>  (16) 
14

>  <SMILES>  (16) 
Cc1ccc(-c2c(C(=O)c3cccnc3)c(O)c([O-])n2-c2ccccn2)o1

>  <Energy>  (16) 
113.65902617271254

>  <Genealogy>  (16) 
Cc1ccc(-c2c(C(=O)c3cccnc3)c(O)c([O-])n2-c2ccccn2)o1 (protonated)
Cc1ccc(-c2c(C(=O)c3cccnc3)c(O)c([O-])n2-c2ccccn2)o1 (3D coordinates assigned)
Cc1ccc(-c2c(C(=O)c3cccnc3)c(O)c([O-])n2-c2ccccn2)o1 (optimized conformer: 113.65902617271254 kcal/mol)

>  <smiles>  (16) 
Cc1ccc(-c2c(C(=O)c3cccnc3)c(O)c(O)n2-c2ccccn2)o1

>  <score_type>  (16) 
oracle

>  <origin>  (16) 
adg

>  <m_score__min__energy>  (16) 
-10.039999999999999

>  <m_primary>  (16) 
energy

$$$$
16:0
     RDKit          3D

 54 57  0  0  0  0  0  0  0  0999 V2000
   58.6209   30.8867   48.3067 H   0  0  0  0  0  0  0  0  0  0  0  0
   58.5240   30.4060   47.3220 C   0  0  0  0  0  0  0  0  0  0  0  0
   58.7782   29.3426   47.2017 H   0  0  0  0  0  0  0  0  0  0  0  0
   58.0950   31.1180   46.2660 C   0  0  0  0  0  0  0  0  0  0  0  0
   57.9200   30.6490   44.9520 C   0  0  0  0  0  0  0  0  0  0  0  0
   57.9800   29.4050   44.4350 C   0  0  0  0  0  0  0  0  0  0  0  0
   58.4921   29.2887   43.4684 H   0  0  0  0  0  0  0  0  0  0  0  0
   57.4200   28.1850   45.0500 C   0  0  0  0  0  0  0  0  0  0  0  0
   56.0390   28.0760   45.2700 C   0  0  0  0  0  0  0  0  0  0  0  0
   55.1760   29.0870   44.8670 O   0  0  0  0  0  0  0  0  0  0  0  0
   55.5350   26.9690   45.8760 N   0  0  0  0  0  0  0  0  0  0  0  0
   56.3480   25.9650   46.2910 C   0  0  0  0  0  0  0  0  0  0  0  0
   55.8580   24.9470   46.8450 O   0  0  0  0  0  0  0  0  0  0  0  0
   57.6910   26.0600   46.1140 N   0  0  0  0  0  0  0  0  0  0  0  0
   58.2450   27.1460   45.5150 C   0  0  0  0  0  0  0  0  0  0  0  0
   59.4970   27.2100   45.3890 O   0  0  0  0  0  0  0  0  0  0  0  0
   57.6370   31.7580   44.1780 C   0  0  0  0  0  0  0  0  0  0  0  0
   57.4806   31.7738   43.0893 H   0  0  0  0  0  0  0  0  0  0  0  0
   57.5880   32.8400   45.0290 C   0  0  0  0  0  0  0  0  0  0  0  0
   57.3360   34.2500   44.5830 C   0  0  0  0  0  0  0  0  0  0  0  0
   57.2202   34.8981   45.4642 H   0  0  0  0  0  0  0  0  0  0  0  0
   58.1857   34.6009   43.9789 H   0  0  0  0  0  0  0  0  0  0  0  0
   56.4174   34.2849   43.9789 H   0  0  0  0  0  0  0  0  0  0  0  0
   57.8610   32.4600   46.3000 N   0  0  0  0  0  0  0  0  0  0  0  0
   57.9550   33.3750   47.4510 C   0  0  0  0  0  0  0  0  0  0  0  0
   57.6502   34.3837   47.1355 H   0  0  0  0  0  0  0  0  0  0  0  0
   57.2933   33.0066   48.2488 H   0  0  0  0  0  0  0  0  0  0  0  0
   59.3660   33.4280   47.9800 C   0  0  0  0  0  0  0  0  0  0  0  0
   59.6130   33.4980   49.3580 C   0  0  0  0  0  0  0  0  0  0  0  0
   58.7709   33.5092   50.0656 H   0  0  0  0  0  0  0  0  0  0  0  0
   60.8880   33.5520   49.8230 N   0  0  0  0  0  0  0  0  0  0  0  0
   61.9730   33.5380   48.9970 C   0  0  0  0  0  0  0  0  0  0  0  0
   63.3060   33.5890   49.5590 N   0  0  0  0  0  0  0  0  0  0  0  0
   63.5640   34.2740   50.8340 C   0  0  0  0  0  0  0  0  0  0  0  0
   64.1461   35.1875   50.6426 H   0  0  0  0  0  0  0  0  0  0  0  0
   62.6015   34.5281   51.3020 H   0  0  0  0  0  0  0  0  0  0  0  0
   64.3550   33.3600   51.7880 C   0  0  0  0  0  0  0  0  0  0  0  0
   64.8745   33.9939   52.5217 H   0  0  0  0  0  0  0  0  0  0  0  0
   63.6254   32.6809   52.2532 H   0  0  0  0  0  0  0  0  0  0  0  0
   65.3660   32.5040   51.1120 N   0  0  0  0  0  0  0  0  0  0  0  0
   64.9870   31.0800   51.1480 C   0  0  0  0  0  0  0  0  0  0  0  0
   64.8992   30.7503   52.1937 H   0  0  0  0  0  0  0  0  0  0  0  0
   64.0215   30.9445   50.6386 H   0  0  0  0  0  0  0  0  0  0  0  0
   65.7574   30.4825   50.6386 H   0  0  0  0  0  0  0  0  0  0  0  0
   65.6980   32.9490   49.7430 C   0  0  0  0  0  0  0  0  0  0  0  0
   66.1496   33.9507   49.7940 H   0  0  0  0  0  0  0  0  0  0  0  0
   66.3983   32.2211   49.3074 H   0  0  0  0  0  0  0  0  0  0  0  0
   64.4530   33.0100   48.8450 C   0  0  0  0  0  0  0  0  0  0  0  0
   64.6767   33.6300   47.9643 H   0  0  0  0  0  0  0  0  0  0  0  0
   64.1922   31.9847   48.5438 H   0  0  0  0  0  0  0  0  0  0  0  0
   61.7620   33.4650   47.6080 C   0  0  0  0  0  0  0  0  0  0  0  0
   62.6197   33.4529   46.9193 H   0  0  0  0  0  0  0  0  0  0  0  0
   60.4610   33.4080   47.1070 C   0  0  0  0  0  0  0  0  0  0  0  0
   60.2946   33.3471   46.0214 H   0  0  0  0  0  0  0  0  0  0  0  0
  1  2  1  0
  2  3  1  0
  2  4  2  0
  4  5  1  0
  5  6  2  0
  6  7  1  0
  6  8  1  0
  8  9  2  0
  9 10  1  0
  9 11  1  0
 11 12  1  0
 12 13  2  0
 12 14  1  0
 14 15  1  0
 15 16  2  0
  5 17  1  0
 17 18  1  0
 17 19  2  0
 19 20  1  0
 20 21  1  0
 20 22  1  0
 20 23  1  0
 19 24  1  0
 24 25  1  0
 25 26  1  0
 25 27  1  0
 25 28  1  0
 28 29  2  0
 29 30  1  0
 29 31  1  0
 31 32  2  0
 32 33  1  0
 33 34  1  0
 34 35  1  0
 34 36  1  0
 34 37  1  0
 37 38  1  0
 37 39  1  0
 37 40  1  0
 40 41  1  0
 41 42  1  0
 41 43  1  0
 41 44  1  0
 40 45  1  0
 45 46  1  0
 45 47  1  0
 45 48  1  0
 48 49  1  0
 48 50  1  0
 32 51  1  0
 51 52  1  0
 51 53  2  0
 53 54  1  0
 24  4  1  0
 53 28  1  0
 15  8  1  0
 48 33  1  0
M  CHG  3  10  -1  11  -1  14  -1
M  END
>  <UniqueID>  (17) 
15

>  <SMILES>  (17) 
C=c1/c(=C\c2c([O-])[n-]c(=O)[n-]c2=O)cc(C)n1Cc1ccc(N2CCN(C)CC2)nc1

>  <Energy>  (17) 
110.5665576271467

>  <Genealogy>  (17) 
C=c1c(=Cc2c([O-])[n-]c(=O)[n-]c2=O)cc(C)n1Cc1ccc(N2CCN(C)CC2)nc1 (protonated)
C=c1/c(=C\c2c([O-])[n-]c(=O)[n-]c2=O)cc(C)n1Cc1ccc(N2CCN(C)CC2)nc1 (cis-trans isomerization)
C=c1/c(=C\c2c([O-])[n-]c(=O)[n-]c2=O)cc(C)n1Cc1ccc(N2CCN(C)CC2)nc1 (3D coordinates assigned)
C=c1/c(=C\c2c([O-])[n-]c(=O)[n-]c2=O)cc(C)n1Cc1ccc(N2CCN(C)CC2)nc1 (nonaromatic ring conformer: 110.5665576271467 kcal/mol)

>  <smiles>  (17) 
C=c1c(=Cc2c(O)[nH]c(=O)[nH]c2=O)cc(C)n1Cc1ccc(N2CCN(C)CC2)nc1

>  <score_type>  (17) 
oracle

>  <origin>  (17) 
adg

>  <m_score__min__energy>  (17) 
-16.09

>  <m_primary>  (17) 
energy

$$$$
17:0
     RDKit          3D

 55 58  0  0  0  0  0  0  0  0999 V2000
   55.5230   25.3180   46.6150 O   0  0  0  0  0  0  0  0  0  0  0  0
   56.2980   26.0690   45.9640 C   0  0  0  0  0  0  0  0  0  0  0  0
   57.5950   25.5290   45.4560 C   0  0  0  0  0  0  0  0  0  0  0  0
   57.3700   24.2160   44.7740 C   0  0  0  0  0  0  0  0  0  0  0  0
   56.0690   23.8570   43.7640 S   0  0  0  0  0  0  0  0  0  0  0  0
   56.6640   22.3240   43.4090 C   0  0  0  0  0  0  0  0  0  0  0  0
   56.0890   21.4980   42.6530 O   0  0  0  0  0  0  0  0  0  0  0  0
   57.8380   22.0650   44.0230 N   0  0  0  0  0  0  0  0  0  0  0  0
   58.2360   23.1240   44.7800 C   0  0  0  0  0  0  0  0  0  0  0  0
   59.4250   23.1080   45.5010 O   0  0  0  0  0  0  0  0  0  0  0  0
   55.9070   27.4040   45.6160 N   0  0  0  0  0  0  0  0  0  0  0  0
   56.7680   28.4480   45.1370 C   0  0  0  0  0  0  0  0  0  0  0  0
   56.2680   29.3440   44.1860 C   0  0  0  0  0  0  0  0  0  0  0  0
   57.0750   30.3680   43.6860 C   0  0  0  0  0  0  0  0  0  0  0  0
   58.3970   30.4920   44.1170 C   0  0  0  0  0  0  0  0  0  0  0  0
   58.9300   29.5860   45.0500 C   0  0  0  0  0  0  0  0  0  0  0  0
   60.3390   29.6980   45.4910 C   0  0  0  0  0  0  0  0  0  0  0  0
   61.2210   28.9450   44.9950 O   0  0  0  0  0  0  0  0  0  0  0  0
   60.6910   30.6450   46.4620 O   0  0  0  0  0  0  0  0  0  0  0  0
   60.5560   30.4160   47.8650 C   0  0  0  0  0  0  0  0  0  0  0  0
   59.1260   30.5710   48.3140 C   0  0  0  0  0  0  0  0  0  0  0  0
   58.5100   29.5800   48.7870 O   0  0  0  0  0  0  0  0  0  0  0  0
   58.4880   31.8530   48.3420 N   0  0  0  0  0  0  0  0  0  0  0  0
   58.4960   32.8200   47.2840 C   0  0  0  0  0  0  0  0  0  0  0  0
   57.7670   32.5990   46.1030 C   0  0  0  0  0  0  0  0  0  0  0  0
   57.7560   33.5620   45.0900 C   0  0  0  0  0  0  0  0  0  0  0  0
   58.4560   34.7600   45.2550 C   0  0  0  0  0  0  0  0  0  0  0  0
   59.1570   35.0020   46.4400 C   0  0  0  0  0  0  0  0  0  0  0  0
   59.1660   34.0440   47.4630 C   0  0  0  0  0  0  0  0  0  0  0  0
   60.0620   34.3940   48.9830 S   0  0  0  0  0  0  0  0  0  0  0  0
   61.6230   33.8250   48.3100 C   0  0  0  0  0  0  0  0  0  0  0  0
   62.5950   33.2790   49.1580 C   0  0  0  0  0  0  0  0  0  0  0  0
   63.8100   32.8290   48.6330 C   0  0  0  0  0  0  0  0  0  0  0  0
   64.0590   32.9270   47.2610 C   0  0  0  0  0  0  0  0  0  0  0  0
   63.0940   33.4790   46.4120 C   0  0  0  0  0  0  0  0  0  0  0  0
   61.8780   33.9310   46.9360 C   0  0  0  0  0  0  0  0  0  0  0  0
   58.1080   28.5590   45.5520 C   0  0  0  0  0  0  0  0  0  0  0  0
   58.0310   26.2414   44.7402 H   0  0  0  0  0  0  0  0  0  0  0  0
   58.2822   25.3834   46.3025 H   0  0  0  0  0  0  0  0  0  0  0  0
   60.2670   22.7130   45.1000 H   0  0  0  0  0  0  0  0  0  0  0  0
   55.2324   29.2412   43.8298 H   0  0  0  0  0  0  0  0  0  0  0  0
   56.6683   31.0783   42.9511 H   0  0  0  0  0  0  0  0  0  0  0  0
   59.0258   31.3043   43.7237 H   0  0  0  0  0  0  0  0  0  0  0  0
   60.8943   29.3948   48.0948 H   0  0  0  0  0  0  0  0  0  0  0  0
   61.1676   31.1597   48.3968 H   0  0  0  0  0  0  0  0  0  0  0  0
   57.2023   31.6637   45.9752 H   0  0  0  0  0  0  0  0  0  0  0  0
   57.1956   33.3765   44.1618 H   0  0  0  0  0  0  0  0  0  0  0  0
   58.4555   35.5125   44.4527 H   0  0  0  0  0  0  0  0  0  0  0  0
   59.7035   35.9477   46.5700 H   0  0  0  0  0  0  0  0  0  0  0  0
   62.4021   33.2042   50.2384 H   0  0  0  0  0  0  0  0  0  0  0  0
   64.5707   32.3974   49.3001 H   0  0  0  0  0  0  0  0  0  0  0  0
   65.0143   32.5699   46.8488 H   0  0  0  0  0  0  0  0  0  0  0  0
   63.2911   33.5577   45.3327 H   0  0  0  0  0  0  0  0  0  0  0  0
   61.1214   34.3699   46.2690 H   0  0  0  0  0  0  0  0  0  0  0  0
   58.5167   27.8374   46.2746 H   0  0  0  0  0  0  0  0  0  0  0  0
  1  2  2  0
  2  3  1  0
  3  4  1  0
  4  5  1  0
  5  6  1  0
  6  7  2  0
  6  8  1  0
  8  9  1  0
  9 10  1  0
  2 11  1  0
 11 12  1  0
 12 13  2  0
 13 14  1  0
 14 15  2  0
 15 16  1  0
 16 17  1  0
 17 18  2  0
 17 19  1  0
 19 20  1  0
 20 21  1  0
 21 22  2  0
 21 23  1  0
 23 24  1  0
 24 25  2  0
 25 26  1  0
 26 27  2  0
 27 28  1  0
 28 29  2  0
 29 30  1  0
 30 31  1  0
 31 32  2  0
 32 33  1  0
 33 34  2  0
 34 35  1  0
 35 36  2  0
 16 37  2  0
  9  4  2  0
 37 12  1  0
 29 24  1  0
 36 31  1  0
  3 38  1  0
  3 39  1  0
 10 40  1  0
 13 41  1  0
 14 42  1  0
 15 43  1  0
 20 44  1  0
 20 45  1  0
 25 46  1  0
 26 47  1  0
 27 48  1  0
 28 49  1  0
 32 50  1  0
 33 51  1  0
 34 52  1  0
 35 53  1  0
 36 54  1  0
 37 55  1  0
M  CHG  3   8  -1  11  -1  23  -1
M  END
>  <UniqueID>  (18) 
16

>  <SMILES>  (18) 
O=C(Cc1sc(=O)[n-]c1O)[N-]c1cccc(C(=O)OCC(=O)[N-]c2ccccc2Sc2ccccc2)c1

>  <Energy>  (18) 
91.50357412065951

>  <Genealogy>  (18) 
O=C(Cc1sc(=O)[n-]c1O)[N-]c1cccc(C(=O)OCC(=O)[N-]c2ccccc2Sc2ccccc2)c1 (protonated)
O=C(Cc1sc(=O)[n-]c1O)[N-]c1cccc(C(=O)OCC(=O)[N-]c2ccccc2Sc2ccccc2)c1 (3D coordinates assigned)
O=C(Cc1sc(=O)[n-]c1O)[N-]c1cccc(C(=O)OCC(=O)[N-]c2ccccc2Sc2ccccc2)c1 (optimized conformer: 91.50357412065951 kcal/mol)

>  <smiles>  (18) 
O=C(Cc1sc(=O)[nH]c1O)Nc1cccc(C(=O)OCC(=O)Nc2ccccc2Sc2ccccc2)c1

>  <score_type>  (18) 
oracle

>  <origin>  (18) 
adg

>  <m_score__min__energy>  (18) 
-14.890000000000001

>  <m_primary>  (18) 
energy

$$$$
18:0
     RDKit          3D

 59 62  0  0  0  0  0  0  0  0999 V2000
   58.3340   22.5690   44.5270 C   0  0  0  0  0  0  0  0  0  0  0  0
   57.2760   23.5740   44.8730 C   0  0  0  0  0  0  0  0  0  0  0  0
   55.9420   23.1720   45.0230 C   0  0  0  0  0  0  0  0  0  0  0  0
   54.9640   24.1010   45.3770 C   0  0  0  0  0  0  0  0  0  0  0  0
   55.3110   25.4330   45.6250 C   0  0  0  0  0  0  0  0  0  0  0  0
   54.3170   26.3340   45.9880 O   0  0  0  0  0  0  0  0  0  0  0  0
   56.6560   25.8430   45.5210 C   0  0  0  0  0  0  0  0  0  0  0  0
   57.0810   27.2570   45.8400 C   0  0  0  0  0  0  0  0  0  0  0  0
   57.4210   28.0020   44.6050 N   0  0  0  0  0  0  0  0  0  0  0  0
   58.8590   28.3700   44.5640 C   0  0  0  0  0  0  0  0  0  0  0  0
   59.5780   27.8720   45.7910 C   0  0  0  0  0  0  0  0  0  0  0  0
   60.0560   26.5540   45.8510 C   0  0  0  0  0  0  0  0  0  0  0  0
   60.6760   26.0880   47.0120 C   0  0  0  0  0  0  0  0  0  0  0  0
   60.8270   26.9480   48.0980 C   0  0  0  0  0  0  0  0  0  0  0  0
   60.3820   28.2320   48.0170 N   0  0  0  0  0  0  0  0  0  0  0  0
   59.7750   28.7100   46.8980 C   0  0  0  0  0  0  0  0  0  0  0  0
   56.5730   29.2080   44.4820 C   0  0  0  0  0  0  0  0  0  0  0  0
   57.2830   30.4170   45.0140 C   0  0  0  0  0  0  0  0  0  0  0  0
   57.4820   31.5030   44.2090 N   0  0  0  0  0  0  0  0  0  0  0  0
   58.1310   32.6160   44.6560 C   0  0  0  0  0  0  0  0  0  0  0  0
   58.2990   33.5930   43.8760 O   0  0  0  0  0  0  0  0  0  0  0  0
   58.6000   32.6410   45.9780 C   0  0  0  0  0  0  0  0  0  0  0  0
   59.2840   33.6680   46.6680 C   0  0  0  0  0  0  0  0  0  0  0  0
   59.6290   35.0070   46.0680 C   0  0  0  0  0  0  0  0  0  0  0  0
   59.6080   33.2910   47.9870 C   0  0  0  0  0  0  0  0  0  0  0  0
   60.4180   34.0690   48.9460 C   0  0  0  0  0  0  0  0  0  0  0  0
   59.8380   34.9230   49.6710 O   0  0  0  0  0  0  0  0  0  0  0  0
   61.8400   33.8850   49.0630 N   0  0  0  0  0  0  0  0  0  0  0  0
   62.6330   34.8960   49.7740 C   0  0  0  0  0  0  0  0  0  0  0  0
   62.4760   32.6490   48.5960 C   0  0  0  0  0  0  0  0  0  0  0  0
   59.0530   31.7170   48.2800 S   0  0  0  0  0  0  0  0  0  0  0  0
   58.4000   31.5150   46.7530 C   0  0  0  0  0  0  0  0  0  0  0  0
   57.7630   30.4160   46.2900 N   0  0  0  0  0  0  0  0  0  0  0  0
   57.6290   24.9090   45.1280 C   0  0  0  0  0  0  0  0  0  0  0  0
   58.7661   22.1585   45.4515 H   0  0  0  0  0  0  0  0  0  0  0  0
   57.8874   21.7545   43.9378 H   0  0  0  0  0  0  0  0  0  0  0  0
   59.1245   23.0569   43.9378 H   0  0  0  0  0  0  0  0  0  0  0  0
   55.6652   22.1198   44.8609 H   0  0  0  0  0  0  0  0  0  0  0  0
   53.9139   23.7844   45.4616 H   0  0  0  0  0  0  0  0  0  0  0  0
   56.2572   27.7724   46.3554 H   0  0  0  0  0  0  0  0  0  0  0  0
   57.9734   27.2178   46.4819 H   0  0  0  0  0  0  0  0  0  0  0  0
   59.3196   27.9229   43.6707 H   0  0  0  0  0  0  0  0  0  0  0  0
   58.9398   29.4665   44.5308 H   0  0  0  0  0  0  0  0  0  0  0  0
   59.9422   25.8878   44.9831 H   0  0  0  0  0  0  0  0  0  0  0  0
   61.0417   25.0521   47.0688 H   0  0  0  0  0  0  0  0  0  0  0  0
   61.3059   26.5893   49.0210 H   0  0  0  0  0  0  0  0  0  0  0  0
   59.4377   29.7564   46.8611 H   0  0  0  0  0  0  0  0  0  0  0  0
   56.3296   29.3707   43.4217 H   0  0  0  0  0  0  0  0  0  0  0  0
   55.6546   29.0534   45.0673 H   0  0  0  0  0  0  0  0  0  0  0  0
   59.8159   35.7325   46.8734 H   0  0  0  0  0  0  0  0  0  0  0  0
   60.5312   34.9087   45.4464 H   0  0  0  0  0  0  0  0  0  0  0  0
   58.7917   35.3569   45.4464 H   0  0  0  0  0  0  0  0  0  0  0  0
   62.5211   34.7533   50.8590 H   0  0  0  0  0  0  0  0  0  0  0  0
   63.6926   34.7917   49.4978 H   0  0  0  0  0  0  0  0  0  0  0  0
   62.2793   35.9003   49.4978 H   0  0  0  0  0  0  0  0  0  0  0  0
   62.7861   32.0463   49.4623 H   0  0  0  0  0  0  0  0  0  0  0  0
   61.7609   32.0758   47.9877 H   0  0  0  0  0  0  0  0  0  0  0  0
   63.3581   32.8977   47.9877 H   0  0  0  0  0  0  0  0  0  0  0  0
   58.6766   25.2262   45.0191 H   0  0  0  0  0  0  0  0  0  0  0  0
  1  2  1  0
  2  3  2  0
  3  4  1  0
  4  5  2  0
  5  6  1  0
  5  7  1  0
  7  8  1  0
  8  9  1  0
  9 10  1  0
 10 11  1  0
 11 12  2  0
 12 13  1  0
 13 14  2  0
 14 15  1  0
 15 16  2  0
  9 17  1  0
 17 18  1  0
 18 19  2  0
 19 20  1  0
 20 21  2  0
 20 22  1  0
 22 23  1  0
 23 24  1  0
 23 25  2  0
 25 26  1  0
 26 27  2  0
 26 28  1  0
 28 29  1  0
 28 30  1  0
 25 31  1  0
 31 32  1  0
 32 33  1  0
  7 34  2  0
 34  2  1  0
 16 11  1  0
 33 18  1  0
 32 22  2  0
  1 35  1  0
  1 36  1  0
  1 37  1  0
  3 38  1  0
  4 39  1  0
  8 40  1  0
  8 41  1  0
 10 42  1  0
 10 43  1  0
 12 44  1  0
 13 45  1  0
 14 46  1  0
 16 47  1  0
 17 48  1  0
 17 49  1  0
 24 50  1  0
 24 51  1  0
 24 52  1  0
 29 53  1  0
 29 54  1  0
 29 55  1  0
 30 56  1  0
 30 57  1  0
 30 58  1  0
 34 59  1  0
M  CHG  2   6  -1  33  -1
M  END
>  <UniqueID>  (19) 
17

>  <SMILES>  (19) 
Cc1ccc([O-])c(CN(Cc2cccnc2)Cc2nc(=O)c3c(C)c(C(=O)N(C)C)sc3[n-]2)c1

>  <Energy>  (19) 
100.16580357581081

>  <Genealogy>  (19) 
Cc1ccc([O-])c(CN(Cc2cccnc2)Cc2nc(=O)c3c(C)c(C(=O)N(C)C)sc3[n-]2)c1 (protonated)
Cc1ccc([O-])c(CN(Cc2cccnc2)Cc2nc(=O)c3c(C)c(C(=O)N(C)C)sc3[n-]2)c1 (3D coordinates assigned)
Cc1ccc([O-])c(CN(Cc2cccnc2)Cc2nc(=O)c3c(C)c(C(=O)N(C)C)sc3[n-]2)c1 (optimized conformer: 100.16580357581081 kcal/mol)

>  <smiles>  (19) 
Cc1ccc(O)c(CN(Cc2cccnc2)Cc2nc(=O)c3c(C)c(C(=O)N(C)C)sc3[nH]2)c1

>  <score_type>  (19) 
oracle

>  <origin>  (19) 
adg

>  <m_score__min__energy>  (19) 
-13.66

>  <m_primary>  (19) 
energy

$$$$
19:0
     RDKit          3D

 50 52  0  0  0  0  0  0  0  0999 V2000
   58.3860   31.1740   50.0380 C   0  0  0  0  0  0  0  0  0  0  0  0
   58.5450   31.9020   48.7080 C   0  0  0  0  0  0  0  0  0  0  0  0
   58.2740   31.0230   47.6150 O   0  0  0  0  0  0  0  0  0  0  0  0
   58.2190   31.3900   46.2580 C   0  0  0  0  0  0  0  0  0  0  0  0
   58.3900   32.7160   45.8290 C   0  0  0  0  0  0  0  0  0  0  0  0
   58.3230   33.0250   44.4680 C   0  0  0  0  0  0  0  0  0  0  0  0
   58.4980   34.2200   44.1040 O   0  0  0  0  0  0  0  0  0  0  0  0
   58.0730   32.0440   43.5450 N   0  0  0  0  0  0  0  0  0  0  0  0
   58.0370   32.3690   42.1140 C   0  0  0  0  0  0  0  0  0  0  0  0
   57.9190   30.7460   43.9420 C   0  0  0  0  0  0  0  0  0  0  0  0
   57.9980   30.3890   45.2960 C   0  0  0  0  0  0  0  0  0  0  0  0
   57.8920   28.9630   45.6870 C   0  0  0  0  0  0  0  0  0  0  0  0
   59.0170   28.2420   46.1590 C   0  0  0  0  0  0  0  0  0  0  0  0
   60.2990   28.8090   46.2250 O   0  0  0  0  0  0  0  0  0  0  0  0
   60.8050   29.5140   47.3260 C   0  0  0  0  0  0  0  0  0  0  0  0
   60.6930   29.0200   48.6380 C   0  0  0  0  0  0  0  0  0  0  0  0
   61.2380   29.7370   49.7080 C   0  0  0  0  0  0  0  0  0  0  0  0
   61.8800   30.9570   49.4780 C   0  0  0  0  0  0  0  0  0  0  0  0
   61.9710   31.4650   48.1790 C   0  0  0  0  0  0  0  0  0  0  0  0
   61.4280   30.7490   47.1070 C   0  0  0  0  0  0  0  0  0  0  0  0
   58.8550   26.9280   46.6060 C   0  0  0  0  0  0  0  0  0  0  0  0
   57.6090   26.3020   46.5440 C   0  0  0  0  0  0  0  0  0  0  0  0
   56.4930   26.9930   46.0420 C   0  0  0  0  0  0  0  0  0  0  0  0
   55.1960   26.3860   45.9590 N   0  0  0  0  0  0  0  0  0  0  0  0
   54.8750   24.6970   45.7250 S   0  0  0  0  0  0  0  0  0  0  0  0
   55.8420   24.0730   44.3680 C   0  0  0  0  0  0  0  0  0  0  0  0
   53.4190   24.5250   45.3980 O   0  0  0  0  0  0  0  0  0  0  0  0
   55.1820   23.9360   46.9840 O   0  0  0  0  0  0  0  0  0  0  0  0
   56.6400   28.3220   45.6220 C   0  0  0  0  0  0  0  0  0  0  0  0
   55.5500   29.0000   45.1790 F   0  0  0  0  0  0  0  0  0  0  0  0
   58.5408   31.8828   50.8648 H   0  0  0  0  0  0  0  0  0  0  0  0
   57.3738   30.7486   50.1044 H   0  0  0  0  0  0  0  0  0  0  0  0
   59.1287   30.3653   50.1044 H   0  0  0  0  0  0  0  0  0  0  0  0
   57.8429   32.7481   48.6734 H   0  0  0  0  0  0  0  0  0  0  0  0
   59.5811   32.2617   48.6237 H   0  0  0  0  0  0  0  0  0  0  0  0
   58.5768   33.5120   46.5648 H   0  0  0  0  0  0  0  0  0  0  0  0
   57.9167   33.4551   41.9876 H   0  0  0  0  0  0  0  0  0  0  0  0
   58.9763   32.0466   41.6410 H   0  0  0  0  0  0  0  0  0  0  0  0
   57.1910   31.8488   41.6410 H   0  0  0  0  0  0  0  0  0  0  0  0
   57.7300   29.9682   43.1875 H   0  0  0  0  0  0  0  0  0  0  0  0
   60.1754   28.0672   48.8231 H   0  0  0  0  0  0  0  0  0  0  0  0
   61.1613   29.3405   50.7312 H   0  0  0  0  0  0  0  0  0  0  0  0
   62.3137   31.5174   50.3193 H   0  0  0  0  0  0  0  0  0  0  0  0
   62.4701   32.4287   47.9996 H   0  0  0  0  0  0  0  0  0  0  0  0
   61.4906   31.1577   46.0877 H   0  0  0  0  0  0  0  0  0  0  0  0
   59.7190   26.3809   47.0112 H   0  0  0  0  0  0  0  0  0  0  0  0
   57.5001   25.2634   46.8895 H   0  0  0  0  0  0  0  0  0  0  0  0
   56.7059   23.5156   44.7592 H   0  0  0  0  0  0  0  0  0  0  0  0
   55.2220   23.4042   43.7530 H   0  0  0  0  0  0  0  0  0  0  0  0
   56.1960   24.9135   43.7530 H   0  0  0  0  0  0  0  0  0  0  0  0
  1  2  1  0
  2  3  1  0
  3  4  1  0
  4  5  2  0
  5  6  1  0
  6  7  2  0
  6  8  1  0
  8  9  1  0
  8 10  1  0
 10 11  2  0
 11 12  1  0
 12 13  1  0
 13 14  1  0
 14 15  1  0
 15 16  2  0
 16 17  1  0
 17 18  2  0
 18 19  1  0
 19 20  2  0
 13 21  2  0
 21 22  1  0
 22 23  2  0
 23 24  1  0
 24 25  1  0
 25 26  1  0
 25 27  2  0
 25 28  2  0
 23 29  1  0
 29 30  1  0
 11  4  1  0
 29 12  2  0
 20 15  1  0
  1 31  1  0
  1 32  1  0
  1 33  1  0
  2 34  1  0
  2 35  1  0
  5 36  1  0
  9 37  1  0
  9 38  1  0
  9 39  1  0
 10 40  1  0
 16 41  1  0
 17 42  1  0
 18 43  1  0
 19 44  1  0
 20 45  1  0
 21 46  1  0
 22 47  1  0
 26 48  1  0
 26 49  1  0
 26 50  1  0
M  CHG  1  24  -1
M  END
>  <UniqueID>  (20) 
18

>  <SMILES>  (20) 
CCOc1cc(=O)n(C)cc1-c1c(Oc2ccccc2)ccc([N-]S(C)(=O)=O)c1F

>  <Energy>  (20) 
63.99872428451456

>  <Genealogy>  (20) 
CCOc1cc(=O)n(C)cc1-c1c(Oc2ccccc2)ccc([N-]S(C)(=O)=O)c1F (protonated)
CCOc1cc(=O)n(C)cc1-c1c(Oc2ccccc2)ccc([N-]S(C)(=O)=O)c1F (3D coordinates assigned)
CCOc1cc(=O)n(C)cc1-c1c(Oc2ccccc2)ccc([N-]S(C)(=O)=O)c1F (optimized conformer: 63.99872428451456 kcal/mol)

>  <smiles>  (20) 
CCOc1cc(=O)n(C)cc1-c1c(Oc2ccccc2)ccc(NS(C)(=O)=O)c1F

>  <score_type>  (20) 
oracle

>  <origin>  (20) 
adg

>  <m_score__min__energy>  (20) 
-10.19

>  <m_primary>  (20) 
energy

$$$$
20:0
     RDKit          3D

 58 61  0  0  0  0  0  0  0  0999 V2000
   60.9690   31.5140   47.3190 O   0  0  0  0  0  0  0  0  0  0  0  0
   61.3510   32.6810   47.0320 C   0  0  0  0  0  0  0  0  0  0  0  0
   60.5920   33.4640   46.0010 C   0  0  0  0  0  0  0  0  0  0  0  0
   59.3480   34.0230   46.5770 N   0  0  0  0  0  0  0  0  0  0  0  0
   58.4470   34.5900   45.5430 C   0  0  0  0  0  0  0  0  0  0  0  0
   57.3910   33.5860   45.0340 C   0  0  0  0  0  0  0  0  0  0  0  0
   57.8690   32.2060   45.2220 N   0  0  0  0  0  0  0  0  0  0  0  0
   56.9790   31.2310   44.5610 C   0  0  0  0  0  0  0  0  0  0  0  0
   57.4500   29.8240   44.8360 C   0  0  0  0  0  0  0  0  0  0  0  0
   58.8300   29.5570   44.8660 C   0  0  0  0  0  0  0  0  0  0  0  0
   59.2950   28.2600   45.0990 C   0  0  0  0  0  0  0  0  0  0  0  0
   58.3880   27.2170   45.2990 C   0  0  0  0  0  0  0  0  0  0  0  0
   57.0140   27.4680   45.2660 C   0  0  0  0  0  0  0  0  0  0  0  0
   56.5410   28.7650   45.0330 C   0  0  0  0  0  0  0  0  0  0  0  0
   55.1680   28.9880   44.9950 O   0  0  0  0  0  0  0  0  0  0  0  0
   57.9990   31.8990   46.6620 C   0  0  0  0  0  0  0  0  0  0  0  0
   58.6320   33.0680   47.4510 C   0  0  0  0  0  0  0  0  0  0  0  0
   62.5370   33.2320   47.6270 N   0  0  0  0  0  0  0  0  0  0  0  0
   63.2410   32.6320   48.7280 C   0  0  0  0  0  0  0  0  0  0  0  0
   62.6360   31.6560   49.5410 C   0  0  0  0  0  0  0  0  0  0  0  0
   63.3350   31.1050   50.6200 C   0  0  0  0  0  0  0  0  0  0  0  0
   64.6380   31.5360   50.9160 C   0  0  0  0  0  0  0  0  0  0  0  0
   65.4030   30.9160   52.0530 C   0  0  0  0  0  0  0  0  0  0  0  0
   65.9920   29.5990   51.6260 C   0  0  0  0  0  0  0  0  0  0  0  0
   65.3780   28.3940   51.9980 C   0  0  0  0  0  0  0  0  0  0  0  0
   65.9600   27.1810   51.6210 C   0  0  0  0  0  0  0  0  0  0  0  0
   67.1180   27.1720   50.9080 N   0  0  0  0  0  0  0  0  0  0  0  0
   67.7390   28.3260   50.5440 C   0  0  0  0  0  0  0  0  0  0  0  0
   67.1910   29.5600   50.8990 C   0  0  0  0  0  0  0  0  0  0  0  0
   65.2370   32.5170   50.1110 C   0  0  0  0  0  0  0  0  0  0  0  0
   64.5380   33.0670   49.0330 C   0  0  0  0  0  0  0  0  0  0  0  0
   61.2232   34.2881   45.6371 H   0  0  0  0  0  0  0  0  0  0  0  0
   60.3259   32.7913   45.1724 H   0  0  0  0  0  0  0  0  0  0  0  0
   57.9249   35.4574   45.9730 H   0  0  0  0  0  0  0  0  0  0  0  0
   59.0736   34.8670   44.6824 H   0  0  0  0  0  0  0  0  0  0  0  0
   56.4558   33.7263   45.5959 H   0  0  0  0  0  0  0  0  0  0  0  0
   57.2155   33.7621   43.9625 H   0  0  0  0  0  0  0  0  0  0  0  0
   55.9561   31.3534   44.9466 H   0  0  0  0  0  0  0  0  0  0  0  0
   56.9956   31.4089   43.4756 H   0  0  0  0  0  0  0  0  0  0  0  0
   59.5483   30.3744   44.7050 H   0  0  0  0  0  0  0  0  0  0  0  0
   60.3764   28.0603   45.1249 H   0  0  0  0  0  0  0  0  0  0  0  0
   58.7558   26.1967   45.4827 H   0  0  0  0  0  0  0  0  0  0  0  0
   56.3020   26.6445   45.4235 H   0  0  0  0  0  0  0  0  0  0  0  0
   56.9993   31.6941   47.0726 H   0  0  0  0  0  0  0  0  0  0  0  0
   58.6591   31.0250   46.7638 H   0  0  0  0  0  0  0  0  0  0  0  0
   57.8340   33.6071   47.9826 H   0  0  0  0  0  0  0  0  0  0  0  0
   59.3668   32.6397   48.1486 H   0  0  0  0  0  0  0  0  0  0  0  0
   62.9660   34.0690   47.1710 H   0  0  0  0  0  0  0  0  0  0  0  0
   61.6090   31.3249   49.3272 H   0  0  0  0  0  0  0  0  0  0  0  0
   62.8612   30.3297   51.2401 H   0  0  0  0  0  0  0  0  0  0  0  0
   66.2132   31.5944   52.3585 H   0  0  0  0  0  0  0  0  0  0  0  0
   64.7175   30.7460   52.8963 H   0  0  0  0  0  0  0  0  0  0  0  0
   64.4458   28.4039   52.5818 H   0  0  0  0  0  0  0  0  0  0  0  0
   65.4806   26.2315   51.9014 H   0  0  0  0  0  0  0  0  0  0  0  0
   68.6755   28.2869   49.9683 H   0  0  0  0  0  0  0  0  0  0  0  0
   67.6954   30.4941   50.6109 H   0  0  0  0  0  0  0  0  0  0  0  0
   66.2609   32.8545   50.3294 H   0  0  0  0  0  0  0  0  0  0  0  0
   65.0098   33.8480   48.4186 H   0  0  0  0  0  0  0  0  0  0  0  0
  1  2  2  0
  2  3  1  0
  3  4  1  0
  4  5  1  0
  5  6  1  0
  6  7  1  0
  7  8  1  0
  8  9  1  0
  9 10  2  0
 10 11  1  0
 11 12  2  0
 12 13  1  0
 13 14  2  0
 14 15  1  0
  7 16  1  0
 16 17  1  0
  2 18  1  0
 18 19  1  0
 19 20  2  0
 20 21  1  0
 21 22  2  0
 22 23  1  0
 23 24  1  0
 24 25  2  0
 25 26  1  0
 26 27  2  0
 27 28  1  0
 28 29  2  0
 22 30  1  0
 30 31  2  0
 17  4  1  0
 31 19  1  0
 14  9  1  0
 29 24  1  0
  3 32  1  0
  3 33  1  0
  5 34  1  0
  5 35  1  0
  6 36  1  0
  6 37  1  0
  8 38  1  0
  8 39  1  0
 10 40  1  0
 11 41  1  0
 12 42  1  0
 13 43  1  0
 16 44  1  0
 16 45  1  0
 17 46  1  0
 17 47  1  0
 18 48  1  0
 20 49  1  0
 21 50  1  0
 23 51  1  0
 23 52  1  0
 25 53  1  0
 26 54  1  0
 28 55  1  0
 29 56  1  0
 30 57  1  0
 31 58  1  0
M  CHG  1  15  -1
M  END
>  <UniqueID>  (21) 
19

>  <SMILES>  (21) 
O=C(CN1CCN(Cc2ccccc2[O-])CC1)Nc1ccc(Cc2ccncc2)cc1

>  <Energy>  (21) 
75.37493221894191

>  <Genealogy>  (21) 
O=C(CN1CCN(Cc2ccccc2[O-])CC1)Nc1ccc(Cc2ccncc2)cc1 (protonated)
O=C(CN1CCN(Cc2ccccc2[O-])CC1)Nc1ccc(Cc2ccncc2)cc1 (3D coordinates assigned)
O=C(CN1CCN(Cc2ccccc2[O-])CC1)Nc1ccc(Cc2ccncc2)cc1 (nonaromatic ring conformer: 75.37493221894191 kcal/mol)

>  <smiles>  (21) 
O=C(CN1CCN(Cc2ccccc2O)CC1)Nc1ccc(Cc2ccncc2)cc1

>  <score_type>  (21) 
oracle

>  <origin>  (21) 
adg

>  <m_score__min__energy>  (21) 
-12.09

>  <m_primary>  (21) 
energy

$$$$
21:0
     RDKit          3D

 47 50  0  0  0  0  0  0  0  0999 V2000
   63.5529   34.9219   47.2009 H   0  0  0  0  0  0  0  0  0  0  0  0
   63.5050   33.8460   47.4250 C   0  0  0  0  0  0  0  0  0  0  0  0
   63.1840   33.3450   48.6030 C   0  0  0  0  0  0  0  0  0  0  0  0
   62.7530   34.1560   49.7620 C   0  0  0  0  0  0  0  0  0  0  0  0
   63.6160   34.6270   50.5480 O   0  0  0  0  0  0  0  0  0  0  0  0
   61.3760   34.4840   49.9730 N   0  0  0  0  0  0  0  0  0  0  0  0
   60.2900   33.5480   49.9720 C   0  0  0  0  0  0  0  0  0  0  0  0
   59.4880   33.3530   51.1110 C   0  0  0  0  0  0  0  0  0  0  0  0
   59.6992   33.9136   52.0335 H   0  0  0  0  0  0  0  0  0  0  0  0
   58.4240   32.4490   51.0730 C   0  0  0  0  0  0  0  0  0  0  0  0
   57.8073   32.2895   51.9698 H   0  0  0  0  0  0  0  0  0  0  0  0
   58.1410   31.7470   49.8990 C   0  0  0  0  0  0  0  0  0  0  0  0
   57.3036   31.0341   49.8742 H   0  0  0  0  0  0  0  0  0  0  0  0
   58.9220   31.9490   48.7520 C   0  0  0  0  0  0  0  0  0  0  0  0
   58.6190   31.2410   47.5370 N   0  0  0  0  0  0  0  0  0  0  0  0
   58.0820   31.7820   46.4210 C   0  0  0  0  0  0  0  0  0  0  0  0
   57.7420   33.2310   46.2460 C   0  0  0  0  0  0  0  0  0  0  0  0
   57.6311   33.7034   47.2332 H   0  0  0  0  0  0  0  0  0  0  0  0
   58.5470   33.7317   45.6882 H   0  0  0  0  0  0  0  0  0  0  0  0
   56.7982   33.3214   45.6882 H   0  0  0  0  0  0  0  0  0  0  0  0
   57.9260   30.8180   45.4450 C   0  0  0  0  0  0  0  0  0  0  0  0
   57.5262   30.9681   44.4313 H   0  0  0  0  0  0  0  0  0  0  0  0
   58.3720   29.6220   45.9920 C   0  0  0  0  0  0  0  0  0  0  0  0
   58.4190   28.4300   45.3670 C   0  0  0  0  0  0  0  0  0  0  0  0
   59.1540   28.2934   44.5601 H   0  0  0  0  0  0  0  0  0  0  0  0
   57.5330   27.2930   45.7090 C   0  0  0  0  0  0  0  0  0  0  0  0
   56.1330   27.3980   45.6260 C   0  0  0  0  0  0  0  0  0  0  0  0
   55.5300   28.5820   45.2160 O   0  0  0  0  0  0  0  0  0  0  0  0
   55.3540   26.3410   45.9700 N   0  0  0  0  0  0  0  0  0  0  0  0
   55.9020   25.1800   46.4120 C   0  0  0  0  0  0  0  0  0  0  0  0
   55.1590   24.2130   46.7220 O   0  0  0  0  0  0  0  0  0  0  0  0
   57.2480   25.0650   46.5280 N   0  0  0  0  0  0  0  0  0  0  0  0
   58.0730   26.0920   46.1950 C   0  0  0  0  0  0  0  0  0  0  0  0
   59.3190   25.9500   46.3190 O   0  0  0  0  0  0  0  0  0  0  0  0
   58.8030   29.9190   47.2890 C   0  0  0  0  0  0  0  0  0  0  0  0
   59.3440   29.0580   48.1660 C   0  0  0  0  0  0  0  0  0  0  0  0
   59.6473   29.4073   49.1640 H   0  0  0  0  0  0  0  0  0  0  0  0
   59.4839   28.0034   47.8864 H   0  0  0  0  0  0  0  0  0  0  0  0
   59.9880   32.8590   48.7920 C   0  0  0  0  0  0  0  0  0  0  0  0
   60.5915   33.0326   47.8889 H   0  0  0  0  0  0  0  0  0  0  0  0
   63.1960   31.8500   48.5450 C   0  0  0  0  0  0  0  0  0  0  0  0
   62.2002   31.4376   48.7650 H   0  0  0  0  0  0  0  0  0  0  0  0
   63.8718   31.3926   49.2826 H   0  0  0  0  0  0  0  0  0  0  0  0
   63.6030   31.5650   47.0920 C   0  0  0  0  0  0  0  0  0  0  0  0
   62.8138   31.0035   46.5706 H   0  0  0  0  0  0  0  0  0  0  0  0
   64.5146   30.9529   47.0264 H   0  0  0  0  0  0  0  0  0  0  0  0
   63.7730   32.8480   46.5100 O   0  0  0  0  0  0  0  0  0  0  0  0
  1  2  1  0
  2  3  2  0
  3  4  1  0
  4  5  2  0
  4  6  1  0
  6  7  1  0
  7  8  2  0
  8  9  1  0
  8 10  1  0
 10 11  1  0
 10 12  2  0
 12 13  1  0
 12 14  1  0
 14 15  1  0
 15 16  1  0
 16 17  1  0
 17 18  1  0
 17 19  1  0
 17 20  1  0
 16 21  2  0
 21 22  1  0
 21 23  1  0
 23 24  2  0
 24 25  1  0
 24 26  1  0
 26 27  2  0
 27 28  1  0
 27 29  1  0
 29 30  1  0
 30 31  2  0
 30 32  1  0
 32 33  1  0
 33 34  2  0
 23 35  1  0
 35 36  2  0
 36 37  1  0
 36 38  1  0
 14 39  2  0
 39 40  1  0
  3 41  1  0
 41 42  1  0
 41 43  1  0
 41 44  1  0
 44 45  1  0
 44 46  1  0
 44 47  1  0
 47  2  1  0
 39  7  1  0
 35 15  1  0
 33 26  1  0
M  CHG  4   6  -1  28  -1  29  -1  32  -1
M  END
>  <UniqueID>  (22) 
20

>  <SMILES>  (22) 
C=c1/c(=C/c2c([O-])[n-]c(=O)[n-]c2=O)cc(C)n1-c1cccc([N-]C(=O)C2=COCC2)c1

>  <Energy>  (22) 
112.35216508274532

>  <Genealogy>  (22) 
C=c1c(=Cc2c([O-])[n-]c(=O)[n-]c2=O)cc(C)n1-c1cccc([N-]C(=O)C2=COCC2)c1 (protonated)
C=c1/c(=C/c2c([O-])[n-]c(=O)[n-]c2=O)cc(C)n1-c1cccc([N-]C(=O)C2=COCC2)c1 (cis-trans isomerization)
C=c1/c(=C/c2c([O-])[n-]c(=O)[n-]c2=O)cc(C)n1-c1cccc([N-]C(=O)C2=COCC2)c1 (3D coordinates assigned)
C=c1/c(=C/c2c([O-])[n-]c(=O)[n-]c2=O)cc(C)n1-c1cccc([N-]C(=O)C2=COCC2)c1 (nonaromatic ring conformer: 112.35216508274532 kcal/mol)

>  <smiles>  (22) 
C=c1c(=Cc2c(O)[nH]c(=O)[nH]c2=O)cc(C)n1-c1cccc(NC(=O)C2=COCC2)c1

>  <score_type>  (22) 
oracle

>  <origin>  (22) 
adg

>  <m_score__min__energy>  (22) 
-17.550000000000001

>  <m_primary>  (22) 
energy

$$$$
22:0
     RDKit          3D

 62 65  0  0  0  0  0  0  0  0999 V2000
   59.7010   34.8040   46.8380 C   0  0  0  0  0  0  0  0  0  0  0  0
   58.9950   33.8500   45.9220 C   0  0  0  0  0  0  0  0  0  0  0  0
   59.1390   33.9670   44.5310 C   0  0  0  0  0  0  0  0  0  0  0  0
   58.4510   33.1010   43.6760 C   0  0  0  0  0  0  0  0  0  0  0  0
   57.6130   32.1040   44.1990 C   0  0  0  0  0  0  0  0  0  0  0  0
   56.8620   31.1810   43.2740 C   0  0  0  0  0  0  0  0  0  0  0  0
   57.4040   29.4410   43.4520 S   0  0  0  0  0  0  0  0  0  0  0  0
   56.6030   29.0980   45.0620 C   0  0  0  0  0  0  0  0  0  0  0  0
   57.0870   27.8020   45.6490 C   0  0  0  0  0  0  0  0  0  0  0  0
   56.2860   26.7610   46.0780 C   0  0  0  0  0  0  0  0  0  0  0  0
   54.8990   26.7060   45.9970 O   0  0  0  0  0  0  0  0  0  0  0  0
   57.0550   25.7860   46.5980 N   0  0  0  0  0  0  0  0  0  0  0  0
   56.6080   24.5550   47.2480 C   0  0  0  0  0  0  0  0  0  0  0  0
   55.8880   23.6560   46.2330 C   0  0  0  0  0  0  0  0  0  0  0  0
   56.8000   23.2280   45.1480 N   0  0  0  0  0  0  0  0  0  0  0  0
   56.8020   21.7540   44.9840 C   0  0  0  0  0  0  0  0  0  0  0  0
   57.1770   21.3490   43.5490 C   0  0  0  0  0  0  0  0  0  0  0  0
   56.2790   21.8450   42.5660 O   0  0  0  0  0  0  0  0  0  0  0  0
   55.6550   23.0700   42.9290 C   0  0  0  0  0  0  0  0  0  0  0  0
   56.5000   23.9360   43.8790 C   0  0  0  0  0  0  0  0  0  0  0  0
   58.3170   26.2510   46.4870 C   0  0  0  0  0  0  0  0  0  0  0  0
   59.3300   25.6190   46.8920 O   0  0  0  0  0  0  0  0  0  0  0  0
   58.3770   27.4690   45.9010 N   0  0  0  0  0  0  0  0  0  0  0  0
   59.5950   28.2160   45.5700 C   0  0  0  0  0  0  0  0  0  0  0  0
   59.8310   29.3030   46.5840 C   0  0  0  0  0  0  0  0  0  0  0  0
   60.8540   30.2450   46.3840 C   0  0  0  0  0  0  0  0  0  0  0  0
   61.0960   31.2370   47.3400 C   0  0  0  0  0  0  0  0  0  0  0  0
   60.3250   31.2910   48.5050 C   0  0  0  0  0  0  0  0  0  0  0  0
   59.3100   30.3530   48.7150 C   0  0  0  0  0  0  0  0  0  0  0  0
   59.0650   29.3600   47.7610 C   0  0  0  0  0  0  0  0  0  0  0  0
   57.4360   32.0170   45.5910 C   0  0  0  0  0  0  0  0  0  0  0  0
   58.1240   32.8830   46.4450 C   0  0  0  0  0  0  0  0  0  0  0  0
   59.4967   34.5280   47.8830 H   0  0  0  0  0  0  0  0  0  0  0  0
   60.7841   34.7577   46.6515 H   0  0  0  0  0  0  0  0  0  0  0  0
   59.3402   35.8263   46.6515 H   0  0  0  0  0  0  0  0  0  0  0  0
   59.7959   34.7433   44.1117 H   0  0  0  0  0  0  0  0  0  0  0  0
   58.5671   33.2016   42.5868 H   0  0  0  0  0  0  0  0  0  0  0  0
   55.7883   31.2438   43.5045 H   0  0  0  0  0  0  0  0  0  0  0  0
   57.0662   31.4963   42.2401 H   0  0  0  0  0  0  0  0  0  0  0  0
   56.8360   29.9161   45.7594 H   0  0  0  0  0  0  0  0  0  0  0  0
   55.5177   29.0212   44.8999 H   0  0  0  0  0  0  0  0  0  0  0  0
   57.4794   24.0205   47.6540 H   0  0  0  0  0  0  0  0  0  0  0  0
   55.9130   24.8087   48.0620 H   0  0  0  0  0  0  0  0  0  0  0  0
   55.5062   22.7645   46.7521 H   0  0  0  0  0  0  0  0  0  0  0  0
   55.0634   24.2303   45.7857 H   0  0  0  0  0  0  0  0  0  0  0  0
   57.5322   21.3174   45.6813 H   0  0  0  0  0  0  0  0  0  0  0  0
   55.7889   21.3811   45.1951 H   0  0  0  0  0  0  0  0  0  0  0  0
   58.1825   21.7373   43.3293 H   0  0  0  0  0  0  0  0  0  0  0  0
   57.1336   20.2509   43.5015 H   0  0  0  0  0  0  0  0  0  0  0  0
   55.4622   23.6466   42.0123 H   0  0  0  0  0  0  0  0  0  0  0  0
   54.7296   22.8131   43.4653 H   0  0  0  0  0  0  0  0  0  0  0  0
   57.4470   24.1912   43.3809 H   0  0  0  0  0  0  0  0  0  0  0  0
   55.9241   24.8417   44.1201 H   0  0  0  0  0  0  0  0  0  0  0  0
   60.4536   27.5284   45.5683 H   0  0  0  0  0  0  0  0  0  0  0  0
   59.4767   28.6724   44.5762 H   0  0  0  0  0  0  0  0  0  0  0  0
   61.4672   30.2022   45.4718 H   0  0  0  0  0  0  0  0  0  0  0  0
   61.8941   31.9757   47.1749 H   0  0  0  0  0  0  0  0  0  0  0  0
   60.5170   32.0713   49.2561 H   0  0  0  0  0  0  0  0  0  0  0  0
   58.7033   30.3959   49.6316 H   0  0  0  0  0  0  0  0  0  0  0  0
   58.2692   28.6203   47.9327 H   0  0  0  0  0  0  0  0  0  0  0  0
   56.7527   31.2636   46.0099 H   0  0  0  0  0  0  0  0  0  0  0  0
   57.9818   32.8059   47.5330 H   0  0  0  0  0  0  0  0  0  0  0  0
  1  2  1  0
  2  3  2  0
  3  4  1  0
  4  5  2  0
  5  6  1  0
  6  7  1  0
  7  8  1  0
  8  9  1  0
  9 10  2  0
 10 11  1  0
 10 12  1  0
 12 13  1  0
 13 14  1  0
 14 15  1  0
 15 16  1  0
 16 17  1  0
 17 18  1  0
 18 19  1  0
 19 20  1  0
 12 21  1  0
 21 22  2  0
 21 23  1  0
 23 24  1  0
 24 25  1  0
 25 26  2  0
 26 27  1  0
 27 28  2  0
 28 29  1  0
 29 30  2  0
  5 31  1  0
 31 32  2  0
 32  2  1  0
 23  9  1  0
 30 25  1  0
 20 15  1  0
  1 33  1  0
  1 34  1  0
  1 35  1  0
  3 36  1  0
  4 37  1  0
  6 38  1  0
  6 39  1  0
  8 40  1  0
  8 41  1  0
 13 42  1  0
 13 43  1  0
 14 44  1  0
 14 45  1  0
 16 46  1  0
 16 47  1  0
 17 48  1  0
 17 49  1  0
 19 50  1  0
 19 51  1  0
 20 52  1  0
 20 53  1  0
 24 54  1  0
 24 55  1  0
 26 56  1  0
 27 57  1  0
 28 58  1  0
 29 59  1  0
 30 60  1  0
 31 61  1  0
 32 62  1  0
M  CHG  1  11  -1
M  END
>  <UniqueID>  (23) 
21

>  <SMILES>  (23) 
Cc1ccc(CSCc2c([O-])n(CCN3CCOCC3)c(=O)n2Cc2ccccc2)cc1

>  <Energy>  (23) 
105.64853624699602

>  <Genealogy>  (23) 
Cc1ccc(CSCc2c([O-])n(CCN3CCOCC3)c(=O)n2Cc2ccccc2)cc1 (protonated)
Cc1ccc(CSCc2c([O-])n(CCN3CCOCC3)c(=O)n2Cc2ccccc2)cc1 (3D coordinates assigned)
Cc1ccc(CSCc2c([O-])n(CCN3CCOCC3)c(=O)n2Cc2ccccc2)cc1 (nonaromatic ring conformer: 105.64853624699602 kcal/mol)

>  <smiles>  (23) 
Cc1ccc(CSCc2c(O)n(CCN3CCOCC3)c(=O)n2Cc2ccccc2)cc1

>  <score_type>  (23) 
oracle

>  <origin>  (23) 
adg

>  <m_score__min__energy>  (23) 
-13.220000000000001

>  <m_primary>  (23) 
energy

$$$$
23:0
     RDKit          3D

 56 59  0  0  0  0  0  0  0  0999 V2000
   50.1300   33.4030   53.3350 H   0  0  0  0  0  0  0  0  0  0  0  0
   50.2610   33.1190   52.3710 O   0  0  0  0  0  0  0  0  0  0  0  0
   51.2000   32.1530   52.0030 C   0  0  0  0  0  0  0  0  0  0  0  0
   51.3550   31.7710   50.6590 C   0  0  0  0  0  0  0  0  0  0  0  0
   50.5610   32.3410   49.6710 O   0  0  0  0  0  0  0  0  0  0  0  0
   52.3140   30.8150   50.3090 C   0  0  0  0  0  0  0  0  0  0  0  0
   52.4343   30.5200   49.2561 H   0  0  0  0  0  0  0  0  0  0  0  0
   53.1200   30.2330   51.2910 C   0  0  0  0  0  0  0  0  0  0  0  0
   53.8921   29.5037   51.0046 H   0  0  0  0  0  0  0  0  0  0  0  0
   52.9480   30.5760   52.6440 C   0  0  0  0  0  0  0  0  0  0  0  0
   53.7840   29.9490   53.6930 C   0  0  0  0  0  0  0  0  0  0  0  0
   53.4175   29.9943   54.7292 H   0  0  0  0  0  0  0  0  0  0  0  0
   54.9560   29.3290   53.4760 C   0  0  0  0  0  0  0  0  0  0  0  0
   55.0091   28.2516   53.6914 H   0  0  0  0  0  0  0  0  0  0  0  0
   56.1760   29.9840   52.9710 C   0  0  0  0  0  0  0  0  0  0  0  0
   56.5120   31.0960   53.4560 O   0  0  0  0  0  0  0  0  0  0  0  0
   57.0180   29.3200   52.0190 N   0  0  0  0  0  0  0  0  0  0  0  0
   58.3120   29.7310   51.5560 C   0  0  0  0  0  0  0  0  0  0  0  0
   59.3370   30.1320   52.4370 C   0  0  0  0  0  0  0  0  0  0  0  0
   59.1785   30.0795   53.5242 H   0  0  0  0  0  0  0  0  0  0  0  0
   60.5540   30.5960   51.9310 C   0  0  0  0  0  0  0  0  0  0  0  0
   61.3626   30.8774   52.6216 H   0  0  0  0  0  0  0  0  0  0  0  0
   60.7480   30.7040   50.5530 C   0  0  0  0  0  0  0  0  0  0  0  0
   61.7086   31.0688   50.1604 H   0  0  0  0  0  0  0  0  0  0  0  0
   59.7170   30.3470   49.6660 C   0  0  0  0  0  0  0  0  0  0  0  0
   59.8670   30.4990   48.2480 N   0  0  0  0  0  0  0  0  0  0  0  0
   58.8250   30.2830   47.2840 C   0  0  0  0  0  0  0  0  0  0  0  0
   58.1300   31.2640   46.9100 O   0  0  0  0  0  0  0  0  0  0  0  0
   58.5700   28.9450   46.7030 C   0  0  0  0  0  0  0  0  0  0  0  0
   58.5100   27.8140   47.5320 C   0  0  0  0  0  0  0  0  0  0  0  0
   58.6020   27.9298   48.6220 H   0  0  0  0  0  0  0  0  0  0  0  0
   58.3340   26.5410   46.9810 C   0  0  0  0  0  0  0  0  0  0  0  0
   58.2972   25.6601   47.6387 H   0  0  0  0  0  0  0  0  0  0  0  0
   58.2040   26.3820   45.5920 C   0  0  0  0  0  0  0  0  0  0  0  0
   58.0530   25.0720   45.0160 N   0  0  0  0  0  0  0  0  0  0  0  0
   57.3450   24.9270   43.7340 C   0  0  0  0  0  0  0  0  0  0  0  0
   56.5224   25.6565   43.7015 H   0  0  0  0  0  0  0  0  0  0  0  0
   58.0743   25.1015   42.9292 H   0  0  0  0  0  0  0  0  0  0  0  0
   56.7580   23.5090   43.5350 C   0  0  0  0  0  0  0  0  0  0  0  0
   55.6803   23.6021   43.3352 H   0  0  0  0  0  0  0  0  0  0  0  0
   57.2971   23.0482   42.6942 H   0  0  0  0  0  0  0  0  0  0  0  0
   56.9350   22.6690   44.6560 O   0  0  0  0  0  0  0  0  0  0  0  0
   58.3040   22.6170   44.9920 C   0  0  0  0  0  0  0  0  0  0  0  0
   58.4801   21.7824   45.6865 H   0  0  0  0  0  0  0  0  0  0  0  0
   58.9010   22.4660   44.0805 H   0  0  0  0  0  0  0  0  0  0  0  0
   58.7120   23.9290   45.6580 C   0  0  0  0  0  0  0  0  0  0  0  0
   58.4250   23.8980   46.7195 H   0  0  0  0  0  0  0  0  0  0  0  0
   59.8006   24.0498   45.5564 H   0  0  0  0  0  0  0  0  0  0  0  0
   58.2280   27.5160   44.7660 C   0  0  0  0  0  0  0  0  0  0  0  0
   58.1082   27.4026   43.6784 H   0  0  0  0  0  0  0  0  0  0  0  0
   58.4030   28.7880   45.3160 C   0  0  0  0  0  0  0  0  0  0  0  0
   58.4102   29.6713   44.6605 H   0  0  0  0  0  0  0  0  0  0  0  0
   58.5170   29.8360   50.1740 C   0  0  0  0  0  0  0  0  0  0  0  0
   57.7263   29.5134   49.4807 H   0  0  0  0  0  0  0  0  0  0  0  0
   52.0000   31.5580   52.9920 C   0  0  0  0  0  0  0  0  0  0  0  0
   51.8370   31.9330   54.3220 O   0  0  0  0  0  0  0  0  0  0  0  0
  1  2  1  0
  2  3  1  0
  3  4  2  0
  4  5  1  0
  4  6  1  0
  6  7  1  0
  6  8  2  0
  8  9  1  0
  8 10  1  0
 10 11  1  0
 11 12  1  0
 11 13  2  0
 13 14  1  0
 13 15  1  0
 15 16  2  0
 15 17  1  0
 17 18  1  0
 18 19  2  0
 19 20  1  0
 19 21  1  0
 21 22  1  0
 21 23  2  0
 23 24  1  0
 23 25  1  0
 25 26  1  0
 26 27  1  0
 27 28  2  0
 27 29  1  0
 29 30  2  0
 30 31  1  0
 30 32  1  0
 32 33  1  0
 32 34  2  0
 34 35  1  0
 35 36  1  0
 36 37  1  0
 36 38  1  0
 36 39  1  0
 39 40  1  0
 39 41  1  0
 39 42  1  0
 42 43  1  0
 43 44  1  0
 43 45  1  0
 43 46  1  0
 46 47  1  0
 46 48  1  0
 34 49  1  0
 49 50  1  0
 49 51  2  0
 51 52  1  0
 25 53  2  0
 53 54  1  0
 10 55  2  0
 55 56  1  0
 55  3  1  0
 53 18  1  0
 51 29  1  0
 46 35  1  0
M  CHG  4   5  -1  17  -1  26  -1  56  -1
M  END
>  <UniqueID>  (24) 
22

>  <SMILES>  (24) 
O=C(/C=C\c1ccc([O-])c(O)c1[O-])[N-]c1cccc([N-]C(=O)c2ccc(N3CCOCC3)cc2)c1

>  <Energy>  (24) 
88.03365544421469

>  <Genealogy>  (24) 
O=C(C=Cc1ccc([O-])c(O)c1[O-])[N-]c1cccc([N-]C(=O)c2ccc(N3CCOCC3)cc2)c1 (protonated)
O=C(/C=C\c1ccc([O-])c(O)c1[O-])[N-]c1cccc([N-]C(=O)c2ccc(N3CCOCC3)cc2)c1 (cis-trans isomerization)
O=C(/C=C\c1ccc([O-])c(O)c1[O-])[N-]c1cccc([N-]C(=O)c2ccc(N3CCOCC3)cc2)c1 (3D coordinates assigned)
O=C(/C=C\c1ccc([O-])c(O)c1[O-])[N-]c1cccc([N-]C(=O)c2ccc(N3CCOCC3)cc2)c1 (nonaromatic ring conformer: 88.03365544421469 kcal/mol)

>  <smiles>  (24) 
O=C(C=Cc1ccc(O)c(O)c1O)Nc1cccc(NC(=O)c2ccc(N3CCOCC3)cc2)c1

>  <score_type>  (24) 
oracle

>  <origin>  (24) 
adg

>  <m_score__min__energy>  (24) 
-16.73

>  <m_primary>  (24) 
energy

$$$$
24:0
     RDKit          3D

 59 62  0  0  0  0  0  0  0  0999 V2000
   54.4870   30.0390   44.9640 H   0  0  0  0  0  0  0  0  0  0  0  0
   55.1700   29.3930   44.5130 N   0  0  0  0  0  0  0  0  0  0  0  0
   56.2630   29.0410   45.1080 C   0  0  0  0  0  0  0  0  0  0  0  0
   56.3870   27.7870   45.6230 N   0  0  0  0  0  0  0  0  0  0  0  0
   57.5180   27.3670   46.2530 C   0  0  0  0  0  0  0  0  0  0  0  0
   57.5580   25.9590   46.7850 C   0  0  0  0  0  0  0  0  0  0  0  0
   57.5573   25.9824   47.8848 H   0  0  0  0  0  0  0  0  0  0  0  0
   56.6752   25.4075   46.4295 H   0  0  0  0  0  0  0  0  0  0  0  0
   58.4707   25.4585   46.4295 H   0  0  0  0  0  0  0  0  0  0  0  0
   58.6200   28.2440   46.3640 C   0  0  0  0  0  0  0  0  0  0  0  0
   59.8930   27.8460   47.0650 C   0  0  0  0  0  0  0  0  0  0  0  0
   60.2901   26.9265   46.6103 H   0  0  0  0  0  0  0  0  0  0  0  0
   60.6341   28.6529   46.9663 H   0  0  0  0  0  0  0  0  0  0  0  0
   59.6160   27.6100   48.4760 N   0  0  0  0  0  0  0  0  0  0  0  0
   60.0010   28.5050   49.5260 C   0  0  0  0  0  0  0  0  0  0  0  0
   60.8270   28.1130   50.3910 O   0  0  0  0  0  0  0  0  0  0  0  0
   59.4600   29.8770   49.6120 C   0  0  0  0  0  0  0  0  0  0  0  0
   59.9150   30.8550   48.7190 C   0  0  0  0  0  0  0  0  0  0  0  0
   60.6748   30.5956   47.9670 H   0  0  0  0  0  0  0  0  0  0  0  0
   59.4120   32.1580   48.7750 C   0  0  0  0  0  0  0  0  0  0  0  0
   59.8950   33.1980   47.7920 C   0  0  0  0  0  0  0  0  0  0  0  0
   60.5590   33.9025   48.3144 H   0  0  0  0  0  0  0  0  0  0  0  0
   60.4305   32.6835   46.9805 H   0  0  0  0  0  0  0  0  0  0  0  0
   58.7650   33.9510   47.1990 N   0  0  1  0  0  0  0  0  0  0  0  0
   58.3370   34.6090   47.8980 H   0  0  0  0  0  0  0  0  0  0  0  0
   59.1690   34.7020   46.0450 C   0  0  0  0  0  0  0  0  0  0  0  0
   60.0640   35.5360   46.0860 O   0  0  0  0  0  0  0  0  0  0  0  0
   58.3820   34.4590   44.8180 C   0  0  0  0  0  0  0  0  0  0  0  0
   58.9832   33.9413   44.0560 H   0  0  0  0  0  0  0  0  0  0  0  0
   58.0326   35.3813   44.3310 H   0  0  0  0  0  0  0  0  0  0  0  0
   57.2530   33.5740   45.3220 C   0  0  0  0  0  0  0  0  0  0  0  0
   57.0786   32.7408   44.6254 H   0  0  0  0  0  0  0  0  0  0  0  0
   56.3071   34.1295   45.4038 H   0  0  0  0  0  0  0  0  0  0  0  0
   57.7180   33.0440   46.6840 C   0  0  0  0  0  0  0  0  0  0  0  0
   58.1277   32.0297   46.5688 H   0  0  0  0  0  0  0  0  0  0  0  0
   56.8715   33.0035   47.3853 H   0  0  0  0  0  0  0  0  0  0  0  0
   58.4520   32.4670   49.7470 C   0  0  0  0  0  0  0  0  0  0  0  0
   58.0377   33.4844   49.8045 H   0  0  0  0  0  0  0  0  0  0  0  0
   58.0310   31.5140   50.6190 N   0  0  0  0  0  0  0  0  0  0  0  0
   58.5080   30.2370   50.5860 C   0  0  0  0  0  0  0  0  0  0  0  0
   58.0850   29.3510   51.4410 N   0  0  0  0  0  0  0  0  0  0  0  0
   57.4870   29.6530   52.7430 C   0  0  0  0  0  0  0  0  0  0  0  0
   57.7645   28.8636   53.4571 H   0  0  0  0  0  0  0  0  0  0  0  0
   57.8622   30.6305   53.0804 H   0  0  0  0  0  0  0  0  0  0  0  0
   55.9840   29.7250   52.6490 C   0  0  0  0  0  0  0  0  0  0  0  0
   55.3640   30.8020   51.9920 C   0  0  0  0  0  0  0  0  0  0  0  0
   55.9779   31.5967   51.5430 H   0  0  0  0  0  0  0  0  0  0  0  0
   53.9680   30.8670   51.9070 C   0  0  0  0  0  0  0  0  0  0  0  0
   53.4878   31.7136   51.3944 H   0  0  0  0  0  0  0  0  0  0  0  0
   53.1830   29.8570   52.4730 C   0  0  0  0  0  0  0  0  0  0  0  0
   52.0861   29.9148   52.4149 H   0  0  0  0  0  0  0  0  0  0  0  0
   53.7930   28.7750   53.1120 C   0  0  0  0  0  0  0  0  0  0  0  0
   53.1753   27.9768   53.5494 H   0  0  0  0  0  0  0  0  0  0  0  0
   55.1870   28.7040   53.1970 C   0  0  0  0  0  0  0  0  0  0  0  0
   55.6623   27.8458   53.6947 H   0  0  0  0  0  0  0  0  0  0  0  0
   58.4970   29.5460   45.8500 C   0  0  0  0  0  0  0  0  0  0  0  0
   59.3329   30.2542   45.9483 H   0  0  0  0  0  0  0  0  0  0  0  0
   57.3210   29.9450   45.2160 C   0  0  0  0  0  0  0  0  0  0  0  0
   57.2280   30.9612   44.8054 H   0  0  0  0  0  0  0  0  0  0  0  0
  1  2  1  0
  2  3  2  0
  3  4  1  0
  4  5  1  0
  5  6  1  0
  6  7  1  0
  6  8  1  0
  6  9  1  0
  5 10  2  0
 10 11  1  0
 11 12  1  0
 11 13  1  0
 11 14  1  0
 14 15  1  0
 15 16  2  0
 15 17  1  0
 17 18  2  0
 18 19  1  0
 18 20  1  0
 20 21  1  0
 21 22  1  0
 21 23  1  0
 21 24  1  0
 24 25  1  1
 24 26  1  0
 26 27  2  0
 26 28  1  0
 28 29  1  0
 28 30  1  0
 28 31  1  0
 31 32  1  0
 31 33  1  0
 31 34  1  0
 34 35  1  0
 34 36  1  0
 20 37  2  0
 37 38  1  0
 37 39  1  0
 39 40  1  0
 40 41  2  3
 41 42  1  0
 42 43  1  0
 42 44  1  0
 42 45  1  0
 45 46  2  0
 46 47  1  0
 46 48  1  0
 48 49  1  0
 48 50  2  0
 50 51  1  0
 50 52  1  0
 52 53  1  0
 52 54  2  0
 54 55  1  0
 10 56  1  0
 56 57  1  0
 56 58  2  0
 58 59  1  0
 58  3  1  0
 40 17  1  0
 54 45  1  0
 34 24  1  0
M  CHG  4   4  -1  14  -1  24   1  39  -1
M  END
>  <UniqueID>  (25) 
23

>  <SMILES>  (25) 
[H]/N=c1/ccc(C[N-]C(=O)c2cc(C[N@@H+]3CCCC3=O)c[n-]c2=NCc2ccccc2)c(C)[n-]1

>  <Energy>  (25) 
70.52346939770354

>  <Genealogy>  (25) 
Cc1[n-]c(=N)ccc1C[N-]C(=O)c1cc(C[NH+]2CCCC2=O)c[n-]c1=NCc1ccccc1 (protonated)
Cc1[n-]c(=N)ccc1C[N-]C(=O)c1cc(C[N@@H+]2CCCC2=O)c[n-]c1=NCc1ccccc1 (chirality)
[H]/N=c1/ccc(C[N-]C(=O)c2cc(C[N@@H+]3CCCC3=O)c[n-]c2=NCc2ccccc2)c(C)[n-]1 (cis-trans isomerization)
[H]/N=c1/ccc(C[N-]C(=O)c2cc(C[N@@H+]3CCCC3=O)c[n-]c2=NCc2ccccc2)c(C)[n-]1 (3D coordinates assigned)
[H]/N=c1/ccc(C[N-]C(=O)c2cc(C[N@@H+]3CCCC3=O)c[n-]c2=NCc2ccccc2)c(C)[n-]1 (nonaromatic ring conformer: 70.52346939770354 kcal/mol)

>  <smiles>  (25) 
Cc1[nH]c(=N)ccc1CNC(=O)c1cc(CN2CCCC2=O)c[nH]c1=NCc1ccccc1

>  <score_type>  (25) 
oracle

>  <origin>  (25) 
adg

>  <m_score__min__energy>  (25) 
-11.720000000000001

>  <m_primary>  (25) 
energy

$$$$
25:0
     RDKit          3D

 37 40  0  0  0  0  0  0  0  0999 V2000
   57.5582   29.3154   43.2626 H   0  0  0  0  0  0  0  0  0  0  0  0
   57.5020   28.2770   43.6210 C   0  0  0  0  0  0  0  0  0  0  0  0
   57.2384   27.4680   42.9238 H   0  0  0  0  0  0  0  0  0  0  0  0
   57.7550   27.9970   44.9090 C   0  0  0  0  0  0  0  0  0  0  0  0
   57.7220   26.7310   45.5040 C   0  0  0  0  0  0  0  0  0  0  0  0
   57.4990   25.5480   44.9000 C   0  0  0  0  0  0  0  0  0  0  0  0
   58.2972   25.1257   44.2719 H   0  0  0  0  0  0  0  0  0  0  0  0
   56.2380   24.7860   45.0360 C   0  0  0  0  0  0  0  0  0  0  0  0
   55.1060   25.3960   45.5980 C   0  0  0  0  0  0  0  0  0  0  0  0
   55.1450   26.7270   45.9990 O   0  0  0  0  0  0  0  0  0  0  0  0
   53.9560   24.6900   45.7440 N   0  0  0  0  0  0  0  0  0  0  0  0
   53.8800   23.3880   45.3680 C   0  0  0  0  0  0  0  0  0  0  0  0
   52.8020   22.7540   45.5080 O   0  0  0  0  0  0  0  0  0  0  0  0
   54.9690   22.7660   44.8460 N   0  0  0  0  0  0  0  0  0  0  0  0
   56.1430   23.4280   44.6810 C   0  0  0  0  0  0  0  0  0  0  0  0
   57.1410   22.8080   44.2270 O   0  0  0  0  0  0  0  0  0  0  0  0
   58.0060   26.9250   46.8490 C   0  0  0  0  0  0  0  0  0  0  0  0
   58.0644   26.1489   47.6263 H   0  0  0  0  0  0  0  0  0  0  0  0
   58.2010   28.2810   47.0220 C   0  0  0  0  0  0  0  0  0  0  0  0
   58.5310   28.9330   48.3300 C   0  0  0  0  0  0  0  0  0  0  0  0
   58.2029   28.2848   49.1559 H   0  0  0  0  0  0  0  0  0  0  0  0
   59.6175   29.0909   48.3972 H   0  0  0  0  0  0  0  0  0  0  0  0
   58.0148   29.9021   48.3972 H   0  0  0  0  0  0  0  0  0  0  0  0
   58.0420   28.9330   45.8480 N   0  0  0  0  0  0  0  0  0  0  0  0
   58.1820   30.3510   45.6510 C   0  0  0  0  0  0  0  0  0  0  0  0
   57.2660   31.0470   44.8190 C   0  0  0  0  0  0  0  0  0  0  0  0
   56.4561   30.4950   44.3196 H   0  0  0  0  0  0  0  0  0  0  0  0
   57.3840   32.4360   44.6270 C   0  0  0  0  0  0  0  0  0  0  0  0
   56.6815   32.9852   43.9828 H   0  0  0  0  0  0  0  0  0  0  0  0
   58.4230   33.0880   45.2830 C   0  0  0  0  0  0  0  0  0  0  0  0
   58.8150   34.4030   45.3160 C   0  0  0  0  0  0  0  0  0  0  0  0
   58.3324   35.2349   44.7821 H   0  0  0  0  0  0  0  0  0  0  0  0
   59.9000   34.4970   46.1210 N   0  0  0  0  0  0  0  0  0  0  0  0
   60.2030   33.2900   46.5940 N   0  0  0  0  0  0  0  0  0  0  0  0
   59.3050   32.4290   46.0860 C   0  0  0  0  0  0  0  0  0  0  0  0
   59.2210   31.0560   46.2990 C   0  0  0  0  0  0  0  0  0  0  0  0
   59.9397   30.5370   46.9502 H   0  0  0  0  0  0  0  0  0  0  0  0
  1  2  1  0
  2  3  1  0
  2  4  2  0
  4  5  1  0
  5  6  2  0
  6  7  1  0
  6  8  1  0
  8  9  2  0
  9 10  1  0
  9 11  1  0
 11 12  1  0
 12 13  2  0
 12 14  1  0
 14 15  1  0
 15 16  2  0
  5 17  1  0
 17 18  1  0
 17 19  2  0
 19 20  1  0
 20 21  1  0
 20 22  1  0
 20 23  1  0
 19 24  1  0
 24 25  1  0
 25 26  1  0
 26 27  1  0
 26 28  2  0
 28 29  1  0
 28 30  1  0
 30 31  2  0
 31 32  1  0
 31 33  1  0
 33 34  1  0
 34 35  2  0
 35 36  1  0
 36 37  1  0
 24  4  1  0
 36 25  2  0
 15  8  1  0
 35 30  1  0
M  CHG  4  10  -1  11  -1  14  -1  33  -1
M  END
>  <UniqueID>  (26) 
24

>  <SMILES>  (26) 
C=c1/c(=C/c2c([O-])[n-]c(=O)[n-]c2=O)cc(C)n1-c1ccc2c[n-]nc2c1

>  <Energy>  (26) 
124.56578321890444

>  <Genealogy>  (26) 
C=c1c(=Cc2c([O-])[n-]c(=O)[n-]c2=O)cc(C)n1-c1ccc2c[n-]nc2c1 (protonated)
C=c1/c(=C/c2c([O-])[n-]c(=O)[n-]c2=O)cc(C)n1-c1ccc2c[n-]nc2c1 (cis-trans isomerization)
C=c1/c(=C/c2c([O-])[n-]c(=O)[n-]c2=O)cc(C)n1-c1ccc2c[n-]nc2c1 (3D coordinates assigned)
C=c1/c(=C/c2c([O-])[n-]c(=O)[n-]c2=O)cc(C)n1-c1ccc2c[n-]nc2c1 (optimized conformer: 124.56578321890444 kcal/mol)

>  <smiles>  (26) 
C=c1c(=Cc2c(O)[nH]c(=O)[nH]c2=O)cc(C)n1-c1ccc2c[nH]nc2c1

>  <score_type>  (26) 
oracle

>  <origin>  (26) 
adg

>  <m_score__min__energy>  (26) 
-16.199999999999999

>  <m_primary>  (26) 
energy

$$$$
26:0
     RDKit          3D

 43 45  0  0  0  0  0  0  0  0999 V2000
   55.1350   27.4940   45.3770 H   0  0  0  0  0  0  0  0  0  0  0  0
   55.0050   26.6910   45.9800 O   0  0  0  0  0  0  0  0  0  0  0  0
   56.0560   25.8160   46.2320 C   0  0  0  0  0  0  0  0  0  0  0  0
   55.8650   24.5370   46.6200 N   0  0  0  0  0  0  0  0  0  0  0  0
   57.0980   24.0020   46.7310 C   0  0  0  0  0  0  0  0  0  0  0  0
   57.3102   22.9657   47.0327 H   0  0  0  0  0  0  0  0  0  0  0  0
   58.0520   24.9410   46.4120 C   0  0  0  0  0  0  0  0  0  0  0  0
   59.4270   24.7350   46.4140 O   0  0  0  0  0  0  0  0  0  0  0  0
   57.4050   26.1150   46.0990 C   0  0  0  0  0  0  0  0  0  0  0  0
   58.0670   27.3690   45.6780 C   0  0  0  0  0  0  0  0  0  0  0  0
   58.9279   27.3007   44.9967 H   0  0  0  0  0  0  0  0  0  0  0  0
   57.6730   28.5830   46.0830 C   0  0  0  0  0  0  0  0  0  0  0  0
   57.9959   28.9447   47.0704 H   0  0  0  0  0  0  0  0  0  0  0  0
   56.8220   29.4500   45.2510 C   0  0  0  0  0  0  0  0  0  0  0  0
   55.5790   29.2480   45.1750 O   0  0  0  0  0  0  0  0  0  0  0  0
   57.4230   30.5600   44.5720 N   0  0  0  0  0  0  0  0  0  0  0  0
   57.7320   31.8440   45.1350 C   0  0  0  0  0  0  0  0  0  0  0  0
   57.4260   33.0450   44.4680 C   0  0  0  0  0  0  0  0  0  0  0  0
   56.9153   33.0174   43.4941 H   0  0  0  0  0  0  0  0  0  0  0  0
   57.7700   34.2730   45.0410 C   0  0  0  0  0  0  0  0  0  0  0  0
   57.5218   35.2095   44.5201 H   0  0  0  0  0  0  0  0  0  0  0  0
   58.4280   34.3150   46.2730 C   0  0  0  0  0  0  0  0  0  0  0  0
   58.6911   35.2838   46.7228 H   0  0  0  0  0  0  0  0  0  0  0  0
   58.7530   33.1240   46.9360 C   0  0  0  0  0  0  0  0  0  0  0  0
   59.5990   33.1610   48.4800 S   0  0  0  0  0  0  0  0  0  0  0  0
   60.0110   34.5780   48.7620 O   0  0  0  0  0  0  0  0  0  0  0  0
   58.6790   32.6880   49.5720 O   0  0  0  0  0  0  0  0  0  0  0  0
   61.0100   32.1270   48.3890 N   0  0  0  0  0  0  0  0  0  0  0  0
   61.9710   32.4090   49.4780 C   0  0  0  0  0  0  0  0  0  0  0  0
   61.4406   32.9292   50.2892 H   0  0  0  0  0  0  0  0  0  0  0  0
   62.3844   31.4463   49.8133 H   0  0  0  0  0  0  0  0  0  0  0  0
   63.1500   33.2860   49.0190 C   0  0  0  0  0  0  0  0  0  0  0  0
   63.5410   33.8481   49.8799 H   0  0  0  0  0  0  0  0  0  0  0  0
   63.9366   32.6394   48.6029 H   0  0  0  0  0  0  0  0  0  0  0  0
   62.7270   34.1920   48.0250 O   0  0  0  0  0  0  0  0  0  0  0  0
   62.4170   33.4970   46.8280 C   0  0  0  0  0  0  0  0  0  0  0  0
   61.8057   34.1549   46.1927 H   0  0  0  0  0  0  0  0  0  0  0  0
   63.3732   33.2278   46.3555 H   0  0  0  0  0  0  0  0  0  0  0  0
   61.6390   32.1790   47.0580 C   0  0  0  0  0  0  0  0  0  0  0  0
   60.8542   32.0931   46.2921 H   0  0  0  0  0  0  0  0  0  0  0  0
   62.3569   31.3482   46.9920 H   0  0  0  0  0  0  0  0  0  0  0  0
   58.4130   31.8930   46.3570 C   0  0  0  0  0  0  0  0  0  0  0  0
   58.6839   30.9572   46.8678 H   0  0  0  0  0  0  0  0  0  0  0  0
  1  2  1  0
  2  3  1  0
  3  4  1  0
  4  5  1  0
  5  6  1  0
  5  7  2  0
  7  8  1  0
  7  9  1  0
  9 10  1  0
 10 11  1  0
 10 12  2  0
 12 13  1  0
 12 14  1  0
 14 15  2  0
 14 16  1  0
 16 17  1  0
 17 18  2  0
 18 19  1  0
 18 20  1  0
 20 21  1  0
 20 22  2  0
 22 23  1  0
 22 24  1  0
 24 25  1  0
 25 26  2  0
 25 27  2  0
 25 28  1  0
 28 29  1  0
 29 30  1  0
 29 31  1  0
 29 32  1  0
 32 33  1  0
 32 34  1  0
 32 35  1  0
 35 36  1  0
 36 37  1  0
 36 38  1  0
 36 39  1  0
 39 40  1  0
 39 41  1  0
 24 42  2  0
 42 43  1  0
  9  3  2  0
 42 17  1  0
 39 28  1  0
M  CHG  3   4  -1   8  -1  16  -1
M  END
>  <UniqueID>  (27) 
25

>  <SMILES>  (27) 
O=C(/C=C/c1c([O-])c[n-]c1O)[N-]c1cccc(S(=O)(=O)N2CCOCC2)c1

>  <Energy>  (27) 
85.88671848891093

>  <Genealogy>  (27) 
O=C(C=Cc1c([O-])c[n-]c1O)[N-]c1cccc(S(=O)(=O)N2CCOCC2)c1 (protonated)
O=C(/C=C/c1c([O-])c[n-]c1O)[N-]c1cccc(S(=O)(=O)N2CCOCC2)c1 (cis-trans isomerization)
O=C(/C=C/c1c([O-])c[n-]c1O)[N-]c1cccc(S(=O)(=O)N2CCOCC2)c1 (3D coordinates assigned)
O=C(/C=C/c1c([O-])c[n-]c1O)[N-]c1cccc(S(=O)(=O)N2CCOCC2)c1 (nonaromatic ring conformer: 85.88671848891093 kcal/mol)

>  <smiles>  (27) 
O=C(C=Cc1c(O)c[nH]c1O)Nc1cccc(S(=O)(=O)N2CCOCC2)c1

>  <score_type>  (27) 
oracle

>  <origin>  (27) 
adg

>  <m_score__min__energy>  (27) 
-14.720000000000001

>  <m_primary>  (27) 
energy

$$$$
27:0
     RDKit          3D

 61 63  0  0  0  0  0  0  0  0999 V2000
   57.3270   33.5140   47.1450 O   0  0  0  0  0  0  0  0  0  0  0  0
   57.7990   33.8280   46.0210 C   0  0  0  0  0  0  0  0  0  0  0  0
   57.0300   33.4620   44.7760 C   0  0  0  0  0  0  0  0  0  0  0  0
   57.8980   32.6720   43.7900 C   0  0  0  0  0  0  0  0  0  0  0  0
   58.3820   31.4020   44.4140 C   0  0  0  0  0  0  0  0  0  0  0  0
   59.3580   31.4270   45.2680 N   0  0  0  0  0  0  0  0  0  0  0  0
   59.8150   30.2810   45.9980 C   0  0  0  0  0  0  0  0  0  0  0  0
   61.0310   29.9450   45.9580 O   0  0  0  0  0  0  0  0  0  0  0  0
   58.8700   29.5020   46.8250 C   0  0  0  0  0  0  0  0  0  0  0  0
   59.3660   28.8430   48.0990 C   0  0  0  0  0  0  0  0  0  0  0  0
   59.7300   29.8840   49.1260 C   0  0  0  0  0  0  0  0  0  0  0  0
   60.9750   29.8430   49.7760 C   0  0  0  0  0  0  0  0  0  0  0  0
   61.3180   30.8280   50.7080 C   0  0  0  0  0  0  0  0  0  0  0  0
   60.4210   31.8660   50.9990 C   0  0  0  0  0  0  0  0  0  0  0  0
   60.7550   32.8540   51.9210 O   0  0  0  0  0  0  0  0  0  0  0  0
   59.1810   31.9120   50.3550 C   0  0  0  0  0  0  0  0  0  0  0  0
   58.8350   30.9270   49.4230 C   0  0  0  0  0  0  0  0  0  0  0  0
   57.6110   29.5110   46.4800 N   0  0  0  0  0  0  0  0  0  0  0  0
   56.9350   28.5850   45.6170 C   0  0  0  0  0  0  0  0  0  0  0  0
   56.2120   29.0460   44.6960 O   0  0  0  0  0  0  0  0  0  0  0  0
   57.1610   27.1210   45.7150 C   0  0  0  0  0  0  0  0  0  0  0  0
   58.4690   26.6050   45.6200 C   0  0  0  0  0  0  0  0  0  0  0  0
   58.6990   25.2300   45.7130 C   0  0  0  0  0  0  0  0  0  0  0  0
   57.6300   24.3520   45.8980 C   0  0  0  0  0  0  0  0  0  0  0  0
   56.3270   24.8460   45.9850 C   0  0  0  0  0  0  0  0  0  0  0  0
   56.0860   26.2210   45.8960 C   0  0  0  0  0  0  0  0  0  0  0  0
   54.7770   26.6810   45.9980 O   0  0  0  0  0  0  0  0  0  0  0  0
   59.0290   34.5630   45.9770 N   0  0  0  0  0  0  0  0  0  0  0  0
   59.6370   35.3130   47.0740 C   0  0  0  0  0  0  0  0  0  0  0  0
   59.8980   34.4150   48.2900 C   0  0  0  0  0  0  0  0  0  0  0  0
   61.2700   33.7940   48.2390 C   0  0  0  0  0  0  0  0  0  0  0  0
   61.6320   32.9610   47.1660 C   0  0  0  0  0  0  0  0  0  0  0  0
   62.9060   32.3840   47.1220 C   0  0  0  0  0  0  0  0  0  0  0  0
   63.8270   32.6400   48.1410 C   0  0  0  0  0  0  0  0  0  0  0  0
   63.4790   33.4790   49.2040 C   0  0  0  0  0  0  0  0  0  0  0  0
   62.2060   34.0600   49.2520 C   0  0  0  0  0  0  0  0  0  0  0  0
   56.1625   32.8480   45.0596 H   0  0  0  0  0  0  0  0  0  0  0  0
   56.7084   34.3917   44.2838 H   0  0  0  0  0  0  0  0  0  0  0  0
   57.3028   32.4318   42.8967 H   0  0  0  0  0  0  0  0  0  0  0  0
   58.7685   33.2853   43.5141 H   0  0  0  0  0  0  0  0  0  0  0  0
   57.9094   30.4449   44.1483 H   0  0  0  0  0  0  0  0  0  0  0  0
   58.5735   28.1967   48.5042 H   0  0  0  0  0  0  0  0  0  0  0  0
   60.2602   28.2465   47.8655 H   0  0  0  0  0  0  0  0  0  0  0  0
   61.6835   29.0322   49.5508 H   0  0  0  0  0  0  0  0  0  0  0  0
   62.2939   30.7883   51.2140 H   0  0  0  0  0  0  0  0  0  0  0  0
   61.6000   32.7950   52.4780 H   0  0  0  0  0  0  0  0  0  0  0  0
   58.4752   32.7248   50.5815 H   0  0  0  0  0  0  0  0  0  0  0  0
   57.8576   30.9690   48.9201 H   0  0  0  0  0  0  0  0  0  0  0  0
   59.3162   27.2907   45.4713 H   0  0  0  0  0  0  0  0  0  0  0  0
   59.7245   24.8388   45.6403 H   0  0  0  0  0  0  0  0  0  0  0  0
   57.8141   23.2703   45.9753 H   0  0  0  0  0  0  0  0  0  0  0  0
   55.4861   24.1507   46.1242 H   0  0  0  0  0  0  0  0  0  0  0  0
   60.5922   35.7373   46.7311 H   0  0  0  0  0  0  0  0  0  0  0  0
   58.9412   36.1099   47.3755 H   0  0  0  0  0  0  0  0  0  0  0  0
   59.8142   35.0201   49.2048 H   0  0  0  0  0  0  0  0  0  0  0  0
   59.1541   33.6047   48.2843 H   0  0  0  0  0  0  0  0  0  0  0  0
   60.9117   32.7622   46.3587 H   0  0  0  0  0  0  0  0  0  0  0  0
   63.1829   31.7277   46.2837 H   0  0  0  0  0  0  0  0  0  0  0  0
   64.8262   32.1813   48.1070 H   0  0  0  0  0  0  0  0  0  0  0  0
   64.2063   33.6829   50.0037 H   0  0  0  0  0  0  0  0  0  0  0  0
   61.9382   34.7265   50.0851 H   0  0  0  0  0  0  0  0  0  0  0  0
  1  2  2  0
  2  3  1  0
  3  4  1  0
  4  5  1  0
  5  6  2  3
  6  7  1  0
  7  8  2  0
  7  9  1  0
  9 10  1  0
 10 11  1  0
 11 12  2  0
 12 13  1  0
 13 14  2  0
 14 15  1  0
 14 16  1  0
 16 17  2  0
  9 18  2  3
 18 19  1  0
 19 20  2  0
 19 21  1  0
 21 22  2  0
 22 23  1  0
 23 24  2  0
 24 25  1  0
 25 26  2  0
 26 27  1  0
  2 28  1  0
 28 29  1  0
 29 30  1  0
 30 31  1  0
 31 32  2  0
 32 33  1  0
 33 34  2  0
 34 35  1  0
 35 36  2  0
 17 11  1  0
 26 21  1  0
 36 31  1  0
  3 37  1  0
  3 38  1  0
  4 39  1  0
  4 40  1  0
  5 41  1  0
 10 42  1  0
 10 43  1  0
 12 44  1  0
 13 45  1  0
 15 46  1  0
 16 47  1  0
 17 48  1  0
 22 49  1  0
 23 50  1  0
 24 51  1  0
 25 52  1  0
 29 53  1  0
 29 54  1  0
 30 55  1  0
 30 56  1  0
 32 57  1  0
 33 58  1  0
 34 59  1  0
 35 60  1  0
 36 61  1  0
M  CHG  2  27  -1  28  -1
M  END
>  <UniqueID>  (28) 
26

>  <SMILES>  (28) 
O=C(CCC=NC(=O)C(Cc1ccc(O)cc1)=NC(=O)c1ccccc1[O-])[N-]CCc1ccccc1

>  <Energy>  (28) 
63.40696511572361

>  <Genealogy>  (28) 
O=C(CCC=NC(=O)C(Cc1ccc(O)cc1)=NC(=O)c1ccccc1[O-])[N-]CCc1ccccc1 (protonated)
O=C(CCC=NC(=O)C(Cc1ccc(O)cc1)=NC(=O)c1ccccc1[O-])[N-]CCc1ccccc1 (3D coordinates assigned)
O=C(CCC=NC(=O)C(Cc1ccc(O)cc1)=NC(=O)c1ccccc1[O-])[N-]CCc1ccccc1 (optimized conformer: 63.40696511572361 kcal/mol)

>  <smiles>  (28) 
O=C(CCC=NC(=O)C(Cc1ccc(O)cc1)=NC(=O)c1ccccc1O)NCCc1ccccc1

>  <score_type>  (28) 
oracle

>  <origin>  (28) 
adg

>  <m_score__min__energy>  (28) 
-13.94

>  <m_primary>  (28) 
energy

$$$$
28:0
     RDKit          3D

 49 52  0  0  0  0  0  0  0  0999 V2000
   54.7670   27.4620   46.3150 H   0  0  0  0  0  0  0  0  0  0  0  0
   55.4410   26.7360   46.1130 O   0  0  0  0  0  0  0  0  0  0  0  0
   56.8110   26.9760   45.9650 C   0  0  0  0  0  0  0  0  0  0  0  0
   57.7030   26.0040   46.4480 C   0  0  0  0  0  0  0  0  0  0  0  0
   57.1720   24.8260   46.9980 O   0  0  0  0  0  0  0  0  0  0  0  0
   56.4120   23.8660   46.2680 C   0  0  0  0  0  0  0  0  0  0  0  0
   55.8869   23.2027   46.9710 H   0  0  0  0  0  0  0  0  0  0  0  0
   55.6772   24.3848   45.6348 H   0  0  0  0  0  0  0  0  0  0  0  0
   57.0855   23.2698   45.6348 H   0  0  0  0  0  0  0  0  0  0  0  0
   59.0880   26.2360   46.3810 C   0  0  0  0  0  0  0  0  0  0  0  0
   59.7895   25.4755   46.7546 H   0  0  0  0  0  0  0  0  0  0  0  0
   59.5760   27.4260   45.8430 C   0  0  0  0  0  0  0  0  0  0  0  0
   60.6603   27.6082   45.8097 H   0  0  0  0  0  0  0  0  0  0  0  0
   58.6950   28.3860   45.3470 C   0  0  0  0  0  0  0  0  0  0  0  0
   59.0900   29.3219   44.9251 H   0  0  0  0  0  0  0  0  0  0  0  0
   57.3070   28.1690   45.3810 C   0  0  0  0  0  0  0  0  0  0  0  0
   56.4160   29.1830   44.7750 C   0  0  0  0  0  0  0  0  0  0  0  0
   55.1660   29.0560   44.8720 O   0  0  0  0  0  0  0  0  0  0  0  0
   56.9850   30.2250   43.9630 N   0  0  0  0  0  0  0  0  0  0  0  0
   57.4720   31.3790   44.3290 C   0  0  0  0  0  0  0  0  0  0  0  0
   57.6390   31.6140   45.6570 N   0  0  0  0  0  0  0  0  0  0  0  0
   58.1230   32.7960   46.1280 C   0  0  0  0  0  0  0  0  0  0  0  0
   58.3150   33.0100   47.4990 O   0  0  0  0  0  0  0  0  0  0  0  0
   59.5600   33.0950   48.1380 C   0  0  0  0  0  0  0  0  0  0  0  0
   59.7110   33.6670   49.4140 C   0  0  0  0  0  0  0  0  0  0  0  0
   58.8314   34.0598   49.9450 H   0  0  0  0  0  0  0  0  0  0  0  0
   60.9730   33.7390   50.0110 C   0  0  0  0  0  0  0  0  0  0  0  0
   61.0779   34.1792   51.0136 H   0  0  0  0  0  0  0  0  0  0  0  0
   62.1100   33.2530   49.3400 C   0  0  0  0  0  0  0  0  0  0  0  0
   63.4510   33.3280   49.9750 C   0  0  0  0  0  0  0  0  0  0  0  0
   64.5340   32.5990   49.4480 C   0  0  0  0  0  0  0  0  0  0  0  0
   64.3871   31.9673   48.5595 H   0  0  0  0  0  0  0  0  0  0  0  0
   65.7950   32.6730   50.0470 C   0  0  0  0  0  0  0  0  0  0  0  0
   66.6365   32.1019   49.6278 H   0  0  0  0  0  0  0  0  0  0  0  0
   65.9880   33.4710   51.1770 C   0  0  0  0  0  0  0  0  0  0  0  0
   66.9808   33.5267   51.6474 H   0  0  0  0  0  0  0  0  0  0  0  0
   64.9220   34.1980   51.7100 C   0  0  0  0  0  0  0  0  0  0  0  0
   65.0759   34.8254   52.6003 H   0  0  0  0  0  0  0  0  0  0  0  0
   63.6590   34.1300   51.1140 C   0  0  0  0  0  0  0  0  0  0  0  0
   62.8230   34.7062   51.5371 H   0  0  0  0  0  0  0  0  0  0  0  0
   61.9550   32.7030   48.0540 C   0  0  0  0  0  0  0  0  0  0  0  0
   62.8349   32.3260   47.5121 H   0  0  0  0  0  0  0  0  0  0  0  0
   60.6920   32.6320   47.4600 C   0  0  0  0  0  0  0  0  0  0  0  0
   60.5874   32.2082   46.4503 H   0  0  0  0  0  0  0  0  0  0  0  0
   58.4720   33.7950   45.2200 C   0  0  0  0  0  0  0  0  0  0  0  0
   58.8897   34.7478   45.5773 H   0  0  0  0  0  0  0  0  0  0  0  0
   58.2920   33.5820   43.8910 N   0  0  0  0  0  0  0  0  0  0  0  0
   57.7990   32.4070   43.4200 C   0  0  0  0  0  0  0  0  0  0  0  0
   57.6561   32.2585   42.3395 H   0  0  0  0  0  0  0  0  0  0  0  0
  1  2  1  0
  2  3  1  0
  3  4  2  0
  4  5  1  0
  5  6  1  0
  6  7  1  0
  6  8  1  0
  6  9  1  0
  4 10  1  0
 10 11  1  0
 10 12  2  0
 12 13  1  0
 12 14  1  0
 14 15  1  0
 14 16  2  0
 16 17  1  0
 17 18  2  0
 17 19  1  0
 19 20  2  0
 20 21  1  0
 21 22  1  0
 22 23  1  0
 23 24  1  0
 24 25  2  0
 25 26  1  0
 25 27  1  0
 27 28  1  0
 27 29  2  0
 29 30  1  0
 30 31  2  0
 31 32  1  0
 31 33  1  0
 33 34  1  0
 33 35  2  0
 35 36  1  0
 35 37  1  0
 37 38  1  0
 37 39  2  0
 39 40  1  0
 29 41  1  0
 41 42  1  0
 41 43  2  0
 43 44  1  0
 22 45  2  0
 45 46  1  0
 45 47  1  0
 47 48  2  0
 48 49  1  0
 16  3  1  0
 48 20  1  0
 43 24  1  0
 39 30  1  0
M  CHG  1  21  -1
M  END
>  <UniqueID>  (29) 
27

>  <SMILES>  (29) 
COc1cccc(C(=O)/N=c2\cncc(Oc3ccc(-c4ccccc4)cc3)[n-]2)c1O

>  <Energy>  (29) 
78.47645128856348

>  <Genealogy>  (29) 
COc1cccc(C(=O)N=c2cncc(Oc3ccc(-c4ccccc4)cc3)[n-]2)c1O (protonated)
COc1cccc(C(=O)/N=c2\cncc(Oc3ccc(-c4ccccc4)cc3)[n-]2)c1O (cis-trans isomerization)
COc1cccc(C(=O)/N=c2\cncc(Oc3ccc(-c4ccccc4)cc3)[n-]2)c1O (3D coordinates assigned)
COc1cccc(C(=O)/N=c2\cncc(Oc3ccc(-c4ccccc4)cc3)[n-]2)c1O (optimized conformer: 78.47645128856348 kcal/mol)

>  <smiles>  (29) 
COc1cccc(C(=O)N=c2cncc(Oc3ccc(-c4ccccc4)cc3)[nH]2)c1O

>  <score_type>  (29) 
oracle

>  <origin>  (29) 
adg

>  <m_score__min__energy>  (29) 
-11.99

>  <m_primary>  (29) 
energy

$$$$
29:0
     RDKit          3D

 42 45  0  0  0  0  0  0  0  0999 V2000
   54.7900   27.0810   46.4710 H   0  0  0  0  0  0  0  0  0  0  0  0
   54.7350   26.1660   45.9680 N   0  0  0  0  0  0  0  0  0  0  0  0
   55.5980   25.0870   46.3150 C   0  0  0  0  0  0  0  0  0  0  0  0
   55.1550   24.1200   46.9900 O   0  0  0  0  0  0  0  0  0  0  0  0
   57.0160   25.0820   45.8390 C   0  0  0  0  0  0  0  0  0  0  0  0
   57.6836   24.8680   46.6867 H   0  0  0  0  0  0  0  0  0  0  0  0
   57.1334   24.3087   45.0656 H   0  0  0  0  0  0  0  0  0  0  0  0
   57.3690   26.4200   45.2540 C   0  0  0  0  0  0  0  0  0  0  0  0
   57.7780   26.5200   43.9000 C   0  0  0  0  0  0  0  0  0  0  0  0
   57.8119   25.6164   43.2737 H   0  0  0  0  0  0  0  0  0  0  0  0
   58.1410   27.7630   43.3490 C   0  0  0  0  0  0  0  0  0  0  0  0
   58.4510   27.8491   42.2971 H   0  0  0  0  0  0  0  0  0  0  0  0
   58.0950   28.8810   44.1790 C   0  0  0  0  0  0  0  0  0  0  0  0
   57.7120   28.7900   45.4910 C   0  0  0  0  0  0  0  0  0  0  0  0
   57.3450   27.5760   46.0680 C   0  0  0  0  0  0  0  0  0  0  0  0
   57.0456   27.5186   47.1249 H   0  0  0  0  0  0  0  0  0  0  0  0
   57.7760   30.0550   46.0330 C   0  0  0  0  0  0  0  0  0  0  0  0
   57.5385   30.3566   47.0638 H   0  0  0  0  0  0  0  0  0  0  0  0
   58.2080   30.8680   44.9870 C   0  0  0  0  0  0  0  0  0  0  0  0
   58.4200   32.3170   45.0700 C   0  0  0  0  0  0  0  0  0  0  0  0
   58.2530   33.1750   44.0440 N   0  0  0  0  0  0  0  0  0  0  0  0
   58.5510   34.3780   44.5090 N   0  0  0  0  0  0  0  0  0  0  0  0
   58.8880   34.1970   45.7990 C   0  0  0  0  0  0  0  0  0  0  0  0
   59.2540   35.1630   46.5840 N   0  0  0  0  0  0  0  0  0  0  0  0
   59.7830   34.9530   47.9310 C   0  0  0  0  0  0  0  0  0  0  0  0
   60.3121   35.8607   48.2568 H   0  0  0  0  0  0  0  0  0  0  0  0
   58.9454   34.7351   48.6099 H   0  0  0  0  0  0  0  0  0  0  0  0
   60.7390   33.7890   47.9520 C   0  0  0  0  0  0  0  0  0  0  0  0
   60.3680   32.5720   48.5490 C   0  0  0  0  0  0  0  0  0  0  0  0
   59.3872   32.4788   49.0382 H   0  0  0  0  0  0  0  0  0  0  0  0
   61.2400   31.4790   48.5240 C   0  0  0  0  0  0  0  0  0  0  0  0
   60.7610   29.9600   49.2580 Cl  0  0  0  0  0  0  0  0  0  0  0  0
   62.4890   31.5950   47.9060 C   0  0  0  0  0  0  0  0  0  0  0  0
   63.1762   30.7362   47.8911 H   0  0  0  0  0  0  0  0  0  0  0  0
   62.8670   32.8050   47.3050 C   0  0  0  0  0  0  0  0  0  0  0  0
   64.1060   32.9300   46.6820 O   0  0  0  0  0  0  0  0  0  0  0  0
   64.8760   32.3100   46.9050 H   0  0  0  0  0  0  0  0  0  0  0  0
   61.9910   33.8960   47.3260 C   0  0  0  0  0  0  0  0  0  0  0  0
   62.2850   34.8428   46.8493 H   0  0  0  0  0  0  0  0  0  0  0  0
   58.8080   32.9400   46.1560 O   0  0  0  0  0  0  0  0  0  0  0  0
   58.4020   30.1490   43.8550 N   0  0  0  0  0  0  0  0  0  0  0  0
   58.7200   30.5040   42.9260 H   0  0  0  0  0  0  0  0  0  0  0  0
  1  2  1  0
  2  3  1  0
  3  4  2  0
  3  5  1  0
  5  6  1  0
  5  7  1  0
  5  8  1  0
  8  9  2  0
  9 10  1  0
  9 11  1  0
 11 12  1  0
 11 13  2  0
 13 14  1  0
 14 15  2  0
 15 16  1  0
 14 17  1  0
 17 18  1  0
 17 19  2  0
 19 20  1  0
 20 21  2  0
 21 22  1  0
 22 23  1  0
 23 24  2  0
 24 25  1  0
 25 26  1  0
 25 27  1  0
 25 28  1  0
 28 29  2  0
 29 30  1  0
 29 31  1  0
 31 32  1  0
 31 33  2  0
 33 34  1  0
 33 35  1  0
 35 36  1  0
 36 37  1  0
 35 38  2  0
 38 39  1  0
 23 40  1  0
 19 41  1  0
 41 42  1  0
 15  8  1  0
 40 20  1  0
 41 13  1  0
 38 28  1  0
M  CHG  2   2  -1  22  -1
M  END
>  <UniqueID>  (30) 
28

>  <SMILES>  (30) 
[NH-]C(=O)Cc1ccc2[nH]c(-c3n[n-]/c(=N/Cc4cc(O)cc(Cl)c4)o3)cc2c1

>  <Energy>  (30) 
107.84021540627315

>  <Genealogy>  (30) 
[NH-]C(=O)Cc1ccc2[nH]c(-c3n[n-]c(=NCc4cc(O)cc(Cl)c4)o3)cc2c1 (protonated)
[NH-]C(=O)Cc1ccc2[nH]c(-c3n[n-]/c(=N/Cc4cc(O)cc(Cl)c4)o3)cc2c1 (cis-trans isomerization)
[NH-]C(=O)Cc1ccc2[nH]c(-c3n[n-]/c(=N/Cc4cc(O)cc(Cl)c4)o3)cc2c1 (3D coordinates assigned)
[NH-]C(=O)Cc1ccc2[nH]c(-c3n[n-]/c(=N/Cc4cc(O)cc(Cl)c4)o3)cc2c1 (optimized conformer: 107.84021540627315 kcal/mol)

>  <smiles>  (30) 
NC(=O)Cc1ccc2[nH]c(-c3n[nH]c(=NCc4cc(O)cc(Cl)c4)o3)cc2c1

>  <score_type>  (30) 
oracle

>  <origin>  (30) 
adg

>  <m_score__min__energy>  (30) 
-12.6

>  <m_primary>  (30) 
energy

$$$$
30:0
     RDKit          3D

 43 45  0  0  1  0  0  0  0  0999 V2000
   56.2710   20.3100   43.3080 N   0  0  0  0  0  0  0  0  0  0  0  0
   56.6450   21.5050   43.6200 C   0  0  0  0  0  0  0  0  0  0  0  0
   55.8990   22.5970   43.3210 N   0  0  0  0  0  0  0  0  0  0  0  0
   56.2830   23.8540   43.6440 C   0  0  0  0  0  0  0  0  0  0  0  0
   57.4970   24.0210   44.3120 C   0  0  0  0  0  0  0  0  0  0  0  0
   57.9000   25.3760   44.6530 C   0  0  0  0  0  0  0  0  0  0  0  0
   58.3900   25.6110   45.9380 C   0  0  0  0  0  0  0  0  0  0  0  0
   58.7890   26.8850   46.3230 C   0  0  0  0  0  0  0  0  0  0  0  0
   58.7100   27.9410   45.4460 C   0  0  0  0  0  0  0  0  0  0  0  0
   59.1460   29.2510   45.9170 C   0  0  0  0  0  0  0  0  0  0  0  0
   60.0230   29.8540   45.2460 O   0  0  0  0  0  0  0  0  0  0  0  0
   58.6290   29.8680   47.0890 N   0  0  0  0  0  0  0  0  0  0  0  0
   59.0980   31.1720   47.5130 C   0  0  1  0  0  0  0  0  0  0  0  0
   60.5680   31.1070   47.7820 C   0  0  0  0  0  0  0  0  0  0  0  0
   61.1020   29.8390   47.8680 O   0  0  0  0  0  0  0  0  0  0  0  0
   58.7650   32.2320   46.5810 C   0  0  0  0  0  0  0  0  0  0  0  0
   59.5080   33.4070   46.6460 C   0  0  0  0  0  0  0  0  0  0  0  0
   59.2830   34.4860   45.8280 C   0  0  0  0  0  0  0  0  0  0  0  0
   58.2800   34.4470   44.8830 C   0  0  0  0  0  0  0  0  0  0  0  0
   57.5380   33.2950   44.8050 C   0  0  0  0  0  0  0  0  0  0  0  0
   57.7690   32.2110   45.6300 C   0  0  0  0  0  0  0  0  0  0  0  0
   58.2280   27.7090   44.1830 C   0  0  0  0  0  0  0  0  0  0  0  0
   57.8190   26.4370   43.7690 C   0  0  0  0  0  0  0  0  0  0  0  0
   58.2630   22.9160   44.6200 C   0  0  0  0  0  0  0  0  0  0  0  0
   57.8170   21.6970   44.2670 N   0  0  0  0  0  0  0  0  0  0  0  0
   56.8820   19.5210   43.6630 H   0  0  0  0  0  0  0  0  0  0  0  0
   55.6555   24.7202   43.3871 H   0  0  0  0  0  0  0  0  0  0  0  0
   58.4612   24.7789   46.6539 H   0  0  0  0  0  0  0  0  0  0  0  0
   59.1723   27.0506   47.3407 H   0  0  0  0  0  0  0  0  0  0  0  0
   57.9160   29.3960   47.6490 H   0  0  0  0  0  0  0  0  0  0  0  0
   58.5699   31.4331   48.4419 H   0  0  0  0  0  0  0  0  0  0  0  0
   61.0847   31.6374   46.9686 H   0  0  0  0  0  0  0  0  0  0  0  0
   60.7132   31.5626   48.7726 H   0  0  0  0  0  0  0  0  0  0  0  0
   61.2600   29.4690   46.9780 H   0  0  0  0  0  0  0  0  0  0  0  0
   60.3156   33.4743   47.3898 H   0  0  0  0  0  0  0  0  0  0  0  0
   59.9064   35.3868   45.9270 H   0  0  0  0  0  0  0  0  0  0  0  0
   58.0829   35.3023   44.2200 H   0  0  0  0  0  0  0  0  0  0  0  0
   56.7313   33.2326   44.0597 H   0  0  0  0  0  0  0  0  0  0  0  0
   57.1440   31.3119   45.5250 H   0  0  0  0  0  0  0  0  0  0  0  0
   58.1611   28.5480   43.4748 H   0  0  0  0  0  0  0  0  0  0  0  0
   57.4363   26.2817   42.7495 H   0  0  0  0  0  0  0  0  0  0  0  0
   59.2226   23.0297   45.1455 H   0  0  0  0  0  0  0  0  0  0  0  0
   58.4220   20.8710   44.5160 H   0  0  0  0  0  0  0  0  0  0  0  0
  1  2  2  3
  2  3  1  0
  3  4  2  0
  4  5  1  0
  5  6  1  0
  6  7  2  0
  7  8  1  0
  8  9  2  0
  9 10  1  0
 10 11  2  0
 10 12  1  0
 12 13  1  0
 13 14  1  0
 14 15  1  0
 13 16  1  0
 16 17  2  0
 17 18  1  0
 18 19  2  0
 19 20  1  0
 20 21  2  0
  9 22  1  0
 22 23  2  0
  5 24  2  0
 24 25  1  0
 25  2  1  0
 23  6  1  0
 21 16  1  0
  1 26  1  0
  4 27  1  0
  7 28  1  0
  8 29  1  0
 12 30  1  0
 13 31  1  1
 14 32  1  0
 14 33  1  0
 15 34  1  0
 17 35  1  0
 18 36  1  0
 19 37  1  0
 20 38  1  0
 21 39  1  0
 22 40  1  0
 23 41  1  0
 24 42  1  0
 25 43  1  0
M  END
>  <smiles>  (31) 
N=c1ncc(-c2ccc(C(=O)NC(CO)c3ccccc3)cc2)c[nH]1

>  <score_type>  (31) 
oracle

>  <origin>  (31) 
adg

>  <m_score__min__energy>  (31) 
-8.0999999999999996

>  <m_primary>  (31) 
energy

$$$$
31:0
     RDKit          3D

 54 58  0  0  0  0  0  0  0  0999 V2000
   55.9943   30.0763   45.0843 H   0  0  0  0  0  0  0  0  0  0  0  0
   56.2590   29.0370   44.8400 C   0  0  0  0  0  0  0  0  0  0  0  0
   55.4792   28.3327   44.5146 H   0  0  0  0  0  0  0  0  0  0  0  0
   57.5340   28.6280   44.9390 C   0  0  0  0  0  0  0  0  0  0  0  0
   58.0410   27.3470   44.6680 C   0  0  0  0  0  0  0  0  0  0  0  0
   57.4110   26.1770   44.4450 C   0  0  0  0  0  0  0  0  0  0  0  0
   57.3187   25.8470   43.3997 H   0  0  0  0  0  0  0  0  0  0  0  0
   56.8360   25.3030   45.4790 C   0  0  0  0  0  0  0  0  0  0  0  0
   57.4790   24.2440   45.9990 N   0  0  0  0  0  0  0  0  0  0  0  0
   56.6510   23.8250   46.9800 C   0  0  0  0  0  0  0  0  0  0  0  0
   56.9040   22.8250   47.7010 O   0  0  0  0  0  0  0  0  0  0  0  0
   55.5360   24.5700   47.1390 N   0  0  0  0  0  0  0  0  0  0  0  0
   55.6760   25.5110   46.1910 C   0  0  0  0  0  0  0  0  0  0  0  0
   54.7750   26.5530   46.0000 O   0  0  0  0  0  0  0  0  0  0  0  0
   59.4210   27.4670   44.6670 C   0  0  0  0  0  0  0  0  0  0  0  0
   60.1481   26.6730   44.4415 H   0  0  0  0  0  0  0  0  0  0  0  0
   59.7080   28.7730   45.0030 C   0  0  0  0  0  0  0  0  0  0  0  0
   61.0900   29.3460   45.1020 C   0  0  0  0  0  0  0  0  0  0  0  0
   61.3647   29.4599   46.1610 H   0  0  0  0  0  0  0  0  0  0  0  0
   61.8036   28.6696   44.6088 H   0  0  0  0  0  0  0  0  0  0  0  0
   61.1156   30.3289   44.6088 H   0  0  0  0  0  0  0  0  0  0  0  0
   58.5670   29.4760   45.1740 N   0  0  0  0  0  0  0  0  0  0  0  0
   58.4890   30.8840   45.4610 C   0  0  0  0  0  0  0  0  0  0  0  0
   58.9460   31.3660   46.6940 C   0  0  0  0  0  0  0  0  0  0  0  0
   59.3723   30.6659   47.4276 H   0  0  0  0  0  0  0  0  0  0  0  0
   58.8660   32.7330   47.0040 C   0  0  0  0  0  0  0  0  0  0  0  0
   59.3070   33.2180   48.2870 N   0  0  0  0  0  0  0  0  0  0  0  0
   59.3150   32.3180   49.4490 C   0  0  0  0  0  0  0  0  0  0  0  0
   58.3174   32.3227   49.9124 H   0  0  0  0  0  0  0  0  0  0  0  0
   59.5795   31.3078   49.1031 H   0  0  0  0  0  0  0  0  0  0  0  0
   60.3560   32.7610   50.4950 C   0  0  0  0  0  0  0  0  0  0  0  0
   59.9010   33.5205   51.1478 H   0  0  0  0  0  0  0  0  0  0  0  0
   60.6598   31.8715   51.0664 H   0  0  0  0  0  0  0  0  0  0  0  0
   61.6280   33.3630   49.8390 C   0  0  0  0  0  0  0  0  0  0  0  0
   62.3760   32.2970   49.0690 C   0  0  0  0  0  0  0  0  0  0  0  0
   61.9520   31.7670   48.0080 O   0  0  0  0  0  0  0  0  0  0  0  0
   63.6250   31.9390   49.6290 N   0  0  0  0  0  0  0  0  0  0  0  0
   63.7780   32.7890   50.7470 C   0  0  0  0  0  0  0  0  0  0  0  0
   64.7870   32.7350   51.4980 O   0  0  0  0  0  0  0  0  0  0  0  0
   62.6620   33.7570   50.9380 C   0  0  0  0  0  0  0  0  0  0  0  0
   63.0115   34.7900   50.7936 H   0  0  0  0  0  0  0  0  0  0  0  0
   62.2373   33.7185   51.9520 H   0  0  0  0  0  0  0  0  0  0  0  0
   61.2740   34.5770   48.9200 C   0  0  0  0  0  0  0  0  0  0  0  0
   61.4645   35.5042   49.4804 H   0  0  0  0  0  0  0  0  0  0  0  0
   61.9023   34.4941   48.0209 H   0  0  0  0  0  0  0  0  0  0  0  0
   59.8100   34.5870   48.4470 C   0  0  0  0  0  0  0  0  0  0  0  0
   59.1939   35.1134   49.1908 H   0  0  0  0  0  0  0  0  0  0  0  0
   59.7560   35.0993   47.4751 H   0  0  0  0  0  0  0  0  0  0  0  0
   58.3110   33.6150   46.0630 C   0  0  0  0  0  0  0  0  0  0  0  0
   58.2357   34.6872   46.2970 H   0  0  0  0  0  0  0  0  0  0  0  0
   57.8540   33.1400   44.8320 C   0  0  0  0  0  0  0  0  0  0  0  0
   57.4257   33.8405   44.1000 H   0  0  0  0  0  0  0  0  0  0  0  0
   57.9380   31.7780   44.5250 C   0  0  0  0  0  0  0  0  0  0  0  0
   57.3100   31.2090   42.9840 Cl  0  0  0  0  0  0  0  0  0  0  0  0
  1  2  1  0
  2  3  1  0
  2  4  2  0
  4  5  1  0
  5  6  2  0
  6  7  1  0
  6  8  1  0
  8  9  1  0
  9 10  1  0
 10 11  2  0
 10 12  1  0
 12 13  1  0
 13 14  1  0
  5 15  1  0
 15 16  1  0
 15 17  2  0
 17 18  1  0
 18 19  1  0
 18 20  1  0
 18 21  1  0
 17 22  1  0
 22 23  1  0
 23 24  2  0
 24 25  1  0
 24 26  1  0
 26 27  1  0
 27 28  1  0
 28 29  1  0
 28 30  1  0
 28 31  1  0
 31 32  1  0
 31 33  1  0
 31 34  1  0
 34 35  1  0
 35 36  2  0
 35 37  1  0
 37 38  1  0
 38 39  2  0
 38 40  1  0
 40 41  1  0
 40 42  1  0
 34 43  1  0
 43 44  1  0
 43 45  1  0
 43 46  1  0
 46 47  1  0
 46 48  1  0
 26 49  2  0
 49 50  1  0
 49 51  1  0
 51 52  1  0
 51 53  2  0
 53 54  1  0
 22  4  1  0
 53 23  1  0
 13  8  2  0
 46 27  1  0
 40 34  1  0
M  CHG  4   9  -1  12  -1  14  -1  37  -1
M  END
>  <UniqueID>  (32) 
29

>  <SMILES>  (32) 
C=c1/c(=C\c2[n-]c(=O)[n-]c2[O-])cc(C)n1-c1cc(N2CCC3(CC2)CC(=O)[N-]C3=O)ccc1Cl

>  <Energy>  (32) 
154.22786675216264

>  <Genealogy>  (32) 
C=c1c(=Cc2[n-]c(=O)[n-]c2[O-])cc(C)n1-c1cc(N2CCC3(CC2)CC(=O)[N-]C3=O)ccc1Cl (protonated)
C=c1/c(=C\c2[n-]c(=O)[n-]c2[O-])cc(C)n1-c1cc(N2CCC3(CC2)CC(=O)[N-]C3=O)ccc1Cl (cis-trans isomerization)
C=c1/c(=C\c2[n-]c(=O)[n-]c2[O-])cc(C)n1-c1cc(N2CCC3(CC2)CC(=O)[N-]C3=O)ccc1Cl (3D coordinates assigned)
C=c1/c(=C\c2[n-]c(=O)[n-]c2[O-])cc(C)n1-c1cc(N2CCC3(CC2)CC(=O)[N-]C3=O)ccc1Cl (nonaromatic ring conformer: 154.22786675216264 kcal/mol)

>  <smiles>  (32) 
C=c1c(=Cc2[nH]c(=O)[nH]c2O)cc(C)n1-c1cc(N2CCC3(CC2)CC(=O)NC3=O)ccc1Cl

>  <score_type>  (32) 
oracle

>  <origin>  (32) 
adg

>  <m_score__min__energy>  (32) 
-18.73

>  <m_primary>  (32) 
energy

$$$$
32:0
     RDKit          3D

 43 45  0  0  0  0  0  0  0  0999 V2000
   59.2890   30.4870   47.0220 C   0  0  0  0  0  0  0  0  0  0  0  0
   58.4950   31.1520   46.1680 C   0  0  0  0  0  0  0  0  0  0  0  0
   57.9500   30.6670   44.9660 C   0  0  0  0  0  0  0  0  0  0  0  0
   57.9450   29.4330   44.4220 C   0  0  0  0  0  0  0  0  0  0  0  0
   57.3940   28.2150   45.0470 C   0  0  0  0  0  0  0  0  0  0  0  0
   56.0160   28.1000   45.2760 C   0  0  0  0  0  0  0  0  0  0  0  0
   55.1440   29.1060   44.8710 O   0  0  0  0  0  0  0  0  0  0  0  0
   55.5200   26.9950   45.8920 N   0  0  0  0  0  0  0  0  0  0  0  0
   56.3410   25.9970   46.3070 C   0  0  0  0  0  0  0  0  0  0  0  0
   55.8580   24.9810   46.8710 O   0  0  0  0  0  0  0  0  0  0  0  0
   57.6810   26.0960   46.1200 N   0  0  0  0  0  0  0  0  0  0  0  0
   58.2260   27.1810   45.5110 C   0  0  0  0  0  0  0  0  0  0  0  0
   59.4760   27.2480   45.3710 O   0  0  0  0  0  0  0  0  0  0  0  0
   57.3510   31.7520   44.3490 C   0  0  0  0  0  0  0  0  0  0  0  0
   57.5040   32.8310   45.1920 C   0  0  0  0  0  0  0  0  0  0  0  0
   57.0130   34.2140   44.8880 C   0  0  0  0  0  0  0  0  0  0  0  0
   58.1890   32.4700   46.3040 N   0  0  0  0  0  0  0  0  0  0  0  0
   58.5400   33.3550   47.4270 C   0  0  0  0  0  0  0  0  0  0  0  0
   59.5140   34.4140   46.9830 C   0  0  0  0  0  0  0  0  0  0  0  0
   59.2230   35.5930   47.1140 O   0  0  0  0  0  0  0  0  0  0  0  0
   60.8360   34.0440   46.3660 C   0  0  0  0  0  0  0  0  0  0  0  0
   61.8750   33.8120   47.4330 C   0  0  0  0  0  0  0  0  0  0  0  0
   63.1350   33.2860   47.0980 C   0  0  0  0  0  0  0  0  0  0  0  0
   64.0980   33.0800   48.0910 C   0  0  0  0  0  0  0  0  0  0  0  0
   63.8100   33.3930   49.4220 C   0  0  0  0  0  0  0  0  0  0  0  0
   62.5620   33.9230   49.7620 C   0  0  0  0  0  0  0  0  0  0  0  0
   61.5980   34.1340   48.7710 C   0  0  0  0  0  0  0  0  0  0  0  0
   59.6518   30.9821   47.9348 H   0  0  0  0  0  0  0  0  0  0  0  0
   59.5769   29.4469   46.8090 H   0  0  0  0  0  0  0  0  0  0  0  0
   58.3918   29.3246   43.4227 H   0  0  0  0  0  0  0  0  0  0  0  0
   56.8480   31.7525   43.3707 H   0  0  0  0  0  0  0  0  0  0  0  0
   56.8225   34.7506   45.8292 H   0  0  0  0  0  0  0  0  0  0  0  0
   57.7745   34.7537   44.3059 H   0  0  0  0  0  0  0  0  0  0  0  0
   56.0817   34.1527   44.3059 H   0  0  0  0  0  0  0  0  0  0  0  0
   57.6273   33.8389   47.8048 H   0  0  0  0  0  0  0  0  0  0  0  0
   59.0078   32.7531   48.2200 H   0  0  0  0  0  0  0  0  0  0  0  0
   60.7139   33.1245   45.7747 H   0  0  0  0  0  0  0  0  0  0  0  0
   61.1693   34.8706   45.7213 H   0  0  0  0  0  0  0  0  0  0  0  0
   63.3641   33.0357   46.0516 H   0  0  0  0  0  0  0  0  0  0  0  0
   65.0836   32.6710   47.8239 H   0  0  0  0  0  0  0  0  0  0  0  0
   64.5658   33.2222   50.2027 H   0  0  0  0  0  0  0  0  0  0  0  0
   62.3381   34.1742   50.8093 H   0  0  0  0  0  0  0  0  0  0  0  0
   60.6180   34.5543   49.0413 H   0  0  0  0  0  0  0  0  0  0  0  0
  1  2  2  0
  2  3  1  0
  3  4  2  3
  4  5  1  0
  5  6  2  0
  6  7  1  0
  6  8  1  0
  8  9  1  0
  9 10  2  0
  9 11  1  0
 11 12  1  0
 12 13  2  0
  3 14  1  0
 14 15  2  0
 15 16  1  0
 15 17  1  0
 17 18  1  0
 18 19  1  0
 19 20  2  0
 19 21  1  0
 21 22  1  0
 22 23  2  0
 23 24  1  0
 24 25  2  0
 25 26  1  0
 26 27  2  0
 17  2  1  0
 27 22  1  0
 12  5  1  0
  1 28  1  0
  1 29  1  0
  4 30  1  0
 14 31  1  0
 16 32  1  0
 16 33  1  0
 16 34  1  0
 18 35  1  0
 18 36  1  0
 21 37  1  0
 21 38  1  0
 23 39  1  0
 24 40  1  0
 25 41  1  0
 26 42  1  0
 27 43  1  0
M  CHG  3   7  -1   8  -1  11  -1
M  END
>  <UniqueID>  (33) 
30

>  <SMILES>  (33) 
C=c1c(=Cc2c([O-])[n-]c(=O)[n-]c2=O)cc(C)n1CC(=O)Cc1ccccc1

>  <Energy>  (33) 
81.87857210236615

>  <Genealogy>  (33) 
C=c1c(=Cc2c([O-])[n-]c(=O)[n-]c2=O)cc(C)n1CC(=O)Cc1ccccc1 (protonated)
C=c1c(=Cc2c([O-])[n-]c(=O)[n-]c2=O)cc(C)n1CC(=O)Cc1ccccc1 (3D coordinates assigned)
C=c1c(=Cc2c([O-])[n-]c(=O)[n-]c2=O)cc(C)n1CC(=O)Cc1ccccc1 (optimized conformer: 81.87857210236615 kcal/mol)

>  <smiles>  (33) 
C=c1c(=Cc2c(O)[nH]c(=O)[nH]c2=O)cc(C)n1CC(=O)Cc1ccccc1

>  <score_type>  (33) 
oracle

>  <origin>  (33) 
adg

>  <m_score__min__energy>  (33) 
-16.879999999999999

>  <m_primary>  (33) 
energy

$$$$
33:0
     RDKit          3D

 34 36  0  0  0  0  0  0  0  0999 V2000
   53.5850   26.4320   46.3430 H   0  0  0  0  0  0  0  0  0  0  0  0
   54.4130   25.9540   45.9240 N   0  0  0  0  0  0  0  0  0  0  0  0
   55.6100   26.4280   46.0600 C   0  0  0  0  0  0  0  0  0  0  0  0
   55.8980   27.6700   45.6040 N   0  0  0  0  0  0  0  0  0  0  0  0
   57.1400   28.2070   45.7350 C   0  0  0  0  0  0  0  0  0  0  0  0
   57.3710   29.5570   45.1930 C   0  0  0  0  0  0  0  0  0  0  0  0
   57.7940   30.5870   46.0480 C   0  0  0  0  0  0  0  0  0  0  0  0
   57.9596   30.3813   47.1158 H   0  0  0  0  0  0  0  0  0  0  0  0
   58.0050   31.8740   45.5440 C   0  0  0  0  0  0  0  0  0  0  0  0
   58.3250   32.6820   46.2183 H   0  0  0  0  0  0  0  0  0  0  0  0
   57.8100   32.1360   44.1840 C   0  0  0  0  0  0  0  0  0  0  0  0
   58.0170   33.4160   43.6860 O   0  0  0  0  0  0  0  0  0  0  0  0
   57.4100   31.1070   43.3250 C   0  0  0  0  0  0  0  0  0  0  0  0
   57.2636   31.3112   42.2541 H   0  0  0  0  0  0  0  0  0  0  0  0
   57.1960   29.8190   43.8260 C   0  0  0  0  0  0  0  0  0  0  0  0
   56.8898   29.0097   43.1468 H   0  0  0  0  0  0  0  0  0  0  0  0
   58.1690   27.4500   46.3470 C   0  0  0  0  0  0  0  0  0  0  0  0
   59.5950   27.9660   46.4420 C   0  0  0  0  0  0  0  0  0  0  0  0
   60.2769   27.1139   46.5796 H   0  0  0  0  0  0  0  0  0  0  0  0
   59.8334   28.5063   45.5139 H   0  0  0  0  0  0  0  0  0  0  0  0
   59.7530   28.9150   47.6020 C   0  0  0  0  0  0  0  0  0  0  0  0
   60.7860   29.8670   47.6010 C   0  0  0  0  0  0  0  0  0  0  0  0
   61.4919   29.9082   46.7584 H   0  0  0  0  0  0  0  0  0  0  0  0
   60.9210   30.7630   48.6670 C   0  0  0  0  0  0  0  0  0  0  0  0
   61.7307   31.5075   48.6598 H   0  0  0  0  0  0  0  0  0  0  0  0
   60.0280   30.7130   49.7410 C   0  0  0  0  0  0  0  0  0  0  0  0
   60.1324   31.4215   50.5759 H   0  0  0  0  0  0  0  0  0  0  0  0
   59.0020   29.7630   49.7550 C   0  0  0  0  0  0  0  0  0  0  0  0
   58.1140   29.7150   50.8230 O   0  0  0  0  0  0  0  0  0  0  0  0
   58.8680   28.8620   48.6940 C   0  0  0  0  0  0  0  0  0  0  0  0
   58.0669   28.1084   48.7135 H   0  0  0  0  0  0  0  0  0  0  0  0
   57.8380   26.1580   46.8060 C   0  0  0  0  0  0  0  0  0  0  0  0
   58.7050   25.4240   47.3510 O   0  0  0  0  0  0  0  0  0  0  0  0
   56.5760   25.6850   46.6570 N   0  0  0  0  0  0  0  0  0  0  0  0
  1  2  1  0
  2  3  2  0
  3  4  1  0
  4  5  1  0
  5  6  1  0
  6  7  2  0
  7  8  1  0
  7  9  1  0
  9 10  1  0
  9 11  2  0
 11 12  1  0
 11 13  1  0
 13 14  1  0
 13 15  2  0
 15 16  1  0
  5 17  2  0
 17 18  1  0
 18 19  1  0
 18 20  1  0
 18 21  1  0
 21 22  2  0
 22 23  1  0
 22 24  1  0
 24 25  1  0
 24 26  2  0
 26 27  1  0
 26 28  1  0
 28 29  1  0
 28 30  2  0
 30 31  1  0
 17 32  1  0
 32 33  2  0
 32 34  1  0
 34  3  1  0
 15  6  1  0
 30 21  1  0
M  CHG  4   4  -1  12  -1  29  -1  34  -1
M  END
>  <UniqueID>  (34) 
31

>  <SMILES>  (34) 
[H]/N=c1/[n-]c(-c2ccc([O-])cc2)c(Cc2cccc([O-])c2)c(=O)[n-]1

>  <Energy>  (34) 
44.44416144489835

>  <Genealogy>  (34) 
N=c1[n-]c(-c2ccc([O-])cc2)c(Cc2cccc([O-])c2)c(=O)[n-]1 (protonated)
[H]/N=c1/[n-]c(-c2ccc([O-])cc2)c(Cc2cccc([O-])c2)c(=O)[n-]1 (cis-trans isomerization)
[H]/N=c1/[n-]c(-c2ccc([O-])cc2)c(Cc2cccc([O-])c2)c(=O)[n-]1 (3D coordinates assigned)
[H]/N=c1/[n-]c(-c2ccc([O-])cc2)c(Cc2cccc([O-])c2)c(=O)[n-]1 (optimized conformer: 44.44416144489835 kcal/mol)

>  <smiles>  (34) 
N=c1[nH]c(-c2ccc(O)cc2)c(Cc2cccc(O)c2)c(=O)[nH]1

>  <score_type>  (34) 
oracle

>  <origin>  (34) 
adg

>  <m_score__min__energy>  (34) 
-13.220000000000001

>  <m_primary>  (34) 
energy

$$$$
34:0
     RDKit          3D

 65 69  0  0  0  0  0  0  0  0999 V2000
   63.8370   35.3750   51.2450 O   0  0  0  0  0  0  0  0  0  0  0  0
   63.4920   34.2050   50.9330 C   0  0  0  0  0  0  0  0  0  0  0  0
   63.8780   33.1200   51.7890 N   0  0  0  0  0  0  0  0  0  0  0  0
   64.9640   32.2120   51.5460 C   0  0  0  0  0  0  0  0  0  0  0  0
   66.2820   32.6910   51.4420 C   0  0  0  0  0  0  0  0  0  0  0  0
   67.3440   31.8040   51.2580 C   0  0  0  0  0  0  0  0  0  0  0  0
   67.1030   30.4350   51.1650 C   0  0  0  0  0  0  0  0  0  0  0  0
   65.7980   29.9460   51.2450 C   0  0  0  0  0  0  0  0  0  0  0  0
   64.7140   30.8240   51.4280 C   0  0  0  0  0  0  0  0  0  0  0  0
   63.3370   30.2810   51.5070 C   0  0  0  0  0  0  0  0  0  0  0  0
   63.1550   29.0930   51.8960 O   0  0  0  0  0  0  0  0  0  0  0  0
   62.2090   31.0930   51.1410 N   0  0  0  0  0  0  0  0  0  0  0  0
   60.8300   30.6500   51.3220 C   0  0  0  0  0  0  0  0  0  0  0  0
   60.3750   29.8590   50.1280 C   0  0  0  0  0  0  0  0  0  0  0  0
   61.0170   28.6520   49.7990 C   0  0  0  0  0  0  0  0  0  0  0  0
   60.6040   27.9170   48.6850 C   0  0  0  0  0  0  0  0  0  0  0  0
   59.5460   28.3760   47.8970 C   0  0  0  0  0  0  0  0  0  0  0  0
   58.9060   29.5780   48.2130 C   0  0  0  0  0  0  0  0  0  0  0  0
   59.3150   30.3160   49.3290 C   0  0  0  0  0  0  0  0  0  0  0  0
   62.7290   33.9910   49.6870 C   0  0  0  0  0  0  0  0  0  0  0  0
   63.3580   34.0260   48.4320 C   0  0  0  0  0  0  0  0  0  0  0  0
   62.6030   33.8040   47.2820 C   0  0  0  0  0  0  0  0  0  0  0  0
   63.1660   33.8310   46.1530 O   0  0  0  0  0  0  0  0  0  0  0  0
   61.2270   33.5630   47.4000 C   0  0  0  0  0  0  0  0  0  0  0  0
   60.4070   33.3360   46.2810 C   0  0  0  0  0  0  0  0  0  0  0  0
   59.0290   33.1240   46.4430 C   0  0  0  0  0  0  0  0  0  0  0  0
   58.0000   32.8900   45.0260 S   0  0  0  0  0  0  0  0  0  0  0  0
   58.1430   34.0880   44.1310 O   0  0  0  0  0  0  0  0  0  0  0  0
   56.5650   32.8190   45.4690 O   0  0  0  0  0  0  0  0  0  0  0  0
   58.4120   31.4560   44.1090 N   0  0  0  0  0  0  0  0  0  0  0  0
   57.4110   31.1070   43.0760 C   0  0  0  0  0  0  0  0  0  0  0  0
   56.2230   30.2860   43.6150 C   0  0  0  0  0  0  0  0  0  0  0  0
   56.5940   29.3460   44.7740 C   0  0  0  0  0  0  0  0  0  0  0  0
   58.0850   29.0380   44.7850 C   0  0  0  0  0  0  0  0  0  0  0  0
   58.8900   30.3350   44.9580 C   0  0  0  0  0  0  0  0  0  0  0  0
   58.4680   33.1680   47.7280 C   0  0  0  0  0  0  0  0  0  0  0  0
   59.2770   33.3810   48.8470 C   0  0  0  0  0  0  0  0  0  0  0  0
   60.6540   33.5770   48.6920 C   0  0  0  0  0  0  0  0  0  0  0  0
   61.4160   33.7860   49.7630 O   0  0  0  0  0  0  0  0  0  0  0  0
   66.4774   33.7716   51.5061 H   0  0  0  0  0  0  0  0  0  0  0  0
   68.3728   32.1866   51.1863 H   0  0  0  0  0  0  0  0  0  0  0  0
   67.9429   29.7379   51.0282 H   0  0  0  0  0  0  0  0  0  0  0  0
   65.6155   28.8643   51.1642 H   0  0  0  0  0  0  0  0  0  0  0  0
   62.3720   32.0170   50.6820 H   0  0  0  0  0  0  0  0  0  0  0  0
   60.7666   30.0190   52.2208 H   0  0  0  0  0  0  0  0  0  0  0  0
   60.1827   31.5323   51.4344 H   0  0  0  0  0  0  0  0  0  0  0  0
   61.8471   28.2853   50.4207 H   0  0  0  0  0  0  0  0  0  0  0  0
   61.1125   26.9760   48.4282 H   0  0  0  0  0  0  0  0  0  0  0  0
   59.2158   27.7906   47.0262 H   0  0  0  0  0  0  0  0  0  0  0  0
   58.0808   29.9436   47.5842 H   0  0  0  0  0  0  0  0  0  0  0  0
   58.8045   31.2572   49.5811 H   0  0  0  0  0  0  0  0  0  0  0  0
   64.4369   34.2268   48.3574 H   0  0  0  0  0  0  0  0  0  0  0  0
   60.8476   33.3245   45.2732 H   0  0  0  0  0  0  0  0  0  0  0  0
   57.0202   32.0394   42.6424 H   0  0  0  0  0  0  0  0  0  0  0  0
   57.9233   30.4796   42.3317 H   0  0  0  0  0  0  0  0  0  0  0  0
   55.4505   30.9847   43.9687 H   0  0  0  0  0  0  0  0  0  0  0  0
   55.8701   29.6519   42.7883 H   0  0  0  0  0  0  0  0  0  0  0  0
   56.3208   29.8259   45.7253 H   0  0  0  0  0  0  0  0  0  0  0  0
   56.0466   28.4011   44.6417 H   0  0  0  0  0  0  0  0  0  0  0  0
   58.3097   28.3563   45.6185 H   0  0  0  0  0  0  0  0  0  0  0  0
   58.3625   28.5662   43.8309 H   0  0  0  0  0  0  0  0  0  0  0  0
   58.8248   30.6456   46.0112 H   0  0  0  0  0  0  0  0  0  0  0  0
   59.9218   30.1151   44.6465 H   0  0  0  0  0  0  0  0  0  0  0  0
   57.3837   33.0339   47.8555 H   0  0  0  0  0  0  0  0  0  0  0  0
   58.8306   33.3947   49.8522 H   0  0  0  0  0  0  0  0  0  0  0  0
  1  2  2  0
  2  3  1  0
  3  4  1  0
  4  5  2  0
  5  6  1  0
  6  7  2  0
  7  8  1  0
  8  9  2  0
  9 10  1  0
 10 11  2  0
 10 12  1  0
 12 13  1  0
 13 14  1  0
 14 15  2  0
 15 16  1  0
 16 17  2  0
 17 18  1  0
 18 19  2  0
  2 20  1  0
 20 21  2  0
 21 22  1  0
 22 23  2  0
 22 24  1  0
 24 25  2  0
 25 26  1  0
 26 27  1  0
 27 28  2  0
 27 29  2  0
 27 30  1  0
 30 31  1  0
 31 32  1  0
 32 33  1  0
 33 34  1  0
 34 35  1  0
 26 36  2  0
 36 37  1  0
 37 38  2  0
 38 39  1  0
  9  4  1  0
 19 14  1  0
 39 20  1  0
 38 24  1  0
 35 30  1  0
  5 40  1  0
  6 41  1  0
  7 42  1  0
  8 43  1  0
 12 44  1  0
 13 45  1  0
 13 46  1  0
 15 47  1  0
 16 48  1  0
 17 49  1  0
 18 50  1  0
 19 51  1  0
 21 52  1  0
 25 53  1  0
 31 54  1  0
 31 55  1  0
 32 56  1  0
 32 57  1  0
 33 58  1  0
 33 59  1  0
 34 60  1  0
 34 61  1  0
 35 62  1  0
 35 63  1  0
 36 64  1  0
 37 65  1  0
M  CHG  1   3  -1
M  END
>  <UniqueID>  (35) 
32

>  <SMILES>  (35) 
O=C([N-]c1ccccc1C(=O)NCc1ccccc1)c1cc(=O)c2cc(S(=O)(=O)N3CCCCC3)ccc2o1

>  <Energy>  (35) 
91.24857097382616

>  <Genealogy>  (35) 
O=C([N-]c1ccccc1C(=O)NCc1ccccc1)c1cc(=O)c2cc(S(=O)(=O)N3CCCCC3)ccc2o1 (protonated)
O=C([N-]c1ccccc1C(=O)NCc1ccccc1)c1cc(=O)c2cc(S(=O)(=O)N3CCCCC3)ccc2o1 (3D coordinates assigned)
O=C([N-]c1ccccc1C(=O)NCc1ccccc1)c1cc(=O)c2cc(S(=O)(=O)N3CCCCC3)ccc2o1 (nonaromatic ring conformer: 91.24857097382616 kcal/mol)

>  <smiles>  (35) 
O=C(Nc1ccccc1C(=O)NCc1ccccc1)c1cc(=O)c2cc(S(=O)(=O)N3CCCCC3)ccc2o1

>  <score_type>  (35) 
oracle

>  <origin>  (35) 
adg

>  <m_score__min__energy>  (35) 
-12.109999999999999

>  <m_primary>  (35) 
energy

$$$$
35:0
     RDKit          3D

 71 75  0  0  0  0  0  0  0  0999 V2000
   50.6740   32.6590   52.4130 C   0  0  0  0  0  0  0  0  0  0  0  0
   51.0270   32.3430   51.0330 N   0  0  0  0  0  0  0  0  0  0  0  0
   51.7260   31.1570   50.6310 C   0  0  0  0  0  0  0  0  0  0  0  0
   51.3960   30.5870   49.5580 O   0  0  0  0  0  0  0  0  0  0  0  0
   52.8420   30.6080   51.4240 C   0  0  0  0  0  0  0  0  0  0  0  0
   52.7370   29.3260   51.9850 C   0  0  0  0  0  0  0  0  0  0  0  0
   53.8070   28.7850   52.7040 C   0  0  0  0  0  0  0  0  0  0  0  0
   54.9850   29.5180   52.8640 C   0  0  0  0  0  0  0  0  0  0  0  0
   55.0970   30.8060   52.3160 C   0  0  0  0  0  0  0  0  0  0  0  0
   56.2740   31.5520   52.4490 O   0  0  0  0  0  0  0  0  0  0  0  0
   57.4930   31.1560   51.8850 C   0  0  0  0  0  0  0  0  0  0  0  0
   58.6880   31.7350   52.3190 C   0  0  0  0  0  0  0  0  0  0  0  0
   59.8920   31.3420   51.7270 C   0  0  0  0  0  0  0  0  0  0  0  0
   59.8930   30.3830   50.7090 C   0  0  0  0  0  0  0  0  0  0  0  0
   58.6690   29.8240   50.2930 C   0  0  0  0  0  0  0  0  0  0  0  0
   58.5860   28.9430   49.3430 N   0  0  0  0  0  0  0  0  0  0  0  0
   58.9160   29.1240   47.9620 C   0  0  0  0  0  0  0  0  0  0  0  0
   58.1710   30.0450   47.2170 C   0  0  0  0  0  0  0  0  0  0  0  0
   58.2910   30.0920   45.8240 C   0  0  0  0  0  0  0  0  0  0  0  0
   57.4070   30.9570   45.0280 C   0  0  0  0  0  0  0  0  0  0  0  0
   56.7640   30.4570   44.0670 O   0  0  0  0  0  0  0  0  0  0  0  0
   57.1630   32.3260   45.3990 N   0  0  0  0  0  0  0  0  0  0  0  0
   58.0620   33.2080   45.7310 C   0  0  0  0  0  0  0  0  0  0  0  0
   58.8180   33.0610   46.8550 N   0  0  0  0  0  0  0  0  0  0  0  0
   59.7820   33.9590   47.1900 C   0  0  0  0  0  0  0  0  0  0  0  0
   60.5940   33.7340   48.3520 N   0  0  0  0  0  0  0  0  0  0  0  0
   60.0690   33.6930   49.6650 C   0  0  0  0  0  0  0  0  0  0  0  0
   58.8600   33.4530   49.9270 O   0  0  0  0  0  0  0  0  0  0  0  0
   61.0100   33.9610   50.6310 O   0  0  0  0  0  0  0  0  0  0  0  0
   62.2610   34.2280   50.0150 C   0  0  0  0  0  0  0  0  0  0  0  0
   61.9910   34.1640   48.4800 C   0  0  1  0  0  0  0  0  0  0  0  0
   62.9560   33.2330   47.6970 C   0  0  0  0  0  0  0  0  0  0  0  0
   63.3830   33.8060   46.3340 C   0  0  0  0  0  0  0  0  0  0  0  0
   62.3670   31.8250   47.5320 C   0  0  0  0  0  0  0  0  0  0  0  0
   60.0130   35.0560   46.3580 C   0  0  0  0  0  0  0  0  0  0  0  0
   59.2370   35.1930   45.2060 C   0  0  0  0  0  0  0  0  0  0  0  0
   58.2870   34.2680   44.9110 N   0  0  0  0  0  0  0  0  0  0  0  0
   59.2210   29.2670   45.1810 C   0  0  0  0  0  0  0  0  0  0  0  0
   59.9970   28.3700   45.9210 C   0  0  0  0  0  0  0  0  0  0  0  0
   59.8290   28.2650   47.3120 C   0  0  0  0  0  0  0  0  0  0  0  0
   60.6060   27.2330   48.0820 C   0  0  0  0  0  0  0  0  0  0  0  0
   57.5190   30.2320   50.8870 N   0  0  0  0  0  0  0  0  0  0  0  0
   54.0130   31.3560   51.6220 C   0  0  0  0  0  0  0  0  0  0  0  0
   51.3161   32.0842   53.0966 H   0  0  0  0  0  0  0  0  0  0  0  0
   50.8189   33.7347   52.5914 H   0  0  0  0  0  0  0  0  0  0  0  0
   49.6208   32.3963   52.5914 H   0  0  0  0  0  0  0  0  0  0  0  0
   51.8111   28.7457   51.8588 H   0  0  0  0  0  0  0  0  0  0  0  0
   53.7210   27.7806   53.1443 H   0  0  0  0  0  0  0  0  0  0  0  0
   55.8284   29.0846   53.4215 H   0  0  0  0  0  0  0  0  0  0  0  0
   58.6817   32.4916   53.1175 H   0  0  0  0  0  0  0  0  0  0  0  0
   60.8400   31.7878   52.0624 H   0  0  0  0  0  0  0  0  0  0  0  0
   60.8371   30.0695   50.2395 H   0  0  0  0  0  0  0  0  0  0  0  0
   57.4865   30.7366   47.7301 H   0  0  0  0  0  0  0  0  0  0  0  0
   62.6248   35.2262   50.3002 H   0  0  0  0  0  0  0  0  0  0  0  0
   63.0310   33.5061   50.3246 H   0  0  0  0  0  0  0  0  0  0  0  0
   62.1733   35.1492   48.0259 H   0  0  0  0  0  0  0  0  0  0  0  0
   63.8673   33.1645   48.3092 H   0  0  0  0  0  0  0  0  0  0  0  0
   64.0336   34.6790   46.4908 H   0  0  0  0  0  0  0  0  0  0  0  0
   63.9305   33.0376   45.7685 H   0  0  0  0  0  0  0  0  0  0  0  0
   62.4901   34.1109   45.7685 H   0  0  0  0  0  0  0  0  0  0  0  0
   62.1833   31.3859   48.5237 H   0  0  0  0  0  0  0  0  0  0  0  0
   61.4193   31.8867   46.9770 H   0  0  0  0  0  0  0  0  0  0  0  0
   63.0764   31.1935   46.9770 H   0  0  0  0  0  0  0  0  0  0  0  0
   60.7890   35.7956   46.6048 H   0  0  0  0  0  0  0  0  0  0  0  0
   59.3949   36.0511   44.5361 H   0  0  0  0  0  0  0  0  0  0  0  0
   59.3418   29.3246   44.0892 H   0  0  0  0  0  0  0  0  0  0  0  0
   60.7433   27.7429   45.4114 H   0  0  0  0  0  0  0  0  0  0  0  0
   60.4761   27.4056   49.1606 H   0  0  0  0  0  0  0  0  0  0  0  0
   60.2376   26.2291   47.8243 H   0  0  0  0  0  0  0  0  0  0  0  0
   61.6727   27.3095   47.8243 H   0  0  0  0  0  0  0  0  0  0  0  0
   54.0793   32.3813   51.2292 H   0  0  0  0  0  0  0  0  0  0  0  0
  1  2  1  0
  2  3  1  0
  3  4  2  0
  3  5  1  0
  5  6  2  0
  6  7  1  0
  7  8  2  0
  8  9  1  0
  9 10  1  0
 10 11  1  0
 11 12  2  0
 12 13  1  0
 13 14  2  0
 14 15  1  0
 15 16  2  3
 16 17  1  0
 17 18  2  0
 18 19  1  0
 19 20  1  0
 20 21  2  0
 20 22  1  0
 22 23  2  3
 23 24  1  0
 24 25  2  0
 25 26  1  0
 26 27  1  0
 27 28  2  0
 27 29  1  0
 29 30  1  0
 30 31  1  0
 31 32  1  0
 32 33  1  0
 32 34  1  0
 25 35  1  0
 35 36  2  0
 36 37  1  0
 19 38  2  0
 38 39  1  0
 39 40  2  0
 40 41  1  0
 15 42  1  0
  9 43  2  0
 43  5  1  0
 42 11  1  0
 40 17  1  0
 37 23  1  0
 31 26  1  0
  1 44  1  0
  1 45  1  0
  1 46  1  0
  6 47  1  0
  7 48  1  0
  8 49  1  0
 12 50  1  0
 13 51  1  0
 14 52  1  0
 18 53  1  0
 30 54  1  0
 30 55  1  0
 31 56  1  6
 32 57  1  0
 33 58  1  0
 33 59  1  0
 33 60  1  0
 34 61  1  0
 34 62  1  0
 34 63  1  0
 35 64  1  0
 36 65  1  0
 38 66  1  0
 39 67  1  0
 41 68  1  0
 41 69  1  0
 41 70  1  0
 43 71  1  0
M  CHG  3   2  -1  37  -1  42  -1
M  END
>  <UniqueID>  (36) 
33

>  <SMILES>  (36) 
C[N-]C(=O)c1cccc(Oc2cccc(=Nc3cc(C(=O)N=c4nc(N5C(=O)OC[C@H]5C(C)C)cc[n-]4)ccc3C)[n-]2)c1

>  <Energy>  (36) 
122.87361131392201

>  <Genealogy>  (36) 
C[N-]C(=O)c1cccc(Oc2cccc(=Nc3cc(C(=O)N=c4nc(N5C(=O)OCC5C(C)C)cc[n-]4)ccc3C)[n-]2)c1 (protonated)
C[N-]C(=O)c1cccc(Oc2cccc(=Nc3cc(C(=O)N=c4nc(N5C(=O)OC[C@H]5C(C)C)cc[n-]4)ccc3C)[n-]2)c1 (chirality)
C[N-]C(=O)c1cccc(Oc2cccc(=Nc3cc(C(=O)N=c4nc(N5C(=O)OC[C@H]5C(C)C)cc[n-]4)ccc3C)[n-]2)c1 (3D coordinates assigned)
C[N-]C(=O)c1cccc(Oc2cccc(=Nc3cc(C(=O)N=c4nc(N5C(=O)OC[C@H]5C(C)C)cc[n-]4)ccc3C)[n-]2)c1 (nonaromatic ring conformer: 122.87361131392201 kcal/mol)

>  <smiles>  (36) 
CNC(=O)c1cccc(Oc2cccc(=Nc3cc(C(=O)N=c4nc(N5C(=O)OCC5C(C)C)cc[nH]4)ccc3C)[nH]2)c1

>  <score_type>  (36) 
oracle

>  <origin>  (36) 
adg

>  <m_score__min__energy>  (36) 
-18.879999999999999

>  <m_primary>  (36) 
energy

$$$$
36:0
     RDKit          3D

 41 43  0  0  0  0  0  0  0  0999 V2000
   59.1520   34.1750   44.2380 H   0  0  0  0  0  0  0  0  0  0  0  0
   58.2910   33.8200   44.6370 O   0  0  0  0  0  0  0  0  0  0  0  0
   57.7140   32.6520   44.1500 C   0  0  0  0  0  0  0  0  0  0  0  0
   57.0250   31.7880   44.9190 N   0  0  0  0  0  0  0  0  0  0  0  0
   56.6410   30.8080   44.0760 C   0  0  0  0  0  0  0  0  0  0  0  0
   55.8510   29.6430   44.4990 C   0  0  0  0  0  0  0  0  0  0  0  0
   54.7790   29.3690   43.8940 O   0  0  0  0  0  0  0  0  0  0  0  0
   56.2770   28.8640   45.6240 N   0  0  0  0  0  0  0  0  0  0  0  0
   56.4650   27.4430   45.6580 C   0  0  0  0  0  0  0  0  0  0  0  0
   55.3730   26.6450   45.7820 N   0  0  0  0  0  0  0  0  0  0  0  0
   55.4500   25.2850   45.8450 C   0  0  0  0  0  0  0  0  0  0  0  0
   54.3710   24.5640   45.9750 N   0  0  0  0  0  0  0  0  0  0  0  0
   53.7580   23.7310   44.9810 C   0  0  0  0  0  0  0  0  0  0  0  0
   54.2180   23.6630   43.8080 O   0  0  0  0  0  0  0  0  0  0  0  0
   52.6040   22.9660   45.3390 N   0  0  0  0  0  0  0  0  0  0  0  0
   52.4640   22.3080   46.6310 C   0  0  0  0  0  0  0  0  0  0  0  0
   51.6044   21.6223   46.6004 H   0  0  0  0  0  0  0  0  0  0  0  0
   52.3043   23.0678   47.4102 H   0  0  0  0  0  0  0  0  0  0  0  0
   53.7270   21.5210   46.9480 C   0  0  0  0  0  0  0  0  0  0  0  0
   53.8480   21.4456   48.0387 H   0  0  0  0  0  0  0  0  0  0  0  0
   53.6481   20.5119   46.5172 H   0  0  0  0  0  0  0  0  0  0  0  0
   54.5980   22.0365   46.5172 H   0  0  0  0  0  0  0  0  0  0  0  0
   56.7170   24.6590   45.7940 C   0  0  0  0  0  0  0  0  0  0  0  0
   56.8630   23.1790   45.8370 C   0  0  0  0  0  0  0  0  0  0  0  0
   57.0680   22.5550   47.0320 N   0  0  0  0  0  0  0  0  0  0  0  0
   57.2040   21.2060   47.1320 C   0  0  0  0  0  0  0  0  0  0  0  0
   57.3920   20.6770   48.2590 O   0  0  0  0  0  0  0  0  0  0  0  0
   57.1360   20.4110   45.9860 C   0  0  0  0  0  0  0  0  0  0  0  0
   57.2436   19.3187   46.0596 H   0  0  0  0  0  0  0  0  0  0  0  0
   56.9300   21.0180   44.7460 C   0  0  0  0  0  0  0  0  0  0  0  0
   56.8756   20.4047   43.8344 H   0  0  0  0  0  0  0  0  0  0  0  0
   56.7930   22.4060   44.6650 C   0  0  0  0  0  0  0  0  0  0  0  0
   56.6315   22.8906   43.6908 H   0  0  0  0  0  0  0  0  0  0  0  0
   57.8590   25.4730   45.6900 C   0  0  0  0  0  0  0  0  0  0  0  0
   58.8566   25.0108   45.6565 H   0  0  0  0  0  0  0  0  0  0  0  0
   57.7380   26.8600   45.6290 C   0  0  0  0  0  0  0  0  0  0  0  0
   58.6355   27.4920   45.5586 H   0  0  0  0  0  0  0  0  0  0  0  0
   57.0830   31.0510   42.7880 C   0  0  0  0  0  0  0  0  0  0  0  0
   56.9152   30.4206   41.9023 H   0  0  0  0  0  0  0  0  0  0  0  0
   57.7750   32.2400   42.8370 C   0  0  0  0  0  0  0  0  0  0  0  0
   58.2730   32.7540   42.0016 H   0  0  0  0  0  0  0  0  0  0  0  0
  1  2  1  0
  2  3  1  0
  3  4  1  0
  4  5  1  0
  5  6  1  0
  6  7  2  0
  6  8  1  0
  8  9  1  0
  9 10  1  0
 10 11  1  0
 11 12  2  0
 12 13  1  0
 13 14  2  0
 13 15  1  0
 15 16  1  0
 16 17  1  0
 16 18  1  0
 16 19  1  0
 19 20  1  0
 19 21  1  0
 19 22  1  0
 11 23  1  0
 23 24  1  0
 24 25  1  0
 25 26  1  0
 26 27  2  0
 26 28  1  0
 28 29  1  0
 28 30  2  0
 30 31  1  0
 30 32  1  0
 32 33  1  0
 23 34  2  0
 34 35  1  0
 34 36  1  0
 36 37  1  0
  5 38  2  0
 38 39  1  0
 38 40  1  0
 40 41  1  0
 40  3  2  0
 36  9  2  0
 32 24  2  0
M  CHG  5   4  -1   8  -1  10  -1  15  -1  25  -1
M  END
>  <UniqueID>  (37) 
34

>  <SMILES>  (37) 
CC[N-]C(=O)/N=c1\[n-]c([N-]C(=O)c2ccc(O)[n-]2)ccc1-c1cccc(=O)[n-]1

>  <Energy>  (37) 
74.66727266754708

>  <Genealogy>  (37) 
CC[N-]C(=O)N=c1[n-]c([N-]C(=O)c2ccc(O)[n-]2)ccc1-c1cccc(=O)[n-]1 (protonated)
CC[N-]C(=O)/N=c1\[n-]c([N-]C(=O)c2ccc(O)[n-]2)ccc1-c1cccc(=O)[n-]1 (cis-trans isomerization)
CC[N-]C(=O)/N=c1\[n-]c([N-]C(=O)c2ccc(O)[n-]2)ccc1-c1cccc(=O)[n-]1 (3D coordinates assigned)
CC[N-]C(=O)/N=c1\[n-]c([N-]C(=O)c2ccc(O)[n-]2)ccc1-c1cccc(=O)[n-]1 (optimized conformer: 74.66727266754708 kcal/mol)

>  <smiles>  (37) 
CCNC(=O)N=c1[nH]c(NC(=O)c2ccc(O)[nH]2)ccc1-c1cccc(=O)[nH]1

>  <score_type>  (37) 
oracle

>  <origin>  (37) 
adg

>  <m_score__min__energy>  (37) 
-16.100000000000001

>  <m_primary>  (37) 
energy

$$$$
37:0
     RDKit          3D

 42 45  0  0  0  0  0  0  0  0999 V2000
   55.2570   27.0780   45.1460 H   0  0  0  0  0  0  0  0  0  0  0  0
   55.1440   26.4890   46.0010 N   0  0  0  0  0  0  0  0  0  0  0  0
   56.6170   25.6090   46.2030 S   0  0  0  0  0  0  0  0  0  0  0  0
   56.5410   24.7840   47.4580 O   0  0  0  0  0  0  0  0  0  0  0  0
   56.8170   24.6880   45.0330 O   0  0  0  0  0  0  0  0  0  0  0  0
   57.9660   26.7350   46.3070 C   0  0  0  0  0  0  0  0  0  0  0  0
   59.2610   26.3240   45.9610 C   0  0  0  0  0  0  0  0  0  0  0  0
   59.4404   25.2870   45.6408 H   0  0  0  0  0  0  0  0  0  0  0  0
   60.3250   27.2290   46.0220 C   0  0  0  0  0  0  0  0  0  0  0  0
   61.3409   26.9014   45.7564 H   0  0  0  0  0  0  0  0  0  0  0  0
   60.0990   28.5490   46.4200 C   0  0  0  0  0  0  0  0  0  0  0  0
   60.9362   29.2613   46.4613 H   0  0  0  0  0  0  0  0  0  0  0  0
   58.8060   28.9670   46.7670 C   0  0  0  0  0  0  0  0  0  0  0  0
   58.5490   30.3310   47.1160 N   0  0  0  0  0  0  0  0  0  0  0  0
   58.4910   31.2980   46.2470 C   0  0  0  0  0  0  0  0  0  0  0  0
   57.9780   31.1380   44.8910 C   0  0  0  0  0  0  0  0  0  0  0  0
   57.4040   30.0180   44.2880 C   0  0  0  0  0  0  0  0  0  0  0  0
   57.2756   29.0796   44.8474 H   0  0  0  0  0  0  0  0  0  0  0  0
   56.9940   30.1200   42.9470 C   0  0  0  0  0  0  0  0  0  0  0  0
   56.5352   29.2540   42.4475 H   0  0  0  0  0  0  0  0  0  0  0  0
   57.1680   31.3260   42.2400 C   0  0  0  0  0  0  0  0  0  0  0  0
   56.8450   31.3967   41.1909 H   0  0  0  0  0  0  0  0  0  0  0  0
   57.7520   32.4390   42.8680 C   0  0  0  0  0  0  0  0  0  0  0  0
   57.8926   33.3845   42.3237 H   0  0  0  0  0  0  0  0  0  0  0  0
   58.1490   32.3140   44.2000 C   0  0  0  0  0  0  0  0  0  0  0  0
   58.7810   33.2930   45.0710 C   0  0  0  0  0  0  0  0  0  0  0  0
   59.0590   34.4760   44.7390 O   0  0  0  0  0  0  0  0  0  0  0  0
   59.0370   32.7000   46.4300 C   0  0  2  0  0  0  0  0  0  0  0  0
   58.5754   33.2541   47.2606 H   0  0  0  0  0  0  0  0  0  0  0  0
   60.5130   32.6970   46.7710 C   0  0  0  0  0  0  0  0  0  0  0  0
   61.1070   31.5350   47.2920 C   0  0  0  0  0  0  0  0  0  0  0  0
   60.4859   30.6531   47.5075 H   0  0  0  0  0  0  0  0  0  0  0  0
   62.4820   31.4930   47.5380 C   0  0  0  0  0  0  0  0  0  0  0  0
   62.9401   30.5773   47.9402 H   0  0  0  0  0  0  0  0  0  0  0  0
   63.2760   32.6120   47.2740 C   0  0  0  0  0  0  0  0  0  0  0  0
   64.3582   32.5769   47.4678 H   0  0  0  0  0  0  0  0  0  0  0  0
   62.6950   33.7750   46.7640 C   0  0  0  0  0  0  0  0  0  0  0  0
   63.3205   34.6562   46.5586 H   0  0  0  0  0  0  0  0  0  0  0  0
   61.3210   33.8220   46.5140 C   0  0  0  0  0  0  0  0  0  0  0  0
   60.8683   34.7416   46.1147 H   0  0  0  0  0  0  0  0  0  0  0  0
   57.7470   28.0520   46.7310 C   0  0  0  0  0  0  0  0  0  0  0  0
   56.7389   28.3685   47.0369 H   0  0  0  0  0  0  0  0  0  0  0  0
  1  2  1  0
  2  3  1  0
  3  4  2  0
  3  5  2  0
  3  6  1  0
  6  7  2  0
  7  8  1  0
  7  9  1  0
  9 10  1  0
  9 11  2  0
 11 12  1  0
 11 13  1  0
 13 14  1  0
 14 15  2  0
 15 16  1  0
 16 17  2  0
 17 18  1  0
 17 19  1  0
 19 20  1  0
 19 21  2  0
 21 22  1  0
 21 23  1  0
 23 24  1  0
 23 25  2  0
 25 26  1  0
 26 27  2  0
 26 28  1  0
 28 29  1  1
 28 30  1  0
 30 31  2  0
 31 32  1  0
 31 33  1  0
 33 34  1  0
 33 35  2  0
 35 36  1  0
 35 37  1  0
 37 38  1  0
 37 39  2  0
 39 40  1  0
 13 41  2  0
 41 42  1  0
 41  6  1  0
 28 15  1  0
 39 30  1  0
 25 16  1  0
M  CHG  1   2  -1
M  END
>  <UniqueID>  (38) 
35

>  <SMILES>  (38) 
[NH-]S(=O)(=O)c1cccc(/N=C2/c3ccccc3C(=O)[C@@H]2c2ccccc2)c1

>  <Energy>  (38) 
70.44966858722223

>  <Genealogy>  (38) 
[NH-]S(=O)(=O)c1cccc(N=C2c3ccccc3C(=O)C2c2ccccc2)c1 (protonated)
[NH-]S(=O)(=O)c1cccc(N=C2c3ccccc3C(=O)[C@@H]2c2ccccc2)c1 (chirality)
[NH-]S(=O)(=O)c1cccc(/N=C2/c3ccccc3C(=O)[C@@H]2c2ccccc2)c1 (cis-trans isomerization)
[NH-]S(=O)(=O)c1cccc(/N=C2/c3ccccc3C(=O)[C@@H]2c2ccccc2)c1 (3D coordinates assigned)
[NH-]S(=O)(=O)c1cccc(/N=C2/c3ccccc3C(=O)[C@@H]2c2ccccc2)c1 (nonaromatic ring conformer: 70.44966858722223 kcal/mol)

>  <smiles>  (38) 
NS(=O)(=O)c1cccc(N=C2c3ccccc3C(=O)C2c2ccccc2)c1

>  <score_type>  (38) 
oracle

>  <origin>  (38) 
adg

>  <m_score__min__energy>  (38) 
-13.050000000000001

>  <m_primary>  (38) 
energy

$$$$
38:0
     RDKit          3D

 37 39  0  0  0  0  0  0  0  0999 V2000
   61.2490   30.3820   46.9468 H   0  0  0  0  0  0  0  0  0  0  0  0
   60.4590   30.0810   46.2430 C   0  0  0  0  0  0  0  0  0  0  0  0
   60.4882   29.0852   45.7765 H   0  0  0  0  0  0  0  0  0  0  0  0
   59.4580   30.9300   45.9530 C   0  0  0  0  0  0  0  0  0  0  0  0
   58.3820   30.6910   45.0780 C   0  0  0  0  0  0  0  0  0  0  0  0
   57.9790   29.5680   44.4500 C   0  0  0  0  0  0  0  0  0  0  0  0
   58.0771   29.5434   43.3547 H   0  0  0  0  0  0  0  0  0  0  0  0
   57.4180   28.3690   45.1020 C   0  0  0  0  0  0  0  0  0  0  0  0
   56.0300   28.2080   45.2590 C   0  0  0  0  0  0  0  0  0  0  0  0
   55.1470   29.1950   44.8380 O   0  0  0  0  0  0  0  0  0  0  0  0
   55.5400   27.0740   45.8250 N   0  0  0  0  0  0  0  0  0  0  0  0
   56.3690   26.0780   46.2280 C   0  0  0  0  0  0  0  0  0  0  0  0
   55.8940   25.0380   46.7540 O   0  0  0  0  0  0  0  0  0  0  0  0
   57.7120   26.1990   46.0610 N   0  0  0  0  0  0  0  0  0  0  0  0
   58.2510   27.3120   45.5010 C   0  0  0  0  0  0  0  0  0  0  0  0
   59.5000   27.3890   45.3540 O   0  0  0  0  0  0  0  0  0  0  0  0
   57.7000   31.8890   44.9660 C   0  0  0  0  0  0  0  0  0  0  0  0
   56.8211   32.0856   44.3344 H   0  0  0  0  0  0  0  0  0  0  0  0
   58.3310   32.7890   45.7960 C   0  0  0  0  0  0  0  0  0  0  0  0
   57.8620   34.1950   46.0230 C   0  0  0  0  0  0  0  0  0  0  0  0
   57.7970   34.3899   47.1036 H   0  0  0  0  0  0  0  0  0  0  0  0
   58.5745   34.8975   45.5659 H   0  0  0  0  0  0  0  0  0  0  0  0
   56.8705   34.3291   45.5659 H   0  0  0  0  0  0  0  0  0  0  0  0
   59.3980   32.2150   46.4010 N   0  0  0  0  0  0  0  0  0  0  0  0
   60.2640   32.8770   47.3920 C   0  0  0  0  0  0  0  0  0  0  0  0
   61.2397   32.3696   47.4160 H   0  0  0  0  0  0  0  0  0  0  0  0
   60.3908   33.9312   47.1047 H   0  0  0  0  0  0  0  0  0  0  0  0
   59.6410   32.8180   48.7630 C   0  0  0  0  0  0  0  0  0  0  0  0
   59.8460   33.8530   49.6900 C   0  0  0  0  0  0  0  0  0  0  0  0
   60.4751   34.7139   49.4197 H   0  0  0  0  0  0  0  0  0  0  0  0
   59.2700   33.7950   50.9200 N   0  0  0  0  0  0  0  0  0  0  0  0
   58.4850   32.7500   51.2930 C   0  0  0  0  0  0  0  0  0  0  0  0
   58.0305   32.7344   52.2946 H   0  0  0  0  0  0  0  0  0  0  0  0
   58.2550   31.6970   50.4070 C   0  0  0  0  0  0  0  0  0  0  0  0
   57.6224   30.8480   50.7053 H   0  0  0  0  0  0  0  0  0  0  0  0
   58.8360   31.7320   49.1380 C   0  0  0  0  0  0  0  0  0  0  0  0
   58.6624   30.9071   48.4314 H   0  0  0  0  0  0  0  0  0  0  0  0
  1  2  1  0
  2  3  1  0
  2  4  2  0
  4  5  1  0
  5  6  2  0
  6  7  1  0
  6  8  1  0
  8  9  2  0
  9 10  1  0
  9 11  1  0
 11 12  1  0
 12 13  2  0
 12 14  1  0
 14 15  1  0
 15 16  2  0
  5 17  1  0
 17 18  1  0
 17 19  2  0
 19 20  1  0
 20 21  1  0
 20 22  1  0
 20 23  1  0
 19 24  1  0
 24 25  1  0
 25 26  1  0
 25 27  1  0
 25 28  1  0
 28 29  2  0
 29 30  1  0
 29 31  1  0
 31 32  2  0
 32 33  1  0
 32 34  1  0
 34 35  1  0
 34 36  2  0
 36 37  1  0
 24  4  1  0
 36 28  1  0
 15  8  1  0
M  CHG  3  10  -1  11  -1  14  -1
M  END
>  <UniqueID>  (39) 
36

>  <SMILES>  (39) 
C=c1/c(=C\c2c([O-])[n-]c(=O)[n-]c2=O)cc(C)n1Cc1cccnc1

>  <Energy>  (39) 
83.29279462801404

>  <Genealogy>  (39) 
C=c1c(=Cc2c([O-])[n-]c(=O)[n-]c2=O)cc(C)n1Cc1cccnc1 (protonated)
C=c1/c(=C\c2c([O-])[n-]c(=O)[n-]c2=O)cc(C)n1Cc1cccnc1 (cis-trans isomerization)
C=c1/c(=C\c2c([O-])[n-]c(=O)[n-]c2=O)cc(C)n1Cc1cccnc1 (3D coordinates assigned)
C=c1/c(=C\c2c([O-])[n-]c(=O)[n-]c2=O)cc(C)n1Cc1cccnc1 (optimized conformer: 83.29279462801404 kcal/mol)

>  <smiles>  (39) 
C=c1c(=Cc2c(O)[nH]c(=O)[nH]c2=O)cc(C)n1Cc1cccnc1

>  <score_type>  (39) 
oracle

>  <origin>  (39) 
adg

>  <m_score__min__energy>  (39) 
-15.26

>  <m_primary>  (39) 
energy

$$$$
39:0
     RDKit          3D

 79 83  0  0  0  0  0  0  0  0999 V2000
   55.5330   29.7190   43.3800 C   0  0  0  0  0  0  0  0  0  0  0  0
   56.5360   29.2860   44.1530 C   0  0  0  0  0  0  0  0  0  0  0  0
   57.9040   29.9050   44.0900 C   0  0  0  0  0  0  0  0  0  0  0  0
   58.2470   30.5220   45.3940 N   0  0  0  0  0  0  0  0  0  0  0  0
   57.9360   31.8470   45.6050 C   0  0  0  0  0  0  0  0  0  0  0  0
   57.3290   32.4960   44.7050 O   0  0  0  0  0  0  0  0  0  0  0  0
   58.2720   32.4740   46.7820 N   0  0  0  0  0  0  0  0  0  0  0  0
   57.9900   33.9170   46.9700 C   0  0  0  0  0  0  0  0  0  0  0  0
   59.2720   34.7280   47.2450 C   0  0  0  0  0  0  0  0  0  0  0  0
   60.4650   34.3100   46.3690 C   0  0  0  0  0  0  0  0  0  0  0  0
   61.6990   34.1610   47.1680 N   0  0  0  0  0  0  0  0  0  0  0  0
   61.4270   34.2200   48.6340 C   0  0  0  0  0  0  0  0  0  0  0  0
   61.9340   33.0010   49.4250 C   0  0  0  0  0  0  0  0  0  0  0  0
   63.3110   32.6720   49.0330 N   0  0  0  0  0  0  0  0  0  0  0  0
   64.2060   32.0590   49.9870 C   0  0  0  0  0  0  0  0  0  0  0  0
   65.4020   32.6520   50.2690 N   0  0  0  0  0  0  0  0  0  0  0  0
   66.2620   32.1180   51.1750 C   0  0  0  0  0  0  0  0  0  0  0  0
   65.9240   30.9400   51.8390 C   0  0  0  0  0  0  0  0  0  0  0  0
   64.7040   30.3350   51.5380 C   0  0  0  0  0  0  0  0  0  0  0  0
   63.8700   30.8950   50.6220 N   0  0  0  0  0  0  0  0  0  0  0  0
   63.6880   32.7600   47.6170 C   0  0  0  0  0  0  0  0  0  0  0  0
   62.4500   32.9640   46.7390 C   0  0  0  0  0  0  0  0  0  0  0  0
   58.8830   31.7720   47.7850 C   0  0  0  0  0  0  0  0  0  0  0  0
   59.1670   32.3450   48.8760 O   0  0  0  0  0  0  0  0  0  0  0  0
   59.1870   30.4160   47.6170 C   0  0  0  0  0  0  0  0  0  0  0  0
   59.8360   29.6830   48.6340 C   0  0  0  0  0  0  0  0  0  0  0  0
   60.1090   28.3190   48.4700 C   0  0  0  0  0  0  0  0  0  0  0  0
   60.7870   27.5490   49.4710 N   0  0  0  0  0  0  0  0  0  0  0  0
   61.1570   28.0640   51.0890 S   0  0  0  0  0  0  0  0  0  0  0  0
   62.6020   28.4440   51.2420 O   0  0  0  0  0  0  0  0  0  0  0  0
   60.8610   26.9350   52.0340 O   0  0  0  0  0  0  0  0  0  0  0  0
   60.1610   29.4640   51.4680 C   0  0  0  0  0  0  0  0  0  0  0  0
   60.7450   30.6770   51.8430 C   0  0  0  0  0  0  0  0  0  0  0  0
   59.9440   31.7800   52.1420 C   0  0  0  0  0  0  0  0  0  0  0  0
   58.5410   31.6820   52.0710 C   0  0  0  0  0  0  0  0  0  0  0  0
   57.7000   32.7720   52.3610 O   0  0  0  0  0  0  0  0  0  0  0  0
   58.1420   34.1200   52.4970 C   0  0  0  0  0  0  0  0  0  0  0  0
   57.9490   30.4620   51.6980 C   0  0  0  0  0  0  0  0  0  0  0  0
   56.5490   30.3890   51.6340 O   0  0  0  0  0  0  0  0  0  0  0  0
   55.6830   30.4840   52.7600 C   0  0  0  0  0  0  0  0  0  0  0  0
   58.7680   29.3550   51.4000 C   0  0  0  0  0  0  0  0  0  0  0  0
   59.7610   27.6940   47.2750 C   0  0  0  0  0  0  0  0  0  0  0  0
   59.1250   28.4050   46.2580 C   0  0  0  0  0  0  0  0  0  0  0  0
   58.8430   29.7860   46.3990 C   0  0  0  0  0  0  0  0  0  0  0  0
   54.5422   29.2460   43.4484 H   0  0  0  0  0  0  0  0  0  0  0  0
   55.6994   30.5479   42.6762 H   0  0  0  0  0  0  0  0  0  0  0  0
   56.3546   28.4562   44.8520 H   0  0  0  0  0  0  0  0  0  0  0  0
   58.6441   29.1274   43.8500 H   0  0  0  0  0  0  0  0  0  0  0  0
   57.9108   30.6826   43.3120 H   0  0  0  0  0  0  0  0  0  0  0  0
   57.5125   34.3066   46.0588 H   0  0  0  0  0  0  0  0  0  0  0  0
   57.3293   34.0218   47.8432 H   0  0  0  0  0  0  0  0  0  0  0  0
   59.0582   35.7906   47.0573 H   0  0  0  0  0  0  0  0  0  0  0  0
   59.5567   34.5367   48.2902 H   0  0  0  0  0  0  0  0  0  0  0  0
   60.2341   33.3492   45.8858 H   0  0  0  0  0  0  0  0  0  0  0  0
   60.6334   35.0961   45.6182 H   0  0  0  0  0  0  0  0  0  0  0  0
   61.9146   35.1193   49.0383 H   0  0  0  0  0  0  0  0  0  0  0  0
   60.3332   34.2360   48.7496 H   0  0  0  0  0  0  0  0  0  0  0  0
   61.9085   33.2308   50.5004 H   0  0  0  0  0  0  0  0  0  0  0  0
   61.2857   32.1396   49.2067 H   0  0  0  0  0  0  0  0  0  0  0  0
   67.2216   32.6135   51.3838 H   0  0  0  0  0  0  0  0  0  0  0  0
   66.6034   30.4980   52.5827 H   0  0  0  0  0  0  0  0  0  0  0  0
   64.4156   29.4015   52.0435 H   0  0  0  0  0  0  0  0  0  0  0  0
   62.9700   30.4090   50.4080 H   0  0  0  0  0  0  0  0  0  0  0  0
   64.3733   33.6091   47.4779 H   0  0  0  0  0  0  0  0  0  0  0  0
   64.1794   31.8209   47.3228 H   0  0  0  0  0  0  0  0  0  0  0  0
   62.7658   33.0912   45.6930 H   0  0  0  0  0  0  0  0  0  0  0  0
   61.7981   32.0833   46.8357 H   0  0  0  0  0  0  0  0  0  0  0  0
   60.1305   30.1886   49.5655 H   0  0  0  0  0  0  0  0  0  0  0  0
   61.8400   30.7627   51.9027 H   0  0  0  0  0  0  0  0  0  0  0  0
   60.4114   32.7317   52.4349 H   0  0  0  0  0  0  0  0  0  0  0  0
   58.2249   34.3728   53.5644 H   0  0  0  0  0  0  0  0  0  0  0  0
   59.1246   34.2340   52.0158 H   0  0  0  0  0  0  0  0  0  0  0  0
   57.4177   34.7937   52.0158 H   0  0  0  0  0  0  0  0  0  0  0  0
   56.2753   30.4190   53.6846 H   0  0  0  0  0  0  0  0  0  0  0  0
   55.1502   31.4460   52.7327 H   0  0  0  0  0  0  0  0  0  0  0  0
   54.9543   29.6604   52.7327 H   0  0  0  0  0  0  0  0  0  0  0  0
   58.3087   28.3979   51.1117 H   0  0  0  0  0  0  0  0  0  0  0  0
   59.9904   26.6277   47.1319 H   0  0  0  0  0  0  0  0  0  0  0  0
   58.8378   27.8855   45.3319 H   0  0  0  0  0  0  0  0  0  0  0  0
  1  2  2  0
  2  3  1  0
  3  4  1  0
  4  5  1  0
  5  6  2  0
  5  7  1  0
  7  8  1  0
  8  9  1  0
  9 10  1  0
 10 11  1  0
 11 12  1  0
 12 13  1  0
 13 14  1  0
 14 15  1  0
 15 16  2  0
 16 17  1  0
 17 18  2  0
 18 19  1  0
 19 20  2  0
 14 21  1  0
 21 22  1  0
  7 23  1  0
 23 24  2  0
 23 25  1  0
 25 26  2  0
 26 27  1  0
 27 28  1  0
 28 29  1  0
 29 30  2  0
 29 31  2  0
 29 32  1  0
 32 33  2  0
 33 34  1  0
 34 35  2  0
 35 36  1  0
 36 37  1  0
 35 38  1  0
 38 39  1  0
 39 40  1  0
 38 41  2  0
 27 42  2  0
 42 43  1  0
 43 44  2  0
 44  4  1  0
 22 11  1  0
 44 25  1  0
 20 15  1  0
 41 32  1  0
  1 45  1  0
  1 46  1  0
  2 47  1  0
  3 48  1  0
  3 49  1  0
  8 50  1  0
  8 51  1  0
  9 52  1  0
  9 53  1  0
 10 54  1  0
 10 55  1  0
 12 56  1  0
 12 57  1  0
 13 58  1  0
 13 59  1  0
 17 60  1  0
 18 61  1  0
 19 62  1  0
 20 63  1  0
 21 64  1  0
 21 65  1  0
 22 66  1  0
 22 67  1  0
 26 68  1  0
 33 69  1  0
 34 70  1  0
 37 71  1  0
 37 72  1  0
 37 73  1  0
 40 74  1  0
 40 75  1  0
 40 76  1  0
 41 77  1  0
 42 78  1  0
 43 79  1  0
M  CHG  2  20   1  28  -1
M  END
>  <UniqueID>  (40) 
37

>  <SMILES>  (40) 
C=CCn1c(=O)n(CCCN2CCN(c3nccc[nH+]3)CC2)c(=O)c2cc([N-]S(=O)(=O)c3ccc(OC)c(OC)c3)ccc21

>  <Energy>  (40) 
109.46712483902398

>  <Genealogy>  (40) 
C=CCn1c(=O)n(CCCN2CCN(c3nccc[nH+]3)CC2)c(=O)c2cc([N-]S(=O)(=O)c3ccc(OC)c(OC)c3)ccc21 (protonated)
C=CCn1c(=O)n(CCCN2CCN(c3nccc[nH+]3)CC2)c(=O)c2cc([N-]S(=O)(=O)c3ccc(OC)c(OC)c3)ccc21 (3D coordinates assigned)
C=CCn1c(=O)n(CCCN2CCN(c3nccc[nH+]3)CC2)c(=O)c2cc([N-]S(=O)(=O)c3ccc(OC)c(OC)c3)ccc21 (nonaromatic ring conformer: 109.46712483902398 kcal/mol)

>  <smiles>  (40) 
C=CCn1c(=O)n(CCCN2CCN(c3ncccn3)CC2)c(=O)c2cc(NS(=O)(=O)c3ccc(OC)c(OC)c3)ccc21

>  <score_type>  (40) 
oracle

>  <origin>  (40) 
adg

>  <m_score__min__energy>  (40) 
-9.9600000000000009

>  <m_primary>  (40) 
energy

$$$$
40:0
     RDKit          3D

 27 28  0  0  0  0  0  0  0  0999 V2000
   55.1430   29.3700   44.8140 N   0  0  0  0  0  0  0  0  0  0  0  0
   56.5480   29.3880   45.0620 C   0  0  0  0  0  0  0  0  0  0  0  0
   57.1520   30.4940   45.0930 O   0  0  0  0  0  0  0  0  0  0  0  0
   57.2910   28.1240   45.2820 C   0  0  0  0  0  0  0  0  0  0  0  0
   58.5730   27.9440   44.7280 C   0  0  0  0  0  0  0  0  0  0  0  0
   59.2740   26.7520   44.9340 C   0  0  0  0  0  0  0  0  0  0  0  0
   58.7030   25.7240   45.6910 C   0  0  0  0  0  0  0  0  0  0  0  0
   59.6040   24.1970   45.9550 S   0  0  0  0  0  0  0  0  0  0  0  0
   58.4550   23.2020   44.9510 C   0  0  0  0  0  0  0  0  0  0  0  0
   57.2680   22.8230   45.7790 C   0  0  0  0  0  0  0  0  0  0  0  0
   55.9780   22.8490   45.2360 C   0  0  0  0  0  0  0  0  0  0  0  0
   54.9010   22.5200   46.0610 C   0  0  0  0  0  0  0  0  0  0  0  0
   53.7280   22.5280   45.6050 O   0  0  0  0  0  0  0  0  0  0  0  0
   55.1190   22.1920   47.3610 N   0  0  0  0  0  0  0  0  0  0  0  0
   56.3760   22.1820   47.8770 C   0  0  0  0  0  0  0  0  0  0  0  0
   56.5570   21.8790   49.0840 O   0  0  0  0  0  0  0  0  0  0  0  0
   57.4370   22.4990   47.0900 N   0  0  0  0  0  0  0  0  0  0  0  0
   57.4320   25.8940   46.2480 C   0  0  0  0  0  0  0  0  0  0  0  0
   56.7280   27.0840   46.0450 C   0  0  0  0  0  0  0  0  0  0  0  0
   54.4590   29.3460   45.6020 H   0  0  0  0  0  0  0  0  0  0  0  0
   59.0264   28.7473   44.1286 H   0  0  0  0  0  0  0  0  0  0  0  0
   60.2764   26.6225   44.4999 H   0  0  0  0  0  0  0  0  0  0  0  0
   58.1234   23.7901   44.0826 H   0  0  0  0  0  0  0  0  0  0  0  0
   58.9656   22.2915   44.6043 H   0  0  0  0  0  0  0  0  0  0  0  0
   55.8166   23.1225   44.1829 H   0  0  0  0  0  0  0  0  0  0  0  0
   56.9845   25.0881   46.8482 H   0  0  0  0  0  0  0  0  0  0  0  0
   55.7273   27.2086   46.4844 H   0  0  0  0  0  0  0  0  0  0  0  0
  1  2  1  0
  2  3  2  0
  2  4  1  0
  4  5  2  0
  5  6  1  0
  6  7  2  0
  7  8  1  0
  8  9  1  0
  9 10  1  0
 10 11  2  0
 11 12  1  0
 12 13  2  0
 12 14  1  0
 14 15  1  0
 15 16  2  0
 15 17  1  0
  7 18  1  0
 18 19  2  0
 19  4  1  0
 17 10  1  0
  1 20  1  0
  5 21  1  0
  6 22  1  0
  9 23  1  0
  9 24  1  0
 11 25  1  0
 18 26  1  0
 19 27  1  0
M  CHG  3   1  -1  14  -1  17  -1
M  END
>  <UniqueID>  (41) 
38

>  <SMILES>  (41) 
[NH-]C(=O)c1ccc(SCc2cc(=O)[n-]c(=O)[n-]2)cc1

>  <Energy>  (41) 
24.266531004609433

>  <Genealogy>  (41) 
[NH-]C(=O)c1ccc(SCc2cc(=O)[n-]c(=O)[n-]2)cc1 (protonated)
[NH-]C(=O)c1ccc(SCc2cc(=O)[n-]c(=O)[n-]2)cc1 (3D coordinates assigned)
[NH-]C(=O)c1ccc(SCc2cc(=O)[n-]c(=O)[n-]2)cc1 (optimized conformer: 24.266531004609433 kcal/mol)

>  <smiles>  (41) 
NC(=O)c1ccc(SCc2cc(=O)[nH]c(=O)[nH]2)cc1

>  <score_type>  (41) 
oracle

>  <origin>  (41) 
adg

>  <m_score__min__energy>  (41) 
-12.73

>  <m_primary>  (41) 
energy

$$$$
41:0
     RDKit          3D

 52 54  0  0  0  0  0  0  0  0999 V2000
   56.0520   30.5430   52.4860 C   0  0  0  0  0  0  0  0  0  0  0  0
   57.0100   30.4380   51.4560 O   0  0  0  0  0  0  0  0  0  0  0  0
   57.7310   31.6490   51.3270 C   0  0  0  0  0  0  0  0  0  0  0  0
   58.6010   31.8780   52.5630 C   0  0  0  0  0  0  0  0  0  0  0  0
   59.6850   33.2770   52.3300 S   0  0  0  0  0  0  0  0  0  0  0  0
   59.1090   34.1620   51.2590 O   0  0  0  0  0  0  0  0  0  0  0  0
   59.7590   34.0490   53.6180 O   0  0  0  0  0  0  0  0  0  0  0  0
   61.2810   32.7170   51.8710 N   0  0  0  0  0  0  0  0  0  0  0  0
   62.1040   33.8190   51.3110 C   0  0  0  0  0  0  0  0  0  0  0  0
   62.4870   33.6440   49.8280 C   0  0  0  0  0  0  0  0  0  0  0  0
   61.3860   33.0440   49.0640 N   0  0  0  0  0  0  0  0  0  0  0  0
   61.2220   33.3810   47.6700 C   0  0  0  0  0  0  0  0  0  0  0  0
   62.1960   33.8450   47.0200 O   0  0  0  0  0  0  0  0  0  0  0  0
   59.9350   33.1640   46.9740 C   0  0  0  0  0  0  0  0  0  0  0  0
   59.8200   32.1580   46.0000 C   0  0  0  0  0  0  0  0  0  0  0  0
   58.6140   31.9690   45.3070 C   0  0  0  0  0  0  0  0  0  0  0  0
   58.5180   30.9190   44.2290 C   0  0  0  0  0  0  0  0  0  0  0  0
   57.7040   29.7400   44.7070 C   0  0  0  0  0  0  0  0  0  0  0  0
   58.3490   28.5840   45.1700 C   0  0  0  0  0  0  0  0  0  0  0  0
   57.6220   27.5320   45.6250 N   0  0  0  0  0  0  0  0  0  0  0  0
   56.2660   27.5730   45.6400 C   0  0  0  0  0  0  0  0  0  0  0  0
   55.6110   26.5860   46.0670 O   0  0  0  0  0  0  0  0  0  0  0  0
   55.6140   28.6780   45.1930 N   0  0  0  0  0  0  0  0  0  0  0  0
   56.2970   29.7560   44.7280 C   0  0  0  0  0  0  0  0  0  0  0  0
   55.6560   30.7610   44.3180 O   0  0  0  0  0  0  0  0  0  0  0  0
   57.5110   32.7820   45.6090 C   0  0  0  0  0  0  0  0  0  0  0  0
   57.6090   33.7600   46.6010 C   0  0  0  0  0  0  0  0  0  0  0  0
   58.8120   33.9510   47.2850 C   0  0  0  0  0  0  0  0  0  0  0  0
   58.8890   34.9260   48.2260 F   0  0  0  0  0  0  0  0  0  0  0  0
   60.7020   31.8620   49.6060 C   0  0  0  0  0  0  0  0  0  0  0  0
   61.2130   31.5210   51.0110 C   0  0  0  0  0  0  0  0  0  0  0  0
   56.5558   30.4878   53.4623 H   0  0  0  0  0  0  0  0  0  0  0  0
   55.5244   31.5043   52.3995 H   0  0  0  0  0  0  0  0  0  0  0  0
   55.3287   29.7187   52.3995 H   0  0  0  0  0  0  0  0  0  0  0  0
   58.3728   31.5968   50.4352 H   0  0  0  0  0  0  0  0  0  0  0  0
   57.0196   32.4822   51.2287 H   0  0  0  0  0  0  0  0  0  0  0  0
   57.9515   32.0665   53.4305 H   0  0  0  0  0  0  0  0  0  0  0  0
   59.2160   30.9815   52.7304 H   0  0  0  0  0  0  0  0  0  0  0  0
   61.5363   34.7559   51.4105 H   0  0  0  0  0  0  0  0  0  0  0  0
   63.0466   33.8234   51.8780 H   0  0  0  0  0  0  0  0  0  0  0  0
   62.7260   34.6288   49.4002 H   0  0  0  0  0  0  0  0  0  0  0  0
   63.3580   32.9747   49.7692 H   0  0  0  0  0  0  0  0  0  0  0  0
   60.6828   31.5126   45.7785 H   0  0  0  0  0  0  0  0  0  0  0  0
   58.0362   31.3550   43.3414 H   0  0  0  0  0  0  0  0  0  0  0  0
   59.5318   30.5726   43.9798 H   0  0  0  0  0  0  0  0  0  0  0  0
   59.4476   28.5297   45.1644 H   0  0  0  0  0  0  0  0  0  0  0  0
   56.5658   32.6485   45.0624 H   0  0  0  0  0  0  0  0  0  0  0  0
   56.7354   34.3825   46.8448 H   0  0  0  0  0  0  0  0  0  0  0  0
   59.6219   32.0642   49.6563 H   0  0  0  0  0  0  0  0  0  0  0  0
   60.9063   31.0074   48.9442 H   0  0  0  0  0  0  0  0  0  0  0  0
   60.5318   30.7896   51.4705 H   0  0  0  0  0  0  0  0  0  0  0  0
   62.2282   31.1082   50.9162 H   0  0  0  0  0  0  0  0  0  0  0  0
  1  2  1  0
  2  3  1  0
  3  4  1  0
  4  5  1  0
  5  6  2  0
  5  7  2  0
  5  8  1  0
  8  9  1  0
  9 10  1  0
 10 11  1  0
 11 12  1  0
 12 13  2  0
 12 14  1  0
 14 15  2  0
 15 16  1  0
 16 17  1  0
 17 18  1  0
 18 19  2  0
 19 20  1  0
 20 21  1  0
 21 22  2  0
 21 23  1  0
 23 24  1  0
 24 25  2  0
 16 26  2  0
 26 27  1  0
 27 28  2  0
 28 29  1  0
 11 30  1  0
 30 31  1  0
 31  8  1  0
 28 14  1  0
 24 18  1  0
  1 32  1  0
  1 33  1  0
  1 34  1  0
  3 35  1  0
  3 36  1  0
  4 37  1  0
  4 38  1  0
  9 39  1  0
  9 40  1  0
 10 41  1  0
 10 42  1  0
 15 43  1  0
 17 44  1  0
 17 45  1  0
 19 46  1  0
 26 47  1  0
 27 48  1  0
 30 49  1  0
 30 50  1  0
 31 51  1  0
 31 52  1  0
M  CHG  2  20  -1  23  -1
M  END
>  <UniqueID>  (42) 
39

>  <SMILES>  (42) 
COCCS(=O)(=O)N1CCN(C(=O)c2cc(Cc3c[n-]c(=O)[n-]c3=O)ccc2F)CC1

>  <Energy>  (42) 
60.027284742066065

>  <Genealogy>  (42) 
COCCS(=O)(=O)N1CCN(C(=O)c2cc(Cc3c[n-]c(=O)[n-]c3=O)ccc2F)CC1 (protonated)
COCCS(=O)(=O)N1CCN(C(=O)c2cc(Cc3c[n-]c(=O)[n-]c3=O)ccc2F)CC1 (3D coordinates assigned)
COCCS(=O)(=O)N1CCN(C(=O)c2cc(Cc3c[n-]c(=O)[n-]c3=O)ccc2F)CC1 (nonaromatic ring conformer: 60.027284742066065 kcal/mol)

>  <smiles>  (42) 
COCCS(=O)(=O)N1CCN(C(=O)c2cc(Cc3c[nH]c(=O)[nH]c3=O)ccc2F)CC1

>  <score_type>  (42) 
oracle

>  <origin>  (42) 
adg

>  <m_score__min__energy>  (42) 
-13.51

>  <m_primary>  (42) 
energy

$$$$
42:0
     RDKit          3D

 64 67  0  0  0  0  0  0  0  0999 V2000
   62.2950   24.1520   52.6140 C   0  0  0  0  0  0  0  0  0  0  0  0
   62.4840   25.1570   51.6250 O   0  0  0  0  0  0  0  0  0  0  0  0
   62.2090   26.5080   51.8600 C   0  0  0  0  0  0  0  0  0  0  0  0
   62.6150   27.0650   52.9170 O   0  0  0  0  0  0  0  0  0  0  0  0
   61.4430   27.2890   50.8740 C   0  0  0  0  0  0  0  0  0  0  0  0
   61.0970   28.6250   51.1200 C   0  0  0  0  0  0  0  0  0  0  0  0
   60.3750   29.3360   50.1610 C   0  0  0  0  0  0  0  0  0  0  0  0
   59.9870   28.7170   48.9630 C   0  0  0  0  0  0  0  0  0  0  0  0
   59.2220   29.4820   47.9490 C   0  0  0  0  0  0  0  0  0  0  0  0
   58.5920   30.5120   48.3120 O   0  0  0  0  0  0  0  0  0  0  0  0
   59.1930   29.0690   46.5700 N   0  0  0  0  0  0  0  0  0  0  0  0
   58.3570   29.6760   45.5690 C   0  0  0  0  0  0  0  0  0  0  0  0
   57.2560   28.9660   45.0720 C   0  0  0  0  0  0  0  0  0  0  0  0
   56.4240   29.5380   44.1070 C   0  0  0  0  0  0  0  0  0  0  0  0
   56.6660   30.8360   43.6510 C   0  0  0  0  0  0  0  0  0  0  0  0
   57.7290   31.5870   44.1790 C   0  0  0  0  0  0  0  0  0  0  0  0
   57.9740   33.0090   43.7110 C   0  0  0  0  0  0  0  0  0  0  0  0
   58.2150   33.9680   44.8140 N   0  0  0  0  0  0  0  0  0  0  0  0
   57.3420   33.7890   45.9990 C   0  0  0  0  0  0  0  0  0  0  0  0
   58.0720   33.1350   47.1820 C   0  0  0  0  0  0  0  0  0  0  0  0
   59.3280   33.8360   47.4680 N   0  0  0  0  0  0  0  0  0  0  0  0
   60.0950   33.4650   48.6210 C   0  0  0  0  0  0  0  0  0  0  0  0
   59.6380   33.8510   49.8870 C   0  0  0  0  0  0  0  0  0  0  0  0
   60.3620   33.5230   51.0300 C   0  0  0  0  0  0  0  0  0  0  0  0
   61.5590   32.8180   50.9210 C   0  0  0  0  0  0  0  0  0  0  0  0
   62.0490   32.4290   49.6630 C   0  0  0  0  0  0  0  0  0  0  0  0
   63.3510   31.6760   49.5910 C   0  0  0  0  0  0  0  0  0  0  0  0
   61.2940   32.7230   48.4970 C   0  0  0  0  0  0  0  0  0  0  0  0
   61.7870   32.2930   47.1340 C   0  0  0  0  0  0  0  0  0  0  0  0
   59.8780   34.7790   46.4920 C   0  0  0  0  0  0  0  0  0  0  0  0
   59.6500   34.2240   45.0870 C   0  0  0  0  0  0  0  0  0  0  0  0
   58.5840   30.9920   45.1250 C   0  0  0  0  0  0  0  0  0  0  0  0
   60.3640   27.3810   48.7520 C   0  0  0  0  0  0  0  0  0  0  0  0
   61.0730   26.7100   49.6990 N   0  0  0  0  0  0  0  0  0  0  0  0
   62.3795   24.6015   53.6144 H   0  0  0  0  0  0  0  0  0  0  0  0
   61.2970   23.7047   52.4962 H   0  0  0  0  0  0  0  0  0  0  0  0
   63.0623   23.3727   52.4962 H   0  0  0  0  0  0  0  0  0  0  0  0
   61.3926   29.1093   52.0624 H   0  0  0  0  0  0  0  0  0  0  0  0
   60.1085   30.3873   50.3450 H   0  0  0  0  0  0  0  0  0  0  0  0
   59.8450   28.3210   46.2490 H   0  0  0  0  0  0  0  0  0  0  0  0
   57.0458   27.9524   45.4440 H   0  0  0  0  0  0  0  0  0  0  0  0
   55.5757   28.9647   43.7049 H   0  0  0  0  0  0  0  0  0  0  0  0
   56.0207   31.2723   42.8743 H   0  0  0  0  0  0  0  0  0  0  0  0
   58.8545   33.0103   43.0516 H   0  0  0  0  0  0  0  0  0  0  0  0
   57.0605   33.3381   43.1940 H   0  0  0  0  0  0  0  0  0  0  0  0
   56.9726   34.7755   46.3158 H   0  0  0  0  0  0  0  0  0  0  0  0
   56.5191   33.1202   45.7065 H   0  0  0  0  0  0  0  0  0  0  0  0
   57.4259   33.1745   48.0714 H   0  0  0  0  0  0  0  0  0  0  0  0
   58.3010   32.0909   46.9225 H   0  0  0  0  0  0  0  0  0  0  0  0
   58.6998   34.4177   49.9792 H   0  0  0  0  0  0  0  0  0  0  0  0
   59.9885   33.8209   52.0208 H   0  0  0  0  0  0  0  0  0  0  0  0
   62.1258   32.5635   51.8287 H   0  0  0  0  0  0  0  0  0  0  0  0
   63.7110   31.4678   50.6094 H   0  0  0  0  0  0  0  0  0  0  0  0
   63.1969   30.7276   49.0555 H   0  0  0  0  0  0  0  0  0  0  0  0
   64.0962   32.2825   49.0555 H   0  0  0  0  0  0  0  0  0  0  0  0
   62.6112   31.5741   47.2522 H   0  0  0  0  0  0  0  0  0  0  0  0
   60.9639   31.8191   46.5791 H   0  0  0  0  0  0  0  0  0  0  0  0
   62.1446   33.1729   46.5791 H   0  0  0  0  0  0  0  0  0  0  0  0
   59.3726   35.7509   46.5919 H   0  0  0  0  0  0  0  0  0  0  0  0
   60.9551   34.9144   46.6697 H   0  0  0  0  0  0  0  0  0  0  0  0
   60.0263   34.9516   44.3529 H   0  0  0  0  0  0  0  0  0  0  0  0
   60.1854   33.2661   45.0103 H   0  0  0  0  0  0  0  0  0  0  0  0
   59.4380   31.5609   45.5213 H   0  0  0  0  0  0  0  0  0  0  0  0
   60.0846   26.8746   47.8163 H   0  0  0  0  0  0  0  0  0  0  0  0
  1  2  1  0
  2  3  1  0
  3  4  2  0
  3  5  1  0
  5  6  2  0
  6  7  1  0
  7  8  2  0
  8  9  1  0
  9 10  2  0
  9 11  1  0
 11 12  1  0
 12 13  2  0
 13 14  1  0
 14 15  2  0
 15 16  1  0
 16 17  1  0
 17 18  1  0
 18 19  1  0
 19 20  1  0
 20 21  1  0
 21 22  1  0
 22 23  2  0
 23 24  1  0
 24 25  2  0
 25 26  1  0
 26 27  1  0
 26 28  2  0
 28 29  1  0
 21 30  1  0
 30 31  1  0
 16 32  2  0
  8 33  1  0
 33 34  2  0
 34  5  1  0
 32 12  1  0
 31 18  1  0
 28 22  1  0
  1 35  1  0
  1 36  1  0
  1 37  1  0
  6 38  1  0
  7 39  1  0
 11 40  1  0
 13 41  1  0
 14 42  1  0
 15 43  1  0
 17 44  1  0
 17 45  1  0
 19 46  1  0
 19 47  1  0
 20 48  1  0
 20 49  1  0
 23 50  1  0
 24 51  1  0
 25 52  1  0
 27 53  1  0
 27 54  1  0
 27 55  1  0
 29 56  1  0
 29 57  1  0
 29 58  1  0
 30 59  1  0
 30 60  1  0
 31 61  1  0
 31 62  1  0
 32 63  1  0
 33 64  1  0
M  END
>  <UniqueID>  (43) 
40

>  <SMILES>  (43) 
COC(=O)c1ccc(C(=O)Nc2cccc(CN3CCN(c4cccc(C)c4C)CC3)c2)cn1

>  <Energy>  (43) 
88.35417336795956

>  <Genealogy>  (43) 
COC(=O)c1ccc(C(=O)Nc2cccc(CN3CCN(c4cccc(C)c4C)CC3)c2)cn1 (3D coordinates assigned)
COC(=O)c1ccc(C(=O)Nc2cccc(CN3CCN(c4cccc(C)c4C)CC3)c2)cn1 (nonaromatic ring conformer: 88.35417336795956 kcal/mol)

>  <smiles>  (43) 
COC(=O)c1ccc(C(=O)Nc2cccc(CN3CCN(c4cccc(C)c4C)CC3)c2)cn1

>  <score_type>  (43) 
oracle

>  <origin>  (43) 
adg

>  <m_score__min__energy>  (43) 
-8.7200000000000006

>  <m_primary>  (43) 
energy

$$$$
43:0
     RDKit          3D

 40 42  0  0  0  0  0  0  0  0999 V2000
   59.8599   30.1680   47.9038 H   0  0  0  0  0  0  0  0  0  0  0  0
   59.5010   29.4870   47.1180 C   0  0  0  0  0  0  0  0  0  0  0  0
   59.7923   28.4264   47.1341 H   0  0  0  0  0  0  0  0  0  0  0  0
   58.7080   29.9500   46.1400 C   0  0  0  0  0  0  0  0  0  0  0  0
   58.1740   29.2150   45.0780 C   0  0  0  0  0  0  0  0  0  0  0  0
   58.3410   27.8970   44.8400 C   0  0  0  0  0  0  0  0  0  0  0  0
   59.1424   27.5964   44.1491 H   0  0  0  0  0  0  0  0  0  0  0  0
   57.5190   26.8350   45.4460 C   0  0  0  0  0  0  0  0  0  0  0  0
   56.1430   27.0180   45.6410 C   0  0  0  0  0  0  0  0  0  0  0  0
   55.5200   28.1910   45.2310 O   0  0  0  0  0  0  0  0  0  0  0  0
   55.4070   26.0400   46.2320 N   0  0  0  0  0  0  0  0  0  0  0  0
   55.9860   24.8850   46.6500 C   0  0  0  0  0  0  0  0  0  0  0  0
   55.2840   23.9920   47.1920 O   0  0  0  0  0  0  0  0  0  0  0  0
   57.3210   24.6950   46.4890 N   0  0  0  0  0  0  0  0  0  0  0  0
   58.0990   25.6430   45.9050 C   0  0  0  0  0  0  0  0  0  0  0  0
   59.3350   25.4380   45.7760 O   0  0  0  0  0  0  0  0  0  0  0  0
   57.4560   30.1610   44.3400 C   0  0  0  0  0  0  0  0  0  0  0  0
   56.6820   29.9660   43.0740 C   0  0  0  0  0  0  0  0  0  0  0  0
   55.6417   29.7039   43.3169 H   0  0  0  0  0  0  0  0  0  0  0  0
   56.6983   30.8963   42.4873 H   0  0  0  0  0  0  0  0  0  0  0  0
   57.1371   29.1545   42.4873 H   0  0  0  0  0  0  0  0  0  0  0  0
   57.5600   31.3650   44.9320 N   0  0  0  0  0  0  0  0  0  0  0  0
   58.3040   31.2410   46.0210 N   0  0  0  0  0  0  0  0  0  0  0  0
   58.6590   32.3710   46.9020 C   0  0  0  0  0  0  0  0  0  0  0  0
   58.7746   31.9799   47.9236 H   0  0  0  0  0  0  0  0  0  0  0  0
   57.5300   33.4260   46.9770 C   0  0  0  0  0  0  0  0  0  0  0  0
   56.5789   32.9020   47.1527 H   0  0  0  0  0  0  0  0  0  0  0  0
   57.7935   34.1144   47.7935 H   0  0  0  0  0  0  0  0  0  0  0  0
   57.3820   34.2850   45.7010 C   0  0  0  0  0  0  0  0  0  0  0  0
   56.6300   33.8141   45.0508 H   0  0  0  0  0  0  0  0  0  0  0  0
   57.0847   35.2932   46.0253 H   0  0  0  0  0  0  0  0  0  0  0  0
   58.6880   34.4370   44.9020 C   0  0  0  0  0  0  0  0  0  0  0  0
   58.7487   33.6283   44.1588 H   0  0  0  0  0  0  0  0  0  0  0  0
   58.6794   35.4207   44.4099 H   0  0  0  0  0  0  0  0  0  0  0  0
   59.9120   34.3670   45.8130 C   0  0  0  0  0  0  0  0  0  0  0  0
   60.8166   34.5495   45.2144 H   0  0  0  0  0  0  0  0  0  0  0  0
   59.8082   35.1305   46.5980 H   0  0  0  0  0  0  0  0  0  0  0  0
   60.0230   32.9870   46.4840 C   0  0  0  0  0  0  0  0  0  0  0  0
   60.5108   32.2984   45.7784 H   0  0  0  0  0  0  0  0  0  0  0  0
   60.6019   33.1303   47.4083 H   0  0  0  0  0  0  0  0  0  0  0  0
  1  2  1  0
  2  3  1  0
  2  4  2  0
  4  5  1  0
  5  6  2  0
  6  7  1  0
  6  8  1  0
  8  9  2  0
  9 10  1  0
  9 11  1  0
 11 12  1  0
 12 13  2  0
 12 14  1  0
 14 15  1  0
 15 16  2  0
  5 17  1  0
 17 18  1  0
 18 19  1  0
 18 20  1  0
 18 21  1  0
 17 22  2  0
 22 23  1  0
 23 24  1  0
 24 25  1  0
 24 26  1  0
 26 27  1  0
 26 28  1  0
 26 29  1  0
 29 30  1  0
 29 31  1  0
 29 32  1  0
 32 33  1  0
 32 34  1  0
 32 35  1  0
 35 36  1  0
 35 37  1  0
 35 38  1  0
 38 39  1  0
 38 40  1  0
 23  4  1  0
 38 24  1  0
 15  8  1  0
M  CHG  3  10  -1  11  -1  14  -1
M  END
>  <UniqueID>  (44) 
41

>  <SMILES>  (44) 
C=c1/c(=C/c2c([O-])[n-]c(=O)[n-]c2=O)c(C)nn1C1CCCCC1

>  <Energy>  (44) 
90.43366223358721

>  <Genealogy>  (44) 
C=c1c(=Cc2c([O-])[n-]c(=O)[n-]c2=O)c(C)nn1C1CCCCC1 (protonated)
C=c1/c(=C/c2c([O-])[n-]c(=O)[n-]c2=O)c(C)nn1C1CCCCC1 (cis-trans isomerization)
C=c1/c(=C/c2c([O-])[n-]c(=O)[n-]c2=O)c(C)nn1C1CCCCC1 (3D coordinates assigned)
C=c1/c(=C/c2c([O-])[n-]c(=O)[n-]c2=O)c(C)nn1C1CCCCC1 (nonaromatic ring conformer: 90.43366223358721 kcal/mol)

>  <smiles>  (44) 
C=c1c(=Cc2c(O)[nH]c(=O)[nH]c2=O)c(C)nn1C1CCCCC1

>  <score_type>  (44) 
oracle

>  <origin>  (44) 
adg

>  <m_score__min__energy>  (44) 
-16.440000000000001

>  <m_primary>  (44) 
energy

$$$$
44:0
     RDKit          3D

 62 65  0  0  0  0  0  0  0  0999 V2000
   56.9040   24.4630   44.3000 C   0  0  0  0  0  0  0  0  0  0  0  0
   57.5380   24.6460   45.6930 C   0  0  0  0  0  0  0  0  0  0  0  0
   58.9140   23.9590   45.7540 C   0  0  0  0  0  0  0  0  0  0  0  0
   56.6170   24.0180   46.7500 C   0  0  0  0  0  0  0  0  0  0  0  0
   57.6690   26.0720   46.0080 N   0  0  0  0  0  0  0  0  0  0  0  0
   56.6640   27.0890   45.8700 C   0  0  0  0  0  0  0  0  0  0  0  0
   55.4470   26.7940   46.0090 O   0  0  0  0  0  0  0  0  0  0  0  0
   57.0660   28.4850   45.5570 C   0  0  0  0  0  0  0  0  0  0  0  0
   58.3400   28.9440   45.9440 C   0  0  0  0  0  0  0  0  0  0  0  0
   58.7480   30.2640   45.6710 C   0  0  0  0  0  0  0  0  0  0  0  0
   60.0480   30.7520   46.0590 N   0  0  0  0  0  0  0  0  0  0  0  0
   61.0450   29.9250   46.7410 C   0  0  0  0  0  0  0  0  0  0  0  0
   60.7600   29.8620   48.2150 C   0  0  0  0  0  0  0  0  0  0  0  0
   60.1500   28.8130   48.8680 C   0  0  0  0  0  0  0  0  0  0  0  0
   60.1570   29.0490   50.1950 N   0  0  0  0  0  0  0  0  0  0  0  0
   60.7820   30.2380   50.3240 C   0  0  0  0  0  0  0  0  0  0  0  0
   61.1690   30.7540   49.1390 N   0  0  0  0  0  0  0  0  0  0  0  0
   61.8790   32.0190   48.9410 C   0  0  0  0  0  0  0  0  0  0  0  0
   61.0290   32.9680   48.1230 C   0  0  0  0  0  0  0  0  0  0  0  0
   61.5030   33.3620   46.8590 C   0  0  0  0  0  0  0  0  0  0  0  0
   60.7200   34.1490   46.0160 C   0  0  0  0  0  0  0  0  0  0  0  0
   59.4460   34.5470   46.4150 C   0  0  0  0  0  0  0  0  0  0  0  0
   58.9550   34.1680   47.6660 C   0  0  0  0  0  0  0  0  0  0  0  0
   59.7360   33.3860   48.5330 C   0  0  0  0  0  0  0  0  0  0  0  0
   59.1710   33.0370   49.8540 C   0  0  0  0  0  0  0  0  0  0  0  0
   59.5850   33.7250   51.0050 C   0  0  0  0  0  0  0  0  0  0  0  0
   59.0320   33.4090   52.2500 C   0  0  0  0  0  0  0  0  0  0  0  0
   58.0530   32.4160   52.3490 C   0  0  0  0  0  0  0  0  0  0  0  0
   57.6230   31.7410   51.2040 C   0  0  0  0  0  0  0  0  0  0  0  0
   58.1750   32.0540   49.9580 C   0  0  0  0  0  0  0  0  0  0  0  0
   57.8650   31.1260   45.0070 C   0  0  0  0  0  0  0  0  0  0  0  0
   56.6040   30.6820   44.6140 C   0  0  0  0  0  0  0  0  0  0  0  0
   56.1980   29.3720   44.8840 C   0  0  0  0  0  0  0  0  0  0  0  0
   54.9260   28.9750   44.4860 O   0  0  0  0  0  0  0  0  0  0  0  0
   55.8527   24.1595   44.4126 H   0  0  0  0  0  0  0  0  0  0  0  0
   56.9543   25.4123   43.7466 H   0  0  0  0  0  0  0  0  0  0  0  0
   57.4525   23.6865   43.7466 H   0  0  0  0  0  0  0  0  0  0  0  0
   59.2050   23.8137   46.8048 H   0  0  0  0  0  0  0  0  0  0  0  0
   58.8590   22.9826   45.2504 H   0  0  0  0  0  0  0  0  0  0  0  0
   59.6614   24.5897   45.2504 H   0  0  0  0  0  0  0  0  0  0  0  0
   56.9867   24.2701   47.7549 H   0  0  0  0  0  0  0  0  0  0  0  0
   55.5964   24.4092   46.6260 H   0  0  0  0  0  0  0  0  0  0  0  0
   56.6084   22.9250   46.6260 H   0  0  0  0  0  0  0  0  0  0  0  0
   59.0262   28.2617   46.4670 H   0  0  0  0  0  0  0  0  0  0  0  0
   60.3020   31.7350   45.8010 H   0  0  0  0  0  0  0  0  0  0  0  0
   61.0177   28.9076   46.3236 H   0  0  0  0  0  0  0  0  0  0  0  0
   62.0391   30.3711   46.5905 H   0  0  0  0  0  0  0  0  0  0  0  0
   59.7241   27.9226   48.3824 H   0  0  0  0  0  0  0  0  0  0  0  0
   60.9570   30.7329   51.2907 H   0  0  0  0  0  0  0  0  0  0  0  0
   62.0932   32.4734   49.9196 H   0  0  0  0  0  0  0  0  0  0  0  0
   62.8200   31.8247   48.4056 H   0  0  0  0  0  0  0  0  0  0  0  0
   62.5042   33.0452   46.5314 H   0  0  0  0  0  0  0  0  0  0  0  0
   61.1088   34.4563   45.0340 H   0  0  0  0  0  0  0  0  0  0  0  0
   58.8264   35.1602   45.7441 H   0  0  0  0  0  0  0  0  0  0  0  0
   57.9479   34.4845   47.9752 H   0  0  0  0  0  0  0  0  0  0  0  0
   60.3465   34.5150   50.9277 H   0  0  0  0  0  0  0  0  0  0  0  0
   59.3675   33.9420   53.1518 H   0  0  0  0  0  0  0  0  0  0  0  0
   57.6209   32.1660   53.3292 H   0  0  0  0  0  0  0  0  0  0  0  0
   56.8496   30.9627   51.2827 H   0  0  0  0  0  0  0  0  0  0  0  0
   57.8274   31.5281   49.0566 H   0  0  0  0  0  0  0  0  0  0  0  0
   58.1697   32.1613   44.7943 H   0  0  0  0  0  0  0  0  0  0  0  0
   55.9233   31.3672   44.0876 H   0  0  0  0  0  0  0  0  0  0  0  0
  1  2  1  0
  2  3  1  0
  2  4  1  0
  2  5  1  0
  5  6  1  0
  6  7  2  0
  6  8  1  0
  8  9  2  0
  9 10  1  0
 10 11  1  0
 11 12  1  0
 12 13  1  0
 13 14  2  0
 14 15  1  0
 15 16  2  0
 16 17  1  0
 17 18  1  0
 18 19  1  0
 19 20  2  0
 20 21  1  0
 21 22  2  0
 22 23  1  0
 23 24  2  0
 24 25  1  0
 25 26  2  0
 26 27  1  0
 27 28  2  0
 28 29  1  0
 29 30  2  0
 10 31  2  0
 31 32  1  0
 32 33  2  0
 33 34  1  0
 33  8  1  0
 17 13  1  0
 24 19  1  0
 30 25  1  0
  1 35  1  0
  1 36  1  0
  1 37  1  0
  3 38  1  0
  3 39  1  0
  3 40  1  0
  4 41  1  0
  4 42  1  0
  4 43  1  0
  9 44  1  0
 11 45  1  0
 12 46  1  0
 12 47  1  0
 14 48  1  0
 16 49  1  0
 18 50  1  0
 18 51  1  0
 20 52  1  0
 21 53  1  0
 22 54  1  0
 23 55  1  0
 26 56  1  0
 27 57  1  0
 28 58  1  0
 29 59  1  0
 30 60  1  0
 31 61  1  0
 32 62  1  0
M  CHG  2   5  -1  34  -1
M  END
>  <UniqueID>  (45) 
42

>  <SMILES>  (45) 
CC(C)(C)[N-]C(=O)c1cc(NCc2cncn2Cc2ccccc2-c2ccccc2)ccc1[O-]

>  <Energy>  (45) 
98.92453641557067

>  <Genealogy>  (45) 
CC(C)(C)[N-]C(=O)c1cc(NCc2cncn2Cc2ccccc2-c2ccccc2)ccc1[O-] (protonated)
CC(C)(C)[N-]C(=O)c1cc(NCc2cncn2Cc2ccccc2-c2ccccc2)ccc1[O-] (3D coordinates assigned)
CC(C)(C)[N-]C(=O)c1cc(NCc2cncn2Cc2ccccc2-c2ccccc2)ccc1[O-] (optimized conformer: 98.92453641557067 kcal/mol)

>  <smiles>  (45) 
CC(C)(C)NC(=O)c1cc(NCc2cncn2Cc2ccccc2-c2ccccc2)ccc1O

>  <score_type>  (45) 
oracle

>  <origin>  (45) 
adg

>  <m_score__min__energy>  (45) 
-15.529999999999999

>  <m_primary>  (45) 
energy

$$$$
45:0
     RDKit          3D

 48 50  0  0  0  0  0  0  0  0999 V2000
   54.8350   26.2620   45.7750 N   0  0  0  0  0  0  0  0  0  0  0  0
   56.2230   26.4990   46.0000 C   0  0  0  0  0  0  0  0  0  0  0  0
   56.8610   25.7620   46.7990 O   0  0  0  0  0  0  0  0  0  0  0  0
   56.9070   27.5980   45.3040 C   0  0  0  0  0  0  0  0  0  0  0  0
   57.7650   27.4810   44.2290 C   0  0  0  0  0  0  0  0  0  0  0  0
   58.2000   28.6990   43.8590 N   0  0  0  0  0  0  0  0  0  0  0  0
   57.6240   29.5970   44.6870 C   0  0  0  0  0  0  0  0  0  0  0  0
   57.8360   31.0640   44.6050 C   0  0  0  0  0  0  0  0  0  0  0  0
   58.1280   31.6760   43.3730 C   0  0  0  0  0  0  0  0  0  0  0  0
   58.3460   33.0540   43.3020 C   0  0  0  0  0  0  0  0  0  0  0  0
   58.2870   33.8350   44.4560 C   0  0  0  0  0  0  0  0  0  0  0  0
   58.0120   33.2430   45.6990 C   0  0  0  0  0  0  0  0  0  0  0  0
   57.9820   34.0800   46.9580 C   0  0  0  0  0  0  0  0  0  0  0  0
   59.3190   34.4980   47.4640 N   0  0  0  0  0  0  0  0  0  0  0  0
   59.6310   34.0160   48.8340 C   0  0  0  0  0  0  0  0  0  0  0  0
   60.2810   32.6140   48.8910 C   0  0  0  0  0  0  0  0  0  0  0  0
   60.5410   32.0850   47.5430 N   0  0  0  0  0  0  0  0  0  0  0  0
   61.1060   30.7180   47.5390 C   0  0  0  0  0  0  0  0  0  0  0  0
   60.0880   29.5870   47.7970 C   0  0  0  0  0  0  0  0  0  0  0  0
   58.7940   30.0960   47.9700 O   0  0  0  0  0  0  0  0  0  0  0  0
   61.2820   33.0540   46.7310 C   0  0  0  0  0  0  0  0  0  0  0  0
   60.4270   34.3120   46.4850 C   0  0  0  0  0  0  0  0  0  0  0  0
   57.7610   31.8610   45.7610 C   0  0  0  0  0  0  0  0  0  0  0  0
   56.8100   28.9450   45.5990 C   0  0  0  0  0  0  0  0  0  0  0  0
   54.1100   26.7220   46.3690 H   0  0  0  0  0  0  0  0  0  0  0  0
   58.0502   26.5341   43.7473 H   0  0  0  0  0  0  0  0  0  0  0  0
   58.8400   28.8930   43.0590 H   0  0  0  0  0  0  0  0  0  0  0  0
   58.1851   31.0658   42.4595 H   0  0  0  0  0  0  0  0  0  0  0  0
   58.5650   33.5249   42.3323 H   0  0  0  0  0  0  0  0  0  0  0  0
   58.4567   34.9199   44.3920 H   0  0  0  0  0  0  0  0  0  0  0  0
   57.3956   34.9875   46.7514 H   0  0  0  0  0  0  0  0  0  0  0  0
   57.5401   33.4455   47.7404 H   0  0  0  0  0  0  0  0  0  0  0  0
   59.2220   35.5380   47.5660 H   0  0  0  0  0  0  0  0  0  0  0  0
   60.3216   34.7335   49.3011 H   0  0  0  0  0  0  0  0  0  0  0  0
   58.6696   33.9355   49.3625 H   0  0  0  0  0  0  0  0  0  0  0  0
   61.2331   32.6834   49.4375 H   0  0  0  0  0  0  0  0  0  0  0  0
   59.5854   31.9316   49.4013 H   0  0  0  0  0  0  0  0  0  0  0  0
   61.5675   30.5431   46.5559 H   0  0  0  0  0  0  0  0  0  0  0  0
   61.8225   30.6807   48.3728 H   0  0  0  0  0  0  0  0  0  0  0  0
   60.0908   28.8997   46.9382 H   0  0  0  0  0  0  0  0  0  0  0  0
   60.3799   29.0607   48.7178 H   0  0  0  0  0  0  0  0  0  0  0  0
   58.8390   31.0670   47.7680 H   0  0  0  0  0  0  0  0  0  0  0  0
   62.2040   33.3396   47.2586 H   0  0  0  0  0  0  0  0  0  0  0  0
   61.5284   32.5944   45.7625 H   0  0  0  0  0  0  0  0  0  0  0  0
   61.0849   35.1920   46.5372 H   0  0  0  0  0  0  0  0  0  0  0  0
   59.9589   34.1881   45.4973 H   0  0  0  0  0  0  0  0  0  0  0  0
   57.5030   31.3980   46.7249 H   0  0  0  0  0  0  0  0  0  0  0  0
   56.2084   29.4058   46.3963 H   0  0  0  0  0  0  0  0  0  0  0  0
  1  2  1  0
  2  3  2  0
  2  4  1  0
  4  5  2  0
  5  6  1  0
  6  7  1  0
  7  8  1  0
  8  9  2  0
  9 10  1  0
 10 11  2  0
 11 12  1  0
 12 13  1  0
 13 14  1  0
 14 15  1  0
 15 16  1  0
 16 17  1  0
 17 18  1  0
 18 19  1  0
 19 20  1  0
 17 21  1  0
 21 22  1  0
 12 23  2  0
  7 24  2  0
 24  4  1  0
 23  8  1  0
 22 14  1  0
  1 25  1  0
  5 26  1  0
  6 27  1  0
  9 28  1  0
 10 29  1  0
 11 30  1  0
 13 31  1  0
 13 32  1  0
 14 33  1  0
 15 34  1  0
 15 35  1  0
 16 36  1  0
 16 37  1  0
 18 38  1  0
 18 39  1  0
 19 40  1  0
 19 41  1  0
 20 42  1  0
 21 43  1  0
 21 44  1  0
 22 45  1  0
 22 46  1  0
 23 47  1  0
 24 48  1  0
M  CHG  2   1  -1  14   1
M  END
>  <UniqueID>  (46) 
43

>  <SMILES>  (46) 
[NH-]C(=O)c1c[nH]c(-c2cccc(C[NH+]3CCN(CCO)CC3)c2)c1

>  <Energy>  (46) 
92.69693965578543

>  <Genealogy>  (46) 
[NH-]C(=O)c1c[nH]c(-c2cccc(C[NH+]3CCN(CCO)CC3)c2)c1 (protonated)
[NH-]C(=O)c1c[nH]c(-c2cccc(C[NH+]3CCN(CCO)CC3)c2)c1 (3D coordinates assigned)
[NH-]C(=O)c1c[nH]c(-c2cccc(C[NH+]3CCN(CCO)CC3)c2)c1 (nonaromatic ring conformer: 92.69693965578543 kcal/mol)

>  <smiles>  (46) 
NC(=O)c1c[nH]c(-c2cccc(CN3CCN(CCO)CC3)c2)c1

>  <score_type>  (46) 
oracle

>  <origin>  (46) 
adg

>  <m_score__min__energy>  (46) 
-9.6199999999999992

>  <m_primary>  (46) 
energy

$$$$
46:0
     RDKit          3D

 49 51  0  0  0  0  0  0  0  0999 V2000
   51.2980   24.4780   44.6720 C   0  0  0  0  0  0  0  0  0  0  0  0
   52.6680   24.2440   45.2340 C   0  0  0  0  0  0  0  0  0  0  0  0
   53.3470   25.2330   45.6140 O   0  0  0  0  0  0  0  0  0  0  0  0
   53.2650   22.9380   45.2640 N   0  0  0  0  0  0  0  0  0  0  0  0
   54.5180   22.6190   45.0910 C   0  0  0  0  0  0  0  0  0  0  0  0
   55.4600   23.4990   44.5180 C   0  0  0  0  0  0  0  0  0  0  0  0
   56.7890   23.0780   44.3390 C   0  0  0  0  0  0  0  0  0  0  0  0
   57.7760   23.9220   43.8070 O   0  0  0  0  0  0  0  0  0  0  0  0
   57.7880   25.3210   43.9020 C   0  0  0  0  0  0  0  0  0  0  0  0
   57.7670   26.0730   42.7250 C   0  0  0  0  0  0  0  0  0  0  0  0
   57.7770   27.4680   42.7780 C   0  0  0  0  0  0  0  0  0  0  0  0
   57.8070   28.1390   44.0130 C   0  0  0  0  0  0  0  0  0  0  0  0
   57.7890   29.5770   44.0550 N   0  0  0  0  0  0  0  0  0  0  0  0
   56.6840   30.3380   44.5650 C   0  0  0  0  0  0  0  0  0  0  0  0
   55.5810   29.7760   44.8010 O   0  0  0  0  0  0  0  0  0  0  0  0
   56.8250   31.7550   44.7130 N   0  0  0  0  0  0  0  0  0  0  0  0
   57.7620   32.4490   45.5510 C   0  0  0  0  0  0  0  0  0  0  0  0
   57.5850   33.7940   45.9140 C   0  0  0  0  0  0  0  0  0  0  0  0
   58.5100   34.4230   46.7470 C   0  0  0  0  0  0  0  0  0  0  0  0
   59.6110   33.7210   47.2460 C   0  0  0  0  0  0  0  0  0  0  0  0
   60.7400   34.5850   48.2870 Cl  0  0  0  0  0  0  0  0  0  0  0  0
   59.7870   32.3580   46.9180 C   0  0  0  0  0  0  0  0  0  0  0  0
   60.9540   31.5740   47.4760 C   0  0  0  0  0  0  0  0  0  0  0  0
   60.8580   31.5190   48.8530 F   0  0  0  0  0  0  0  0  0  0  0  0
   62.1670   32.1530   47.1450 F   0  0  0  0  0  0  0  0  0  0  0  0
   60.9370   30.2870   46.9690 F   0  0  0  0  0  0  0  0  0  0  0  0
   58.8500   31.7380   46.0680 C   0  0  0  0  0  0  0  0  0  0  0  0
   57.7960   27.3820   45.2090 C   0  0  0  0  0  0  0  0  0  0  0  0
   57.7770   28.0560   46.5550 C   0  0  0  0  0  0  0  0  0  0  0  0
   57.7720   25.9790   45.1420 C   0  0  0  0  0  0  0  0  0  0  0  0
   57.1590   21.7970   44.7520 C   0  0  0  0  0  0  0  0  0  0  0  0
   56.2000   20.9450   45.3000 C   0  0  0  0  0  0  0  0  0  0  0  0
   54.9180   21.3690   45.4500 N   0  0  0  0  0  0  0  0  0  0  0  0
   50.5797   24.6007   45.4960 H   0  0  0  0  0  0  0  0  0  0  0  0
   51.3058   25.3878   44.0538 H   0  0  0  0  0  0  0  0  0  0  0  0
   51.0033   23.6172   44.0538 H   0  0  0  0  0  0  0  0  0  0  0  0
   55.1556   24.5109   44.2124 H   0  0  0  0  0  0  0  0  0  0  0  0
   57.7424   25.5630   41.7507 H   0  0  0  0  0  0  0  0  0  0  0  0
   57.7612   28.0482   41.8436 H   0  0  0  0  0  0  0  0  0  0  0  0
   58.5900   30.1070   43.6450 H   0  0  0  0  0  0  0  0  0  0  0  0
   56.7144   34.3530   45.5403 H   0  0  0  0  0  0  0  0  0  0  0  0
   58.3719   35.4812   47.0138 H   0  0  0  0  0  0  0  0  0  0  0  0
   58.9761   30.6770   45.8065 H   0  0  0  0  0  0  0  0  0  0  0  0
   57.7985   27.2933   47.3473 H   0  0  0  0  0  0  0  0  0  0  0  0
   58.6571   28.7089   46.6506 H   0  0  0  0  0  0  0  0  0  0  0  0
   56.8615   28.6583   46.6506 H   0  0  0  0  0  0  0  0  0  0  0  0
   57.7403   25.3900   46.0705 H   0  0  0  0  0  0  0  0  0  0  0  0
   58.2011   21.4612   44.6459 H   0  0  0  0  0  0  0  0  0  0  0  0
   56.4822   19.9284   45.6111 H   0  0  0  0  0  0  0  0  0  0  0  0
  1  2  1  0
  2  3  2  0
  2  4  1  0
  4  5  2  3
  5  6  1  0
  6  7  2  0
  7  8  1  0
  8  9  1  0
  9 10  2  0
 10 11  1  0
 11 12  2  0
 12 13  1  0
 13 14  1  0
 14 15  2  0
 14 16  1  0
 16 17  1  0
 17 18  2  0
 18 19  1  0
 19 20  2  0
 20 21  1  0
 20 22  1  0
 22 23  1  0
 23 24  1  0
 23 25  1  0
 23 26  1  0
 22 27  2  0
 12 28  1  0
 28 29  1  0
 28 30  2  0
  7 31  1  0
 31 32  2  0
 32 33  1  0
 33  5  1  0
 30  9  1  0
 27 17  1  0
  1 34  1  0
  1 35  1  0
  1 36  1  0
  6 37  1  0
 10 38  1  0
 11 39  1  0
 13 40  1  0
 18 41  1  0
 19 42  1  0
 27 43  1  0
 29 44  1  0
 29 45  1  0
 29 46  1  0
 30 47  1  0
 31 48  1  0
 32 49  1  0
M  CHG  2  16  -1  33  -1
M  END
>  <UniqueID>  (47) 
44

>  <SMILES>  (47) 
CC(=O)N=c1cc(Oc2ccc(NC(=O)[N-]c3ccc(Cl)c(C(F)(F)F)c3)c(C)c2)cc[n-]1

>  <Energy>  (47) 
75.89869251372106

>  <Genealogy>  (47) 
CC(=O)N=c1cc(Oc2ccc(NC(=O)[N-]c3ccc(Cl)c(C(F)(F)F)c3)c(C)c2)cc[n-]1 (protonated)
CC(=O)N=c1cc(Oc2ccc(NC(=O)[N-]c3ccc(Cl)c(C(F)(F)F)c3)c(C)c2)cc[n-]1 (3D coordinates assigned)
CC(=O)N=c1cc(Oc2ccc(NC(=O)[N-]c3ccc(Cl)c(C(F)(F)F)c3)c(C)c2)cc[n-]1 (optimized conformer: 75.89869251372106 kcal/mol)

>  <smiles>  (47) 
CC(=O)N=c1cc(Oc2ccc(NC(=O)Nc3ccc(Cl)c(C(F)(F)F)c3)c(C)c2)cc[nH]1

>  <score_type>  (47) 
oracle

>  <origin>  (47) 
adg

>  <m_score__min__energy>  (47) 
-11.27

>  <m_primary>  (47) 
energy

$$$$
47:0
     RDKit          3D

 51 54  0  0  0  0  0  0  0  0999 V2000
   54.8030   27.0480   46.5350 H   0  0  0  0  0  0  0  0  0  0  0  0
   54.9850   26.1650   46.0080 N   0  0  0  0  0  0  0  0  0  0  0  0
   56.6920   25.8960   46.0540 S   0  0  0  0  0  0  0  0  0  0  0  0
   57.1010   25.5540   47.4580 O   0  0  0  0  0  0  0  0  0  0  0  0
   57.0250   24.7480   45.1400 O   0  0  0  0  0  0  0  0  0  0  0  0
   57.5610   27.3370   45.5330 C   0  0  0  0  0  0  0  0  0  0  0  0
   58.9620   27.3420   45.4760 C   0  0  0  0  0  0  0  0  0  0  0  0
   59.5262   26.4436   45.7669 H   0  0  0  0  0  0  0  0  0  0  0  0
   59.6440   28.4870   45.0500 C   0  0  0  0  0  0  0  0  0  0  0  0
   60.7430   28.4856   45.0022 H   0  0  0  0  0  0  0  0  0  0  0  0
   58.9310   29.6330   44.6850 C   0  0  0  0  0  0  0  0  0  0  0  0
   59.4707   30.5285   44.3434 H   0  0  0  0  0  0  0  0  0  0  0  0
   57.5270   29.6450   44.7530 C   0  0  0  0  0  0  0  0  0  0  0  0
   56.7680   30.8690   44.4040 C   0  0  0  0  0  0  0  0  0  0  0  0
   55.5110   30.8550   44.4900 O   0  0  0  0  0  0  0  0  0  0  0  0
   57.4170   32.0660   43.9440 N   0  0  0  0  0  0  0  0  0  0  0  0
   58.1410   32.8580   44.6790 C   0  0  0  0  0  0  0  0  0  0  0  0
   59.2760   32.4800   45.3030 N   0  0  0  0  0  0  0  0  0  0  0  0
   59.8330   33.4930   46.0200 C   0  0  0  0  0  0  0  0  0  0  0  0
   61.1120   33.2990   46.7470 C   0  0  0  0  0  0  0  0  0  0  0  0
   62.2680   34.0260   46.4130 C   0  0  0  0  0  0  0  0  0  0  0  0
   62.2341   34.7615   45.5957 H   0  0  0  0  0  0  0  0  0  0  0  0
   63.4600   33.8200   47.1130 C   0  0  0  0  0  0  0  0  0  0  0  0
   64.3602   34.3909   46.8416 H   0  0  0  0  0  0  0  0  0  0  0  0
   63.5130   32.8920   48.1560 C   0  0  0  0  0  0  0  0  0  0  0  0
   64.4573   32.7276   48.6958 H   0  0  0  0  0  0  0  0  0  0  0  0
   62.3680   32.1700   48.5170 C   0  0  0  0  0  0  0  0  0  0  0  0
   62.4190   31.1680   49.6040 C   0  0  0  0  0  0  0  0  0  0  0  0
   63.3600   31.2290   50.4450 O   0  0  0  0  0  0  0  0  0  0  0  0
   61.4340   30.1210   49.7100 N   0  0  0  0  0  0  0  0  0  0  0  0
   61.0290   29.6290   51.0390 C   0  0  0  0  0  0  0  0  0  0  0  0
   61.6423   30.1191   51.8095 H   0  0  0  0  0  0  0  0  0  0  0  0
   59.9659   29.8626   51.1977 H   0  0  0  0  0  0  0  0  0  0  0  0
   61.2240   28.1100   51.1280 C   0  0  0  0  0  0  0  0  0  0  0  0
   62.3001   27.8864   51.1732 H   0  0  0  0  0  0  0  0  0  0  0  0
   60.7185   27.7417   52.0329 H   0  0  0  0  0  0  0  0  0  0  0  0
   60.6280   27.4250   49.9300 C   0  0  0  0  0  0  0  0  0  0  0  0
   60.5850   26.2040   49.8880 O   0  0  0  0  0  0  0  0  0  0  0  0
   60.0580   28.2380   48.7980 C   0  0  0  0  0  0  0  0  0  0  0  0
   59.9743   27.6046   47.9026 H   0  0  0  0  0  0  0  0  0  0  0  0
   59.0652   28.6110   49.0898 H   0  0  0  0  0  0  0  0  0  0  0  0
   60.9700   29.4340   48.4890 C   0  0  0  0  0  0  0  0  0  0  0  0
   61.8474   29.0739   47.9318 H   0  0  0  0  0  0  0  0  0  0  0  0
   60.3858   30.1566   47.9003 H   0  0  0  0  0  0  0  0  0  0  0  0
   61.1770   32.3690   47.8030 C   0  0  0  0  0  0  0  0  0  0  0  0
   60.2809   31.7904   48.0716 H   0  0  0  0  0  0  0  0  0  0  0  0
   59.1130   34.6920   45.9720 C   0  0  0  0  0  0  0  0  0  0  0  0
   59.3852   35.6279   46.4819 H   0  0  0  0  0  0  0  0  0  0  0  0
   57.7560   34.4560   44.9980 S   0  0  0  0  0  0  0  0  0  0  0  0
   56.8470   28.4830   45.1590 C   0  0  0  0  0  0  0  0  0  0  0  0
   55.7473   28.4737   45.1831 H   0  0  0  0  0  0  0  0  0  0  0  0
  1  2  1  0
  2  3  1  0
  3  4  2  0
  3  5  2  0
  3  6  1  0
  6  7  2  0
  7  8  1  0
  7  9  1  0
  9 10  1  0
  9 11  2  0
 11 12  1  0
 11 13  1  0
 13 14  1  0
 14 15  2  0
 14 16  1  0
 16 17  2  0
 17 18  1  0
 18 19  1  0
 19 20  1  0
 20 21  2  0
 21 22  1  0
 21 23  1  0
 23 24  1  0
 23 25  2  0
 25 26  1  0
 25 27  1  0
 27 28  1  0
 28 29  2  0
 28 30  1  0
 30 31  1  0
 31 32  1  0
 31 33  1  0
 31 34  1  0
 34 35  1  0
 34 36  1  0
 34 37  1  0
 37 38  2  0
 37 39  1  0
 39 40  1  0
 39 41  1  0
 39 42  1  0
 42 43  1  0
 42 44  1  0
 27 45  2  0
 45 46  1  0
 19 47  2  0
 47 48  1  0
 47 49  1  0
 13 50  2  0
 50 51  1  0
 50  6  1  0
 49 17  1  0
 45 20  1  0
 42 30  1  0
M  CHG  2   2  -1  18  -1
M  END
>  <UniqueID>  (48) 
45

>  <SMILES>  (48) 
[NH-]S(=O)(=O)c1cccc(C(=O)/N=c2\[n-]c(-c3cccc(C(=O)N4CCC(=O)CC4)c3)cs2)c1

>  <Energy>  (48) 
95.45186075654462

>  <Genealogy>  (48) 
[NH-]S(=O)(=O)c1cccc(C(=O)N=c2[n-]c(-c3cccc(C(=O)N4CCC(=O)CC4)c3)cs2)c1 (protonated)
[NH-]S(=O)(=O)c1cccc(C(=O)/N=c2\[n-]c(-c3cccc(C(=O)N4CCC(=O)CC4)c3)cs2)c1 (cis-trans isomerization)
[NH-]S(=O)(=O)c1cccc(C(=O)/N=c2\[n-]c(-c3cccc(C(=O)N4CCC(=O)CC4)c3)cs2)c1 (3D coordinates assigned)
[NH-]S(=O)(=O)c1cccc(C(=O)/N=c2\[n-]c(-c3cccc(C(=O)N4CCC(=O)CC4)c3)cs2)c1 (nonaromatic ring conformer: 95.45186075654462 kcal/mol)

>  <smiles>  (48) 
NS(=O)(=O)c1cccc(C(=O)N=c2[nH]c(-c3cccc(C(=O)N4CCC(=O)CC4)c3)cs2)c1

>  <score_type>  (48) 
oracle

>  <origin>  (48) 
adg

>  <m_score__min__energy>  (48) 
-14.92

>  <m_primary>  (48) 
energy

$$$$
48:0
     RDKit          3D

 34 36  0  0  0  0  0  0  0  0999 V2000
   59.3000   27.7660   45.6370 O   0  0  0  0  0  0  0  0  0  0  0  0
   58.1460   28.2700   45.6710 C   0  0  0  0  0  0  0  0  0  0  0  0
   57.0650   27.4720   46.1770 N   0  0  0  0  0  0  0  0  0  0  0  0
   56.8450   26.0830   45.8960 C   0  0  0  0  0  0  0  0  0  0  0  0
   57.9540   25.2570   45.6700 C   0  0  0  0  0  0  0  0  0  0  0  0
   57.7830   23.8880   45.4380 C   0  0  0  0  0  0  0  0  0  0  0  0
   59.1800   22.8580   45.1930 Cl  0  0  0  0  0  0  0  0  0  0  0  0
   56.4970   23.3410   45.4110 C   0  0  0  0  0  0  0  0  0  0  0  0
   55.3820   24.1620   45.5990 C   0  0  0  0  0  0  0  0  0  0  0  0
   55.5470   25.5320   45.8280 C   0  0  0  0  0  0  0  0  0  0  0  0
   54.4230   26.3370   45.9670 O   0  0  0  0  0  0  0  0  0  0  0  0
   57.9500   29.6760   45.2390 C   0  0  0  0  0  0  0  0  0  0  0  0
   58.5120   30.7300   45.9800 C   0  0  0  0  0  0  0  0  0  0  0  0
   58.2980   32.0670   45.6130 C   0  0  0  0  0  0  0  0  0  0  0  0
   58.8280   33.1240   46.4300 N   0  0  0  0  0  0  0  0  0  0  0  0
   58.8920   33.1120   47.8870 C   0  0  0  0  0  0  0  0  0  0  0  0
   59.4200   34.5080   48.2920 C   0  0  0  0  0  0  0  0  0  0  0  0
   59.7320   35.2100   47.0500 N   0  0  0  0  0  0  0  0  0  0  0  0
   59.3620   34.3570   45.9910 C   0  0  0  0  0  0  0  0  0  0  0  0
   59.5480   34.6500   44.7810 O   0  0  0  0  0  0  0  0  0  0  0  0
   57.5230   32.3490   44.4740 C   0  0  0  0  0  0  0  0  0  0  0  0
   57.2370   33.6290   44.1280 F   0  0  0  0  0  0  0  0  0  0  0  0
   56.9900   31.3060   43.7120 C   0  0  0  0  0  0  0  0  0  0  0  0
   57.2010   29.9760   44.0860 C   0  0  0  0  0  0  0  0  0  0  0  0
   56.6380   28.9880   43.3450 F   0  0  0  0  0  0  0  0  0  0  0  0
   58.9661   25.6879   45.6750 H   0  0  0  0  0  0  0  0  0  0  0  0
   56.3625   22.2625   45.2415 H   0  0  0  0  0  0  0  0  0  0  0  0
   54.3711   23.7295   45.5668 H   0  0  0  0  0  0  0  0  0  0  0  0
   59.1294   30.5029   46.8616 H   0  0  0  0  0  0  0  0  0  0  0  0
   57.8927   32.9408   48.3138 H   0  0  0  0  0  0  0  0  0  0  0  0
   59.5430   32.3071   48.2590 H   0  0  0  0  0  0  0  0  0  0  0  0
   58.6507   35.0564   48.8555 H   0  0  0  0  0  0  0  0  0  0  0  0
   60.3079   34.4258   48.9362 H   0  0  0  0  0  0  0  0  0  0  0  0
   56.4003   31.5333   42.8117 H   0  0  0  0  0  0  0  0  0  0  0  0
  1  2  2  0
  2  3  1  0
  3  4  1  0
  4  5  2  0
  5  6  1  0
  6  7  1  0
  6  8  2  0
  8  9  1  0
  9 10  2  0
 10 11  1  0
  2 12  1  0
 12 13  2  0
 13 14  1  0
 14 15  1  0
 15 16  1  0
 16 17  1  0
 17 18  1  0
 18 19  1  0
 19 20  2  0
 14 21  2  0
 21 22  1  0
 21 23  1  0
 23 24  2  0
 24 25  1  0
 10  4  1  0
 24 12  1  0
 19 15  1  0
  5 26  1  0
  8 27  1  0
  9 28  1  0
 13 29  1  0
 16 30  1  0
 16 31  1  0
 17 32  1  0
 17 33  1  0
 23 34  1  0
M  CHG  3   3  -1  11  -1  18  -1
M  END
>  <UniqueID>  (49) 
46

>  <SMILES>  (49) 
O=C([N-]c1cc(Cl)ccc1[O-])c1cc(N2CC[N-]C2=O)c(F)cc1F

>  <Energy>  (49) 
63.18607748330432

>  <Genealogy>  (49) 
O=C([N-]c1cc(Cl)ccc1[O-])c1cc(N2CC[N-]C2=O)c(F)cc1F (protonated)
O=C([N-]c1cc(Cl)ccc1[O-])c1cc(N2CC[N-]C2=O)c(F)cc1F (3D coordinates assigned)
O=C([N-]c1cc(Cl)ccc1[O-])c1cc(N2CC[N-]C2=O)c(F)cc1F (nonaromatic ring conformer: 63.18607748330432 kcal/mol)

>  <smiles>  (49) 
O=C(Nc1cc(Cl)ccc1O)c1cc(N2CCNC2=O)c(F)cc1F

>  <score_type>  (49) 
oracle

>  <origin>  (49) 
adg

>  <m_score__min__energy>  (49) 
-15.01

>  <m_primary>  (49) 
energy

$$$$
49:0
     RDKit          3D

 62 64  0  0  1  0  0  0  0  0999 V2000
   64.8190   32.8740   49.5540 C   0  0  0  0  0  0  0  0  0  0  0  0
   63.5330   33.7290   49.6060 C   0  0  0  0  0  0  0  0  0  0  0  0
   62.5860   33.2730   48.6480 N   0  0  0  0  0  0  0  0  0  0  0  0
   63.2180   33.0570   47.3410 C   0  0  0  0  0  0  0  0  0  0  0  0
   61.5270   34.2140   48.4050 C   0  0  0  0  0  0  0  0  0  0  0  0
   60.3450   33.7270   47.7080 C   0  0  0  0  0  0  0  0  0  0  0  0
   60.2730   33.9080   46.3230 C   0  0  0  0  0  0  0  0  0  0  0  0
   59.2130   33.4570   45.5700 C   0  0  0  0  0  0  0  0  0  0  0  0
   58.1590   32.7930   46.1860 C   0  0  0  0  0  0  0  0  0  0  0  0
   57.0850   32.3510   45.3560 N   0  0  0  0  0  0  0  0  0  0  0  0
   57.1230   31.1850   44.7660 C   0  0  0  0  0  0  0  0  0  0  0  0
   55.9550   30.8280   44.1050 C   0  0  0  0  0  0  0  0  0  0  0  0
   55.9100   29.6070   43.4520 C   0  0  0  0  0  0  0  0  0  0  0  0
   57.0120   28.8410   43.5050 N   0  0  0  0  0  0  0  0  0  0  0  0
   58.1370   29.2160   44.1590 C   0  0  0  0  0  0  0  0  0  0  0  0
   59.1360   28.3760   44.1310 N   0  0  0  0  0  0  0  0  0  0  0  0
   59.3500   27.4380   45.2210 C   0  0  0  0  0  0  0  0  0  0  0  0
   59.7830   28.0680   46.4660 C   0  0  0  0  0  0  0  0  0  0  0  0
   59.5840   27.4340   47.6790 C   0  0  0  0  0  0  0  0  0  0  0  0
   59.9860   28.0290   48.8760 C   0  0  0  0  0  0  0  0  0  0  0  0
   60.5950   29.2670   48.9010 C   0  0  0  0  0  0  0  0  0  0  0  0
   60.9850   29.8300   50.1830 C   0  0  0  0  0  0  0  0  0  0  0  0
   61.0830   29.0650   51.1660 O   0  0  0  0  0  0  0  0  0  0  0  0
   61.2560   31.2190   50.3460 N   0  0  0  0  0  0  0  0  0  0  0  0
   61.6460   31.7940   51.6220 C   0  0  0  0  0  0  0  0  0  0  0  0
   60.7910   29.8920   47.6930 C   0  0  0  0  0  0  0  0  0  0  0  0
   60.3930   29.3030   46.5120 C   0  0  0  0  0  0  0  0  0  0  0  0
   58.2090   30.3950   44.7980 N   0  0  0  0  0  0  0  0  0  0  0  0
   58.2250   32.6160   47.5280 C   0  0  0  0  0  0  0  0  0  0  0  0
   59.2810   33.0620   48.2980 C   0  0  0  0  0  0  0  0  0  0  0  0
   59.2840   32.8530   49.6670 O   0  0  0  0  0  0  0  0  0  0  0  0
   58.2720   32.0580   50.2390 C   0  0  0  0  0  0  0  0  0  0  0  0
   65.1532   32.6518   50.5782 H   0  0  0  0  0  0  0  0  0  0  0  0
   64.6124   31.9328   49.0234 H   0  0  0  0  0  0  0  0  0  0  0  0
   65.6069   33.4287   49.0234 H   0  0  0  0  0  0  0  0  0  0  0  0
   63.0924   33.6574   50.6114 H   0  0  0  0  0  0  0  0  0  0  0  0
   63.7933   34.7728   49.3763 H   0  0  0  0  0  0  0  0  0  0  0  0
   64.2497   32.7044   47.4864 H   0  0  0  0  0  0  0  0  0  0  0  0
   62.6485   32.3025   46.7785 H   0  0  0  0  0  0  0  0  0  0  0  0
   63.2294   34.0023   46.7785 H   0  0  0  0  0  0  0  0  0  0  0  0
   61.1986   34.6006   49.3811 H   0  0  0  0  0  0  0  0  0  0  0  0
   61.9650   34.9618   47.7275 H   0  0  0  0  0  0  0  0  0  0  0  0
   61.0964   34.4317   45.8154 H   0  0  0  0  0  0  0  0  0  0  0  0
   59.2001   33.6218   44.4825 H   0  0  0  0  0  0  0  0  0  0  0  0
   55.0843   31.5002   44.1000 H   0  0  0  0  0  0  0  0  0  0  0  0
   55.0093   29.2786   42.9126 H   0  0  0  0  0  0  0  0  0  0  0  0
   56.9460   27.9170   42.9990 H   0  0  0  0  0  0  0  0  0  0  0  0
   58.4058   26.9067   45.4115 H   0  0  0  0  0  0  0  0  0  0  0  0
   60.1584   26.7615   44.9068 H   0  0  0  0  0  0  0  0  0  0  0  0
   59.1015   26.4457   47.7008 H   0  0  0  0  0  0  0  0  0  0  0  0
   59.8129   27.4975   49.8234 H   0  0  0  0  0  0  0  0  0  0  0  0
   61.1840   31.8860   49.5460 H   0  0  0  0  0  0  0  0  0  0  0  0
   61.2332   31.1853   52.4400 H   0  0  0  0  0  0  0  0  0  0  0  0
   62.7434   31.8119   51.6961 H   0  0  0  0  0  0  0  0  0  0  0  0
   61.2568   32.8202   51.6961 H   0  0  0  0  0  0  0  0  0  0  0  0
   61.2741   30.8799   47.6680 H   0  0  0  0  0  0  0  0  0  0  0  0
   60.5693   29.8402   45.5684 H   0  0  0  0  0  0  0  0  0  0  0  0
   59.0740   30.6880   45.3020 H   0  0  0  0  0  0  0  0  0  0  0  0
   57.3973   32.0917   48.0281 H   0  0  0  0  0  0  0  0  0  0  0  0
   58.3398   32.1112   51.3356 H   0  0  0  0  0  0  0  0  0  0  0  0
   57.2881   32.4272   49.9141 H   0  0  0  0  0  0  0  0  0  0  0  0
   58.3977   31.0146   49.9141 H   0  0  0  0  0  0  0  0  0  0  0  0
  1  2  1  0
  2  3  1  0
  3  4  1  0
  3  5  1  0
  5  6  1  0
  6  7  2  0
  7  8  1  0
  8  9  2  0
  9 10  1  0
 10 11  2  0
 11 12  1  0
 12 13  2  0
 13 14  1  0
 14 15  1  0
 15 16  2  0
 16 17  1  0
 17 18  1  0
 18 19  2  0
 19 20  1  0
 20 21  2  0
 21 22  1  0
 22 23  2  0
 22 24  1  0
 24 25  1  0
 21 26  1  0
 26 27  2  0
 15 28  1  0
  9 29  1  0
 29 30  2  0
 30 31  1  0
 31 32  1  0
 30  6  1  0
 28 11  1  0
 27 18  1  0
  1 33  1  0
  1 34  1  0
  1 35  1  0
  2 36  1  0
  2 37  1  0
  4 38  1  0
  4 39  1  0
  4 40  1  0
  5 41  1  0
  5 42  1  0
  7 43  1  0
  8 44  1  0
 12 45  1  0
 13 46  1  0
 14 47  1  0
 17 48  1  0
 17 49  1  0
 19 50  1  0
 20 51  1  0
 24 52  1  0
 25 53  1  0
 25 54  1  0
 25 55  1  0
 26 56  1  0
 27 57  1  0
 28 58  1  0
 29 59  1  0
 32 60  1  0
 32 61  1  0
 32 62  1  0
M  END
>  <smiles>  (50) 
CCN(C)Cc1ccc(N=c2cc[nH]c(=NCc3ccc(C(=O)NC)cc3)[nH]2)cc1OC

>  <score_type>  (50) 
oracle

>  <origin>  (50) 
adg

>  <m_score__min__energy>  (50) 
-8.3599999999999994

>  <m_primary>  (50) 
energy

$$$$
50:0
     RDKit          3D

 48 50  0  0  0  0  0  0  0  0999 V2000
   60.6070   32.5880   48.5350 C   0  0  0  0  0  0  0  0  0  0  0  0
   59.8400   32.0480   47.4120 N   0  0  0  0  0  0  0  0  0  0  0  0
   59.0970   32.9350   46.5620 C   0  0  0  0  0  0  0  0  0  0  0  0
   59.7640   33.7800   45.6600 C   0  0  0  0  0  0  0  0  0  0  0  0
   59.0380   34.6450   44.8370 C   0  0  0  0  0  0  0  0  0  0  0  0
   57.6420   34.6640   44.8990 C   0  0  0  0  0  0  0  0  0  0  0  0
   56.9710   33.8260   45.7930 C   0  0  0  0  0  0  0  0  0  0  0  0
   57.6960   32.9670   46.6260 C   0  0  0  0  0  0  0  0  0  0  0  0
   59.9890   30.3700   46.9850 S   0  0  0  0  0  0  0  0  0  0  0  0
   61.3400   30.1140   46.3770 O   0  0  0  0  0  0  0  0  0  0  0  0
   59.8540   29.5020   48.2050 O   0  0  0  0  0  0  0  0  0  0  0  0
   58.7180   29.9640   45.8380 C   0  0  0  0  0  0  0  0  0  0  0  0
   58.5940   30.6640   44.6310 C   0  0  0  0  0  0  0  0  0  0  0  0
   57.5640   30.3460   43.7420 C   0  0  0  0  0  0  0  0  0  0  0  0
   56.6590   29.3240   44.0480 C   0  0  0  0  0  0  0  0  0  0  0  0
   56.7870   28.6060   45.2500 C   0  0  0  0  0  0  0  0  0  0  0  0
   55.8760   27.5630   45.6190 N   0  0  0  0  0  0  0  0  0  0  0  0
   56.2010   26.2410   46.0680 C   0  0  0  0  0  0  0  0  0  0  0  0
   57.3960   25.9090   46.2810 O   0  0  0  0  0  0  0  0  0  0  0  0
   55.1580   25.3010   46.3440 N   0  0  0  0  0  0  0  0  0  0  0  0
   54.6170   24.3770   45.3510 C   0  0  0  0  0  0  0  0  0  0  0  0
   55.7000   23.4660   44.8260 C   0  0  0  0  0  0  0  0  0  0  0  0
   55.7030   23.1180   43.4630 C   0  0  0  0  0  0  0  0  0  0  0  0
   56.7110   22.3000   42.9440 C   0  0  0  0  0  0  0  0  0  0  0  0
   57.7230   21.8220   43.7770 C   0  0  0  0  0  0  0  0  0  0  0  0
   57.7330   22.1610   45.1330 C   0  0  0  0  0  0  0  0  0  0  0  0
   56.7260   22.9790   45.6640 C   0  0  0  0  0  0  0  0  0  0  0  0
   56.7470   23.3100   47.0190 O   0  0  0  0  0  0  0  0  0  0  0  0
   57.8040   28.9490   46.1500 C   0  0  0  0  0  0  0  0  0  0  0  0
   60.1484   32.2651   49.4813 H   0  0  0  0  0  0  0  0  0  0  0  0
   61.6417   32.2180   48.4840 H   0  0  0  0  0  0  0  0  0  0  0  0
   60.6076   33.6868   48.4840 H   0  0  0  0  0  0  0  0  0  0  0  0
   60.8623   33.7608   45.6012 H   0  0  0  0  0  0  0  0  0  0  0  0
   59.5660   35.3118   44.1395 H   0  0  0  0  0  0  0  0  0  0  0  0
   57.0715   35.3388   44.2439 H   0  0  0  0  0  0  0  0  0  0  0  0
   55.8722   33.8416   45.8420 H   0  0  0  0  0  0  0  0  0  0  0  0
   57.1651   32.3139   47.3342 H   0  0  0  0  0  0  0  0  0  0  0  0
   59.3073   31.4638   44.3831 H   0  0  0  0  0  0  0  0  0  0  0  0
   57.4643   30.9014   42.7978 H   0  0  0  0  0  0  0  0  0  0  0  0
   55.8463   29.0819   43.3473 H   0  0  0  0  0  0  0  0  0  0  0  0
   53.8271   23.7688   45.8159 H   0  0  0  0  0  0  0  0  0  0  0  0
   54.2062   24.9587   44.5126 H   0  0  0  0  0  0  0  0  0  0  0  0
   54.9075   23.4917   42.8016 H   0  0  0  0  0  0  0  0  0  0  0  0
   56.7062   22.0328   41.8770 H   0  0  0  0  0  0  0  0  0  0  0  0
   58.5141   21.1775   43.3661 H   0  0  0  0  0  0  0  0  0  0  0  0
   58.5341   21.7845   45.7860 H   0  0  0  0  0  0  0  0  0  0  0  0
   56.5000   24.2390   47.3400 H   0  0  0  0  0  0  0  0  0  0  0  0
   57.8857   28.4172   47.1094 H   0  0  0  0  0  0  0  0  0  0  0  0
  1  2  1  0
  2  3  1  0
  3  4  2  0
  4  5  1  0
  5  6  2  0
  6  7  1  0
  7  8  2  0
  2  9  1  0
  9 10  2  0
  9 11  2  0
  9 12  1  0
 12 13  2  0
 13 14  1  0
 14 15  2  0
 15 16  1  0
 16 17  1  0
 17 18  1  0
 18 19  2  0
 18 20  1  0
 20 21  1  0
 21 22  1  0
 22 23  2  0
 23 24  1  0
 24 25  2  0
 25 26  1  0
 26 27  2  0
 27 28  1  0
 16 29  2  0
  8  3  1  0
 29 12  1  0
 27 22  1  0
  1 30  1  0
  1 31  1  0
  1 32  1  0
  4 33  1  0
  5 34  1  0
  6 35  1  0
  7 36  1  0
  8 37  1  0
 13 38  1  0
 14 39  1  0
 15 40  1  0
 21 41  1  0
 21 42  1  0
 23 43  1  0
 24 44  1  0
 25 45  1  0
 26 46  1  0
 28 47  1  0
 29 48  1  0
M  CHG  2  17  -1  20  -1
M  END
>  <UniqueID>  (51) 
47

>  <SMILES>  (51) 
CN(c1ccccc1)S(=O)(=O)c1cccc([N-]C(=O)[N-]Cc2ccccc2O)c1

>  <Energy>  (51) 
55.05677968963674

>  <Genealogy>  (51) 
CN(c1ccccc1)S(=O)(=O)c1cccc([N-]C(=O)[N-]Cc2ccccc2O)c1 (protonated)
CN(c1ccccc1)S(=O)(=O)c1cccc([N-]C(=O)[N-]Cc2ccccc2O)c1 (3D coordinates assigned)
CN(c1ccccc1)S(=O)(=O)c1cccc([N-]C(=O)[N-]Cc2ccccc2O)c1 (optimized conformer: 55.05677968963674 kcal/mol)

>  <smiles>  (51) 
CN(c1ccccc1)S(=O)(=O)c1cccc(NC(=O)NCc2ccccc2O)c1

>  <score_type>  (51) 
oracle

>  <origin>  (51) 
adg

>  <m_score__min__energy>  (51) 
-13.140000000000001

>  <m_primary>  (51) 
energy

$$$$
51:0
     RDKit          3D

 38 40  0  0  0  0  0  0  0  0999 V2000
   56.9840   29.4520   44.5760 C   0  0  0  0  0  0  0  0  0  0  0  0
   57.3290   29.9100   45.9180 N   0  0  0  0  0  0  0  0  0  0  0  0
   58.7690   29.1030   46.4600 S   0  0  0  0  0  0  0  0  0  0  0  0
   59.8200   29.2010   45.3910 O   0  0  0  0  0  0  0  0  0  0  0  0
   58.4740   27.6490   46.7070 O   0  0  0  0  0  0  0  0  0  0  0  0
   59.3770   29.8590   47.9310 C   0  0  0  0  0  0  0  0  0  0  0  0
   60.4420   30.7670   47.8770 C   0  0  0  0  0  0  0  0  0  0  0  0
   60.9360   31.3380   49.0530 C   0  0  0  0  0  0  0  0  0  0  0  0
   60.3650   31.0130   50.2860 C   0  0  0  0  0  0  0  0  0  0  0  0
   59.2770   30.1210   50.3490 C   0  0  0  0  0  0  0  0  0  0  0  0
   58.6860   29.7280   51.5990 N   0  0  0  0  0  0  0  0  0  0  0  0
   57.4250   29.7770   51.9170 C   0  0  0  0  0  0  0  0  0  0  0  0
   56.5730   30.6440   51.3040 N   0  0  0  0  0  0  0  0  0  0  0  0
   55.2530   30.6790   51.6210 C   0  0  0  0  0  0  0  0  0  0  0  0
   54.7460   29.8100   52.5980 C   0  0  0  0  0  0  0  0  0  0  0  0
   53.3580   29.7760   52.9600 N   0  0  0  0  0  0  0  0  0  0  0  0
   52.2510   30.1990   52.1530 C   0  0  0  0  0  0  0  0  0  0  0  0
   51.9560   29.5790   51.0960 O   0  0  0  0  0  0  0  0  0  0  0  0
   51.4830   31.3960   52.5290 C   0  0  0  0  0  0  0  0  0  0  0  0
   51.1710   31.7970   53.8120 C   0  0  0  0  0  0  0  0  0  0  0  0
   50.4500   32.9650   53.6670 C   0  0  0  0  0  0  0  0  0  0  0  0
   49.9360   33.7070   54.7210 O   0  0  0  0  0  0  0  0  0  0  0  0
   50.2960   33.3140   52.3750 N   0  0  0  0  0  0  0  0  0  0  0  0
   50.9340   32.3470   51.6870 C   0  0  0  0  0  0  0  0  0  0  0  0
   51.0120   32.3320   50.3000 O   0  0  0  0  0  0  0  0  0  0  0  0
   55.6280   28.9030   53.1860 C   0  0  0  0  0  0  0  0  0  0  0  0
   56.9420   28.9060   52.8410 N   0  0  0  0  0  0  0  0  0  0  0  0
   58.8100   29.5280   49.1690 C   0  0  0  0  0  0  0  0  0  0  0  0
   56.3235   28.5752   44.6463 H   0  0  0  0  0  0  0  0  0  0  0  0
   56.4668   30.2582   44.0351 H   0  0  0  0  0  0  0  0  0  0  0  0
   57.9016   29.1774   44.0351 H   0  0  0  0  0  0  0  0  0  0  0  0
   60.8902   31.0310   46.9078 H   0  0  0  0  0  0  0  0  0  0  0  0
   61.7770   32.0455   49.0077 H   0  0  0  0  0  0  0  0  0  0  0  0
   60.7663   31.4550   51.2099 H   0  0  0  0  0  0  0  0  0  0  0  0
   54.5827   31.3876   51.1124 H   0  0  0  0  0  0  0  0  0  0  0  0
   51.4400   31.2924   54.7517 H   0  0  0  0  0  0  0  0  0  0  0  0
   55.2584   28.1833   53.9312 H   0  0  0  0  0  0  0  0  0  0  0  0
   57.9905   28.7956   49.2146 H   0  0  0  0  0  0  0  0  0  0  0  0
  1  2  1  0
  2  3  1  0
  3  4  2  0
  3  5  2  0
  3  6  1  0
  6  7  2  0
  7  8  1  0
  8  9  2  0
  9 10  1  0
 10 11  1  0
 11 12  2  3
 12 13  1  0
 13 14  2  0
 14 15  1  0
 15 16  1  0
 16 17  1  0
 17 18  2  0
 17 19  1  0
 19 20  1  0
 20 21  2  0
 21 22  1  0
 21 23  1  0
 23 24  1  0
 24 25  1  0
 15 26  2  0
 26 27  1  0
 10 28  2  0
 28  6  1  0
 27 12  1  0
 24 19  2  0
  1 29  1  0
  1 30  1  0
  1 31  1  0
  7 32  1  0
  8 33  1  0
  9 34  1  0
 14 35  1  0
 20 36  1  0
 26 37  1  0
 28 38  1  0
M  CHG  6   2  -1  16  -1  22  -1  23  -1  25  -1  27  -1
M  END
>  <UniqueID>  (52) 
48

>  <SMILES>  (52) 
C[N-]S(=O)(=O)c1cccc(N=c2ncc([N-]C(=O)c3cc([O-])[n-]c3[O-])c[n-]2)c1

>  <Energy>  (52) 
75.71410459045923

>  <Genealogy>  (52) 
C[N-]S(=O)(=O)c1cccc(N=c2ncc([N-]C(=O)c3cc([O-])[n-]c3[O-])c[n-]2)c1 (protonated)
C[N-]S(=O)(=O)c1cccc(N=c2ncc([N-]C(=O)c3cc([O-])[n-]c3[O-])c[n-]2)c1 (3D coordinates assigned)
C[N-]S(=O)(=O)c1cccc(N=c2ncc([N-]C(=O)c3cc([O-])[n-]c3[O-])c[n-]2)c1 (optimized conformer: 75.71410459045923 kcal/mol)

>  <smiles>  (52) 
CNS(=O)(=O)c1cccc(N=c2ncc(NC(=O)c3cc(O)[nH]c3O)c[nH]2)c1

>  <score_type>  (52) 
oracle

>  <origin>  (52) 
adg

>  <m_score__min__energy>  (52) 
-20.460000000000001

>  <m_primary>  (52) 
energy

$$$$
52:0
     RDKit          3D

 50 52  0  0  0  0  0  0  0  0999 V2000
   58.4670   32.8270   49.1840 H   0  0  0  0  0  0  0  0  0  0  0  0
   57.8130   32.7320   48.4160 O   0  0  0  0  0  0  0  0  0  0  0  0
   58.0400   33.2610   47.1390 C   0  0  0  0  0  0  0  0  0  0  0  0
   56.9330   33.4030   46.2790 C   0  0  0  0  0  0  0  0  0  0  0  0
   55.9275   33.1344   46.6350 H   0  0  0  0  0  0  0  0  0  0  0  0
   57.1030   33.8840   44.9730 C   0  0  0  0  0  0  0  0  0  0  0  0
   56.2314   33.9988   44.3119 H   0  0  0  0  0  0  0  0  0  0  0  0
   58.3800   34.2180   44.5100 C   0  0  0  0  0  0  0  0  0  0  0  0
   58.5124   34.5850   43.4815 H   0  0  0  0  0  0  0  0  0  0  0  0
   59.4910   34.0860   45.3540 C   0  0  0  0  0  0  0  0  0  0  0  0
   60.4929   34.3412   44.9784 H   0  0  0  0  0  0  0  0  0  0  0  0
   59.3380   33.6280   46.6840 C   0  0  0  0  0  0  0  0  0  0  0  0
   60.5350   33.5990   47.5570 C   0  0  0  0  0  0  0  0  0  0  0  0
   60.4640   34.0590   48.7310 O   0  0  0  0  0  0  0  0  0  0  0  0
   61.7390   32.9530   47.1150 N   0  0  0  0  0  0  0  0  0  0  0  0
   62.1740   31.6440   47.6040 C   0  0  0  0  0  0  0  0  0  0  0  0
   62.8401   31.7848   48.4680 H   0  0  0  0  0  0  0  0  0  0  0  0
   62.7040   31.1229   46.7931 H   0  0  0  0  0  0  0  0  0  0  0  0
   60.9820   30.8030   48.0260 C   0  0  0  0  0  0  0  0  0  0  0  0
   60.3010   31.1270   49.2130 C   0  0  0  0  0  0  0  0  0  0  0  0
   60.6399   31.9806   49.8185 H   0  0  0  0  0  0  0  0  0  0  0  0
   59.1970   30.3760   49.6330 C   0  0  0  0  0  0  0  0  0  0  0  0
   58.3780   30.8040   51.1360 S   0  0  0  0  0  0  0  0  0  0  0  0
   57.0550   30.0900   51.2370 O   0  0  0  0  0  0  0  0  0  0  0  0
   58.1370   32.2890   51.1510 O   0  0  0  0  0  0  0  0  0  0  0  0
   59.3720   30.3720   52.4990 N   0  0  0  0  0  0  0  0  0  0  0  0
   60.0340   29.0970   52.2470 C   0  0  0  0  0  0  0  0  0  0  0  0
   60.2830   28.6175   53.2051 H   0  0  0  0  0  0  0  0  0  0  0  0
   59.3620   28.4421   51.6729 H   0  0  0  0  0  0  0  0  0  0  0  0
   60.9562   29.2699   51.6729 H   0  0  0  0  0  0  0  0  0  0  0  0
   58.7490   29.2980   48.8520 C   0  0  0  0  0  0  0  0  0  0  0  0
   57.8793   28.7087   49.1780 H   0  0  0  0  0  0  0  0  0  0  0  0
   59.4050   28.9720   47.6620 C   0  0  0  0  0  0  0  0  0  0  0  0
   59.0446   28.1313   47.0510 H   0  0  0  0  0  0  0  0  0  0  0  0
   60.5230   29.7130   47.2420 C   0  0  0  0  0  0  0  0  0  0  0  0
   61.1850   29.3530   45.9750 C   0  0  0  0  0  0  0  0  0  0  0  0
   62.2834   29.3566   45.9152 H   0  0  0  0  0  0  0  0  0  0  0  0
   60.4630   29.0210   44.8940 C   0  0  0  0  0  0  0  0  0  0  0  0
   60.9858   28.6584   43.9967 H   0  0  0  0  0  0  0  0  0  0  0  0
   58.9880   29.1260   44.8680 C   0  0  0  0  0  0  0  0  0  0  0  0
   58.3370   30.3420   44.5730 C   0  0  0  0  0  0  0  0  0  0  0  0
   58.9292   31.2352   44.3250 H   0  0  0  0  0  0  0  0  0  0  0  0
   56.9410   30.4150   44.5950 C   0  0  0  0  0  0  0  0  0  0  0  0
   56.4363   31.3669   44.3732 H   0  0  0  0  0  0  0  0  0  0  0  0
   56.1840   29.2740   44.9000 C   0  0  0  0  0  0  0  0  0  0  0  0
   54.7940   29.3440   44.9230 O   0  0  0  0  0  0  0  0  0  0  0  0
   56.8230   28.0590   45.1750 C   0  0  0  0  0  0  0  0  0  0  0  0
   56.2271   27.1660   45.4146 H   0  0  0  0  0  0  0  0  0  0  0  0
   58.2180   27.9810   45.1450 C   0  0  0  0  0  0  0  0  0  0  0  0
   58.7167   27.0199   45.3389 H   0  0  0  0  0  0  0  0  0  0  0  0
  1  2  1  0
  2  3  1  0
  3  4  2  0
  4  5  1  0
  4  6  1  0
  6  7  1  0
  6  8  2  0
  8  9  1  0
  8 10  1  0
 10 11  1  0
 10 12  2  0
 12 13  1  0
 13 14  2  0
 13 15  1  0
 15 16  1  0
 16 17  1  0
 16 18  1  0
 16 19  1  0
 19 20  2  0
 20 21  1  0
 20 22  1  0
 22 23  1  0
 23 24  2  0
 23 25  2  0
 23 26  1  0
 26 27  1  0
 27 28  1  0
 27 29  1  0
 27 30  1  0
 22 31  2  0
 31 32  1  0
 31 33  1  0
 33 34  1  0
 33 35  2  0
 35 36  1  0
 36 37  1  0
 36 38  2  0
 38 39  1  0
 38 40  1  0
 40 41  2  0
 41 42  1  0
 41 43  1  0
 43 44  1  0
 43 45  2  0
 45 46  1  0
 45 47  1  0
 47 48  1  0
 47 49  2  0
 49 50  1  0
 12  3  1  0
 35 19  1  0
 49 40  1  0
M  CHG  3  15  -1  26  -1  46  -1
M  END
>  <UniqueID>  (53) 
49

>  <SMILES>  (53) 
C[N-]S(=O)(=O)c1ccc(/C=C/c2ccc([O-])cc2)c(C[N-]C(=O)c2ccccc2O)c1

>  <Energy>  (53) 
60.72771192452691

>  <Genealogy>  (53) 
C[N-]S(=O)(=O)c1ccc(C=Cc2ccc([O-])cc2)c(C[N-]C(=O)c2ccccc2O)c1 (protonated)
C[N-]S(=O)(=O)c1ccc(/C=C/c2ccc([O-])cc2)c(C[N-]C(=O)c2ccccc2O)c1 (cis-trans isomerization)
C[N-]S(=O)(=O)c1ccc(/C=C/c2ccc([O-])cc2)c(C[N-]C(=O)c2ccccc2O)c1 (3D coordinates assigned)
C[N-]S(=O)(=O)c1ccc(/C=C/c2ccc([O-])cc2)c(C[N-]C(=O)c2ccccc2O)c1 (optimized conformer: 60.72771192452691 kcal/mol)

>  <smiles>  (53) 
CNS(=O)(=O)c1ccc(C=Cc2ccc(O)cc2)c(CNC(=O)c2ccccc2O)c1

>  <score_type>  (53) 
oracle

>  <origin>  (53) 
adg

>  <m_score__min__energy>  (53) 
-13.59

>  <m_primary>  (53) 
energy

$$$$
53:0
     RDKit          3D

 44 46  0  0  0  0  0  0  0  0999 V2000
   58.4230   33.1970   43.8800 C   0  0  0  0  0  0  0  0  0  0  0  0
   57.8000   32.8680   45.5140 S   0  0  0  0  0  0  0  0  0  0  0  0
   57.3040   31.4520   45.5750 O   0  0  0  0  0  0  0  0  0  0  0  0
   56.6610   33.8030   45.8110 O   0  0  0  0  0  0  0  0  0  0  0  0
   59.0890   33.0860   46.7310 C   0  0  0  0  0  0  0  0  0  0  0  0
   59.2460   31.8470   47.5680 C   0  0  0  0  0  0  0  0  0  0  0  0
   60.1470   30.8410   47.1830 C   0  0  0  0  0  0  0  0  0  0  0  0
   60.3230   29.7110   47.9840 C   0  0  0  0  0  0  0  0  0  0  0  0
   59.5990   29.5720   49.1710 C   0  0  0  0  0  0  0  0  0  0  0  0
   58.6800   30.5640   49.5610 C   0  0  0  0  0  0  0  0  0  0  0  0
   57.9410   30.4720   50.7870 N   0  0  0  0  0  0  0  0  0  0  0  0
   58.4310   29.9640   52.0320 C   0  0  0  0  0  0  0  0  0  0  0  0
   59.6190   30.2150   52.3670 O   0  0  0  0  0  0  0  0  0  0  0  0
   57.5520   29.2790   52.9350 N   0  0  0  0  0  0  0  0  0  0  0  0
   56.1190   29.2400   52.8650 C   0  0  0  0  0  0  0  0  0  0  0  0
   55.4280   28.3960   53.7440 C   0  0  0  0  0  0  0  0  0  0  0  0
   54.0320   28.3420   53.7230 C   0  0  0  0  0  0  0  0  0  0  0  0
   53.3130   29.1430   52.8340 C   0  0  0  0  0  0  0  0  0  0  0  0
   53.9860   30.0230   51.9710 C   0  0  0  0  0  0  0  0  0  0  0  0
   53.2130   30.8790   51.0080 C   0  0  0  0  0  0  0  0  0  0  0  0
   52.0420   31.5040   51.7000 C   0  0  0  0  0  0  0  0  0  0  0  0
   51.8020   31.4000   53.0200 N   0  0  0  0  0  0  0  0  0  0  0  0
   50.6960   32.1550   53.1930 C   0  0  0  0  0  0  0  0  0  0  0  0
   50.1470   32.3050   54.3160 O   0  0  0  0  0  0  0  0  0  0  0  0
   50.2260   32.7420   52.0710 N   0  0  0  0  0  0  0  0  0  0  0  0
   51.0940   32.3230   51.1360 C   0  0  0  0  0  0  0  0  0  0  0  0
   51.0220   32.6840   49.7970 O   0  0  0  0  0  0  0  0  0  0  0  0
   55.3910   30.0640   51.9880 C   0  0  0  0  0  0  0  0  0  0  0  0
   58.5270   31.7080   48.7670 C   0  0  0  0  0  0  0  0  0  0  0  0
   59.3935   33.7095   43.9539 H   0  0  0  0  0  0  0  0  0  0  0  0
   58.5497   32.2482   43.3380 H   0  0  0  0  0  0  0  0  0  0  0  0
   57.7109   33.8366   43.3380 H   0  0  0  0  0  0  0  0  0  0  0  0
   60.0384   33.2972   46.2172 H   0  0  0  0  0  0  0  0  0  0  0  0
   58.8157   33.9243   47.3887 H   0  0  0  0  0  0  0  0  0  0  0  0
   60.7160   30.9436   46.2472 H   0  0  0  0  0  0  0  0  0  0  0  0
   61.0334   28.9282   47.6798 H   0  0  0  0  0  0  0  0  0  0  0  0
   59.7479   28.6840   49.8029 H   0  0  0  0  0  0  0  0  0  0  0  0
   55.9882   27.7716   54.4555 H   0  0  0  0  0  0  0  0  0  0  0  0
   53.4984   27.6670   54.4083 H   0  0  0  0  0  0  0  0  0  0  0  0
   52.2148   29.0846   52.8094 H   0  0  0  0  0  0  0  0  0  0  0  0
   53.8694   31.6704   50.6171 H   0  0  0  0  0  0  0  0  0  0  0  0
   52.8493   30.2516   50.1809 H   0  0  0  0  0  0  0  0  0  0  0  0
   55.9253   30.7459   51.3101 H   0  0  0  0  0  0  0  0  0  0  0  0
   57.8380   32.5043   49.0850 H   0  0  0  0  0  0  0  0  0  0  0  0
  1  2  1  0
  2  3  2  0
  2  4  2  0
  2  5  1  0
  5  6  1  0
  6  7  2  0
  7  8  1  0
  8  9  2  0
  9 10  1  0
 10 11  1  0
 11 12  1  0
 12 13  2  0
 12 14  1  0
 14 15  1  0
 15 16  2  0
 16 17  1  0
 17 18  2  0
 18 19  1  0
 19 20  1  0
 20 21  1  0
 21 22  1  0
 22 23  1  0
 23 24  2  0
 23 25  1  0
 25 26  1  0
 26 27  1  0
 19 28  2  0
 10 29  2  0
 29  6  1  0
 28 15  1  0
 26 21  2  0
  1 30  1  0
  1 31  1  0
  1 32  1  0
  5 33  1  0
  5 34  1  0
  7 35  1  0
  8 36  1  0
  9 37  1  0
 16 38  1  0
 17 39  1  0
 18 40  1  0
 20 41  1  0
 20 42  1  0
 28 43  1  0
 29 44  1  0
M  CHG  5  11  -1  14  -1  22  -1  25  -1  27  -1
M  END
>  <UniqueID>  (54) 
50

>  <SMILES>  (54) 
CS(=O)(=O)Cc1cccc([N-]C(=O)[N-]c2cccc(Cc3[n-]c(=O)[n-]c3[O-])c2)c1

>  <Energy>  (54) 
72.02091170231662

>  <Genealogy>  (54) 
CS(=O)(=O)Cc1cccc([N-]C(=O)[N-]c2cccc(Cc3[n-]c(=O)[n-]c3[O-])c2)c1 (protonated)
CS(=O)(=O)Cc1cccc([N-]C(=O)[N-]c2cccc(Cc3[n-]c(=O)[n-]c3[O-])c2)c1 (3D coordinates assigned)
CS(=O)(=O)Cc1cccc([N-]C(=O)[N-]c2cccc(Cc3[n-]c(=O)[n-]c3[O-])c2)c1 (optimized conformer: 72.02091170231662 kcal/mol)

>  <smiles>  (54) 
CS(=O)(=O)Cc1cccc(NC(=O)Nc2cccc(Cc3[nH]c(=O)[nH]c3O)c2)c1

>  <score_type>  (54) 
oracle

>  <origin>  (54) 
adg

>  <m_score__min__energy>  (54) 
-20.73

>  <m_primary>  (54) 
energy

$$$$
54:0
     RDKit          3D

 50 53  0  0  0  0  0  0  0  0999 V2000
   55.5690   24.0480   44.3090 C   0  0  0  0  0  0  0  0  0  0  0  0
   55.7000   25.0660   45.7630 S   0  0  0  0  0  0  0  0  0  0  0  0
   55.3760   24.2450   46.9780 O   0  0  0  0  0  0  0  0  0  0  0  0
   54.7260   26.2040   45.6460 O   0  0  0  0  0  0  0  0  0  0  0  0
   57.3070   25.6910   45.8980 N   0  0  0  0  0  0  0  0  0  0  0  0
   57.9700   25.8980   47.0490 C   0  0  0  0  0  0  0  0  0  0  0  0
   59.2120   26.3880   46.7260 C   0  0  0  0  0  0  0  0  0  0  0  0
   60.2200   26.7710   47.6700 N   0  0  0  0  0  0  0  0  0  0  0  0
   60.2240   27.9470   48.4900 C   0  0  0  0  0  0  0  0  0  0  0  0
   60.7290   27.9150   49.6440 O   0  0  0  0  0  0  0  0  0  0  0  0
   59.6110   29.2010   47.9880 C   0  0  0  0  0  0  0  0  0  0  0  0
   59.6350   30.3710   48.7680 C   0  0  0  0  0  0  0  0  0  0  0  0
   59.0540   31.5550   48.3040 C   0  0  0  0  0  0  0  0  0  0  0  0
   59.1220   32.7000   49.1120 O   0  0  0  0  0  0  0  0  0  0  0  0
   58.8170   32.7480   50.4800 C   0  0  0  0  0  0  0  0  0  0  0  0
   59.4960   33.6080   51.3640 C   0  0  0  0  0  0  0  0  0  0  0  0
   59.1530   33.6360   52.7200 C   0  0  0  0  0  0  0  0  0  0  0  0
   58.1270   32.8180   53.2000 C   0  0  0  0  0  0  0  0  0  0  0  0
   57.4360   31.9780   52.3220 C   0  0  0  0  0  0  0  0  0  0  0  0
   57.7750   31.9490   50.9660 C   0  0  0  0  0  0  0  0  0  0  0  0
   58.4660   31.5830   47.0290 C   0  0  0  0  0  0  0  0  0  0  0  0
   58.4200   30.4230   46.2410 C   0  0  0  0  0  0  0  0  0  0  0  0
   57.8190   30.4620   44.8890 C   0  0  0  0  0  0  0  0  0  0  0  0
   58.1830   31.4990   44.0130 C   0  0  0  0  0  0  0  0  0  0  0  0
   57.5980   31.5970   42.7490 C   0  0  0  0  0  0  0  0  0  0  0  0
   56.6450   30.6620   42.3440 C   0  0  0  0  0  0  0  0  0  0  0  0
   56.2830   29.6190   43.1980 C   0  0  0  0  0  0  0  0  0  0  0  0
   56.8710   29.4990   44.4640 C   0  0  0  0  0  0  0  0  0  0  0  0
   56.5150   28.4060   45.2560 O   0  0  0  0  0  0  0  0  0  0  0  0
   58.9990   29.2380   46.7230 C   0  0  0  0  0  0  0  0  0  0  0  0
   59.2410   26.4680   45.3430 C   0  0  0  0  0  0  0  0  0  0  0  0
   58.0600   26.0310   44.8630 N   0  0  0  0  0  0  0  0  0  0  0  0
   55.4339   22.9979   44.6075 H   0  0  0  0  0  0  0  0  0  0  0  0
   54.7053   24.3731   43.7104 H   0  0  0  0  0  0  0  0  0  0  0  0
   56.4869   24.1438   43.7104 H   0  0  0  0  0  0  0  0  0  0  0  0
   57.5881   25.7096   48.0632 H   0  0  0  0  0  0  0  0  0  0  0  0
   60.1174   30.3544   49.7565 H   0  0  0  0  0  0  0  0  0  0  0  0
   60.2983   34.2596   50.9875 H   0  0  0  0  0  0  0  0  0  0  0  0
   59.6918   34.3029   53.4092 H   0  0  0  0  0  0  0  0  0  0  0  0
   57.8633   32.8350   54.2678 H   0  0  0  0  0  0  0  0  0  0  0  0
   56.6240   31.3386   52.6987 H   0  0  0  0  0  0  0  0  0  0  0  0
   57.2201   31.2950   50.2772 H   0  0  0  0  0  0  0  0  0  0  0  0
   58.0384   32.5211   46.6453 H   0  0  0  0  0  0  0  0  0  0  0  0
   58.9344   32.2390   44.3255 H   0  0  0  0  0  0  0  0  0  0  0  0
   57.8891   32.4130   42.0712 H   0  0  0  0  0  0  0  0  0  0  0  0
   56.1787   30.7468   41.3513 H   0  0  0  0  0  0  0  0  0  0  0  0
   55.5300   28.8853   42.8744 H   0  0  0  0  0  0  0  0  0  0  0  0
   56.4130   27.4700   44.8870 H   0  0  0  0  0  0  0  0  0  0  0  0
   58.9734   28.3290   46.1041 H   0  0  0  0  0  0  0  0  0  0  0  0
   60.0864   26.8279   44.7382 H   0  0  0  0  0  0  0  0  0  0  0  0
  1  2  1  0
  2  3  2  0
  2  4  2  0
  2  5  1  0
  5  6  1  0
  6  7  2  0
  7  8  1  0
  8  9  1  0
  9 10  2  0
  9 11  1  0
 11 12  2  0
 12 13  1  0
 13 14  1  0
 14 15  1  0
 15 16  2  0
 16 17  1  0
 17 18  2  0
 18 19  1  0
 19 20  2  0
 13 21  2  0
 21 22  1  0
 22 23  1  0
 23 24  2  0
 24 25  1  0
 25 26  2  0
 26 27  1  0
 27 28  2  0
 28 29  1  0
 22 30  2  0
  7 31  1  0
 31 32  2  0
 32  5  1  0
 30 11  1  0
 20 15  1  0
 28 23  1  0
  1 33  1  0
  1 34  1  0
  1 35  1  0
  6 36  1  0
 12 37  1  0
 16 38  1  0
 17 39  1  0
 18 40  1  0
 19 41  1  0
 20 42  1  0
 21 43  1  0
 24 44  1  0
 25 45  1  0
 26 46  1  0
 27 47  1  0
 29 48  1  0
 30 49  1  0
 31 50  1  0
M  CHG  1   8  -1
M  END
>  <UniqueID>  (55) 
51

>  <SMILES>  (55) 
CS(=O)(=O)n1cc([N-]C(=O)c2cc(Oc3ccccc3)cc(-c3ccccc3O)c2)cn1

>  <Energy>  (55) 
99.17210553761169

>  <Genealogy>  (55) 
CS(=O)(=O)n1cc([N-]C(=O)c2cc(Oc3ccccc3)cc(-c3ccccc3O)c2)cn1 (protonated)
CS(=O)(=O)n1cc([N-]C(=O)c2cc(Oc3ccccc3)cc(-c3ccccc3O)c2)cn1 (3D coordinates assigned)
CS(=O)(=O)n1cc([N-]C(=O)c2cc(Oc3ccccc3)cc(-c3ccccc3O)c2)cn1 (optimized conformer: 99.17210553761169 kcal/mol)

>  <smiles>  (55) 
CS(=O)(=O)n1cc(NC(=O)c2cc(Oc3ccccc3)cc(-c3ccccc3O)c2)cn1

>  <score_type>  (55) 
oracle

>  <origin>  (55) 
adg

>  <m_score__min__energy>  (55) 
-11.449999999999999

>  <m_primary>  (55) 
energy

$$$$
55:0
     RDKit          3D

 46 48  0  0  0  0  0  0  0  0999 V2000
   58.1700   31.4240   46.5180 C   0  0  0  0  0  0  0  0  0  0  0  0
   58.3390   29.9250   46.3930 C   0  0  0  0  0  0  0  0  0  0  0  0
   59.2870   29.2520   47.2020 C   0  0  0  0  0  0  0  0  0  0  0  0
   60.0540   29.9950   48.1640 N   0  0  0  0  0  0  0  0  0  0  0  0
   60.2130   29.5450   49.8330 S   0  0  0  0  0  0  0  0  0  0  0  0
   60.1110   28.0510   49.9440 O   0  0  0  0  0  0  0  0  0  0  0  0
   61.5730   29.9620   50.3210 O   0  0  0  0  0  0  0  0  0  0  0  0
   58.9530   30.2700   50.8250 C   0  0  0  0  0  0  0  0  0  0  0  0
   58.6330   31.6220   50.6690 C   0  0  0  0  0  0  0  0  0  0  0  0
   57.6670   32.2100   51.4880 C   0  0  0  0  0  0  0  0  0  0  0  0
   57.0180   31.4560   52.4670 C   0  0  0  0  0  0  0  0  0  0  0  0
   57.3220   30.0960   52.6330 C   0  0  0  0  0  0  0  0  0  0  0  0
   56.6320   29.2880   53.6610 C   0  0  0  0  0  0  0  0  0  0  0  0
   57.2760   28.8680   54.6610 O   0  0  0  0  0  0  0  0  0  0  0  0
   55.2150   29.0660   53.5670 N   0  0  0  0  0  0  0  0  0  0  0  0
   54.3100   29.8170   52.9970 C   0  0  0  0  0  0  0  0  0  0  0  0
   54.3140   30.0980   51.6140 C   0  0  0  0  0  0  0  0  0  0  0  0
   53.3210   30.9120   51.0720 C   0  0  0  0  0  0  0  0  0  0  0  0
   52.3190   31.4450   51.8900 C   0  0  0  0  0  0  0  0  0  0  0  0
   51.2680   32.3140   51.3230 C   0  0  0  0  0  0  0  0  0  0  0  0
   51.0240   32.3020   50.0880 O   0  0  0  0  0  0  0  0  0  0  0  0
   50.5260   33.1520   52.1500 O   0  0  0  0  0  0  0  0  0  0  0  0
   52.3550   31.1550   53.2630 C   0  0  0  0  0  0  0  0  0  0  0  0
   53.3400   30.3700   53.7780 N   0  0  0  0  0  0  0  0  0  0  0  0
   58.2940   29.5100   51.7990 C   0  0  0  0  0  0  0  0  0  0  0  0
   59.5080   27.8810   47.0260 C   0  0  0  0  0  0  0  0  0  0  0  0
   58.7630   27.1560   46.1020 C   0  0  0  0  0  0  0  0  0  0  0  0
   57.7790   27.7890   45.3480 C   0  0  0  0  0  0  0  0  0  0  0  0
   57.5390   29.1690   45.4920 C   0  0  0  0  0  0  0  0  0  0  0  0
   56.4310   29.7660   44.7100 C   0  0  0  0  0  0  0  0  0  0  0  0
   56.6740   30.6350   43.8270 O   0  0  0  0  0  0  0  0  0  0  0  0
   55.1240   29.3380   44.8940 O   0  0  0  0  0  0  0  0  0  0  0  0
   58.1387   31.7020   47.5818 H   0  0  0  0  0  0  0  0  0  0  0  0
   59.0168   31.9303   46.0315 H   0  0  0  0  0  0  0  0  0  0  0  0
   57.2318   31.7290   46.0315 H   0  0  0  0  0  0  0  0  0  0  0  0
   59.1423   32.2226   49.9010 H   0  0  0  0  0  0  0  0  0  0  0  0
   57.4161   33.2734   51.3609 H   0  0  0  0  0  0  0  0  0  0  0  0
   56.2639   31.9305   53.1122 H   0  0  0  0  0  0  0  0  0  0  0  0
   55.0972   29.6765   50.9668 H   0  0  0  0  0  0  0  0  0  0  0  0
   53.3251   31.1366   49.9952 H   0  0  0  0  0  0  0  0  0  0  0  0
   51.5808   31.5656   53.9279 H   0  0  0  0  0  0  0  0  0  0  0  0
   53.3340   30.1780   54.8070 H   0  0  0  0  0  0  0  0  0  0  0  0
   58.5381   28.4436   51.9141 H   0  0  0  0  0  0  0  0  0  0  0  0
   60.2782   27.3722   47.6242 H   0  0  0  0  0  0  0  0  0  0  0  0
   58.9517   26.0808   45.9669 H   0  0  0  0  0  0  0  0  0  0  0  0
   57.1824   27.2049   44.6319 H   0  0  0  0  0  0  0  0  0  0  0  0
  1  2  1  0
  2  3  2  0
  3  4  1  0
  4  5  1  0
  5  6  2  0
  5  7  2  0
  5  8  1  0
  8  9  2  0
  9 10  1  0
 10 11  2  0
 11 12  1  0
 12 13  1  0
 13 14  2  0
 13 15  1  0
 15 16  2  3
 16 17  1  0
 17 18  2  0
 18 19  1  0
 19 20  1  0
 20 21  2  0
 20 22  1  0
 19 23  2  0
 23 24  1  0
 12 25  2  0
  3 26  1  0
 26 27  2  0
 27 28  1  0
 28 29  2  0
 29 30  1  0
 30 31  2  0
 30 32  1  0
 29  2  1  0
 25  8  1  0
 24 16  1  0
  1 33  1  0
  1 34  1  0
  1 35  1  0
  9 36  1  0
 10 37  1  0
 11 38  1  0
 17 39  1  0
 18 40  1  0
 23 41  1  0
 24 42  1  0
 25 43  1  0
 26 44  1  0
 27 45  1  0
 28 46  1  0
M  CHG  3   4  -1  22  -1  32  -1
M  END
>  <UniqueID>  (56) 
52

>  <SMILES>  (56) 
Cc1c([N-]S(=O)(=O)c2cccc(C(=O)N=c3ccc(C(=O)[O-])c[nH]3)c2)cccc1C(=O)[O-]

>  <Energy>  (56) 
72.51070070061994

>  <Genealogy>  (56) 
Cc1c([N-]S(=O)(=O)c2cccc(C(=O)N=c3ccc(C(=O)[O-])c[nH]3)c2)cccc1C(=O)[O-] (protonated)
Cc1c([N-]S(=O)(=O)c2cccc(C(=O)N=c3ccc(C(=O)[O-])c[nH]3)c2)cccc1C(=O)[O-] (3D coordinates assigned)
Cc1c([N-]S(=O)(=O)c2cccc(C(=O)N=c3ccc(C(=O)[O-])c[nH]3)c2)cccc1C(=O)[O-] (optimized conformer: 72.51070070061994 kcal/mol)

>  <smiles>  (56) 
Cc1c(NS(=O)(=O)c2cccc(C(=O)N=c3ccc(C(=O)O)c[nH]3)c2)cccc1C(=O)O

>  <score_type>  (56) 
oracle

>  <origin>  (56) 
adg

>  <m_score__min__energy>  (56) 
-15.279999999999999

>  <m_primary>  (56) 
energy

$$$$
56:0
     RDKit          3D

 37 37  0  0  0  0  0  0  0  0999 V2000
   61.4420   33.8030   46.7710 C   0  0  0  0  0  0  0  0  0  0  0  0
   60.3290   34.1150   47.7670 C   0  0  0  0  0  0  0  0  0  0  0  0
   59.0600   34.5880   47.0500 C   0  0  0  0  0  0  0  0  0  0  0  0
   59.1800   34.3840   45.5330 C   0  0  0  0  0  0  0  0  0  0  0  0
   57.8290   34.0760   44.8600 C   0  0  0  0  0  0  0  0  0  0  0  0
   57.3670   32.6230   45.0190 C   0  0  0  0  0  0  0  0  0  0  0  0
   58.1300   31.5420   43.7520 S   0  0  0  0  0  0  0  0  0  0  0  0
   57.1390   30.1040   44.1650 C   0  0  0  0  0  0  0  0  0  0  0  0
   55.5080   30.2360   44.0990 S   0  0  0  0  0  0  0  0  0  0  0  0
   57.7750   28.9150   44.6630 N   0  0  0  0  0  0  0  0  0  0  0  0
   57.4070   27.6920   44.3060 N   0  0  0  0  0  0  0  0  0  0  0  0
   58.1730   26.8000   44.9620 C   0  0  0  0  0  0  0  0  0  0  0  0
   58.0780   25.3190   44.7930 C   0  0  0  0  0  0  0  0  0  0  0  0
   59.0660   27.4780   45.7690 C   0  0  0  0  0  0  0  0  0  0  0  0
   60.3930   26.7150   46.9180 Br  0  0  0  0  0  0  0  0  0  0  0  0
   58.7760   28.8190   45.5720 C   0  0  0  0  0  0  0  0  0  0  0  0
   59.4320   29.9670   46.2780 C   0  0  0  0  0  0  0  0  0  0  0  0
   62.3613   33.5453   47.3173 H   0  0  0  0  0  0  0  0  0  0  0  0
   61.1411   32.9546   46.1388 H   0  0  0  0  0  0  0  0  0  0  0  0
   61.6260   34.6842   46.1388 H   0  0  0  0  0  0  0  0  0  0  0  0
   60.0982   33.2068   48.3432 H   0  0  0  0  0  0  0  0  0  0  0  0
   60.6732   34.9200   48.4330 H   0  0  0  0  0  0  0  0  0  0  0  0
   58.1997   34.0135   47.4238 H   0  0  0  0  0  0  0  0  0  0  0  0
   58.9218   35.6607   47.2507 H   0  0  0  0  0  0  0  0  0  0  0  0
   59.5930   35.3009   45.0873 H   0  0  0  0  0  0  0  0  0  0  0  0
   59.8360   33.5166   45.3678 H   0  0  0  0  0  0  0  0  0  0  0  0
   57.0650   34.7318   45.3030 H   0  0  0  0  0  0  0  0  0  0  0  0
   57.9648   34.2494   43.7823 H   0  0  0  0  0  0  0  0  0  0  0  0
   57.6540   32.2626   46.0179 H   0  0  0  0  0  0  0  0  0  0  0  0
   56.2747   32.5893   44.8932 H   0  0  0  0  0  0  0  0  0  0  0  0
   56.6540   27.4670   43.6180 H   0  0  0  0  0  0  0  0  0  0  0  0
   58.0472   24.8383   45.7819 H   0  0  0  0  0  0  0  0  0  0  0  0
   57.1621   25.0715   44.2363 H   0  0  0  0  0  0  0  0  0  0  0  0
   58.9547   24.9565   44.2363 H   0  0  0  0  0  0  0  0  0  0  0  0
   59.3501   29.8237   47.3655 H   0  0  0  0  0  0  0  0  0  0  0  0
   60.4935   30.0143   45.9933 H   0  0  0  0  0  0  0  0  0  0  0  0
   58.9338   30.9055   45.9933 H   0  0  0  0  0  0  0  0  0  0  0  0
  1  2  1  0
  2  3  1  0
  3  4  1  0
  4  5  1  0
  5  6  1  0
  6  7  1  0
  7  8  1  0
  8  9  2  0
  8 10  1  0
 10 11  1  0
 11 12  2  0
 12 13  1  0
 12 14  1  0
 14 15  1  0
 14 16  2  0
 16 17  1  0
 16 10  1  0
  1 18  1  0
  1 19  1  0
  1 20  1  0
  2 21  1  0
  2 22  1  0
  3 23  1  0
  3 24  1  0
  4 25  1  0
  4 26  1  0
  5 27  1  0
  5 28  1  0
  6 29  1  0
  6 30  1  0
 11 31  1  0
 13 32  1  0
 13 33  1  0
 13 34  1  0
 17 35  1  0
 17 36  1  0
 17 37  1  0
M  CHG  1  11   1
M  END
>  <UniqueID>  (57) 
53

>  <SMILES>  (57) 
CCCCCCSC(=S)n1[nH+]c(C)c(Br)c1C

>  <Energy>  (57) 
50.99420178990955

>  <Genealogy>  (57) 
CCCCCCSC(=S)n1[nH+]c(C)c(Br)c1C (protonated)
CCCCCCSC(=S)n1[nH+]c(C)c(Br)c1C (3D coordinates assigned)
CCCCCCSC(=S)n1[nH+]c(C)c(Br)c1C (optimized conformer: 50.99420178990955 kcal/mol)

>  <smiles>  (57) 
CCCCCCSC(=S)n1nc(C)c(Br)c1C

>  <score_type>  (57) 
oracle

>  <origin>  (57) 
adg

>  <m_score__min__energy>  (57) 
-5.6500000000000004

>  <m_primary>  (57) 
energy

$$$$
57:0
     RDKit          3D

 42 44  0  0  0  0  0  0  0  0999 V2000
   57.3830   24.3820   48.2080 O   0  0  0  0  0  0  0  0  0  0  0  0
   57.1280   25.0700   47.1850 C   0  0  0  0  0  0  0  0  0  0  0  0
   57.5700   26.5110   47.1630 C   0  0  0  0  0  0  0  0  0  0  0  0
   57.7820   27.0190   45.7300 C   0  0  0  0  0  0  0  0  0  0  0  0
   59.0870   27.8120   45.5800 C   0  0  0  0  0  0  0  0  0  0  0  0
   59.0790   28.6530   44.3010 C   0  0  0  0  0  0  0  0  0  0  0  0
   58.1080   29.7850   44.4290 C   0  0  0  0  0  0  0  0  0  0  0  0
   58.3960   31.0760   44.8130 C   0  0  0  0  0  0  0  0  0  0  0  0
   57.2130   31.7120   44.8780 N   0  0  0  0  0  0  0  0  0  0  0  0
   56.9970   33.1220   45.1800 C   0  0  0  0  0  0  0  0  0  0  0  0
   58.0550   33.6070   46.1310 C   0  0  0  0  0  0  0  0  0  0  0  0
   58.9980   34.5600   45.7140 C   0  0  0  0  0  0  0  0  0  0  0  0
   60.0050   34.9850   46.5880 C   0  0  0  0  0  0  0  0  0  0  0  0
   60.0840   34.4500   47.8780 C   0  0  0  0  0  0  0  0  0  0  0  0
   61.0630   34.8580   48.7230 F   0  0  0  0  0  0  0  0  0  0  0  0
   59.1580   33.4880   48.2940 C   0  0  0  0  0  0  0  0  0  0  0  0
   58.1490   33.0640   47.4230 C   0  0  0  0  0  0  0  0  0  0  0  0
   56.2560   30.8600   44.5470 N   0  0  0  0  0  0  0  0  0  0  0  0
   56.7730   29.6690   44.2800 N   0  0  0  0  0  0  0  0  0  0  0  0
   56.4370   24.4570   46.0260 C   0  0  0  0  0  0  0  0  0  0  0  0
   56.9800   23.0810   45.2060 S   0  0  0  0  0  0  0  0  0  0  0  0
   55.7130   23.1060   44.1130 C   0  0  0  0  0  0  0  0  0  0  0  0
   55.5520   22.2650   43.1920 O   0  0  0  0  0  0  0  0  0  0  0  0
   54.8620   24.1280   44.3340 N   0  0  0  0  0  0  0  0  0  0  0  0
   55.2520   24.8820   45.3980 C   0  0  0  0  0  0  0  0  0  0  0  0
   54.4770   25.9660   45.8080 O   0  0  0  0  0  0  0  0  0  0  0  0
   56.7996   27.1275   47.6493 H   0  0  0  0  0  0  0  0  0  0  0  0
   58.5287   26.5834   47.6974 H   0  0  0  0  0  0  0  0  0  0  0  0
   57.8128   26.1553   45.0495 H   0  0  0  0  0  0  0  0  0  0  0  0
   56.9484   27.6938   45.4856 H   0  0  0  0  0  0  0  0  0  0  0  0
   59.2036   28.4786   46.4472 H   0  0  0  0  0  0  0  0  0  0  0  0
   59.9233   27.0996   45.5236 H   0  0  0  0  0  0  0  0  0  0  0  0
   60.0869   29.0576   44.1265 H   0  0  0  0  0  0  0  0  0  0  0  0
   58.7768   28.0164   43.4564 H   0  0  0  0  0  0  0  0  0  0  0  0
   59.3892   31.4995   45.0232 H   0  0  0  0  0  0  0  0  0  0  0  0
   57.0467   33.7065   44.2495 H   0  0  0  0  0  0  0  0  0  0  0  0
   56.0073   33.2466   45.6436 H   0  0  0  0  0  0  0  0  0  0  0  0
   58.9451   34.9742   44.6963 H   0  0  0  0  0  0  0  0  0  0  0  0
   60.7347   35.7401   46.2604 H   0  0  0  0  0  0  0  0  0  0  0  0
   59.2232   33.0644   49.3071 H   0  0  0  0  0  0  0  0  0  0  0  0
   57.4263   32.3024   47.7511 H   0  0  0  0  0  0  0  0  0  0  0  0
   53.6520   25.8730   46.3830 H   0  0  0  0  0  0  0  0  0  0  0  0
  1  2  2  0
  2  3  1  0
  3  4  1  0
  4  5  1  0
  5  6  1  0
  6  7  1  0
  7  8  2  0
  8  9  1  0
  9 10  1  0
 10 11  1  0
 11 12  2  0
 12 13  1  0
 13 14  2  0
 14 15  1  0
 14 16  1  0
 16 17  2  0
  9 18  1  0
 18 19  2  0
  2 20  1  0
 20 21  1  0
 21 22  1  0
 22 23  2  0
 22 24  1  0
 24 25  1  0
 25 26  1  0
 19  7  1  0
 25 20  2  0
 17 11  1  0
  3 27  1  0
  3 28  1  0
  4 29  1  0
  4 30  1  0
  5 31  1  0
  5 32  1  0
  6 33  1  0
  6 34  1  0
  8 35  1  0
 10 36  1  0
 10 37  1  0
 12 38  1  0
 13 39  1  0
 16 40  1  0
 17 41  1  0
 26 42  1  0
M  CHG  1  24  -1
M  END
>  <UniqueID>  (58) 
54

>  <SMILES>  (58) 
O=C(CCCCc1cn(Cc2ccc(F)cc2)nn1)c1sc(=O)[n-]c1O

>  <Energy>  (58) 
102.15222090643593

>  <Genealogy>  (58) 
O=C(CCCCc1cn(Cc2ccc(F)cc2)nn1)c1sc(=O)[n-]c1O (protonated)
O=C(CCCCc1cn(Cc2ccc(F)cc2)nn1)c1sc(=O)[n-]c1O (3D coordinates assigned)
O=C(CCCCc1cn(Cc2ccc(F)cc2)nn1)c1sc(=O)[n-]c1O (optimized conformer: 102.15222090643593 kcal/mol)

>  <smiles>  (58) 
O=C(CCCCc1cn(Cc2ccc(F)cc2)nn1)c1sc(=O)[nH]c1O

>  <score_type>  (58) 
oracle

>  <origin>  (58) 
adg

>  <m_score__min__energy>  (58) 
-11.630000000000001

>  <m_primary>  (58) 
energy

$$$$
58:0
     RDKit          3D

 28 30  0  0  0  0  0  0  0  0999 V2000
   58.5190   29.9820   48.4800 O   0  0  0  0  0  0  0  0  0  0  0  0
   59.1350   30.0870   47.3840 C   0  0  0  0  0  0  0  0  0  0  0  0
   59.3890   28.8680   46.5350 C   0  0  0  0  0  0  0  0  0  0  0  0
   58.1370   28.0520   46.3170 C   0  0  0  0  0  0  0  0  0  0  0  0
   58.0580   26.7410   46.8090 C   0  0  0  0  0  0  0  0  0  0  0  0
   56.9250   26.0130   46.6390 N   0  0  0  0  0  0  0  0  0  0  0  0
   55.8480   26.5360   46.0000 C   0  0  0  0  0  0  0  0  0  0  0  0
   54.8080   25.8450   45.8530 O   0  0  0  0  0  0  0  0  0  0  0  0
   55.8930   27.8060   45.5200 N   0  0  0  0  0  0  0  0  0  0  0  0
   57.0050   28.5730   45.6650 C   0  0  0  0  0  0  0  0  0  0  0  0
   57.0070   29.7470   45.2080 O   0  0  0  0  0  0  0  0  0  0  0  0
   59.7360   31.3430   47.0350 N   0  0  0  0  0  0  0  0  0  0  0  0
   61.0190   31.6640   47.3400 C   0  0  0  0  0  0  0  0  0  0  0  0
   61.7990   30.8990   47.9670 O   0  0  0  0  0  0  0  0  0  0  0  0
   61.4600   33.1930   46.7740 S   0  0  0  0  0  0  0  0  0  0  0  0
   59.9350   33.4590   46.1160 C   0  0  0  0  0  0  0  0  0  0  0  0
   59.4740   34.5900   45.4460 C   0  0  0  0  0  0  0  0  0  0  0  0
   58.1410   34.6060   45.0110 C   0  0  0  0  0  0  0  0  0  0  0  0
   57.2990   33.5060   45.2610 C   0  0  0  0  0  0  0  0  0  0  0  0
   57.7830   32.3770   45.9410 C   0  0  0  0  0  0  0  0  0  0  0  0
   59.1230   32.3560   46.3550 C   0  0  0  0  0  0  0  0  0  0  0  0
   59.7752   29.1918   45.5573 H   0  0  0  0  0  0  0  0  0  0  0  0
   60.1164   28.2345   47.0637 H   0  0  0  0  0  0  0  0  0  0  0  0
   58.9180   26.3008   47.3350 H   0  0  0  0  0  0  0  0  0  0  0  0
   60.1380   35.4477   45.2630 H   0  0  0  0  0  0  0  0  0  0  0  0
   57.7515   35.4822   44.4719 H   0  0  0  0  0  0  0  0  0  0  0  0
   56.2532   33.5311   44.9208 H   0  0  0  0  0  0  0  0  0  0  0  0
   57.1216   31.5222   46.1459 H   0  0  0  0  0  0  0  0  0  0  0  0
  1  2  2  0
  2  3  1  0
  3  4  1  0
  4  5  2  0
  5  6  1  0
  6  7  1  0
  7  8  2  0
  7  9  1  0
  9 10  1  0
 10 11  2  0
  2 12  1  0
 12 13  1  0
 13 14  2  0
 13 15  1  0
 15 16  1  0
 16 17  2  0
 17 18  1  0
 18 19  2  0
 19 20  1  0
 20 21  2  0
 10  4  1  0
 21 12  1  0
 21 16  1  0
  3 22  1  0
  3 23  1  0
  5 24  1  0
 17 25  1  0
 18 26  1  0
 19 27  1  0
 20 28  1  0
M  CHG  2   6  -1   9  -1
M  END
>  <UniqueID>  (59) 
55

>  <SMILES>  (59) 
O=C(Cc1c[n-]c(=O)[n-]c1=O)n1c(=O)sc2ccccc21

>  <Energy>  (59) 
76.25252672093248

>  <Genealogy>  (59) 
O=C(Cc1c[n-]c(=O)[n-]c1=O)n1c(=O)sc2ccccc21 (protonated)
O=C(Cc1c[n-]c(=O)[n-]c1=O)n1c(=O)sc2ccccc21 (3D coordinates assigned)
O=C(Cc1c[n-]c(=O)[n-]c1=O)n1c(=O)sc2ccccc21 (optimized conformer: 76.25252672093248 kcal/mol)

>  <smiles>  (59) 
O=C(Cc1c[nH]c(=O)[nH]c1=O)n1c(=O)sc2ccccc21

>  <score_type>  (59) 
oracle

>  <origin>  (59) 
adg

>  <m_score__min__energy>  (59) 
-11.619999999999999

>  <m_primary>  (59) 
energy

$$$$
59:0
     RDKit          3D

 50 53  0  0  0  0  0  0  0  0999 V2000
   59.2840   26.5040   47.5260 C   0  0  0  0  0  0  0  0  0  0  0  0
   58.7970   27.4910   46.5530 N   0  0  0  0  0  0  0  0  0  0  0  0
   57.7640   27.2200   45.6830 C   0  0  0  0  0  0  0  0  0  0  0  0
   57.1890   26.0970   45.7030 O   0  0  0  0  0  0  0  0  0  0  0  0
   57.3460   28.1660   44.7810 N   0  0  0  0  0  0  0  0  0  0  0  0
   57.9430   29.3890   44.6910 C   0  0  0  0  0  0  0  0  0  0  0  0
   57.5120   30.2920   43.7110 O   0  0  0  0  0  0  0  0  0  0  0  0
   57.0440   31.6140   43.9900 C   0  0  0  0  0  0  0  0  0  0  0  0
   58.1080   32.6730   43.6740 C   0  0  0  0  0  0  0  0  0  0  0  0
   58.0710   33.7690   44.6660 N   0  0  0  0  0  0  0  0  0  0  0  0
   57.2180   33.4440   45.8400 C   0  0  0  0  0  0  0  0  0  0  0  0
   58.0320   33.0830   47.0900 C   0  0  0  0  0  0  0  0  0  0  0  0
   58.9690   34.2320   47.4950 C   0  0  0  0  0  0  0  0  0  0  0  0
   59.4650   35.0490   46.2900 C   0  0  0  0  0  0  0  0  0  0  0  0
   59.4440   34.2110   45.0080 C   0  0  0  0  0  0  0  0  0  0  0  0
   58.9770   29.6700   45.5820 C   0  0  0  0  0  0  0  0  0  0  0  0
   59.6610   30.8140   45.7570 N   0  0  0  0  0  0  0  0  0  0  0  0
   60.5350   30.5690   46.7670 C   0  0  0  0  0  0  0  0  0  0  0  0
   61.5010   31.5520   47.3050 C   0  0  0  0  0  0  0  0  0  0  0  0
   62.2510   31.2950   48.4680 C   0  0  0  0  0  0  0  0  0  0  0  0
   63.1360   32.2640   48.9430 C   0  0  0  0  0  0  0  0  0  0  0  0
   63.2720   33.4760   48.2670 C   0  0  0  0  0  0  0  0  0  0  0  0
   62.5120   33.7020   47.1180 C   0  0  0  0  0  0  0  0  0  0  0  0
   61.6530   32.7470   46.6700 N   0  0  0  0  0  0  0  0  0  0  0  0
   60.3880   29.2680   47.2440 C   0  0  0  0  0  0  0  0  0  0  0  0
   59.3810   28.7220   46.4740 C   0  0  0  0  0  0  0  0  0  0  0  0
   59.1016   26.8737   48.5458 H   0  0  0  0  0  0  0  0  0  0  0  0
   58.7521   25.5522   47.3804 H   0  0  0  0  0  0  0  0  0  0  0  0
   60.3630   26.3471   47.3804 H   0  0  0  0  0  0  0  0  0  0  0  0
   56.5660   27.9380   44.1230 H   0  0  0  0  0  0  0  0  0  0  0  0
   56.1515   31.8123   43.3784 H   0  0  0  0  0  0  0  0  0  0  0  0
   56.8092   31.6745   45.0629 H   0  0  0  0  0  0  0  0  0  0  0  0
   59.1020   32.2023   43.6940 H   0  0  0  0  0  0  0  0  0  0  0  0
   57.9021   33.0925   42.6782 H   0  0  0  0  0  0  0  0  0  0  0  0
   56.5907   34.3177   46.0703 H   0  0  0  0  0  0  0  0  0  0  0  0
   56.6139   32.5638   45.5747 H   0  0  0  0  0  0  0  0  0  0  0  0
   57.3410   32.8742   47.9200 H   0  0  0  0  0  0  0  0  0  0  0  0
   58.6446   32.1981   46.8628 H   0  0  0  0  0  0  0  0  0  0  0  0
   58.4268   34.9042   48.1763 H   0  0  0  0  0  0  0  0  0  0  0  0
   59.8507   33.7859   47.9783 H   0  0  0  0  0  0  0  0  0  0  0  0
   58.8129   35.9249   46.1572 H   0  0  0  0  0  0  0  0  0  0  0  0
   60.5010   35.3635   46.4843 H   0  0  0  0  0  0  0  0  0  0  0  0
   59.8407   34.8163   44.1796 H   0  0  0  0  0  0  0  0  0  0  0  0
   60.0620   33.3160   45.1724 H   0  0  0  0  0  0  0  0  0  0  0  0
   59.5040   31.7200   45.2670 H   0  0  0  0  0  0  0  0  0  0  0  0
   62.1405   30.3377   48.9985 H   0  0  0  0  0  0  0  0  0  0  0  0
   63.7264   32.0716   49.8509 H   0  0  0  0  0  0  0  0  0  0  0  0
   63.9689   34.2438   48.6342 H   0  0  0  0  0  0  0  0  0  0  0  0
   62.6079   34.6534   46.5743 H   0  0  0  0  0  0  0  0  0  0  0  0
   60.9505   28.7830   48.0554 H   0  0  0  0  0  0  0  0  0  0  0  0
  1  2  1  0
  2  3  1  0
  3  4  2  0
  3  5  1  0
  5  6  2  0
  6  7  1  0
  7  8  1  0
  8  9  1  0
  9 10  1  0
 10 11  1  0
 11 12  1  0
 12 13  1  0
 13 14  1  0
 14 15  1  0
  6 16  1  0
 16 17  1  0
 17 18  1  0
 18 19  1  0
 19 20  2  0
 20 21  1  0
 21 22  2  0
 22 23  1  0
 23 24  2  0
 18 25  2  0
 25 26  1  0
 26  2  1  0
 15 10  1  0
 26 16  2  0
 24 19  1  0
  1 27  1  0
  1 28  1  0
  1 29  1  0
  5 30  1  0
  8 31  1  0
  8 32  1  0
  9 33  1  0
  9 34  1  0
 11 35  1  0
 11 36  1  0
 12 37  1  0
 12 38  1  0
 13 39  1  0
 13 40  1  0
 14 41  1  0
 14 42  1  0
 15 43  1  0
 15 44  1  0
 17 45  1  0
 20 46  1  0
 21 47  1  0
 22 48  1  0
 23 49  1  0
 25 50  1  0
M  CHG  1   5   1
M  END
>  <UniqueID>  (60) 
56

>  <SMILES>  (60) 
Cn1c(=O)[nH+]c(OCCN2CCCCC2)c2[nH]c(-c3ccccn3)cc21

>  <Energy>  (60) 
103.07603920349504

>  <Genealogy>  (60) 
Cn1c(=O)[nH+]c(OCCN2CCCCC2)c2[nH]c(-c3ccccn3)cc21 (protonated)
Cn1c(=O)[nH+]c(OCCN2CCCCC2)c2[nH]c(-c3ccccn3)cc21 (3D coordinates assigned)
Cn1c(=O)[nH+]c(OCCN2CCCCC2)c2[nH]c(-c3ccccn3)cc21 (nonaromatic ring conformer: 103.07603920349504 kcal/mol)

>  <smiles>  (60) 
Cn1c(=O)nc(OCCN2CCCCC2)c2[nH]c(-c3ccccn3)cc21

>  <score_type>  (60) 
oracle

>  <origin>  (60) 
adg

>  <m_score__min__energy>  (60) 
-6.7800000000000002

>  <m_primary>  (60) 
energy

$$$$
60:0
     RDKit          3D

 32 34  0  0  0  0  0  0  0  0999 V2000
   61.0650   28.0260   49.4900 O   0  0  0  0  0  0  0  0  0  0  0  0
   60.1690   28.4710   48.7250 C   0  0  0  0  0  0  0  0  0  0  0  0
   60.0560   29.8450   48.5050 C   0  0  0  0  0  0  0  0  0  0  0  0
   59.0500   30.3070   47.6410 C   0  0  0  0  0  0  0  0  0  0  0  0
   58.8840   31.7510   47.3420 C   0  0  0  0  0  0  0  0  0  0  0  0
   59.8950   32.6600   47.7020 C   0  0  0  0  0  0  0  0  0  0  0  0
   59.7380   34.0160   47.4200 C   0  0  0  0  0  0  0  0  0  0  0  0
   58.5840   34.4620   46.7780 C   0  0  0  0  0  0  0  0  0  0  0  0
   57.6010   33.5380   46.4210 C   0  0  0  0  0  0  0  0  0  0  0  0
   57.7660   32.2160   46.7030 N   0  0  0  0  0  0  0  0  0  0  0  0
   58.2250   29.4030   47.0450 N   0  0  0  0  0  0  0  0  0  0  0  0
   58.3420   28.0690   47.2820 C   0  0  0  0  0  0  0  0  0  0  0  0
   57.4460   27.1000   46.5760 C   0  0  0  0  0  0  0  0  0  0  0  0
   57.5300   27.3020   45.1280 N   0  0  0  0  0  0  0  0  0  0  0  0
   58.2220   26.5190   44.2810 C   0  0  0  0  0  0  0  0  0  0  0  0
   58.1810   27.0870   43.0290 C   0  0  0  0  0  0  0  0  0  0  0  0
   57.4780   28.2360   43.0760 N   0  0  0  0  0  0  0  0  0  0  0  0
   57.0980   28.3400   44.3680 C   0  0  0  0  0  0  0  0  0  0  0  0
   56.3390   29.4610   44.8460 N   0  0  0  0  0  0  0  0  0  0  0  0
   55.1410   29.3460   45.1720 O   0  0  0  0  0  0  0  0  0  0  0  0
   56.9090   30.7120   44.8420 O   0  0  0  0  0  0  0  0  0  0  0  0
   59.3170   27.6130   48.1110 N   0  0  0  0  0  0  0  0  0  0  0  0
   60.7406   30.5508   48.9981 H   0  0  0  0  0  0  0  0  0  0  0  0
   60.8060   32.3023   48.2041 H   0  0  0  0  0  0  0  0  0  0  0  0
   60.5230   34.7325   47.7035 H   0  0  0  0  0  0  0  0  0  0  0  0
   58.4496   35.5308   46.5551 H   0  0  0  0  0  0  0  0  0  0  0  0
   56.6888   33.8791   45.9095 H   0  0  0  0  0  0  0  0  0  0  0  0
   57.0200   31.5560   46.3890 H   0  0  0  0  0  0  0  0  0  0  0  0
   57.7568   26.0732   46.8190 H   0  0  0  0  0  0  0  0  0  0  0  0
   56.4087   27.2637   46.9033 H   0  0  0  0  0  0  0  0  0  0  0  0
   58.7344   25.5822   44.5452 H   0  0  0  0  0  0  0  0  0  0  0  0
   58.6504   26.6675   42.1269 H   0  0  0  0  0  0  0  0  0  0  0  0
  1  2  2  0
  2  3  1  0
  3  4  2  0
  4  5  1  0
  5  6  2  0
  6  7  1  0
  7  8  2  0
  8  9  1  0
  9 10  2  0
  4 11  1  0
 11 12  2  0
 12 13  1  0
 13 14  1  0
 14 15  1  0
 15 16  2  0
 16 17  1  0
 17 18  2  0
 18 19  1  0
 19 20  2  0
 19 21  1  0
 12 22  1  0
 22  2  1  0
 10  5  1  0
 18 14  1  0
  3 23  1  0
  6 24  1  0
  7 25  1  0
  8 26  1  0
  9 27  1  0
 10 28  1  0
 13 29  1  0
 13 30  1  0
 15 31  1  0
 16 32  1  0
M  CHG  4  10   1  19   1  21  -1  22  -1
M  END
>  <UniqueID>  (61) 
57

>  <SMILES>  (61) 
O=c1cc(-c2cccc[nH+]2)nc(Cn2ccnc2[N+](=O)[O-])[n-]1

>  <Energy>  (61) 
68.62552860616758

>  <Genealogy>  (61) 
O=c1cc(-c2cccc[nH+]2)nc(Cn2ccnc2[N+](=O)[O-])[n-]1 (protonated)
O=c1cc(-c2cccc[nH+]2)nc(Cn2ccnc2[N+](=O)[O-])[n-]1 (3D coordinates assigned)
O=c1cc(-c2cccc[nH+]2)nc(Cn2ccnc2[N+](=O)[O-])[n-]1 (optimized conformer: 68.62552860616758 kcal/mol)

>  <smiles>  (61) 
O=c1cc(-c2ccccn2)nc(Cn2ccnc2[N+](=O)[O-])[nH]1

>  <score_type>  (61) 
oracle

>  <origin>  (61) 
adg

>  <m_score__min__energy>  (61) 
-8.1899999999999995

>  <m_primary>  (61) 
energy

$$$$
61:0
     RDKit          3D

 66 69  0  0  0  0  0  0  0  0999 V2000
   56.5660   22.2060   42.9970 C   0  0  0  0  0  0  0  0  0  0  0  0
   55.9380   22.8570   44.2240 C   0  0  0  0  0  0  0  0  0  0  0  0
   56.4320   24.2700   44.3920 C   0  0  0  0  0  0  0  0  0  0  0  0
   56.0880   25.0120   45.5330 C   0  0  0  0  0  0  0  0  0  0  0  0
   56.5730   26.3120   45.7020 C   0  0  0  0  0  0  0  0  0  0  0  0
   57.4190   26.8820   44.7390 C   0  0  0  0  0  0  0  0  0  0  0  0
   57.9190   28.2190   44.9110 N   0  0  0  0  0  0  0  0  0  0  0  0
   58.8860   28.6230   45.7600 C   0  0  0  0  0  0  0  0  0  0  0  0
   59.5480   27.8040   46.6740 O   0  0  0  0  0  0  0  0  0  0  0  0
   59.1010   29.9770   45.6030 C   0  0  0  0  0  0  0  0  0  0  0  0
   60.1040   30.7840   46.3940 C   0  0  0  0  0  0  0  0  0  0  0  0
   60.2290   30.3180   47.8170 C   0  0  0  0  0  0  0  0  0  0  0  0
   59.2080   30.0080   48.4910 O   0  0  0  0  0  0  0  0  0  0  0  0
   61.5340   30.2270   48.4030 N   0  0  0  0  0  0  0  0  0  0  0  0
   62.4820   31.3030   48.4500 C   0  0  0  0  0  0  0  0  0  0  0  0
   62.7010   32.0380   47.2770 C   0  0  0  0  0  0  0  0  0  0  0  0
   63.5820   33.1220   47.2720 C   0  0  0  0  0  0  0  0  0  0  0  0
   64.2630   33.4720   48.4370 C   0  0  0  0  0  0  0  0  0  0  0  0
   64.0900   32.7210   49.6030 C   0  0  0  0  0  0  0  0  0  0  0  0
   63.2270   31.6120   49.6170 C   0  0  0  0  0  0  0  0  0  0  0  0
   63.1430   30.7830   50.8710 C   0  0  0  0  0  0  0  0  0  0  0  0
   58.2570   30.4300   44.6390 N   0  0  0  0  0  0  0  0  0  0  0  0
   58.1320   31.7940   44.0980 C   0  0  0  0  0  0  0  0  0  0  0  0
   57.3590   32.7130   45.0530 C   0  0  0  0  0  0  0  0  0  0  0  0
   58.2120   33.1850   46.2000 C   0  0  0  0  0  0  0  0  0  0  0  0
   59.2550   34.0960   45.9770 C   0  0  0  0  0  0  0  0  0  0  0  0
   60.0400   34.5440   47.0420 C   0  0  0  0  0  0  0  0  0  0  0  0
   59.8080   34.0770   48.3420 C   0  0  0  0  0  0  0  0  0  0  0  0
   60.6400   34.5380   49.3720 O   0  0  0  0  0  0  0  0  0  0  0  0
   60.9410   33.7990   50.5510 C   0  0  0  0  0  0  0  0  0  0  0  0
   58.7610   33.1640   48.5670 C   0  0  0  0  0  0  0  0  0  0  0  0
   57.9750   32.7150   47.5010 C   0  0  0  0  0  0  0  0  0  0  0  0
   57.5540   29.3370   44.2410 C   0  0  0  0  0  0  0  0  0  0  0  0
   56.4650   29.3440   43.0070 S   0  0  0  0  0  0  0  0  0  0  0  0
   57.7740   26.1360   43.6060 C   0  0  0  0  0  0  0  0  0  0  0  0
   57.2880   24.8360   43.4350 C   0  0  0  0  0  0  0  0  0  0  0  0
   57.2966   21.4486   43.3173 H   0  0  0  0  0  0  0  0  0  0  0  0
   55.7809   21.7262   42.3942 H   0  0  0  0  0  0  0  0  0  0  0  0
   57.0737   22.9734   42.3942 H   0  0  0  0  0  0  0  0  0  0  0  0
   54.8444   22.8690   44.1059 H   0  0  0  0  0  0  0  0  0  0  0  0
   56.2207   22.2765   45.1146 H   0  0  0  0  0  0  0  0  0  0  0  0
   55.4336   24.5682   46.2977 H   0  0  0  0  0  0  0  0  0  0  0  0
   56.2901   26.8905   46.5938 H   0  0  0  0  0  0  0  0  0  0  0  0
   59.9180   28.1670   47.5430 H   0  0  0  0  0  0  0  0  0  0  0  0
   61.0870   30.6981   45.9078 H   0  0  0  0  0  0  0  0  0  0  0  0
   59.7506   31.8255   46.4149 H   0  0  0  0  0  0  0  0  0  0  0  0
   62.1746   31.7589   46.3523 H   0  0  0  0  0  0  0  0  0  0  0  0
   63.7384   33.6994   46.3489 H   0  0  0  0  0  0  0  0  0  0  0  0
   64.9377   34.3408   48.4386 H   0  0  0  0  0  0  0  0  0  0  0  0
   64.6339   33.0004   50.5174 H   0  0  0  0  0  0  0  0  0  0  0  0
   63.2096   31.4405   51.7503 H   0  0  0  0  0  0  0  0  0  0  0  0
   62.1854   30.2420   50.8894 H   0  0  0  0  0  0  0  0  0  0  0  0
   63.9726   30.0609   50.8894 H   0  0  0  0  0  0  0  0  0  0  0  0
   59.1385   32.2089   43.9403 H   0  0  0  0  0  0  0  0  0  0  0  0
   57.5765   31.7381   43.1502 H   0  0  0  0  0  0  0  0  0  0  0  0
   57.0034   33.5895   44.4914 H   0  0  0  0  0  0  0  0  0  0  0  0
   56.5190   32.1381   45.4701 H   0  0  0  0  0  0  0  0  0  0  0  0
   59.4558   34.4594   44.9584 H   0  0  0  0  0  0  0  0  0  0  0  0
   60.8465   35.2691   46.8583 H   0  0  0  0  0  0  0  0  0  0  0  0
   60.6945   34.4041   51.4359 H   0  0  0  0  0  0  0  0  0  0  0  0
   60.3487   32.8722   50.5640 H   0  0  0  0  0  0  0  0  0  0  0  0
   62.0123   33.5498   50.5640 H   0  0  0  0  0  0  0  0  0  0  0  0
   58.5599   32.8019   49.5860 H   0  0  0  0  0  0  0  0  0  0  0  0
   57.1676   31.9904   47.6830 H   0  0  0  0  0  0  0  0  0  0  0  0
   58.4384   26.5758   42.8476 H   0  0  0  0  0  0  0  0  0  0  0  0
   57.5778   24.2550   42.5471 H   0  0  0  0  0  0  0  0  0  0  0  0
  1  2  1  0
  2  3  1  0
  3  4  2  0
  4  5  1  0
  5  6  2  0
  6  7  1  0
  7  8  1  0
  8  9  1  0
  8 10  2  0
 10 11  1  0
 11 12  1  0
 12 13  2  0
 12 14  1  0
 14 15  1  0
 15 16  2  0
 16 17  1  0
 17 18  2  0
 18 19  1  0
 19 20  2  0
 20 21  1  0
 10 22  1  0
 22 23  1  0
 23 24  1  0
 24 25  1  0
 25 26  2  0
 26 27  1  0
 27 28  2  0
 28 29  1  0
 29 30  1  0
 28 31  1  0
 31 32  2  0
 22 33  1  0
 33 34  2  0
  6 35  1  0
 35 36  2  0
 36  3  1  0
 33  7  1  0
 20 15  1  0
 32 25  1  0
  1 37  1  0
  1 38  1  0
  1 39  1  0
  2 40  1  0
  2 41  1  0
  4 42  1  0
  5 43  1  0
  9 44  1  0
 11 45  1  0
 11 46  1  0
 16 47  1  0
 17 48  1  0
 18 49  1  0
 19 50  1  0
 21 51  1  0
 21 52  1  0
 21 53  1  0
 23 54  1  0
 23 55  1  0
 24 56  1  0
 24 57  1  0
 26 58  1  0
 27 59  1  0
 30 60  1  0
 30 61  1  0
 30 62  1  0
 31 63  1  0
 32 64  1  0
 35 65  1  0
 36 66  1  0
M  CHG  1  14  -1
M  END
>  <UniqueID>  (62) 
58

>  <SMILES>  (62) 
CCc1ccc(-n2c(O)c(CC(=O)[N-]c3ccccc3C)n(CCc3ccc(OC)cc3)c2=S)cc1

>  <Energy>  (62) 
104.75862567800542

>  <Genealogy>  (62) 
CCc1ccc(-n2c(O)c(CC(=O)[N-]c3ccccc3C)n(CCc3ccc(OC)cc3)c2=S)cc1 (protonated)
CCc1ccc(-n2c(O)c(CC(=O)[N-]c3ccccc3C)n(CCc3ccc(OC)cc3)c2=S)cc1 (3D coordinates assigned)
CCc1ccc(-n2c(O)c(CC(=O)[N-]c3ccccc3C)n(CCc3ccc(OC)cc3)c2=S)cc1 (optimized conformer: 104.75862567800542 kcal/mol)

>  <smiles>  (62) 
CCc1ccc(-n2c(O)c(CC(=O)Nc3ccccc3C)n(CCc3ccc(OC)cc3)c2=S)cc1

>  <score_type>  (62) 
oracle

>  <origin>  (62) 
adg

>  <m_score__min__energy>  (62) 
-10.300000000000001

>  <m_primary>  (62) 
energy

$$$$
62:0
     RDKit          3D

 58 61  0  0  0  0  0  0  0  0999 V2000
   56.6280   30.2040   43.8770 C   0  0  0  0  0  0  0  0  0  0  0  0
   57.6030   30.6640   44.8860 N   0  0  0  0  0  0  0  0  0  0  0  0
   57.3670   31.9570   45.4970 C   0  0  0  0  0  0  0  0  0  0  0  0
   56.3730   32.6590   45.1650 O   0  0  0  0  0  0  0  0  0  0  0  0
   58.2680   32.4620   46.5740 C   0  0  0  0  0  0  0  0  0  0  0  0
   59.6010   31.8900   46.4090 N   0  0  0  0  0  0  0  0  0  0  0  0
   60.7800   32.7610   46.3820 C   0  0  0  0  0  0  0  0  0  0  0  0
   60.3780   34.1840   46.6130 C   0  0  0  0  0  0  0  0  0  0  0  0
   60.0520   34.9080   45.6340 O   0  0  0  0  0  0  0  0  0  0  0  0
   60.3380   34.7070   47.9460 N   0  0  0  0  0  0  0  0  0  0  0  0
   60.4350   33.8780   49.1410 C   0  0  0  0  0  0  0  0  0  0  0  0
   61.7690   33.2060   49.1980 C   0  0  0  0  0  0  0  0  0  0  0  0
   62.0270   31.9460   49.7170 C   0  0  0  0  0  0  0  0  0  0  0  0
   63.3650   31.5580   49.5800 C   0  0  0  0  0  0  0  0  0  0  0  0
   64.1570   32.5050   48.9450 C   0  0  0  0  0  0  0  0  0  0  0  0
   63.1920   33.8260   48.5540 S   0  0  0  0  0  0  0  0  0  0  0  0
   59.7150   30.4810   46.1650 C   0  0  0  0  0  0  0  0  0  0  0  0
   60.7460   29.8710   46.5610 O   0  0  0  0  0  0  0  0  0  0  0  0
   58.5600   29.7090   45.5280 C   0  0  0  0  0  0  0  0  0  0  0  0
   59.1660   28.7200   44.4660 C   0  0  0  0  0  0  0  0  0  0  0  0
   58.4160   27.3820   44.3980 C   0  0  0  0  0  0  0  0  0  0  0  0
   58.4060   26.7390   45.7210 N   0  0  0  0  0  0  0  0  0  0  0  0
   58.5550   25.3110   45.8370 C   0  0  0  0  0  0  0  0  0  0  0  0
   59.2900   24.8400   46.7470 O   0  0  0  0  0  0  0  0  0  0  0  0
   57.8660   24.3820   44.9120 C   0  0  0  0  0  0  0  0  0  0  0  0
   56.7000   24.7890   44.2420 C   0  0  0  0  0  0  0  0  0  0  0  0
   56.0520   23.9200   43.3590 C   0  0  0  0  0  0  0  0  0  0  0  0
   56.5660   22.6370   43.1280 C   0  0  0  0  0  0  0  0  0  0  0  0
   55.9280   21.7620   42.2510 O   0  0  0  0  0  0  0  0  0  0  0  0
   57.7340   22.2320   43.7820 C   0  0  0  0  0  0  0  0  0  0  0  0
   58.3850   23.0990   44.6620 C   0  0  0  0  0  0  0  0  0  0  0  0
   58.4020   27.5580   46.9390 C   0  0  0  0  0  0  0  0  0  0  0  0
   57.8090   28.9440   46.6600 C   0  0  0  0  0  0  0  0  0  0  0  0
   55.7450   29.7874   44.3836 H   0  0  0  0  0  0  0  0  0  0  0  0
   56.3231   31.0532   43.2478 H   0  0  0  0  0  0  0  0  0  0  0  0
   57.0896   29.4287   43.2478 H   0  0  0  0  0  0  0  0  0  0  0  0
   58.3307   33.5586   46.5140 H   0  0  0  0  0  0  0  0  0  0  0  0
   57.8643   32.1681   47.5541 H   0  0  0  0  0  0  0  0  0  0  0  0
   61.4803   32.4488   47.1708 H   0  0  0  0  0  0  0  0  0  0  0  0
   61.2628   32.6803   45.3969 H   0  0  0  0  0  0  0  0  0  0  0  0
   60.3084   34.5098   50.0325 H   0  0  0  0  0  0  0  0  0  0  0  0
   59.6481   33.1101   49.1092 H   0  0  0  0  0  0  0  0  0  0  0  0
   61.2585   31.3157   50.1883 H   0  0  0  0  0  0  0  0  0  0  0  0
   63.7523   30.5939   49.9413 H   0  0  0  0  0  0  0  0  0  0  0  0
   65.2321   32.4080   48.7336 H   0  0  0  0  0  0  0  0  0  0  0  0
   59.1216   29.1978   43.4762 H   0  0  0  0  0  0  0  0  0  0  0  0
   60.2006   28.5030   44.7702 H   0  0  0  0  0  0  0  0  0  0  0  0
   57.3805   27.5617   44.0732 H   0  0  0  0  0  0  0  0  0  0  0  0
   58.9244   26.7209   43.6808 H   0  0  0  0  0  0  0  0  0  0  0  0
   56.2946   25.7972   44.4132 H   0  0  0  0  0  0  0  0  0  0  0  0
   55.1358   24.2445   42.8440 H   0  0  0  0  0  0  0  0  0  0  0  0
   56.0270   21.8550   41.2470 H   0  0  0  0  0  0  0  0  0  0  0  0
   58.1416   21.2262   43.6024 H   0  0  0  0  0  0  0  0  0  0  0  0
   59.3097   22.7764   45.1629 H   0  0  0  0  0  0  0  0  0  0  0  0
   57.7986   27.0558   47.7095 H   0  0  0  0  0  0  0  0  0  0  0  0
   59.4389   27.6808   47.2852 H   0  0  0  0  0  0  0  0  0  0  0  0
   56.7569   28.8222   46.3630 H   0  0  0  0  0  0  0  0  0  0  0  0
   57.9085   29.5370   47.5811 H   0  0  0  0  0  0  0  0  0  0  0  0
  1  2  1  0
  2  3  1  0
  3  4  2  0
  3  5  1  0
  5  6  1  0
  6  7  1  0
  7  8  1  0
  8  9  2  0
  8 10  1  0
 10 11  1  0
 11 12  1  0
 12 13  2  0
 13 14  1  0
 14 15  2  0
 15 16  1  0
  6 17  1  0
 17 18  2  0
 17 19  1  0
 19 20  1  0
 20 21  1  0
 21 22  1  0
 22 23  1  0
 23 24  2  0
 23 25  1  0
 25 26  2  0
 26 27  1  0
 27 28  2  0
 28 29  1  0
 28 30  1  0
 30 31  2  0
 22 32  1  0
 32 33  1  0
 19  2  1  0
 31 25  1  0
 16 12  1  0
 33 19  1  0
  1 34  1  0
  1 35  1  0
  1 36  1  0
  5 37  1  0
  5 38  1  0
  7 39  1  0
  7 40  1  0
 11 41  1  0
 11 42  1  0
 13 43  1  0
 14 44  1  0
 15 45  1  0
 20 46  1  0
 20 47  1  0
 21 48  1  0
 21 49  1  0
 26 50  1  0
 27 51  1  0
 29 52  1  0
 30 53  1  0
 31 54  1  0
 32 55  1  0
 32 56  1  0
 33 57  1  0
 33 58  1  0
M  CHG  1  10  -1
M  END
>  <UniqueID>  (63) 
59

>  <SMILES>  (63) 
CN1C(=O)CN(CC(=O)[N-]Cc2cccs2)C(=O)C12CCN(C(=O)c1ccc(O)cc1)CC2

>  <Energy>  (63) 
97.2655496396879

>  <Genealogy>  (63) 
CN1C(=O)CN(CC(=O)[N-]Cc2cccs2)C(=O)C12CCN(C(=O)c1ccc(O)cc1)CC2 (protonated)
CN1C(=O)CN(CC(=O)[N-]Cc2cccs2)C(=O)C12CCN(C(=O)c1ccc(O)cc1)CC2 (3D coordinates assigned)
CN1C(=O)CN(CC(=O)[N-]Cc2cccs2)C(=O)C12CCN(C(=O)c1ccc(O)cc1)CC2 (nonaromatic ring conformer: 97.2655496396879 kcal/mol)

>  <smiles>  (63) 
CN1C(=O)CN(CC(=O)NCc2cccs2)C(=O)C12CCN(C(=O)c1ccc(O)cc1)CC2

>  <score_type>  (63) 
oracle

>  <origin>  (63) 
adg

>  <m_score__min__energy>  (63) 
-8.9299999999999997

>  <m_primary>  (63) 
energy

$$$$
63:0
     RDKit          3D

 30 31  0  0  0  0  0  0  0  0999 V2000
   57.4630   27.9050   44.1310 O   0  0  0  0  0  0  0  0  0  0  0  0
   57.6670   28.4080   45.2680 C   0  0  0  0  0  0  0  0  0  0  0  0
   58.4490   27.6450   46.2910 C   0  0  0  0  0  0  0  0  0  0  0  0
   57.5800   26.5930   46.9910 C   0  0  0  0  0  0  0  0  0  0  0  0
   57.1310   25.5550   46.0440 N   0  0  0  0  0  0  0  0  0  0  0  0
   58.0290   24.6130   45.6240 C   0  0  0  0  0  0  0  0  0  0  0  0
   57.6340   23.5940   44.7590 C   0  0  0  0  0  0  0  0  0  0  0  0
   56.3090   23.5580   44.3360 C   0  0  0  0  0  0  0  0  0  0  0  0
   55.9160   22.6520   43.5560 O   0  0  0  0  0  0  0  0  0  0  0  0
   55.4370   24.5020   44.7680 N   0  0  0  0  0  0  0  0  0  0  0  0
   55.8290   25.4910   45.6130 C   0  0  0  0  0  0  0  0  0  0  0  0
   54.9790   26.3400   45.9960 O   0  0  0  0  0  0  0  0  0  0  0  0
   57.0720   29.6600   45.6290 N   0  0  0  0  0  0  0  0  0  0  0  0
   57.5330   30.9360   45.1730 C   0  0  0  0  0  0  0  0  0  0  0  0
   58.2190   31.7600   46.0730 C   0  0  0  0  0  0  0  0  0  0  0  0
   58.6840   33.0160   45.6710 C   0  0  0  0  0  0  0  0  0  0  0  0
   59.5240   34.0480   46.8140 Cl  0  0  0  0  0  0  0  0  0  0  0  0
   58.4810   33.4470   44.3570 C   0  0  0  0  0  0  0  0  0  0  0  0
   57.8250   32.6190   43.4420 C   0  0  0  0  0  0  0  0  0  0  0  0
   57.3550   31.3600   43.8380 C   0  0  0  0  0  0  0  0  0  0  0  0
   56.6370   30.3140   42.6190 Cl  0  0  0  0  0  0  0  0  0  0  0  0
   59.2910   27.1405   45.7944 H   0  0  0  0  0  0  0  0  0  0  0  0
   58.8109   28.3547   47.0495 H   0  0  0  0  0  0  0  0  0  0  0  0
   58.1664   26.1186   47.7917 H   0  0  0  0  0  0  0  0  0  0  0  0
   56.6924   27.0941   47.4046 H   0  0  0  0  0  0  0  0  0  0  0  0
   59.0716   24.6599   45.9717 H   0  0  0  0  0  0  0  0  0  0  0  0
   58.3538   22.8351   44.4183 H   0  0  0  0  0  0  0  0  0  0  0  0
   58.3935   31.4171   47.1035 H   0  0  0  0  0  0  0  0  0  0  0  0
   58.8379   34.4389   44.0427 H   0  0  0  0  0  0  0  0  0  0  0  0
   57.6770   32.9574   42.4059 H   0  0  0  0  0  0  0  0  0  0  0  0
  1  2  2  0
  2  3  1  0
  3  4  1  0
  4  5  1  0
  5  6  1  0
  6  7  2  0
  7  8  1  0
  8  9  2  0
  8 10  1  0
 10 11  1  0
 11 12  2  0
  2 13  1  0
 13 14  1  0
 14 15  2  0
 15 16  1  0
 16 17  1  0
 16 18  2  0
 18 19  1  0
 19 20  2  0
 20 21  1  0
 11  5  1  0
 20 14  1  0
  3 22  1  0
  3 23  1  0
  4 24  1  0
  4 25  1  0
  6 26  1  0
  7 27  1  0
 15 28  1  0
 18 29  1  0
 19 30  1  0
M  CHG  2  10  -1  13  -1
M  END
>  <UniqueID>  (64) 
60

>  <SMILES>  (64) 
O=C(CCn1ccc(=O)[n-]c1=O)[N-]c1cc(Cl)ccc1Cl

>  <Energy>  (64) 
35.69240826319343

>  <Genealogy>  (64) 
O=C(CCn1ccc(=O)[n-]c1=O)[N-]c1cc(Cl)ccc1Cl (protonated)
O=C(CCn1ccc(=O)[n-]c1=O)[N-]c1cc(Cl)ccc1Cl (3D coordinates assigned)
O=C(CCn1ccc(=O)[n-]c1=O)[N-]c1cc(Cl)ccc1Cl (optimized conformer: 35.69240826319343 kcal/mol)

>  <smiles>  (64) 
O=C(CCn1ccc(=O)[nH]c1=O)Nc1cc(Cl)ccc1Cl

>  <score_type>  (64) 
oracle

>  <origin>  (64) 
adg

>  <m_score__min__energy>  (64) 
-11.32

>  <m_primary>  (64) 
energy

$$$$
64:0
     RDKit          3D

 43 45  0  0  0  0  0  0  0  0999 V2000
   63.9270   32.5413   46.1834 H   0  0  0  0  0  0  0  0  0  0  0  0
   63.3410   33.0060   46.9900 C   0  0  0  0  0  0  0  0  0  0  0  0
   63.8720   33.0860   48.2800 C   0  0  0  0  0  0  0  0  0  0  0  0
   64.8729   32.6802   48.4888 H   0  0  0  0  0  0  0  0  0  0  0  0
   63.1310   33.6820   49.3060 C   0  0  0  0  0  0  0  0  0  0  0  0
   63.6930   33.7730   50.6300 C   0  0  0  0  0  0  0  0  0  0  0  0
   64.1320   33.8500   51.6970 N   0  0  0  0  0  0  0  0  0  0  0  0
   61.8530   34.1950   49.0400 C   0  0  0  0  0  0  0  0  0  0  0  0
   61.2766   34.6739   49.8452 H   0  0  0  0  0  0  0  0  0  0  0  0
   61.3070   34.1000   47.7520 C   0  0  0  0  0  0  0  0  0  0  0  0
   60.0000   34.6430   47.5000 N   0  0  0  0  0  0  0  0  0  0  0  0
   59.4640   34.9300   46.2000 C   0  0  0  0  0  0  0  0  0  0  0  0
   59.6540   36.0680   45.6980 O   0  0  0  0  0  0  0  0  0  0  0  0
   58.6890   33.9180   45.4510 C   0  0  0  0  0  0  0  0  0  0  0  0
   57.7730   33.0870   46.1200 C   0  0  0  0  0  0  0  0  0  0  0  0
   57.5920   33.2256   47.1961 H   0  0  0  0  0  0  0  0  0  0  0  0
   57.0920   32.0860   45.4230 C   0  0  0  0  0  0  0  0  0  0  0  0
   56.3687   31.4478   45.9517 H   0  0  0  0  0  0  0  0  0  0  0  0
   57.3240   31.8890   44.0540 C   0  0  0  0  0  0  0  0  0  0  0  0
   56.6740   30.7340   43.3410 C   0  0  0  0  0  0  0  0  0  0  0  0
   57.3833   30.3017   42.6198 H   0  0  0  0  0  0  0  0  0  0  0  0
   55.7798   31.0879   42.8070 H   0  0  0  0  0  0  0  0  0  0  0  0
   56.2810   29.6940   44.3380 C   0  0  0  0  0  0  0  0  0  0  0  0
   55.0680   29.3850   44.4810 O   0  0  0  0  0  0  0  0  0  0  0  0
   57.2870   29.0360   45.1120 N   0  0  0  0  0  0  0  0  0  0  0  0
   57.2070   27.8320   45.6060 C   0  0  0  0  0  0  0  0  0  0  0  0
   58.3750   27.2290   46.0850 C   0  0  0  0  0  0  0  0  0  0  0  0
   59.3303   27.7736   46.0545 H   0  0  0  0  0  0  0  0  0  0  0  0
   58.3230   25.9330   46.6020 C   0  0  0  0  0  0  0  0  0  0  0  0
   59.2354   25.4581   46.9919 H   0  0  0  0  0  0  0  0  0  0  0  0
   57.1100   25.2410   46.6230 C   0  0  0  0  0  0  0  0  0  0  0  0
   57.0350   23.9120   47.1810 C   0  0  0  0  0  0  0  0  0  0  0  0
   56.9790   22.8430   47.6300 N   0  0  0  0  0  0  0  0  0  0  0  0
   55.9600   25.8660   46.1260 C   0  0  0  0  0  0  0  0  0  0  0  0
   54.9985   25.3318   46.1371 H   0  0  0  0  0  0  0  0  0  0  0  0
   56.0260   27.1320   45.6290 N   0  0  0  0  0  0  0  0  0  0  0  0
   55.1440   27.5420   45.2520 H   0  0  0  0  0  0  0  0  0  0  0  0
   58.2240   32.7300   43.3810 C   0  0  0  0  0  0  0  0  0  0  0  0
   58.4047   32.5884   42.3052 H   0  0  0  0  0  0  0  0  0  0  0  0
   58.8930   33.7480   44.0710 C   0  0  0  0  0  0  0  0  0  0  0  0
   59.5801   34.4165   43.5316 H   0  0  0  0  0  0  0  0  0  0  0  0
   62.0670   33.5150   46.7220 C   0  0  0  0  0  0  0  0  0  0  0  0
   61.6572   33.4581   45.7028 H   0  0  0  0  0  0  0  0  0  0  0  0
  1  2  1  0
  2  3  2  0
  3  4  1  0
  3  5  1  0
  5  6  1  0
  6  7  3  0
  5  8  2  0
  8  9  1  0
  8 10  1  0
 10 11  1  0
 11 12  1  0
 12 13  2  0
 12 14  1  0
 14 15  2  0
 15 16  1  0
 15 17  1  0
 17 18  1  0
 17 19  2  0
 19 20  1  0
 20 21  1  0
 20 22  1  0
 20 23  1  0
 23 24  2  0
 23 25  1  0
 25 26  2  0
 26 27  1  0
 27 28  1  0
 27 29  2  0
 29 30  1  0
 29 31  1  0
 31 32  1  0
 32 33  3  0
 31 34  2  0
 34 35  1  0
 34 36  1  0
 36 37  1  0
 19 38  1  0
 38 39  1  0
 38 40  2  0
 40 41  1  0
 10 42  2  0
 42 43  1  0
 42  2  1  0
 40 14  1  0
 36 26  1  0
M  CHG  1  11  -1
M  END
>  <UniqueID>  (65) 
61

>  <SMILES>  (65) 
N#Cc1cc/c(=N/C(=O)Cc2ccc(C(=O)[N-]c3cccc(C#N)c3)cc2)[nH]c1

>  <Energy>  (65) 
56.20477731182807

>  <Genealogy>  (65) 
N#Cc1ccc(=NC(=O)Cc2ccc(C(=O)[N-]c3cccc(C#N)c3)cc2)[nH]c1 (protonated)
N#Cc1cc/c(=N/C(=O)Cc2ccc(C(=O)[N-]c3cccc(C#N)c3)cc2)[nH]c1 (cis-trans isomerization)
N#Cc1cc/c(=N/C(=O)Cc2ccc(C(=O)[N-]c3cccc(C#N)c3)cc2)[nH]c1 (3D coordinates assigned)
N#Cc1cc/c(=N/C(=O)Cc2ccc(C(=O)[N-]c3cccc(C#N)c3)cc2)[nH]c1 (optimized conformer: 56.20477731182807 kcal/mol)

>  <smiles>  (65) 
N#Cc1ccc(=NC(=O)Cc2ccc(C(=O)Nc3cccc(C#N)c3)cc2)[nH]c1

>  <score_type>  (65) 
oracle

>  <origin>  (65) 
adg

>  <m_score__min__energy>  (65) 
-10.390000000000001

>  <m_primary>  (65) 
energy

$$$$
65:0
     RDKit          3D

 61 65  0  0  0  0  0  0  0  0999 V2000
   57.2690   29.3220   53.3740 C   0  0  0  0  0  0  0  0  0  0  0  0
   57.1670   30.2880   52.2290 C   0  0  0  0  0  0  0  0  0  0  0  0
   56.0480   30.4120   51.6580 O   0  0  0  0  0  0  0  0  0  0  0  0
   58.3010   31.0720   51.7840 N   0  0  0  0  0  0  0  0  0  0  0  0
   58.1620   31.9220   50.5880 C   0  0  0  0  0  0  0  0  0  0  0  0
   59.0330   33.1760   50.7020 C   0  0  0  0  0  0  0  0  0  0  0  0
   60.3870   32.8110   51.1290 N   0  0  0  0  0  0  0  0  0  0  0  0
   61.5260   33.5210   50.6130 C   0  0  0  0  0  0  0  0  0  0  0  0
   62.3360   34.0620   51.4190 O   0  0  0  0  0  0  0  0  0  0  0  0
   61.7920   33.5890   49.1560 C   0  0  0  0  0  0  0  0  0  0  0  0
   62.9850   33.0690   48.6260 C   0  0  0  0  0  0  0  0  0  0  0  0
   63.2270   33.1160   47.2500 C   0  0  0  0  0  0  0  0  0  0  0  0
   62.2770   33.6700   46.3890 C   0  0  0  0  0  0  0  0  0  0  0  0
   61.0760   34.1840   46.8990 C   0  0  0  0  0  0  0  0  0  0  0  0
   60.0710   34.8160   45.9750 C   0  0  0  0  0  0  0  0  0  0  0  0
   58.8610   33.9440   45.8440 C   0  0  0  0  0  0  0  0  0  0  0  0
   57.7350   33.9700   46.6630 C   0  0  0  0  0  0  0  0  0  0  0  0
   56.7490   33.1020   46.3040 N   0  0  0  0  0  0  0  0  0  0  0  0
   57.0880   32.3740   45.2180 C   0  0  0  0  0  0  0  0  0  0  0  0
   56.2680   31.5170   44.6840 N   0  0  0  0  0  0  0  0  0  0  0  0
   56.4900   30.1140   44.4680 C   0  0  0  0  0  0  0  0  0  0  0  0
   55.6390   29.2960   44.9060 O   0  0  0  0  0  0  0  0  0  0  0  0
   57.7290   29.5980   43.7850 C   0  0  0  0  0  0  0  0  0  0  0  0
   58.2880   28.4540   44.5110 N   0  0  0  0  0  0  0  0  0  0  0  0
   58.2830   27.1510   44.1320 C   0  0  0  0  0  0  0  0  0  0  0  0
   57.7450   26.7430   43.0680 O   0  0  0  0  0  0  0  0  0  0  0  0
   58.9130   26.3180   44.9980 N   0  0  0  0  0  0  0  0  0  0  0  0
   59.3350   27.1630   45.9600 C   0  0  0  0  0  0  0  0  0  0  0  0
   60.0500   26.8450   47.1120 C   0  0  0  0  0  0  0  0  0  0  0  0
   60.3930   27.8960   47.9820 C   0  0  0  0  0  0  0  0  0  0  0  0
   60.0260   29.2280   47.6790 C   0  0  0  0  0  0  0  0  0  0  0  0
   60.4640   30.5260   48.7740 Cl  0  0  0  0  0  0  0  0  0  0  0  0
   59.3060   29.5170   46.5040 C   0  0  0  0  0  0  0  0  0  0  0  0
   58.9710   28.4480   45.6700 C   0  0  0  0  0  0  0  0  0  0  0  0
   58.6190   32.7970   44.6380 S   0  0  0  0  0  0  0  0  0  0  0  0
   60.8380   34.1380   48.2810 C   0  0  0  0  0  0  0  0  0  0  0  0
   60.5130   32.0150   52.3490 C   0  0  0  0  0  0  0  0  0  0  0  0
   59.6670   30.7470   52.2300 C   0  0  0  0  0  0  0  0  0  0  0  0
   57.2109   29.8726   54.3245 H   0  0  0  0  0  0  0  0  0  0  0  0
   56.4423   28.5986   53.3181 H   0  0  0  0  0  0  0  0  0  0  0  0
   58.2286   28.7872   53.3181 H   0  0  0  0  0  0  0  0  0  0  0  0
   58.4709   31.3488   49.7014 H   0  0  0  0  0  0  0  0  0  0  0  0
   57.1105   32.2325   50.4989 H   0  0  0  0  0  0  0  0  0  0  0  0
   59.0823   33.6751   49.7230 H   0  0  0  0  0  0  0  0  0  0  0  0
   58.5913   33.8551   51.4462 H   0  0  0  0  0  0  0  0  0  0  0  0
   63.7328   32.6224   49.2978 H   0  0  0  0  0  0  0  0  0  0  0  0
   64.1679   32.7157   46.8444 H   0  0  0  0  0  0  0  0  0  0  0  0
   62.4716   33.7033   45.3069 H   0  0  0  0  0  0  0  0  0  0  0  0
   59.7709   35.7937   46.3801 H   0  0  0  0  0  0  0  0  0  0  0  0
   60.5288   34.9421   44.9828 H   0  0  0  0  0  0  0  0  0  0  0  0
   57.6488   34.6392   47.5318 H   0  0  0  0  0  0  0  0  0  0  0  0
   57.4726   29.2851   42.7621 H   0  0  0  0  0  0  0  0  0  0  0  0
   58.4796   30.4019   43.7639 H   0  0  0  0  0  0  0  0  0  0  0  0
   60.3370   25.8066   47.3343 H   0  0  0  0  0  0  0  0  0  0  0  0
   60.9510   27.6802   48.9051 H   0  0  0  0  0  0  0  0  0  0  0  0
   59.0176   30.5481   46.2519 H   0  0  0  0  0  0  0  0  0  0  0  0
   59.8950   34.5357   48.6843 H   0  0  0  0  0  0  0  0  0  0  0  0
   61.5672   31.7380   52.4970 H   0  0  0  0  0  0  0  0  0  0  0  0
   60.1613   32.6070   53.2068 H   0  0  0  0  0  0  0  0  0  0  0  0
   60.1334   30.0690   51.5001 H   0  0  0  0  0  0  0  0  0  0  0  0
   59.6113   30.2652   53.2173 H   0  0  0  0  0  0  0  0  0  0  0  0
  1  2  1  0
  2  3  2  0
  2  4  1  0
  4  5  1  0
  5  6  1  0
  6  7  1  0
  7  8  1  0
  8  9  2  0
  8 10  1  0
 10 11  2  0
 11 12  1  0
 12 13  2  0
 13 14  1  0
 14 15  1  0
 15 16  1  0
 16 17  2  0
 17 18  1  0
 18 19  1  0
 19 20  2  3
 20 21  1  0
 21 22  2  0
 21 23  1  0
 23 24  1  0
 24 25  1  0
 25 26  2  0
 25 27  1  0
 27 28  1  0
 28 29  2  0
 29 30  1  0
 30 31  2  0
 31 32  1  0
 31 33  1  0
 33 34  2  0
 19 35  1  0
 14 36  2  0
  7 37  1  0
 37 38  1  0
 38  4  1  0
 36 10  1  0
 35 16  1  0
 34 24  1  0
 34 28  1  0
  1 39  1  0
  1 40  1  0
  1 41  1  0
  5 42  1  0
  5 43  1  0
  6 44  1  0
  6 45  1  0
 11 46  1  0
 12 47  1  0
 13 48  1  0
 15 49  1  0
 15 50  1  0
 17 51  1  0
 23 52  1  0
 23 53  1  0
 29 54  1  0
 30 55  1  0
 33 56  1  0
 36 57  1  0
 37 58  1  0
 37 59  1  0
 38 60  1  0
 38 61  1  0
M  CHG  2  18  -1  27  -1
M  END
>  <UniqueID>  (66) 
62

>  <SMILES>  (66) 
CC(=O)N1CCN(C(=O)c2cccc(Cc3c[n-]c(=NC(=O)Cn4c(=O)[n-]c5ccc(Cl)cc54)s3)c2)CC1

>  <Energy>  (66) 
142.22013778299274

>  <Genealogy>  (66) 
CC(=O)N1CCN(C(=O)c2cccc(Cc3c[n-]c(=NC(=O)Cn4c(=O)[n-]c5ccc(Cl)cc54)s3)c2)CC1 (protonated)
CC(=O)N1CCN(C(=O)c2cccc(Cc3c[n-]c(=NC(=O)Cn4c(=O)[n-]c5ccc(Cl)cc54)s3)c2)CC1 (3D coordinates assigned)
CC(=O)N1CCN(C(=O)c2cccc(Cc3c[n-]c(=NC(=O)Cn4c(=O)[n-]c5ccc(Cl)cc54)s3)c2)CC1 (nonaromatic ring conformer: 142.22013778299274 kcal/mol)

>  <smiles>  (66) 
CC(=O)N1CCN(C(=O)c2cccc(Cc3c[nH]c(=NC(=O)Cn4c(=O)[nH]c5ccc(Cl)cc54)s3)c2)CC1

>  <score_type>  (66) 
oracle

>  <origin>  (66) 
adg

>  <m_score__min__energy>  (66) 
-14.48

>  <m_primary>  (66) 
energy

$$$$
66:0
     RDKit          3D

 25 26  0  0  0  0  0  0  0  0999 V2000
   56.3480   29.3420   42.7420 C   0  0  0  0  0  0  0  0  0  0  0  0
   57.0690   30.2900   43.6650 C   0  0  0  0  0  0  0  0  0  0  0  0
   57.3880   31.5770   43.2000 C   0  0  0  0  0  0  0  0  0  0  0  0
   58.0420   32.4900   44.0290 C   0  0  0  0  0  0  0  0  0  0  0  0
   58.3910   32.1280   45.3300 C   0  0  0  0  0  0  0  0  0  0  0  0
   58.0980   30.8470   45.8030 C   0  0  0  0  0  0  0  0  0  0  0  0
   57.4440   29.9140   44.9800 C   0  0  0  0  0  0  0  0  0  0  0  0
   57.1810   28.5570   45.5080 C   0  0  0  0  0  0  0  0  0  0  0  0
   56.0170   27.9010   45.3680 N   0  0  0  0  0  0  0  0  0  0  0  0
   56.2270   26.7060   45.9500 C   0  0  0  0  0  0  0  0  0  0  0  0
   55.3490   25.8050   46.0070 O   0  0  0  0  0  0  0  0  0  0  0  0
   57.4660   26.5550   46.4600 N   0  0  0  0  0  0  0  0  0  0  0  0
   58.0650   27.7320   46.1840 C   0  0  0  0  0  0  0  0  0  0  0  0
   59.4840   28.0380   46.5430 C   0  0  0  0  0  0  0  0  0  0  0  0
   55.7880   28.6057   43.3371 H   0  0  0  0  0  0  0  0  0  0  0  0
   55.6500   29.9078   42.1075 H   0  0  0  0  0  0  0  0  0  0  0  0
   57.0797   28.8204   42.1075 H   0  0  0  0  0  0  0  0  0  0  0  0
   57.1200   31.8677   42.1735 H   0  0  0  0  0  0  0  0  0  0  0  0
   58.2825   33.4964   43.6557 H   0  0  0  0  0  0  0  0  0  0  0  0
   58.8977   32.8525   45.9844 H   0  0  0  0  0  0  0  0  0  0  0  0
   58.3814   30.5659   46.8280 H   0  0  0  0  0  0  0  0  0  0  0  0
   55.1500   28.2270   44.8840 H   0  0  0  0  0  0  0  0  0  0  0  0
   59.5886   28.0605   47.6378 H   0  0  0  0  0  0  0  0  0  0  0  0
   60.1430   27.2613   46.1276 H   0  0  0  0  0  0  0  0  0  0  0  0
   59.7643   29.0172   46.1276 H   0  0  0  0  0  0  0  0  0  0  0  0
  1  2  1  0
  2  3  2  0
  3  4  1  0
  4  5  2  0
  5  6  1  0
  6  7  2  0
  7  8  1  0
  8  9  1  0
  9 10  1  0
 10 11  2  0
 10 12  1  0
 12 13  1  0
 13 14  1  0
  7  2  1  0
 13  8  2  0
  1 15  1  0
  1 16  1  0
  1 17  1  0
  3 18  1  0
  4 19  1  0
  5 20  1  0
  6 21  1  0
  9 22  1  0
 14 23  1  0
 14 24  1  0
 14 25  1  0
M  CHG  1  12  -1
M  END
>  <UniqueID>  (67) 
63

>  <SMILES>  (67) 
Cc1ccccc1-c1[nH]c(=O)[n-]c1C

>  <Energy>  (67) 
60.05904016283511

>  <Genealogy>  (67) 
Cc1ccccc1-c1[nH]c(=O)[n-]c1C (protonated)
Cc1ccccc1-c1[nH]c(=O)[n-]c1C (3D coordinates assigned)
Cc1ccccc1-c1[nH]c(=O)[n-]c1C (optimized conformer: 60.05904016283511 kcal/mol)

>  <smiles>  (67) 
Cc1ccccc1-c1[nH]c(=O)[nH]c1C

>  <score_type>  (67) 
oracle

>  <origin>  (67) 
adg

>  <m_score__min__energy>  (67) 
-8.1799999999999997

>  <m_primary>  (67) 
energy

$$$$
67:0
     RDKit          3D

 52 54  0  0  0  0  0  0  0  0999 V2000
   65.2730   31.9590   50.4620 C   0  0  0  0  0  0  0  0  0  0  0  0
   64.9110   32.9210   49.3370 C   0  0  0  0  0  0  0  0  0  0  0  0
   63.4340   33.1570   49.2990 C   0  0  0  0  0  0  0  0  0  0  0  0
   62.5480   32.9260   50.3460 C   0  0  0  0  0  0  0  0  0  0  0  0
   61.2260   33.2970   50.0500 C   0  0  0  0  0  0  0  0  0  0  0  0
   60.1220   33.1510   51.0170 C   0  0  0  0  0  0  0  0  0  0  0  0
   60.0840   33.9240   52.0130 O   0  0  0  0  0  0  0  0  0  0  0  0
   59.1160   32.1290   50.8710 N   0  0  0  0  0  0  0  0  0  0  0  0
   59.4190   30.8310   50.2600 C   0  0  0  0  0  0  0  0  0  0  0  0
   58.7730   29.7150   51.0870 C   0  0  0  0  0  0  0  0  0  0  0  0
   57.3930   29.9640   51.2760 O   0  0  0  0  0  0  0  0  0  0  0  0
   57.2160   31.1360   52.0510 C   0  0  0  0  0  0  0  0  0  0  0  0
   57.7350   32.3680   51.3040 C   0  0  0  0  0  0  0  0  0  0  0  0
   61.0920   33.8380   48.7730 C   0  0  0  0  0  0  0  0  0  0  0  0
   59.9060   34.4670   48.2730 N   0  0  0  0  0  0  0  0  0  0  0  0
   59.3860   34.3180   46.9480 C   0  0  0  0  0  0  0  0  0  0  0  0
   59.2820   35.3400   46.2200 O   0  0  0  0  0  0  0  0  0  0  0  0
   58.9000   33.0150   46.4490 C   0  0  0  0  0  0  0  0  0  0  0  0
   59.2310   31.8360   47.0130 N   0  0  0  0  0  0  0  0  0  0  0  0
   58.5610   30.8720   46.3520 C   0  0  0  0  0  0  0  0  0  0  0  0
   58.6180   29.4290   46.7460 C   0  0  0  0  0  0  0  0  0  0  0  0
   57.7850   31.4330   45.3420 C   0  0  0  0  0  0  0  0  0  0  0  0
   56.8550   30.7380   44.4210 C   0  0  0  0  0  0  0  0  0  0  0  0
   56.9840   30.8550   42.9360 C   0  0  0  0  0  0  0  0  0  0  0  0
   55.9430   30.0090   44.8950 O   0  0  0  0  0  0  0  0  0  0  0  0
   58.0080   32.8060   45.4050 C   0  0  0  0  0  0  0  0  0  0  0  0
   57.3930   33.8580   44.5300 C   0  0  0  0  0  0  0  0  0  0  0  0
   62.6010   33.8700   48.0220 S   0  0  0  0  0  0  0  0  0  0  0  0
   65.0905   32.4441   51.4322 H   0  0  0  0  0  0  0  0  0  0  0  0
   64.6543   31.0529   50.3829 H   0  0  0  0  0  0  0  0  0  0  0  0
   66.3355   31.6855   50.3829 H   0  0  0  0  0  0  0  0  0  0  0  0
   65.4258   33.8791   49.5013 H   0  0  0  0  0  0  0  0  0  0  0  0
   65.2238   32.4795   48.3793 H   0  0  0  0  0  0  0  0  0  0  0  0
   62.8527   32.4951   51.3111 H   0  0  0  0  0  0  0  0  0  0  0  0
   59.0201   30.8059   49.2352 H   0  0  0  0  0  0  0  0  0  0  0  0
   60.5087   30.6837   50.2326 H   0  0  0  0  0  0  0  0  0  0  0  0
   58.8978   28.7574   50.5603 H   0  0  0  0  0  0  0  0  0  0  0  0
   59.2625   29.6772   52.0714 H   0  0  0  0  0  0  0  0  0  0  0  0
   56.1450   31.2686   52.2641 H   0  0  0  0  0  0  0  0  0  0  0  0
   57.7832   31.0275   52.9872 H   0  0  0  0  0  0  0  0  0  0  0  0
   57.1022   32.5575   50.4245 H   0  0  0  0  0  0  0  0  0  0  0  0
   57.7051   33.2420   51.9712 H   0  0  0  0  0  0  0  0  0  0  0  0
   59.8500   31.6950   47.8430 H   0  0  0  0  0  0  0  0  0  0  0  0
   58.6212   29.3483   47.8430 H   0  0  0  0  0  0  0  0  0  0  0  0
   57.7399   28.9037   46.3422 H   0  0  0  0  0  0  0  0  0  0  0  0
   59.5348   28.9746   46.3422 H   0  0  0  0  0  0  0  0  0  0  0  0
   57.7786   31.5757   42.6926 H   0  0  0  0  0  0  0  0  0  0  0  0
   57.2375   29.8724   42.5114 H   0  0  0  0  0  0  0  0  0  0  0  0
   56.0308   31.2030   42.5114 H   0  0  0  0  0  0  0  0  0  0  0  0
   56.9374   34.6373   45.1586 H   0  0  0  0  0  0  0  0  0  0  0  0
   58.1707   34.3073   43.8949 H   0  0  0  0  0  0  0  0  0  0  0  0
   56.6200   33.4007   43.8949 H   0  0  0  0  0  0  0  0  0  0  0  0
  1  2  1  0
  2  3  1  0
  3  4  2  0
  4  5  1  0
  5  6  1  0
  6  7  2  0
  6  8  1  0
  8  9  1  0
  9 10  1  0
 10 11  1  0
 11 12  1  0
 12 13  1  0
  5 14  2  0
 14 15  1  0
 15 16  1  0
 16 17  2  0
 16 18  1  0
 18 19  1  0
 19 20  1  0
 20 21  1  0
 20 22  2  0
 22 23  1  0
 23 24  1  0
 23 25  2  0
 22 26  1  0
 26 27  1  0
 14 28  1  0
 28  3  1  0
 13  8  1  0
 26 18  2  0
  1 29  1  0
  1 30  1  0
  1 31  1  0
  2 32  1  0
  2 33  1  0
  4 34  1  0
  9 35  1  0
  9 36  1  0
 10 37  1  0
 10 38  1  0
 12 39  1  0
 12 40  1  0
 13 41  1  0
 13 42  1  0
 19 43  1  0
 21 44  1  0
 21 45  1  0
 21 46  1  0
 24 47  1  0
 24 48  1  0
 24 49  1  0
 27 50  1  0
 27 51  1  0
 27 52  1  0
M  CHG  1  15  -1
M  END
>  <UniqueID>  (68) 
64

>  <SMILES>  (68) 
CCc1cc(C(=O)N2CCOCC2)c([N-]C(=O)c2[nH]c(C)c(C(C)=O)c2C)s1

>  <Energy>  (68) 
111.81199895541889

>  <Genealogy>  (68) 
CCc1cc(C(=O)N2CCOCC2)c([N-]C(=O)c2[nH]c(C)c(C(C)=O)c2C)s1 (protonated)
CCc1cc(C(=O)N2CCOCC2)c([N-]C(=O)c2[nH]c(C)c(C(C)=O)c2C)s1 (3D coordinates assigned)
CCc1cc(C(=O)N2CCOCC2)c([N-]C(=O)c2[nH]c(C)c(C(C)=O)c2C)s1 (nonaromatic ring conformer: 111.81199895541889 kcal/mol)

>  <smiles>  (68) 
CCc1cc(C(=O)N2CCOCC2)c(NC(=O)c2[nH]c(C)c(C(C)=O)c2C)s1

>  <score_type>  (68) 
oracle

>  <origin>  (68) 
adg

>  <m_score__min__energy>  (68) 
-9.5899999999999999

>  <m_primary>  (68) 
energy

$$$$
68:0
     RDKit          3D

 51 54  0  0  0  0  0  0  0  0999 V2000
   57.5350   29.3263   44.7185 H   0  0  0  0  0  0  0  0  0  0  0  0
   57.3630   28.2450   44.6130 C   0  0  0  0  0  0  0  0  0  0  0  0
   56.6685   27.8707   43.8464 H   0  0  0  0  0  0  0  0  0  0  0  0
   58.0000   27.3830   45.4190 C   0  0  0  0  0  0  0  0  0  0  0  0
   57.8870   25.9890   45.4080 C   0  0  0  0  0  0  0  0  0  0  0  0
   57.1600   25.2340   44.5630 C   0  0  0  0  0  0  0  0  0  0  0  0
   57.5712   25.0276   43.5638 H   0  0  0  0  0  0  0  0  0  0  0  0
   55.8370   24.6670   44.9070 C   0  0  0  0  0  0  0  0  0  0  0  0
   54.8730   25.4160   45.6050 C   0  0  0  0  0  0  0  0  0  0  0  0
   55.1340   26.7240   45.9990 O   0  0  0  0  0  0  0  0  0  0  0  0
   53.6610   24.8690   45.8840 N   0  0  0  0  0  0  0  0  0  0  0  0
   53.3520   23.6090   45.4840 C   0  0  0  0  0  0  0  0  0  0  0  0
   52.2250   23.1230   45.7570 O   0  0  0  0  0  0  0  0  0  0  0  0
   54.2560   22.8780   44.7840 N   0  0  0  0  0  0  0  0  0  0  0  0
   55.4810   23.3780   44.4820 C   0  0  0  0  0  0  0  0  0  0  0  0
   56.2930   22.6700   43.8260 O   0  0  0  0  0  0  0  0  0  0  0  0
   58.7150   25.5210   46.4210 C   0  0  0  0  0  0  0  0  0  0  0  0
   58.8831   24.4703   46.6997 H   0  0  0  0  0  0  0  0  0  0  0  0
   59.2860   26.6330   47.0100 C   0  0  0  0  0  0  0  0  0  0  0  0
   60.2740   26.6020   48.1350 C   0  0  0  0  0  0  0  0  0  0  0  0
   59.7372   26.6188   49.0950 H   0  0  0  0  0  0  0  0  0  0  0  0
   60.8771   25.6845   48.0682 H   0  0  0  0  0  0  0  0  0  0  0  0
   60.9334   27.4799   48.0682 H   0  0  0  0  0  0  0  0  0  0  0  0
   58.8560   27.7590   46.4000 N   0  0  0  0  0  0  0  0  0  0  0  0
   59.2530   29.0970   46.7430 C   0  0  0  0  0  0  0  0  0  0  0  0
   58.5310   29.7950   47.7170 C   0  0  0  0  0  0  0  0  0  0  0  0
   57.6726   29.3155   48.2102 H   0  0  0  0  0  0  0  0  0  0  0  0
   58.8940   31.0960   48.0660 C   0  0  0  0  0  0  0  0  0  0  0  0
   58.3062   31.6430   48.8178 H   0  0  0  0  0  0  0  0  0  0  0  0
   60.0030   31.7130   47.4660 C   0  0  0  0  0  0  0  0  0  0  0  0
   60.3810   33.1420   47.8280 C   0  0  0  0  0  0  0  0  0  0  0  0
   60.1853   33.2792   48.9017 H   0  0  0  0  0  0  0  0  0  0  0  0
   61.4382   33.2479   47.5432 H   0  0  0  0  0  0  0  0  0  0  0  0
   59.6620   34.2170   47.0950 N   0  0  0  0  0  0  0  0  0  0  0  0
   59.7860   35.1440   47.5670 H   0  0  0  0  0  0  0  0  0  0  0  0
   59.9330   34.3200   45.6530 C   0  0  0  0  0  0  0  0  0  0  0  0
   60.2742   35.3181   45.3408 H   0  0  0  0  0  0  0  0  0  0  0  0
   60.7264   33.6975   45.2135 H   0  0  0  0  0  0  0  0  0  0  0  0
   58.4840   34.0330   45.2900 C   0  0  0  0  0  0  0  0  0  0  0  0
   57.9627   34.8506   44.7707 H   0  0  0  0  0  0  0  0  0  0  0  0
   58.1909   33.2243   44.6044 H   0  0  0  0  0  0  0  0  0  0  0  0
   58.2460   33.9670   46.7890 C   0  0  0  0  0  0  0  0  0  0  0  0
   57.5718   34.7526   47.1608 H   0  0  0  0  0  0  0  0  0  0  0  0
   57.7591   33.0760   47.2121 H   0  0  0  0  0  0  0  0  0  0  0  0
   60.7000   31.0260   46.4560 C   0  0  0  0  0  0  0  0  0  0  0  0
   61.5280   31.5252   45.9315 H   0  0  0  0  0  0  0  0  0  0  0  0
   60.3520   29.7110   46.1090 C   0  0  0  0  0  0  0  0  0  0  0  0
   61.1230   28.9900   45.0360 C   0  0  0  0  0  0  0  0  0  0  0  0
   61.8508   28.3094   45.5019 H   0  0  0  0  0  0  0  0  0  0  0  0
   60.4274   28.4108   44.4110 H   0  0  0  0  0  0  0  0  0  0  0  0
   61.6543   29.7228   44.4110 H   0  0  0  0  0  0  0  0  0  0  0  0
  1  2  1  0
  2  3  1  0
  2  4  2  0
  4  5  1  0
  5  6  2  0
  6  7  1  0
  6  8  1  0
  8  9  2  0
  9 10  1  0
  9 11  1  0
 11 12  1  0
 12 13  2  0
 12 14  1  0
 14 15  1  0
 15 16  2  0
  5 17  1  0
 17 18  1  0
 17 19  2  0
 19 20  1  0
 20 21  1  0
 20 22  1  0
 20 23  1  0
 19 24  1  0
 24 25  1  0
 25 26  2  0
 26 27  1  0
 26 28  1  0
 28 29  1  0
 28 30  2  0
 30 31  1  0
 31 32  1  0
 31 33  1  0
 31 34  1  0
 34 35  1  0
 34 36  1  0
 36 37  1  0
 36 38  1  0
 36 39  1  0
 39 40  1  0
 39 41  1  0
 39 42  1  0
 42 43  1  0
 42 44  1  0
 30 45  1  0
 45 46  1  0
 45 47  2  0
 47 48  1  0
 48 49  1  0
 48 50  1  0
 48 51  1  0
 24  4  1  0
 47 25  1  0
 15  8  1  0
 42 34  1  0
M  CHG  4  10  -1  11  -1  14  -1  34   1
M  END
>  <UniqueID>  (69) 
65

>  <SMILES>  (69) 
C=c1/c(=C/c2c([O-])[n-]c(=O)[n-]c2=O)cc(C)n1-c1ccc(C[NH+]2CCC2)cc1C

>  <Energy>  (69) 
175.82845695936794

>  <Genealogy>  (69) 
C=c1c(=Cc2c([O-])[n-]c(=O)[n-]c2=O)cc(C)n1-c1ccc(C[NH+]2CCC2)cc1C (protonated)
C=c1/c(=C/c2c([O-])[n-]c(=O)[n-]c2=O)cc(C)n1-c1ccc(C[NH+]2CCC2)cc1C (cis-trans isomerization)
C=c1/c(=C/c2c([O-])[n-]c(=O)[n-]c2=O)cc(C)n1-c1ccc(C[NH+]2CCC2)cc1C (3D coordinates assigned)
C=c1/c(=C/c2c([O-])[n-]c(=O)[n-]c2=O)cc(C)n1-c1ccc(C[NH+]2CCC2)cc1C (nonaromatic ring conformer: 175.82845695936794 kcal/mol)

>  <smiles>  (69) 
C=c1c(=Cc2c(O)[nH]c(=O)[nH]c2=O)cc(C)n1-c1ccc(CN2CCC2)cc1C

>  <score_type>  (69) 
oracle

>  <origin>  (69) 
adg

>  <m_score__min__energy>  (69) 
-14.710000000000001

>  <m_primary>  (69) 
energy

$$$$
69:0
     RDKit          3D

 40 42  0  0  0  0  0  0  0  0999 V2000
   55.1010   27.4510   45.3280 H   0  0  0  0  0  0  0  0  0  0  0  0
   55.8980   26.9290   45.6700 O   0  0  0  0  0  0  0  0  0  0  0  0
   57.0510   27.5530   46.1530 C   0  0  0  0  0  0  0  0  0  0  0  0
   57.2710   28.9050   45.8860 C   0  0  0  0  0  0  0  0  0  0  0  0
   56.3270   29.6920   45.0780 C   0  0  0  0  0  0  0  0  0  0  0  0
   55.1850   29.2180   44.8380 O   0  0  0  0  0  0  0  0  0  0  0  0
   56.6530   31.0000   44.5920 N   0  0  0  0  0  0  0  0  0  0  0  0
   57.9530   31.3670   44.0430 C   0  0  0  0  0  0  0  0  0  0  0  0
   58.6448   30.5169   44.1367 H   0  0  0  0  0  0  0  0  0  0  0  0
   57.8433   31.6321   42.9811 H   0  0  0  0  0  0  0  0  0  0  0  0
   58.4970   32.5420   44.8010 C   0  0  0  0  0  0  0  0  0  0  0  0
   59.4210   32.3480   45.8420 C   0  0  0  0  0  0  0  0  0  0  0  0
   59.7677   31.3327   46.0847 H   0  0  0  0  0  0  0  0  0  0  0  0
   59.9010   33.4400   46.5700 C   0  0  0  0  0  0  0  0  0  0  0  0
   60.6308   33.2832   47.3780 H   0  0  0  0  0  0  0  0  0  0  0  0
   59.4550   34.7320   46.2730 C   0  0  0  0  0  0  0  0  0  0  0  0
   59.9200   35.7900   46.9820 F   0  0  0  0  0  0  0  0  0  0  0  0
   58.5220   34.9310   45.2510 C   0  0  0  0  0  0  0  0  0  0  0  0
   58.1664   35.9465   45.0222 H   0  0  0  0  0  0  0  0  0  0  0  0
   58.0400   33.8410   44.5190 C   0  0  0  0  0  0  0  0  0  0  0  0
   57.3009   34.0008   43.7201 H   0  0  0  0  0  0  0  0  0  0  0  0
   58.3600   29.5240   46.4020 N   0  0  0  0  0  0  0  0  0  0  0  0
   59.2980   28.9000   47.1670 C   0  0  0  0  0  0  0  0  0  0  0  0
   60.3670   29.6250   47.5790 C   0  0  0  0  0  0  0  0  0  0  0  0
   61.3549   29.3474   47.1828 H   0  0  0  0  0  0  0  0  0  0  0  0
   60.3010   30.7650   48.5250 C   0  0  0  0  0  0  0  0  0  0  0  0
   61.3620   31.4280   49.1250 C   0  0  0  0  0  0  0  0  0  0  0  0
   62.4303   31.1822   49.0335 H   0  0  0  0  0  0  0  0  0  0  0  0
   60.8090   32.4580   49.8600 C   0  0  0  0  0  0  0  0  0  0  0  0
   61.3519   33.1891   50.4771 H   0  0  0  0  0  0  0  0  0  0  0  0
   59.4460   32.3930   49.6710 C   0  0  0  0  0  0  0  0  0  0  0  0
   58.7134   33.0777   50.1232 H   0  0  0  0  0  0  0  0  0  0  0  0
   59.1420   31.3690   48.8520 N   0  0  0  0  0  0  0  0  0  0  0  0
   58.1860   31.1020   48.5300 H   0  0  0  0  0  0  0  0  0  0  0  0
   59.1280   27.5060   47.4560 C   0  0  0  0  0  0  0  0  0  0  0  0
   59.9860   26.8000   48.2260 C   0  0  0  0  0  0  0  0  0  0  0  0
   60.8773   27.2886   48.6464 H   0  0  0  0  0  0  0  0  0  0  0  0
   59.7928   25.7369   48.4321 H   0  0  0  0  0  0  0  0  0  0  0  0
   57.9850   26.8500   46.9260 C   0  0  0  0  0  0  0  0  0  0  0  0
   57.7850   25.6230   47.1530 O   0  0  0  0  0  0  0  0  0  0  0  0
  1  2  1  0
  2  3  1  0
  3  4  2  0
  4  5  1  0
  5  6  2  0
  5  7  1  0
  7  8  1  0
  8  9  1  0
  8 10  1  0
  8 11  1  0
 11 12  2  0
 12 13  1  0
 12 14  1  0
 14 15  1  0
 14 16  2  0
 16 17  1  0
 16 18  1  0
 18 19  1  0
 18 20  2  0
 20 21  1  0
  4 22  1  0
 22 23  1  0
 23 24  2  0
 24 25  1  0
 24 26  1  0
 26 27  2  0
 27 28  1  0
 27 29  1  0
 29 30  1  0
 29 31  2  0
 31 32  1  0
 31 33  1  0
 33 34  1  0
 23 35  1  0
 35 36  2  0
 36 37  1  0
 36 38  1  0
 35 39  1  0
 39 40  2  0
 39  3  1  0
 20 11  1  0
 33 26  1  0
M  CHG  2   7  -1  22  -1
M  END
>  <UniqueID>  (70) 
66

>  <SMILES>  (70) 
C=c1c(=O)c(O)c(C(=O)[N-]Cc2ccc(F)cc2)[n-]/c1=C\c1ccc[nH]1

>  <Energy>  (70) 
86.06503600598178

>  <Genealogy>  (70) 
C=c1c(=Cc2ccc[nH]2)[n-]c(C(=O)[N-]Cc2ccc(F)cc2)c(O)c1=O (protonated)
C=c1c(=O)c(O)c(C(=O)[N-]Cc2ccc(F)cc2)[n-]/c1=C\c1ccc[nH]1 (cis-trans isomerization)
C=c1c(=O)c(O)c(C(=O)[N-]Cc2ccc(F)cc2)[n-]/c1=C\c1ccc[nH]1 (3D coordinates assigned)
C=c1c(=O)c(O)c(C(=O)[N-]Cc2ccc(F)cc2)[n-]/c1=C\c1ccc[nH]1 (optimized conformer: 86.06503600598178 kcal/mol)

>  <smiles>  (70) 
C=c1c(=Cc2ccc[nH]2)[nH]c(C(=O)NCc2ccc(F)cc2)c(O)c1=O

>  <score_type>  (70) 
oracle

>  <origin>  (70) 
adg

>  <m_score__min__energy>  (70) 
-11.140000000000001

>  <m_primary>  (70) 
energy

$$$$
70:0
     RDKit          3D

 59 62  0  0  0  0  0  0  0  0999 V2000
   63.3960   34.5990   50.4840 C   0  0  0  0  0  0  0  0  0  0  0  0
   62.5130   34.5260   49.2280 C   0  0  2  0  0  0  0  0  0  0  0  0
   61.1120   33.9490   49.5690 C   0  0  0  0  0  0  0  0  0  0  0  0
   60.5070   33.2030   48.4500 N   0  0  0  0  0  0  0  0  0  0  0  0
   59.8250   34.2450   47.2150 S   0  0  0  0  0  0  0  0  0  0  0  0
   59.0220   35.3340   47.8730 O   0  0  0  0  0  0  0  0  0  0  0  0
   60.9430   34.8970   46.4490 O   0  0  0  0  0  0  0  0  0  0  0  0
   58.7780   33.3760   46.0920 C   0  0  0  0  0  0  0  0  0  0  0  0
   58.5780   33.8490   44.7850 C   0  0  0  0  0  0  0  0  0  0  0  0
   57.8440   33.0910   43.8650 C   0  0  0  0  0  0  0  0  0  0  0  0
   57.3210   31.8480   44.2410 C   0  0  0  0  0  0  0  0  0  0  0  0
   56.6850   31.0180   43.2610 N   0  0  0  0  0  0  0  0  0  0  0  0
   56.2030   29.7110   43.5820 C   0  0  0  0  0  0  0  0  0  0  0  0
   54.9650   29.4800   43.5770 O   0  0  0  0  0  0  0  0  0  0  0  0
   57.1400   28.6560   43.8320 N   0  0  0  0  0  0  0  0  0  0  0  0
   57.9310   28.4690   45.0100 C   0  0  0  0  0  0  0  0  0  0  0  0
   59.2300   28.9910   45.0280 C   0  0  0  0  0  0  0  0  0  0  0  0
   59.9950   28.9450   46.1960 C   0  0  0  0  0  0  0  0  0  0  0  0
   59.4630   28.3870   47.3650 C   0  0  0  0  0  0  0  0  0  0  0  0
   60.3930   28.4520   48.8590 S   0  0  0  0  0  0  0  0  0  0  0  0
   61.0010   27.1110   49.1650 O   0  0  0  0  0  0  0  0  0  0  0  0
   61.4880   29.4680   48.7120 O   0  0  0  0  0  0  0  0  0  0  0  0
   59.3500   28.9120   50.1660 N   0  0  0  0  0  0  0  0  0  0  0  0
   59.0310   30.1440   50.4190 C   0  0  0  0  0  0  0  0  0  0  0  0
   58.5020   30.9900   49.5070 N   0  0  0  0  0  0  0  0  0  0  0  0
   58.2820   32.2200   50.0400 C   0  0  0  0  0  0  0  0  0  0  0  0
   58.6350   32.3540   51.3790 C   0  0  0  0  0  0  0  0  0  0  0  0
   59.2450   30.8780   51.9110 S   0  0  0  0  0  0  0  0  0  0  0  0
   58.1690   27.8470   47.3480 C   0  0  0  0  0  0  0  0  0  0  0  0
   57.4040   27.8910   46.1780 C   0  0  0  0  0  0  0  0  0  0  0  0
   57.4550   31.4140   45.5700 C   0  0  0  0  0  0  0  0  0  0  0  0
   58.1660   32.1810   46.4910 C   0  0  0  0  0  0  0  0  0  0  0  0
   61.3680   32.1280   47.9070 C   0  0  0  0  0  0  0  0  0  0  0  0
   62.8760   32.3530   48.1730 C   0  0  1  0  0  0  0  0  0  0  0  0
   63.7280   31.6000   47.1440 C   0  0  0  0  0  0  0  0  0  0  0  0
   63.1790   33.7890   48.1350 N   0  0  0  0  0  0  0  0  0  0  0  0
   62.7621   34.5466   51.3814 H   0  0  0  0  0  0  0  0  0  0  0  0
   64.1029   33.7562   50.4847 H   0  0  0  0  0  0  0  0  0  0  0  0
   63.9549   35.5464   50.4847 H   0  0  0  0  0  0  0  0  0  0  0  0
   62.3595   35.5507   48.8586 H   0  0  0  0  0  0  0  0  0  0  0  0
   61.2124   33.2703   50.4288 H   0  0  0  0  0  0  0  0  0  0  0  0
   60.4515   34.8000   49.7918 H   0  0  0  0  0  0  0  0  0  0  0  0
   58.9998   34.8190   44.4829 H   0  0  0  0  0  0  0  0  0  0  0  0
   57.6782   33.4721   42.8465 H   0  0  0  0  0  0  0  0  0  0  0  0
   59.6510   29.4403   44.1165 H   0  0  0  0  0  0  0  0  0  0  0  0
   61.0184   29.3483   46.1974 H   0  0  0  0  0  0  0  0  0  0  0  0
   57.8561   33.0491   49.4558 H   0  0  0  0  0  0  0  0  0  0  0  0
   58.5331   33.2663   51.9850 H   0  0  0  0  0  0  0  0  0  0  0  0
   57.7544   27.3875   48.2574 H   0  0  0  0  0  0  0  0  0  0  0  0
   56.3869   27.4721   46.1718 H   0  0  0  0  0  0  0  0  0  0  0  0
   56.9969   30.4649   45.8852 H   0  0  0  0  0  0  0  0  0  0  0  0
   58.2469   31.8465   47.5358 H   0  0  0  0  0  0  0  0  0  0  0  0
   61.0707   31.1758   48.3707 H   0  0  0  0  0  0  0  0  0  0  0  0
   61.2288   32.1213   46.8159 H   0  0  0  0  0  0  0  0  0  0  0  0
   63.1200   31.9604   49.1711 H   0  0  0  0  0  0  0  0  0  0  0  0
   64.4531   30.9591   47.6669 H   0  0  0  0  0  0  0  0  0  0  0  0
   63.0762   30.9774   46.5135 H   0  0  0  0  0  0  0  0  0  0  0  0
   64.2658   32.3234   46.5135 H   0  0  0  0  0  0  0  0  0  0  0  0
   64.2150   33.9380   48.1800 H   0  0  0  0  0  0  0  0  0  0  0  0
  1  2  1  0
  2  3  1  0
  3  4  1  0
  4  5  1  0
  5  6  2  0
  5  7  2  0
  5  8  1  0
  8  9  2  0
  9 10  1  0
 10 11  2  0
 11 12  1  0
 12 13  1  0
 13 14  2  0
 13 15  1  0
 15 16  1  0
 16 17  2  0
 17 18  1  0
 18 19  2  0
 19 20  1  0
 20 21  2  0
 20 22  2  0
 20 23  1  0
 23 24  2  3
 24 25  1  0
 25 26  1  0
 26 27  2  0
 27 28  1  0
 19 29  1  0
 29 30  2  0
 11 31  1  0
 31 32  2  0
  4 33  1  0
 33 34  1  0
 34 35  1  0
 34 36  1  0
 36  2  1  0
 32  8  1  0
 30 16  1  0
 28 24  1  0
  1 37  1  0
  1 38  1  0
  1 39  1  0
  2 40  1  6
  3 41  1  0
  3 42  1  0
  9 43  1  0
 10 44  1  0
 17 45  1  0
 18 46  1  0
 26 47  1  0
 27 48  1  0
 29 49  1  0
 30 50  1  0
 31 51  1  0
 32 52  1  0
 33 53  1  0
 33 54  1  0
 34 55  1  1
 35 56  1  0
 35 57  1  0
 35 58  1  0
 36 59  1  0
M  CHG  3  12  -1  15  -1  25  -1
M  END
>  <UniqueID>  (71) 
67

>  <SMILES>  (71) 
C[C@@H]1CN(S(=O)(=O)c2ccc([N-]C(=O)[N-]c3ccc(S(=O)(=O)N=c4[n-]ccs4)cc3)cc2)C[C@@H](C)N1

>  <Energy>  (71) 
107.03424542597129

>  <Genealogy>  (71) 
CC1CN(S(=O)(=O)c2ccc([N-]C(=O)[N-]c3ccc(S(=O)(=O)N=c4[n-]ccs4)cc3)cc2)CC(C)N1 (protonated)
C[C@@H]1CN(S(=O)(=O)c2ccc([N-]C(=O)[N-]c3ccc(S(=O)(=O)N=c4[n-]ccs4)cc3)cc2)C[C@@H](C)N1 (chirality)
C[C@@H]1CN(S(=O)(=O)c2ccc([N-]C(=O)[N-]c3ccc(S(=O)(=O)N=c4[n-]ccs4)cc3)cc2)C[C@@H](C)N1 (3D coordinates assigned)
C[C@@H]1CN(S(=O)(=O)c2ccc([N-]C(=O)[N-]c3ccc(S(=O)(=O)N=c4[n-]ccs4)cc3)cc2)C[C@@H](C)N1 (nonaromatic ring conformer: 107.03424542597129 kcal/mol)

>  <smiles>  (71) 
CC1CN(S(=O)(=O)c2ccc(NC(=O)Nc3ccc(S(=O)(=O)N=c4[nH]ccs4)cc3)cc2)CC(C)N1

>  <score_type>  (71) 
oracle

>  <origin>  (71) 
adg

>  <m_score__min__energy>  (71) 
-13.91

>  <m_primary>  (71) 
energy

$$$$
71:0
     RDKit          3D

 48 50  0  0  0  0  0  0  0  0999 V2000
   55.1430   29.3680   44.8890 N   0  0  0  0  0  0  0  0  0  0  0  0
   56.6100   29.4190   43.9750 S   0  0  0  0  0  0  0  0  0  0  0  0
   56.2810   29.2600   42.5170 O   0  0  0  0  0  0  0  0  0  0  0  0
   57.5130   28.2970   44.4050 O   0  0  0  0  0  0  0  0  0  0  0  0
   57.4200   30.9580   44.2530 C   0  0  0  0  0  0  0  0  0  0  0  0
   57.6370   31.8530   43.1970 C   0  0  0  0  0  0  0  0  0  0  0  0
   58.3210   33.0500   43.4210 C   0  0  0  0  0  0  0  0  0  0  0  0
   58.7820   33.3640   44.7030 C   0  0  0  0  0  0  0  0  0  0  0  0
   58.5440   32.4940   45.7750 C   0  0  0  0  0  0  0  0  0  0  0  0
   59.0370   32.8510   47.0730 N   0  0  0  0  0  0  0  0  0  0  0  0
   59.5980   34.1160   47.4440 C   0  0  0  0  0  0  0  0  0  0  0  0
   58.8960   35.1650   47.4010 O   0  0  0  0  0  0  0  0  0  0  0  0
   61.0610   34.1970   47.8060 C   0  0  0  0  0  0  0  0  0  0  0  0
   61.9410   33.3480   46.8450 C   0  0  0  0  0  0  0  0  0  0  0  0
   62.4630   32.0510   47.4830 C   0  0  0  0  0  0  0  0  0  0  0  0
   61.4690   31.5020   48.4130 N   0  0  0  0  0  0  0  0  0  0  0  0
   60.9220   30.1810   48.2520 C   0  0  0  0  0  0  0  0  0  0  0  0
   60.7200   29.4700   49.2730 O   0  0  0  0  0  0  0  0  0  0  0  0
   60.5830   29.6800   46.9480 N   0  0  0  0  0  0  0  0  0  0  0  0
   59.8010   28.4940   46.7310 C   0  0  0  0  0  0  0  0  0  0  0  0
   58.5430   28.3730   47.3450 C   0  0  0  0  0  0  0  0  0  0  0  0
   57.7750   27.2180   47.1660 C   0  0  0  0  0  0  0  0  0  0  0  0
   58.2650   26.1660   46.3870 C   0  0  0  0  0  0  0  0  0  0  0  0
   59.5260   26.2650   45.7930 C   0  0  0  0  0  0  0  0  0  0  0  0
   60.2970   27.4200   45.9690 C   0  0  0  0  0  0  0  0  0  0  0  0
   61.0120   32.3270   49.5390 C   0  0  0  0  0  0  0  0  0  0  0  0
   61.2800   33.8200   49.2870 C   0  0  0  0  0  0  0  0  0  0  0  0
   57.8810   31.2780   45.5370 C   0  0  0  0  0  0  0  0  0  0  0  0
   55.2630   28.6200   45.6080 H   0  0  0  0  0  0  0  0  0  0  0  0
   57.2678   31.6124   42.1891 H   0  0  0  0  0  0  0  0  0  0  0  0
   58.4972   33.7464   42.5879 H   0  0  0  0  0  0  0  0  0  0  0  0
   59.3350   34.2999   44.8710 H   0  0  0  0  0  0  0  0  0  0  0  0
   61.3847   35.2408   47.6804 H   0  0  0  0  0  0  0  0  0  0  0  0
   61.3398   33.0852   45.9621 H   0  0  0  0  0  0  0  0  0  0  0  0
   62.8183   33.9578   46.5834 H   0  0  0  0  0  0  0  0  0  0  0  0
   62.6652   31.3138   46.6920 H   0  0  0  0  0  0  0  0  0  0  0  0
   63.3865   32.2729   48.0380 H   0  0  0  0  0  0  0  0  0  0  0  0
   60.9240   30.1880   46.1030 H   0  0  0  0  0  0  0  0  0  0  0  0
   58.1596   29.1924   47.9708 H   0  0  0  0  0  0  0  0  0  0  0  0
   56.7849   27.1374   47.6385 H   0  0  0  0  0  0  0  0  0  0  0  0
   57.6580   25.2602   46.2415 H   0  0  0  0  0  0  0  0  0  0  0  0
   59.9135   25.4336   45.1859 H   0  0  0  0  0  0  0  0  0  0  0  0
   61.2943   27.4883   45.5099 H   0  0  0  0  0  0  0  0  0  0  0  0
   59.9313   32.1760   49.6776 H   0  0  0  0  0  0  0  0  0  0  0  0
   61.5677   32.0229   50.4383 H   0  0  0  0  0  0  0  0  0  0  0  0
   60.5972   34.4151   49.9112 H   0  0  0  0  0  0  0  0  0  0  0  0
   62.3295   34.0281   49.5424 H   0  0  0  0  0  0  0  0  0  0  0  0
   57.7227   30.5717   46.3653 H   0  0  0  0  0  0  0  0  0  0  0  0
  1  2  1  0
  2  3  2  0
  2  4  2  0
  2  5  1  0
  5  6  2  0
  6  7  1  0
  7  8  2  0
  8  9  1  0
  9 10  1  0
 10 11  1  0
 11 12  2  0
 11 13  1  0
 13 14  1  0
 14 15  1  0
 15 16  1  0
 16 17  1  0
 17 18  2  0
 17 19  1  0
 19 20  1  0
 20 21  2  0
 21 22  1  0
 22 23  2  0
 23 24  1  0
 24 25  2  0
 16 26  1  0
 26 27  1  0
  9 28  2  0
 28  5  1  0
 27 13  1  0
 25 20  1  0
  1 29  1  0
  6 30  1  0
  7 31  1  0
  8 32  1  0
 13 33  1  0
 14 34  1  0
 14 35  1  0
 15 36  1  0
 15 37  1  0
 19 38  1  0
 21 39  1  0
 22 40  1  0
 23 41  1  0
 24 42  1  0
 25 43  1  0
 26 44  1  0
 26 45  1  0
 27 46  1  0
 27 47  1  0
 28 48  1  0
M  CHG  2   1  -1  10  -1
M  END
>  <UniqueID>  (72) 
68

>  <SMILES>  (72) 
[NH-]S(=O)(=O)c1cccc([N-]C(=O)C2CCN(C(=O)Nc3ccccc3)CC2)c1

>  <Energy>  (72) 
61.642134235186745

>  <Genealogy>  (72) 
[NH-]S(=O)(=O)c1cccc([N-]C(=O)C2CCN(C(=O)Nc3ccccc3)CC2)c1 (protonated)
[NH-]S(=O)(=O)c1cccc([N-]C(=O)C2CCN(C(=O)Nc3ccccc3)CC2)c1 (3D coordinates assigned)
[NH-]S(=O)(=O)c1cccc([N-]C(=O)C2CCN(C(=O)Nc3ccccc3)CC2)c1 (nonaromatic ring conformer: 61.642134235186745 kcal/mol)

>  <smiles>  (72) 
NS(=O)(=O)c1cccc(NC(=O)C2CCN(C(=O)Nc3ccccc3)CC2)c1

>  <score_type>  (72) 
oracle

>  <origin>  (72) 
adg

>  <m_score__min__energy>  (72) 
-13.57

>  <m_primary>  (72) 
energy

$$$$
72:0
     RDKit          3D

 60 63  0  0  0  0  0  0  0  0999 V2000
   59.0010   27.5080   44.2990 H   0  0  0  0  0  0  0  0  0  0  0  0
   58.8560   27.1290   45.2270 O   0  0  0  0  0  0  0  0  0  0  0  0
   57.5950   26.7040   45.6290 C   0  0  0  0  0  0  0  0  0  0  0  0
   57.3320   25.4740   46.1010 N   0  0  0  0  0  0  0  0  0  0  0  0
   55.9990   25.5160   46.3100 C   0  0  0  0  0  0  0  0  0  0  0  0
   55.3510   24.5310   46.7500 O   0  0  0  0  0  0  0  0  0  0  0  0
   55.4110   26.6910   45.9950 N   0  0  0  0  0  0  0  0  0  0  0  0
   56.4410   27.4540   45.5900 C   0  0  0  0  0  0  0  0  0  0  0  0
   56.2830   28.8050   45.0340 C   0  0  0  0  0  0  0  0  0  0  0  0
   55.4022   28.9871   44.4007 H   0  0  0  0  0  0  0  0  0  0  0  0
   57.1230   29.8410   45.2320 C   0  0  0  0  0  0  0  0  0  0  0  0
   57.1260   30.9670   44.4250 C   0  0  0  0  0  0  0  0  0  0  0  0
   56.4407   31.1762   43.5904 H   0  0  0  0  0  0  0  0  0  0  0  0
   58.1510   31.7750   44.8670 C   0  0  0  0  0  0  0  0  0  0  0  0
   58.4940   33.1160   44.2940 C   0  0  0  0  0  0  0  0  0  0  0  0
   58.6762   33.8285   45.1120 H   0  0  0  0  0  0  0  0  0  0  0  0
   59.3989   33.0295   43.6746 H   0  0  0  0  0  0  0  0  0  0  0  0
   57.6587   33.4746   43.6746 H   0  0  0  0  0  0  0  0  0  0  0  0
   58.7500   31.2230   45.9420 N   0  0  0  0  0  0  0  0  0  0  0  0
   59.8230   31.8140   46.6950 C   0  0  0  0  0  0  0  0  0  0  0  0
   61.0610   31.1630   46.7440 C   0  0  0  0  0  0  0  0  0  0  0  0
   61.1987   30.2103   46.2117 H   0  0  0  0  0  0  0  0  0  0  0  0
   62.1210   31.7140   47.4630 C   0  0  0  0  0  0  0  0  0  0  0  0
   63.0923   31.1982   47.4865 H   0  0  0  0  0  0  0  0  0  0  0  0
   61.9560   32.9230   48.1570 C   0  0  0  0  0  0  0  0  0  0  0  0
   63.0880   33.5070   48.9080 C   0  0  0  0  0  0  0  0  0  0  0  0
   63.9470   34.1900   48.2870 O   0  0  0  0  0  0  0  0  0  0  0  0
   63.2410   33.2930   50.3250 N   0  0  0  0  0  0  0  0  0  0  0  0
   63.0020   31.9530   50.8870 C   0  0  0  0  0  0  0  0  0  0  0  0
   61.9207   31.8149   51.0345 H   0  0  0  0  0  0  0  0  0  0  0  0
   63.3995   31.2074   50.1826 H   0  0  0  0  0  0  0  0  0  0  0  0
   63.7170   31.7720   52.2350 C   0  0  0  0  0  0  0  0  0  0  0  0
   63.1650   32.3264   53.0083 H   0  0  0  0  0  0  0  0  0  0  0  0
   63.7465   30.6967   52.4651 H   0  0  0  0  0  0  0  0  0  0  0  0
   65.1750   32.2950   52.1870 C   0  0  0  0  0  0  0  0  0  0  0  0
   65.5486   32.3312   53.2210 H   0  0  0  0  0  0  0  0  0  0  0  0
   66.0780   31.3240   51.3860 C   0  0  0  0  0  0  0  0  0  0  0  0
   66.6208   30.6806   52.0941 H   0  0  0  0  0  0  0  0  0  0  0  0
   65.4302   30.7336   50.7213 H   0  0  0  0  0  0  0  0  0  0  0  0
   67.0950   32.0620   50.5130 C   0  0  0  0  0  0  0  0  0  0  0  0
   67.8176   32.5864   51.1555 H   0  0  0  0  0  0  0  0  0  0  0  0
   67.6268   31.3382   49.8779 H   0  0  0  0  0  0  0  0  0  0  0  0
   66.5718   32.7920   49.8779 H   0  0  0  0  0  0  0  0  0  0  0  0
   65.2620   33.7550   51.6400 C   0  0  0  0  0  0  0  0  0  0  0  0
   65.6323   34.4075   52.4444 H   0  0  0  0  0  0  0  0  0  0  0  0
   65.9401   33.7381   50.7740 H   0  0  0  0  0  0  0  0  0  0  0  0
   63.9150   34.3020   51.1510 C   0  0  0  0  0  0  0  0  0  0  0  0
   63.2833   34.5462   52.0178 H   0  0  0  0  0  0  0  0  0  0  0  0
   64.0862   35.2081   50.5513 H   0  0  0  0  0  0  0  0  0  0  0  0
   60.7180   33.5860   48.0960 C   0  0  0  0  0  0  0  0  0  0  0  0
   60.5869   34.5436   48.6211 H   0  0  0  0  0  0  0  0  0  0  0  0
   59.6460   33.0380   47.3710 C   0  0  0  0  0  0  0  0  0  0  0  0
   58.3250   33.7550   47.3280 C   0  0  0  0  0  0  0  0  0  0  0  0
   57.9768   33.9440   48.3542 H   0  0  0  0  0  0  0  0  0  0  0  0
   58.4444   34.7121   46.7992 H   0  0  0  0  0  0  0  0  0  0  0  0
   57.5875   33.1334   46.7992 H   0  0  0  0  0  0  0  0  0  0  0  0
   58.1250   30.0470   46.1960 C   0  0  0  0  0  0  0  0  0  0  0  0
   58.3840   29.2990   47.2800 C   0  0  0  0  0  0  0  0  0  0  0  0
   59.2055   29.5771   47.9566 H   0  0  0  0  0  0  0  0  0  0  0  0
   57.7747   28.4079   47.4917 H   0  0  0  0  0  0  0  0  0  0  0  0
  1  2  1  0
  2  3  1  0
  3  4  1  0
  4  5  1  0
  5  6  2  0
  5  7  1  0
  7  8  1  0
  8  9  1  0
  9 10  1  0
  9 11  2  0
 11 12  1  0
 12 13  1  0
 12 14  2  0
 14 15  1  0
 15 16  1  0
 15 17  1  0
 15 18  1  0
 14 19  1  0
 19 20  1  0
 20 21  2  0
 21 22  1  0
 21 23  1  0
 23 24  1  0
 23 25  2  0
 25 26  1  0
 26 27  2  0
 26 28  1  0
 28 29  1  0
 29 30  1  0
 29 31  1  0
 29 32  1  0
 32 33  1  0
 32 34  1  0
 32 35  1  0
 35 36  1  0
 35 37  1  0
 37 38  1  0
 37 39  1  0
 37 40  1  0
 40 41  1  0
 40 42  1  0
 40 43  1  0
 35 44  1  0
 44 45  1  0
 44 46  1  0
 44 47  1  0
 47 48  1  0
 47 49  1  0
 25 50  1  0
 50 51  1  0
 50 52  2  0
 52 53  1  0
 53 54  1  0
 53 55  1  0
 53 56  1  0
 19 57  1  0
 57 58  2  0
 58 59  1  0
 58 60  1  0
  8  3  2  0
 57 11  1  0
 52 20  1  0
 47 28  1  0
M  CHG  2   4  -1   7  -1
M  END
>  <UniqueID>  (73) 
69

>  <SMILES>  (73) 
C=c1/c(=C\c2[n-]c(=O)[n-]c2O)cc(C)n1-c1ccc(C(=O)N2CCC(CC)CC2)cc1C

>  <Energy>  (73) 
142.1519506764726

>  <Genealogy>  (73) 
C=c1c(=Cc2[n-]c(=O)[n-]c2O)cc(C)n1-c1ccc(C(=O)N2CCC(CC)CC2)cc1C (protonated)
C=c1/c(=C\c2[n-]c(=O)[n-]c2O)cc(C)n1-c1ccc(C(=O)N2CCC(CC)CC2)cc1C (cis-trans isomerization)
C=c1/c(=C\c2[n-]c(=O)[n-]c2O)cc(C)n1-c1ccc(C(=O)N2CCC(CC)CC2)cc1C (3D coordinates assigned)
C=c1/c(=C\c2[n-]c(=O)[n-]c2O)cc(C)n1-c1ccc(C(=O)N2CCC(CC)CC2)cc1C (nonaromatic ring conformer: 142.1519506764726 kcal/mol)

>  <smiles>  (73) 
C=c1c(=Cc2[nH]c(=O)[nH]c2O)cc(C)n1-c1ccc(C(=O)N2CCC(CC)CC2)cc1C

>  <score_type>  (73) 
oracle

>  <origin>  (73) 
adg

>  <m_score__min__energy>  (73) 
-13.08

>  <m_primary>  (73) 
energy

$$$$
73:0
     RDKit          3D

 66 69  0  0  0  0  0  0  0  0999 V2000
   56.2600   31.4000   44.6220 O   0  0  0  0  0  0  0  0  0  0  0  0
   57.4750   31.5410   44.9170 C   0  0  0  0  0  0  0  0  0  0  0  0
   57.9530   32.8720   45.4280 C   0  0  0  0  0  0  0  0  0  0  0  0
   59.3890   32.8230   45.6910 N   0  0  0  0  0  0  0  0  0  0  0  0
   60.1140   33.9540   46.1960 C   0  0  0  0  0  0  0  0  0  0  0  0
   59.5160   35.0360   46.4500 O   0  0  0  0  0  0  0  0  0  0  0  0
   61.6010   33.8770   46.3750 C   0  0  0  0  0  0  0  0  0  0  0  0
   61.9270   33.4590   47.7830 C   0  0  0  0  0  0  0  0  0  0  0  0
   61.4070   34.1740   48.8750 C   0  0  0  0  0  0  0  0  0  0  0  0
   61.7420   33.8050   50.1820 C   0  0  0  0  0  0  0  0  0  0  0  0
   62.6030   32.7270   50.4070 C   0  0  0  0  0  0  0  0  0  0  0  0
   63.1350   32.0190   49.3260 C   0  0  0  0  0  0  0  0  0  0  0  0
   62.8000   32.3840   48.0170 C   0  0  0  0  0  0  0  0  0  0  0  0
   58.3460   30.4090   44.8230 N   0  0  0  0  0  0  0  0  0  0  0  0
   58.2000   29.1590   45.5130 C   0  0  0  0  0  0  0  0  0  0  0  0
   57.3680   28.1490   45.0000 C   0  0  0  0  0  0  0  0  0  0  0  0
   57.2110   26.9420   45.6850 C   0  0  0  0  0  0  0  0  0  0  0  0
   57.8470   26.7350   46.9110 C   0  0  0  0  0  0  0  0  0  0  0  0
   57.6590   25.4850   47.5890 N   0  0  0  0  0  0  0  0  0  0  0  0
   57.1140   24.2920   47.0100 C   0  0  0  0  0  0  0  0  0  0  0  0
   57.7620   23.2140   47.0570 O   0  0  0  0  0  0  0  0  0  0  0  0
   55.7730   24.3410   46.3930 C   0  0  0  0  0  0  0  0  0  0  0  0
   55.1630   25.4410   46.3670 O   0  0  0  0  0  0  0  0  0  0  0  0
   55.1270   23.1930   45.8220 N   0  0  0  0  0  0  0  0  0  0  0  0
   55.2980   22.6620   44.4670 C   0  0  0  0  0  0  0  0  0  0  0  0
   56.3770   21.5870   44.4720 C   0  0  0  0  0  0  0  0  0  0  0  0
   57.6990   22.3060   44.2170 C   0  0  0  0  0  0  0  0  0  0  0  0
   57.3540   23.6930   43.6800 C   0  0  0  0  0  0  0  0  0  0  0  0
   55.8410   23.7370   43.5280 C   0  0  0  0  0  0  0  0  0  0  0  0
   58.6850   27.7360   47.4280 C   0  0  0  0  0  0  0  0  0  0  0  0
   58.8640   28.9520   46.7430 C   0  0  0  0  0  0  0  0  0  0  0  0
   59.7430   29.9970   47.3280 C   0  0  0  0  0  0  0  0  0  0  0  0
   60.7650   30.3670   46.6890 O   0  0  0  0  0  0  0  0  0  0  0  0
   59.4430   30.6270   48.6360 C   0  0  0  0  0  0  0  0  0  0  0  0
   59.7540   29.9540   49.8320 C   0  0  0  0  0  0  0  0  0  0  0  0
   59.4770   30.5450   51.0680 C   0  0  0  0  0  0  0  0  0  0  0  0
   58.8640   31.7980   51.1250 C   0  0  0  0  0  0  0  0  0  0  0  0
   58.5290   32.4650   49.9440 C   0  0  0  0  0  0  0  0  0  0  0  0
   58.8110   31.8830   48.7050 C   0  0  0  0  0  0  0  0  0  0  0  0
   57.7475   33.6462   44.6741 H   0  0  0  0  0  0  0  0  0  0  0  0
   57.4239   33.1096   46.3627 H   0  0  0  0  0  0  0  0  0  0  0  0
   59.9010   31.9350   45.4940 H   0  0  0  0  0  0  0  0  0  0  0  0
   62.0154   33.1405   45.6708 H   0  0  0  0  0  0  0  0  0  0  0  0
   62.0406   34.8664   46.1803 H   0  0  0  0  0  0  0  0  0  0  0  0
   60.7342   35.0268   48.7015 H   0  0  0  0  0  0  0  0  0  0  0  0
   61.3274   34.3639   51.0339 H   0  0  0  0  0  0  0  0  0  0  0  0
   62.8619   32.4358   51.4357 H   0  0  0  0  0  0  0  0  0  0  0  0
   63.8172   31.1746   49.5039 H   0  0  0  0  0  0  0  0  0  0  0  0
   63.2222   31.8265   47.1679 H   0  0  0  0  0  0  0  0  0  0  0  0
   56.8359   28.3105   44.0509 H   0  0  0  0  0  0  0  0  0  0  0  0
   56.5817   26.1485   45.2556 H   0  0  0  0  0  0  0  0  0  0  0  0
   54.3157   22.2882   44.1423 H   0  0  0  0  0  0  0  0  0  0  0  0
   56.4024   21.0773   45.4465 H   0  0  0  0  0  0  0  0  0  0  0  0
   56.1833   20.8224   43.7053 H   0  0  0  0  0  0  0  0  0  0  0  0
   58.2684   22.3942   45.1540 H   0  0  0  0  0  0  0  0  0  0  0  0
   58.3178   21.7486   43.4984 H   0  0  0  0  0  0  0  0  0  0  0  0
   57.6870   24.4672   44.3869 H   0  0  0  0  0  0  0  0  0  0  0  0
   57.8546   23.8818   42.7189 H   0  0  0  0  0  0  0  0  0  0  0  0
   55.4557   24.7266   43.8148 H   0  0  0  0  0  0  0  0  0  0  0  0
   55.5330   23.5591   42.4871 H   0  0  0  0  0  0  0  0  0  0  0  0
   59.2083   27.5674   48.3808 H   0  0  0  0  0  0  0  0  0  0  0  0
   60.2177   28.9572   49.7940 H   0  0  0  0  0  0  0  0  0  0  0  0
   59.7427   30.0215   51.9982 H   0  0  0  0  0  0  0  0  0  0  0  0
   58.6449   32.2598   52.0991 H   0  0  0  0  0  0  0  0  0  0  0  0
   58.0422   33.4504   49.9894 H   0  0  0  0  0  0  0  0  0  0  0  0
   58.5376   32.4093   47.7786 H   0  0  0  0  0  0  0  0  0  0  0  0
  1  2  2  0
  2  3  1  0
  3  4  1  0
  4  5  1  0
  5  6  2  0
  5  7  1  0
  7  8  1  0
  8  9  2  0
  9 10  1  0
 10 11  2  0
 11 12  1  0
 12 13  2  0
  2 14  1  0
 14 15  1  0
 15 16  2  0
 16 17  1  0
 17 18  2  0
 18 19  1  0
 19 20  1  0
 20 21  2  0
 20 22  1  0
 22 23  2  0
 22 24  1  0
 24 25  1  0
 25 26  1  0
 26 27  1  0
 27 28  1  0
 28 29  1  0
 18 30  1  0
 30 31  2  0
 31 32  1  0
 32 33  2  0
 32 34  1  0
 34 35  2  0
 35 36  1  0
 36 37  2  0
 37 38  1  0
 38 39  2  0
 13  8  1  0
 31 15  1  0
 39 34  1  0
 29 25  1  0
  3 40  1  0
  3 41  1  0
  4 42  1  0
  7 43  1  0
  7 44  1  0
  9 45  1  0
 10 46  1  0
 11 47  1  0
 12 48  1  0
 13 49  1  0
 16 50  1  0
 17 51  1  0
 25 52  1  0
 26 53  1  0
 26 54  1  0
 27 55  1  0
 27 56  1  0
 28 57  1  0
 28 58  1  0
 29 59  1  0
 29 60  1  0
 30 61  1  0
 35 62  1  0
 36 63  1  0
 37 64  1  0
 38 65  1  0
 39 66  1  0
M  CHG  3  14  -1  19  -1  24  -1
M  END
>  <UniqueID>  (74) 
70

>  <SMILES>  (74) 
O=C(CNC(=O)Cc1ccccc1)[N-]c1ccc([N-]C(=O)C(=O)[N-]C2CCCC2)cc1C(=O)c1ccccc1

>  <Energy>  (74) 
80.11715845729039

>  <Genealogy>  (74) 
O=C(CNC(=O)Cc1ccccc1)[N-]c1ccc([N-]C(=O)C(=O)[N-]C2CCCC2)cc1C(=O)c1ccccc1 (protonated)
O=C(CNC(=O)Cc1ccccc1)[N-]c1ccc([N-]C(=O)C(=O)[N-]C2CCCC2)cc1C(=O)c1ccccc1 (3D coordinates assigned)
O=C(CNC(=O)Cc1ccccc1)[N-]c1ccc([N-]C(=O)C(=O)[N-]C2CCCC2)cc1C(=O)c1ccccc1 (nonaromatic ring conformer: 80.11715845729039 kcal/mol)

>  <smiles>  (74) 
O=C(Cc1ccccc1)NCC(=O)Nc1ccc(NC(=O)C(=O)NC2CCCC2)cc1C(=O)c1ccccc1

>  <score_type>  (74) 
oracle

>  <origin>  (74) 
adg

>  <m_score__min__energy>  (74) 
-14.31

>  <m_primary>  (74) 
energy

$$$$
74:0
     RDKit          3D

 30 32  0  0  0  0  0  0  0  0999 V2000
   56.2150   31.5870   44.7840 O   0  0  0  0  0  0  0  0  0  0  0  0
   57.6690   31.2310   44.6450 S   0  0  0  0  0  0  0  0  0  0  0  0
   58.0820   31.2790   43.2010 O   0  0  0  0  0  0  0  0  0  0  0  0
   57.9380   29.6490   45.2710 N   0  0  0  0  0  0  0  0  0  0  0  0
   58.7240   29.3950   46.2740 C   0  0  0  0  0  0  0  0  0  0  0  0
   58.9000   28.0360   46.7080 N   0  0  0  0  0  0  0  0  0  0  0  0
   58.0260   26.9500   46.3540 C   0  0  0  0  0  0  0  0  0  0  0  0
   58.5340   25.6990   45.9570 C   0  0  0  0  0  0  0  0  0  0  0  0
   57.6620   24.6670   45.5930 C   0  0  0  0  0  0  0  0  0  0  0  0
   56.2810   24.8780   45.6100 C   0  0  0  0  0  0  0  0  0  0  0  0
   55.7680   26.1240   45.9800 C   0  0  0  0  0  0  0  0  0  0  0  0
   54.3960   26.3360   45.9850 O   0  0  0  0  0  0  0  0  0  0  0  0
   56.6380   27.1580   46.3430 C   0  0  0  0  0  0  0  0  0  0  0  0
   59.4770   30.4330   46.9340 N   0  0  0  0  0  0  0  0  0  0  0  0
   59.4410   31.8380   46.6160 C   0  0  0  0  0  0  0  0  0  0  0  0
   60.2240   32.7350   47.3610 C   0  0  0  0  0  0  0  0  0  0  0  0
   60.2060   34.1040   47.0710 C   0  0  0  0  0  0  0  0  0  0  0  0
   60.9650   34.9600   47.7980 F   0  0  0  0  0  0  0  0  0  0  0  0
   59.4060   34.5880   46.0340 C   0  0  0  0  0  0  0  0  0  0  0  0
   58.6230   33.7060   45.2850 C   0  0  0  0  0  0  0  0  0  0  0  0
   58.6400   32.3340   45.5750 C   0  0  0  0  0  0  0  0  0  0  0  0
   59.7600   27.8110   47.2580 H   0  0  0  0  0  0  0  0  0  0  0  0
   59.6210   25.5318   45.9328 H   0  0  0  0  0  0  0  0  0  0  0  0
   58.0644   23.6882   45.2930 H   0  0  0  0  0  0  0  0  0  0  0  0
   55.5970   24.0626   45.3319 H   0  0  0  0  0  0  0  0  0  0  0  0
   56.2311   28.1412   46.6218 H   0  0  0  0  0  0  0  0  0  0  0  0
   60.0950   30.1350   47.7220 H   0  0  0  0  0  0  0  0  0  0  0  0
   60.8562   32.3586   48.1787 H   0  0  0  0  0  0  0  0  0  0  0  0
   59.3922   35.6642   45.8067 H   0  0  0  0  0  0  0  0  0  0  0  0
   57.9932   34.0877   44.4679 H   0  0  0  0  0  0  0  0  0  0  0  0
  1  2  2  0
  2  3  2  0
  2  4  1  0
  4  5  2  0
  5  6  1  0
  6  7  1  0
  7  8  2  0
  8  9  1  0
  9 10  2  0
 10 11  1  0
 11 12  1  0
 11 13  2  0
  5 14  1  0
 14 15  1  0
 15 16  2  0
 16 17  1  0
 17 18  1  0
 17 19  2  0
 19 20  1  0
 20 21  2  0
 21  2  1  0
 13  7  1  0
 21 15  1  0
  6 22  1  0
  8 23  1  0
  9 24  1  0
 10 25  1  0
 13 26  1  0
 14 27  1  0
 16 28  1  0
 19 29  1  0
 20 30  1  0
M  CHG  1  12  -1
M  END
>  <UniqueID>  (75) 
71

>  <SMILES>  (75) 
O=S1(=O)N=C(Nc2cccc([O-])c2)Nc2cc(F)ccc21

>  <Energy>  (75) 
41.7273950268869

>  <Genealogy>  (75) 
O=S1(=O)N=C(Nc2cccc([O-])c2)Nc2cc(F)ccc21 (protonated)
O=S1(=O)N=C(Nc2cccc([O-])c2)Nc2cc(F)ccc21 (3D coordinates assigned)
O=S1(=O)N=C(Nc2cccc([O-])c2)Nc2cc(F)ccc21 (nonaromatic ring conformer: 41.7273950268869 kcal/mol)

>  <smiles>  (75) 
O=S1(=O)N=C(Nc2cccc(O)c2)Nc2cc(F)ccc21

>  <score_type>  (75) 
oracle

>  <origin>  (75) 
adg

>  <m_score__min__energy>  (75) 
-11.380000000000001

>  <m_primary>  (75) 
energy

$$$$
75:0
     RDKit          3D

 50 53  0  0  0  0  0  0  0  0999 V2000
   59.8466   23.6090   45.6507 H   0  0  0  0  0  0  0  0  0  0  0  0
   58.9630   24.2630   45.6890 C   0  0  0  0  0  0  0  0  0  0  0  0
   59.0870   25.5420   46.0570 C   0  0  0  0  0  0  0  0  0  0  0  0
   60.0770   25.9326   46.3351 H   0  0  0  0  0  0  0  0  0  0  0  0
   57.9010   26.4480   46.0960 C   0  0  0  0  0  0  0  0  0  0  0  0
   58.0340   27.7890   46.1790 C   0  0  0  0  0  0  0  0  0  0  0  0
   58.4742   28.2054   47.0971 H   0  0  0  0  0  0  0  0  0  0  0  0
   57.6270   28.7360   45.1170 C   0  0  0  0  0  0  0  0  0  0  0  0
   57.3490   28.2430   43.8340 C   0  0  0  0  0  0  0  0  0  0  0  0
   57.4030   27.1617   43.6396 H   0  0  0  0  0  0  0  0  0  0  0  0
   57.0040   29.1180   42.8020 C   0  0  0  0  0  0  0  0  0  0  0  0
   56.7720   28.7230   41.8019 H   0  0  0  0  0  0  0  0  0  0  0  0
   56.9530   30.4930   43.0370 C   0  0  0  0  0  0  0  0  0  0  0  0
   56.6736   31.1788   42.2236 H   0  0  0  0  0  0  0  0  0  0  0  0
   57.2560   31.0000   44.3030 C   0  0  0  0  0  0  0  0  0  0  0  0
   57.2205   32.0848   44.4817 H   0  0  0  0  0  0  0  0  0  0  0  0
   57.6070   30.1270   45.3520 C   0  0  0  0  0  0  0  0  0  0  0  0
   57.9490   30.5990   46.6280 O   0  0  0  0  0  0  0  0  0  0  0  0
   59.2550   30.9780   47.0460 C   0  0  0  0  0  0  0  0  0  0  0  0
   59.4048   30.6923   48.0976 H   0  0  0  0  0  0  0  0  0  0  0  0
   60.0094   30.4699   46.4273 H   0  0  0  0  0  0  0  0  0  0  0  0
   59.3920   32.4660   46.9020 C   0  0  0  0  0  0  0  0  0  0  0  0
   59.2690   33.0820   45.6450 C   0  0  0  0  0  0  0  0  0  0  0  0
   59.0920   32.4691   44.7489 H   0  0  0  0  0  0  0  0  0  0  0  0
   59.3710   34.4720   45.5300 C   0  0  0  0  0  0  0  0  0  0  0  0
   59.2825   34.9490   44.5427 H   0  0  0  0  0  0  0  0  0  0  0  0
   59.5850   35.2560   46.6660 C   0  0  0  0  0  0  0  0  0  0  0  0
   59.6655   36.3491   46.5725 H   0  0  0  0  0  0  0  0  0  0  0  0
   59.6970   34.6520   47.9220 C   0  0  0  0  0  0  0  0  0  0  0  0
   59.8584   35.2707   48.8171 H   0  0  0  0  0  0  0  0  0  0  0  0
   59.6040   33.2620   48.0410 C   0  0  0  0  0  0  0  0  0  0  0  0
   59.6971   32.7894   49.0299 H   0  0  0  0  0  0  0  0  0  0  0  0
   56.5450   25.8280   46.0400 C   0  0  0  0  0  0  0  0  0  0  0  0
   55.5120   26.5520   46.0250 O   0  0  0  0  0  0  0  0  0  0  0  0
   56.4220   24.3130   46.0800 C   0  0  2  0  0  0  0  0  0  0  0  0
   56.4960   23.8770   47.5590 C   0  0  0  0  0  0  0  0  0  0  0  0
   56.3473   24.7531   48.2074 H   0  0  0  0  0  0  0  0  0  0  0  0
   55.7112   23.1333   47.7617 H   0  0  0  0  0  0  0  0  0  0  0  0
   57.4822   23.4339   47.7617 H   0  0  0  0  0  0  0  0  0  0  0  0
   57.6330   23.7360   45.3350 C   0  0  0  0  0  0  0  0  0  0  0  0
   57.5190   22.9590   44.2480 C   0  0  0  0  0  0  0  0  0  0  0  0
   58.4074   22.4462   43.8509 H   0  0  0  0  0  0  0  0  0  0  0  0
   56.2250   22.7850   43.5830 C   0  0  0  0  0  0  0  0  0  0  0  0
   56.1040   21.9710   42.6290 O   0  0  0  0  0  0  0  0  0  0  0  0
   55.0800   23.6630   43.9780 C   0  0  0  0  0  0  0  0  0  0  0  0
   54.1355   23.2140   43.6368 H   0  0  0  0  0  0  0  0  0  0  0  0
   55.1942   24.6548   43.5163 H   0  0  0  0  0  0  0  0  0  0  0  0
   55.0630   23.7990   45.4980 C   0  0  0  0  0  0  0  0  0  0  0  0
   54.8441   22.8139   45.9359 H   0  0  0  0  0  0  0  0  0  0  0  0
   54.2930   24.5417   45.7538 H   0  0  0  0  0  0  0  0  0  0  0  0
  1  2  1  0
  2  3  2  0
  3  4  1  0
  3  5  1  0
  5  6  2  0
  6  7  1  0
  6  8  1  0
  8  9  2  0
  9 10  1  0
  9 11  1  0
 11 12  1  0
 11 13  2  0
 13 14  1  0
 13 15  1  0
 15 16  1  0
 15 17  2  0
 17 18  1  0
 18 19  1  0
 19 20  1  0
 19 21  1  0
 19 22  1  0
 22 23  2  0
 23 24  1  0
 23 25  1  0
 25 26  1  0
 25 27  2  0
 27 28  1  0
 27 29  1  0
 29 30  1  0
 29 31  2  0
 31 32  1  0
  5 33  1  0
 33 34  2  0
 33 35  1  0
 35 36  1  1
 36 37  1  0
 36 38  1  0
 36 39  1  0
 35 40  1  0
 40 41  2  0
 41 42  1  0
 41 43  1  0
 43 44  2  0
 43 45  1  0
 45 46  1  0
 45 47  1  0
 45 48  1  0
 48 49  1  0
 48 50  1  0
 40  2  1  0
 17  8  1  0
 31 22  1  0
 48 35  1  0
M  END
>  <UniqueID>  (76) 
72

>  <SMILES>  (76) 
C[C@]12CCC(=O)C=C1C=C/C(=C\c1ccccc1OCc1ccccc1)C2=O

>  <Energy>  (76) 
66.18781968622505

>  <Genealogy>  (76) 
C[C@]12CCC(=O)C=C1C=CC(=Cc1ccccc1OCc1ccccc1)C2=O (chirality)
C[C@]12CCC(=O)C=C1C=C/C(=C\c1ccccc1OCc1ccccc1)C2=O (cis-trans isomerization)
C[C@]12CCC(=O)C=C1C=C/C(=C\c1ccccc1OCc1ccccc1)C2=O (3D coordinates assigned)
C[C@]12CCC(=O)C=C1C=C/C(=C\c1ccccc1OCc1ccccc1)C2=O (nonaromatic ring conformer: 66.18781968622505 kcal/mol)

>  <smiles>  (76) 
CC12CCC(=O)C=C1C=CC(=Cc1ccccc1OCc1ccccc1)C2=O

>  <score_type>  (76) 
oracle

>  <origin>  (76) 
adg

>  <m_score__min__energy>  (76) 
-10.279999999999999

>  <m_primary>  (76) 
energy

$$$$
76:0
     RDKit          3D

 50 53  0  0  0  0  0  0  0  0999 V2000
   53.6970   23.7930   44.2300 O   0  0  0  0  0  0  0  0  0  0  0  0
   54.6260   24.3250   44.8840 C   0  0  0  0  0  0  0  0  0  0  0  0
   54.3590   25.4250   45.6280 N   0  0  0  0  0  0  0  0  0  0  0  0
   55.2950   26.0170   46.3540 N   0  0  0  0  0  0  0  0  0  0  0  0
   56.5690   25.5530   46.4010 C   0  0  0  0  0  0  0  0  0  0  0  0
   57.5320   26.2810   47.3030 C   0  0  0  0  0  0  0  0  0  0  0  0
   58.4930   27.1550   46.5260 C   0  0  0  0  0  0  0  0  0  0  0  0
   59.8520   27.1910   46.8890 C   0  0  0  0  0  0  0  0  0  0  0  0
   60.7440   28.0230   46.2080 C   0  0  0  0  0  0  0  0  0  0  0  0
   60.2960   28.8350   45.1640 C   0  0  0  0  0  0  0  0  0  0  0  0
   58.9500   28.8130   44.7840 C   0  0  0  0  0  0  0  0  0  0  0  0
   58.4780   29.6810   43.7480 N   0  0  0  0  0  0  0  0  0  0  0  0
   57.2450   30.8640   44.0270 S   0  0  0  0  0  0  0  0  0  0  0  0
   56.1550   30.2320   44.8600 O   0  0  0  0  0  0  0  0  0  0  0  0
   56.6460   31.3170   42.7140 O   0  0  0  0  0  0  0  0  0  0  0  0
   57.8990   32.2430   44.9100 C   0  0  0  0  0  0  0  0  0  0  0  0
   58.1000   33.4580   44.2550 C   0  0  0  0  0  0  0  0  0  0  0  0
   58.6000   34.5610   44.9520 C   0  0  0  0  0  0  0  0  0  0  0  0
   58.8690   34.4650   46.3130 C   0  0  0  0  0  0  0  0  0  0  0  0
   58.6550   33.2560   46.9920 C   0  0  0  0  0  0  0  0  0  0  0  0
   58.9240   33.1660   48.3910 N   0  0  0  0  0  0  0  0  0  0  0  0
   59.6260   34.0310   48.9490 O   0  0  0  0  0  0  0  0  0  0  0  0
   58.4540   32.0980   49.1290 O   0  0  0  0  0  0  0  0  0  0  0  0
   58.1770   32.1440   46.2760 C   0  0  0  0  0  0  0  0  0  0  0  0
   58.0500   27.9440   45.4390 C   0  0  0  0  0  0  0  0  0  0  0  0
   56.7180   27.8680   45.0300 O   0  0  0  0  0  0  0  0  0  0  0  0
   56.9080   24.3890   45.6790 C   0  0  0  0  0  0  0  0  0  0  0  0
   55.9160   23.7830   44.8770 C   0  0  0  0  0  0  0  0  0  0  0  0
   56.1720   22.4910   44.1320 C   0  0  0  0  0  0  0  0  0  0  0  0
   57.6530   22.2030   43.9250 C   0  0  0  0  0  0  0  0  0  0  0  0
   58.4150   22.3990   45.2290 C   0  0  0  0  0  0  0  0  0  0  0  0
   58.3250   23.8530   45.6860 C   0  0  0  0  0  0  0  0  0  0  0  0
   56.9586   26.9140   47.9962 H   0  0  0  0  0  0  0  0  0  0  0  0
   58.1228   25.5277   47.8447 H   0  0  0  0  0  0  0  0  0  0  0  0
   60.2143   26.5601   47.7141 H   0  0  0  0  0  0  0  0  0  0  0  0
   61.8055   28.0386   46.4959 H   0  0  0  0  0  0  0  0  0  0  0  0
   61.0035   29.4937   44.6390 H   0  0  0  0  0  0  0  0  0  0  0  0
   57.8637   33.5483   43.1845 H   0  0  0  0  0  0  0  0  0  0  0  0
   58.7814   35.5080   44.4226 H   0  0  0  0  0  0  0  0  0  0  0  0
   59.2509   35.3401   46.8592 H   0  0  0  0  0  0  0  0  0  0  0  0
   58.0205   31.1874   46.7960 H   0  0  0  0  0  0  0  0  0  0  0  0
   56.2860   27.0040   44.7050 H   0  0  0  0  0  0  0  0  0  0  0  0
   55.7314   21.6627   44.7063 H   0  0  0  0  0  0  0  0  0  0  0  0
   55.7155   22.5911   43.1362 H   0  0  0  0  0  0  0  0  0  0  0  0
   57.7769   21.1644   43.5845 H   0  0  0  0  0  0  0  0  0  0  0  0
   58.0510   22.8963   43.1694 H   0  0  0  0  0  0  0  0  0  0  0  0
   57.9817   21.7485   46.0030 H   0  0  0  0  0  0  0  0  0  0  0  0
   59.4720   22.1414   45.0662 H   0  0  0  0  0  0  0  0  0  0  0  0
   58.7216   23.9239   46.7096 H   0  0  0  0  0  0  0  0  0  0  0  0
   58.9091   24.4577   44.9766 H   0  0  0  0  0  0  0  0  0  0  0  0
  1  2  2  0
  2  3  1  0
  3  4  1  0
  4  5  2  0
  5  6  1  0
  6  7  1  0
  7  8  2  0
  8  9  1  0
  9 10  2  0
 10 11  1  0
 11 12  1  0
 12 13  1  0
 13 14  2  0
 13 15  2  0
 13 16  1  0
 16 17  2  0
 17 18  1  0
 18 19  2  0
 19 20  1  0
 20 21  1  0
 21 22  2  0
 21 23  1  0
 20 24  2  0
 11 25  2  0
 25 26  1  0
  5 27  1  0
 27 28  2  0
 28 29  1  0
 29 30  1  0
 30 31  1  0
 31 32  1  0
 28  2  1  0
 25  7  1  0
 32 27  1  0
 24 16  1  0
  6 33  1  0
  6 34  1  0
  8 35  1  0
  9 36  1  0
 10 37  1  0
 17 38  1  0
 18 39  1  0
 19 40  1  0
 24 41  1  0
 26 42  1  0
 29 43  1  0
 29 44  1  0
 30 45  1  0
 30 46  1  0
 31 47  1  0
 31 48  1  0
 32 49  1  0
 32 50  1  0
M  CHG  4   3  -1  12  -1  21   1  23  -1
M  END
>  <UniqueID>  (77) 
73

>  <SMILES>  (77) 
O=c1[n-]nc(Cc2cccc([N-]S(=O)(=O)c3cccc([N+](=O)[O-])c3)c2O)c2c1CCCC2

>  <Energy>  (77) 
63.81916029196963

>  <Genealogy>  (77) 
O=c1[n-]nc(Cc2cccc([N-]S(=O)(=O)c3cccc([N+](=O)[O-])c3)c2O)c2c1CCCC2 (protonated)
O=c1[n-]nc(Cc2cccc([N-]S(=O)(=O)c3cccc([N+](=O)[O-])c3)c2O)c2c1CCCC2 (3D coordinates assigned)
O=c1[n-]nc(Cc2cccc([N-]S(=O)(=O)c3cccc([N+](=O)[O-])c3)c2O)c2c1CCCC2 (nonaromatic ring conformer: 63.81916029196963 kcal/mol)

>  <smiles>  (77) 
O=c1[nH]nc(Cc2cccc(NS(=O)(=O)c3cccc([N+](=O)[O-])c3)c2O)c2c1CCCC2

>  <score_type>  (77) 
oracle

>  <origin>  (77) 
adg

>  <m_score__min__energy>  (77) 
-13.81

>  <m_primary>  (77) 
energy

$$$$
77:0
     RDKit          3D

 58 62  0  0  0  0  0  0  0  0999 V2000
   59.4840   27.3650   48.0660 C   0  0  0  0  0  0  0  0  0  0  0  0
   58.6590   27.7470   47.0750 C   0  0  0  0  0  0  0  0  0  0  0  0
   57.6400   26.9850   46.4990 C   0  0  0  0  0  0  0  0  0  0  0  0
   57.2520   25.7480   46.8590 C   0  0  0  0  0  0  0  0  0  0  0  0
   56.3930   24.8720   46.0420 C   0  0  0  0  0  0  0  0  0  0  0  0
   56.7160   23.6030   45.6750 N   0  0  0  0  0  0  0  0  0  0  0  0
   55.6030   23.1190   45.0780 C   0  0  0  0  0  0  0  0  0  0  0  0
   55.5060   21.8270   44.5630 O   0  0  0  0  0  0  0  0  0  0  0  0
   54.5900   24.0520   45.0510 C   0  0  0  0  0  0  0  0  0  0  0  0
   53.2240   23.8630   44.5470 C   0  0  0  0  0  0  0  0  0  0  0  0
   52.0890   23.6650   45.4980 C   0  0  0  0  0  0  0  0  0  0  0  0
   53.0290   23.7240   43.3140 O   0  0  0  0  0  0  0  0  0  0  0  0
   55.0920   25.1600   45.6860 C   0  0  0  0  0  0  0  0  0  0  0  0
   54.4020   26.3390   45.9630 O   0  0  0  0  0  0  0  0  0  0  0  0
   57.0460   27.7900   45.5290 C   0  0  0  0  0  0  0  0  0  0  0  0
   57.7240   28.9960   45.5500 C   0  0  0  0  0  0  0  0  0  0  0  0
   57.3680   30.1850   44.7090 C   0  0  0  0  0  0  0  0  0  0  0  0
   58.6960   28.9710   46.4900 N   0  0  0  0  0  0  0  0  0  0  0  0
   59.5970   30.0460   46.8000 C   0  0  0  0  0  0  0  0  0  0  0  0
   59.1080   31.2220   47.3780 C   0  0  0  0  0  0  0  0  0  0  0  0
   59.9720   32.2810   47.6530 C   0  0  0  0  0  0  0  0  0  0  0  0
   61.3360   32.1910   47.3280 C   0  0  0  0  0  0  0  0  0  0  0  0
   62.2540   33.3190   47.6050 C   0  0  0  0  0  0  0  0  0  0  0  0
   62.3520   34.2530   46.7600 O   0  0  0  0  0  0  0  0  0  0  0  0
   63.0550   33.3630   48.8000 N   0  0  0  0  0  0  0  0  0  0  0  0
   62.3910   33.5650   50.1100 C   0  0  0  0  0  0  0  0  0  0  0  0
   63.3240   34.2080   51.1410 C   0  0  0  0  0  0  0  0  0  0  0  0
   64.6060   33.5290   51.1050 N   0  0  0  0  0  0  0  0  0  0  0  0
   65.5110   33.3840   52.0870 C   0  0  0  0  0  0  0  0  0  0  0  0
   66.6300   32.7990   51.5300 C   0  0  0  0  0  0  0  0  0  0  0  0
   66.4370   32.6000   50.2020 N   0  0  0  0  0  0  0  0  0  0  0  0
   65.1840   33.0560   49.9960 C   0  0  0  0  0  0  0  0  0  0  0  0
   64.4980   33.0870   48.6650 C   0  0  0  0  0  0  0  0  0  0  0  0
   61.8300   31.0000   46.7730 C   0  0  0  0  0  0  0  0  0  0  0  0
   60.9640   29.9330   46.5090 C   0  0  0  0  0  0  0  0  0  0  0  0
   60.2530   28.0574   48.4391 H   0  0  0  0  0  0  0  0  0  0  0  0
   59.3898   26.3602   48.5035 H   0  0  0  0  0  0  0  0  0  0  0  0
   57.5996   25.3641   47.8295 H   0  0  0  0  0  0  0  0  0  0  0  0
   56.3000   21.2000   44.5830 H   0  0  0  0  0  0  0  0  0  0  0  0
   52.4608   23.7299   46.5312 H   0  0  0  0  0  0  0  0  0  0  0  0
   51.3309   24.4445   45.3315 H   0  0  0  0  0  0  0  0  0  0  0  0
   51.6396   22.6749   45.3315 H   0  0  0  0  0  0  0  0  0  0  0  0
   56.2037   27.5198   44.8751 H   0  0  0  0  0  0  0  0  0  0  0  0
   57.1141   31.0331   45.3619 H   0  0  0  0  0  0  0  0  0  0  0  0
   58.2248   30.4548   44.0740 H   0  0  0  0  0  0  0  0  0  0  0  0
   56.5040   29.9395   44.0740 H   0  0  0  0  0  0  0  0  0  0  0  0
   58.0379   31.3116   47.6164 H   0  0  0  0  0  0  0  0  0  0  0  0
   59.5830   33.1938   48.1279 H   0  0  0  0  0  0  0  0  0  0  0  0
   61.5177   34.2183   49.9670 H   0  0  0  0  0  0  0  0  0  0  0  0
   62.0950   32.5774   50.4934 H   0  0  0  0  0  0  0  0  0  0  0  0
   63.4632   35.2721   50.8996 H   0  0  0  0  0  0  0  0  0  0  0  0
   62.8848   34.1206   52.1457 H   0  0  0  0  0  0  0  0  0  0  0  0
   65.3838   33.6771   53.1396 H   0  0  0  0  0  0  0  0  0  0  0  0
   67.5438   32.5332   52.0816 H   0  0  0  0  0  0  0  0  0  0  0  0
   64.9550   33.8739   48.0469 H   0  0  0  0  0  0  0  0  0  0  0  0
   64.6153   32.0988   48.1962 H   0  0  0  0  0  0  0  0  0  0  0  0
   62.9019   30.9051   46.5448 H   0  0  0  0  0  0  0  0  0  0  0  0
   61.3567   29.0031   46.0720 H   0  0  0  0  0  0  0  0  0  0  0  0
  1  2  2  0
  2  3  1  0
  3  4  2  3
  4  5  1  0
  5  6  1  0
  6  7  1  0
  7  8  1  0
  7  9  2  0
  9 10  1  0
 10 11  1  0
 10 12  2  0
  9 13  1  0
 13 14  1  0
  3 15  1  0
 15 16  2  0
 16 17  1  0
 16 18  1  0
 18 19  1  0
 19 20  2  0
 20 21  1  0
 21 22  2  0
 22 23  1  0
 23 24  2  0
 23 25  1  0
 25 26  1  0
 26 27  1  0
 27 28  1  0
 28 29  1  0
 29 30  2  0
 30 31  1  0
 31 32  2  0
 32 33  1  0
 22 34  1  0
 34 35  2  0
 18  2  1  0
 35 19  1  0
 13  5  2  0
 33 25  1  0
 32 28  1  0
  1 36  1  0
  1 37  1  0
  4 38  1  0
  8 39  1  0
 11 40  1  0
 11 41  1  0
 11 42  1  0
 15 43  1  0
 17 44  1  0
 17 45  1  0
 17 46  1  0
 20 47  1  0
 21 48  1  0
 26 49  1  0
 26 50  1  0
 27 51  1  0
 27 52  1  0
 29 53  1  0
 30 54  1  0
 33 55  1  0
 33 56  1  0
 34 57  1  0
 35 58  1  0
M  CHG  2   6  -1  14  -1
M  END
>  <UniqueID>  (78) 
74

>  <SMILES>  (78) 
C=c1c(=Cc2[n-]c(O)c(C(C)=O)c2[O-])cc(C)n1-c1ccc(C(=O)N2CCn3ccnc3C2)cc1

>  <Energy>  (78) 
172.73562244622062

>  <Genealogy>  (78) 
C=c1c(=Cc2[n-]c(O)c(C(C)=O)c2[O-])cc(C)n1-c1ccc(C(=O)N2CCn3ccnc3C2)cc1 (protonated)
C=c1c(=Cc2[n-]c(O)c(C(C)=O)c2[O-])cc(C)n1-c1ccc(C(=O)N2CCn3ccnc3C2)cc1 (3D coordinates assigned)
C=c1c(=Cc2[n-]c(O)c(C(C)=O)c2[O-])cc(C)n1-c1ccc(C(=O)N2CCn3ccnc3C2)cc1 (nonaromatic ring conformer: 172.73562244622062 kcal/mol)

>  <smiles>  (78) 
C=c1c(=Cc2[nH]c(O)c(C(C)=O)c2O)cc(C)n1-c1ccc(C(=O)N2CCn3ccnc3C2)cc1

>  <score_type>  (78) 
oracle

>  <origin>  (78) 
adg

>  <m_score__min__energy>  (78) 
-13.5

>  <m_primary>  (78) 
energy

$$$$
78:0
     RDKit          3D

 41 43  0  0  0  0  0  0  0  0999 V2000
   55.3990   29.4290   45.1280 N   0  0  0  0  0  0  0  0  0  0  0  0
   56.2510   28.2940   45.2640 C   0  0  0  0  0  0  0  0  0  0  0  0
   55.7590   27.1820   45.5960 O   0  0  0  0  0  0  0  0  0  0  0  0
   57.6950   28.4220   44.9970 C   0  0  0  0  0  0  0  0  0  0  0  0
   58.1000   28.4430   43.8040 O   0  0  0  0  0  0  0  0  0  0  0  0
   58.6830   28.5090   46.1000 C   0  0  0  0  0  0  0  0  0  0  0  0
   59.0650   27.3650   46.8350 C   0  0  0  0  0  0  0  0  0  0  0  0
   58.4380   26.0430   46.5880 C   0  0  0  0  0  0  0  0  0  0  0  0
   58.9330   25.1070   45.7640 C   0  0  0  0  0  0  0  0  0  0  0  0
   58.1200   24.1560   44.9720 C   0  0  0  0  0  0  0  0  0  0  0  0
   58.0760   22.7910   45.3110 C   0  0  0  0  0  0  0  0  0  0  0  0
   57.3310   21.8950   44.5410 C   0  0  0  0  0  0  0  0  0  0  0  0
   56.6410   22.3460   43.4120 C   0  0  0  0  0  0  0  0  0  0  0  0
   55.9000   21.4530   42.6480 O   0  0  0  0  0  0  0  0  0  0  0  0
   56.7010   23.6940   43.0510 C   0  0  0  0  0  0  0  0  0  0  0  0
   57.4440   24.6020   43.8210 C   0  0  0  0  0  0  0  0  0  0  0  0
   57.5030   25.9460   43.4500 O   0  0  0  0  0  0  0  0  0  0  0  0
   59.9700   27.4730   47.8040 O   0  0  0  0  0  0  0  0  0  0  0  0
   60.5670   28.6150   48.1190 C   0  0  0  0  0  0  0  0  0  0  0  0
   60.2640   29.7950   47.4320 C   0  0  0  0  0  0  0  0  0  0  0  0
   60.9550   31.0590   47.7900 C   0  0  0  0  0  0  0  0  0  0  0  0
   60.3660   31.9540   48.7010 C   0  0  0  0  0  0  0  0  0  0  0  0
   61.0180   33.1410   49.0480 C   0  0  0  0  0  0  0  0  0  0  0  0
   62.2660   33.4430   48.4960 C   0  0  0  0  0  0  0  0  0  0  0  0
   62.9100   34.6240   48.8440 O   0  0  0  0  0  0  0  0  0  0  0  0
   62.8650   32.5560   47.5960 C   0  0  0  0  0  0  0  0  0  0  0  0
   64.0800   32.8420   47.0640 F   0  0  0  0  0  0  0  0  0  0  0  0
   62.2150   31.3680   47.2460 C   0  0  0  0  0  0  0  0  0  0  0  0
   59.3030   29.7360   46.4070 C   0  0  0  0  0  0  0  0  0  0  0  0
   58.9970   30.7780   45.7640 O   0  0  0  0  0  0  0  0  0  0  0  0
   54.4310   29.3300   44.7510 H   0  0  0  0  0  0  0  0  0  0  0  0
   57.5015   25.8143   47.1177 H   0  0  0  0  0  0  0  0  0  0  0  0
   60.0269   25.0410   45.6695 H   0  0  0  0  0  0  0  0  0  0  0  0
   58.6318   22.4274   46.1879 H   0  0  0  0  0  0  0  0  0  0  0  0
   57.2871   20.8328   44.8234 H   0  0  0  0  0  0  0  0  0  0  0  0
   56.1630   24.0457   42.1584 H   0  0  0  0  0  0  0  0  0  0  0  0
   56.8340   26.6230   43.7970 H   0  0  0  0  0  0  0  0  0  0  0  0
   61.3094   28.6341   48.9304 H   0  0  0  0  0  0  0  0  0  0  0  0
   59.3866   31.7187   49.1431 H   0  0  0  0  0  0  0  0  0  0  0  0
   60.5479   33.8386   49.7568 H   0  0  0  0  0  0  0  0  0  0  0  0
   62.6919   30.6711   46.5411 H   0  0  0  0  0  0  0  0  0  0  0  0
  1  2  1  0
  2  3  2  0
  2  4  1  0
  4  5  2  0
  4  6  1  0
  6  7  2  0
  7  8  1  0
  8  9  2  3
  9 10  1  0
 10 11  2  0
 11 12  1  0
 12 13  2  0
 13 14  1  0
 13 15  1  0
 15 16  2  0
 16 17  1  0
  7 18  1  0
 18 19  1  0
 19 20  2  0
 20 21  1  0
 21 22  2  0
 22 23  1  0
 23 24  2  0
 24 25  1  0
 24 26  1  0
 26 27  1  0
 26 28  2  0
 20 29  1  0
 29 30  2  0
 29  6  1  0
 16 10  1  0
 28 21  1  0
  1 31  1  0
  8 32  1  0
  9 33  1  0
 11 34  1  0
 12 35  1  0
 15 36  1  0
 17 37  1  0
 19 38  1  0
 22 39  1  0
 23 40  1  0
 28 41  1  0
M  CHG  3   1  -1  14  -1  25  -1
M  END
>  <UniqueID>  (79) 
75

>  <SMILES>  (79) 
[NH-]C(=O)C(=O)c1c(C=Cc2ccc([O-])cc2O)occ(-c2ccc([O-])c(F)c2)c1=O

>  <Energy>  (79) 
67.21812402070049

>  <Genealogy>  (79) 
[NH-]C(=O)C(=O)c1c(C=Cc2ccc([O-])cc2O)occ(-c2ccc([O-])c(F)c2)c1=O (protonated)
[NH-]C(=O)C(=O)c1c(C=Cc2ccc([O-])cc2O)occ(-c2ccc([O-])c(F)c2)c1=O (3D coordinates assigned)
[NH-]C(=O)C(=O)c1c(C=Cc2ccc([O-])cc2O)occ(-c2ccc([O-])c(F)c2)c1=O (optimized conformer: 67.21812402070049 kcal/mol)

>  <smiles>  (79) 
NC(=O)C(=O)c1c(C=Cc2ccc(O)cc2O)occ(-c2ccc(O)c(F)c2)c1=O

>  <score_type>  (79) 
oracle

>  <origin>  (79) 
adg

>  <m_score__min__energy>  (79) 
-15.1

>  <m_primary>  (79) 
energy

$$$$
79:0
     RDKit          3D

 51 54  0  0  0  0  0  0  0  0999 V2000
   57.7520   25.1910   44.8670 C   0  0  0  0  0  0  0  0  0  0  0  0
   58.4920   25.0810   46.1350 N   0  0  0  0  0  0  0  0  0  0  0  0
   57.7260   25.6830   47.2560 C   0  0  0  0  0  0  0  0  0  0  0  0
   58.1120   27.1130   47.5080 C   0  0  0  0  0  0  0  0  0  0  0  0
   59.4070   27.4440   47.5270 C   0  0  0  0  0  0  0  0  0  0  0  0
   59.8590   28.8320   47.7860 C   0  0  0  0  0  0  0  0  0  0  0  0
   59.9730   29.3500   49.0230 N   0  0  0  0  0  0  0  0  0  0  0  0
   60.3340   30.6180   48.9120 N   0  0  0  0  0  0  0  0  0  0  0  0
   60.4310   30.8700   47.5910 C   0  0  0  0  0  0  0  0  0  0  0  0
   60.7950   32.2240   47.0470 C   0  0  0  0  0  0  0  0  0  0  0  0
   59.6000   32.9260   46.4590 C   0  0  0  0  0  0  0  0  0  0  0  0
   58.3060   32.6300   46.9190 C   0  0  0  0  0  0  0  0  0  0  0  0
   57.1970   33.2870   46.3770 C   0  0  0  0  0  0  0  0  0  0  0  0
   57.3710   34.2490   45.3780 C   0  0  0  0  0  0  0  0  0  0  0  0
   56.2930   34.8780   44.8490 F   0  0  0  0  0  0  0  0  0  0  0  0
   58.6570   34.5640   44.9270 C   0  0  0  0  0  0  0  0  0  0  0  0
   59.7690   33.9120   45.4690 C   0  0  0  0  0  0  0  0  0  0  0  0
   60.1470   29.7710   46.8510 N   0  0  0  0  0  0  0  0  0  0  0  0
   60.1060   29.6590   45.3870 C   0  0  0  0  0  0  0  0  0  0  0  0
   58.7240   29.9160   44.8260 C   0  0  0  0  0  0  0  0  0  0  0  0
   57.6800   29.0410   45.1680 C   0  0  0  0  0  0  0  0  0  0  0  0
   56.3920   29.2410   44.6630 C   0  0  0  0  0  0  0  0  0  0  0  0
   56.1370   30.3090   43.8000 C   0  0  0  0  0  0  0  0  0  0  0  0
   57.1710   31.1740   43.4340 C   0  0  0  0  0  0  0  0  0  0  0  0
   58.4600   30.9770   43.9370 C   0  0  0  0  0  0  0  0  0  0  0  0
   60.4010   26.3650   47.1950 C   0  0  0  0  0  0  0  0  0  0  0  0
   59.8930   25.5710   45.9790 C   0  0  0  0  0  0  0  0  0  0  0  0
   56.6842   25.3497   45.0782 H   0  0  0  0  0  0  0  0  0  0  0  0
   58.1415   26.0411   44.2877 H   0  0  0  0  0  0  0  0  0  0  0  0
   57.8774   24.2643   44.2877 H   0  0  0  0  0  0  0  0  0  0  0  0
   56.6539   25.6436   47.0131 H   0  0  0  0  0  0  0  0  0  0  0  0
   57.9534   25.1080   48.1657 H   0  0  0  0  0  0  0  0  0  0  0  0
   57.3390   27.8777   47.6747 H   0  0  0  0  0  0  0  0  0  0  0  0
   59.8190   28.8600   49.9310 H   0  0  0  0  0  0  0  0  0  0  0  0
   61.2037   32.8382   47.8629 H   0  0  0  0  0  0  0  0  0  0  0  0
   61.5388   32.0848   46.2486 H   0  0  0  0  0  0  0  0  0  0  0  0
   58.1646   31.8779   47.7092 H   0  0  0  0  0  0  0  0  0  0  0  0
   56.1860   33.0464   46.7374 H   0  0  0  0  0  0  0  0  0  0  0  0
   58.7938   35.3255   44.1451 H   0  0  0  0  0  0  0  0  0  0  0  0
   60.7797   34.1707   45.1203 H   0  0  0  0  0  0  0  0  0  0  0  0
   60.8036   30.3929   44.9571 H   0  0  0  0  0  0  0  0  0  0  0  0
   60.3889   28.6296   45.1218 H   0  0  0  0  0  0  0  0  0  0  0  0
   57.8774   28.1916   45.8385 H   0  0  0  0  0  0  0  0  0  0  0  0
   55.5786   28.5566   44.9456 H   0  0  0  0  0  0  0  0  0  0  0  0
   55.1216   30.4691   43.4084 H   0  0  0  0  0  0  0  0  0  0  0  0
   56.9705   32.0111   42.7491 H   0  0  0  0  0  0  0  0  0  0  0  0
   59.2733   31.6542   43.6371 H   0  0  0  0  0  0  0  0  0  0  0  0
   61.3738   26.8204   46.9576 H   0  0  0  0  0  0  0  0  0  0  0  0
   60.5180   25.6905   48.0560 H   0  0  0  0  0  0  0  0  0  0  0  0
   59.9382   26.2222   45.0936 H   0  0  0  0  0  0  0  0  0  0  0  0
   60.5375   24.6855   45.8768 H   0  0  0  0  0  0  0  0  0  0  0  0
  1  2  1  0
  2  3  1  0
  3  4  1  0
  4  5  2  0
  5  6  1  0
  6  7  2  0
  7  8  1  0
  8  9  2  0
  9 10  1  0
 10 11  1  0
 11 12  2  0
 12 13  1  0
 13 14  2  0
 14 15  1  0
 14 16  1  0
 16 17  2  0
  9 18  1  0
 18 19  1  0
 19 20  1  0
 20 21  2  0
 21 22  1  0
 22 23  2  0
 23 24  1  0
 24 25  2  0
  5 26  1  0
 26 27  1  0
 27  2  1  0
 18  6  1  0
 25 20  1  0
 17 11  1  0
  1 28  1  0
  1 29  1  0
  1 30  1  0
  3 31  1  0
  3 32  1  0
  4 33  1  0
  7 34  1  0
 10 35  1  0
 10 36  1  0
 12 37  1  0
 13 38  1  0
 16 39  1  0
 17 40  1  0
 19 41  1  0
 19 42  1  0
 21 43  1  0
 22 44  1  0
 23 45  1  0
 24 46  1  0
 25 47  1  0
 26 48  1  0
 26 49  1  0
 27 50  1  0
 27 51  1  0
M  CHG  1   7   1
M  END
>  <UniqueID>  (80) 
76

>  <SMILES>  (80) 
CN1CC=C(c2[nH+]nc(Cc3ccc(F)cc3)n2Cc2ccccc2)CC1

>  <Energy>  (80) 
97.88183486435223

>  <Genealogy>  (80) 
CN1CC=C(c2[nH+]nc(Cc3ccc(F)cc3)n2Cc2ccccc2)CC1 (protonated)
CN1CC=C(c2[nH+]nc(Cc3ccc(F)cc3)n2Cc2ccccc2)CC1 (3D coordinates assigned)
CN1CC=C(c2[nH+]nc(Cc3ccc(F)cc3)n2Cc2ccccc2)CC1 (nonaromatic ring conformer: 97.88183486435223 kcal/mol)

>  <smiles>  (80) 
CN1CC=C(c2nnc(Cc3ccc(F)cc3)n2Cc2ccccc2)CC1

>  <score_type>  (80) 
oracle

>  <origin>  (80) 
adg

>  <m_score__min__energy>  (80) 
-7.7800000000000002

>  <m_primary>  (80) 
energy

$$$$
80:0
     RDKit          3D

 61 64  0  0  0  0  0  0  0  0999 V2000
   53.7200   29.6560   54.4460 C   0  0  0  0  0  0  0  0  0  0  0  0
   54.8460   30.4170   53.8800 N   0  0  0  0  0  0  0  0  0  0  0  0
   56.1530   29.8350   54.2880 C   0  0  0  0  0  0  0  0  0  0  0  0
   56.7900   28.9870   53.1730 C   0  0  0  0  0  0  0  0  0  0  0  0
   56.9900   29.7720   51.9310 N   0  0  0  0  0  0  0  0  0  0  0  0
   58.3960   30.1510   51.6490 C   0  0  0  0  0  0  0  0  0  0  0  0
   58.7030   30.3350   50.1740 C   0  0  0  0  0  0  0  0  0  0  0  0
   58.7630   31.6270   49.6200 C   0  0  0  0  0  0  0  0  0  0  0  0
   59.0170   31.8020   48.2580 C   0  0  0  0  0  0  0  0  0  0  0  0
   59.2320   30.6880   47.4240 C   0  0  0  0  0  0  0  0  0  0  0  0
   59.5010   30.8870   45.9540 C   0  0  0  0  0  0  0  0  0  0  0  0
   58.3920   30.3570   45.1430 N   0  0  0  0  0  0  0  0  0  0  0  0
   57.5070   31.3220   44.4740 C   0  0  0  0  0  0  0  0  0  0  0  0
   57.8310   32.7170   44.9180 C   0  0  0  0  0  0  0  0  0  0  0  0
   58.7300   33.5860   44.3280 C   0  0  0  0  0  0  0  0  0  0  0  0
   58.6430   34.7540   45.0590 C   0  0  0  0  0  0  0  0  0  0  0  0
   57.7520   34.6150   46.0200 O   0  0  0  0  0  0  0  0  0  0  0  0
   57.2430   33.4050   45.9600 C   0  0  0  0  0  0  0  0  0  0  0  0
   58.1790   28.9380   44.9340 C   0  0  0  0  0  0  0  0  0  0  0  0
   58.9260   28.3100   44.1270 O   0  0  0  0  0  0  0  0  0  0  0  0
   57.1300   28.2210   45.6110 N   0  0  0  0  0  0  0  0  0  0  0  0
   57.1950   26.8020   45.8730 C   0  0  0  0  0  0  0  0  0  0  0  0
   58.4340   26.1350   45.9770 C   0  0  0  0  0  0  0  0  0  0  0  0
   58.4840   24.7600   46.2410 C   0  0  0  0  0  0  0  0  0  0  0  0
   57.3010   24.0410   46.4200 C   0  0  0  0  0  0  0  0  0  0  0  0
   56.0670   24.6960   46.3470 C   0  0  0  0  0  0  0  0  0  0  0  0
   56.0080   26.0710   46.0830 C   0  0  0  0  0  0  0  0  0  0  0  0
   54.7690   26.7020   46.0270 O   0  0  0  0  0  0  0  0  0  0  0  0
   59.2180   29.3980   47.9820 C   0  0  0  0  0  0  0  0  0  0  0  0
   58.9660   29.2230   49.3460 C   0  0  0  0  0  0  0  0  0  0  0  0
   56.0280   30.8820   51.7440 C   0  0  0  0  0  0  0  0  0  0  0  0
   54.6870   30.5620   52.4130 C   0  0  0  0  0  0  0  0  0  0  0  0
   53.7699   29.6897   55.5443 H   0  0  0  0  0  0  0  0  0  0  0  0
   52.7715   30.0990   54.1083 H   0  0  0  0  0  0  0  0  0  0  0  0
   53.7773   28.6107   54.1083 H   0  0  0  0  0  0  0  0  0  0  0  0
   56.8401   30.6547   54.5450 H   0  0  0  0  0  0  0  0  0  0  0  0
   55.9727   29.1757   55.1499 H   0  0  0  0  0  0  0  0  0  0  0  0
   57.7654   28.6160   53.5208 H   0  0  0  0  0  0  0  0  0  0  0  0
   56.1088   28.1539   52.9452 H   0  0  0  0  0  0  0  0  0  0  0  0
   58.6095   31.0975   52.1672 H   0  0  0  0  0  0  0  0  0  0  0  0
   59.0258   29.3218   52.0036 H   0  0  0  0  0  0  0  0  0  0  0  0
   58.6088   32.5052   50.2641 H   0  0  0  0  0  0  0  0  0  0  0  0
   59.0493   32.8165   47.8340 H   0  0  0  0  0  0  0  0  0  0  0  0
   59.6149   31.9620   45.7505 H   0  0  0  0  0  0  0  0  0  0  0  0
   60.4218   30.3472   45.6878 H   0  0  0  0  0  0  0  0  0  0  0  0
   57.6441   31.2463   43.3852 H   0  0  0  0  0  0  0  0  0  0  0  0
   56.4637   31.0948   44.7382 H   0  0  0  0  0  0  0  0  0  0  0  0
   59.3770   33.3887   43.4606 H   0  0  0  0  0  0  0  0  0  0  0  0
   59.2298   35.6646   44.8678 H   0  0  0  0  0  0  0  0  0  0  0  0
   56.4710   33.0042   46.6333 H   0  0  0  0  0  0  0  0  0  0  0  0
   56.2370   28.7120   45.8410 H   0  0  0  0  0  0  0  0  0  0  0  0
   59.3693   26.6998   45.8496 H   0  0  0  0  0  0  0  0  0  0  0  0
   59.4550   24.2473   46.3072 H   0  0  0  0  0  0  0  0  0  0  0  0
   57.3390   22.9597   46.6184 H   0  0  0  0  0  0  0  0  0  0  0  0
   55.1371   24.1281   46.4978 H   0  0  0  0  0  0  0  0  0  0  0  0
   59.4061   28.5226   47.3429 H   0  0  0  0  0  0  0  0  0  0  0  0
   58.9728   28.2110   49.7770 H   0  0  0  0  0  0  0  0  0  0  0  0
   56.4435   31.7977   52.1900 H   0  0  0  0  0  0  0  0  0  0  0  0
   55.8584   31.0223   50.6662 H   0  0  0  0  0  0  0  0  0  0  0  0
   53.9785   31.3778   52.2069 H   0  0  0  0  0  0  0  0  0  0  0  0
   54.3102   29.6121   52.0059 H   0  0  0  0  0  0  0  0  0  0  0  0
  1  2  1  0
  2  3  1  0
  3  4  1  0
  4  5  1  0
  5  6  1  0
  6  7  1  0
  7  8  2  0
  8  9  1  0
  9 10  2  0
 10 11  1  0
 11 12  1  0
 12 13  1  0
 13 14  1  0
 14 15  1  0
 15 16  2  0
 16 17  1  0
 17 18  1  0
 12 19  1  0
 19 20  2  0
 19 21  1  0
 21 22  1  0
 22 23  2  0
 23 24  1  0
 24 25  2  0
 25 26  1  0
 26 27  2  0
 27 28  1  0
 10 29  1  0
 29 30  2  0
  5 31  1  0
 31 32  1  0
 32  2  1  0
 30  7  1  0
 18 14  2  0
 27 22  1  0
  1 33  1  0
  1 34  1  0
  1 35  1  0
  3 36  1  0
  3 37  1  0
  4 38  1  0
  4 39  1  0
  6 40  1  0
  6 41  1  0
  8 42  1  0
  9 43  1  0
 11 44  1  0
 11 45  1  0
 13 46  1  0
 13 47  1  0
 15 48  1  0
 16 49  1  0
 18 50  1  0
 21 51  1  0
 23 52  1  0
 24 53  1  0
 25 54  1  0
 26 55  1  0
 29 56  1  0
 30 57  1  0
 31 58  1  0
 31 59  1  0
 32 60  1  0
 32 61  1  0
M  CHG  1  28  -1
M  END
>  <UniqueID>  (81) 
77

>  <SMILES>  (81) 
CN1CCN(Cc2ccc(CN(Cc3ccoc3)C(=O)Nc3ccccc3[O-])cc2)CC1

>  <Energy>  (81) 
108.59067037243301

>  <Genealogy>  (81) 
CN1CCN(Cc2ccc(CN(Cc3ccoc3)C(=O)Nc3ccccc3[O-])cc2)CC1 (protonated)
CN1CCN(Cc2ccc(CN(Cc3ccoc3)C(=O)Nc3ccccc3[O-])cc2)CC1 (3D coordinates assigned)
CN1CCN(Cc2ccc(CN(Cc3ccoc3)C(=O)Nc3ccccc3[O-])cc2)CC1 (nonaromatic ring conformer: 108.59067037243301 kcal/mol)

>  <smiles>  (81) 
CN1CCN(Cc2ccc(CN(Cc3ccoc3)C(=O)Nc3ccccc3O)cc2)CC1

>  <score_type>  (81) 
oracle

>  <origin>  (81) 
adg

>  <m_score__min__energy>  (81) 
-12.68

>  <m_primary>  (81) 
energy

$$$$
81:0
     RDKit          3D

 62 66  0  0  0  0  0  0  0  0999 V2000
   59.0220   28.5260   47.1420 C   0  0  0  0  0  0  0  0  0  0  0  0
   58.4490   28.8110   45.9630 C   0  0  0  0  0  0  0  0  0  0  0  0
   57.8680   27.9060   45.0590 C   0  0  0  0  0  0  0  0  0  0  0  0
   57.9040   26.5600   45.0060 C   0  0  0  0  0  0  0  0  0  0  0  0
   57.3460   25.6430   46.0150 C   0  0  0  0  0  0  0  0  0  0  0  0
   57.9980   24.5790   46.5180 N   0  0  0  0  0  0  0  0  0  0  0  0
   57.0570   23.9490   47.2510 C   0  0  0  0  0  0  0  0  0  0  0  0
   57.2940   22.8990   47.9020 O   0  0  0  0  0  0  0  0  0  0  0  0
   55.8380   24.5280   47.2230 N   0  0  0  0  0  0  0  0  0  0  0  0
   56.0340   25.5910   46.4270 C   0  0  0  0  0  0  0  0  0  0  0  0
   55.0280   26.4960   46.0920 O   0  0  0  0  0  0  0  0  0  0  0  0
   57.2190   28.6750   44.1040 C   0  0  0  0  0  0  0  0  0  0  0  0
   57.4710   29.9950   44.4120 C   0  0  0  0  0  0  0  0  0  0  0  0
   56.9950   31.1670   43.6080 C   0  0  0  0  0  0  0  0  0  0  0  0
   58.2320   30.0780   45.5250 N   0  0  0  0  0  0  0  0  0  0  0  0
   58.6600   31.3000   46.1480 C   0  0  0  0  0  0  0  0  0  0  0  0
   57.7490   32.3430   46.3480 C   0  0  0  0  0  0  0  0  0  0  0  0
   58.1880   33.5330   46.9310 C   0  0  0  0  0  0  0  0  0  0  0  0
   59.4880   33.6670   47.3080 N   0  0  0  0  0  0  0  0  0  0  0  0
   60.3920   32.6590   47.1540 C   0  0  0  0  0  0  0  0  0  0  0  0
   61.7630   32.8670   47.5280 N   0  0  0  0  0  0  0  0  0  0  0  0
   62.2420   34.1700   47.9990 C   0  0  0  0  0  0  0  0  0  0  0  0
   62.8850   34.0470   49.3990 C   0  0  0  0  0  0  0  0  0  0  0  0
   63.2810   32.6580   49.7560 N   0  0  0  0  0  0  0  0  0  0  0  0
   62.1990   31.9520   50.4870 C   0  0  0  0  0  0  0  0  0  0  0  0
   60.9790   32.8530   50.7310 C   0  0  0  0  0  0  0  0  0  0  0  0
   59.7310   32.0160   50.8540 C   0  0  0  0  0  0  0  0  0  0  0  0
   59.6840   30.7290   50.2940 C   0  0  0  0  0  0  0  0  0  0  0  0
   58.5000   29.9860   50.3710 C   0  0  0  0  0  0  0  0  0  0  0  0
   57.4040   30.5130   50.9760 N   0  0  0  0  0  0  0  0  0  0  0  0
   57.4190   31.7620   51.5170 C   0  0  0  0  0  0  0  0  0  0  0  0
   58.5810   32.5380   51.4610 C   0  0  0  0  0  0  0  0  0  0  0  0
   63.7870   31.9250   48.5710 C   0  0  0  0  0  0  0  0  0  0  0  0
   62.6980   31.7410   47.4990 C   0  0  0  0  0  0  0  0  0  0  0  0
   59.9870   31.4540   46.5610 C   0  0  0  0  0  0  0  0  0  0  0  0
   59.4424   29.3340   47.7588 H   0  0  0  0  0  0  0  0  0  0  0  0
   59.0714   27.4843   47.4920 H   0  0  0  0  0  0  0  0  0  0  0  0
   58.3934   26.1057   44.1319 H   0  0  0  0  0  0  0  0  0  0  0  0
   54.0690   26.3440   46.3750 H   0  0  0  0  0  0  0  0  0  0  0  0
   56.6178   28.3025   43.2615 H   0  0  0  0  0  0  0  0  0  0  0  0
   56.6692   31.9691   44.2866 H   0  0  0  0  0  0  0  0  0  0  0  0
   57.8154   31.5340   42.9737 H   0  0  0  0  0  0  0  0  0  0  0  0
   56.1511   30.8580   42.9737 H   0  0  0  0  0  0  0  0  0  0  0  0
   56.6969   32.2264   46.0487 H   0  0  0  0  0  0  0  0  0  0  0  0
   57.4824   34.3626   47.0856 H   0  0  0  0  0  0  0  0  0  0  0  0
   62.9905   34.5560   47.2914 H   0  0  0  0  0  0  0  0  0  0  0  0
   61.3855   34.8571   48.0643 H   0  0  0  0  0  0  0  0  0  0  0  0
   63.7830   34.6817   49.4255 H   0  0  0  0  0  0  0  0  0  0  0  0
   62.1259   34.3625   50.1299 H   0  0  0  0  0  0  0  0  0  0  0  0
   61.8827   31.0800   49.8957 H   0  0  0  0  0  0  0  0  0  0  0  0
   62.5960   31.6489   51.4671 H   0  0  0  0  0  0  0  0  0  0  0  0
   61.1278   33.4226   51.6602 H   0  0  0  0  0  0  0  0  0  0  0  0
   60.8665   33.5432   49.8819 H   0  0  0  0  0  0  0  0  0  0  0  0
   60.5711   30.3078   49.7984 H   0  0  0  0  0  0  0  0  0  0  0  0
   58.4572   28.9744   49.9411 H   0  0  0  0  0  0  0  0  0  0  0  0
   56.5149   32.1619   51.9994 H   0  0  0  0  0  0  0  0  0  0  0  0
   58.5922   33.5507   51.8903 H   0  0  0  0  0  0  0  0  0  0  0  0
   64.6235   32.4902   48.1342 H   0  0  0  0  0  0  0  0  0  0  0  0
   64.1109   30.9270   48.9014 H   0  0  0  0  0  0  0  0  0  0  0  0
   63.1704   31.6867   46.5071 H   0  0  0  0  0  0  0  0  0  0  0  0
   62.1464   30.8117   47.7043 H   0  0  0  0  0  0  0  0  0  0  0  0
   60.7086   30.6355   46.4218 H   0  0  0  0  0  0  0  0  0  0  0  0
  1  2  2  0
  2  3  1  0
  3  4  2  3
  4  5  1  0
  5  6  1  0
  6  7  1  0
  7  8  2  0
  7  9  1  0
  9 10  1  0
 10 11  1  0
  3 12  1  0
 12 13  2  0
 13 14  1  0
 13 15  1  0
 15 16  1  0
 16 17  2  0
 17 18  1  0
 18 19  2  0
 19 20  1  0
 20 21  1  0
 21 22  1  0
 22 23  1  0
 23 24  1  0
 24 25  1  0
 25 26  1  0
 26 27  1  0
 27 28  2  0
 28 29  1  0
 29 30  2  0
 30 31  1  0
 31 32  2  0
 24 33  1  0
 33 34  1  0
 20 35  2  0
 15  2  1  0
 35 16  1  0
 10  5  2  0
 34 21  1  0
 32 27  1  0
  1 36  1  0
  1 37  1  0
  4 38  1  0
 11 39  1  0
 12 40  1  0
 14 41  1  0
 14 42  1  0
 14 43  1  0
 17 44  1  0
 18 45  1  0
 22 46  1  0
 22 47  1  0
 23 48  1  0
 23 49  1  0
 25 50  1  0
 25 51  1  0
 26 52  1  0
 26 53  1  0
 28 54  1  0
 29 55  1  0
 31 56  1  0
 32 57  1  0
 33 58  1  0
 33 59  1  0
 34 60  1  0
 34 61  1  0
 35 62  1  0
M  CHG  2   6  -1   9  -1
M  END
>  <UniqueID>  (82) 
78

>  <SMILES>  (82) 
C=c1c(=Cc2[n-]c(=O)[n-]c2O)cc(C)n1-c1ccnc(N2CCN(CCc3ccncc3)CC2)c1

>  <Energy>  (82) 
152.8313089254283

>  <Genealogy>  (82) 
C=c1c(=Cc2[n-]c(=O)[n-]c2O)cc(C)n1-c1ccnc(N2CCN(CCc3ccncc3)CC2)c1 (protonated)
C=c1c(=Cc2[n-]c(=O)[n-]c2O)cc(C)n1-c1ccnc(N2CCN(CCc3ccncc3)CC2)c1 (3D coordinates assigned)
C=c1c(=Cc2[n-]c(=O)[n-]c2O)cc(C)n1-c1ccnc(N2CCN(CCc3ccncc3)CC2)c1 (nonaromatic ring conformer: 152.8313089254283 kcal/mol)

>  <smiles>  (82) 
C=c1c(=Cc2[nH]c(=O)[nH]c2O)cc(C)n1-c1ccnc(N2CCN(CCc3ccncc3)CC2)c1

>  <score_type>  (82) 
oracle

>  <origin>  (82) 
adg

>  <m_score__min__energy>  (82) 
-14.01

>  <m_primary>  (82) 
energy

$$$$
82:0
     RDKit          3D

 50 52  0  0  0  0  0  0  0  0999 V2000
   55.5010   28.9720   44.8760 N   0  0  0  0  0  0  0  0  0  0  0  0
   56.7900   29.2240   45.4250 C   0  0  0  0  0  0  0  0  0  0  0  0
   57.2910   30.3750   45.3060 O   0  0  0  0  0  0  0  0  0  0  0  0
   57.5210   28.1700   46.1690 C   0  0  0  0  0  0  0  0  0  0  0  0
   57.1060   26.8320   46.0260 C   0  0  0  0  0  0  0  0  0  0  0  0
   57.7830   25.8000   46.6790 C   0  0  0  0  0  0  0  0  0  0  0  0
   58.8810   26.0860   47.4880 C   0  0  0  0  0  0  0  0  0  0  0  0
   59.3000   27.4060   47.6530 C   0  0  0  0  0  0  0  0  0  0  0  0
   58.6280   28.4560   47.0080 C   0  0  0  0  0  0  0  0  0  0  0  0
   59.0540   29.8030   47.2700 N   0  0  0  0  0  0  0  0  0  0  0  0
   58.8450   30.3570   48.6100 C   0  0  0  0  0  0  0  0  0  0  0  0
   58.4980   31.8120   48.5320 C   0  0  0  0  0  0  0  0  0  0  0  0
   58.5530   32.5190   49.5750 O   0  0  0  0  0  0  0  0  0  0  0  0
   58.0980   32.3930   47.2830 N   0  0  0  0  0  0  0  0  0  0  0  0
   57.8920   33.8390   47.1240 C   0  0  0  0  0  0  0  0  0  0  0  0
   57.3820   34.1520   45.7250 C   0  0  0  0  0  0  0  0  0  0  0  0
   58.6280   34.2840   44.8620 C   0  0  0  0  0  0  0  0  0  0  0  0
   59.7590   34.6970   45.8010 C   0  0  0  0  0  0  0  0  0  0  0  0
   59.2150   34.5950   47.2230 C   0  0  0  0  0  0  0  0  0  0  0  0
   60.2790   30.4880   46.2430 S   0  0  0  0  0  0  0  0  0  0  0  0
   60.9760   29.3860   45.4950 O   0  0  0  0  0  0  0  0  0  0  0  0
   59.6420   31.4140   45.2460 O   0  0  0  0  0  0  0  0  0  0  0  0
   61.4520   31.3950   47.1980 C   0  0  0  0  0  0  0  0  0  0  0  0
   61.8990   32.6510   46.7590 C   0  0  0  0  0  0  0  0  0  0  0  0
   62.8540   33.3550   47.4990 C   0  0  0  0  0  0  0  0  0  0  0  0
   63.3630   32.8140   48.6820 C   0  0  0  0  0  0  0  0  0  0  0  0
   62.9130   31.5690   49.1290 C   0  0  0  0  0  0  0  0  0  0  0  0
   61.9590   30.8610   48.3920 C   0  0  0  0  0  0  0  0  0  0  0  0
   54.6400   29.3450   45.3340 H   0  0  0  0  0  0  0  0  0  0  0  0
   56.2381   26.5970   45.3923 H   0  0  0  0  0  0  0  0  0  0  0  0
   57.4490   24.7593   46.5546 H   0  0  0  0  0  0  0  0  0  0  0  0
   59.4171   25.2710   47.9963 H   0  0  0  0  0  0  0  0  0  0  0  0
   60.1656   27.6264   48.2949 H   0  0  0  0  0  0  0  0  0  0  0  0
   58.0229   29.8153   49.1007 H   0  0  0  0  0  0  0  0  0  0  0  0
   59.7740   30.2450   49.1883 H   0  0  0  0  0  0  0  0  0  0  0  0
   58.0240   31.7690   46.4490 H   0  0  0  0  0  0  0  0  0  0  0  0
   57.1840   34.1378   47.9110 H   0  0  0  0  0  0  0  0  0  0  0  0
   56.7431   33.3359   45.3565 H   0  0  0  0  0  0  0  0  0  0  0  0
   56.7723   35.0674   45.7067 H   0  0  0  0  0  0  0  0  0  0  0  0
   58.8630   33.3221   44.3830 H   0  0  0  0  0  0  0  0  0  0  0  0
   58.4829   35.0244   44.0616 H   0  0  0  0  0  0  0  0  0  0  0  0
   60.6194   34.0231   45.6760 H   0  0  0  0  0  0  0  0  0  0  0  0
   60.0983   35.7202   45.5820 H   0  0  0  0  0  0  0  0  0  0  0  0
   59.9211   34.0445   47.8621 H   0  0  0  0  0  0  0  0  0  0  0  0
   59.0735   35.5906   47.6687 H   0  0  0  0  0  0  0  0  0  0  0  0
   61.4970   33.0826   45.8305 H   0  0  0  0  0  0  0  0  0  0  0  0
   63.2052   34.3369   47.1488 H   0  0  0  0  0  0  0  0  0  0  0  0
   64.1171   33.3674   49.2609 H   0  0  0  0  0  0  0  0  0  0  0  0
   63.3103   31.1449   50.0630 H   0  0  0  0  0  0  0  0  0  0  0  0
   61.6050   29.8827   48.7493 H   0  0  0  0  0  0  0  0  0  0  0  0
  1  2  1  0
  2  3  2  0
  2  4  1  0
  4  5  2  0
  5  6  1  0
  6  7  2  0
  7  8  1  0
  8  9  2  0
  9 10  1  0
 10 11  1  0
 11 12  1  0
 12 13  2  0
 12 14  1  0
 14 15  1  0
 15 16  1  0
 16 17  1  0
 17 18  1  0
 18 19  1  0
 10 20  1  0
 20 21  2  0
 20 22  2  0
 20 23  1  0
 23 24  2  0
 24 25  1  0
 25 26  2  0
 26 27  1  0
 27 28  2  0
  9  4  1  0
 19 15  1  0
 28 23  1  0
  1 29  1  0
  5 30  1  0
  6 31  1  0
  7 32  1  0
  8 33  1  0
 11 34  1  0
 11 35  1  0
 14 36  1  0
 15 37  1  0
 16 38  1  0
 16 39  1  0
 17 40  1  0
 17 41  1  0
 18 42  1  0
 18 43  1  0
 19 44  1  0
 19 45  1  0
 24 46  1  0
 25 47  1  0
 26 48  1  0
 27 49  1  0
 28 50  1  0
M  CHG  1   1  -1
M  END
>  <UniqueID>  (83) 
79

>  <SMILES>  (83) 
[NH-]C(=O)c1ccccc1N(CC(=O)NC1CCCC1)S(=O)(=O)c1ccccc1

>  <Energy>  (83) 
53.88677899235174

>  <Genealogy>  (83) 
[NH-]C(=O)c1ccccc1N(CC(=O)NC1CCCC1)S(=O)(=O)c1ccccc1 (protonated)
[NH-]C(=O)c1ccccc1N(CC(=O)NC1CCCC1)S(=O)(=O)c1ccccc1 (3D coordinates assigned)
[NH-]C(=O)c1ccccc1N(CC(=O)NC1CCCC1)S(=O)(=O)c1ccccc1 (nonaromatic ring conformer: 53.88677899235174 kcal/mol)

>  <smiles>  (83) 
NC(=O)c1ccccc1N(CC(=O)NC1CCCC1)S(=O)(=O)c1ccccc1

>  <score_type>  (83) 
oracle

>  <origin>  (83) 
adg

>  <m_score__min__energy>  (83) 
-11.48

>  <m_primary>  (83) 
energy

$$$$
83:0
     RDKit          3D

 68 72  0  0  0  0  0  0  0  0999 V2000
   60.7030   26.7390   47.4220 C   0  0  0  0  0  0  0  0  0  0  0  0
   60.0510   26.4120   46.0810 C   0  0  0  0  0  0  0  0  0  0  0  0
   58.5800   26.1620   46.2480 C   0  0  0  0  0  0  0  0  0  0  0  0
   58.0600   25.0000   46.6990 N   0  0  0  0  0  0  0  0  0  0  0  0
   56.7390   25.0790   46.6530 N   0  0  0  0  0  0  0  0  0  0  0  0
   55.8260   24.0260   47.0830 C   0  0  0  0  0  0  0  0  0  0  0  0
   56.3950   26.2900   46.1760 C   0  0  0  0  0  0  0  0  0  0  0  0
   55.0840   26.7170   45.9860 O   0  0  0  0  0  0  0  0  0  0  0  0
   57.5370   27.0200   45.9030 C   0  0  0  0  0  0  0  0  0  0  0  0
   57.6130   28.3920   45.2940 C   0  0  0  0  0  0  0  0  0  0  0  0
   58.5600   29.2660   46.0760 C   0  0  0  0  0  0  0  0  0  0  0  0
   59.8900   29.4250   45.6490 C   0  0  0  0  0  0  0  0  0  0  0  0
   60.7940   30.1670   46.4170 C   0  0  0  0  0  0  0  0  0  0  0  0
   60.3810   30.7650   47.6170 C   0  0  0  0  0  0  0  0  0  0  0  0
   61.3320   31.4550   48.4490 N   0  0  0  0  0  0  0  0  0  0  0  0
   61.2940   31.2780   49.9100 C   0  0  0  0  0  0  0  0  0  0  0  0
   62.5660   31.8280   50.5780 C   0  0  0  0  0  0  0  0  0  0  0  0
   63.7900   31.4940   49.7120 C   0  0  0  0  0  0  0  0  0  0  0  0
   65.0740   31.8550   50.4210 C   0  0  0  0  0  0  0  0  0  0  0  0
   65.5430   33.0230   50.3050 O   0  0  0  0  0  0  0  0  0  0  0  0
   65.8010   30.8710   51.1810 N   0  0  0  0  0  0  0  0  0  0  0  0
   65.3310   30.4060   52.4870 C   0  0  0  0  0  0  0  0  0  0  0  0
   65.1090   28.8950   52.4240 C   0  0  0  0  0  0  0  0  0  0  0  0
   66.2850   28.1840   51.7940 C   0  0  0  0  0  0  0  0  0  0  0  0
   66.4350   26.8030   52.0010 C   0  0  0  0  0  0  0  0  0  0  0  0
   67.4730   26.1030   51.3850 C   0  0  0  0  0  0  0  0  0  0  0  0
   68.3640   26.7710   50.5450 C   0  0  0  0  0  0  0  0  0  0  0  0
   68.2240   28.1420   50.3210 C   0  0  0  0  0  0  0  0  0  0  0  0
   67.1790   28.8590   50.9260 C   0  0  0  0  0  0  0  0  0  0  0  0
   67.0780   30.3500   50.6900 C   0  0  0  0  0  0  0  0  0  0  0  0
   63.7070   32.1800   48.3270 C   0  0  0  0  0  0  0  0  0  0  0  0
   62.2600   32.4250   47.8520 C   0  0  0  0  0  0  0  0  0  0  0  0
   59.0430   30.6330   48.0260 C   0  0  0  0  0  0  0  0  0  0  0  0
   58.1380   29.8930   47.2590 C   0  0  0  0  0  0  0  0  0  0  0  0
   60.0452   26.4091   48.2396 H   0  0  0  0  0  0  0  0  0  0  0  0
   61.6694   26.2189   47.4963 H   0  0  0  0  0  0  0  0  0  0  0  0
   60.8641   27.8246   47.4963 H   0  0  0  0  0  0  0  0  0  0  0  0
   60.1968   27.2583   45.3936 H   0  0  0  0  0  0  0  0  0  0  0  0
   60.5184   25.5028   45.6751 H   0  0  0  0  0  0  0  0  0  0  0  0
   58.6020   24.1650   47.0200 H   0  0  0  0  0  0  0  0  0  0  0  0
   55.7968   23.9923   48.1821 H   0  0  0  0  0  0  0  0  0  0  0  0
   54.8177   24.2341   46.6956 H   0  0  0  0  0  0  0  0  0  0  0  0
   56.1749   23.0574   46.6956 H   0  0  0  0  0  0  0  0  0  0  0  0
   57.9705   28.3083   44.2571 H   0  0  0  0  0  0  0  0  0  0  0  0
   56.6113   28.8460   45.3147 H   0  0  0  0  0  0  0  0  0  0  0  0
   60.2214   28.9640   44.7069 H   0  0  0  0  0  0  0  0  0  0  0  0
   61.8341   30.2821   46.0781 H   0  0  0  0  0  0  0  0  0  0  0  0
   60.4200   31.8114   50.3120 H   0  0  0  0  0  0  0  0  0  0  0  0
   61.2290   30.2013   50.1256 H   0  0  0  0  0  0  0  0  0  0  0  0
   62.4804   32.9194   50.6850 H   0  0  0  0  0  0  0  0  0  0  0  0
   62.6848   31.3683   51.5703 H   0  0  0  0  0  0  0  0  0  0  0  0
   63.7905   30.4068   49.5448 H   0  0  0  0  0  0  0  0  0  0  0  0
   66.0847   30.6368   53.2543 H   0  0  0  0  0  0  0  0  0  0  0  0
   64.3884   30.9108   52.7452 H   0  0  0  0  0  0  0  0  0  0  0  0
   64.9664   28.5125   53.4455 H   0  0  0  0  0  0  0  0  0  0  0  0
   64.2203   28.7040   51.8046 H   0  0  0  0  0  0  0  0  0  0  0  0
   65.7287   26.2691   52.6538 H   0  0  0  0  0  0  0  0  0  0  0  0
   67.5888   25.0235   51.5619 H   0  0  0  0  0  0  0  0  0  0  0  0
   69.1792   26.2161   50.0577 H   0  0  0  0  0  0  0  0  0  0  0  0
   68.9371   28.6641   49.6661 H   0  0  0  0  0  0  0  0  0  0  0  0
   67.9001   30.8548   51.2185 H   0  0  0  0  0  0  0  0  0  0  0  0
   67.1427   30.5400   49.6085 H   0  0  0  0  0  0  0  0  0  0  0  0
   64.2237   33.1493   48.3862 H   0  0  0  0  0  0  0  0  0  0  0  0
   64.1779   31.5024   47.5996 H   0  0  0  0  0  0  0  0  0  0  0  0
   61.9539   33.4405   48.1438 H   0  0  0  0  0  0  0  0  0  0  0  0
   62.2286   32.3088   46.7586 H   0  0  0  0  0  0  0  0  0  0  0  0
   58.7056   31.1149   48.9555 H   0  0  0  0  0  0  0  0  0  0  0  0
   57.0910   29.8017   47.5839 H   0  0  0  0  0  0  0  0  0  0  0  0
  1  2  1  0
  2  3  1  0
  3  4  2  0
  4  5  1  0
  5  6  1  0
  5  7  1  0
  7  8  1  0
  7  9  2  0
  9 10  1  0
 10 11  1  0
 11 12  2  0
 12 13  1  0
 13 14  2  0
 14 15  1  0
 15 16  1  0
 16 17  1  0
 17 18  1  0
 18 19  1  0
 19 20  2  0
 19 21  1  0
 21 22  1  0
 22 23  1  0
 23 24  1  0
 24 25  2  0
 25 26  1  0
 26 27  2  0
 27 28  1  0
 28 29  2  0
 29 30  1  0
 18 31  1  0
 31 32  1  0
 14 33  1  0
 33 34  2  0
  9  3  1  0
 34 11  1  0
 32 15  1  0
 30 21  1  0
 29 24  1  0
  1 35  1  0
  1 36  1  0
  1 37  1  0
  2 38  1  0
  2 39  1  0
  4 40  1  0
  6 41  1  0
  6 42  1  0
  6 43  1  0
 10 44  1  0
 10 45  1  0
 12 46  1  0
 13 47  1  0
 16 48  1  0
 16 49  1  0
 17 50  1  0
 17 51  1  0
 18 52  1  0
 22 53  1  0
 22 54  1  0
 23 55  1  0
 23 56  1  0
 25 57  1  0
 26 58  1  0
 27 59  1  0
 28 60  1  0
 30 61  1  0
 30 62  1  0
 31 63  1  0
 31 64  1  0
 32 65  1  0
 32 66  1  0
 33 67  1  0
 34 68  1  0
M  CHG  2   4   1   8  -1
M  END
>  <UniqueID>  (84) 
80

>  <SMILES>  (84) 
CCc1[nH+]n(C)c([O-])c1Cc1ccc(N2CCC(C(=O)N3CCc4ccccc4C3)CC2)cc1

>  <Energy>  (84) 
108.21220574006283

>  <Genealogy>  (84) 
CCc1[nH+]n(C)c([O-])c1Cc1ccc(N2CCC(C(=O)N3CCc4ccccc4C3)CC2)cc1 (protonated)
CCc1[nH+]n(C)c([O-])c1Cc1ccc(N2CCC(C(=O)N3CCc4ccccc4C3)CC2)cc1 (3D coordinates assigned)
CCc1[nH+]n(C)c([O-])c1Cc1ccc(N2CCC(C(=O)N3CCc4ccccc4C3)CC2)cc1 (nonaromatic ring conformer: 108.21220574006283 kcal/mol)

>  <smiles>  (84) 
CCc1nn(C)c(O)c1Cc1ccc(N2CCC(C(=O)N3CCc4ccccc4C3)CC2)cc1

>  <score_type>  (84) 
oracle

>  <origin>  (84) 
adg

>  <m_score__min__energy>  (84) 
-12.15

>  <m_primary>  (84) 
energy

$$$$
84:0
     RDKit          3D

 46 49  0  0  0  0  0  0  0  0999 V2000
   60.3243   30.2134   47.6992 H   0  0  0  0  0  0  0  0  0  0  0  0
   59.6970   29.8520   46.8710 C   0  0  0  0  0  0  0  0  0  0  0  0
   59.5577   28.7717   46.7174 H   0  0  0  0  0  0  0  0  0  0  0  0
   59.1010   30.7300   46.0470 C   0  0  0  0  0  0  0  0  0  0  0  0
   58.2730   30.4420   44.9480 C   0  0  0  0  0  0  0  0  0  0  0  0
   57.9880   29.2770   44.3330 C   0  0  0  0  0  0  0  0  0  0  0  0
   58.2003   29.2125   43.2556 H   0  0  0  0  0  0  0  0  0  0  0  0
   57.4160   28.0810   44.9800 C   0  0  0  0  0  0  0  0  0  0  0  0
   56.0400   27.9860   45.2510 C   0  0  0  0  0  0  0  0  0  0  0  0
   55.1710   29.0060   44.8820 O   0  0  0  0  0  0  0  0  0  0  0  0
   55.5490   26.8900   45.8860 N   0  0  0  0  0  0  0  0  0  0  0  0
   56.3690   25.8840   46.2830 C   0  0  0  0  0  0  0  0  0  0  0  0
   55.8910   24.8770   46.8660 O   0  0  0  0  0  0  0  0  0  0  0  0
   57.7050   25.9660   46.0570 N   0  0  0  0  0  0  0  0  0  0  0  0
   58.2460   27.0410   45.4250 C   0  0  0  0  0  0  0  0  0  0  0  0
   59.4910   27.0870   45.2380 O   0  0  0  0  0  0  0  0  0  0  0  0
   57.7410   31.6540   44.5370 C   0  0  0  0  0  0  0  0  0  0  0  0
   57.0149   31.8082   43.7252 H   0  0  0  0  0  0  0  0  0  0  0  0
   58.2940   32.6290   45.3380 C   0  0  0  0  0  0  0  0  0  0  0  0
   57.9990   34.0930   45.2240 C   0  0  0  0  0  0  0  0  0  0  0  0
   57.9112   34.5288   46.2302 H   0  0  0  0  0  0  0  0  0  0  0  0
   58.8150   34.5901   44.6790 H   0  0  0  0  0  0  0  0  0  0  0  0
   57.0541   34.2353   44.6790 H   0  0  0  0  0  0  0  0  0  0  0  0
   59.1180   32.0720   46.2550 N   0  0  0  0  0  0  0  0  0  0  0  0
   59.8510   32.7860   47.2680 C   0  0  0  0  0  0  0  0  0  0  0  0
   61.1820   33.1600   47.0420 C   0  0  0  0  0  0  0  0  0  0  0  0
   61.6726   32.8942   46.0940 H   0  0  0  0  0  0  0  0  0  0  0  0
   61.8880   33.8690   48.0160 C   0  0  0  0  0  0  0  0  0  0  0  0
   62.9317   34.1636   47.8317 H   0  0  0  0  0  0  0  0  0  0  0  0
   61.2720   34.2050   49.2240 C   0  0  0  0  0  0  0  0  0  0  0  0
   61.8288   34.7749   49.9825 H   0  0  0  0  0  0  0  0  0  0  0  0
   59.9430   33.8180   49.4750 C   0  0  0  0  0  0  0  0  0  0  0  0
   59.2760   34.1700   50.6990 N   0  0  0  0  0  0  0  0  0  0  0  0
   59.0550   35.1790   50.8620 H   0  0  0  0  0  0  0  0  0  0  0  0
   58.7840   33.2150   51.6520 C   0  0  0  0  0  0  0  0  0  0  0  0
   58.7910   31.9810   51.3920 O   0  0  0  0  0  0  0  0  0  0  0  0
   58.2630   33.6840   52.9780 C   0  0  0  0  0  0  0  0  0  0  0  0
   57.2314   33.3321   52.8299 H   0  0  0  0  0  0  0  0  0  0  0  0
   59.2770   33.6240   54.1110 C   0  0  0  0  0  0  0  0  0  0  0  0
   58.9487   33.3705   55.1298 H   0  0  0  0  0  0  0  0  0  0  0  0
   60.2215   33.0865   54.2813 H   0  0  0  0  0  0  0  0  0  0  0  0
   58.8990   34.9630   53.5030 C   0  0  0  0  0  0  0  0  0  0  0  0
   58.2969   35.6792   54.0815 H   0  0  0  0  0  0  0  0  0  0  0  0
   59.4564   35.7965   53.0507 H   0  0  0  0  0  0  0  0  0  0  0  0
   59.2330   33.1260   48.4810 C   0  0  0  0  0  0  0  0  0  0  0  0
   58.1830   32.8479   48.6546 H   0  0  0  0  0  0  0  0  0  0  0  0
  1  2  1  0
  2  3  1  0
  2  4  2  0
  4  5  1  0
  5  6  2  0
  6  7  1  0
  6  8  1  0
  8  9  2  0
  9 10  1  0
  9 11  1  0
 11 12  1  0
 12 13  2  0
 12 14  1  0
 14 15  1  0
 15 16  2  0
  5 17  1  0
 17 18  1  0
 17 19  2  0
 19 20  1  0
 20 21  1  0
 20 22  1  0
 20 23  1  0
 19 24  1  0
 24 25  1  0
 25 26  2  0
 26 27  1  0
 26 28  1  0
 28 29  1  0
 28 30  2  0
 30 31  1  0
 30 32  1  0
 32 33  1  0
 33 34  1  0
 33 35  1  0
 35 36  2  0
 35 37  1  0
 37 38  1  0
 37 39  1  0
 39 40  1  0
 39 41  1  0
 39 42  1  0
 42 43  1  0
 42 44  1  0
 32 45  2  0
 45 46  1  0
 24  4  1  0
 45 25  1  0
 15  8  1  0
 42 37  1  0
M  CHG  3  10  -1  11  -1  14  -1
M  END
>  <UniqueID>  (85) 
81

>  <SMILES>  (85) 
C=c1/c(=C\c2c([O-])[n-]c(=O)[n-]c2=O)cc(C)n1-c1cccc(NC(=O)C2CC2)c1

>  <Energy>  (85) 
364.5597081299399

>  <Genealogy>  (85) 
C=c1c(=Cc2c([O-])[n-]c(=O)[n-]c2=O)cc(C)n1-c1cccc(NC(=O)C2CC2)c1 (protonated)
C=c1/c(=C\c2c([O-])[n-]c(=O)[n-]c2=O)cc(C)n1-c1cccc(NC(=O)C2CC2)c1 (cis-trans isomerization)
C=c1/c(=C\c2c([O-])[n-]c(=O)[n-]c2=O)cc(C)n1-c1cccc(NC(=O)C2CC2)c1 (3D coordinates assigned)
C=c1/c(=C\c2c([O-])[n-]c(=O)[n-]c2=O)cc(C)n1-c1cccc(NC(=O)C2CC2)c1 (nonaromatic ring conformer: 364.5597081299399 kcal/mol)

>  <smiles>  (85) 
C=c1c(=Cc2c(O)[nH]c(=O)[nH]c2=O)cc(C)n1-c1cccc(NC(=O)C2CC2)c1

>  <score_type>  (85) 
oracle

>  <origin>  (85) 
adg

>  <m_score__min__energy>  (85) 
-16.350000000000001

>  <m_primary>  (85) 
energy

$$$$
85:0
     RDKit          3D

 64 67  0  0  0  0  0  0  0  0999 V2000
   58.1910   22.1610   45.3720 C   0  0  0  0  0  0  0  0  0  0  0  0
   58.0620   23.1780   46.3570 O   0  0  0  0  0  0  0  0  0  0  0  0
   57.7490   24.5180   46.0770 C   0  0  0  0  0  0  0  0  0  0  0  0
   58.7240   25.4410   45.6570 C   0  0  0  0  0  0  0  0  0  0  0  0
   58.3810   26.7710   45.3900 C   0  0  0  0  0  0  0  0  0  0  0  0
   59.4360   27.7680   44.9860 C   0  0  0  0  0  0  0  0  0  0  0  0
   59.2500   29.0950   45.6810 C   0  0  0  0  0  0  0  0  0  0  0  0
   59.0930   30.1660   44.9550 N   0  0  0  0  0  0  0  0  0  0  0  0
   58.0910   31.1660   45.1640 C   0  0  0  0  0  0  0  0  0  0  0  0
   56.8940   30.9070   44.8790 O   0  0  0  0  0  0  0  0  0  0  0  0
   58.4650   32.4970   45.6950 C   0  0  0  0  0  0  0  0  0  0  0  0
   58.5020   32.7180   47.0830 C   0  0  0  0  0  0  0  0  0  0  0  0
   58.9170   33.9550   47.5880 C   0  0  0  0  0  0  0  0  0  0  0  0
   59.3070   34.9760   46.7180 C   0  0  0  0  0  0  0  0  0  0  0  0
   59.2690   34.7700   45.3400 C   0  0  0  0  0  0  0  0  0  0  0  0
   58.8430   33.5380   44.8250 C   0  0  0  0  0  0  0  0  0  0  0  0
   59.3030   29.1530   47.1610 C   0  0  0  0  0  0  0  0  0  0  0  0
   58.2330   29.0970   47.8240 O   0  0  0  0  0  0  0  0  0  0  0  0
   60.5330   29.3390   47.8640 N   0  0  0  0  0  0  0  0  0  0  0  0
   61.1520   30.5960   48.1670 C   0  0  0  0  0  0  0  0  0  0  0  0
   61.8080   31.2930   47.1440 C   0  0  0  0  0  0  0  0  0  0  0  0
   62.3860   32.5400   47.3960 C   0  0  0  0  0  0  0  0  0  0  0  0
   62.3080   33.1020   48.6710 C   0  0  0  0  0  0  0  0  0  0  0  0
   61.6240   32.4330   49.6960 C   0  0  0  0  0  0  0  0  0  0  0  0
   61.4810   33.1740   51.2900 S   0  0  0  0  0  0  0  0  0  0  0  0
   62.5430   34.2280   51.4590 O   0  0  0  0  0  0  0  0  0  0  0  0
   61.6990   32.1080   52.3310 O   0  0  0  0  0  0  0  0  0  0  0  0
   59.8850   33.8730   51.4670 N   0  0  0  0  0  0  0  0  0  0  0  0
   59.5170   34.0560   52.8870 C   0  0  0  0  0  0  0  0  0  0  0  0
   58.6040   32.9360   53.4150 C   0  0  0  0  0  0  0  0  0  0  0  0
   58.9180   31.7120   52.7870 O   0  0  0  0  0  0  0  0  0  0  0  0
   58.5560   31.7530   51.4160 C   0  0  0  0  0  0  0  0  0  0  0  0
   58.8710   33.1000   50.7300 C   0  0  0  0  0  0  0  0  0  0  0  0
   61.0360   31.1850   49.4360 C   0  0  0  0  0  0  0  0  0  0  0  0
   57.0580   27.1820   45.5720 C   0  0  0  0  0  0  0  0  0  0  0  0
   56.0810   26.2750   45.9840 C   0  0  0  0  0  0  0  0  0  0  0  0
   54.7730   26.7050   46.1520 O   0  0  0  0  0  0  0  0  0  0  0  0
   56.4230   24.9400   46.2300 C   0  0  0  0  0  0  0  0  0  0  0  0
   55.4580   24.0190   46.6340 O   0  0  0  0  0  0  0  0  0  0  0  0
   58.3147   21.1859   45.8658 H   0  0  0  0  0  0  0  0  0  0  0  0
   57.2881   22.1421   44.7440 H   0  0  0  0  0  0  0  0  0  0  0  0
   59.0701   22.3681   44.7440 H   0  0  0  0  0  0  0  0  0  0  0  0
   59.7673   25.1136   45.5372 H   0  0  0  0  0  0  0  0  0  0  0  0
   60.4255   27.3648   45.2476 H   0  0  0  0  0  0  0  0  0  0  0  0
   59.3507   27.9352   43.9021 H   0  0  0  0  0  0  0  0  0  0  0  0
   58.2037   31.9158   47.7741 H   0  0  0  0  0  0  0  0  0  0  0  0
   58.9363   34.1243   48.6747 H   0  0  0  0  0  0  0  0  0  0  0  0
   59.6441   35.9426   47.1205 H   0  0  0  0  0  0  0  0  0  0  0  0
   59.5738   35.5755   44.6557 H   0  0  0  0  0  0  0  0  0  0  0  0
   58.8037   33.3835   43.7366 H   0  0  0  0  0  0  0  0  0  0  0  0
   61.8684   30.8560   46.1363 H   0  0  0  0  0  0  0  0  0  0  0  0
   62.9030   33.0792   46.5886 H   0  0  0  0  0  0  0  0  0  0  0  0
   62.7845   34.0727   48.8725 H   0  0  0  0  0  0  0  0  0  0  0  0
   60.4373   34.0726   53.4893 H   0  0  0  0  0  0  0  0  0  0  0  0
   58.9608   35.0017   52.9659 H   0  0  0  0  0  0  0  0  0  0  0  0
   58.7459   32.8337   54.5010 H   0  0  0  0  0  0  0  0  0  0  0  0
   57.5575   33.1934   53.1946 H   0  0  0  0  0  0  0  0  0  0  0  0
   59.1038   30.9583   50.8884 H   0  0  0  0  0  0  0  0  0  0  0  0
   57.4657   31.6152   51.3675 H   0  0  0  0  0  0  0  0  0  0  0  0
   59.2447   32.9021   49.7145 H   0  0  0  0  0  0  0  0  0  0  0  0
   57.9447   33.6927   50.7058 H   0  0  0  0  0  0  0  0  0  0  0  0
   60.4812   30.6656   50.2312 H   0  0  0  0  0  0  0  0  0  0  0  0
   56.7839   28.2314   45.3886 H   0  0  0  0  0  0  0  0  0  0  0  0
   55.6930   23.0640   46.8760 H   0  0  0  0  0  0  0  0  0  0  0  0
  1  2  1  0
  2  3  1  0
  3  4  2  0
  4  5  1  0
  5  6  1  0
  6  7  1  0
  7  8  2  3
  8  9  1  0
  9 10  2  0
  9 11  1  0
 11 12  2  0
 12 13  1  0
 13 14  2  0
 14 15  1  0
 15 16  2  0
  7 17  1  0
 17 18  2  0
 17 19  1  0
 19 20  1  0
 20 21  2  0
 21 22  1  0
 22 23  2  0
 23 24  1  0
 24 25  1  0
 25 26  2  0
 25 27  2  0
 25 28  1  0
 28 29  1  0
 29 30  1  0
 30 31  1  0
 31 32  1  0
 32 33  1  0
 24 34  2  0
  5 35  2  0
 35 36  1  0
 36 37  1  0
 36 38  2  0
 38 39  1  0
 38  3  1  0
 16 11  1  0
 34 20  1  0
 33 28  1  0
  1 40  1  0
  1 41  1  0
  1 42  1  0
  4 43  1  0
  6 44  1  0
  6 45  1  0
 12 46  1  0
 13 47  1  0
 14 48  1  0
 15 49  1  0
 16 50  1  0
 21 51  1  0
 22 52  1  0
 23 53  1  0
 29 54  1  0
 29 55  1  0
 30 56  1  0
 30 57  1  0
 32 58  1  0
 32 59  1  0
 33 60  1  0
 33 61  1  0
 34 62  1  0
 35 63  1  0
 39 64  1  0
M  CHG  2  19  -1  37  -1
M  END
>  <UniqueID>  (86) 
82

>  <SMILES>  (86) 
COc1cc(CC(=NC(=O)c2ccccc2)C(=O)[N-]c2cccc(S(=O)(=O)N3CCOCC3)c2)cc([O-])c1O

>  <Energy>  (86) 
89.09437239079644

>  <Genealogy>  (86) 
COc1cc(CC(=NC(=O)c2ccccc2)C(=O)[N-]c2cccc(S(=O)(=O)N3CCOCC3)c2)cc([O-])c1O (protonated)
COc1cc(CC(=NC(=O)c2ccccc2)C(=O)[N-]c2cccc(S(=O)(=O)N3CCOCC3)c2)cc([O-])c1O (3D coordinates assigned)
COc1cc(CC(=NC(=O)c2ccccc2)C(=O)[N-]c2cccc(S(=O)(=O)N3CCOCC3)c2)cc([O-])c1O (nonaromatic ring conformer: 89.09437239079644 kcal/mol)

>  <smiles>  (86) 
COc1cc(CC(=NC(=O)c2ccccc2)C(=O)Nc2cccc(S(=O)(=O)N3CCOCC3)c2)cc(O)c1O

>  <score_type>  (86) 
oracle

>  <origin>  (86) 
adg

>  <m_score__min__energy>  (86) 
-14.17

>  <m_primary>  (86) 
energy

$$$$
86:0
     RDKit          3D

 53 57  0  0  0  0  0  0  0  0999 V2000
   54.2940   26.7180   46.7720 H   0  0  0  0  0  0  0  0  0  0  0  0
   54.5370   26.3200   45.8730 O   0  0  0  0  0  0  0  0  0  0  0  0
   54.1350   25.0310   45.5370 C   0  0  0  0  0  0  0  0  0  0  0  0
   52.8690   24.5930   45.6240 N   0  0  0  0  0  0  0  0  0  0  0  0
   52.9590   23.3310   45.1520 C   0  0  0  0  0  0  0  0  0  0  0  0
   51.9620   22.5690   45.0620 O   0  0  0  0  0  0  0  0  0  0  0  0
   54.2000   22.9530   44.7740 N   0  0  0  0  0  0  0  0  0  0  0  0
   54.9510   24.0330   45.0500 C   0  0  0  0  0  0  0  0  0  0  0  0
   56.3730   24.1460   44.6950 C   0  0  0  0  0  0  0  0  0  0  0  0
   56.8207   23.3070   44.1421 H   0  0  0  0  0  0  0  0  0  0  0  0
   57.1760   25.1880   44.9880 C   0  0  0  0  0  0  0  0  0  0  0  0
   57.8180   25.9370   44.0140 C   0  0  0  0  0  0  0  0  0  0  0  0
   57.8036   25.7520   42.9298 H   0  0  0  0  0  0  0  0  0  0  0  0
   58.4780   26.9580   44.6640 C   0  0  0  0  0  0  0  0  0  0  0  0
   59.2870   28.0170   43.9780 C   0  0  0  0  0  0  0  0  0  0  0  0
   59.7731   28.6533   44.7323 H   0  0  0  0  0  0  0  0  0  0  0  0
   60.0545   27.5422   43.3491 H   0  0  0  0  0  0  0  0  0  0  0  0
   58.6271   28.6327   43.3491 H   0  0  0  0  0  0  0  0  0  0  0  0
   58.3130   26.8490   46.0010 N   0  0  0  0  0  0  0  0  0  0  0  0
   58.8820   27.7240   46.9920 C   0  0  0  0  0  0  0  0  0  0  0  0
   59.8580   27.2450   47.8760 C   0  0  0  0  0  0  0  0  0  0  0  0
   60.1930   26.1995   47.8070 H   0  0  0  0  0  0  0  0  0  0  0  0
   60.4080   28.0890   48.8450 C   0  0  0  0  0  0  0  0  0  0  0  0
   61.1701   27.7019   49.5373 H   0  0  0  0  0  0  0  0  0  0  0  0
   59.9940   29.4290   48.9410 C   0  0  0  0  0  0  0  0  0  0  0  0
   60.5480   30.3000   49.9490 N   0  0  0  0  0  0  0  0  0  0  0  0
   59.8350   30.6940   51.1170 C   0  0  0  0  0  0  0  0  0  0  0  0
   58.5830   30.5770   51.2080 O   0  0  0  0  0  0  0  0  0  0  0  0
   60.6380   31.3000   52.2000 C   0  0  0  0  0  0  0  0  0  0  0  0
   60.3730   32.3608   52.3205 H   0  0  0  0  0  0  0  0  0  0  0  0
   60.4503   30.7979   53.1606 H   0  0  0  0  0  0  0  0  0  0  0  0
   62.3850   31.1410   51.7070 S   0  0  0  0  0  0  0  0  0  0  0  0
   61.9660   30.6530   49.9930 C   0  0  2  0  0  0  0  0  0  0  0  0
   62.5561   29.7819   49.6722 H   0  0  0  0  0  0  0  0  0  0  0  0
   62.2860   31.8010   49.0560 C   0  0  0  0  0  0  0  0  0  0  0  0
   63.2100   31.6250   48.0070 C   0  0  0  0  0  0  0  0  0  0  0  0
   63.7070   30.6526   47.8750 H   0  0  0  0  0  0  0  0  0  0  0  0
   63.5000   32.6760   47.1330 C   0  0  0  0  0  0  0  0  0  0  0  0
   64.2293   32.5309   46.3224 H   0  0  0  0  0  0  0  0  0  0  0  0
   62.8660   33.9090   47.2870 C   0  0  0  0  0  0  0  0  0  0  0  0
   63.0989   34.7362   46.6004 H   0  0  0  0  0  0  0  0  0  0  0  0
   61.9360   34.0940   48.3120 C   0  0  0  0  0  0  0  0  0  0  0  0
   61.4349   35.0663   48.4283 H   0  0  0  0  0  0  0  0  0  0  0  0
   61.6390   33.0470   49.1920 C   0  0  0  0  0  0  0  0  0  0  0  0
   60.7010   33.2590   50.1980 O   0  0  0  0  0  0  0  0  0  0  0  0
   59.0100   29.9020   48.0550 C   0  0  0  0  0  0  0  0  0  0  0  0
   58.6702   30.9459   48.1243 H   0  0  0  0  0  0  0  0  0  0  0  0
   58.4600   29.0570   47.0870 C   0  0  0  0  0  0  0  0  0  0  0  0
   57.6932   29.4396   46.3973 H   0  0  0  0  0  0  0  0  0  0  0  0
   57.5410   25.7530   46.2210 C   0  0  0  0  0  0  0  0  0  0  0  0
   57.3240   25.2400   47.4420 C   0  0  0  0  0  0  0  0  0  0  0  0
   57.6618   25.7853   48.3356 H   0  0  0  0  0  0  0  0  0  0  0  0
   56.8084   24.2743   47.5491 H   0  0  0  0  0  0  0  0  0  0  0  0
  1  2  1  0
  2  3  1  0
  3  4  1  0
  4  5  1  0
  5  6  2  0
  5  7  1  0
  7  8  1  0
  8  9  1  0
  9 10  1  0
  9 11  2  0
 11 12  1  0
 12 13  1  0
 12 14  2  0
 14 15  1  0
 15 16  1  0
 15 17  1  0
 15 18  1  0
 14 19  1  0
 19 20  1  0
 20 21  2  0
 21 22  1  0
 21 23  1  0
 23 24  1  0
 23 25  2  0
 25 26  1  0
 26 27  1  0
 27 28  2  0
 27 29  1  0
 29 30  1  0
 29 31  1  0
 29 32  1  0
 32 33  1  0
 33 34  1  6
 33 35  1  0
 35 36  2  0
 36 37  1  0
 36 38  1  0
 38 39  1  0
 38 40  2  0
 40 41  1  0
 40 42  1  0
 42 43  1  0
 42 44  2  0
 44 45  1  0
 25 46  1  0
 46 47  1  0
 46 48  2  0
 48 49  1  0
 19 50  1  0
 50 51  2  0
 51 52  1  0
 51 53  1  0
  8  3  2  0
 50 11  1  0
 48 20  1  0
 33 26  1  0
 44 35  1  0
M  CHG  3   4  -1   7  -1  45  -1
M  END
>  <UniqueID>  (87) 
83

>  <SMILES>  (87) 
C=c1/c(=C\c2[n-]c(=O)[n-]c2O)cc(C)n1-c1ccc(N2C(=O)CS[C@@H]2c2ccccc2[O-])cc1

>  <Energy>  (87) 
137.9724851337997

>  <Genealogy>  (87) 
C=c1c(=Cc2[n-]c(=O)[n-]c2O)cc(C)n1-c1ccc(N2C(=O)CSC2c2ccccc2[O-])cc1 (protonated)
C=c1c(=Cc2[n-]c(=O)[n-]c2O)cc(C)n1-c1ccc(N2C(=O)CS[C@@H]2c2ccccc2[O-])cc1 (chirality)
C=c1/c(=C\c2[n-]c(=O)[n-]c2O)cc(C)n1-c1ccc(N2C(=O)CS[C@@H]2c2ccccc2[O-])cc1 (cis-trans isomerization)
C=c1/c(=C\c2[n-]c(=O)[n-]c2O)cc(C)n1-c1ccc(N2C(=O)CS[C@@H]2c2ccccc2[O-])cc1 (3D coordinates assigned)
C=c1/c(=C\c2[n-]c(=O)[n-]c2O)cc(C)n1-c1ccc(N2C(=O)CS[C@@H]2c2ccccc2[O-])cc1 (nonaromatic ring conformer: 137.9724851337997 kcal/mol)

>  <smiles>  (87) 
C=c1c(=Cc2[nH]c(=O)[nH]c2O)cc(C)n1-c1ccc(N2C(=O)CSC2c2ccccc2O)cc1

>  <score_type>  (87) 
oracle

>  <origin>  (87) 
adg

>  <m_score__min__energy>  (87) 
-14.82

>  <m_primary>  (87) 
energy

$$$$
87:0
     RDKit          3D

 47 50  0  0  0  0  0  0  0  0999 V2000
   55.7780   29.3390   45.1390 N   0  0  0  0  0  0  0  0  0  0  0  0
   57.4160   28.9260   45.5090 S   0  0  0  0  0  0  0  0  0  0  0  0
   57.4370   27.7960   46.5000 O   0  0  0  0  0  0  0  0  0  0  0  0
   58.1180   28.4820   44.2560 O   0  0  0  0  0  0  0  0  0  0  0  0
   58.2330   30.3290   46.1870 C   0  0  0  0  0  0  0  0  0  0  0  0
   57.7430   31.6180   45.9410 C   0  0  0  0  0  0  0  0  0  0  0  0
   58.3960   32.7330   46.4720 C   0  0  0  0  0  0  0  0  0  0  0  0
   59.5450   32.5740   47.2670 C   0  0  0  0  0  0  0  0  0  0  0  0
   60.2740   33.7740   47.8200 C   0  0  0  0  0  0  0  0  0  0  0  0
   61.2300   33.4040   48.9250 C   0  0  0  0  0  0  0  0  0  0  0  0
   60.9990   32.6340   50.0620 C   0  0  0  0  0  0  0  0  0  0  0  0
   59.7220   32.0420   50.4980 C   0  0  0  0  0  0  0  0  0  0  0  0
   59.5170   30.6550   50.4510 C   0  0  0  0  0  0  0  0  0  0  0  0
   58.2990   30.1060   50.8620 C   0  0  0  0  0  0  0  0  0  0  0  0
   57.2670   30.9380   51.3090 C   0  0  0  0  0  0  0  0  0  0  0  0
   56.0590   30.3780   51.7160 O   0  0  0  0  0  0  0  0  0  0  0  0
   57.4570   32.3260   51.3350 C   0  0  0  0  0  0  0  0  0  0  0  0
   58.6760   32.8760   50.9240 C   0  0  0  0  0  0  0  0  0  0  0  0
   62.1660   32.4170   50.7060 N   0  0  0  0  0  0  0  0  0  0  0  0
   63.1290   33.0380   50.0400 N   0  0  0  0  0  0  0  0  0  0  0  0
   64.5130   33.0040   50.4350 C   0  0  0  0  0  0  0  0  0  0  0  0
   65.3490   31.9330   50.0700 C   0  0  0  0  0  0  0  0  0  0  0  0
   66.6930   31.9230   50.4520 C   0  0  0  0  0  0  0  0  0  0  0  0
   67.2250   32.9820   51.1960 C   0  0  0  0  0  0  0  0  0  0  0  0
   68.9210   32.9320   51.6570 Cl  0  0  0  0  0  0  0  0  0  0  0  0
   66.4030   34.0640   51.5530 C   0  0  0  0  0  0  0  0  0  0  0  0
   67.0330   35.4190   52.4800 Cl  0  0  0  0  0  0  0  0  0  0  0  0
   65.0570   34.0730   51.1680 C   0  0  0  0  0  0  0  0  0  0  0  0
   62.5910   33.6250   48.9500 C   0  0  0  0  0  0  0  0  0  0  0  0
   63.2500   34.2210   48.0570 O   0  0  0  0  0  0  0  0  0  0  0  0
   60.0510   31.2810   47.4800 C   0  0  0  0  0  0  0  0  0  0  0  0
   59.3960   30.1660   46.9500 C   0  0  0  0  0  0  0  0  0  0  0  0
   55.1710   28.6390   45.6210 H   0  0  0  0  0  0  0  0  0  0  0  0
   56.8402   31.7528   45.3271 H   0  0  0  0  0  0  0  0  0  0  0  0
   58.0088   33.7420   46.2669 H   0  0  0  0  0  0  0  0  0  0  0  0
   60.8411   34.2493   47.0061 H   0  0  0  0  0  0  0  0  0  0  0  0
   59.5232   34.4593   48.2403 H   0  0  0  0  0  0  0  0  0  0  0  0
   60.3194   29.9956   50.0886 H   0  0  0  0  0  0  0  0  0  0  0  0
   58.1515   29.0163   50.8339 H   0  0  0  0  0  0  0  0  0  0  0  0
   55.6700   29.5640   51.2530 H   0  0  0  0  0  0  0  0  0  0  0  0
   56.6460   32.9846   51.6793 H   0  0  0  0  0  0  0  0  0  0  0  0
   58.8156   33.9671   50.9347 H   0  0  0  0  0  0  0  0  0  0  0  0
   64.9421   31.0983   49.4803 H   0  0  0  0  0  0  0  0  0  0  0  0
   67.3365   31.0779   50.1662 H   0  0  0  0  0  0  0  0  0  0  0  0
   64.4183   34.9257   51.4420 H   0  0  0  0  0  0  0  0  0  0  0  0
   60.9702   31.1450   48.0687 H   0  0  0  0  0  0  0  0  0  0  0  0
   59.7951   29.1574   47.1327 H   0  0  0  0  0  0  0  0  0  0  0  0
  1  2  1  0
  2  3  2  0
  2  4  2  0
  2  5  1  0
  5  6  2  0
  6  7  1  0
  7  8  2  0
  8  9  1  0
  9 10  1  0
 10 11  2  0
 11 12  1  0
 12 13  2  0
 13 14  1  0
 14 15  2  0
 15 16  1  0
 15 17  1  0
 17 18  2  0
 11 19  1  0
 19 20  1  0
 20 21  1  0
 21 22  2  0
 22 23  1  0
 23 24  2  0
 24 25  1  0
 24 26  1  0
 26 27  1  0
 26 28  2  0
 20 29  1  0
 29 30  2  0
  8 31  1  0
 31 32  2  0
 32  5  1  0
 29 10  1  0
 18 12  1  0
 28 21  1  0
  1 33  1  0
  6 34  1  0
  7 35  1  0
  9 36  1  0
  9 37  1  0
 13 38  1  0
 14 39  1  0
 16 40  1  0
 17 41  1  0
 18 42  1  0
 22 43  1  0
 23 44  1  0
 28 45  1  0
 31 46  1  0
 32 47  1  0
M  CHG  2   1  -1  19  -1
M  END
>  <UniqueID>  (88) 
84

>  <SMILES>  (88) 
[NH-]S(=O)(=O)c1ccc(Cc2c(-c3ccc(O)cc3)[n-]n(-c3ccc(Cl)c(Cl)c3)c2=O)cc1

>  <Energy>  (88) 
92.8508198790379

>  <Genealogy>  (88) 
[NH-]S(=O)(=O)c1ccc(Cc2c(-c3ccc(O)cc3)[n-]n(-c3ccc(Cl)c(Cl)c3)c2=O)cc1 (protonated)
[NH-]S(=O)(=O)c1ccc(Cc2c(-c3ccc(O)cc3)[n-]n(-c3ccc(Cl)c(Cl)c3)c2=O)cc1 (3D coordinates assigned)
[NH-]S(=O)(=O)c1ccc(Cc2c(-c3ccc(O)cc3)[n-]n(-c3ccc(Cl)c(Cl)c3)c2=O)cc1 (optimized conformer: 92.8508198790379 kcal/mol)

>  <smiles>  (88) 
NS(=O)(=O)c1ccc(Cc2c(-c3ccc(O)cc3)[nH]n(-c3ccc(Cl)c(Cl)c3)c2=O)cc1

>  <score_type>  (88) 
oracle

>  <origin>  (88) 
adg

>  <m_score__min__energy>  (88) 
-11.57

>  <m_primary>  (88) 
energy

$$$$
88:0
     RDKit          3D

 38 40  0  0  0  0  0  0  0  0999 V2000
   55.2730   30.0760   45.6250 H   0  0  0  0  0  0  0  0  0  0  0  0
   55.5460   29.3850   44.9360 O   0  0  0  0  0  0  0  0  0  0  0  0
   56.2730   28.2410   45.2630 C   0  0  0  0  0  0  0  0  0  0  0  0
   55.6130   27.1760   45.7890 N   0  0  0  0  0  0  0  0  0  0  0  0
   56.2700   26.0390   46.1340 C   0  0  0  0  0  0  0  0  0  0  0  0
   55.6320   25.0670   46.6140 O   0  0  0  0  0  0  0  0  0  0  0  0
   57.6140   25.9520   45.9660 N   0  0  0  0  0  0  0  0  0  0  0  0
   58.3240   26.9850   45.4460 C   0  0  0  0  0  0  0  0  0  0  0  0
   59.5710   26.8730   45.3090 O   0  0  0  0  0  0  0  0  0  0  0  0
   57.6650   28.1640   45.0610 C   0  0  0  0  0  0  0  0  0  0  0  0
   58.4280   29.3070   44.5300 C   0  0  0  0  0  0  0  0  0  0  0  0
   59.1200   29.1204   43.6955 H   0  0  0  0  0  0  0  0  0  0  0  0
   58.3330   30.5680   45.0010 C   0  0  0  0  0  0  0  0  0  0  0  0
   57.9040   31.7280   44.3450 C   0  0  0  0  0  0  0  0  0  0  0  0
   57.4340   31.8800   42.9320 C   0  0  0  0  0  0  0  0  0  0  0  0
   56.3874   32.2185   42.9281 H   0  0  0  0  0  0  0  0  0  0  0  0
   58.0610   32.6212   42.4147 H   0  0  0  0  0  0  0  0  0  0  0  0
   57.5082   30.9120   42.4147 H   0  0  0  0  0  0  0  0  0  0  0  0
   57.9620   32.7720   45.1930 N   0  0  0  0  0  0  0  0  0  0  0  0
   58.4180   32.3410   46.3580 N   0  0  0  0  0  0  0  0  0  0  0  0
   58.5540   33.2210   47.5210 C   0  0  0  0  0  0  0  0  0  0  0  0
   58.0642   34.1825   47.3075 H   0  0  0  0  0  0  0  0  0  0  0  0
   58.0801   32.7408   48.3898 H   0  0  0  0  0  0  0  0  0  0  0  0
   60.0080   33.4620   47.8280 C   0  0  0  0  0  0  0  0  0  0  0  0
   60.4420   33.6380   49.1530 C   0  0  0  0  0  0  0  0  0  0  0  0
   59.7158   33.5922   49.9779 H   0  0  0  0  0  0  0  0  0  0  0  0
   61.7930   33.8710   49.4270 C   0  0  0  0  0  0  0  0  0  0  0  0
   62.1266   34.0081   50.4662 H   0  0  0  0  0  0  0  0  0  0  0  0
   62.7200   33.9300   48.3840 C   0  0  0  0  0  0  0  0  0  0  0  0
   63.7821   34.1157   48.6021 H   0  0  0  0  0  0  0  0  0  0  0  0
   62.2980   33.7530   47.0620 C   0  0  0  0  0  0  0  0  0  0  0  0
   63.1980   33.8090   46.0500 F   0  0  0  0  0  0  0  0  0  0  0  0
   60.9480   33.5180   46.7840 C   0  0  0  0  0  0  0  0  0  0  0  0
   60.6199   33.3763   45.7437 H   0  0  0  0  0  0  0  0  0  0  0  0
   58.6520   31.0080   46.2880 C   0  0  0  0  0  0  0  0  0  0  0  0
   59.1070   30.2620   47.3070 C   0  0  0  0  0  0  0  0  0  0  0  0
   59.3225   30.7308   48.2785 H   0  0  0  0  0  0  0  0  0  0  0  0
   59.2643   29.1819   47.1705 H   0  0  0  0  0  0  0  0  0  0  0  0
  1  2  1  0
  2  3  1  0
  3  4  1  0
  4  5  1  0
  5  6  2  0
  5  7  1  0
  7  8  1  0
  8  9  2  0
  8 10  1  0
 10 11  1  0
 11 12  1  0
 11 13  2  0
 13 14  1  0
 14 15  1  0
 15 16  1  0
 15 17  1  0
 15 18  1  0
 14 19  2  0
 19 20  1  0
 20 21  1  0
 21 22  1  0
 21 23  1  0
 21 24  1  0
 24 25  2  0
 25 26  1  0
 25 27  1  0
 27 28  1  0
 27 29  2  0
 29 30  1  0
 29 31  1  0
 31 32  1  0
 31 33  2  0
 33 34  1  0
 20 35  1  0
 35 36  2  0
 36 37  1  0
 36 38  1  0
 10  3  2  0
 35 13  1  0
 33 24  1  0
M  CHG  2   4  -1   7  -1
M  END
>  <UniqueID>  (89) 
85

>  <SMILES>  (89) 
C=c1/c(=C/c2c(O)[n-]c(=O)[n-]c2=O)c(C)nn1Cc1cccc(F)c1

>  <Energy>  (89) 
84.63345082145801

>  <Genealogy>  (89) 
C=c1c(=Cc2c(O)[n-]c(=O)[n-]c2=O)c(C)nn1Cc1cccc(F)c1 (protonated)
C=c1/c(=C/c2c(O)[n-]c(=O)[n-]c2=O)c(C)nn1Cc1cccc(F)c1 (cis-trans isomerization)
C=c1/c(=C/c2c(O)[n-]c(=O)[n-]c2=O)c(C)nn1Cc1cccc(F)c1 (3D coordinates assigned)
C=c1/c(=C/c2c(O)[n-]c(=O)[n-]c2=O)c(C)nn1Cc1cccc(F)c1 (optimized conformer: 84.63345082145801 kcal/mol)

>  <smiles>  (89) 
C=c1c(=Cc2c(O)[nH]c(=O)[nH]c2=O)c(C)nn1Cc1cccc(F)c1

>  <score_type>  (89) 
oracle

>  <origin>  (89) 
adg

>  <m_score__min__energy>  (89) 
-13.08

>  <m_primary>  (89) 
energy

$$$$
