0:0
     RDKit          3D

 61 64  0  0  0  0  0  0  0  0999 V2000
   57.2940   30.9030   42.8150 O   0  0  0  0  0  0  0  0  0  0  0  0
   57.0840   30.5970   44.0210 C   0  0  0  0  0  0  0  0  0  0  0  0
   57.1550   29.1660   44.4710 C   0  0  0  0  0  0  0  0  0  0  0  0
   58.3330   28.9070   45.3600 C   0  0  0  0  0  0  0  0  0  0  0  0
   59.5260   28.3020   44.9810 C   0  0  0  0  0  0  0  0  0  0  0  0
   60.4310   28.1480   46.0390 C   0  0  0  0  0  0  0  0  0  0  0  0
   59.9460   28.6260   47.2560 C   0  0  0  0  0  0  0  0  0  0  0  0
   60.6310   28.6020   48.5630 C   0  0  0  0  0  0  0  0  0  0  0  0
   60.9900   27.4920   49.0410 O   0  0  0  0  0  0  0  0  0  0  0  0
   60.8850   29.8100   49.2980 N   0  0  0  0  0  0  0  0  0  0  0  0
   61.6220   29.7810   50.5610 C   0  0  0  0  0  0  0  0  0  0  0  0
   62.3980   31.0870   50.7780 C   0  0  0  0  0  0  0  0  0  0  0  0
   63.6650   31.1570   49.9160 C   0  0  0  0  0  0  0  0  0  0  0  0
   63.5350   32.1620   48.8620 N   0  0  0  0  0  0  0  0  0  0  0  0
   63.4030   31.9400   47.5440 C   0  0  0  0  0  0  0  0  0  0  0  0
   63.3590   33.1630   46.9130 C   0  0  0  0  0  0  0  0  0  0  0  0
   63.4670   34.1490   47.8290 N   0  0  0  0  0  0  0  0  0  0  0  0
   63.5750   33.5000   49.0070 C   0  0  0  0  0  0  0  0  0  0  0  0
   58.3920   29.2290   47.0080 S   0  0  0  0  0  0  0  0  0  0  0  0
   56.7560   31.6060   44.9840 N   0  0  0  0  0  0  0  0  0  0  0  0
   57.6270   32.6400   45.4700 C   0  0  0  0  0  0  0  0  0  0  0  0
   57.8860   33.8070   44.7300 C   0  0  0  0  0  0  0  0  0  0  0  0
   58.7270   34.7950   45.2470 C   0  0  0  0  0  0  0  0  0  0  0  0
   59.2980   34.6390   46.5120 C   0  0  0  0  0  0  0  0  0  0  0  0
   59.0170   33.4980   47.2760 C   0  0  0  0  0  0  0  0  0  0  0  0
   59.7010   33.3220   48.8950 S   0  0  0  0  0  0  0  0  0  0  0  0
   60.2050   34.6590   49.3670 O   0  0  0  0  0  0  0  0  0  0  0  0
   60.8710   32.3800   48.8390 O   0  0  0  0  0  0  0  0  0  0  0  0
   58.5210   32.7110   50.0320 N   0  0  0  0  0  0  0  0  0  0  0  0
   58.4530   31.2400   49.9620 C   0  0  0  0  0  0  0  0  0  0  0  0
   57.8340   30.6640   51.2450 C   0  0  0  0  0  0  0  0  0  0  0  0
   58.5550   30.9810   52.4310 O   0  0  0  0  0  0  0  0  0  0  0  0
   59.3710   32.1370   52.3150 C   0  0  0  0  0  0  0  0  0  0  0  0
   58.7680   33.2160   51.4010 C   0  0  0  0  0  0  0  0  0  0  0  0
   58.1810   32.5020   46.7500 C   0  0  0  0  0  0  0  0  0  0  0  0
   56.2351   28.9227   45.0229 H   0  0  0  0  0  0  0  0  0  0  0  0
   57.2646   28.5368   43.5754 H   0  0  0  0  0  0  0  0  0  0  0  0
   59.7382   27.9764   43.9519 H   0  0  0  0  0  0  0  0  0  0  0  0
   61.4263   27.6946   45.9215 H   0  0  0  0  0  0  0  0  0  0  0  0
   60.5190   30.7190   48.9410 H   0  0  0  0  0  0  0  0  0  0  0  0
   60.9108   29.6439   51.3889 H   0  0  0  0  0  0  0  0  0  0  0  0
   62.3408   28.9490   50.5270 H   0  0  0  0  0  0  0  0  0  0  0  0
   61.7458   31.9341   50.5189 H   0  0  0  0  0  0  0  0  0  0  0  0
   62.7046   31.1268   51.8337 H   0  0  0  0  0  0  0  0  0  0  0  0
   64.5203   31.4180   50.5565 H   0  0  0  0  0  0  0  0  0  0  0  0
   63.8183   30.1756   49.4433 H   0  0  0  0  0  0  0  0  0  0  0  0
   63.3411   30.9563   47.0556 H   0  0  0  0  0  0  0  0  0  0  0  0
   63.2522   33.3137   45.8286 H   0  0  0  0  0  0  0  0  0  0  0  0
   63.6836   34.0072   49.9771 H   0  0  0  0  0  0  0  0  0  0  0  0
   57.4248   33.9424   43.7406 H   0  0  0  0  0  0  0  0  0  0  0  0
   58.9402   35.6982   44.6564 H   0  0  0  0  0  0  0  0  0  0  0  0
   59.9701   35.4137   46.9098 H   0  0  0  0  0  0  0  0  0  0  0  0
   57.8353   30.9476   49.1001 H   0  0  0  0  0  0  0  0  0  0  0  0
   59.4731   30.8433   49.8521 H   0  0  0  0  0  0  0  0  0  0  0  0
   56.8131   31.0614   51.3447 H   0  0  0  0  0  0  0  0  0  0  0  0
   57.8555   29.5689   51.1437 H   0  0  0  0  0  0  0  0  0  0  0  0
   59.5120   32.5672   53.3175 H   0  0  0  0  0  0  0  0  0  0  0  0
   60.3226   31.8208   51.8629 H   0  0  0  0  0  0  0  0  0  0  0  0
   57.8139   33.5535   51.8321 H   0  0  0  0  0  0  0  0  0  0  0  0
   59.4895   34.0435   51.3319 H   0  0  0  0  0  0  0  0  0  0  0  0
   57.9584   31.6053   47.3470 H   0  0  0  0  0  0  0  0  0  0  0  0
  1  2  2  0
  2  3  1  0
  3  4  1  0
  4  5  2  0
  5  6  1  0
  6  7  2  0
  7  8  1  0
  8  9  2  0
  8 10  1  0
 10 11  1  0
 11 12  1  0
 12 13  1  0
 13 14  1  0
 14 15  1  0
 15 16  2  0
 16 17  1  0
 17 18  2  0
  7 19  1  0
  2 20  1  0
 20 21  1  0
 21 22  2  0
 22 23  1  0
 23 24  2  0
 24 25  1  0
 25 26  1  0
 26 27  2  0
 26 28  2  0
 26 29  1  0
 29 30  1  0
 30 31  1  0
 31 32  1  0
 32 33  1  0
 33 34  1  0
 25 35  2  0
 19  4  1  0
 35 21  1  0
 18 14  1  0
 34 29  1  0
  3 36  1  0
  3 37  1  0
  5 38  1  0
  6 39  1  0
 10 40  1  0
 11 41  1  0
 11 42  1  0
 12 43  1  0
 12 44  1  0
 13 45  1  0
 13 46  1  0
 15 47  1  0
 16 48  1  0
 18 49  1  0
 22 50  1  0
 23 51  1  0
 24 52  1  0
 30 53  1  0
 30 54  1  0
 31 55  1  0
 31 56  1  0
 33 57  1  0
 33 58  1  0
 34 59  1  0
 34 60  1  0
 35 61  1  0
M  CHG  1  20  -1
M  END
>  <UniqueID>  (1) 
1

>  <SMILES>  (1) 
O=C(Cc1ccc(C(=O)NCCCn2ccnc2)s1)[N-]c1cccc(S(=O)(=O)N2CCOCC2)c1

>  <Energy>  (1) 
126.20434228883984

>  <Genealogy>  (1) 
O=C(Cc1ccc(C(=O)NCCCn2ccnc2)s1)[N-]c1cccc(S(=O)(=O)N2CCOCC2)c1 (protonated)
O=C(Cc1ccc(C(=O)NCCCn2ccnc2)s1)[N-]c1cccc(S(=O)(=O)N2CCOCC2)c1 (3D coordinates assigned)
O=C(Cc1ccc(C(=O)NCCCn2ccnc2)s1)[N-]c1cccc(S(=O)(=O)N2CCOCC2)c1 (nonaromatic ring conformer: 126.20434228883984 kcal/mol)

>  <smiles>  (1) 
O=C(Cc1ccc(C(=O)NCCCn2ccnc2)s1)Nc1cccc(S(=O)(=O)N2CCOCC2)c1

>  <score_type>  (1) 
oracle

>  <origin>  (1) 
adg

>  <m_score__min__energy>  (1) 
-11.93

>  <m_primary>  (1) 
energy

$$$$
1:0
     RDKit          3D

 63 66  0  0  0  0  0  0  0  0999 V2000
   55.7460   28.3240   45.2500 O   0  0  0  0  0  0  0  0  0  0  0  0
   55.9320   27.1520   45.6690 C   0  0  0  0  0  0  0  0  0  0  0  0
   54.8400   26.3450   45.9670 O   0  0  0  0  0  0  0  0  0  0  0  0
   57.3230   26.6410   45.8890 C   0  0  0  0  0  0  0  0  0  0  0  0
   58.2460   27.0340   44.7340 C   0  0  0  0  0  0  0  0  0  0  0  0
   58.9950   28.2600   45.0470 N   0  0  0  0  0  0  0  0  0  0  0  0
   60.4120   28.1810   45.4230 C   0  0  0  0  0  0  0  0  0  0  0  0
   60.5490   28.1610   46.9250 C   0  0  0  0  0  0  0  0  0  0  0  0
   60.8120   29.3530   47.6180 C   0  0  0  0  0  0  0  0  0  0  0  0
   60.8970   29.3520   49.0170 C   0  0  0  0  0  0  0  0  0  0  0  0
   61.1470   30.5320   49.7320 C   0  0  0  0  0  0  0  0  0  0  0  0
   61.2180   30.5080   51.1400 C   0  0  0  0  0  0  0  0  0  0  0  0
   61.4380   31.6670   51.9000 O   0  0  0  0  0  0  0  0  0  0  0  0
   60.5370   32.7720   51.9500 C   0  0  0  0  0  0  0  0  0  0  0  0
   59.2040   32.3430   52.5570 C   0  0  0  0  0  0  0  0  0  0  0  0
   58.0370   32.5730   51.5870 C   0  0  0  0  0  0  0  0  0  0  0  0
   58.1480   31.6660   50.3960 C   0  0  0  0  0  0  0  0  0  0  0  0
   57.7580   30.4730   50.5150 O   0  0  0  0  0  0  0  0  0  0  0  0
   58.7080   32.0730   49.1410 N   0  0  0  0  0  0  0  0  0  0  0  0
   59.4240   33.6040   48.7170 S   0  0  0  0  0  0  0  0  0  0  0  0
   59.3360   34.6030   49.8340 O   0  0  0  0  0  0  0  0  0  0  0  0
   58.7130   34.1700   47.5220 O   0  0  0  0  0  0  0  0  0  0  0  0
   61.1100   33.3340   48.3150 C   0  0  0  0  0  0  0  0  0  0  0  0
   61.5850   32.6900   47.1800 C   0  0  0  0  0  0  0  0  0  0  0  0
   62.9870   32.6960   47.0960 C   0  0  0  0  0  0  0  0  0  0  0  0
   63.6080   33.3460   48.1580 C   0  0  0  0  0  0  0  0  0  0  0  0
   62.4130   33.9160   49.2030 S   0  0  0  0  0  0  0  0  0  0  0  0
   61.0580   29.2910   51.8160 C   0  0  0  0  0  0  0  0  0  0  0  0
   60.8040   28.1130   51.1070 C   0  0  0  0  0  0  0  0  0  0  0  0
   60.7170   28.1370   49.7110 C   0  0  0  0  0  0  0  0  0  0  0  0
   60.4510   26.9950   49.0240 N   0  0  0  0  0  0  0  0  0  0  0  0
   60.3550   26.9760   47.6660 C   0  0  0  0  0  0  0  0  0  0  0  0
   60.0910   25.8910   47.0860 O   0  0  0  0  0  0  0  0  0  0  0  0
   58.3660   29.5450   44.9000 C   0  0  0  0  0  0  0  0  0  0  0  0
   58.4760   30.5130   45.9130 C   0  0  0  0  0  0  0  0  0  0  0  0
   57.8660   31.7630   45.7650 C   0  0  0  0  0  0  0  0  0  0  0  0
   57.1190   32.0450   44.6170 C   0  0  0  0  0  0  0  0  0  0  0  0
   57.0120   31.0880   43.6000 C   0  0  0  0  0  0  0  0  0  0  0  0
   57.6270   29.8400   43.7400 C   0  0  0  0  0  0  0  0  0  0  0  0
   57.7175   27.0656   46.8239 H   0  0  0  0  0  0  0  0  0  0  0  0
   57.2856   25.5432   45.9469 H   0  0  0  0  0  0  0  0  0  0  0  0
   58.9576   26.2159   44.5488 H   0  0  0  0  0  0  0  0  0  0  0  0
   57.6292   27.2200   43.8424 H   0  0  0  0  0  0  0  0  0  0  0  0
   60.8486   27.2617   45.0055 H   0  0  0  0  0  0  0  0  0  0  0  0
   60.9399   29.0601   45.0248 H   0  0  0  0  0  0  0  0  0  0  0  0
   60.9519   30.2913   47.0611 H   0  0  0  0  0  0  0  0  0  0  0  0
   61.2883   31.4801   49.1924 H   0  0  0  0  0  0  0  0  0  0  0  0
   60.9760   33.5703   52.5664 H   0  0  0  0  0  0  0  0  0  0  0  0
   60.3628   33.1375   50.9272 H   0  0  0  0  0  0  0  0  0  0  0  0
   59.2542   31.2729   52.8066 H   0  0  0  0  0  0  0  0  0  0  0  0
   59.0262   32.9504   53.4567 H   0  0  0  0  0  0  0  0  0  0  0  0
   57.0896   32.3702   52.1079 H   0  0  0  0  0  0  0  0  0  0  0  0
   58.0670   33.6164   51.2400 H   0  0  0  0  0  0  0  0  0  0  0  0
   60.9324   32.2246   46.4267 H   0  0  0  0  0  0  0  0  0  0  0  0
   63.5420   32.2305   46.2682 H   0  0  0  0  0  0  0  0  0  0  0  0
   64.6929   33.4674   48.2930 H   0  0  0  0  0  0  0  0  0  0  0  0
   61.1328   29.2622   52.9131 H   0  0  0  0  0  0  0  0  0  0  0  0
   60.6722   27.1646   51.6485 H   0  0  0  0  0  0  0  0  0  0  0  0
   59.0447   30.2864   46.8269 H   0  0  0  0  0  0  0  0  0  0  0  0
   57.9739   32.5242   46.5517 H   0  0  0  0  0  0  0  0  0  0  0  0
   56.6159   33.0176   44.5128 H   0  0  0  0  0  0  0  0  0  0  0  0
   56.4422   31.3189   42.6879 H   0  0  0  0  0  0  0  0  0  0  0  0
   57.5328   29.0884   42.9424 H   0  0  0  0  0  0  0  0  0  0  0  0
  1  2  2  0
  2  3  1  0
  2  4  1  0
  4  5  1  0
  5  6  1  0
  6  7  1  0
  7  8  1  0
  8  9  2  0
  9 10  1  0
 10 11  2  0
 11 12  1  0
 12 13  1  0
 13 14  1  0
 14 15  1  0
 15 16  1  0
 16 17  1  0
 17 18  2  0
 17 19  1  0
 19 20  1  0
 20 21  2  0
 20 22  2  0
 20 23  1  0
 23 24  2  0
 24 25  1  0
 25 26  2  0
 26 27  1  0
 12 28  2  0
 28 29  1  0
 29 30  2  0
 30 31  1  0
 31 32  1  0
 32 33  2  0
  6 34  1  0
 34 35  2  0
 35 36  1  0
 36 37  2  0
 37 38  1  0
 38 39  2  0
 32  8  1  0
 39 34  1  0
 30 10  1  0
 27 23  1  0
  4 40  1  0
  4 41  1  0
  5 42  1  0
  5 43  1  0
  7 44  1  0
  7 45  1  0
  9 46  1  0
 11 47  1  0
 14 48  1  0
 14 49  1  0
 15 50  1  0
 15 51  1  0
 16 52  1  0
 16 53  1  0
 24 54  1  0
 25 55  1  0
 26 56  1  0
 28 57  1  0
 29 58  1  0
 35 59  1  0
 36 60  1  0
 37 61  1  0
 38 62  1  0
 39 63  1  0
M  CHG  3   3  -1  19  -1  31  -1
M  END
>  <UniqueID>  (2) 
2

>  <SMILES>  (2) 
O=C([O-])CCN(Cc1cc2cc(OCCCC(=O)[N-]S(=O)(=O)c3cccs3)ccc2[n-]c1=O)c1ccccc1

>  <Energy>  (2) 
95.74175196465319

>  <Genealogy>  (2) 
O=C([O-])CCN(Cc1cc2cc(OCCCC(=O)[N-]S(=O)(=O)c3cccs3)ccc2[n-]c1=O)c1ccccc1 (protonated)
O=C([O-])CCN(Cc1cc2cc(OCCCC(=O)[N-]S(=O)(=O)c3cccs3)ccc2[n-]c1=O)c1ccccc1 (3D coordinates assigned)
O=C([O-])CCN(Cc1cc2cc(OCCCC(=O)[N-]S(=O)(=O)c3cccs3)ccc2[n-]c1=O)c1ccccc1 (optimized conformer: 95.74175196465319 kcal/mol)

>  <smiles>  (2) 
O=C(O)CCN(Cc1cc2cc(OCCCC(=O)NS(=O)(=O)c3cccs3)ccc2[nH]c1=O)c1ccccc1

>  <score_type>  (2) 
oracle

>  <origin>  (2) 
adg

>  <m_score__min__energy>  (2) 
-14.98

>  <m_primary>  (2) 
energy

$$$$
2:0
     RDKit          3D

 51 54  0  0  0  0  0  0  0  0999 V2000
   59.1880   29.8310   47.3090 C   0  0  0  0  0  0  0  0  0  0  0  0
   58.7300   30.8000   46.4990 C   0  0  0  0  0  0  0  0  0  0  0  0
   58.2300   30.6570   45.1940 C   0  0  0  0  0  0  0  0  0  0  0  0
   57.9270   29.5580   44.4760 C   0  0  0  0  0  0  0  0  0  0  0  0
   57.4410   28.2780   45.0290 C   0  0  0  0  0  0  0  0  0  0  0  0
   56.0710   28.0750   45.2420 C   0  0  0  0  0  0  0  0  0  0  0  0
   55.1460   29.0540   44.8910 O   0  0  0  0  0  0  0  0  0  0  0  0
   55.6340   26.9120   45.7890 N   0  0  0  0  0  0  0  0  0  0  0  0
   56.5080   25.9360   46.1490 C   0  0  0  0  0  0  0  0  0  0  0  0
   55.9540   24.5460   46.8010 S   0  0  0  0  0  0  0  0  0  0  0  0
   57.8430   26.1190   45.9780 N   0  0  0  0  0  0  0  0  0  0  0  0
   58.3280   27.2660   45.4370 C   0  0  0  0  0  0  0  0  0  0  0  0
   59.5740   27.4110   45.3100 O   0  0  0  0  0  0  0  0  0  0  0  0
   58.0610   31.9410   44.7000 C   0  0  0  0  0  0  0  0  0  0  0  0
   58.4010   32.8080   45.7170 C   0  0  0  0  0  0  0  0  0  0  0  0
   58.3340   34.3030   45.6210 C   0  0  0  0  0  0  0  0  0  0  0  0
   58.8110   32.1210   46.8050 N   0  0  0  0  0  0  0  0  0  0  0  0
   59.2500   32.7010   48.0460 C   0  0  0  0  0  0  0  0  0  0  0  0
   60.3140   33.6140   48.0620 C   0  0  0  0  0  0  0  0  0  0  0  0
   60.7290   34.1870   49.2660 C   0  0  0  0  0  0  0  0  0  0  0  0
   60.0730   33.8650   50.4580 C   0  0  0  0  0  0  0  0  0  0  0  0
   58.9890   32.9770   50.4480 C   0  0  0  0  0  0  0  0  0  0  0  0
   58.2990   32.6510   51.7090 C   0  0  0  0  0  0  0  0  0  0  0  0
   57.2500   33.2940   51.9910 O   0  0  0  0  0  0  0  0  0  0  0  0
   58.7810   31.6320   52.6260 N   0  0  0  0  0  0  0  0  0  0  0  0
   57.7090   31.0970   53.4980 C   0  0  0  0  0  0  0  0  0  0  0  0
   56.8560   29.9970   52.8160 C   0  0  0  0  0  0  0  0  0  0  0  0
   57.3940   29.5480   51.5870 O   0  0  0  0  0  0  0  0  0  0  0  0
   58.7650   29.2710   51.7390 C   0  0  0  0  0  0  0  0  0  0  0  0
   59.5600   30.5730   51.9360 C   0  0  0  0  0  0  0  0  0  0  0  0
   58.5970   32.3760   49.2430 C   0  0  0  0  0  0  0  0  0  0  0  0
   59.5539   30.0826   48.3154 H   0  0  0  0  0  0  0  0  0  0  0  0
   59.1972   28.7859   46.9658 H   0  0  0  0  0  0  0  0  0  0  0  0
   58.0523   29.6195   43.3849 H   0  0  0  0  0  0  0  0  0  0  0  0
   57.7210   32.2156   43.6906 H   0  0  0  0  0  0  0  0  0  0  0  0
   58.3146   34.7349   46.6325 H   0  0  0  0  0  0  0  0  0  0  0  0
   59.2163   34.6756   45.0800 H   0  0  0  0  0  0  0  0  0  0  0  0
   57.4219   34.5952   45.0800 H   0  0  0  0  0  0  0  0  0  0  0  0
   60.8231   33.8796   47.1238 H   0  0  0  0  0  0  0  0  0  0  0  0
   61.5729   34.8925   49.2766 H   0  0  0  0  0  0  0  0  0  0  0  0
   60.4088   34.3100   51.4063 H   0  0  0  0  0  0  0  0  0  0  0  0
   59.4510   32.1170   53.2720 H   0  0  0  0  0  0  0  0  0  0  0  0
   58.1727   30.6704   54.3997 H   0  0  0  0  0  0  0  0  0  0  0  0
   57.0341   31.9327   53.7349 H   0  0  0  0  0  0  0  0  0  0  0  0
   56.7842   29.1380   53.4994 H   0  0  0  0  0  0  0  0  0  0  0  0
   55.8726   30.4386   52.5972 H   0  0  0  0  0  0  0  0  0  0  0  0
   58.9082   28.6233   52.6165 H   0  0  0  0  0  0  0  0  0  0  0  0
   59.1284   28.7666   50.8315 H   0  0  0  0  0  0  0  0  0  0  0  0
   60.4547   30.3496   52.5356 H   0  0  0  0  0  0  0  0  0  0  0  0
   59.8185   30.9540   50.9370 H   0  0  0  0  0  0  0  0  0  0  0  0
   57.7737   31.6465   49.2372 H   0  0  0  0  0  0  0  0  0  0  0  0
  1  2  2  0
  2  3  1  0
  3  4  2  3
  4  5  1  0
  5  6  2  0
  6  7  1  0
  6  8  1  0
  8  9  1  0
  9 10  2  0
  9 11  1  0
 11 12  1  0
 12 13  2  0
  3 14  1  0
 14 15  2  0
 15 16  1  0
 15 17  1  0
 17 18  1  0
 18 19  2  0
 19 20  1  0
 20 21  2  0
 21 22  1  0
 22 23  1  0
 23 24  2  0
 23 25  1  0
 25 26  1  0
 26 27  1  0
 27 28  1  0
 28 29  1  0
 29 30  1  0
 22 31  2  0
 17  2  1  0
 31 18  1  0
 12  5  1  0
 30 25  1  0
  1 32  1  0
  1 33  1  0
  4 34  1  0
 14 35  1  0
 16 36  1  0
 16 37  1  0
 16 38  1  0
 19 39  1  0
 20 40  1  0
 21 41  1  0
 25 42  1  0
 26 43  1  0
 26 44  1  0
 27 45  1  0
 27 46  1  0
 29 47  1  0
 29 48  1  0
 30 49  1  0
 30 50  1  0
 31 51  1  0
M  CHG  4   7  -1   8  -1  11  -1  25   1
M  END
>  <UniqueID>  (3) 
3

>  <SMILES>  (3) 
C=c1c(=Cc2c([O-])[n-]c(=S)[n-]c2=O)cc(C)n1-c1cccc(C(=O)[NH+]2CCOCC2)c1

>  <Energy>  (3) 
124.34030007079888

>  <Genealogy>  (3) 
C=c1c(=Cc2c([O-])[n-]c(=S)[n-]c2=O)cc(C)n1-c1cccc(C(=O)[NH+]2CCOCC2)c1 (protonated)
C=c1c(=Cc2c([O-])[n-]c(=S)[n-]c2=O)cc(C)n1-c1cccc(C(=O)[NH+]2CCOCC2)c1 (3D coordinates assigned)
C=c1c(=Cc2c([O-])[n-]c(=S)[n-]c2=O)cc(C)n1-c1cccc(C(=O)[NH+]2CCOCC2)c1 (nonaromatic ring conformer: 124.34030007079888 kcal/mol)

>  <smiles>  (3) 
C=c1c(=Cc2c(O)[nH]c(=S)[nH]c2=O)cc(C)n1-c1cccc(C(=O)N2CCOCC2)c1

>  <score_type>  (3) 
oracle

>  <origin>  (3) 
adg

>  <m_score__min__energy>  (3) 
-15.300000000000001

>  <m_primary>  (3) 
energy

$$$$
3:0
     RDKit          3D

 29 30  0  0  0  0  0  0  0  0999 V2000
   56.8570   25.1590   46.6280 H   0  0  0  0  0  0  0  0  0  0  0  0
   57.6730   25.7070   46.3750 O   0  0  0  0  0  0  0  0  0  0  0  0
   57.5530   26.9810   45.8230 C   0  0  0  0  0  0  0  0  0  0  0  0
   58.6960   27.7110   45.4720 C   0  0  0  0  0  0  0  0  0  0  0  0
   59.6946   27.2795   45.6353 H   0  0  0  0  0  0  0  0  0  0  0  0
   58.5700   28.9860   44.9150 C   0  0  0  0  0  0  0  0  0  0  0  0
   59.4715   29.5611   44.6570 H   0  0  0  0  0  0  0  0  0  0  0  0
   57.2980   29.5390   44.6820 C   0  0  0  0  0  0  0  0  0  0  0  0
   57.1550   30.8850   44.0850 C   0  0  0  0  0  0  0  0  0  0  0  0
   56.3316   31.0397   43.3721 H   0  0  0  0  0  0  0  0  0  0  0  0
   57.9540   31.9330   44.3470 C   0  0  0  0  0  0  0  0  0  0  0  0
   58.9299   31.9643   43.8404 H   0  0  0  0  0  0  0  0  0  0  0  0
   57.6260   33.0490   45.2630 C   0  0  0  0  0  0  0  0  0  0  0  0
   56.6740   33.8120   44.9500 O   0  0  0  0  0  0  0  0  0  0  0  0
   58.3980   33.3260   46.4980 C   0  0  0  0  0  0  0  0  0  0  0  0
   58.2200   32.5190   47.6350 C   0  0  0  0  0  0  0  0  0  0  0  0
   57.4913   31.6953   47.6115 H   0  0  0  0  0  0  0  0  0  0  0  0
   58.9630   32.7560   48.7960 C   0  0  0  0  0  0  0  0  0  0  0  0
   58.8238   32.1135   49.6780 H   0  0  0  0  0  0  0  0  0  0  0  0
   59.8820   33.8080   48.8370 C   0  0  0  0  0  0  0  0  0  0  0  0
   60.6230   34.0380   49.9880 O   0  0  0  0  0  0  0  0  0  0  0  0
   60.0540   34.6280   47.7190 C   0  0  0  0  0  0  0  0  0  0  0  0
   60.7749   35.4581   47.7531 H   0  0  0  0  0  0  0  0  0  0  0  0
   59.3120   34.3960   46.5570 C   0  0  0  0  0  0  0  0  0  0  0  0
   59.4427   35.0526   45.6842 H   0  0  0  0  0  0  0  0  0  0  0  0
   56.1540   28.8140   45.0620 C   0  0  0  0  0  0  0  0  0  0  0  0
   54.8850   29.3510   44.8670 O   0  0  0  0  0  0  0  0  0  0  0  0
   56.2840   27.5370   45.6230 C   0  0  0  0  0  0  0  0  0  0  0  0
   55.1490   26.8180   45.9810 O   0  0  0  0  0  0  0  0  0  0  0  0
  1  2  1  0
  2  3  1  0
  3  4  2  0
  4  5  1  0
  4  6  1  0
  6  7  1  0
  6  8  2  0
  8  9  1  0
  9 10  1  0
  9 11  2  0
 11 12  1  0
 11 13  1  0
 13 14  2  0
 13 15  1  0
 15 16  2  0
 16 17  1  0
 16 18  1  0
 18 19  1  0
 18 20  2  0
 20 21  1  0
 20 22  1  0
 22 23  1  0
 22 24  2  0
 24 25  1  0
  8 26  1  0
 26 27  1  0
 26 28  2  0
 28 29  1  0
 28  3  1  0
 24 15  1  0
M  CHG  3  21  -1  27  -1  29  -1
M  END
>  <UniqueID>  (4) 
4

>  <SMILES>  (4) 
O=C(/C=C\c1ccc(O)c([O-])c1[O-])c1ccc([O-])cc1

>  <Energy>  (4) 
40.79495078319209

>  <Genealogy>  (4) 
O=C(C=Cc1ccc(O)c([O-])c1[O-])c1ccc([O-])cc1 (protonated)
O=C(/C=C\c1ccc(O)c([O-])c1[O-])c1ccc([O-])cc1 (cis-trans isomerization)
O=C(/C=C\c1ccc(O)c([O-])c1[O-])c1ccc([O-])cc1 (3D coordinates assigned)
O=C(/C=C\c1ccc(O)c([O-])c1[O-])c1ccc([O-])cc1 (optimized conformer: 40.79495078319209 kcal/mol)

>  <smiles>  (4) 
O=C(C=Cc1ccc(O)c(O)c1O)c1ccc(O)cc1

>  <score_type>  (4) 
oracle

>  <origin>  (4) 
adg

>  <m_score__min__energy>  (4) 
-15.51

>  <m_primary>  (4) 
energy

$$$$
4:0
     RDKit          3D

 47 49  0  0  0  0  0  0  0  0999 V2000
   59.3290   29.2630   52.0030 C   0  0  0  0  0  0  0  0  0  0  0  0
   58.0880   28.9930   52.8460 C   0  0  0  0  0  0  0  0  0  0  0  0
   56.9050   29.1590   52.0690 O   0  0  0  0  0  0  0  0  0  0  0  0
   55.8680   30.0340   52.4160 C   0  0  0  0  0  0  0  0  0  0  0  0
   54.6870   29.6120   52.5280 O   0  0  0  0  0  0  0  0  0  0  0  0
   56.1430   31.4110   52.6940 N   0  0  0  0  0  0  0  0  0  0  0  0
   57.3130   32.1360   52.2900 C   0  0  0  0  0  0  0  0  0  0  0  0
   58.0700   32.8920   53.2020 C   0  0  0  0  0  0  0  0  0  0  0  0
   59.2200   33.5620   52.7750 C   0  0  0  0  0  0  0  0  0  0  0  0
   59.6300   33.4720   51.4430 C   0  0  0  0  0  0  0  0  0  0  0  0
   58.8990   32.7030   50.5250 C   0  0  0  0  0  0  0  0  0  0  0  0
   59.3290   32.6010   49.1540 N   0  0  0  0  0  0  0  0  0  0  0  0
   59.6640   33.6060   48.3180 C   0  0  0  0  0  0  0  0  0  0  0  0
   59.6620   34.9540   48.6770 O   0  0  0  0  0  0  0  0  0  0  0  0
   60.0050   33.0810   47.0820 C   0  0  0  0  0  0  0  0  0  0  0  0
   60.3500   33.8630   45.8490 C   0  0  0  0  0  0  0  0  0  0  0  0
   59.8580   31.7360   47.1430 N   0  0  0  0  0  0  0  0  0  0  0  0
   59.9860   30.7650   46.0530 C   0  0  0  0  0  0  0  0  0  0  0  0
   58.6260   30.2870   45.6170 C   0  0  0  0  0  0  0  0  0  0  0  0
   58.1770   29.0100   45.9900 C   0  0  0  0  0  0  0  0  0  0  0  0
   56.9040   28.5710   45.6110 C   0  0  0  0  0  0  0  0  0  0  0  0
   56.0710   29.4050   44.8590 C   0  0  0  0  0  0  0  0  0  0  0  0
   54.8060   28.9690   44.4820 O   0  0  0  0  0  0  0  0  0  0  0  0
   56.5110   30.6780   44.4850 C   0  0  0  0  0  0  0  0  0  0  0  0
   57.7820   31.1200   44.8620 C   0  0  0  0  0  0  0  0  0  0  0  0
   59.4490   31.4820   48.4070 C   0  0  0  0  0  0  0  0  0  0  0  0
   59.1720   30.3260   48.8290 O   0  0  0  0  0  0  0  0  0  0  0  0
   57.7440   32.0300   50.9620 C   0  0  0  0  0  0  0  0  0  0  0  0
   60.1879   29.4499   52.6643 H   0  0  0  0  0  0  0  0  0  0  0  0
   59.5382   28.3894   51.3682 H   0  0  0  0  0  0  0  0  0  0  0  0
   59.1564   30.1446   51.3682 H   0  0  0  0  0  0  0  0  0  0  0  0
   58.1278   27.9619   53.2272 H   0  0  0  0  0  0  0  0  0  0  0  0
   58.0656   29.7083   53.6813 H   0  0  0  0  0  0  0  0  0  0  0  0
   57.7565   32.9564   54.2544 H   0  0  0  0  0  0  0  0  0  0  0  0
   59.8033   34.1614   53.4895 H   0  0  0  0  0  0  0  0  0  0  0  0
   60.5319   34.0075   51.1115 H   0  0  0  0  0  0  0  0  0  0  0  0
   58.8780   35.5600   48.4690 H   0  0  0  0  0  0  0  0  0  0  0  0
   60.7783   34.8339   46.1385 H   0  0  0  0  0  0  0  0  0  0  0  0
   61.0840   33.3017   45.2522 H   0  0  0  0  0  0  0  0  0  0  0  0
   59.4406   34.0267   45.2522 H   0  0  0  0  0  0  0  0  0  0  0  0
   60.4939   31.2406   45.2010 H   0  0  0  0  0  0  0  0  0  0  0  0
   60.5714   29.9039   46.4076 H   0  0  0  0  0  0  0  0  0  0  0  0
   58.8292   28.3518   46.5829 H   0  0  0  0  0  0  0  0  0  0  0  0
   56.5581   27.5690   45.9048 H   0  0  0  0  0  0  0  0  0  0  0  0
   55.8554   31.3332   43.8927 H   0  0  0  0  0  0  0  0  0  0  0  0
   58.1232   32.1232   44.5669 H   0  0  0  0  0  0  0  0  0  0  0  0
   57.1727   31.4134   50.2525 H   0  0  0  0  0  0  0  0  0  0  0  0
  1  2  1  0
  2  3  1  0
  3  4  1  0
  4  5  2  0
  4  6  1  0
  6  7  1  0
  7  8  2  0
  8  9  1  0
  9 10  2  0
 10 11  1  0
 11 12  1  0
 12 13  1  0
 13 14  1  0
 13 15  2  0
 15 16  1  0
 15 17  1  0
 17 18  1  0
 18 19  1  0
 19 20  2  0
 20 21  1  0
 21 22  2  0
 22 23  1  0
 22 24  1  0
 24 25  2  0
 17 26  1  0
 26 27  2  0
 11 28  2  0
 28  7  1  0
 26 12  1  0
 25 19  1  0
  1 29  1  0
  1 30  1  0
  1 31  1  0
  2 32  1  0
  2 33  1  0
  8 34  1  0
  9 35  1  0
 10 36  1  0
 14 37  1  0
 16 38  1  0
 16 39  1  0
 16 40  1  0
 18 41  1  0
 18 42  1  0
 20 43  1  0
 21 44  1  0
 24 45  1  0
 25 46  1  0
 28 47  1  0
M  CHG  2   6  -1  23  -1
M  END
>  <UniqueID>  (5) 
5

>  <SMILES>  (5) 
CCOC(=O)[N-]c1cccc(-n2c(O)c(C)n(Cc3ccc([O-])cc3)c2=O)c1

>  <Energy>  (5) 
85.38923343336387

>  <Genealogy>  (5) 
CCOC(=O)[N-]c1cccc(-n2c(O)c(C)n(Cc3ccc([O-])cc3)c2=O)c1 (protonated)
CCOC(=O)[N-]c1cccc(-n2c(O)c(C)n(Cc3ccc([O-])cc3)c2=O)c1 (3D coordinates assigned)
CCOC(=O)[N-]c1cccc(-n2c(O)c(C)n(Cc3ccc([O-])cc3)c2=O)c1 (optimized conformer: 85.38923343336387 kcal/mol)

>  <smiles>  (5) 
CCOC(=O)Nc1cccc(-n2c(O)c(C)n(Cc3ccc(O)cc3)c2=O)c1

>  <score_type>  (5) 
oracle

>  <origin>  (5) 
adg

>  <m_score__min__energy>  (5) 
-11.41

>  <m_primary>  (5) 
energy

$$$$
5:0
     RDKit          3D

 55 57  0  0  0  0  0  0  0  0999 V2000
   55.7630   27.4520   46.2770 H   0  0  0  0  0  0  0  0  0  0  0  0
   55.1580   26.6880   46.0000 O   0  0  0  0  0  0  0  0  0  0  0  0
   55.5940   25.3610   45.9730 C   0  0  0  0  0  0  0  0  0  0  0  0
   54.7590   24.3840   45.4240 C   0  0  0  0  0  0  0  0  0  0  0  0
   53.7741   24.6658   45.0234 H   0  0  0  0  0  0  0  0  0  0  0  0
   55.1720   23.0520   45.3830 C   0  0  0  0  0  0  0  0  0  0  0  0
   54.5181   22.2798   44.9517 H   0  0  0  0  0  0  0  0  0  0  0  0
   56.4230   22.7110   45.8950 C   0  0  0  0  0  0  0  0  0  0  0  0
   56.7615   21.6647   45.8687 H   0  0  0  0  0  0  0  0  0  0  0  0
   57.2250   23.6720   46.4270 N   0  0  0  0  0  0  0  0  0  0  0  0
   56.8510   24.9820   46.4840 C   0  0  0  0  0  0  0  0  0  0  0  0
   57.6400   25.8850   46.9950 N   0  0  0  0  0  0  0  0  0  0  0  0
   58.2470   26.9990   46.3200 C   0  0  0  0  0  0  0  0  0  0  0  0
   59.1850   26.7700   45.5130 O   0  0  0  0  0  0  0  0  0  0  0  0
   57.7290   28.3320   46.4800 N   0  0  0  0  0  0  0  0  0  0  0  0
   57.2860   29.1580   45.5720 C   0  0  0  0  0  0  0  0  0  0  0  0
   56.0470   28.9360   45.0560 N   0  0  0  0  0  0  0  0  0  0  0  0
   55.4950   29.7400   44.1100 C   0  0  0  0  0  0  0  0  0  0  0  0
   54.4920   29.5176   43.7169 H   0  0  0  0  0  0  0  0  0  0  0  0
   56.1990   30.8470   43.6370 C   0  0  0  0  0  0  0  0  0  0  0  0
   55.7611   31.4925   42.8614 H   0  0  0  0  0  0  0  0  0  0  0  0
   57.4670   31.1300   44.1570 C   0  0  0  0  0  0  0  0  0  0  0  0
   58.2510   32.3190   43.6600 C   0  0  0  0  0  0  0  0  0  0  0  0
   57.8060   32.6762   42.7196 H   0  0  0  0  0  0  0  0  0  0  0  0
   59.2941   32.0094   43.4984 H   0  0  0  0  0  0  0  0  0  0  0  0
   58.2320   33.4160   44.6520 N   0  0  0  0  0  0  0  0  0  0  0  0
   59.6080   33.8380   45.0220 C   0  0  0  0  0  0  0  0  0  0  0  0
   59.6264   34.9329   45.1264 H   0  0  0  0  0  0  0  0  0  0  0  0
   60.2894   33.4993   44.2277 H   0  0  0  0  0  0  0  0  0  0  0  0
   60.0750   33.2070   46.3440 C   0  0  0  0  0  0  0  0  0  0  0  0
   61.0903   33.5667   46.5673 H   0  0  0  0  0  0  0  0  0  0  0  0
   60.0513   32.1143   46.2196 H   0  0  0  0  0  0  0  0  0  0  0  0
   59.1860   33.5510   47.4840 N   0  0  0  0  0  0  0  0  0  0  0  0
   59.7610   34.6310   48.3140 C   0  0  0  0  0  0  0  0  0  0  0  0
   58.9478   35.2679   48.6923 H   0  0  0  0  0  0  0  0  0  0  0  0
   60.4523   35.2228   47.6960 H   0  0  0  0  0  0  0  0  0  0  0  0
   60.5250   34.0550   49.4830 C   0  0  0  0  0  0  0  0  0  0  0  0
   59.8890   33.8360   50.5500 O   0  0  0  0  0  0  0  0  0  0  0  0
   61.9410   33.7680   49.4260 N   0  0  0  0  0  0  0  0  0  0  0  0
   62.6290   33.3610   50.6560 C   0  0  0  0  0  0  0  0  0  0  0  0
   62.0525   33.7020   51.5286 H   0  0  0  0  0  0  0  0  0  0  0  0
   62.7179   32.2649   50.6809 H   0  0  0  0  0  0  0  0  0  0  0  0
   63.6325   33.8109   50.6809 H   0  0  0  0  0  0  0  0  0  0  0  0
   62.6890   33.8550   48.1670 C   0  0  0  0  0  0  0  0  0  0  0  0
   63.7600   33.9796   48.3847 H   0  0  0  0  0  0  0  0  0  0  0  0
   62.5377   32.9332   47.5861 H   0  0  0  0  0  0  0  0  0  0  0  0
   62.3302   34.7175   47.5861 H   0  0  0  0  0  0  0  0  0  0  0  0
   57.8000   33.8740   47.0650 C   0  0  0  0  0  0  0  0  0  0  0  0
   57.7367   34.9473   46.8327 H   0  0  0  0  0  0  0  0  0  0  0  0
   57.1185   33.6135   47.8882 H   0  0  0  0  0  0  0  0  0  0  0  0
   57.3920   33.0700   45.8260 C   0  0  0  0  0  0  0  0  0  0  0  0
   56.3400   33.2874   45.5893 H   0  0  0  0  0  0  0  0  0  0  0  0
   57.5310   32.0014   46.0469 H   0  0  0  0  0  0  0  0  0  0  0  0
   58.0170   30.2830   45.1310 C   0  0  0  0  0  0  0  0  0  0  0  0
   59.0124   30.4941   45.5489 H   0  0  0  0  0  0  0  0  0  0  0  0
  1  2  1  0
  2  3  1  0
  3  4  2  0
  4  5  1  0
  4  6  1  0
  6  7  1  0
  6  8  2  0
  8  9  1  0
  8 10  1  0
 10 11  1  0
 11 12  2  0
 12 13  1  0
 13 14  2  0
 13 15  1  0
 15 16  2  3
 16 17  1  0
 17 18  1  0
 18 19  1  0
 18 20  2  0
 20 21  1  0
 20 22  1  0
 22 23  1  0
 23 24  1  0
 23 25  1  0
 23 26  1  0
 26 27  1  0
 27 28  1  0
 27 29  1  0
 27 30  1  0
 30 31  1  0
 30 32  1  0
 30 33  1  0
 33 34  1  0
 34 35  1  0
 34 36  1  0
 34 37  1  0
 37 38  2  0
 37 39  1  0
 39 40  1  0
 40 41  1  0
 40 42  1  0
 40 43  1  0
 39 44  1  0
 44 45  1  0
 44 46  1  0
 44 47  1  0
 33 48  1  0
 48 49  1  0
 48 50  1  0
 48 51  1  0
 51 52  1  0
 51 53  1  0
 22 54  2  0
 54 55  1  0
 11  3  1  0
 54 16  1  0
 51 26  1  0
M  CHG  2  10  -1  17  -1
M  END
>  <UniqueID>  (6) 
6

>  <SMILES>  (6) 
CN(C)C(=O)CN1CCN(Cc2cc[n-]c(=NC(=O)/N=c3\[n-]cccc3O)c2)CC1

>  <Energy>  (6) 
79.31886613859734

>  <Genealogy>  (6) 
CN(C)C(=O)CN1CCN(Cc2cc[n-]c(=NC(=O)N=c3[n-]cccc3O)c2)CC1 (protonated)
CN(C)C(=O)CN1CCN(Cc2cc[n-]c(=NC(=O)/N=c3\[n-]cccc3O)c2)CC1 (cis-trans isomerization)
CN(C)C(=O)CN1CCN(Cc2cc[n-]c(=NC(=O)/N=c3\[n-]cccc3O)c2)CC1 (3D coordinates assigned)
CN(C)C(=O)CN1CCN(Cc2cc[n-]c(=NC(=O)/N=c3\[n-]cccc3O)c2)CC1 (nonaromatic ring conformer: 79.31886613859734 kcal/mol)

>  <smiles>  (6) 
CN(C)C(=O)CN1CCN(Cc2cc[nH]c(=NC(=O)N=c3[nH]cccc3O)c2)CC1

>  <score_type>  (6) 
oracle

>  <origin>  (6) 
adg

>  <m_score__min__energy>  (6) 
-11.09

>  <m_primary>  (6) 
energy

$$$$
6:0
     RDKit          3D

 29 30  0  0  0  0  0  0  0  0999 V2000
   56.1280   29.2110   45.2530 O   0  0  0  0  0  0  0  0  0  0  0  0
   57.3220   28.8060   45.2620 C   0  0  0  0  0  0  0  0  0  0  0  0
   58.3680   29.6710   45.7110 N   0  0  0  0  0  0  0  0  0  0  0  0
   58.1800   30.6560   46.7660 C   0  0  0  0  0  0  0  0  0  0  0  0
   58.4860   32.0250   46.2300 C   0  0  0  0  0  0  0  0  0  0  0  0
   59.6230   32.7220   46.6740 C   0  0  0  0  0  0  0  0  0  0  0  0
   59.8880   34.0100   46.2010 C   0  0  0  0  0  0  0  0  0  0  0  0
   59.0150   34.6160   45.2910 C   0  0  0  0  0  0  0  0  0  0  0  0
   59.2730   35.8670   44.8350 F   0  0  0  0  0  0  0  0  0  0  0  0
   57.8740   33.9350   44.8580 C   0  0  0  0  0  0  0  0  0  0  0  0
   57.6060   32.6460   45.3290 C   0  0  0  0  0  0  0  0  0  0  0  0
   57.6450   27.4330   44.8370 C   0  0  0  0  0  0  0  0  0  0  0  0
   58.1140   27.2460   43.6820 O   0  0  0  0  0  0  0  0  0  0  0  0
   57.4630   26.2720   45.7390 C   0  0  0  0  0  0  0  0  0  0  0  0
   56.2030   25.9480   46.2730 C   0  0  0  0  0  0  0  0  0  0  0  0
   55.0780   26.7020   45.9490 O   0  0  0  0  0  0  0  0  0  0  0  0
   56.0710   24.8730   47.0960 N   0  0  0  0  0  0  0  0  0  0  0  0
   57.1340   24.0910   47.4060 C   0  0  0  0  0  0  0  0  0  0  0  0
   56.9860   23.1030   48.1710 O   0  0  0  0  0  0  0  0  0  0  0  0
   58.3580   24.3700   46.8890 N   0  0  0  0  0  0  0  0  0  0  0  0
   58.5450   25.4330   46.0650 C   0  0  0  0  0  0  0  0  0  0  0  0
   59.6980   25.6630   45.6100 O   0  0  0  0  0  0  0  0  0  0  0  0
   57.1380   30.6237   47.1169 H   0  0  0  0  0  0  0  0  0  0  0  0
   58.8553   30.4301   47.6044 H   0  0  0  0  0  0  0  0  0  0  0  0
   60.3066   32.2520   47.3963 H   0  0  0  0  0  0  0  0  0  0  0  0
   60.7839   34.5479   46.5445 H   0  0  0  0  0  0  0  0  0  0  0  0
   57.1858   34.4137   44.1457 H   0  0  0  0  0  0  0  0  0  0  0  0
   56.7025   32.1165   44.9925 H   0  0  0  0  0  0  0  0  0  0  0  0
   55.1530   27.5270   45.3660 H   0  0  0  0  0  0  0  0  0  0  0  0
  1  2  2  0
  2  3  1  0
  3  4  1  0
  4  5  1  0
  5  6  2  0
  6  7  1  0
  7  8  2  0
  8  9  1  0
  8 10  1  0
 10 11  2  0
  2 12  1  0
 12 13  2  0
 12 14  1  0
 14 15  2  0
 15 16  1  0
 15 17  1  0
 17 18  1  0
 18 19  2  0
 18 20  1  0
 20 21  1  0
 21 22  2  0
 11  5  1  0
 21 14  1  0
  4 23  1  0
  4 24  1  0
  6 25  1  0
  7 26  1  0
 10 27  1  0
 11 28  1  0
 16 29  1  0
M  CHG  3   3  -1  17  -1  20  -1
M  END
>  <UniqueID>  (7) 
7

>  <SMILES>  (7) 
O=C([N-]Cc1ccc(F)cc1)C(=O)c1c(O)[n-]c(=O)[n-]c1=O

>  <Energy>  (7) 
33.88006363453163

>  <Genealogy>  (7) 
O=C([N-]Cc1ccc(F)cc1)C(=O)c1c(O)[n-]c(=O)[n-]c1=O (protonated)
O=C([N-]Cc1ccc(F)cc1)C(=O)c1c(O)[n-]c(=O)[n-]c1=O (3D coordinates assigned)
O=C([N-]Cc1ccc(F)cc1)C(=O)c1c(O)[n-]c(=O)[n-]c1=O (optimized conformer: 33.88006363453163 kcal/mol)

>  <smiles>  (7) 
O=C(NCc1ccc(F)cc1)C(=O)c1c(O)[nH]c(=O)[nH]c1=O

>  <score_type>  (7) 
oracle

>  <origin>  (7) 
adg

>  <m_score__min__energy>  (7) 
-13.15

>  <m_primary>  (7) 
energy

$$$$
7:0
     RDKit          3D

 49 51  0  0  0  0  0  0  0  0999 V2000
   59.4030   36.3043   44.8281 H   0  0  0  0  0  0  0  0  0  0  0  0
   59.2660   35.3260   45.3120 C   0  0  0  0  0  0  0  0  0  0  0  0
   58.3010   34.4370   44.8300 C   0  0  0  0  0  0  0  0  0  0  0  0
   57.6799   34.7161   43.9661 H   0  0  0  0  0  0  0  0  0  0  0  0
   58.1240   33.1940   45.4440 C   0  0  0  0  0  0  0  0  0  0  0  0
   57.3600   32.4994   45.0646 H   0  0  0  0  0  0  0  0  0  0  0  0
   58.9180   32.8280   46.5440 C   0  0  0  0  0  0  0  0  0  0  0  0
   58.6890   31.5120   47.2430 C   0  0  0  0  0  0  0  0  0  0  0  0
   57.6195   31.2614   47.1847 H   0  0  0  0  0  0  0  0  0  0  0  0
   59.0181   31.6224   48.2868 H   0  0  0  0  0  0  0  0  0  0  0  0
   59.5000   30.3700   46.6110 C   0  0  0  0  0  0  0  0  0  0  0  0
   60.3725   30.1595   47.2469 H   0  0  0  0  0  0  0  0  0  0  0  0
   59.8096   30.6887   45.6047 H   0  0  0  0  0  0  0  0  0  0  0  0
   58.6780   29.1010   46.4700 C   0  0  0  0  0  0  0  0  0  0  0  0
   57.9090   28.8050   45.3150 C   0  0  0  0  0  0  0  0  0  0  0  0
   57.8990   29.6610   44.1630 N   0  0  0  0  0  0  0  0  0  0  0  0
   57.3130   30.5170   44.0850 H   0  0  0  0  0  0  0  0  0  0  0  0
   58.4740   29.4140   43.3270 H   0  0  0  0  0  0  0  0  0  0  0  0
   57.1370   27.6800   45.2930 N   0  0  0  0  0  0  0  0  0  0  0  0
   56.5940   27.4750   44.4250 H   0  0  0  0  0  0  0  0  0  0  0  0
   57.0670   26.8410   46.3690 C   0  0  0  0  0  0  0  0  0  0  0  0
   56.3040   25.7850   46.3670 N   0  0  0  0  0  0  0  0  0  0  0  0
   56.4770   24.6290   45.5320 C   0  0  0  0  0  0  0  0  0  0  0  0
   57.7710   24.1420   45.2330 C   0  0  0  0  0  0  0  0  0  0  0  0
   59.0050   24.8080   45.7820 C   0  0  0  0  0  0  0  0  0  0  0  0
   58.9727   24.7906   46.8814 H   0  0  0  0  0  0  0  0  0  0  0  0
   59.8984   24.2696   45.4328 H   0  0  0  0  0  0  0  0  0  0  0  0
   59.0453   25.8503   45.4328 H   0  0  0  0  0  0  0  0  0  0  0  0
   57.9100   22.9920   44.4410 C   0  0  0  0  0  0  0  0  0  0  0  0
   58.9139   22.5961   44.2279 H   0  0  0  0  0  0  0  0  0  0  0  0
   56.7840   22.3430   43.9190 C   0  0  0  0  0  0  0  0  0  0  0  0
   56.9480   21.1420   43.0350 C   0  0  0  0  0  0  0  0  0  0  0  0
   57.0708   20.2430   43.6569 H   0  0  0  0  0  0  0  0  0  0  0  0
   56.0569   21.0297   42.4000 H   0  0  0  0  0  0  0  0  0  0  0  0
   57.8366   21.2727   42.4000 H   0  0  0  0  0  0  0  0  0  0  0  0
   55.5080   22.8660   44.1650 C   0  0  0  0  0  0  0  0  0  0  0  0
   54.6251   22.3780   43.7265 H   0  0  0  0  0  0  0  0  0  0  0  0
   55.3460   24.0070   44.9660 C   0  0  0  0  0  0  0  0  0  0  0  0
   53.9660   24.5320   45.2520 C   0  0  0  0  0  0  0  0  0  0  0  0
   53.8139   24.5899   46.3399 H   0  0  0  0  0  0  0  0  0  0  0  0
   53.8567   25.5345   44.8126 H   0  0  0  0  0  0  0  0  0  0  0  0
   53.2180   23.8556   44.8126 H   0  0  0  0  0  0  0  0  0  0  0  0
   57.8050   27.1060   47.4720 N   0  0  0  0  0  0  0  0  0  0  0  0
   58.5970   28.2030   47.5510 C   0  0  0  0  0  0  0  0  0  0  0  0
   59.2500   28.4090   48.6100 O   0  0  0  0  0  0  0  0  0  0  0  0
   59.8870   33.7280   47.0230 C   0  0  0  0  0  0  0  0  0  0  0  0
   60.5133   33.4518   47.8840 H   0  0  0  0  0  0  0  0  0  0  0  0
   60.0570   34.9720   46.4090 C   0  0  0  0  0  0  0  0  0  0  0  0
   60.8142   35.6734   46.7894 H   0  0  0  0  0  0  0  0  0  0  0  0
  1  2  1  0
  2  3  2  0
  3  4  1  0
  3  5  1  0
  5  6  1  0
  5  7  2  0
  7  8  1  0
  8  9  1  0
  8 10  1  0
  8 11  1  0
 11 12  1  0
 11 13  1  0
 11 14  1  0
 14 15  2  0
 15 16  1  0
 16 17  1  0
 16 18  1  0
 15 19  1  0
 19 20  1  0
 19 21  1  0
 21 22  2  0
 22 23  1  0
 23 24  2  0
 24 25  1  0
 25 26  1  0
 25 27  1  0
 25 28  1  0
 24 29  1  0
 29 30  1  0
 29 31  2  0
 31 32  1  0
 32 33  1  0
 32 34  1  0
 32 35  1  0
 31 36  1  0
 36 37  1  0
 36 38  2  0
 38 39  1  0
 39 40  1  0
 39 41  1  0
 39 42  1  0
 21 43  1  0
 43 44  1  0
 44 45  2  0
  7 46  1  0
 46 47  1  0
 46 48  2  0
 48 49  1  0
 48  2  1  0
 44 14  1  0
 38 23  1  0
M  CHG  1  43  -1
M  END
>  <UniqueID>  (8) 
8

>  <SMILES>  (8) 
Cc1cc(C)c(/N=c2/[n-]c(=O)c(CCc3ccccc3)c(N)[nH]2)c(C)c1

>  <Energy>  (8) 
58.875042252972044

>  <Genealogy>  (8) 
Cc1cc(C)c(N=c2[n-]c(=O)c(CCc3ccccc3)c(N)[nH]2)c(C)c1 (protonated)
Cc1cc(C)c(/N=c2/[n-]c(=O)c(CCc3ccccc3)c(N)[nH]2)c(C)c1 (cis-trans isomerization)
Cc1cc(C)c(/N=c2/[n-]c(=O)c(CCc3ccccc3)c(N)[nH]2)c(C)c1 (3D coordinates assigned)
Cc1cc(C)c(/N=c2/[n-]c(=O)c(CCc3ccccc3)c(N)[nH]2)c(C)c1 (optimized conformer: 58.875042252972044 kcal/mol)

>  <smiles>  (8) 
Cc1cc(C)c(N=c2[nH]c(N)c(CCc3ccccc3)c(=O)[nH]2)c(C)c1

>  <score_type>  (8) 
oracle

>  <origin>  (8) 
adg

>  <m_score__min__energy>  (8) 
-10.6

>  <m_primary>  (8) 
energy

$$$$
8:0
     RDKit          3D

 50 52  0  0  1  0  0  0  0  0999 V2000
   65.8250   32.8240   50.0990 C   0  0  0  0  0  0  0  0  0  0  0  0
   64.7440   31.8530   50.0080 N   0  0  0  0  0  0  0  0  0  0  0  0
   63.8050   31.9340   49.1380 C   0  0  0  0  0  0  0  0  0  0  0  0
   64.0210   32.6060   47.9780 N   0  0  0  0  0  0  0  0  0  0  0  0
   63.0040   32.6660   47.0890 C   0  0  0  0  0  0  0  0  0  0  0  0
   61.7750   32.0700   47.3320 C   0  0  0  0  0  0  0  0  0  0  0  0
   60.7510   32.1220   46.4550 F   0  0  0  0  0  0  0  0  0  0  0  0
   61.5830   31.3880   48.5300 C   0  0  0  0  0  0  0  0  0  0  0  0
   60.4440   30.8320   48.7620 N   0  0  0  0  0  0  0  0  0  0  0  0
   60.4200   29.3920   48.8520 C   0  0  0  0  0  0  0  0  0  0  0  0
   60.0450   28.7510   47.5770 C   0  0  0  0  0  0  0  0  0  0  0  0
   60.2010   27.3830   47.4820 C   0  0  0  0  0  0  0  0  0  0  0  0
   59.8470   26.8010   46.2860 C   0  0  0  0  0  0  0  0  0  0  0  0
   59.3560   27.5690   45.2310 C   0  0  0  0  0  0  0  0  0  0  0  0
   59.1940   28.9300   45.3100 C   0  0  0  0  0  0  0  0  0  0  0  0
   58.7110   29.7700   44.3040 N   0  0  0  0  0  0  0  0  0  0  0  0
   57.4280   30.3330   44.1890 C   0  0  0  0  0  0  0  0  0  0  0  0
   56.5730   30.0860   45.0630 O   0  0  0  0  0  0  0  0  0  0  0  0
   57.1200   31.1900   43.0560 C   0  0  0  0  0  0  0  0  0  0  0  0
   57.7740   32.4910   42.9180 C   0  0  0  0  0  0  0  0  0  0  0  0
   58.0060   33.1410   44.2210 C   0  0  0  0  0  0  0  0  0  0  0  0
   57.1570   33.1210   45.2850 C   0  0  0  0  0  0  0  0  0  0  0  0
   57.4620   33.7950   46.4730 C   0  0  0  0  0  0  0  0  0  0  0  0
   58.6370   34.5090   46.6210 C   0  0  0  0  0  0  0  0  0  0  0  0
   59.4960   34.5280   45.5420 C   0  0  0  0  0  0  0  0  0  0  0  0
   59.1860   33.8580   44.3670 C   0  0  0  0  0  0  0  0  0  0  0  0
   59.5610   29.5010   46.5370 C   0  0  0  0  0  0  0  0  0  0  0  0
   62.6150   31.3470   49.3910 N   0  0  0  0  0  0  0  0  0  0  0  0
   66.0490   33.0252   51.1570 H   0  0  0  0  0  0  0  0  0  0  0  0
   66.7215   32.4220   49.6044 H   0  0  0  0  0  0  0  0  0  0  0  0
   65.5212   33.7584   49.6044 H   0  0  0  0  0  0  0  0  0  0  0  0
   64.9260   33.0670   47.7550 H   0  0  0  0  0  0  0  0  0  0  0  0
   63.1560   33.2050   46.1422 H   0  0  0  0  0  0  0  0  0  0  0  0
   61.4210   29.0402   49.1424 H   0  0  0  0  0  0  0  0  0  0  0  0
   59.6613   29.1170   49.5995 H   0  0  0  0  0  0  0  0  0  0  0  0
   60.5893   26.7870   48.3211 H   0  0  0  0  0  0  0  0  0  0  0  0
   59.9531   25.7133   46.1606 H   0  0  0  0  0  0  0  0  0  0  0  0
   59.0863   27.0616   44.2931 H   0  0  0  0  0  0  0  0  0  0  0  0
   59.3920   30.0220   43.5230 H   0  0  0  0  0  0  0  0  0  0  0  0
   57.3629   30.6159   42.1497 H   0  0  0  0  0  0  0  0  0  0  0  0
   56.0657   31.4560   43.2224 H   0  0  0  0  0  0  0  0  0  0  0  0
   58.7424   32.3488   42.4161 H   0  0  0  0  0  0  0  0  0  0  0  0
   57.1092   33.1415   42.3307 H   0  0  0  0  0  0  0  0  0  0  0  0
   56.2117   32.5636   45.2094 H   0  0  0  0  0  0  0  0  0  0  0  0
   56.7493   33.7558   47.3099 H   0  0  0  0  0  0  0  0  0  0  0  0
   58.8755   35.0373   47.5559 H   0  0  0  0  0  0  0  0  0  0  0  0
   60.4426   35.0836   45.6141 H   0  0  0  0  0  0  0  0  0  0  0  0
   59.8954   33.8960   43.5272 H   0  0  0  0  0  0  0  0  0  0  0  0
   59.4569   30.5880   46.6693 H   0  0  0  0  0  0  0  0  0  0  0  0
   62.5160   30.8470   50.3010 H   0  0  0  0  0  0  0  0  0  0  0  0
  1  2  1  0
  2  3  2  0
  3  4  1  0
  4  5  1  0
  5  6  2  0
  6  7  1  0
  6  8  1  0
  8  9  2  0
  9 10  1  0
 10 11  1  0
 11 12  2  0
 12 13  1  0
 13 14  2  0
 14 15  1  0
 15 16  1  0
 16 17  1  0
 17 18  2  0
 17 19  1  0
 19 20  1  0
 20 21  1  0
 21 22  2  0
 22 23  1  0
 23 24  2  0
 24 25  1  0
 25 26  2  0
 15 27  2  0
  8 28  1  0
 28  3  1  0
 27 11  1  0
 26 21  1  0
  1 29  1  0
  1 30  1  0
  1 31  1  0
  4 32  1  0
  5 33  1  0
 10 34  1  0
 10 35  1  0
 12 36  1  0
 13 37  1  0
 14 38  1  0
 16 39  1  0
 19 40  1  0
 19 41  1  0
 20 42  1  0
 20 43  1  0
 22 44  1  0
 23 45  1  0
 24 46  1  0
 25 47  1  0
 26 48  1  0
 27 49  1  0
 28 50  1  0
M  END
>  <smiles>  (9) 
CN=c1[nH]cc(F)c(=NCc2cccc(NC(=O)CCc3ccccc3)c2)[nH]1

>  <score_type>  (9) 
oracle

>  <origin>  (9) 
adg

>  <m_score__min__energy>  (9) 
-8.7200000000000006

>  <m_primary>  (9) 
energy

$$$$
9:0
     RDKit          3D

 36 38  0  0  0  0  0  0  0  0999 V2000
   60.5720   31.0340   50.6820 O   0  0  0  0  0  0  0  0  0  0  0  0
   59.7500   30.4960   49.5470 S   0  0  0  0  0  0  0  0  0  0  0  0
   58.4030   30.0770   50.0680 O   0  0  0  0  0  0  0  0  0  0  0  0
   60.5460   29.1080   48.8780 N   0  0  0  0  0  0  0  0  0  0  0  0
   59.9520   28.2580   48.0990 C   0  0  0  0  0  0  0  0  0  0  0  0
   59.7760   26.9200   48.3860 C   0  0  0  0  0  0  0  0  0  0  0  0
   59.1270   26.4280   47.2720 C   0  0  0  0  0  0  0  0  0  0  0  0
   58.9410   27.4400   46.4000 N   0  0  0  0  0  0  0  0  0  0  0  0
   58.3720   27.3240   45.0620 C   0  0  0  0  0  0  0  0  0  0  0  0
   57.5480   28.5450   44.7500 C   0  0  0  0  0  0  0  0  0  0  0  0
   58.1520   29.6440   44.1160 C   0  0  0  0  0  0  0  0  0  0  0  0
   57.3940   30.7720   43.7800 C   0  0  0  0  0  0  0  0  0  0  0  0
   58.1550   32.1420   42.9960 Cl  0  0  0  0  0  0  0  0  0  0  0  0
   56.0260   30.8040   44.0660 C   0  0  0  0  0  0  0  0  0  0  0  0
   55.4140   29.7110   44.6820 C   0  0  0  0  0  0  0  0  0  0  0  0
   56.1650   28.5800   45.0190 C   0  0  0  0  0  0  0  0  0  0  0  0
   55.5280   27.4980   45.6180 O   0  0  0  0  0  0  0  0  0  0  0  0
   59.4450   28.5610   46.8890 N   0  0  0  0  0  0  0  0  0  0  0  0
   59.5690   31.7570   48.3280 C   0  0  0  0  0  0  0  0  0  0  0  0
   58.5710   31.6540   47.3490 C   0  0  0  0  0  0  0  0  0  0  0  0
   58.4380   32.6500   46.3750 C   0  0  0  0  0  0  0  0  0  0  0  0
   59.3040   33.7480   46.3720 C   0  0  0  0  0  0  0  0  0  0  0  0
   59.1570   34.9830   45.1340 Cl  0  0  0  0  0  0  0  0  0  0  0  0
   60.3000   33.8530   47.3480 C   0  0  0  0  0  0  0  0  0  0  0  0
   60.4340   32.8610   48.3230 C   0  0  0  0  0  0  0  0  0  0  0  0
   60.0814   26.3736   49.2906 H   0  0  0  0  0  0  0  0  0  0  0  0
   58.8136   25.3845   47.1205 H   0  0  0  0  0  0  0  0  0  0  0  0
   59.1847   27.2342   44.3262 H   0  0  0  0  0  0  0  0  0  0  0  0
   57.7303   26.4317   45.0166 H   0  0  0  0  0  0  0  0  0  0  0  0
   59.2266   29.6178   43.8824 H   0  0  0  0  0  0  0  0  0  0  0  0
   55.4310   31.6917   43.8053 H   0  0  0  0  0  0  0  0  0  0  0  0
   54.3369   29.7392   44.9033 H   0  0  0  0  0  0  0  0  0  0  0  0
   57.8914   30.7890   47.3464 H   0  0  0  0  0  0  0  0  0  0  0  0
   57.6511   32.5691   45.6106 H   0  0  0  0  0  0  0  0  0  0  0  0
   60.9793   34.7182   47.3482 H   0  0  0  0  0  0  0  0  0  0  0  0
   61.2196   32.9462   49.0882 H   0  0  0  0  0  0  0  0  0  0  0  0
  1  2  2  0
  2  3  2  0
  2  4  1  0
  4  5  2  3
  5  6  1  0
  6  7  2  0
  7  8  1  0
  8  9  1  0
  9 10  1  0
 10 11  2  0
 11 12  1  0
 12 13  1  0
 12 14  2  0
 14 15  1  0
 15 16  2  0
 16 17  1  0
  8 18  1  0
  2 19  1  0
 19 20  2  0
 20 21  1  0
 21 22  2  0
 22 23  1  0
 22 24  1  0
 24 25  2  0
 18  5  1  0
 25 19  1  0
 16 10  1  0
  6 26  1  0
  7 27  1  0
  9 28  1  0
  9 29  1  0
 11 30  1  0
 14 31  1  0
 15 32  1  0
 20 33  1  0
 21 34  1  0
 24 35  1  0
 25 36  1  0
M  CHG  2  17  -1  18  -1
M  END
>  <UniqueID>  (10) 
9

>  <SMILES>  (10) 
O=S(=O)(N=c1ccn(Cc2cc(Cl)ccc2[O-])[n-]1)c1ccc(Cl)cc1

>  <Energy>  (10) 
68.3343922369562

>  <Genealogy>  (10) 
O=S(=O)(N=c1ccn(Cc2cc(Cl)ccc2[O-])[n-]1)c1ccc(Cl)cc1 (protonated)
O=S(=O)(N=c1ccn(Cc2cc(Cl)ccc2[O-])[n-]1)c1ccc(Cl)cc1 (3D coordinates assigned)
O=S(=O)(N=c1ccn(Cc2cc(Cl)ccc2[O-])[n-]1)c1ccc(Cl)cc1 (optimized conformer: 68.3343922369562 kcal/mol)

>  <smiles>  (10) 
O=S(=O)(N=c1ccn(Cc2cc(Cl)ccc2O)[nH]1)c1ccc(Cl)cc1

>  <score_type>  (10) 
oracle

>  <origin>  (10) 
adg

>  <m_score__min__energy>  (10) 
-14.140000000000001

>  <m_primary>  (10) 
energy

$$$$
10:0
     RDKit          3D

 47 48  0  0  0  0  0  0  0  0999 V2000
   56.8350   29.2460   43.9980 N   0  0  0  0  0  0  0  0  0  0  0  0
   57.7850   32.0310   45.8290 C   0  0  0  0  0  0  0  0  0  0  0  0
   57.3810   31.3180   43.2500 C   0  0  0  0  0  0  0  0  0  0  0  0
   57.7750   32.6040   43.5290 C   0  0  0  0  0  0  0  0  0  0  0  0
   57.9690   32.9270   44.8420 N   0  0  0  0  0  0  0  0  0  0  0  0
   58.3830   34.2940   45.0900 C   0  0  0  0  0  0  0  0  0  0  0  0
   59.3530   34.4240   46.2090 C   0  0  0  0  0  0  0  0  0  0  0  0
   58.9090   34.8130   47.3210 O   0  0  0  0  0  0  0  0  0  0  0  0
   60.7220   34.1110   45.9900 N   0  0  0  0  0  0  0  0  0  0  0  0
   61.7300   34.2160   47.0340 C   0  0  0  0  0  0  0  0  0  0  0  0
   62.5480   32.9340   47.0030 C   0  0  0  0  0  0  0  0  0  0  0  0
   61.8160   31.8970   47.8130 C   0  0  0  0  0  0  0  0  0  0  0  0
   62.3720   30.8510   48.2100 O   0  0  0  0  0  0  0  0  0  0  0  0
   60.4310   32.1150   48.1430 N   0  0  0  0  0  0  0  0  0  0  0  0
   59.7850   31.0990   48.9120 C   0  0  0  0  0  0  0  0  0  0  0  0
   59.4120   29.9440   48.1140 C   0  0  0  0  0  0  0  0  0  0  0  0
   58.1680   29.6380   48.0670 O   0  0  0  0  0  0  0  0  0  0  0  0
   60.2740   29.1040   47.3720 N   0  0  0  0  0  0  0  0  0  0  0  0
   59.6610   28.0170   46.6580 C   0  0  0  0  0  0  0  0  0  0  0  0
   59.2360   26.8910   47.3660 C   0  0  0  0  0  0  0  0  0  0  0  0
   58.6460   25.8520   46.6550 C   0  0  0  0  0  0  0  0  0  0  0  0
   58.4910   25.9540   45.2700 C   0  0  0  0  0  0  0  0  0  0  0  0
   58.9130   27.0690   44.5760 C   0  0  0  0  0  0  0  0  0  0  0  0
   59.5040   28.1100   45.2830 C   0  0  0  0  0  0  0  0  0  0  0  0
   59.9390   29.2260   44.6800 F   0  0  0  0  0  0  0  0  0  0  0  0
   57.1810   30.3620   44.2530 C   0  0  0  0  0  0  0  0  0  0  0  0
   57.9880   32.4220   47.0020 O   0  0  0  0  0  0  0  0  0  0  0  0
   57.4020   30.7910   45.5170 N   0  0  0  0  0  0  0  0  0  0  0  0
   56.5760   28.3360   43.8720 H   0  0  0  0  0  0  0  0  0  0  0  0
   57.2168   31.0291   42.2014 H   0  0  0  0  0  0  0  0  0  0  0  0
   57.9279   33.3428   42.7285 H   0  0  0  0  0  0  0  0  0  0  0  0
   58.8508   34.6878   44.1757 H   0  0  0  0  0  0  0  0  0  0  0  0
   57.4829   34.8592   45.3735 H   0  0  0  0  0  0  0  0  0  0  0  0
   61.0000   33.7910   45.0230 H   0  0  0  0  0  0  0  0  0  0  0  0
   62.3805   35.0824   46.8435 H   0  0  0  0  0  0  0  0  0  0  0  0
   61.2586   34.3536   48.0183 H   0  0  0  0  0  0  0  0  0  0  0  0
   62.6595   32.5870   45.9651 H   0  0  0  0  0  0  0  0  0  0  0  0
   63.5501   33.1092   47.4214 H   0  0  0  0  0  0  0  0  0  0  0  0
   60.0240   32.9940   47.7920 H   0  0  0  0  0  0  0  0  0  0  0  0
   60.4701   30.7707   49.7075 H   0  0  0  0  0  0  0  0  0  0  0  0
   58.8609   31.5309   49.3236 H   0  0  0  0  0  0  0  0  0  0  0  0
   61.2980   29.2700   47.3470 H   0  0  0  0  0  0  0  0  0  0  0  0
   59.3645   26.8277   48.4566 H   0  0  0  0  0  0  0  0  0  0  0  0
   58.3015   24.9503   47.1824 H   0  0  0  0  0  0  0  0  0  0  0  0
   58.0212   25.1253   44.7199 H   0  0  0  0  0  0  0  0  0  0  0  0
   58.7845   27.1331   43.4854 H   0  0  0  0  0  0  0  0  0  0  0  0
   57.2560   30.0840   46.2850 H   0  0  0  0  0  0  0  0  0  0  0  0
  1  2  2  3
  2  3  1  0
  3  4  2  0
  4  5  1  0
  5  6  1  0
  6  7  1  0
  7  8  2  0
  7  9  1  0
  9 10  1  0
 10 11  1  0
 11 12  1  0
 12 13  2  0
 12 14  1  0
 14 15  1  0
 15 16  1  0
 16 17  2  0
 16 18  1  0
 18 19  1  0
 19 20  2  0
 20 21  1  0
 21 22  2  0
 22 23  1  0
 23 24  2  0
 24 25  1  0
  5 26  1  0
 26 27  2  0
 26 28  1  0
 28  2  1  0
 24 19  1  0
  1 29  1  0
  3 30  1  0
  4 31  1  0
  6 32  1  0
  6 33  1  0
  9 34  1  0
 10 35  1  0
 10 36  1  0
 11 37  1  0
 11 38  1  0
 14 39  1  0
 15 40  1  0
 15 41  1  0
 18 42  1  0
 20 43  1  0
 21 44  1  0
 22 45  1  0
 23 46  1  0
 28 47  1  0
M  END
>  <smiles>  (11) 
N=c1ccn(CC(=O)NCCC(=O)NCC(=O)Nc2ccccc2F)c(=O)[nH]1

>  <score_type>  (11) 
oracle

>  <origin>  (11) 
adg

>  <m_score__min__energy>  (11) 
-7.2199999999999998

>  <m_primary>  (11) 
energy

$$$$
11:0
     RDKit          3D

 32 33  0  0  0  0  0  0  0  0999 V2000
   60.0620   24.2490   45.9320 O   0  0  0  0  0  0  0  0  0  0  0  0
   59.1540   25.1020   46.1340 C   0  0  0  0  0  0  0  0  0  0  0  0
   59.4730   26.3370   46.7790 N   0  0  0  0  0  0  0  0  0  0  0  0
   59.9240   27.5200   46.0580 C   0  0  0  0  0  0  0  0  0  0  0  0
   59.1830   27.6400   44.7260 C   0  0  0  0  0  0  0  0  0  0  0  0
   58.3850   28.9170   44.6550 C   0  0  0  0  0  0  0  0  0  0  0  0
   57.1310   28.9340   44.0220 C   0  0  0  0  0  0  0  0  0  0  0  0
   56.4070   30.1270   43.9240 C   0  0  0  0  0  0  0  0  0  0  0  0
   56.9340   31.3100   44.4470 C   0  0  0  0  0  0  0  0  0  0  0  0
   58.1860   31.3040   45.0680 C   0  0  0  0  0  0  0  0  0  0  0  0
   58.9130   30.1140   45.1690 C   0  0  0  0  0  0  0  0  0  0  0  0
   57.7620   24.8220   45.7090 C   0  0  0  0  0  0  0  0  0  0  0  0
   56.7230   25.7130   46.0350 C   0  0  0  0  0  0  0  0  0  0  0  0
   55.4090   25.4460   45.6340 C   0  0  0  0  0  0  0  0  0  0  0  0
   54.3900   26.3320   45.9630 O   0  0  0  0  0  0  0  0  0  0  0  0
   55.1200   24.2910   44.9040 C   0  0  0  0  0  0  0  0  0  0  0  0
   56.1420   23.3970   44.5730 C   0  0  0  0  0  0  0  0  0  0  0  0
   55.8370   22.2490   43.8440 O   0  0  0  0  0  0  0  0  0  0  0  0
   57.4590   23.6620   44.9730 C   0  0  0  0  0  0  0  0  0  0  0  0
   59.7250   28.4145   46.6666 H   0  0  0  0  0  0  0  0  0  0  0  0
   61.0029   27.4319   45.8623 H   0  0  0  0  0  0  0  0  0  0  0  0
   59.9163   27.6299   43.9061 H   0  0  0  0  0  0  0  0  0  0  0  0
   58.4883   26.7917   44.6381 H   0  0  0  0  0  0  0  0  0  0  0  0
   56.7168   28.0057   43.6018 H   0  0  0  0  0  0  0  0  0  0  0  0
   55.4219   30.1334   43.4346 H   0  0  0  0  0  0  0  0  0  0  0  0
   56.3632   32.2471   44.3701 H   0  0  0  0  0  0  0  0  0  0  0  0
   58.6001   32.2370   45.4780 H   0  0  0  0  0  0  0  0  0  0  0  0
   59.9012   30.1145   45.6522 H   0  0  0  0  0  0  0  0  0  0  0  0
   56.9448   26.6250   46.6086 H   0  0  0  0  0  0  0  0  0  0  0  0
   54.0864   24.0846   44.5891 H   0  0  0  0  0  0  0  0  0  0  0  0
   55.0630   22.2250   43.1910 H   0  0  0  0  0  0  0  0  0  0  0  0
   58.2617   22.9576   44.7094 H   0  0  0  0  0  0  0  0  0  0  0  0
  1  2  2  0
  2  3  1  0
  3  4  1  0
  4  5  1  0
  5  6  1  0
  6  7  2  0
  7  8  1  0
  8  9  2  0
  9 10  1  0
 10 11  2  0
  2 12  1  0
 12 13  2  0
 13 14  1  0
 14 15  1  0
 14 16  2  0
 16 17  1  0
 17 18  1  0
 17 19  2  0
 11  6  1  0
 19 12  1  0
  4 20  1  0
  4 21  1  0
  5 22  1  0
  5 23  1  0
  7 24  1  0
  8 25  1  0
  9 26  1  0
 10 27  1  0
 11 28  1  0
 13 29  1  0
 16 30  1  0
 18 31  1  0
 19 32  1  0
M  CHG  2   3  -1  15  -1
M  END
>  <UniqueID>  (12) 
10

>  <SMILES>  (12) 
O=C([N-]CCc1ccccc1)c1cc([O-])cc(O)c1

>  <Energy>  (12) 
27.76720027124812

>  <Genealogy>  (12) 
O=C([N-]CCc1ccccc1)c1cc([O-])cc(O)c1 (protonated)
O=C([N-]CCc1ccccc1)c1cc([O-])cc(O)c1 (3D coordinates assigned)
O=C([N-]CCc1ccccc1)c1cc([O-])cc(O)c1 (optimized conformer: 27.76720027124812 kcal/mol)

>  <smiles>  (12) 
O=C(NCCc1ccccc1)c1cc(O)cc(O)c1

>  <score_type>  (12) 
oracle

>  <origin>  (12) 
adg

>  <m_score__min__energy>  (12) 
-11.17

>  <m_primary>  (12) 
energy

$$$$
12:0
     RDKit          3D

 37 39  0  0  0  0  0  0  0  0999 V2000
   53.6740   22.7260   48.8820 O   0  0  0  0  0  0  0  0  0  0  0  0
   53.5260   22.4160   47.6690 C   0  0  0  0  0  0  0  0  0  0  0  0
   54.7040   21.8800   46.8960 C   0  0  0  0  0  0  0  0  0  0  0  0
   56.2830   22.1720   47.7720 S   0  0  0  0  0  0  0  0  0  0  0  0
   56.6070   23.7320   46.9530 C   0  0  0  0  0  0  0  0  0  0  0  0
   57.8620   24.0280   46.5290 N   0  0  0  0  0  0  0  0  0  0  0  0
   58.1370   25.2090   45.9160 C   0  0  0  0  0  0  0  0  0  0  0  0
   59.3220   25.4640   45.5730 O   0  0  0  0  0  0  0  0  0  0  0  0
   57.1060   26.1410   45.6980 C   0  0  0  0  0  0  0  0  0  0  0  0
   57.3490   27.4140   45.0720 N   0  0  0  0  0  0  0  0  0  0  0  0
   57.9770   28.5150   45.7510 C   0  0  0  0  0  0  0  0  0  0  0  0
   58.6370   28.3020   46.8060 O   0  0  0  0  0  0  0  0  0  0  0  0
   57.8930   29.8910   45.2070 C   0  0  0  0  0  0  0  0  0  0  0  0
   57.2860   30.1430   43.9610 C   0  0  0  0  0  0  0  0  0  0  0  0
   57.2060   31.4470   43.4630 C   0  0  0  0  0  0  0  0  0  0  0  0
   57.7230   32.5150   44.2000 C   0  0  0  0  0  0  0  0  0  0  0  0
   58.3190   32.2790   45.4420 C   0  0  0  0  0  0  0  0  0  0  0  0
   58.4020   30.9770   45.9460 C   0  0  0  0  0  0  0  0  0  0  0  0
   55.8230   25.8190   46.1660 C   0  0  0  0  0  0  0  0  0  0  0  0
   54.7680   26.7080   46.0020 O   0  0  0  0  0  0  0  0  0  0  0  0
   55.6010   24.6260   46.7740 N   0  0  0  0  0  0  0  0  0  0  0  0
   52.2270   22.5830   47.0780 N   0  0  0  0  0  0  0  0  0  0  0  0
   51.9530   23.0810   45.9080 C   0  0  0  0  0  0  0  0  0  0  0  0
   52.8560   23.2560   44.9180 N   0  0  0  0  0  0  0  0  0  0  0  0
   52.2730   23.7580   43.7970 C   0  0  0  0  0  0  0  0  0  0  0  0
   50.9030   23.9770   43.8900 C   0  0  0  0  0  0  0  0  0  0  0  0
   50.4040   23.5210   45.4320 S   0  0  0  0  0  0  0  0  0  0  0  0
   54.5721   20.7975   46.7517 H   0  0  0  0  0  0  0  0  0  0  0  0
   54.7468   22.4059   45.9308 H   0  0  0  0  0  0  0  0  0  0  0  0
   57.2140   27.4850   44.0390 H   0  0  0  0  0  0  0  0  0  0  0  0
   56.8722   29.3084   43.3760 H   0  0  0  0  0  0  0  0  0  0  0  0
   56.7340   31.6326   42.4869 H   0  0  0  0  0  0  0  0  0  0  0  0
   57.6612   33.5393   43.8039 H   0  0  0  0  0  0  0  0  0  0  0  0
   58.7239   33.1196   46.0247 H   0  0  0  0  0  0  0  0  0  0  0  0
   58.8681   30.7997   46.9265 H   0  0  0  0  0  0  0  0  0  0  0  0
   52.8440   23.9753   42.8823 H   0  0  0  0  0  0  0  0  0  0  0  0
   50.2577   24.3783   43.0947 H   0  0  0  0  0  0  0  0  0  0  0  0
  1  2  2  0
  2  3  1  0
  3  4  1  0
  4  5  1  0
  5  6  2  0
  6  7  1  0
  7  8  2  0
  7  9  1  0
  9 10  1  0
 10 11  1  0
 11 12  2  0
 11 13  1  0
 13 14  2  0
 14 15  1  0
 15 16  2  0
 16 17  1  0
 17 18  2  0
  9 19  2  0
 19 20  1  0
 19 21  1  0
  2 22  1  0
 22 23  2  3
 23 24  1  0
 24 25  1  0
 25 26  2  0
 26 27  1  0
 21  5  1  0
 27 23  1  0
 18 13  1  0
  3 28  1  0
  3 29  1  0
 10 30  1  0
 14 31  1  0
 15 32  1  0
 16 33  1  0
 17 34  1  0
 18 35  1  0
 25 36  1  0
 26 37  1  0
M  CHG  3  20  -1  21  -1  24  -1
M  END
>  <UniqueID>  (13) 
11

>  <SMILES>  (13) 
O=C(CSc1nc(=O)c(NC(=O)c2ccccc2)c([O-])[n-]1)N=c1[n-]ccs1

>  <Energy>  (13) 
79.16232723522887

>  <Genealogy>  (13) 
O=C(CSc1nc(=O)c(NC(=O)c2ccccc2)c([O-])[n-]1)N=c1[n-]ccs1 (protonated)
O=C(CSc1nc(=O)c(NC(=O)c2ccccc2)c([O-])[n-]1)N=c1[n-]ccs1 (3D coordinates assigned)
O=C(CSc1nc(=O)c(NC(=O)c2ccccc2)c([O-])[n-]1)N=c1[n-]ccs1 (optimized conformer: 79.16232723522887 kcal/mol)

>  <smiles>  (13) 
O=C(CSc1nc(=O)c(NC(=O)c2ccccc2)c(O)[nH]1)N=c1[nH]ccs1

>  <score_type>  (13) 
oracle

>  <origin>  (13) 
adg

>  <m_score__min__energy>  (13) 
-14.33

>  <m_primary>  (13) 
energy

$$$$
13:0
     RDKit          3D

 44 47  0  0  0  0  0  0  0  0999 V2000
   54.5760   25.8140   45.9690 N   0  0  0  0  0  0  0  0  0  0  0  0
   55.9520   25.6010   45.6560 C   0  0  0  0  0  0  0  0  0  0  0  0
   56.4140   24.4280   45.6850 O   0  0  0  0  0  0  0  0  0  0  0  0
   56.8290   26.7420   45.3050 C   0  0  0  0  0  0  0  0  0  0  0  0
   57.7820   26.6240   44.2550 C   0  0  0  0  0  0  0  0  0  0  0  0
   58.6160   27.7060   43.9160 C   0  0  0  0  0  0  0  0  0  0  0  0
   58.4760   28.8840   44.6400 C   0  0  0  0  0  0  0  0  0  0  0  0
   59.1570   30.0290   44.4870 N   0  0  0  0  0  0  0  0  0  0  0  0
   58.6150   30.8290   45.4440 C   0  0  0  0  0  0  0  0  0  0  0  0
   59.0470   32.2280   45.6630 C   0  0  0  0  0  0  0  0  0  0  0  0
   58.5900   33.2570   44.8220 C   0  0  0  0  0  0  0  0  0  0  0  0
   59.0000   34.5760   45.0330 C   0  0  0  0  0  0  0  0  0  0  0  0
   59.8620   34.8840   46.0890 C   0  0  0  0  0  0  0  0  0  0  0  0
   60.3150   33.8710   46.9500 C   0  0  0  0  0  0  0  0  0  0  0  0
   61.2170   34.1550   48.0310 N   0  0  0  0  0  0  0  0  0  0  0  0
   62.6010   33.7690   48.0460 C   0  0  0  0  0  0  0  0  0  0  0  0
   63.1040   33.1330   47.0800 O   0  0  0  0  0  0  0  0  0  0  0  0
   63.4840   34.2020   49.1750 C   0  0  0  0  0  0  0  0  0  0  0  0
   63.4090   33.0130   50.5620 S   0  0  0  0  0  0  0  0  0  0  0  0
   61.6410   32.7330   50.4460 C   0  0  0  0  0  0  0  0  0  0  0  0
   61.1420   31.4700   50.1090 C   0  0  0  0  0  0  0  0  0  0  0  0
   59.7620   31.2880   50.0010 C   0  0  0  0  0  0  0  0  0  0  0  0
   58.8980   32.3590   50.2390 C   0  0  0  0  0  0  0  0  0  0  0  0
   59.4330   33.6020   50.5870 C   0  0  0  0  0  0  0  0  0  0  0  0
   60.7800   33.7620   50.6810 N   0  0  0  0  0  0  0  0  0  0  0  0
   59.9200   32.5450   46.7170 C   0  0  0  0  0  0  0  0  0  0  0  0
   57.6350   30.2370   46.1780 N   0  0  0  0  0  0  0  0  0  0  0  0
   57.5700   29.0080   45.6460 C   0  0  0  0  0  0  0  0  0  0  0  0
   56.7260   27.9640   46.0130 C   0  0  0  0  0  0  0  0  0  0  0  0
   54.2520   26.7200   46.3720 H   0  0  0  0  0  0  0  0  0  0  0  0
   57.8679   25.6769   43.7022 H   0  0  0  0  0  0  0  0  0  0  0  0
   59.3542   27.6220   43.1048 H   0  0  0  0  0  0  0  0  0  0  0  0
   57.9058   33.0228   43.9931 H   0  0  0  0  0  0  0  0  0  0  0  0
   58.6432   35.3745   44.3658 H   0  0  0  0  0  0  0  0  0  0  0  0
   60.1867   35.9231   46.2464 H   0  0  0  0  0  0  0  0  0  0  0  0
   60.8900   34.8200   48.7700 H   0  0  0  0  0  0  0  0  0  0  0  0
   64.5212   34.2689   48.8147 H   0  0  0  0  0  0  0  0  0  0  0  0
   63.1361   35.1815   49.5350 H   0  0  0  0  0  0  0  0  0  0  0  0
   61.8293   30.6298   49.9311 H   0  0  0  0  0  0  0  0  0  0  0  0
   59.3559   30.3026   49.7289 H   0  0  0  0  0  0  0  0  0  0  0  0
   57.8095   32.2257   50.1535 H   0  0  0  0  0  0  0  0  0  0  0  0
   58.7637   34.4521   50.7852 H   0  0  0  0  0  0  0  0  0  0  0  0
   60.2988   31.7433   47.3680 H   0  0  0  0  0  0  0  0  0  0  0  0
   55.9994   28.0847   46.8300 H   0  0  0  0  0  0  0  0  0  0  0  0
  1  2  1  0
  2  3  2  0
  2  4  1  0
  4  5  2  0
  5  6  1  0
  6  7  2  0
  7  8  1  0
  8  9  1  0
  9 10  1  0
 10 11  2  0
 11 12  1  0
 12 13  2  0
 13 14  1  0
 14 15  1  0
 15 16  1  0
 16 17  2  0
 16 18  1  0
 18 19  1  0
 19 20  1  0
 20 21  2  0
 21 22  1  0
 22 23  2  0
 23 24  1  0
 24 25  2  0
 14 26  2  0
  9 27  2  0
 27 28  1  0
 28 29  2  0
 29  4  1  0
 28  7  1  0
 26 10  1  0
 25 20  1  0
  1 30  1  0
  5 31  1  0
  6 32  1  0
 11 33  1  0
 12 34  1  0
 13 35  1  0
 15 36  1  0
 18 37  1  0
 18 38  1  0
 21 39  1  0
 22 40  1  0
 23 41  1  0
 24 42  1  0
 26 43  1  0
 29 44  1  0
M  CHG  2   1  -1   8  -1
M  END
>  <UniqueID>  (14) 
12

>  <SMILES>  (14) 
[NH-]C(=O)c1ccc2[n-]c(-c3cccc(NC(=O)CSc4ccccn4)c3)nc2c1

>  <Energy>  (14) 
81.72600154934948

>  <Genealogy>  (14) 
[NH-]C(=O)c1ccc2[n-]c(-c3cccc(NC(=O)CSc4ccccn4)c3)nc2c1 (protonated)
[NH-]C(=O)c1ccc2[n-]c(-c3cccc(NC(=O)CSc4ccccn4)c3)nc2c1 (3D coordinates assigned)
[NH-]C(=O)c1ccc2[n-]c(-c3cccc(NC(=O)CSc4ccccn4)c3)nc2c1 (optimized conformer: 81.72600154934948 kcal/mol)

>  <smiles>  (14) 
NC(=O)c1ccc2[nH]c(-c3cccc(NC(=O)CSc4ccccn4)c3)nc2c1

>  <score_type>  (14) 
oracle

>  <origin>  (14) 
adg

>  <m_score__min__energy>  (14) 
-12.58

>  <m_primary>  (14) 
energy

$$$$
14:0
     RDKit          3D

 37 38  0  0  0  0  0  0  0  0999 V2000
   60.6970   28.2100   45.5050 C   0  0  0  0  0  0  0  0  0  0  0  0
   59.2770   28.5460   45.3430 N   0  0  0  0  0  0  0  0  0  0  0  0
   58.9180   29.5810   44.5280 C   0  0  0  0  0  0  0  0  0  0  0  0
   57.5730   29.9220   44.3620 C   0  0  0  0  0  0  0  0  0  0  0  0
   57.2080   31.0870   43.5370 C   0  0  0  0  0  0  0  0  0  0  0  0
   56.8350   30.9040   42.3490 O   0  0  0  0  0  0  0  0  0  0  0  0
   57.3130   32.4270   44.0370 N   0  0  0  0  0  0  0  0  0  0  0  0
   57.2970   32.8030   45.4490 C   0  0  0  0  0  0  0  0  0  0  0  0
   58.6990   32.9350   45.9870 C   0  0  0  0  0  0  0  0  0  0  0  0
   59.4520   34.0880   45.7160 C   0  0  0  0  0  0  0  0  0  0  0  0
   60.7690   34.1930   46.1710 C   0  0  0  0  0  0  0  0  0  0  0  0
   61.3450   33.1510   46.9100 C   0  0  0  0  0  0  0  0  0  0  0  0
   63.0120   33.2650   47.4670 S   0  0  0  0  0  0  0  0  0  0  0  0
   63.0340   33.7870   49.1650 C   0  0  0  0  0  0  0  0  0  0  0  0
   63.6880   31.9280   47.3470 O   0  0  0  0  0  0  0  0  0  0  0  0
   63.7570   34.2610   46.6220 O   0  0  0  0  0  0  0  0  0  0  0  0
   60.5940   32.0010   47.1880 C   0  0  0  0  0  0  0  0  0  0  0  0
   59.2760   31.8970   46.7350 C   0  0  0  0  0  0  0  0  0  0  0  0
   56.6080   29.1490   45.0190 C   0  0  0  0  0  0  0  0  0  0  0  0
   55.3800   29.4030   44.8770 O   0  0  0  0  0  0  0  0  0  0  0  0
   56.9960   28.1100   45.8030 N   0  0  0  0  0  0  0  0  0  0  0  0
   58.3110   27.8030   45.9700 C   0  0  0  0  0  0  0  0  0  0  0  0
   58.6300   26.8280   46.7040 O   0  0  0  0  0  0  0  0  0  0  0  0
   60.9403   28.1524   46.5762 H   0  0  0  0  0  0  0  0  0  0  0  0
   60.9005   27.2389   45.0301 H   0  0  0  0  0  0  0  0  0  0  0  0
   61.3141   28.9869   45.0301 H   0  0  0  0  0  0  0  0  0  0  0  0
   59.6945   30.1515   43.9973 H   0  0  0  0  0  0  0  0  0  0  0  0
   56.7769   33.7660   45.5593 H   0  0  0  0  0  0  0  0  0  0  0  0
   56.7758   32.0174   46.0158 H   0  0  0  0  0  0  0  0  0  0  0  0
   59.0034   34.9127   45.1428 H   0  0  0  0  0  0  0  0  0  0  0  0
   61.3555   35.0966   45.9484 H   0  0  0  0  0  0  0  0  0  0  0  0
   62.9968   32.9044   49.8204 H   0  0  0  0  0  0  0  0  0  0  0  0
   63.9568   34.3521   49.3630 H   0  0  0  0  0  0  0  0  0  0  0  0
   62.1621   34.4277   49.3630 H   0  0  0  0  0  0  0  0  0  0  0  0
   61.0429   31.1784   47.7640 H   0  0  0  0  0  0  0  0  0  0  0  0
   58.6876   30.9967   46.9659 H   0  0  0  0  0  0  0  0  0  0  0  0
   56.2690   27.5350   46.2890 H   0  0  0  0  0  0  0  0  0  0  0  0
  1  2  1  0
  2  3  1  0
  3  4  2  0
  4  5  1  0
  5  6  2  0
  5  7  1  0
  7  8  1  0
  8  9  1  0
  9 10  2  0
 10 11  1  0
 11 12  2  0
 12 13  1  0
 13 14  1  0
 13 15  2  0
 13 16  2  0
 12 17  1  0
 17 18  2  0
  4 19  1  0
 19 20  2  0
 19 21  1  0
 21 22  1  0
 22 23  2  0
 22  2  1  0
 18  9  1  0
  1 24  1  0
  1 25  1  0
  1 26  1  0
  3 27  1  0
  8 28  1  0
  8 29  1  0
 10 30  1  0
 11 31  1  0
 14 32  1  0
 14 33  1  0
 14 34  1  0
 17 35  1  0
 18 36  1  0
 21 37  1  0
M  CHG  1   7  -1
M  END
>  <UniqueID>  (15) 
13

>  <SMILES>  (15) 
Cn1cc(C(=O)[N-]Cc2ccc(S(C)(=O)=O)cc2)c(=O)[nH]c1=O

>  <Energy>  (15) 
38.59143433181781

>  <Genealogy>  (15) 
Cn1cc(C(=O)[N-]Cc2ccc(S(C)(=O)=O)cc2)c(=O)[nH]c1=O (protonated)
Cn1cc(C(=O)[N-]Cc2ccc(S(C)(=O)=O)cc2)c(=O)[nH]c1=O (3D coordinates assigned)
Cn1cc(C(=O)[N-]Cc2ccc(S(C)(=O)=O)cc2)c(=O)[nH]c1=O (optimized conformer: 38.59143433181781 kcal/mol)

>  <smiles>  (15) 
Cn1cc(C(=O)NCc2ccc(S(C)(=O)=O)cc2)c(=O)[nH]c1=O

>  <score_type>  (15) 
oracle

>  <origin>  (15) 
adg

>  <m_score__min__energy>  (15) 
-9.3599999999999994

>  <m_primary>  (15) 
energy

$$$$
15:0
     RDKit          3D

 54 58  0  0  0  0  0  0  0  0999 V2000
   57.5377   21.3685   42.2084 H   0  0  0  0  0  0  0  0  0  0  0  0
   57.0190   21.8560   43.0470 C   0  0  0  0  0  0  0  0  0  0  0  0
   55.8910   22.5810   42.8190 N   0  0  0  0  0  0  0  0  0  0  0  0
   55.2240   23.2010   43.8280 C   0  0  0  0  0  0  0  0  0  0  0  0
   54.3148   23.7804   43.6098 H   0  0  0  0  0  0  0  0  0  0  0  0
   55.6920   23.1040   45.1470 C   0  0  0  0  0  0  0  0  0  0  0  0
   54.9510   23.7590   46.2820 C   0  0  0  0  0  0  0  0  0  0  0  0
   55.2793   23.3145   47.2331 H   0  0  0  0  0  0  0  0  0  0  0  0
   53.8717   23.5993   46.1418 H   0  0  0  0  0  0  0  0  0  0  0  0
   55.2180   25.1980   46.3050 N   0  0  0  0  0  0  0  0  0  0  0  0
   56.3990   25.7340   46.4090 C   0  0  0  0  0  0  0  0  0  0  0  0
   57.2670   25.3340   47.3820 N   0  0  0  0  0  0  0  0  0  0  0  0
   58.5080   25.8750   47.5040 C   0  0  0  0  0  0  0  0  0  0  0  0
   59.1836   25.5259   48.2988 H   0  0  0  0  0  0  0  0  0  0  0  0
   58.9260   26.8720   46.6230 C   0  0  0  0  0  0  0  0  0  0  0  0
   59.9330   27.3051   46.7141 H   0  0  0  0  0  0  0  0  0  0  0  0
   58.0540   27.3180   45.6210 C   0  0  0  0  0  0  0  0  0  0  0  0
   58.5000   28.3650   44.6430 C   0  0  0  0  0  0  0  0  0  0  0  0
   58.1165   28.1192   43.6418 H   0  0  0  0  0  0  0  0  0  0  0  0
   59.5992   28.3979   44.6156 H   0  0  0  0  0  0  0  0  0  0  0  0
   57.9840   29.6640   45.0560 N   0  0  0  0  0  0  0  0  0  0  0  0
   56.6270   30.0740   44.8620 C   0  0  0  0  0  0  0  0  0  0  0  0
   55.7220   29.2030   44.8060 O   0  0  0  0  0  0  0  0  0  0  0  0
   56.2770   31.4600   44.7740 N   0  0  0  0  0  0  0  0  0  0  0  0
   57.1140   32.4340   44.9700 C   0  0  0  0  0  0  0  0  0  0  0  0
   57.8970   32.9180   43.9830 N   0  0  0  0  0  0  0  0  0  0  0  0
   58.7040   33.9190   44.4270 C   0  0  0  0  0  0  0  0  0  0  0  0
   59.4189   34.4392   43.7725 H   0  0  0  0  0  0  0  0  0  0  0  0
   58.5540   34.2330   45.7740 C   0  0  0  0  0  0  0  0  0  0  0  0
   59.3610   35.2360   46.5340 C   0  0  0  0  0  0  0  0  0  0  0  0
   59.7781   35.9743   45.8334 H   0  0  0  0  0  0  0  0  0  0  0  0
   58.7134   35.7409   47.2659 H   0  0  0  0  0  0  0  0  0  0  0  0
   60.4780   34.5520   47.2560 C   0  0  0  0  0  0  0  0  0  0  0  0
   61.5200   33.8580   46.6450 C   0  0  0  0  0  0  0  0  0  0  0  0
   61.6580   33.6639   45.5711 H   0  0  0  0  0  0  0  0  0  0  0  0
   62.3400   33.4680   47.6820 C   0  0  0  0  0  0  0  0  0  0  0  0
   63.5320   32.7480   47.6740 C   0  0  0  0  0  0  0  0  0  0  0  0
   63.9685   32.3816   46.7331 H   0  0  0  0  0  0  0  0  0  0  0  0
   64.1590   32.5050   48.9090 C   0  0  0  0  0  0  0  0  0  0  0  0
   65.1010   31.9378   48.9407 H   0  0  0  0  0  0  0  0  0  0  0  0
   63.5880   32.9840   50.1100 C   0  0  0  0  0  0  0  0  0  0  0  0
   64.0877   32.7865   51.0698 H   0  0  0  0  0  0  0  0  0  0  0  0
   62.3840   33.7120   50.0850 C   0  0  0  0  0  0  0  0  0  0  0  0
   61.9316   34.0935   51.0122 H   0  0  0  0  0  0  0  0  0  0  0  0
   61.7830   33.9340   48.8460 C   0  0  0  0  0  0  0  0  0  0  0  0
   60.6460   34.6040   48.5990 N   0  0  0  0  0  0  0  0  0  0  0  0
   60.0280   35.0790   49.2960 H   0  0  0  0  0  0  0  0  0  0  0  0
   57.3980   33.2090   46.4440 S   0  0  0  0  0  0  0  0  0  0  0  0
   56.7840   26.7340   45.5080 C   0  0  0  0  0  0  0  0  0  0  0  0
   56.0940   27.0599   44.7157 H   0  0  0  0  0  0  0  0  0  0  0  0
   56.8500   22.3550   45.3980 C   0  0  0  0  0  0  0  0  0  0  0  0
   57.2315   22.2597   46.4253 H   0  0  0  0  0  0  0  0  0  0  0  0
   57.5190   21.7300   44.3440 C   0  0  0  0  0  0  0  0  0  0  0  0
   58.4306   21.1444   44.5337 H   0  0  0  0  0  0  0  0  0  0  0  0
  1  2  1  0
  2  3  2  0
  3  4  1  0
  4  5  1  0
  4  6  2  0
  6  7  1  0
  7  8  1  0
  7  9  1  0
  7 10  1  0
 10 11  2  3
 11 12  1  0
 12 13  1  0
 13 14  1  0
 13 15  2  0
 15 16  1  0
 15 17  1  0
 17 18  1  0
 18 19  1  0
 18 20  1  0
 18 21  1  0
 21 22  1  0
 22 23  2  0
 22 24  1  0
 24 25  2  0
 25 26  1  0
 26 27  1  0
 27 28  1  0
 27 29  2  0
 29 30  1  0
 30 31  1  0
 30 32  1  0
 30 33  1  0
 33 34  2  0
 34 35  1  0
 34 36  1  0
 36 37  2  0
 37 38  1  0
 37 39  1  0
 39 40  1  0
 39 41  2  0
 41 42  1  0
 41 43  1  0
 43 44  1  0
 43 45  2  0
 45 46  1  0
 46 47  1  0
 29 48  1  0
 17 49  2  0
 49 50  1  0
  6 51  1  0
 51 52  1  0
 51 53  2  0
 53 54  1  0
 53  2  1  0
 49 11  1  0
 48 25  1  0
 46 33  1  0
 45 36  1  0
M  CHG  3  12  -1  21  -1  26  -1
M  END
>  <UniqueID>  (16) 
14

>  <SMILES>  (16) 
O=C(/N=c1/[n-]cc(Cc2cc3ccccc3[nH]2)s1)[N-]Cc1cc[n-]c(=NCc2cccnc2)c1

>  <Energy>  (16) 
126.77606368347752

>  <Genealogy>  (16) 
O=C(N=c1[n-]cc(Cc2cc3ccccc3[nH]2)s1)[N-]Cc1cc[n-]c(=NCc2cccnc2)c1 (protonated)
O=C(/N=c1/[n-]cc(Cc2cc3ccccc3[nH]2)s1)[N-]Cc1cc[n-]c(=NCc2cccnc2)c1 (cis-trans isomerization)
O=C(/N=c1/[n-]cc(Cc2cc3ccccc3[nH]2)s1)[N-]Cc1cc[n-]c(=NCc2cccnc2)c1 (3D coordinates assigned)
O=C(/N=c1/[n-]cc(Cc2cc3ccccc3[nH]2)s1)[N-]Cc1cc[n-]c(=NCc2cccnc2)c1 (optimized conformer: 126.77606368347752 kcal/mol)

>  <smiles>  (16) 
O=C(N=c1[nH]cc(Cc2cc3ccccc3[nH]2)s1)NCc1cc[nH]c(=NCc2cccnc2)c1

>  <score_type>  (16) 
oracle

>  <origin>  (16) 
adg

>  <m_score__min__energy>  (16) 
-14.390000000000001

>  <m_primary>  (16) 
energy

$$$$
16:0
     RDKit          3D

 59 62  0  0  0  0  0  0  0  0999 V2000
   55.5710   29.0500   44.8190 O   0  0  0  0  0  0  0  0  0  0  0  0
   56.6530   29.6920   44.9070 C   0  0  0  0  0  0  0  0  0  0  0  0
   56.6440   31.0900   44.5840 N   0  0  0  0  0  0  0  0  0  0  0  0
   57.5360   32.0980   45.0860 C   0  0  0  0  0  0  0  0  0  0  0  0
   57.6650   33.2950   44.3720 C   0  0  0  0  0  0  0  0  0  0  0  0
   58.4990   34.3120   44.8450 C   0  0  0  0  0  0  0  0  0  0  0  0
   59.1990   34.1490   46.0450 C   0  0  0  0  0  0  0  0  0  0  0  0
   59.0680   32.9620   46.7830 C   0  0  0  0  0  0  0  0  0  0  0  0
   59.8170   32.7810   48.0860 C   0  0  0  0  0  0  0  0  0  0  0  0
   60.3720   31.4100   48.2270 N   0  0  1  0  0  0  0  0  0  0  0  0
   61.6690   31.4830   48.9590 C   0  0  0  0  0  0  0  0  0  0  0  0
   61.6510   30.9140   50.3940 C   0  0  0  0  0  0  0  0  0  0  0  0
   60.6610   31.6090   51.3480 C   0  0  0  0  0  0  0  0  0  0  0  0
   59.3090   31.0070   51.3370 N   0  0  0  0  0  0  0  0  0  0  0  0
   58.5110   31.4310   52.5060 C   0  0  0  0  0  0  0  0  0  0  0  0
   57.1990   30.6900   52.5030 C   0  0  0  0  0  0  0  0  0  0  0  0
   57.1190   29.4080   53.0770 C   0  0  0  0  0  0  0  0  0  0  0  0
   55.8990   28.7250   53.1170 C   0  0  0  0  0  0  0  0  0  0  0  0
   54.7480   29.3160   52.5890 C   0  0  0  0  0  0  0  0  0  0  0  0
   54.8150   30.5930   52.0240 C   0  0  0  0  0  0  0  0  0  0  0  0
   53.6960   31.1680   51.5200 F   0  0  0  0  0  0  0  0  0  0  0  0
   56.0340   31.2820   51.9840 C   0  0  0  0  0  0  0  0  0  0  0  0
   58.6050   31.1810   50.0480 C   0  0  0  0  0  0  0  0  0  0  0  0
   59.3850   30.5050   48.8860 C   0  0  0  0  0  0  0  0  0  0  0  0
   58.2280   31.9410   46.3010 C   0  0  0  0  0  0  0  0  0  0  0  0
   57.8940   28.9710   45.2800 C   0  0  0  0  0  0  0  0  0  0  0  0
   57.8860   27.9910   46.2910 C   0  0  0  0  0  0  0  0  0  0  0  0
   59.0660   27.3230   46.6350 C   0  0  0  0  0  0  0  0  0  0  0  0
   60.2650   27.6390   45.9890 C   0  0  0  0  0  0  0  0  0  0  0  0
   60.2890   28.6230   44.9970 C   0  0  0  0  0  0  0  0  0  0  0  0
   61.4560   28.9380   44.3790 F   0  0  0  0  0  0  0  0  0  0  0  0
   59.1090   29.2880   44.6440 C   0  0  0  0  0  0  0  0  0  0  0  0
   57.1074   33.4359   43.4343 H   0  0  0  0  0  0  0  0  0  0  0  0
   58.6053   35.2444   44.2712 H   0  0  0  0  0  0  0  0  0  0  0  0
   59.8540   34.9532   46.4114 H   0  0  0  0  0  0  0  0  0  0  0  0
   60.6451   33.5041   48.1223 H   0  0  0  0  0  0  0  0  0  0  0  0
   59.1069   32.9449   48.9100 H   0  0  0  0  0  0  0  0  0  0  0  0
   60.5720   31.0700   47.2580 H   0  0  0  0  0  0  0  0  0  0  0  0
   62.4175   30.9217   48.3805 H   0  0  0  0  0  0  0  0  0  0  0  0
   61.9009   32.5535   49.0597 H   0  0  0  0  0  0  0  0  0  0  0  0
   61.3822   29.8489   50.3372 H   0  0  0  0  0  0  0  0  0  0  0  0
   62.6553   31.0845   50.8092 H   0  0  0  0  0  0  0  0  0  0  0  0
   61.0613   31.5472   52.3707 H   0  0  0  0  0  0  0  0  0  0  0  0
   60.5552   32.6483   51.0035 H   0  0  0  0  0  0  0  0  0  0  0  0
   59.0614   31.2016   53.4304 H   0  0  0  0  0  0  0  0  0  0  0  0
   58.3249   32.5139   52.4543 H   0  0  0  0  0  0  0  0  0  0  0  0
   58.0215   28.9399   53.4969 H   0  0  0  0  0  0  0  0  0  0  0  0
   55.8455   27.7216   53.5646 H   0  0  0  0  0  0  0  0  0  0  0  0
   53.7897   28.7767   52.6179 H   0  0  0  0  0  0  0  0  0  0  0  0
   56.0800   32.2896   51.5451 H   0  0  0  0  0  0  0  0  0  0  0  0
   57.6055   30.7274   50.1209 H   0  0  0  0  0  0  0  0  0  0  0  0
   58.5277   32.2576   49.8358 H   0  0  0  0  0  0  0  0  0  0  0  0
   59.9246   29.6350   49.2884 H   0  0  0  0  0  0  0  0  0  0  0  0
   58.6462   30.2204   48.1223 H   0  0  0  0  0  0  0  0  0  0  0  0
   58.1114   31.0124   46.8790 H   0  0  0  0  0  0  0  0  0  0  0  0
   56.9480   27.7497   46.8125 H   0  0  0  0  0  0  0  0  0  0  0  0
   59.0505   26.5477   47.4152 H   0  0  0  0  0  0  0  0  0  0  0  0
   61.1912   27.1121   46.2621 H   0  0  0  0  0  0  0  0  0  0  0  0
   59.1313   30.0636   43.8643 H   0  0  0  0  0  0  0  0  0  0  0  0
  1  2  2  0
  2  3  1  0
  3  4  1  0
  4  5  2  0
  5  6  1  0
  6  7  2  0
  7  8  1  0
  8  9  1  0
  9 10  1  0
 10 11  1  0
 11 12  1  0
 12 13  1  0
 13 14  1  0
 14 15  1  0
 15 16  1  0
 16 17  2  0
 17 18  1  0
 18 19  2  0
 19 20  1  0
 20 21  1  0
 20 22  2  0
 14 23  1  0
 23 24  1  0
  8 25  2  0
  2 26  1  0
 26 27  2  0
 27 28  1  0
 28 29  2  0
 29 30  1  0
 30 31  1  0
 30 32  2  0
 25  4  1  0
 32 26  1  0
 24 10  1  0
 22 16  1  0
  5 33  1  0
  6 34  1  0
  7 35  1  0
  9 36  1  0
  9 37  1  0
 10 38  1  6
 11 39  1  0
 11 40  1  0
 12 41  1  0
 12 42  1  0
 13 43  1  0
 13 44  1  0
 15 45  1  0
 15 46  1  0
 17 47  1  0
 18 48  1  0
 19 49  1  0
 22 50  1  0
 23 51  1  0
 23 52  1  0
 24 53  1  0
 24 54  1  0
 25 55  1  0
 27 56  1  0
 28 57  1  0
 29 58  1  0
 32 59  1  0
M  CHG  2   3  -1  10   1
M  END
>  <UniqueID>  (17) 
15

>  <SMILES>  (17) 
O=C([N-]c1cccc(C[N@H+]2CCCN(Cc3cccc(F)c3)CC2)c1)c1cccc(F)c1

>  <Energy>  (17) 
85.3822855634797

>  <Genealogy>  (17) 
O=C([N-]c1cccc(C[NH+]2CCCN(Cc3cccc(F)c3)CC2)c1)c1cccc(F)c1 (protonated)
O=C([N-]c1cccc(C[N@H+]2CCCN(Cc3cccc(F)c3)CC2)c1)c1cccc(F)c1 (chirality)
O=C([N-]c1cccc(C[N@H+]2CCCN(Cc3cccc(F)c3)CC2)c1)c1cccc(F)c1 (3D coordinates assigned)
O=C([N-]c1cccc(C[N@H+]2CCCN(Cc3cccc(F)c3)CC2)c1)c1cccc(F)c1 (nonaromatic ring conformer: 85.3822855634797 kcal/mol)

>  <smiles>  (17) 
O=C(Nc1cccc(CN2CCCN(Cc3cccc(F)c3)CC2)c1)c1cccc(F)c1

>  <score_type>  (17) 
oracle

>  <origin>  (17) 
adg

>  <m_score__min__energy>  (17) 
-8.1699999999999999

>  <m_primary>  (17) 
energy

$$$$
17:0
     RDKit          3D

 39 41  0  0  0  0  0  0  0  0999 V2000
   54.8360   29.6230   43.8700 N   0  0  0  0  0  0  0  0  0  0  0  0
   56.5000   29.5860   44.3460 S   0  0  0  0  0  0  0  0  0  0  0  0
   57.3580   29.5930   43.1120 O   0  0  0  0  0  0  0  0  0  0  0  0
   56.8320   30.8040   45.1610 O   0  0  0  0  0  0  0  0  0  0  0  0
   56.8410   28.1200   45.2620 C   0  0  0  0  0  0  0  0  0  0  0  0
   55.8380   27.2550   45.5730 N   0  0  0  0  0  0  0  0  0  0  0  0
   56.2860   26.2220   46.3130 C   0  0  0  0  0  0  0  0  0  0  0  0
   55.5380   25.2980   46.7240 O   0  0  0  0  0  0  0  0  0  0  0  0
   57.9290   26.3190   46.6250 S   0  0  0  0  0  0  0  0  0  0  0  0
   58.1010   27.7550   45.7580 C   0  0  0  0  0  0  0  0  0  0  0  0
   59.3940   28.5100   45.6480 C   0  0  0  0  0  0  0  0  0  0  0  0
   59.6090   29.3620   46.8600 C   0  0  0  0  0  0  0  0  0  0  0  0
   59.1130   29.1120   48.1320 C   0  0  0  0  0  0  0  0  0  0  0  0
   59.5260   30.0560   49.0800 C   0  0  0  0  0  0  0  0  0  0  0  0
   60.3560   31.0460   48.5570 C   0  0  0  0  0  0  0  0  0  0  0  0
   60.9240   32.1660   49.3380 C   0  0  0  0  0  0  0  0  0  0  0  0
   60.9960   32.0480   50.5890 O   0  0  0  0  0  0  0  0  0  0  0  0
   61.4260   33.3730   48.7420 N   0  0  0  0  0  0  0  0  0  0  0  0
   60.6790   34.5740   48.3720 C   0  0  0  0  0  0  0  0  0  0  0  0
   59.6480   34.2920   47.3040 C   0  0  0  0  0  0  0  0  0  0  0  0
   58.4690   33.5880   47.6090 C   0  0  0  0  0  0  0  0  0  0  0  0
   57.5420   33.2970   46.6040 C   0  0  0  0  0  0  0  0  0  0  0  0
   57.7950   33.6810   45.2840 C   0  0  0  0  0  0  0  0  0  0  0  0
   58.9770   34.3550   44.9680 C   0  0  0  0  0  0  0  0  0  0  0  0
   59.9020   34.6560   45.9700 C   0  0  0  0  0  0  0  0  0  0  0  0
   60.5300   30.7660   46.9060 S   0  0  0  0  0  0  0  0  0  0  0  0
   54.3160   28.9670   44.4960 H   0  0  0  0  0  0  0  0  0  0  0  0
   54.7740   29.2310   42.9040 H   0  0  0  0  0  0  0  0  0  0  0  0
   60.2243   27.7943   45.5568 H   0  0  0  0  0  0  0  0  0  0  0  0
   59.3527   29.1584   44.7604 H   0  0  0  0  0  0  0  0  0  0  0  0
   58.4614   28.2586   48.3711 H   0  0  0  0  0  0  0  0  0  0  0  0
   59.2241   30.0197   50.1371 H   0  0  0  0  0  0  0  0  0  0  0  0
   60.1682   34.9638   49.2648 H   0  0  0  0  0  0  0  0  0  0  0  0
   61.3929   35.3081   47.9701 H   0  0  0  0  0  0  0  0  0  0  0  0
   58.2757   33.2651   48.6426 H   0  0  0  0  0  0  0  0  0  0  0  0
   56.6118   32.7649   46.8523 H   0  0  0  0  0  0  0  0  0  0  0  0
   57.0638   33.4526   44.4946 H   0  0  0  0  0  0  0  0  0  0  0  0
   59.1796   34.6493   43.9276 H   0  0  0  0  0  0  0  0  0  0  0  0
   60.8343   35.1807   45.7141 H   0  0  0  0  0  0  0  0  0  0  0  0
  1  2  1  0
  2  3  2  0
  2  4  2  0
  2  5  1  0
  5  6  1  0
  6  7  1  0
  7  8  2  0
  7  9  1  0
  9 10  1  0
 10 11  1  0
 11 12  1  0
 12 13  2  0
 13 14  1  0
 14 15  2  0
 15 16  1  0
 16 17  2  0
 16 18  1  0
 18 19  1  0
 19 20  1  0
 20 21  2  0
 21 22  1  0
 22 23  2  0
 23 24  1  0
 24 25  2  0
 15 26  1  0
 10  5  2  0
 26 12  1  0
 25 20  1  0
  1 27  1  0
  1 28  1  0
 11 29  1  0
 11 30  1  0
 13 31  1  0
 14 32  1  0
 19 33  1  0
 19 34  1  0
 21 35  1  0
 22 36  1  0
 23 37  1  0
 24 38  1  0
 25 39  1  0
M  CHG  2   6  -1  18  -1
M  END
>  <UniqueID>  (18) 
16

>  <SMILES>  (18) 
NS(=O)(=O)c1[n-]c(=O)sc1Cc1ccc(C(=O)[N-]Cc2ccccc2)s1

>  <Energy>  (18) 
92.34612185122172

>  <Genealogy>  (18) 
NS(=O)(=O)c1[n-]c(=O)sc1Cc1ccc(C(=O)[N-]Cc2ccccc2)s1 (protonated)
NS(=O)(=O)c1[n-]c(=O)sc1Cc1ccc(C(=O)[N-]Cc2ccccc2)s1 (3D coordinates assigned)
NS(=O)(=O)c1[n-]c(=O)sc1Cc1ccc(C(=O)[N-]Cc2ccccc2)s1 (optimized conformer: 92.34612185122172 kcal/mol)

>  <smiles>  (18) 
NS(=O)(=O)c1[nH]c(=O)sc1Cc1ccc(C(=O)NCc2ccccc2)s1

>  <score_type>  (18) 
oracle

>  <origin>  (18) 
adg

>  <m_score__min__energy>  (18) 
-12.81

>  <m_primary>  (18) 
energy

$$$$
18:0
     RDKit          3D

 52 55  0  0  0  0  0  0  0  0999 V2000
   58.2620   28.5250   45.8340 O   0  0  0  0  0  0  0  0  0  0  0  0
   57.0330   28.3370   45.6270 C   0  0  0  0  0  0  0  0  0  0  0  0
   56.2360   29.4650   45.2370 N   0  0  0  0  0  0  0  0  0  0  0  0
   56.6220   30.5520   44.3440 C   0  0  0  0  0  0  0  0  0  0  0  0
   57.4600   31.5420   45.1020 C   0  0  0  0  0  0  0  0  0  0  0  0
   57.7350   32.8090   44.5630 C   0  0  0  0  0  0  0  0  0  0  0  0
   58.5190   33.7220   45.2750 C   0  0  0  0  0  0  0  0  0  0  0  0
   59.0440   33.3820   46.5350 C   0  0  0  0  0  0  0  0  0  0  0  0
   59.9100   34.3700   47.2970 C   0  0  0  0  0  0  0  0  0  0  0  0
   61.2780   33.8820   47.6080 N   0  0  0  0  0  0  0  0  0  0  0  0
   62.1220   33.7450   46.4070 C   0  0  0  0  0  0  0  0  0  0  0  0
   63.5970   33.5330   46.8060 C   0  0  0  0  0  0  0  0  0  0  0  0
   63.7670   32.7100   48.0310 N   0  0  0  0  0  0  0  0  0  0  0  0
   64.1990   33.4870   49.2140 C   0  0  0  0  0  0  0  0  0  0  0  0
   65.2120   32.7080   50.0020 C   0  0  0  0  0  0  0  0  0  0  0  0
   66.5520   33.1070   50.1240 C   0  0  0  0  0  0  0  0  0  0  0  0
   67.3210   32.2360   50.8840 C   0  0  0  0  0  0  0  0  0  0  0  0
   66.3320   30.9770   51.3960 S   0  0  0  0  0  0  0  0  0  0  0  0
   64.9220   31.5180   50.6620 C   0  0  0  0  0  0  0  0  0  0  0  0
   62.6010   31.8450   48.3100 C   0  0  0  0  0  0  0  0  0  0  0  0
   61.2750   32.6360   48.4180 C   0  0  0  0  0  0  0  0  0  0  0  0
   58.7940   32.1010   47.0550 C   0  0  0  0  0  0  0  0  0  0  0  0
   57.9980   31.1950   46.3510 C   0  0  0  0  0  0  0  0  0  0  0  0
   56.5090   26.9580   45.7540 C   0  0  0  0  0  0  0  0  0  0  0  0
   57.1840   25.7620   45.5900 C   0  0  0  0  0  0  0  0  0  0  0  0
   56.3190   24.7420   45.7330 N   0  0  0  0  0  0  0  0  0  0  0  0
   55.1440   25.3550   45.9740 C   0  0  0  0  0  0  0  0  0  0  0  0
   54.0730   24.7230   46.1630 O   0  0  0  0  0  0  0  0  0  0  0  0
   55.2080   26.7010   45.9870 N   0  0  0  0  0  0  0  0  0  0  0  0
   57.2026   30.1474   43.5019 H   0  0  0  0  0  0  0  0  0  0  0  0
   55.7204   31.0505   43.9584 H   0  0  0  0  0  0  0  0  0  0  0  0
   57.3323   33.0843   43.5771 H   0  0  0  0  0  0  0  0  0  0  0  0
   58.7268   34.7136   44.8466 H   0  0  0  0  0  0  0  0  0  0  0  0
   60.0012   35.2841   46.6919 H   0  0  0  0  0  0  0  0  0  0  0  0
   59.4125   34.5398   48.2633 H   0  0  0  0  0  0  0  0  0  0  0  0
   61.7080   34.6350   48.1960 H   0  0  0  0  0  0  0  0  0  0  0  0
   61.7780   32.8812   45.8192 H   0  0  0  0  0  0  0  0  0  0  0  0
   62.0433   34.6652   45.8094 H   0  0  0  0  0  0  0  0  0  0  0  0
   64.1139   33.0311   45.9748 H   0  0  0  0  0  0  0  0  0  0  0  0
   64.0197   34.5254   47.0216 H   0  0  0  0  0  0  0  0  0  0  0  0
   64.6471   34.4353   48.8825 H   0  0  0  0  0  0  0  0  0  0  0  0
   63.3251   33.6881   49.8510 H   0  0  0  0  0  0  0  0  0  0  0  0
   66.9539   34.0210   49.6624 H   0  0  0  0  0  0  0  0  0  0  0  0
   68.3912   32.3500   51.1115 H   0  0  0  0  0  0  0  0  0  0  0  0
   63.9420   31.0196   50.6968 H   0  0  0  0  0  0  0  0  0  0  0  0
   62.5062   31.1108   47.4964 H   0  0  0  0  0  0  0  0  0  0  0  0
   62.7755   31.3598   49.2817 H   0  0  0  0  0  0  0  0  0  0  0  0
   60.4532   31.9929   48.0699 H   0  0  0  0  0  0  0  0  0  0  0  0
   61.1487   32.9270   49.4713 H   0  0  0  0  0  0  0  0  0  0  0  0
   59.2281   31.8098   48.0229 H   0  0  0  0  0  0  0  0  0  0  0  0
   57.7912   30.2027   46.7782 H   0  0  0  0  0  0  0  0  0  0  0  0
   58.2583   25.6610   45.3764 H   0  0  0  0  0  0  0  0  0  0  0  0
  1  2  2  0
  2  3  1  0
  3  4  1  0
  4  5  1  0
  5  6  2  0
  6  7  1  0
  7  8  2  0
  8  9  1  0
  9 10  1  0
 10 11  1  0
 11 12  1  0
 12 13  1  0
 13 14  1  0
 14 15  1  0
 15 16  1  0
 16 17  2  0
 17 18  1  0
 18 19  1  0
 13 20  1  0
 20 21  1  0
  8 22  1  0
 22 23  2  0
  2 24  1  0
 24 25  2  0
 25 26  1  0
 26 27  1  0
 27 28  2  0
 27 29  1  0
 23  5  1  0
 29 24  1  0
 21 10  1  0
 19 15  2  0
  4 30  1  0
  4 31  1  0
  6 32  1  0
  7 33  1  0
  9 34  1  0
  9 35  1  0
 10 36  1  0
 11 37  1  0
 11 38  1  0
 12 39  1  0
 12 40  1  0
 14 41  1  0
 14 42  1  0
 16 43  1  0
 17 44  1  0
 19 45  1  0
 20 46  1  0
 20 47  1  0
 21 48  1  0
 21 49  1  0
 22 50  1  0
 23 51  1  0
 25 52  1  0
M  CHG  4   3  -1  10   1  26  -1  29  -1
M  END
>  <UniqueID>  (19) 
17

>  <SMILES>  (19) 
O=C([N-]Cc1ccc(C[NH+]2CCN(Cc3ccsc3)CC2)cc1)c1c[n-]c(=O)[n-]1

>  <Energy>  (19) 
126.83670429999145

>  <Genealogy>  (19) 
O=C([N-]Cc1ccc(C[NH+]2CCN(Cc3ccsc3)CC2)cc1)c1c[n-]c(=O)[n-]1 (protonated)
O=C([N-]Cc1ccc(C[NH+]2CCN(Cc3ccsc3)CC2)cc1)c1c[n-]c(=O)[n-]1 (3D coordinates assigned)
O=C([N-]Cc1ccc(C[NH+]2CCN(Cc3ccsc3)CC2)cc1)c1c[n-]c(=O)[n-]1 (nonaromatic ring conformer: 126.83670429999145 kcal/mol)

>  <smiles>  (19) 
O=C(NCc1ccc(CN2CCN(Cc3ccsc3)CC2)cc1)c1c[nH]c(=O)[nH]1

>  <score_type>  (19) 
oracle

>  <origin>  (19) 
adg

>  <m_score__min__energy>  (19) 
-13.24

>  <m_primary>  (19) 
energy

$$$$
19:0
     RDKit          3D

 48 49  0  0  0  0  0  0  0  0999 V2000
   57.1926   26.7577   44.5746 H   0  0  0  0  0  0  0  0  0  0  0  0
   57.0240   26.8160   45.6600 C   0  0  0  0  0  0  0  0  0  0  0  0
   55.9270   26.0000   46.2210 C   0  0  0  0  0  0  0  0  0  0  0  0
   54.7360   26.3130   45.9570 O   0  0  0  0  0  0  0  0  0  0  0  0
   56.2030   24.9060   47.0990 N   0  0  0  0  0  0  0  0  0  0  0  0
   57.0450   23.4780   46.6060 S   0  0  0  0  0  0  0  0  0  0  0  0
   58.4240   23.8380   46.1300 O   0  0  0  0  0  0  0  0  0  0  0  0
   57.1430   22.5230   47.7630 O   0  0  0  0  0  0  0  0  0  0  0  0
   56.1300   22.6830   45.2930 C   0  0  0  0  0  0  0  0  0  0  0  0
   56.3183   21.5999   45.3310 H   0  0  0  0  0  0  0  0  0  0  0  0
   55.0612   22.8997   45.4366 H   0  0  0  0  0  0  0  0  0  0  0  0
   56.5460   23.2110   43.9230 C   0  0  0  0  0  0  0  0  0  0  0  0
   56.3666   24.2956   43.8836 H   0  0  0  0  0  0  0  0  0  0  0  0
   57.6139   22.9968   43.7691 H   0  0  0  0  0  0  0  0  0  0  0  0
   55.8180   22.5930   42.9230 F   0  0  0  0  0  0  0  0  0  0  0  0
   57.8320   27.6230   46.3670 C   0  0  0  0  0  0  0  0  0  0  0  0
   58.3398   27.1928   47.2429 H   0  0  0  0  0  0  0  0  0  0  0  0
   58.0910   29.0450   46.0580 C   0  0  0  0  0  0  0  0  0  0  0  0
   57.1430   29.8020   45.3550 C   0  0  0  0  0  0  0  0  0  0  0  0
   55.9350   29.2150   44.9600 O   0  0  0  0  0  0  0  0  0  0  0  0
   55.2610   29.5700   43.7580 C   0  0  0  0  0  0  0  0  0  0  0  0
   54.7508   30.5347   43.8956 H   0  0  0  0  0  0  0  0  0  0  0  0
   54.5213   28.7942   43.5111 H   0  0  0  0  0  0  0  0  0  0  0  0
   56.2670   29.6870   42.6250 C   0  0  0  0  0  0  0  0  0  0  0  0
   57.2778   29.8046   43.0428 H   0  0  0  0  0  0  0  0  0  0  0  0
   56.2295   28.7784   42.0060 H   0  0  0  0  0  0  0  0  0  0  0  0
   56.0220   30.5627   42.0060 H   0  0  0  0  0  0  0  0  0  0  0  0
   57.3980   31.1110   45.0710 N   0  0  0  0  0  0  0  0  0  0  0  0
   58.5550   31.7280   45.4270 C   0  0  0  0  0  0  0  0  0  0  0  0
   58.7020   32.9890   45.1260 N   0  0  0  0  0  0  0  0  0  0  0  0
   58.1920   34.1230   45.8470 C   0  0  0  0  0  0  0  0  0  0  0  0
   57.0630   34.5830   45.5390 O   0  0  0  0  0  0  0  0  0  0  0  0
   58.9460   34.7640   46.8850 N   0  0  0  0  0  0  0  0  0  0  0  0
   60.2480   34.3790   47.3470 C   0  0  0  0  0  0  0  0  0  0  0  0
   61.2360   34.0670   46.4040 C   0  0  0  0  0  0  0  0  0  0  0  0
   61.0036   34.1202   45.3301 H   0  0  0  0  0  0  0  0  0  0  0  0
   62.5170   33.6880   46.8210 C   0  0  0  0  0  0  0  0  0  0  0  0
   63.2921   33.4577   46.0752 H   0  0  0  0  0  0  0  0  0  0  0  0
   62.8120   33.6020   48.1840 C   0  0  0  0  0  0  0  0  0  0  0  0
   63.8211   33.3108   48.5110 H   0  0  0  0  0  0  0  0  0  0  0  0
   61.8250   33.8860   49.1320 C   0  0  0  0  0  0  0  0  0  0  0  0
   62.0560   33.8113   50.2049 H   0  0  0  0  0  0  0  0  0  0  0  0
   60.5440   34.2650   48.7180 C   0  0  0  0  0  0  0  0  0  0  0  0
   59.7655   34.4746   49.4663 H   0  0  0  0  0  0  0  0  0  0  0  0
   59.5320   30.9950   46.1280 C   0  0  0  0  0  0  0  0  0  0  0  0
   60.4689   31.4785   46.4419 H   0  0  0  0  0  0  0  0  0  0  0  0
   59.3020   29.6510   46.4210 C   0  0  0  0  0  0  0  0  0  0  0  0
   60.0743   29.0637   46.9393 H   0  0  0  0  0  0  0  0  0  0  0  0
  1  2  1  0
  2  3  1  0
  3  4  2  0
  3  5  1  0
  5  6  1  0
  6  7  2  0
  6  8  2  0
  6  9  1  0
  9 10  1  0
  9 11  1  0
  9 12  1  0
 12 13  1  0
 12 14  1  0
 12 15  1  0
  2 16  2  3
 16 17  1  0
 16 18  1  0
 18 19  2  0
 19 20  1  0
 20 21  1  0
 21 22  1  0
 21 23  1  0
 21 24  1  0
 24 25  1  0
 24 26  1  0
 24 27  1  0
 19 28  1  0
 28 29  1  0
 29 30  2  0
 30 31  1  0
 31 32  2  0
 31 33  1  0
 33 34  1  0
 34 35  2  0
 35 36  1  0
 35 37  1  0
 37 38  1  0
 37 39  2  0
 39 40  1  0
 39 41  1  0
 41 42  1  0
 41 43  2  0
 43 44  1  0
 29 45  1  0
 45 46  1  0
 45 47  2  0
 47 48  1  0
 47 18  1  0
 43 34  1  0
M  CHG  3   5  -1  28  -1  33  -1
M  END
>  <UniqueID>  (20) 
18

>  <SMILES>  (20) 
CCOc1[n-]/c(=N/C(=O)[N-]c2ccccc2)ccc1C=CC(=O)[N-]S(=O)(=O)CCF

>  <Energy>  (20) 
55.43972281283799

>  <Genealogy>  (20) 
CCOc1[n-]c(=NC(=O)[N-]c2ccccc2)ccc1C=CC(=O)[N-]S(=O)(=O)CCF (protonated)
CCOc1[n-]/c(=N/C(=O)[N-]c2ccccc2)ccc1C=CC(=O)[N-]S(=O)(=O)CCF (cis-trans isomerization)
CCOc1[n-]/c(=N/C(=O)[N-]c2ccccc2)ccc1C=CC(=O)[N-]S(=O)(=O)CCF (3D coordinates assigned)
CCOc1[n-]/c(=N/C(=O)[N-]c2ccccc2)ccc1C=CC(=O)[N-]S(=O)(=O)CCF (optimized conformer: 55.43972281283799 kcal/mol)

>  <smiles>  (20) 
CCOc1[nH]c(=NC(=O)Nc2ccccc2)ccc1C=CC(=O)NS(=O)(=O)CCF

>  <score_type>  (20) 
oracle

>  <origin>  (20) 
adg

>  <m_score__min__energy>  (20) 
-12.19

>  <m_primary>  (20) 
energy

$$$$
20:0
     RDKit          3D

 41 43  0  0  0  0  0  0  0  0999 V2000
   56.7690   27.5180   46.4440 O   0  0  0  0  0  0  0  0  0  0  0  0
   57.3160   26.9010   45.4900 C   0  0  0  0  0  0  0  0  0  0  0  0
   57.9410   27.6700   44.3710 C   0  0  0  0  0  0  0  0  0  0  0  0
   57.6150   29.1260   44.5000 C   0  0  0  0  0  0  0  0  0  0  0  0
   58.7610   30.3620   44.5490 S   0  0  0  0  0  0  0  0  0  0  0  0
   57.5920   31.5500   44.7740 C   0  0  0  0  0  0  0  0  0  0  0  0
   57.8430   32.7770   44.8860 O   0  0  0  0  0  0  0  0  0  0  0  0
   56.3420   31.0450   44.8300 N   0  0  0  0  0  0  0  0  0  0  0  0
   56.3510   29.6940   44.6850 C   0  0  0  0  0  0  0  0  0  0  0  0
   55.1670   28.9600   44.7270 O   0  0  0  0  0  0  0  0  0  0  0  0
   57.4290   25.4740   45.5120 N   0  0  0  0  0  0  0  0  0  0  0  0
   56.3390   24.5560   45.6710 C   0  0  0  0  0  0  0  0  0  0  0  0
   56.6170   23.1830   45.6870 C   0  0  0  0  0  0  0  0  0  0  0  0
   55.5860   22.2480   45.8380 C   0  0  0  0  0  0  0  0  0  0  0  0
   55.9690   20.5300   45.8890 S   0  0  0  0  0  0  0  0  0  0  0  0
   57.4330   20.3580   45.5940 O   0  0  0  0  0  0  0  0  0  0  0  0
   55.1690   19.7990   44.8450 O   0  0  0  0  0  0  0  0  0  0  0  0
   55.5940   19.9060   47.4830 N   0  0  0  0  0  0  0  0  0  0  0  0
   56.7770   19.2910   48.1260 C   0  0  0  0  0  0  0  0  0  0  0  0
   57.4460   20.2220   49.1520 C   0  0  0  0  0  0  0  0  0  0  0  0
   57.3240   21.5650   48.7460 O   0  0  0  0  0  0  0  0  0  0  0  0
   55.9720   21.9850   48.8380 C   0  0  0  0  0  0  0  0  0  0  0  0
   54.9600   20.9290   48.3330 C   0  0  0  0  0  0  0  0  0  0  0  0
   54.2610   22.6890   45.9490 C   0  0  0  0  0  0  0  0  0  0  0  0
   53.9710   24.0550   45.8990 C   0  0  0  0  0  0  0  0  0  0  0  0
   54.9990   24.9900   45.7460 C   0  0  0  0  0  0  0  0  0  0  0  0
   54.6760   26.3380   45.6360 O   0  0  0  0  0  0  0  0  0  0  0  0
   59.0325   27.5375   44.4040 H   0  0  0  0  0  0  0  0  0  0  0  0
   57.5467   27.2968   43.4143 H   0  0  0  0  0  0  0  0  0  0  0  0
   55.1410   27.9990   45.0440 H   0  0  0  0  0  0  0  0  0  0  0  0
   57.6554   22.8362   45.5799 H   0  0  0  0  0  0  0  0  0  0  0  0
   56.4602   18.3712   48.6395 H   0  0  0  0  0  0  0  0  0  0  0  0
   57.5138   19.0827   47.3362 H   0  0  0  0  0  0  0  0  0  0  0  0
   56.9597   20.0930   50.1302 H   0  0  0  0  0  0  0  0  0  0  0  0
   58.5133   19.9659   49.2250 H   0  0  0  0  0  0  0  0  0  0  0  0
   55.7474   22.2060   49.8919 H   0  0  0  0  0  0  0  0  0  0  0  0
   55.8642   22.8696   48.1931 H   0  0  0  0  0  0  0  0  0  0  0  0
   54.5036   20.4329   49.2022 H   0  0  0  0  0  0  0  0  0  0  0  0
   54.2060   21.4504   47.7251 H   0  0  0  0  0  0  0  0  0  0  0  0
   53.4479   21.9591   46.0757 H   0  0  0  0  0  0  0  0  0  0  0  0
   52.9285   24.3964   45.9804 H   0  0  0  0  0  0  0  0  0  0  0  0
  1  2  2  0
  2  3  1  0
  3  4  1  0
  4  5  1  0
  5  6  1  0
  6  7  2  0
  6  8  1  0
  8  9  1  0
  9 10  1  0
  2 11  1  0
 11 12  1  0
 12 13  2  0
 13 14  1  0
 14 15  1  0
 15 16  2  0
 15 17  2  0
 15 18  1  0
 18 19  1  0
 19 20  1  0
 20 21  1  0
 21 22  1  0
 22 23  1  0
 14 24  2  0
 24 25  1  0
 25 26  2  0
 26 27  1  0
  9  4  2  0
 26 12  1  0
 23 18  1  0
  3 28  1  0
  3 29  1  0
 10 30  1  0
 13 31  1  0
 19 32  1  0
 19 33  1  0
 20 34  1  0
 20 35  1  0
 22 36  1  0
 22 37  1  0
 23 38  1  0
 23 39  1  0
 24 40  1  0
 25 41  1  0
M  CHG  3   8  -1  11  -1  27  -1
M  END
>  <UniqueID>  (21) 
19

>  <SMILES>  (21) 
O=C(Cc1sc(=O)[n-]c1O)[N-]c1cc(S(=O)(=O)N2CCOCC2)ccc1[O-]

>  <Energy>  (21) 
86.93290788530915

>  <Genealogy>  (21) 
O=C(Cc1sc(=O)[n-]c1O)[N-]c1cc(S(=O)(=O)N2CCOCC2)ccc1[O-] (protonated)
O=C(Cc1sc(=O)[n-]c1O)[N-]c1cc(S(=O)(=O)N2CCOCC2)ccc1[O-] (3D coordinates assigned)
O=C(Cc1sc(=O)[n-]c1O)[N-]c1cc(S(=O)(=O)N2CCOCC2)ccc1[O-] (nonaromatic ring conformer: 86.93290788530915 kcal/mol)

>  <smiles>  (21) 
O=C(Cc1sc(=O)[nH]c1O)Nc1cc(S(=O)(=O)N2CCOCC2)ccc1O

>  <score_type>  (21) 
oracle

>  <origin>  (21) 
adg

>  <m_score__min__energy>  (21) 
-15.26

>  <m_primary>  (21) 
energy

$$$$
21:0
     RDKit          3D

 55 57  0  0  0  0  0  0  0  0999 V2000
   65.3360   32.4460   50.6340 C   0  0  0  0  0  0  0  0  0  0  0  0
   64.2520   32.7980   49.6480 C   0  0  0  0  0  0  0  0  0  0  0  0
   64.1220   32.0410   48.4730 C   0  0  0  0  0  0  0  0  0  0  0  0
   63.1250   32.3380   47.5420 C   0  0  0  0  0  0  0  0  0  0  0  0
   62.2360   33.4020   47.7630 C   0  0  0  0  0  0  0  0  0  0  0  0
   61.1720   33.7250   46.7800 C   0  0  0  0  0  0  0  0  0  0  0  0
   61.0580   34.9100   46.3660 O   0  0  0  0  0  0  0  0  0  0  0  0
   60.2870   32.7010   46.2900 N   0  0  0  0  0  0  0  0  0  0  0  0
   59.1100   32.9680   45.5070 C   0  0  0  0  0  0  0  0  0  0  0  0
   58.9280   34.1110   45.0050 O   0  0  0  0  0  0  0  0  0  0  0  0
   58.1080   31.9030   45.2630 C   0  0  0  0  0  0  0  0  0  0  0  0
   56.8530   32.2260   44.7190 C   0  0  0  0  0  0  0  0  0  0  0  0
   55.9040   31.2260   44.4900 C   0  0  0  0  0  0  0  0  0  0  0  0
   56.1920   29.8950   44.7970 C   0  0  0  0  0  0  0  0  0  0  0  0
   55.2250   28.9210   44.5710 O   0  0  0  0  0  0  0  0  0  0  0  0
   57.4440   29.5540   45.3390 C   0  0  0  0  0  0  0  0  0  0  0  0
   57.8310   27.8820   45.7560 S   0  0  0  0  0  0  0  0  0  0  0  0
   56.6040   27.2500   46.3520 O   0  0  0  0  0  0  0  0  0  0  0  0
   58.2290   27.1300   44.5150 O   0  0  0  0  0  0  0  0  0  0  0  0
   59.1460   27.8470   46.9100 N   0  0  0  0  0  0  0  0  0  0  0  0
   59.8730   26.5720   46.8330 C   0  0  0  0  0  0  0  0  0  0  0  0
   58.7130   28.1870   48.2830 C   0  0  0  0  0  0  0  0  0  0  0  0
   59.4790   29.3350   48.9120 C   0  0  0  0  0  0  0  0  0  0  0  0
   58.9100   30.6190   48.9740 C   0  0  0  0  0  0  0  0  0  0  0  0
   59.6130   31.6770   49.5570 C   0  0  0  0  0  0  0  0  0  0  0  0
   60.8850   31.4600   50.0940 C   0  0  0  0  0  0  0  0  0  0  0  0
   61.4510   30.1840   50.0550 C   0  0  0  0  0  0  0  0  0  0  0  0
   60.7510   29.1230   49.4720 C   0  0  0  0  0  0  0  0  0  0  0  0
   58.3860   30.5630   45.5880 C   0  0  0  0  0  0  0  0  0  0  0  0
   62.3500   34.1480   48.9480 C   0  0  0  0  0  0  0  0  0  0  0  0
   63.3460   33.8550   49.8970 C   0  0  0  0  0  0  0  0  0  0  0  0
   63.4430   34.6890   51.1470 C   0  0  0  0  0  0  0  0  0  0  0  0
   64.9544   32.5699   51.6582 H   0  0  0  0  0  0  0  0  0  0  0  0
   65.6450   31.4013   50.4817 H   0  0  0  0  0  0  0  0  0  0  0  0
   66.1998   33.1098   50.4817 H   0  0  0  0  0  0  0  0  0  0  0  0
   64.8124   31.2057   48.2840 H   0  0  0  0  0  0  0  0  0  0  0  0
   63.0352   31.7333   46.6275 H   0  0  0  0  0  0  0  0  0  0  0  0
   60.5450   31.7040   46.4620 H   0  0  0  0  0  0  0  0  0  0  0  0
   56.6165   33.2715   44.4722 H   0  0  0  0  0  0  0  0  0  0  0  0
   54.9241   31.4893   44.0652 H   0  0  0  0  0  0  0  0  0  0  0  0
   60.0813   26.2067   47.8495 H   0  0  0  0  0  0  0  0  0  0  0  0
   59.2607   25.8326   46.2960 H   0  0  0  0  0  0  0  0  0  0  0  0
   60.8211   26.7224   46.2960 H   0  0  0  0  0  0  0  0  0  0  0  0
   57.6479   28.4600   48.2508 H   0  0  0  0  0  0  0  0  0  0  0  0
   58.9080   27.3001   48.9038 H   0  0  0  0  0  0  0  0  0  0  0  0
   57.9052   30.7921   48.5611 H   0  0  0  0  0  0  0  0  0  0  0  0
   59.1650   32.6810   49.5932 H   0  0  0  0  0  0  0  0  0  0  0  0
   61.4403   32.2943   50.5474 H   0  0  0  0  0  0  0  0  0  0  0  0
   62.4495   30.0131   50.4837 H   0  0  0  0  0  0  0  0  0  0  0  0
   61.1977   28.1180   49.4515 H   0  0  0  0  0  0  0  0  0  0  0  0
   59.3534   30.3033   46.0427 H   0  0  0  0  0  0  0  0  0  0  0  0
   61.6491   34.9745   49.1367 H   0  0  0  0  0  0  0  0  0  0  0  0
   63.3672   34.0369   52.0296 H   0  0  0  0  0  0  0  0  0  0  0  0
   64.4085   35.2159   51.1622 H   0  0  0  0  0  0  0  0  0  0  0  0
   62.6242   35.4234   51.1622 H   0  0  0  0  0  0  0  0  0  0  0  0
  1  2  1  0
  2  3  2  0
  3  4  1  0
  4  5  2  0
  5  6  1  0
  6  7  2  0
  6  8  1  0
  8  9  1  0
  9 10  2  0
  9 11  1  0
 11 12  2  0
 12 13  1  0
 13 14  2  0
 14 15  1  0
 14 16  1  0
 16 17  1  0
 17 18  2  0
 17 19  2  0
 17 20  1  0
 20 21  1  0
 20 22  1  0
 22 23  1  0
 23 24  2  0
 24 25  1  0
 25 26  2  0
 26 27  1  0
 27 28  2  0
 16 29  2  0
  5 30  1  0
 30 31  2  0
 31 32  1  0
 31  2  1  0
 29 11  1  0
 28 23  1  0
  1 33  1  0
  1 34  1  0
  1 35  1  0
  3 36  1  0
  4 37  1  0
  8 38  1  0
 12 39  1  0
 13 40  1  0
 21 41  1  0
 21 42  1  0
 21 43  1  0
 22 44  1  0
 22 45  1  0
 24 46  1  0
 25 47  1  0
 26 48  1  0
 27 49  1  0
 28 50  1  0
 29 51  1  0
 30 52  1  0
 32 53  1  0
 32 54  1  0
 32 55  1  0
M  CHG  1  15  -1
M  END
>  <UniqueID>  (22) 
20

>  <SMILES>  (22) 
Cc1ccc(C(=O)NC(=O)c2ccc([O-])c(S(=O)(=O)N(C)Cc3ccccc3)c2)cc1C

>  <Energy>  (22) 
65.74559344381369

>  <Genealogy>  (22) 
Cc1ccc(C(=O)NC(=O)c2ccc([O-])c(S(=O)(=O)N(C)Cc3ccccc3)c2)cc1C (protonated)
Cc1ccc(C(=O)NC(=O)c2ccc([O-])c(S(=O)(=O)N(C)Cc3ccccc3)c2)cc1C (3D coordinates assigned)
Cc1ccc(C(=O)NC(=O)c2ccc([O-])c(S(=O)(=O)N(C)Cc3ccccc3)c2)cc1C (optimized conformer: 65.74559344381369 kcal/mol)

>  <smiles>  (22) 
Cc1ccc(C(=O)NC(=O)c2ccc(O)c(S(=O)(=O)N(C)Cc3ccccc3)c2)cc1C

>  <score_type>  (22) 
oracle

>  <origin>  (22) 
adg

>  <m_score__min__energy>  (22) 
-11.970000000000001

>  <m_primary>  (22) 
energy

$$$$
22:0
     RDKit          3D

 62 65  0  0  0  0  0  0  0  0999 V2000
   57.8000   30.3260   50.5530 O   0  0  0  0  0  0  0  0  0  0  0  0
   58.5450   30.9470   49.7510 C   0  0  0  0  0  0  0  0  0  0  0  0
   58.1960   32.3350   49.2790 C   0  0  0  0  0  0  0  0  0  0  0  0
   59.2020   32.8920   48.3590 N   0  0  0  0  0  0  0  0  0  0  0  0
   58.7290   32.9090   46.9960 C   0  0  0  0  0  0  0  0  0  0  0  0
   58.8040   34.0870   46.2300 C   0  0  0  0  0  0  0  0  0  0  0  0
   58.3420   34.0980   44.9080 C   0  0  0  0  0  0  0  0  0  0  0  0
   57.8140   32.9380   44.3350 C   0  0  0  0  0  0  0  0  0  0  0  0
   57.7440   31.7570   45.0830 C   0  0  0  0  0  0  0  0  0  0  0  0
   57.0710   30.2900   44.3850 S   0  0  0  0  0  0  0  0  0  0  0  0
   55.6560   30.0890   44.8700 O   0  0  0  0  0  0  0  0  0  0  0  0
   57.0620   30.4240   42.8870 O   0  0  0  0  0  0  0  0  0  0  0  0
   58.0590   28.9260   44.8580 N   0  0  0  0  0  0  0  0  0  0  0  0
   59.4930   29.1590   44.5170 C   0  0  0  0  0  0  0  0  0  0  0  0
   60.3350   29.5530   45.7420 C   0  0  0  0  0  0  0  0  0  0  0  0
   60.2790   28.4530   46.8240 C   0  0  0  0  0  0  0  0  0  0  0  0
   58.9190   27.7220   46.8670 C   0  0  0  0  0  0  0  0  0  0  0  0
   57.7970   28.5930   46.2770 C   0  0  0  0  0  0  0  0  0  0  0  0
   58.2030   31.7420   46.4070 C   0  0  0  0  0  0  0  0  0  0  0  0
   59.7220   30.3170   49.2400 N   0  0  0  0  0  0  0  0  0  0  0  0
   60.8160   29.8700   50.0540 C   0  0  0  0  0  0  0  0  0  0  0  0
   60.7000   28.6320   50.6940 C   0  0  0  0  0  0  0  0  0  0  0  0
   61.7380   28.1400   51.4930 C   0  0  0  0  0  0  0  0  0  0  0  0
   62.9110   28.8720   51.6440 C   0  0  0  0  0  0  0  0  0  0  0  0
   63.0550   30.0910   50.9860 C   0  0  0  0  0  0  0  0  0  0  0  0
   62.0160   30.6060   50.1820 C   0  0  0  0  0  0  0  0  0  0  0  0
   62.2590   31.7850   49.3870 N   0  0  0  0  0  0  0  0  0  0  0  0
   62.0370   33.0840   50.0360 C   0  0  0  0  0  0  0  0  0  0  0  0
   62.1170   34.2400   49.0420 C   0  0  0  0  0  0  0  0  0  0  0  0
   61.4810   33.8870   47.8300 O   0  0  0  0  0  0  0  0  0  0  0  0
   62.2970   32.9570   47.1510 C   0  0  0  0  0  0  0  0  0  0  0  0
   62.4470   31.6340   47.9320 C   0  0  0  0  0  0  0  0  0  0  0  0
   57.2270   32.2969   48.7597 H   0  0  0  0  0  0  0  0  0  0  0  0
   58.1578   32.9872   50.1640 H   0  0  0  0  0  0  0  0  0  0  0  0
   59.4900   33.8430   48.6790 H   0  0  0  0  0  0  0  0  0  0  0  0
   60.0580   32.2890   48.3940 H   0  0  0  0  0  0  0  0  0  0  0  0
   59.2267   35.0019   46.6708 H   0  0  0  0  0  0  0  0  0  0  0  0
   58.3950   35.0246   44.3176 H   0  0  0  0  0  0  0  0  0  0  0  0
   57.4533   32.9530   43.2959 H   0  0  0  0  0  0  0  0  0  0  0  0
   59.9075   28.2354   44.0867 H   0  0  0  0  0  0  0  0  0  0  0  0
   59.5343   29.9936   43.8016 H   0  0  0  0  0  0  0  0  0  0  0  0
   61.3796   29.6985   45.4296 H   0  0  0  0  0  0  0  0  0  0  0  0
   59.9280   30.4835   46.1645 H   0  0  0  0  0  0  0  0  0  0  0  0
   61.0678   27.7152   46.6158 H   0  0  0  0  0  0  0  0  0  0  0  0
   60.4228   28.9411   47.7992 H   0  0  0  0  0  0  0  0  0  0  0  0
   58.9938   26.7916   46.2850 H   0  0  0  0  0  0  0  0  0  0  0  0
   58.6744   27.5057   47.9174 H   0  0  0  0  0  0  0  0  0  0  0  0
   56.8454   28.0455   46.3460 H   0  0  0  0  0  0  0  0  0  0  0  0
   57.7508   29.5313   46.8493 H   0  0  0  0  0  0  0  0  0  0  0  0
   58.1522   30.8114   46.9913 H   0  0  0  0  0  0  0  0  0  0  0  0
   59.7825   28.0384   50.5679 H   0  0  0  0  0  0  0  0  0  0  0  0
   61.6260   27.1718   52.0030 H   0  0  0  0  0  0  0  0  0  0  0  0
   63.7222   28.4894   52.2809 H   0  0  0  0  0  0  0  0  0  0  0  0
   63.9905   30.6595   51.0944 H   0  0  0  0  0  0  0  0  0  0  0  0
   61.0399   33.0833   50.5006 H   0  0  0  0  0  0  0  0  0  0  0  0
   62.8261   33.2274   50.7888 H   0  0  0  0  0  0  0  0  0  0  0  0
   61.6188   35.1224   49.4701 H   0  0  0  0  0  0  0  0  0  0  0  0
   63.1742   34.4666   48.8396 H   0  0  0  0  0  0  0  0  0  0  0  0
   61.8475   32.7407   46.1706 H   0  0  0  0  0  0  0  0  0  0  0  0
   63.2976   33.4010   47.0432 H   0  0  0  0  0  0  0  0  0  0  0  0
   61.6982   30.9211   47.5563 H   0  0  0  0  0  0  0  0  0  0  0  0
   63.4764   31.2799   47.7739 H   0  0  0  0  0  0  0  0  0  0  0  0
  1  2  2  0
  2  3  1  0
  3  4  1  0
  4  5  1  0
  5  6  2  0
  6  7  1  0
  7  8  2  0
  8  9  1  0
  9 10  1  0
 10 11  2  0
 10 12  2  0
 10 13  1  0
 13 14  1  0
 14 15  1  0
 15 16  1  0
 16 17  1  0
 17 18  1  0
  9 19  2  0
  2 20  1  0
 20 21  1  0
 21 22  2  0
 22 23  1  0
 23 24  2  0
 24 25  1  0
 25 26  2  0
 26 27  1  0
 27 28  1  0
 28 29  1  0
 29 30  1  0
 30 31  1  0
 31 32  1  0
 19  5  1  0
 26 21  1  0
 32 27  1  0
 18 13  1  0
  3 33  1  0
  3 34  1  0
  4 35  1  0
  4 36  1  0
  6 37  1  0
  7 38  1  0
  8 39  1  0
 14 40  1  0
 14 41  1  0
 15 42  1  0
 15 43  1  0
 16 44  1  0
 16 45  1  0
 17 46  1  0
 17 47  1  0
 18 48  1  0
 18 49  1  0
 19 50  1  0
 22 51  1  0
 23 52  1  0
 24 53  1  0
 25 54  1  0
 28 55  1  0
 28 56  1  0
 29 57  1  0
 29 58  1  0
 31 59  1  0
 31 60  1  0
 32 61  1  0
 32 62  1  0
M  CHG  2   4   1  20  -1
M  END
>  <UniqueID>  (23) 
21

>  <SMILES>  (23) 
O=C(C[NH2+]c1cccc(S(=O)(=O)N2CCCCC2)c1)[N-]c1ccccc1N1CCOCC1

>  <Energy>  (23) 
87.40567822045946

>  <Genealogy>  (23) 
O=C(C[NH2+]c1cccc(S(=O)(=O)N2CCCCC2)c1)[N-]c1ccccc1N1CCOCC1 (protonated)
O=C(C[NH2+]c1cccc(S(=O)(=O)N2CCCCC2)c1)[N-]c1ccccc1N1CCOCC1 (3D coordinates assigned)
O=C(C[NH2+]c1cccc(S(=O)(=O)N2CCCCC2)c1)[N-]c1ccccc1N1CCOCC1 (nonaromatic ring conformer: 87.40567822045946 kcal/mol)

>  <smiles>  (23) 
O=C(CNc1cccc(S(=O)(=O)N2CCCCC2)c1)Nc1ccccc1N1CCOCC1

>  <score_type>  (23) 
oracle

>  <origin>  (23) 
adg

>  <m_score__min__energy>  (23) 
-9.9800000000000004

>  <m_primary>  (23) 
energy

$$$$
23:0
     RDKit          3D

 31 32  0  0  0  0  0  0  0  0999 V2000
   55.1410   29.3440   44.6720 N   0  0  0  0  0  0  0  0  0  0  0  0
   56.6130   30.1680   44.2970 S   0  0  0  0  0  0  0  0  0  0  0  0
   56.7590   30.2860   42.8060 O   0  0  0  0  0  0  0  0  0  0  0  0
   56.5800   31.5480   44.8900 O   0  0  0  0  0  0  0  0  0  0  0  0
   57.9720   29.2630   44.9530 C   0  0  0  0  0  0  0  0  0  0  0  0
   59.2660   29.4690   44.4590 C   0  0  0  0  0  0  0  0  0  0  0  0
   60.3420   28.7540   44.9900 C   0  0  0  0  0  0  0  0  0  0  0  0
   60.1320   27.8260   46.0130 C   0  0  0  0  0  0  0  0  0  0  0  0
   58.8370   27.6010   46.5130 C   0  0  0  0  0  0  0  0  0  0  0  0
   58.6210   26.6050   47.5920 C   0  0  0  0  0  0  0  0  0  0  0  0
   59.4070   26.5820   48.5760 O   0  0  0  0  0  0  0  0  0  0  0  0
   57.5160   25.6910   47.5760 N   0  0  0  0  0  0  0  0  0  0  0  0
   57.0660   24.9260   46.4480 C   0  0  0  0  0  0  0  0  0  0  0  0
   57.8320   23.8320   46.0320 C   0  0  0  0  0  0  0  0  0  0  0  0
   57.4190   23.0460   44.9530 C   0  0  0  0  0  0  0  0  0  0  0  0
   56.2380   23.3530   44.2570 C   0  0  0  0  0  0  0  0  0  0  0  0
   55.8120   22.5370   43.1510 N   0  0  0  0  0  0  0  0  0  0  0  0
   56.2930   21.3970   42.9790 O   0  0  0  0  0  0  0  0  0  0  0  0
   54.8720   23.0010   42.2600 O   0  0  0  0  0  0  0  0  0  0  0  0
   55.4870   24.4740   44.6540 C   0  0  0  0  0  0  0  0  0  0  0  0
   55.9020   25.2650   45.7320 C   0  0  0  0  0  0  0  0  0  0  0  0
   55.1640   26.3960   46.0610 O   0  0  0  0  0  0  0  0  0  0  0  0
   57.7640   28.3440   45.9900 C   0  0  0  0  0  0  0  0  0  0  0  0
   55.2800   28.8780   45.5970 H   0  0  0  0  0  0  0  0  0  0  0  0
   59.4355   30.1957   43.6508 H   0  0  0  0  0  0  0  0  0  0  0  0
   61.3574   28.9220   44.6017 H   0  0  0  0  0  0  0  0  0  0  0  0
   60.9839   27.2685   46.4295 H   0  0  0  0  0  0  0  0  0  0  0  0
   58.7667   23.5885   46.5583 H   0  0  0  0  0  0  0  0  0  0  0  0
   58.0236   22.1798   44.6461 H   0  0  0  0  0  0  0  0  0  0  0  0
   54.5649   24.7316   44.1124 H   0  0  0  0  0  0  0  0  0  0  0  0
   56.7525   28.2026   46.3985 H   0  0  0  0  0  0  0  0  0  0  0  0
  1  2  1  0
  2  3  2  0
  2  4  2  0
  2  5  1  0
  5  6  2  0
  6  7  1  0
  7  8  2  0
  8  9  1  0
  9 10  1  0
 10 11  2  0
 10 12  1  0
 12 13  1  0
 13 14  2  0
 14 15  1  0
 15 16  2  0
 16 17  1  0
 17 18  2  0
 17 19  1  0
 16 20  1  0
 20 21  2  0
 21 22  1  0
  9 23  2  0
 23  5  1  0
 21 13  1  0
  1 24  1  0
  6 25  1  0
  7 26  1  0
  8 27  1  0
 14 28  1  0
 15 29  1  0
 20 30  1  0
 23 31  1  0
M  CHG  5   1  -1  12  -1  17   1  19  -1  22  -1
M  END
>  <UniqueID>  (24) 
22

>  <SMILES>  (24) 
[NH-]S(=O)(=O)c1cccc(C(=O)[N-]c2ccc([N+](=O)[O-])cc2[O-])c1

>  <Energy>  (24) 
41.1421488668906

>  <Genealogy>  (24) 
[NH-]S(=O)(=O)c1cccc(C(=O)[N-]c2ccc([N+](=O)[O-])cc2[O-])c1 (protonated)
[NH-]S(=O)(=O)c1cccc(C(=O)[N-]c2ccc([N+](=O)[O-])cc2[O-])c1 (3D coordinates assigned)
[NH-]S(=O)(=O)c1cccc(C(=O)[N-]c2ccc([N+](=O)[O-])cc2[O-])c1 (optimized conformer: 41.1421488668906 kcal/mol)

>  <smiles>  (24) 
NS(=O)(=O)c1cccc(C(=O)Nc2ccc([N+](=O)[O-])cc2O)c1

>  <score_type>  (24) 
oracle

>  <origin>  (24) 
adg

>  <m_score__min__energy>  (24) 
-15.859999999999999

>  <m_primary>  (24) 
energy

$$$$
24:0
     RDKit          3D

 56 60  0  0  0  0  0  0  0  0999 V2000
   56.6950   24.6350   47.6420 C   0  0  0  0  0  0  0  0  0  0  0  0
   56.6930   24.0000   46.2820 C   0  0  0  0  0  0  0  0  0  0  0  0
   56.3800   22.6690   46.1850 N   0  0  0  0  0  0  0  0  0  0  0  0
   56.3640   22.0820   44.9640 C   0  0  0  0  0  0  0  0  0  0  0  0
   56.6510   22.7550   43.8230 C   0  0  0  0  0  0  0  0  0  0  0  0
   56.5550   21.8180   42.8140 C   0  0  0  0  0  0  0  0  0  0  0  0
   56.2220   20.6240   43.3690 N   0  0  0  0  0  0  0  0  0  0  0  0
   56.0970   20.7970   44.6810 N   0  0  0  0  0  0  0  0  0  0  0  0
   55.8170   19.7240   45.6310 C   0  0  0  0  0  0  0  0  0  0  0  0
   54.9410   20.2390   46.7400 C   0  0  0  0  0  0  0  0  0  0  0  0
   55.4280   20.2920   48.0560 C   0  0  0  0  0  0  0  0  0  0  0  0
   54.6290   20.8090   49.0820 C   0  0  0  0  0  0  0  0  0  0  0  0
   53.3460   21.2830   48.7980 C   0  0  0  0  0  0  0  0  0  0  0  0
   52.8600   21.2470   47.4880 C   0  0  0  0  0  0  0  0  0  0  0  0
   53.6550   20.7310   46.4600 C   0  0  0  0  0  0  0  0  0  0  0  0
   56.9840   24.1040   43.8460 C   0  0  0  0  0  0  0  0  0  0  0  0
   57.2570   24.7200   42.7810 O   0  0  0  0  0  0  0  0  0  0  0  0
   57.0130   24.7490   45.1060 C   0  0  0  0  0  0  0  0  0  0  0  0
   57.3680   26.1820   45.1880 C   0  0  0  0  0  0  0  0  0  0  0  0
   58.6580   26.5990   44.8330 C   0  0  0  0  0  0  0  0  0  0  0  0
   59.0070   27.9490   44.9040 C   0  0  0  0  0  0  0  0  0  0  0  0
   58.0770   28.9060   45.3390 C   0  0  0  0  0  0  0  0  0  0  0  0
   58.4720   30.2890   45.4050 N   0  0  0  0  0  0  0  0  0  0  0  0
   59.0920   30.9180   46.5730 C   0  0  0  0  0  0  0  0  0  0  0  0
   59.1480   32.4180   46.4080 C   0  0  0  0  0  0  0  0  0  0  0  0
   60.2380   33.1430   46.9190 C   0  0  0  0  0  0  0  0  0  0  0  0
   60.3000   34.5300   46.7640 C   0  0  0  0  0  0  0  0  0  0  0  0
   59.2750   35.2070   46.1030 C   0  0  0  0  0  0  0  0  0  0  0  0
   58.1800   34.5010   45.6010 C   0  0  0  0  0  0  0  0  0  0  0  0
   58.1080   33.1070   45.7510 C   0  0  0  0  0  0  0  0  0  0  0  0
   57.0070   32.4100   45.2530 O   0  0  0  0  0  0  0  0  0  0  0  0
   56.7810   28.4850   45.6920 C   0  0  0  0  0  0  0  0  0  0  0  0
   56.4290   27.1320   45.6230 C   0  0  0  0  0  0  0  0  0  0  0  0
   55.1490   26.7390   45.9960 O   0  0  0  0  0  0  0  0  0  0  0  0
   56.6925   23.8504   48.4130 H   0  0  0  0  0  0  0  0  0  0  0  0
   57.5951   25.2571   47.7549 H   0  0  0  0  0  0  0  0  0  0  0  0
   55.7988   25.2628   47.7549 H   0  0  0  0  0  0  0  0  0  0  0  0
   56.7201   22.0063   41.7429 H   0  0  0  0  0  0  0  0  0  0  0  0
   55.3028   18.9018   45.1117 H   0  0  0  0  0  0  0  0  0  0  0  0
   56.7639   19.3601   46.0563 H   0  0  0  0  0  0  0  0  0  0  0  0
   56.4406   19.9260   48.2811 H   0  0  0  0  0  0  0  0  0  0  0  0
   55.0115   20.8422   50.1128 H   0  0  0  0  0  0  0  0  0  0  0  0
   52.7175   21.6850   49.6063 H   0  0  0  0  0  0  0  0  0  0  0  0
   51.8512   21.6249   47.2656 H   0  0  0  0  0  0  0  0  0  0  0  0
   53.2725   20.7102   45.4289 H   0  0  0  0  0  0  0  0  0  0  0  0
   59.3992   25.8591   44.4968 H   0  0  0  0  0  0  0  0  0  0  0  0
   60.0204   28.2656   44.6163 H   0  0  0  0  0  0  0  0  0  0  0  0
   58.3710   30.8770   44.5460 H   0  0  0  0  0  0  0  0  0  0  0  0
   58.5017   30.6756   47.4690 H   0  0  0  0  0  0  0  0  0  0  0  0
   60.1185   30.5361   46.6757 H   0  0  0  0  0  0  0  0  0  0  0  0
   61.0475   32.6151   47.4443 H   0  0  0  0  0  0  0  0  0  0  0  0
   61.1586   35.0893   47.1639 H   0  0  0  0  0  0  0  0  0  0  0  0
   59.3295   36.2984   45.9771 H   0  0  0  0  0  0  0  0  0  0  0  0
   57.3706   35.0391   45.0860 H   0  0  0  0  0  0  0  0  0  0  0  0
   56.6390   31.5920   45.7250 H   0  0  0  0  0  0  0  0  0  0  0  0
   56.0387   29.2254   46.0248 H   0  0  0  0  0  0  0  0  0  0  0  0
  1  2  1  0
  2  3  1  0
  3  4  1  0
  4  5  2  0
  5  6  1  0
  6  7  2  0
  7  8  1  0
  8  9  1  0
  9 10  1  0
 10 11  2  0
 11 12  1  0
 12 13  2  0
 13 14  1  0
 14 15  2  0
  5 16  1  0
 16 17  2  0
 16 18  1  0
 18 19  1  0
 19 20  2  0
 20 21  1  0
 21 22  2  0
 22 23  1  0
 23 24  1  0
 24 25  1  0
 25 26  2  0
 26 27  1  0
 27 28  2  0
 28 29  1  0
 29 30  2  0
 30 31  1  0
 22 32  1  0
 32 33  2  0
 33 34  1  0
 18  2  2  0
 33 19  1  0
  8  4  1  0
 15 10  1  0
 30 25  1  0
  1 35  1  0
  1 36  1  0
  1 37  1  0
  6 38  1  0
  9 39  1  0
  9 40  1  0
 11 41  1  0
 12 42  1  0
 13 43  1  0
 14 44  1  0
 15 45  1  0
 20 46  1  0
 21 47  1  0
 23 48  1  0
 24 49  1  0
 24 50  1  0
 26 51  1  0
 27 52  1  0
 28 53  1  0
 29 54  1  0
 31 55  1  0
 32 56  1  0
M  CHG  2   3  -1  34  -1
M  END
>  <UniqueID>  (25) 
23

>  <SMILES>  (25) 
Cc1[n-]c2c(cnn2Cc2ccccc2)c(=O)c1-c1ccc(NCc2ccccc2O)cc1[O-]

>  <Energy>  (25) 
109.79203807354877

>  <Genealogy>  (25) 
Cc1[n-]c2c(cnn2Cc2ccccc2)c(=O)c1-c1ccc(NCc2ccccc2O)cc1[O-] (protonated)
Cc1[n-]c2c(cnn2Cc2ccccc2)c(=O)c1-c1ccc(NCc2ccccc2O)cc1[O-] (3D coordinates assigned)
Cc1[n-]c2c(cnn2Cc2ccccc2)c(=O)c1-c1ccc(NCc2ccccc2O)cc1[O-] (optimized conformer: 109.79203807354877 kcal/mol)

>  <smiles>  (25) 
Cc1[nH]c2c(cnn2Cc2ccccc2)c(=O)c1-c1ccc(NCc2ccccc2O)cc1O

>  <score_type>  (25) 
oracle

>  <origin>  (25) 
adg

>  <m_score__min__energy>  (25) 
-14.18

>  <m_primary>  (25) 
energy

$$$$
25:0
     RDKit          3D

 42 44  0  0  0  0  0  0  0  0999 V2000
   56.3740   28.8080   52.2040 O   0  0  0  0  0  0  0  0  0  0  0  0
   56.2750   29.9400   52.7500 C   0  0  0  0  0  0  0  0  0  0  0  0
   55.2190   30.1680   53.7870 C   0  0  0  0  0  0  0  0  0  0  0  0
   54.0020   30.7680   53.1510 C   0  0  0  0  0  0  0  0  0  0  0  0
   52.7870   30.8330   53.8500 C   0  0  0  0  0  0  0  0  0  0  0  0
   51.6610   31.3630   53.2170 C   0  0  0  0  0  0  0  0  0  0  0  0
   51.7520   31.8130   51.8980 C   0  0  0  0  0  0  0  0  0  0  0  0
   50.6380   32.3420   51.2580 O   0  0  0  0  0  0  0  0  0  0  0  0
   52.9750   31.7240   51.2280 C   0  0  0  0  0  0  0  0  0  0  0  0
   54.0610   31.2050   51.8620 N   0  0  0  0  0  0  0  0  0  0  0  0
   57.1690   31.0070   52.3920 N   0  0  0  0  0  0  0  0  0  0  0  0
   58.0200   30.9910   51.2340 C   0  0  0  0  0  0  0  0  0  0  0  0
   58.6170   29.8010   50.7790 C   0  0  0  0  0  0  0  0  0  0  0  0
   59.4180   29.8060   49.6330 C   0  0  0  0  0  0  0  0  0  0  0  0
   59.6310   30.9970   48.9220 C   0  0  0  0  0  0  0  0  0  0  0  0
   60.4580   30.9930   47.6650 C   0  0  0  0  0  0  0  0  0  0  0  0
   59.7930   30.1560   46.6070 C   0  0  0  0  0  0  0  0  0  0  0  0
   60.5380   29.2310   45.8640 C   0  0  0  0  0  0  0  0  0  0  0  0
   59.9100   28.4910   44.8610 C   0  0  0  0  0  0  0  0  0  0  0  0
   58.5890   28.6750   44.6020 N   0  0  0  0  0  0  0  0  0  0  0  0
   57.8360   29.5720   45.2950 C   0  0  0  0  0  0  0  0  0  0  0  0
   56.4090   29.7270   44.9600 C   0  0  0  0  0  0  0  0  0  0  0  0
   55.9670   30.8150   44.5070 O   0  0  0  0  0  0  0  0  0  0  0  0
   55.5370   28.6620   45.1430 O   0  0  0  0  0  0  0  0  0  0  0  0
   58.4330   30.3340   46.3130 C   0  0  0  0  0  0  0  0  0  0  0  0
   59.0070   32.1760   49.3560 C   0  0  0  0  0  0  0  0  0  0  0  0
   58.2060   32.1710   50.5010 C   0  0  0  0  0  0  0  0  0  0  0  0
   54.9516   29.2080   54.2527 H   0  0  0  0  0  0  0  0  0  0  0  0
   55.6053   30.8573   54.5523 H   0  0  0  0  0  0  0  0  0  0  0  0
   52.7223   30.4700   54.8864 H   0  0  0  0  0  0  0  0  0  0  0  0
   50.7042   31.4260   53.7561 H   0  0  0  0  0  0  0  0  0  0  0  0
   53.0596   32.0734   50.1884 H   0  0  0  0  0  0  0  0  0  0  0  0
   57.2480   31.8160   53.0490 H   0  0  0  0  0  0  0  0  0  0  0  0
   58.4527   28.8619   51.3277 H   0  0  0  0  0  0  0  0  0  0  0  0
   59.8837   28.8715   49.2869 H   0  0  0  0  0  0  0  0  0  0  0  0
   60.5655   32.0243   47.2978 H   0  0  0  0  0  0  0  0  0  0  0  0
   61.4478   30.5682   47.8885 H   0  0  0  0  0  0  0  0  0  0  0  0
   61.6093   29.0891   46.0695 H   0  0  0  0  0  0  0  0  0  0  0  0
   60.4861   27.7569   44.2786 H   0  0  0  0  0  0  0  0  0  0  0  0
   57.8369   31.0667   46.8768 H   0  0  0  0  0  0  0  0  0  0  0  0
   59.1490   33.1096   48.7919 H   0  0  0  0  0  0  0  0  0  0  0  0
   57.7177   33.1003   50.8295 H   0  0  0  0  0  0  0  0  0  0  0  0
  1  2  2  0
  2  3  1  0
  3  4  1  0
  4  5  2  0
  5  6  1  0
  6  7  2  0
  7  8  1  0
  7  9  1  0
  9 10  2  0
  2 11  1  0
 11 12  1  0
 12 13  2  0
 13 14  1  0
 14 15  2  0
 15 16  1  0
 16 17  1  0
 17 18  2  0
 18 19  1  0
 19 20  2  0
 20 21  1  0
 21 22  1  0
 22 23  2  0
 22 24  1  0
 21 25  2  0
 15 26  1  0
 26 27  2  0
 10  4  1  0
 27 12  1  0
 25 17  1  0
  3 28  1  0
  3 29  1  0
  5 30  1  0
  6 31  1  0
  9 32  1  0
 11 33  1  0
 13 34  1  0
 14 35  1  0
 16 36  1  0
 16 37  1  0
 18 38  1  0
 19 39  1  0
 25 40  1  0
 26 41  1  0
 27 42  1  0
M  CHG  2   8  -1  24  -1
M  END
>  <UniqueID>  (26) 
24

>  <SMILES>  (26) 
O=C(Cc1ccc([O-])cn1)Nc1ccc(Cc2ccnc(C(=O)[O-])c2)cc1

>  <Energy>  (26) 
45.355642092063725

>  <Genealogy>  (26) 
O=C(Cc1ccc([O-])cn1)Nc1ccc(Cc2ccnc(C(=O)[O-])c2)cc1 (protonated)
O=C(Cc1ccc([O-])cn1)Nc1ccc(Cc2ccnc(C(=O)[O-])c2)cc1 (3D coordinates assigned)
O=C(Cc1ccc([O-])cn1)Nc1ccc(Cc2ccnc(C(=O)[O-])c2)cc1 (optimized conformer: 45.355642092063725 kcal/mol)

>  <smiles>  (26) 
O=C(Cc1ccc(O)cn1)Nc1ccc(Cc2ccnc(C(=O)O)c2)cc1

>  <score_type>  (26) 
oracle

>  <origin>  (26) 
adg

>  <m_score__min__energy>  (26) 
-14.640000000000001

>  <m_primary>  (26) 
energy

$$$$
26:0
     RDKit          3D

 51 55  0  0  0  0  0  0  0  0999 V2000
   56.6884   33.5056   43.7171 H   0  0  0  0  0  0  0  0  0  0  0  0
   57.3690   33.0780   44.4680 C   0  0  0  0  0  0  0  0  0  0  0  0
   58.0730   33.8970   45.2920 N   0  0  0  0  0  0  0  0  0  0  0  0
   58.9380   33.4010   46.2190 C   0  0  0  0  0  0  0  0  0  0  0  0
   59.5920   34.1870   47.0250 N   0  0  0  0  0  0  0  0  0  0  0  0
   60.9450   34.0240   47.4830 C   0  0  0  0  0  0  0  0  0  0  0  0
   61.9990   33.7120   46.6030 C   0  0  0  0  0  0  0  0  0  0  0  0
   61.8025   33.6142   45.5251 H   0  0  0  0  0  0  0  0  0  0  0  0
   63.2950   33.5260   47.0950 C   0  0  0  0  0  0  0  0  0  0  0  0
   64.1181   33.2983   46.4017 H   0  0  0  0  0  0  0  0  0  0  0  0
   63.5460   33.6290   48.4660 C   0  0  0  0  0  0  0  0  0  0  0  0
   64.5673   33.4905   48.8504 H   0  0  0  0  0  0  0  0  0  0  0  0
   62.4990   33.9080   49.3480 C   0  0  0  0  0  0  0  0  0  0  0  0
   62.6950   33.9814   50.4279 H   0  0  0  0  0  0  0  0  0  0  0  0
   61.2020   34.0940   48.8590 C   0  0  0  0  0  0  0  0  0  0  0  0
   60.3780   34.2966   49.5590 H   0  0  0  0  0  0  0  0  0  0  0  0
   59.0950   32.0550   46.3390 N   0  0  0  0  0  0  0  0  0  0  0  0
   58.4130   31.2000   45.5350 C   0  0  0  0  0  0  0  0  0  0  0  0
   57.5100   31.6920   44.5750 C   0  0  0  0  0  0  0  0  0  0  0  0
   56.8160   30.7520   43.5980 C   0  0  0  0  0  0  0  0  0  0  0  0
   57.4397   30.6660   42.6960 H   0  0  0  0  0  0  0  0  0  0  0  0
   55.8268   31.1830   43.3840 H   0  0  0  0  0  0  0  0  0  0  0  0
   56.5780   29.3300   44.1660 C   0  0  0  0  0  0  0  0  0  0  0  0
   56.4346   28.6278   43.3315 H   0  0  0  0  0  0  0  0  0  0  0  0
   55.6840   29.3515   44.8066 H   0  0  0  0  0  0  0  0  0  0  0  0
   57.7490   28.8820   44.9900 C   0  0  0  0  0  0  0  0  0  0  0  0
   58.5550   29.7530   45.6710 C   0  0  0  0  0  0  0  0  0  0  0  0
   59.3630   29.0910   46.5200 N   0  0  0  0  0  0  0  0  0  0  0  0
   59.0830   27.8010   46.3840 N   0  0  0  0  0  0  0  0  0  0  0  0
   59.6950   26.7610   47.2040 C   0  0  0  0  0  0  0  0  0  0  0  0
   59.5532   27.0020   48.2679 H   0  0  0  0  0  0  0  0  0  0  0  0
   59.2226   25.7929   46.9812 H   0  0  0  0  0  0  0  0  0  0  0  0
   60.7707   26.7039   46.9812 H   0  0  0  0  0  0  0  0  0  0  0  0
   58.0920   27.6340   45.4740 C   0  0  0  0  0  0  0  0  0  0  0  0
   57.3790   26.3400   45.1850 C   0  0  0  0  0  0  0  0  0  0  0  0
   56.9865   26.3725   44.1579 H   0  0  0  0  0  0  0  0  0  0  0  0
   58.1008   25.5193   45.3095 H   0  0  0  0  0  0  0  0  0  0  0  0
   56.2330   26.1010   46.1370 C   0  0  0  0  0  0  0  0  0  0  0  0
   55.1450   26.7170   45.9750 O   0  0  0  0  0  0  0  0  0  0  0  0
   56.2850   25.0580   47.1190 N   0  0  0  0  0  0  0  0  0  0  0  0
   55.6010   23.8010   47.0560 C   0  0  0  0  0  0  0  0  0  0  0  0
   55.9390   22.7420   47.9150 C   0  0  0  0  0  0  0  0  0  0  0  0
   56.7648   22.8602   48.6320 H   0  0  0  0  0  0  0  0  0  0  0  0
   55.2300   21.5390   47.8620 C   0  0  0  0  0  0  0  0  0  0  0  0
   55.5093   20.7069   48.5250 H   0  0  0  0  0  0  0  0  0  0  0  0
   54.1660   21.3920   46.9670 C   0  0  0  0  0  0  0  0  0  0  0  0
   53.6155   20.4409   46.9180 H   0  0  0  0  0  0  0  0  0  0  0  0
   53.8020   22.4550   46.1340 C   0  0  0  0  0  0  0  0  0  0  0  0
   52.7350   22.3150   45.2550 O   0  0  0  0  0  0  0  0  0  0  0  0
   54.5130   23.6600   46.1860 C   0  0  0  0  0  0  0  0  0  0  0  0
   54.2156   24.4996   45.5406 H   0  0  0  0  0  0  0  0  0  0  0  0
  1  2  1  0
  2  3  2  0
  3  4  1  0
  4  5  2  0
  5  6  1  0
  6  7  2  0
  7  8  1  0
  7  9  1  0
  9 10  1  0
  9 11  2  0
 11 12  1  0
 11 13  1  0
 13 14  1  0
 13 15  2  0
 15 16  1  0
  4 17  1  0
 17 18  1  0
 18 19  2  0
 19 20  1  0
 20 21  1  0
 20 22  1  0
 20 23  1  0
 23 24  1  0
 23 25  1  0
 23 26  1  0
 26 27  1  0
 27 28  2  0
 28 29  1  0
 29 30  1  0
 30 31  1  0
 30 32  1  0
 30 33  1  0
 29 34  1  0
 34 35  1  0
 35 36  1  0
 35 37  1  0
 35 38  1  0
 38 39  2  0
 38 40  1  0
 40 41  1  0
 41 42  2  0
 42 43  1  0
 42 44  1  0
 44 45  1  0
 44 46  2  0
 46 47  1  0
 46 48  1  0
 48 49  1  0
 48 50  2  0
 50 51  1  0
 19  2  1  0
 34 26  2  0
 50 41  1  0
 15  6  1  0
 27 18  1  0
M  CHG  3  17  -1  40  -1  49  -1
M  END
>  <UniqueID>  (27) 
25

>  <SMILES>  (27) 
Cn1nc2c(c1CC(=O)[N-]c1cccc([O-])c1)CCc1cn/c(=N\c3ccccc3)[n-]c1-2

>  <Energy>  (27) 
104.45157307030148

>  <Genealogy>  (27) 
Cn1nc2c(c1CC(=O)[N-]c1cccc([O-])c1)CCc1cnc(=Nc3ccccc3)[n-]c1-2 (protonated)
Cn1nc2c(c1CC(=O)[N-]c1cccc([O-])c1)CCc1cn/c(=N\c3ccccc3)[n-]c1-2 (cis-trans isomerization)
Cn1nc2c(c1CC(=O)[N-]c1cccc([O-])c1)CCc1cn/c(=N\c3ccccc3)[n-]c1-2 (3D coordinates assigned)
Cn1nc2c(c1CC(=O)[N-]c1cccc([O-])c1)CCc1cn/c(=N\c3ccccc3)[n-]c1-2 (nonaromatic ring conformer: 104.45157307030148 kcal/mol)

>  <smiles>  (27) 
Cn1nc2c(c1CC(=O)Nc1cccc(O)c1)CCc1cnc(=Nc3ccccc3)[nH]c1-2

>  <score_type>  (27) 
oracle

>  <origin>  (27) 
adg

>  <m_score__min__energy>  (27) 
-14.9

>  <m_primary>  (27) 
energy

$$$$
27:0
     RDKit          3D

 37 37  0  0  0  0  0  0  0  0999 V2000
   57.7650   26.3460   42.6670 C   0  0  0  0  0  0  0  0  0  0  0  0
   57.5130   25.1800   43.6180 C   0  0  0  0  0  0  0  0  0  0  0  0
   56.6650   24.0920   42.9470 C   0  0  0  0  0  0  0  0  0  0  0  0
   56.0000   23.1880   43.9900 C   0  0  0  0  0  0  0  0  0  0  0  0
   56.2230   21.8270   43.6720 O   0  0  0  0  0  0  0  0  0  0  0  0
   57.4100   21.3430   44.2730 C   0  0  0  0  0  0  0  0  0  0  0  0
   57.8720   22.2940   45.3750 C   0  0  0  0  0  0  0  0  0  0  0  0
   57.2210   21.9580   46.5960 O   0  0  0  0  0  0  0  0  0  0  0  0
   56.7930   22.9230   47.5130 C   0  0  0  0  0  0  0  0  0  0  0  0
   56.9910   22.7590   48.7490 O   0  0  0  0  0  0  0  0  0  0  0  0
   56.0790   24.1150   47.0260 C   0  0  0  0  0  0  0  0  0  0  0  0
   54.8250   24.0660   46.9090 O   0  0  0  0  0  0  0  0  0  0  0  0
   56.7810   25.3790   46.7120 C   0  0  0  0  0  0  0  0  0  0  0  0
   58.1230   25.5320   47.1020 C   0  0  0  0  0  0  0  0  0  0  0  0
   58.8130   26.7140   46.8170 C   0  0  0  0  0  0  0  0  0  0  0  0
   58.1700   27.7560   46.1500 C   0  0  0  0  0  0  0  0  0  0  0  0
   56.8320   27.6270   45.7760 C   0  0  0  0  0  0  0  0  0  0  0  0
   56.1260   26.4480   46.0620 C   0  0  0  0  0  0  0  0  0  0  0  0
   54.7760   26.3510   45.7260 O   0  0  0  0  0  0  0  0  0  0  0  0
   57.9621   27.2581   43.2494 H   0  0  0  0  0  0  0  0  0  0  0  0
   58.6352   26.1206   42.0330 H   0  0  0  0  0  0  0  0  0  0  0  0
   56.8794   26.5000   42.0330 H   0  0  0  0  0  0  0  0  0  0  0  0
   58.4784   24.7477   43.9198 H   0  0  0  0  0  0  0  0  0  0  0  0
   56.9665   25.5569   44.4951 H   0  0  0  0  0  0  0  0  0  0  0  0
   55.8848   24.5703   42.3366 H   0  0  0  0  0  0  0  0  0  0  0  0
   57.3235   23.4742   42.3188 H   0  0  0  0  0  0  0  0  0  0  0  0
   56.4251   23.4037   44.9814 H   0  0  0  0  0  0  0  0  0  0  0  0
   54.9173   23.3823   43.9947 H   0  0  0  0  0  0  0  0  0  0  0  0
   57.2184   20.3505   44.7069 H   0  0  0  0  0  0  0  0  0  0  0  0
   58.1964   21.2740   43.5070 H   0  0  0  0  0  0  0  0  0  0  0  0
   58.9608   22.2049   45.5035 H   0  0  0  0  0  0  0  0  0  0  0  0
   57.6188   23.3277   45.0970 H   0  0  0  0  0  0  0  0  0  0  0  0
   58.6335   24.7163   47.6349 H   0  0  0  0  0  0  0  0  0  0  0  0
   59.8650   26.8222   47.1195 H   0  0  0  0  0  0  0  0  0  0  0  0
   58.7183   28.6810   45.9183 H   0  0  0  0  0  0  0  0  0  0  0  0
   56.3277   28.4537   45.2542 H   0  0  0  0  0  0  0  0  0  0  0  0
   54.0800   26.0520   46.3990 H   0  0  0  0  0  0  0  0  0  0  0  0
  1  2  1  0
  2  3  1  0
  3  4  1  0
  4  5  1  0
  5  6  1  0
  6  7  1  0
  7  8  1  0
  8  9  1  0
  9 10  2  0
  9 11  1  0
 11 12  2  0
 11 13  1  0
 13 14  2  0
 14 15  1  0
 15 16  2  0
 16 17  1  0
 17 18  2  0
 18 19  1  0
 18 13  1  0
  1 20  1  0
  1 21  1  0
  1 22  1  0
  2 23  1  0
  2 24  1  0
  3 25  1  0
  3 26  1  0
  4 27  1  0
  4 28  1  0
  6 29  1  0
  6 30  1  0
  7 31  1  0
  7 32  1  0
 14 33  1  0
 15 34  1  0
 16 35  1  0
 17 36  1  0
 19 37  1  0
M  END
>  <UniqueID>  (28) 
26

>  <SMILES>  (28) 
CCCCOCCOC(=O)C(=O)c1ccccc1O

>  <Energy>  (28) 
31.79313670666993

>  <Genealogy>  (28) 
CCCCOCCOC(=O)C(=O)c1ccccc1O (3D coordinates assigned)
CCCCOCCOC(=O)C(=O)c1ccccc1O (optimized conformer: 31.79313670666993 kcal/mol)

>  <smiles>  (28) 
CCCCOCCOC(=O)C(=O)c1ccccc1O

>  <score_type>  (28) 
oracle

>  <origin>  (28) 
adg

>  <m_score__min__energy>  (28) 
-7.1900000000000004

>  <m_primary>  (28) 
energy

$$$$
28:0
     RDKit          3D

 46 48  0  0  1  0  0  0  0  0999 V2000
   65.2440   32.9940   49.4190 C   0  0  0  0  0  0  0  0  0  0  0  0
   64.0670   32.4060   48.8410 N   0  0  0  0  0  0  0  0  0  0  0  0
   62.9900   31.7990   49.6070 C   0  0  0  0  0  0  0  0  0  0  0  0
   62.9850   31.7630   50.8500 O   0  0  0  0  0  0  0  0  0  0  0  0
   61.9450   31.2300   48.7290 C   0  0  0  0  0  0  0  0  0  0  0  0
   61.4030   30.0340   49.1610 C   0  0  0  0  0  0  0  0  0  0  0  0
   60.5540   29.3920   48.3460 N   0  0  0  0  0  0  0  0  0  0  0  0
   60.2300   29.8940   47.1310 C   0  0  0  0  0  0  0  0  0  0  0  0
   59.3840   29.3400   46.3320 N   0  0  0  0  0  0  0  0  0  0  0  0
   57.9880   29.6230   46.4520 C   0  0  0  0  0  0  0  0  0  0  0  0
   57.5400   30.0710   45.0770 C   0  0  0  0  0  0  0  0  0  0  0  0
   58.2100   31.0340   44.3850 C   0  0  0  0  0  0  0  0  0  0  0  0
   57.7590   31.3890   43.1210 C   0  0  0  0  0  0  0  0  0  0  0  0
   58.4090   32.3470   42.4150 F   0  0  0  0  0  0  0  0  0  0  0  0
   56.6390   30.7660   42.5790 C   0  0  0  0  0  0  0  0  0  0  0  0
   55.9710   29.8070   43.2630 C   0  0  0  0  0  0  0  0  0  0  0  0
   56.4180   29.4470   44.5280 C   0  0  0  0  0  0  0  0  0  0  0  0
   55.7590   28.4830   45.2400 F   0  0  0  0  0  0  0  0  0  0  0  0
   60.7780   31.0800   46.7260 N   0  0  0  0  0  0  0  0  0  0  0  0
   61.6420   31.7650   47.5290 C   0  0  0  0  0  0  0  0  0  0  0  0
   61.9410   32.9140   47.2170 N   0  0  0  0  0  0  0  0  0  0  0  0
   61.2110   34.0090   46.8510 C   0  0  0  0  0  0  0  0  0  0  0  0
   59.8100   34.0450   46.4910 C   0  0  0  0  0  0  0  0  0  0  0  0
   59.3130   34.4340   45.2450 C   0  0  0  0  0  0  0  0  0  0  0  0
   57.9490   34.2870   44.9600 C   0  0  0  0  0  0  0  0  0  0  0  0
   57.0710   33.7660   45.8800 C   0  0  0  0  0  0  0  0  0  0  0  0
   57.5710   33.3900   47.0930 N   0  0  0  0  0  0  0  0  0  0  0  0
   58.8740   33.5300   47.3630 C   0  0  0  0  0  0  0  0  0  0  0  0
   65.1712   32.9576   50.5160 H   0  0  0  0  0  0  0  0  0  0  0  0
   66.1323   32.4338   49.0917 H   0  0  0  0  0  0  0  0  0  0  0  0
   65.3295   34.0407   49.0917 H   0  0  0  0  0  0  0  0  0  0  0  0
   64.0140   32.4410   47.7800 H   0  0  0  0  0  0  0  0  0  0  0  0
   61.6614   29.6202   50.1469 H   0  0  0  0  0  0  0  0  0  0  0  0
   60.1100   28.4960   48.6030 H   0  0  0  0  0  0  0  0  0  0  0  0
   57.4389   28.7206   46.7590 H   0  0  0  0  0  0  0  0  0  0  0  0
   57.7944   30.3936   47.2127 H   0  0  0  0  0  0  0  0  0  0  0  0
   59.0941   31.5225   44.8206 H   0  0  0  0  0  0  0  0  0  0  0  0
   56.2901   31.0576   41.5774 H   0  0  0  0  0  0  0  0  0  0  0  0
   55.0878   29.3204   42.8235 H   0  0  0  0  0  0  0  0  0  0  0  0
   60.5180   31.4470   45.7700 H   0  0  0  0  0  0  0  0  0  0  0  0
   61.3033   34.7059   47.6971 H   0  0  0  0  0  0  0  0  0  0  0  0
   61.6512   34.1892   45.8592 H   0  0  0  0  0  0  0  0  0  0  0  0
   59.9915   34.8552   44.4885 H   0  0  0  0  0  0  0  0  0  0  0  0
   57.5712   34.5966   43.9744 H   0  0  0  0  0  0  0  0  0  0  0  0
   56.0017   33.6558   45.6467 H   0  0  0  0  0  0  0  0  0  0  0  0
   59.2250   33.2102   48.3552 H   0  0  0  0  0  0  0  0  0  0  0  0
  1  2  1  0
  2  3  1  0
  3  4  2  0
  3  5  1  0
  5  6  2  0
  6  7  1  0
  7  8  1  0
  8  9  2  0
  9 10  1  0
 10 11  1  0
 11 12  2  0
 12 13  1  0
 13 14  1  0
 13 15  2  0
 15 16  1  0
 16 17  2  0
 17 18  1  0
  8 19  1  0
 19 20  1  0
 20 21  2  0
 21 22  1  0
 22 23  1  0
 23 24  2  0
 24 25  1  0
 25 26  2  0
 26 27  1  0
 27 28  2  0
 20  5  1  0
 28 23  1  0
 17 11  1  0
  1 29  1  0
  1 30  1  0
  1 31  1  0
  2 32  1  0
  6 33  1  0
  7 34  1  0
 10 35  1  0
 10 36  1  0
 12 37  1  0
 15 38  1  0
 16 39  1  0
 19 40  1  0
 22 41  1  0
 22 42  1  0
 24 43  1  0
 25 44  1  0
 26 45  1  0
 28 46  1  0
M  END
>  <smiles>  (29) 
CNC(=O)c1c[nH]c(=NCc2cc(F)ccc2F)[nH]c1=NCc1cccnc1

>  <score_type>  (29) 
oracle

>  <origin>  (29) 
adg

>  <m_score__min__energy>  (29) 
-7.2999999999999998

>  <m_primary>  (29) 
energy

$$$$
29:0
     RDKit          3D

 33 34  0  0  0  0  0  0  0  0999 V2000
   60.1650   29.0040   50.0530 C   0  0  0  0  0  0  0  0  0  0  0  0
   58.9480   29.8800   49.0210 S   0  0  0  0  0  0  0  0  0  0  0  0
   58.8530   31.2970   50.1250 C   0  0  0  0  0  0  0  0  0  0  0  0
   59.6240   32.4320   49.8450 C   0  0  0  0  0  0  0  0  0  0  0  0
   59.5710   33.5420   50.6900 C   0  0  0  0  0  0  0  0  0  0  0  0
   58.7590   33.5200   51.8240 C   0  0  0  0  0  0  0  0  0  0  0  0
   57.9880   32.3900   52.1130 C   0  0  0  0  0  0  0  0  0  0  0  0
   58.0150   31.2740   51.2560 C   0  0  0  0  0  0  0  0  0  0  0  0
   57.2500   30.0920   51.5400 N   0  0  0  0  0  0  0  0  0  0  0  0
   56.0880   30.0120   52.3730 C   0  0  0  0  0  0  0  0  0  0  0  0
   56.1170   29.3590   53.4520 O   0  0  0  0  0  0  0  0  0  0  0  0
   54.9050   30.7270   51.9950 N   0  0  0  0  0  0  0  0  0  0  0  0
   53.7090   30.7760   52.8320 C   0  0  0  0  0  0  0  0  0  0  0  0
   52.5710   31.4010   52.0790 C   0  0  0  0  0  0  0  0  0  0  0  0
   52.6090   31.6820   50.7630 N   0  0  0  0  0  0  0  0  0  0  0  0
   51.4180   32.2700   50.5340 C   0  0  0  0  0  0  0  0  0  0  0  0
   51.0690   32.6760   49.3960 O   0  0  0  0  0  0  0  0  0  0  0  0
   50.6300   32.3910   51.6230 N   0  0  0  0  0  0  0  0  0  0  0  0
   51.3710   31.8440   52.6020 C   0  0  0  0  0  0  0  0  0  0  0  0
   50.9240   31.7480   54.0250 C   0  0  0  0  0  0  0  0  0  0  0  0
   59.9329   29.1710   51.1152 H   0  0  0  0  0  0  0  0  0  0  0  0
   60.1241   27.9269   49.8337 H   0  0  0  0  0  0  0  0  0  0  0  0
   61.1734   29.3847   49.8337 H   0  0  0  0  0  0  0  0  0  0  0  0
   60.2730   32.4490   48.9570 H   0  0  0  0  0  0  0  0  0  0  0  0
   60.1705   34.4354   50.4612 H   0  0  0  0  0  0  0  0  0  0  0  0
   58.7252   34.3932   52.4921 H   0  0  0  0  0  0  0  0  0  0  0  0
   57.3575   32.3732   53.0142 H   0  0  0  0  0  0  0  0  0  0  0  0
   54.9100   31.2650   51.1000 H   0  0  0  0  0  0  0  0  0  0  0  0
   53.4306   29.7536   53.1272 H   0  0  0  0  0  0  0  0  0  0  0  0
   53.9222   31.3815   53.7253 H   0  0  0  0  0  0  0  0  0  0  0  0
   51.7797   31.9318   54.6913 H   0  0  0  0  0  0  0  0  0  0  0  0
   50.1431   32.4989   54.2155 H   0  0  0  0  0  0  0  0  0  0  0  0
   50.5202   30.7427   54.2155 H   0  0  0  0  0  0  0  0  0  0  0  0
  1  2  1  0
  2  3  1  0
  3  4  2  0
  4  5  1  0
  5  6  2  0
  6  7  1  0
  7  8  2  0
  8  9  1  0
  9 10  1  0
 10 11  2  0
 10 12  1  0
 12 13  1  0
 13 14  1  0
 14 15  1  0
 15 16  1  0
 16 17  2  0
 16 18  1  0
 18 19  1  0
 19 20  1  0
  8  3  1  0
 19 14  2  0
  1 21  1  0
  1 22  1  0
  1 23  1  0
  4 24  1  0
  5 25  1  0
  6 26  1  0
  7 27  1  0
 12 28  1  0
 13 29  1  0
 13 30  1  0
 20 31  1  0
 20 32  1  0
 20 33  1  0
M  CHG  3   9  -1  15  -1  18  -1
M  END
>  <UniqueID>  (30) 
27

>  <SMILES>  (30) 
CSc1ccccc1[N-]C(=O)NCc1[n-]c(=O)[n-]c1C

>  <Energy>  (30) 
57.548105212032134

>  <Genealogy>  (30) 
CSc1ccccc1[N-]C(=O)NCc1[n-]c(=O)[n-]c1C (protonated)
CSc1ccccc1[N-]C(=O)NCc1[n-]c(=O)[n-]c1C (3D coordinates assigned)
CSc1ccccc1[N-]C(=O)NCc1[n-]c(=O)[n-]c1C (optimized conformer: 57.548105212032134 kcal/mol)

>  <smiles>  (30) 
CSc1ccccc1NC(=O)NCc1[nH]c(=O)[nH]c1C

>  <score_type>  (30) 
oracle

>  <origin>  (30) 
adg

>  <m_score__min__energy>  (30) 
-12.66

>  <m_primary>  (30) 
energy

$$$$
30:0
     RDKit          3D

 39 41  0  0  0  0  0  0  0  0999 V2000
   59.1960   35.1350   44.9170 C   0  0  0  0  0  0  0  0  0  0  0  0
   58.6240   33.8010   45.2840 C   0  0  0  0  0  0  0  0  0  0  0  0
   57.8240   33.1280   44.4120 N   0  0  0  0  0  0  0  0  0  0  0  0
   57.3780   31.9640   44.9260 C   0  0  0  0  0  0  0  0  0  0  0  0
   56.5770   31.1800   44.2680 N   0  0  0  0  0  0  0  0  0  0  0  0
   56.3250   29.7970   44.5590 C   0  0  0  0  0  0  0  0  0  0  0  0
   55.1610   29.4440   44.8780 O   0  0  0  0  0  0  0  0  0  0  0  0
   57.3540   28.8030   44.4800 N   0  0  0  0  0  0  0  0  0  0  0  0
   58.2710   28.4470   45.5260 C   0  0  0  0  0  0  0  0  0  0  0  0
   59.5110   29.0950   45.5890 C   0  0  0  0  0  0  0  0  0  0  0  0
   60.4280   28.7710   46.5920 C   0  0  0  0  0  0  0  0  0  0  0  0
   60.1060   27.8050   47.5500 C   0  0  0  0  0  0  0  0  0  0  0  0
   60.9970   27.4910   48.5230 F   0  0  0  0  0  0  0  0  0  0  0  0
   58.8620   27.1690   47.5100 C   0  0  0  0  0  0  0  0  0  0  0  0
   57.9420   27.4930   46.5070 C   0  0  0  0  0  0  0  0  0  0  0  0
   57.9340   31.7240   46.5000 S   0  0  0  0  0  0  0  0  0  0  0  0
   58.8250   33.1540   46.5130 C   0  0  0  0  0  0  0  0  0  0  0  0
   59.6240   33.6100   47.6650 C   0  0  0  0  0  0  0  0  0  0  0  0
   59.8880   34.8380   47.7780 O   0  0  0  0  0  0  0  0  0  0  0  0
   60.0360   32.6940   48.6910 N   0  0  0  0  0  0  0  0  0  0  0  0
   61.1220   32.9620   49.5960 C   0  0  0  0  0  0  0  0  0  0  0  0
   60.8580   33.3690   50.9160 C   0  0  0  0  0  0  0  0  0  0  0  0
   61.9050   33.6580   51.7920 C   0  0  0  0  0  0  0  0  0  0  0  0
   63.2280   33.5540   51.3610 C   0  0  0  0  0  0  0  0  0  0  0  0
   63.5110   33.1630   50.0490 C   0  0  0  0  0  0  0  0  0  0  0  0
   65.1950   33.0480   49.5490 Cl  0  0  0  0  0  0  0  0  0  0  0  0
   62.4620   32.8690   49.1590 C   0  0  0  0  0  0  0  0  0  0  0  0
   62.8300   32.3520   47.5120 Cl  0  0  0  0  0  0  0  0  0  0  0  0
   59.4363   35.6954   45.8326 H   0  0  0  0  0  0  0  0  0  0  0  0
   60.1115   34.9909   44.3244 H   0  0  0  0  0  0  0  0  0  0  0  0
   58.4605   35.6988   44.3244 H   0  0  0  0  0  0  0  0  0  0  0  0
   59.7645   29.8638   44.8442 H   0  0  0  0  0  0  0  0  0  0  0  0
   61.4043   29.2765   46.6280 H   0  0  0  0  0  0  0  0  0  0  0  0
   58.6062   26.4134   48.2674 H   0  0  0  0  0  0  0  0  0  0  0  0
   56.9586   27.0006   46.4851 H   0  0  0  0  0  0  0  0  0  0  0  0
   59.4590   31.8360   48.8360 H   0  0  0  0  0  0  0  0  0  0  0  0
   59.8174   33.4603   51.2608 H   0  0  0  0  0  0  0  0  0  0  0  0
   61.6869   33.9685   52.8245 H   0  0  0  0  0  0  0  0  0  0  0  0
   64.0505   33.7803   52.0554 H   0  0  0  0  0  0  0  0  0  0  0  0
  1  2  1  0
  2  3  1  0
  3  4  1  0
  4  5  2  3
  5  6  1  0
  6  7  2  0
  6  8  1  0
  8  9  1  0
  9 10  2  0
 10 11  1  0
 11 12  2  0
 12 13  1  0
 12 14  1  0
 14 15  2  0
  4 16  1  0
 16 17  1  0
 17 18  1  0
 18 19  2  0
 18 20  1  0
 20 21  1  0
 21 22  2  0
 22 23  1  0
 23 24  2  0
 24 25  1  0
 25 26  1  0
 25 27  2  0
 27 28  1  0
 17  2  2  0
 27 21  1  0
 15  9  1  0
  1 29  1  0
  1 30  1  0
  1 31  1  0
 10 32  1  0
 11 33  1  0
 14 34  1  0
 15 35  1  0
 20 36  1  0
 22 37  1  0
 23 38  1  0
 24 39  1  0
M  CHG  2   3  -1   8  -1
M  END
>  <UniqueID>  (31) 
28

>  <SMILES>  (31) 
Cc1[n-]c(=NC(=O)[N-]c2ccc(F)cc2)sc1C(=O)Nc1cccc(Cl)c1Cl

>  <Energy>  (31) 
87.96965264210046

>  <Genealogy>  (31) 
Cc1[n-]c(=NC(=O)[N-]c2ccc(F)cc2)sc1C(=O)Nc1cccc(Cl)c1Cl (protonated)
Cc1[n-]c(=NC(=O)[N-]c2ccc(F)cc2)sc1C(=O)Nc1cccc(Cl)c1Cl (3D coordinates assigned)
Cc1[n-]c(=NC(=O)[N-]c2ccc(F)cc2)sc1C(=O)Nc1cccc(Cl)c1Cl (optimized conformer: 87.96965264210046 kcal/mol)

>  <smiles>  (31) 
Cc1[nH]c(=NC(=O)Nc2ccc(F)cc2)sc1C(=O)Nc1cccc(Cl)c1Cl

>  <score_type>  (31) 
oracle

>  <origin>  (31) 
adg

>  <m_score__min__energy>  (31) 
-10.41

>  <m_primary>  (31) 
energy

$$$$
31:0
     RDKit          3D

 75 79  0  0  0  0  0  0  0  0999 V2000
   55.5690   29.9210   43.8190 C   0  0  0  0  0  0  0  0  0  0  0  0
   56.9740   29.8590   44.4150 C   0  0  0  0  0  0  0  0  0  0  0  0
   57.5960   28.4580   44.3360 C   0  0  0  0  0  0  0  0  0  0  0  0
   57.4120   27.6500   45.6330 C   0  0  0  0  0  0  0  0  0  0  0  0
   57.8430   26.2170   45.4720 C   0  0  0  0  0  0  0  0  0  0  0  0
   57.0330   25.2340   45.0110 N   0  0  0  0  0  0  0  0  0  0  0  0
   57.7150   24.1050   45.1300 N   0  0  0  0  0  0  0  0  0  0  0  0
   57.2210   22.8050   44.7660 C   0  0  0  0  0  0  0  0  0  0  0  0
   57.4960   22.3120   43.4800 C   0  0  0  0  0  0  0  0  0  0  0  0
   57.0260   21.0610   43.0820 C   0  0  0  0  0  0  0  0  0  0  0  0
   56.2690   20.2880   43.9610 C   0  0  0  0  0  0  0  0  0  0  0  0
   55.9870   20.7590   45.2440 C   0  0  0  0  0  0  0  0  0  0  0  0
   56.4770   22.0080   45.6770 C   0  0  0  0  0  0  0  0  0  0  0  0
   56.1940   22.4710   47.0920 C   0  0  0  0  0  0  0  0  0  0  0  0
   55.6920   21.4400   47.8660 F   0  0  0  0  0  0  0  0  0  0  0  0
   55.2630   23.4930   47.0700 F   0  0  0  0  0  0  0  0  0  0  0  0
   57.3580   22.9210   47.6930 F   0  0  0  0  0  0  0  0  0  0  0  0
   58.9150   24.4020   45.6630 C   0  0  0  0  0  0  0  0  0  0  0  0
   59.7950   23.5480   45.9600 O   0  0  0  0  0  0  0  0  0  0  0  0
   59.0330   25.7220   45.8960 N   0  0  0  0  0  0  0  0  0  0  0  0
   60.1260   26.4090   46.5900 C   0  0  0  0  0  0  0  0  0  0  0  0
   59.8970   27.9010   46.7050 C   0  0  0  0  0  0  0  0  0  0  0  0
   59.2230   28.4830   47.7980 C   0  0  0  0  0  0  0  0  0  0  0  0
   59.0930   29.8710   47.8910 C   0  0  0  0  0  0  0  0  0  0  0  0
   59.6300   30.6990   46.8970 C   0  0  0  0  0  0  0  0  0  0  0  0
   59.4970   32.1640   46.9990 C   0  0  0  0  0  0  0  0  0  0  0  0
   58.3250   32.7640   46.5080 C   0  0  0  0  0  0  0  0  0  0  0  0
   58.1660   34.1500   46.5580 C   0  0  0  0  0  0  0  0  0  0  0  0
   59.1710   34.9490   47.1020 C   0  0  0  0  0  0  0  0  0  0  0  0
   60.3360   34.3660   47.6030 C   0  0  0  0  0  0  0  0  0  0  0  0
   60.5120   32.9730   47.5670 C   0  0  0  0  0  0  0  0  0  0  0  0
   61.9950   32.2860   48.2520 S   0  0  0  0  0  0  0  0  0  0  0  0
   62.7670   33.3610   48.9630 O   0  0  0  0  0  0  0  0  0  0  0  0
   62.8620   31.7350   47.1540 O   0  0  0  0  0  0  0  0  0  0  0  0
   61.5760   30.9990   49.3400 N   0  0  0  0  0  0  0  0  0  0  0  0
   61.1170   31.1890   50.6840 C   0  0  0  0  0  0  0  0  0  0  0  0
   61.9450   31.4480   51.5970 O   0  0  0  0  0  0  0  0  0  0  0  0
   59.6640   31.0930   50.9880 C   0  0  0  0  0  0  0  0  0  0  0  0
   58.8520   32.2490   51.1480 C   0  0  0  0  0  0  0  0  0  0  0  0
   59.4040   33.6440   50.9980 C   0  0  0  0  0  0  0  0  0  0  0  0
   57.4920   32.0960   51.4570 C   0  0  0  0  0  0  0  0  0  0  0  0
   56.9520   30.8210   51.6100 C   0  0  0  0  0  0  0  0  0  0  0  0
   55.2570   30.6200   52.0070 Cl  0  0  0  0  0  0  0  0  0  0  0  0
   57.7370   29.7290   51.4460 N   0  0  0  0  0  0  0  0  0  0  0  0
   59.0570   29.8250   51.1430 C   0  0  0  0  0  0  0  0  0  0  0  0
   59.7240   28.7660   50.9920 O   0  0  0  0  0  0  0  0  0  0  0  0
   60.3220   30.1270   45.8190 C   0  0  0  0  0  0  0  0  0  0  0  0
   60.4540   28.7400   45.7260 C   0  0  0  0  0  0  0  0  0  0  0  0
   54.8275   29.9537   44.6308 H   0  0  0  0  0  0  0  0  0  0  0  0
   55.4735   30.8242   43.1985 H   0  0  0  0  0  0  0  0  0  0  0  0
   55.3943   29.0297   43.1985 H   0  0  0  0  0  0  0  0  0  0  0  0
   57.6192   30.5607   43.8661 H   0  0  0  0  0  0  0  0  0  0  0  0
   56.8926   30.1240   45.4795 H   0  0  0  0  0  0  0  0  0  0  0  0
   57.1214   27.9088   43.5094 H   0  0  0  0  0  0  0  0  0  0  0  0
   58.6768   28.5840   44.1747 H   0  0  0  0  0  0  0  0  0  0  0  0
   58.0133   28.1142   46.4286 H   0  0  0  0  0  0  0  0  0  0  0  0
   56.3418   27.6558   45.8873 H   0  0  0  0  0  0  0  0  0  0  0  0
   58.0883   22.9190   42.7795 H   0  0  0  0  0  0  0  0  0  0  0  0
   57.2527   20.6839   42.0738 H   0  0  0  0  0  0  0  0  0  0  0  0
   55.8931   19.3045   43.6426 H   0  0  0  0  0  0  0  0  0  0  0  0
   55.3755   20.1489   45.9251 H   0  0  0  0  0  0  0  0  0  0  0  0
   60.2202   25.9882   47.6019 H   0  0  0  0  0  0  0  0  0  0  0  0
   61.0420   26.2574   46.0002 H   0  0  0  0  0  0  0  0  0  0  0  0
   58.7968   27.8403   48.5824 H   0  0  0  0  0  0  0  0  0  0  0  0
   58.5666   30.3155   48.7486 H   0  0  0  0  0  0  0  0  0  0  0  0
   57.5277   32.1375   46.0815 H   0  0  0  0  0  0  0  0  0  0  0  0
   57.2472   34.6122   46.1679 H   0  0  0  0  0  0  0  0  0  0  0  0
   59.0454   36.0413   47.1364 H   0  0  0  0  0  0  0  0  0  0  0  0
   61.1240   35.0037   48.0302 H   0  0  0  0  0  0  0  0  0  0  0  0
   59.5762   34.0792   51.9935 H   0  0  0  0  0  0  0  0  0  0  0  0
   60.3544   33.6048   50.4455 H   0  0  0  0  0  0  0  0  0  0  0  0
   58.6841   34.2657   50.4455 H   0  0  0  0  0  0  0  0  0  0  0  0
   56.8523   32.9826   51.5784 H   0  0  0  0  0  0  0  0  0  0  0  0
   60.7618   30.7729   45.0448 H   0  0  0  0  0  0  0  0  0  0  0  0
   60.9994   28.3003   44.8779 H   0  0  0  0  0  0  0  0  0  0  0  0
  1  2  1  0
  2  3  1  0
  3  4  1  0
  4  5  1  0
  5  6  2  0
  6  7  1  0
  7  8  1  0
  8  9  2  0
  9 10  1  0
 10 11  2  0
 11 12  1  0
 12 13  2  0
 13 14  1  0
 14 15  1  0
 14 16  1  0
 14 17  1  0
  7 18  1  0
 18 19  2  0
 18 20  1  0
 20 21  1  0
 21 22  1  0
 22 23  2  0
 23 24  1  0
 24 25  2  0
 25 26  1  0
 26 27  2  0
 27 28  1  0
 28 29  2  0
 29 30  1  0
 30 31  2  0
 31 32  1  0
 32 33  2  0
 32 34  2  0
 32 35  1  0
 35 36  1  0
 36 37  2  0
 36 38  1  0
 38 39  2  0
 39 40  1  0
 39 41  1  0
 41 42  2  0
 42 43  1  0
 42 44  1  0
 44 45  1  0
 45 46  2  0
 25 47  1  0
 47 48  2  0
 20  5  1  0
 48 22  1  0
 13  8  1  0
 31 26  1  0
 45 38  1  0
  1 49  1  0
  1 50  1  0
  1 51  1  0
  2 52  1  0
  2 53  1  0
  3 54  1  0
  3 55  1  0
  4 56  1  0
  4 57  1  0
  9 58  1  0
 10 59  1  0
 11 60  1  0
 12 61  1  0
 21 62  1  0
 21 63  1  0
 23 64  1  0
 24 65  1  0
 27 66  1  0
 28 67  1  0
 29 68  1  0
 30 69  1  0
 40 70  1  0
 40 71  1  0
 40 72  1  0
 41 73  1  0
 47 74  1  0
 48 75  1  0
M  CHG  2  35  -1  44  -1
M  END
>  <UniqueID>  (32) 
29

>  <SMILES>  (32) 
CCCCc1nn(-c2ccccc2C(F)(F)F)c(=O)n1Cc1ccc(-c2ccccc2S(=O)(=O)[N-]C(=O)c2c(C)cc(Cl)[n-]c2=O)cc1

>  <Energy>  (32) 
132.44039233634047

>  <Genealogy>  (32) 
CCCCc1nn(-c2ccccc2C(F)(F)F)c(=O)n1Cc1ccc(-c2ccccc2S(=O)(=O)[N-]C(=O)c2c(C)cc(Cl)[n-]c2=O)cc1 (protonated)
CCCCc1nn(-c2ccccc2C(F)(F)F)c(=O)n1Cc1ccc(-c2ccccc2S(=O)(=O)[N-]C(=O)c2c(C)cc(Cl)[n-]c2=O)cc1 (3D coordinates assigned)
CCCCc1nn(-c2ccccc2C(F)(F)F)c(=O)n1Cc1ccc(-c2ccccc2S(=O)(=O)[N-]C(=O)c2c(C)cc(Cl)[n-]c2=O)cc1 (optimized conformer: 132.44039233634047 kcal/mol)

>  <smiles>  (32) 
CCCCc1nn(-c2ccccc2C(F)(F)F)c(=O)n1Cc1ccc(-c2ccccc2S(=O)(=O)NC(=O)c2c(C)cc(Cl)[nH]c2=O)cc1

>  <score_type>  (32) 
oracle

>  <origin>  (32) 
adg

>  <m_score__min__energy>  (32) 
-13.65

>  <m_primary>  (32) 
energy

$$$$
32:0
     RDKit          3D

 51 54  0  0  0  0  0  0  0  0999 V2000
   59.6560   34.9480   48.6100 O   0  0  0  0  0  0  0  0  0  0  0  0
   60.1500   34.3530   47.6140 C   0  0  0  0  0  0  0  0  0  0  0  0
   59.4840   34.4020   46.3450 N   0  0  0  0  0  0  0  0  0  0  0  0
   58.7080   33.3640   45.7300 C   0  0  0  0  0  0  0  0  0  0  0  0
   58.6390   32.1200   46.3670 C   0  0  0  0  0  0  0  0  0  0  0  0
   57.9700   31.0490   45.7660 C   0  0  0  0  0  0  0  0  0  0  0  0
   57.3710   31.2100   44.5100 C   0  0  0  0  0  0  0  0  0  0  0  0
   56.6360   29.8390   43.6830 S   0  0  0  0  0  0  0  0  0  0  0  0
   56.2220   30.2720   42.3050 O   0  0  0  0  0  0  0  0  0  0  0  0
   55.4230   29.3590   44.4310 O   0  0  0  0  0  0  0  0  0  0  0  0
   57.7710   28.5310   43.5550 N   0  0  0  0  0  0  0  0  0  0  0  0
   58.2430   27.8880   44.5790 C   0  0  0  0  0  0  0  0  0  0  0  0
   57.5620   26.9350   45.2520 N   0  0  0  0  0  0  0  0  0  0  0  0
   58.2840   26.4520   46.2980 C   0  0  0  0  0  0  0  0  0  0  0  0
   57.7100   25.4480   47.2460 C   0  0  0  0  0  0  0  0  0  0  0  0
   56.1740   24.8010   46.6080 S   0  0  0  0  0  0  0  0  0  0  0  0
   55.2830   25.9340   46.1800 O   0  0  0  0  0  0  0  0  0  0  0  0
   55.4690   24.0120   47.6770 O   0  0  0  0  0  0  0  0  0  0  0  0
   56.5080   23.7510   45.2370 C   0  0  0  0  0  0  0  0  0  0  0  0
   57.5480   22.8090   45.2930 C   0  0  0  0  0  0  0  0  0  0  0  0
   57.8010   21.9760   44.1980 C   0  0  0  0  0  0  0  0  0  0  0  0
   57.0190   22.0800   43.0430 C   0  0  0  0  0  0  0  0  0  0  0  0
   55.9770   23.0120   42.9860 C   0  0  0  0  0  0  0  0  0  0  0  0
   55.7200   23.8450   44.0810 C   0  0  0  0  0  0  0  0  0  0  0  0
   59.5470   27.0230   46.4580 C   0  0  0  0  0  0  0  0  0  0  0  0
   59.7570   28.1700   45.2420 S   0  0  0  0  0  0  0  0  0  0  0  0
   57.4300   32.4550   43.8710 C   0  0  0  0  0  0  0  0  0  0  0  0
   58.1000   33.5250   44.4710 C   0  0  0  0  0  0  0  0  0  0  0  0
   61.3780   33.5350   47.7630 C   0  0  0  0  0  0  0  0  0  0  0  0
   62.5190   33.8800   47.0130 C   0  0  0  0  0  0  0  0  0  0  0  0
   63.6950   33.1340   47.1190 C   0  0  0  0  0  0  0  0  0  0  0  0
   63.7520   32.0380   47.9780 C   0  0  0  0  0  0  0  0  0  0  0  0
   62.6370   31.6880   48.7400 C   0  0  0  0  0  0  0  0  0  0  0  0
   61.4510   32.4270   48.6430 C   0  0  0  0  0  0  0  0  0  0  0  0
   60.1170   31.9590   49.6950 Cl  0  0  0  0  0  0  0  0  0  0  0  0
   59.1152   31.9833   47.3491 H   0  0  0  0  0  0  0  0  0  0  0  0
   57.9141   30.0784   46.2805 H   0  0  0  0  0  0  0  0  0  0  0  0
   58.4250   24.6224   47.3769 H   0  0  0  0  0  0  0  0  0  0  0  0
   57.5182   25.9373   48.2124 H   0  0  0  0  0  0  0  0  0  0  0  0
   58.1650   22.7260   46.1999 H   0  0  0  0  0  0  0  0  0  0  0  0
   58.6157   21.2385   44.2454 H   0  0  0  0  0  0  0  0  0  0  0  0
   57.2231   21.4294   42.1799 H   0  0  0  0  0  0  0  0  0  0  0  0
   55.3590   23.0902   42.0794 H   0  0  0  0  0  0  0  0  0  0  0  0
   54.8983   24.5748   44.0346 H   0  0  0  0  0  0  0  0  0  0  0  0
   60.2772   26.7689   47.2405 H   0  0  0  0  0  0  0  0  0  0  0  0
   56.9468   32.5914   42.8923 H   0  0  0  0  0  0  0  0  0  0  0  0
   58.1522   34.4963   43.9573 H   0  0  0  0  0  0  0  0  0  0  0  0
   62.4836   34.7465   46.3363 H   0  0  0  0  0  0  0  0  0  0  0  0
   64.5773   33.4119   46.5237 H   0  0  0  0  0  0  0  0  0  0  0  0
   64.6773   31.4482   48.0553 H   0  0  0  0  0  0  0  0  0  0  0  0
   62.6896   30.8261   49.4214 H   0  0  0  0  0  0  0  0  0  0  0  0
  1  2  2  0
  2  3  1  0
  3  4  1  0
  4  5  2  0
  5  6  1  0
  6  7  2  0
  7  8  1  0
  8  9  2  0
  8 10  2  0
  8 11  1  0
 11 12  2  3
 12 13  1  0
 13 14  1  0
 14 15  1  0
 15 16  1  0
 16 17  2  0
 16 18  2  0
 16 19  1  0
 19 20  2  0
 20 21  1  0
 21 22  2  0
 22 23  1  0
 23 24  2  0
 14 25  2  0
 25 26  1  0
  7 27  1  0
 27 28  2  0
  2 29  1  0
 29 30  2  0
 30 31  1  0
 31 32  2  0
 32 33  1  0
 33 34  2  0
 34 35  1  0
 28  4  1  0
 34 29  1  0
 26 12  1  0
 24 19  1  0
  5 36  1  0
  6 37  1  0
 15 38  1  0
 15 39  1  0
 20 40  1  0
 21 41  1  0
 22 42  1  0
 23 43  1  0
 24 44  1  0
 25 45  1  0
 27 46  1  0
 28 47  1  0
 30 48  1  0
 31 49  1  0
 32 50  1  0
 33 51  1  0
M  CHG  2   3  -1  13  -1
M  END
>  <UniqueID>  (33) 
30

>  <SMILES>  (33) 
O=C([N-]c1ccc(S(=O)(=O)N=c2[n-]c(CS(=O)(=O)c3ccccc3)cs2)cc1)c1ccccc1Cl

>  <Energy>  (33) 
88.50591574243212

>  <Genealogy>  (33) 
O=C([N-]c1ccc(S(=O)(=O)N=c2[n-]c(CS(=O)(=O)c3ccccc3)cs2)cc1)c1ccccc1Cl (protonated)
O=C([N-]c1ccc(S(=O)(=O)N=c2[n-]c(CS(=O)(=O)c3ccccc3)cs2)cc1)c1ccccc1Cl (3D coordinates assigned)
O=C([N-]c1ccc(S(=O)(=O)N=c2[n-]c(CS(=O)(=O)c3ccccc3)cs2)cc1)c1ccccc1Cl (optimized conformer: 88.50591574243212 kcal/mol)

>  <smiles>  (33) 
O=C(Nc1ccc(S(=O)(=O)N=c2[nH]c(CS(=O)(=O)c3ccccc3)cs2)cc1)c1ccccc1Cl

>  <score_type>  (33) 
oracle

>  <origin>  (33) 
adg

>  <m_score__min__energy>  (33) 
-13.44

>  <m_primary>  (33) 
energy

$$$$
33:0
     RDKit          3D

 54 58  0  0  1  0  0  0  0  0999 V2000
   57.8330   26.9600   47.3370 C   0  0  0  0  0  0  0  0  0  0  0  0
   57.8340   26.4590   45.9370 C   0  0  0  0  0  0  0  0  0  0  0  0
   57.6230   25.2020   45.5270 N   0  0  0  0  0  0  0  0  0  0  0  0
   57.7040   25.1510   44.1910 N   0  0  0  0  0  0  0  0  0  0  0  0
   57.9690   26.3760   43.7020 C   0  0  0  0  0  0  0  0  0  0  0  0
   58.1380   26.7530   42.2550 C   0  0  0  0  0  0  0  0  0  0  0  0
   58.0530   27.2120   44.8020 C   0  0  0  0  0  0  0  0  0  0  0  0
   58.3240   28.6030   44.6970 N   0  0  0  0  0  0  0  0  0  0  0  0
   57.2440   29.5290   44.7230 C   0  0  0  0  0  0  0  0  0  0  0  0
   56.0330   29.1550   44.8400 O   0  0  0  0  0  0  0  0  0  0  0  0
   57.5430   30.9410   44.6130 C   0  0  0  0  0  0  0  0  0  0  0  0
   57.4410   31.8180   43.5720 C   0  0  0  0  0  0  0  0  0  0  0  0
   57.8100   33.0440   43.8430 N   0  0  0  0  0  0  0  0  0  0  0  0
   58.2070   33.5130   44.8130 C   0  0  0  0  0  0  0  0  0  0  0  0
   58.6830   34.6300   45.5350 O   0  0  0  0  0  0  0  0  0  0  0  0
   59.5470   34.3860   46.5770 C   0  0  0  0  0  0  0  0  0  0  0  0
   59.2820   34.6230   47.9030 C   0  0  0  0  0  0  0  0  0  0  0  0
   60.1910   34.3580   48.9050 C   0  0  0  0  0  0  0  0  0  0  0  0
   61.4310   33.8280   48.6060 C   0  0  0  0  0  0  0  0  0  0  0  0
   61.7180   33.5800   47.2640 C   0  0  0  0  0  0  0  0  0  0  0  0
   60.8000   33.8500   46.2640 C   0  0  0  0  0  0  0  0  0  0  0  0
   63.0230   33.0120   46.8300 C   0  0  0  0  0  0  0  0  0  0  0  0
   64.0670   33.5060   47.8220 C   0  0  0  0  0  0  0  0  0  0  0  0
   63.6270   32.9950   49.1780 C   0  0  1  0  0  0  0  0  0  0  0  0
   64.7250   33.2710   50.1410 C   0  0  0  0  0  0  0  0  0  0  0  0
   64.4930   34.0800   51.2570 C   0  0  0  0  0  0  0  0  0  0  0  0
   65.5180   34.3230   52.1330 C   0  0  0  0  0  0  0  0  0  0  0  0
   66.7920   33.8090   51.9850 C   0  0  0  0  0  0  0  0  0  0  0  0
   67.0110   33.0100   50.8800 C   0  0  0  0  0  0  0  0  0  0  0  0
   66.0000   32.7340   49.9580 C   0  0  0  0  0  0  0  0  0  0  0  0
   62.3880   33.5390   49.5690 O   0  0  0  0  0  0  0  0  0  0  0  0
   58.1840   31.9810   45.9520 S   0  0  0  0  0  0  0  0  0  0  0  0
   57.8347   26.1071   48.0317 H   0  0  0  0  0  0  0  0  0  0  0  0
   58.7299   27.5736   47.5075 H   0  0  0  0  0  0  0  0  0  0  0  0
   56.9336   27.5700   47.5075 H   0  0  0  0  0  0  0  0  0  0  0  0
   57.5720   24.2620   43.6580 H   0  0  0  0  0  0  0  0  0  0  0  0
   58.5871   27.7549   42.1872 H   0  0  0  0  0  0  0  0  0  0  0  0
   58.7948   26.0225   41.7601 H   0  0  0  0  0  0  0  0  0  0  0  0
   57.1557   26.7573   41.7601 H   0  0  0  0  0  0  0  0  0  0  0  0
   59.3240   28.8810   44.6010 H   0  0  0  0  0  0  0  0  0  0  0  0
   57.0758   31.5167   42.5791 H   0  0  0  0  0  0  0  0  0  0  0  0
   58.3028   35.0421   48.1776 H   0  0  0  0  0  0  0  0  0  0  0  0
   59.9266   34.5704   49.9514 H   0  0  0  0  0  0  0  0  0  0  0  0
   61.0580   33.6414   45.2152 H   0  0  0  0  0  0  0  0  0  0  0  0
   62.9803   31.9129   46.8405 H   0  0  0  0  0  0  0  0  0  0  0  0
   63.2705   33.3270   45.8055 H   0  0  0  0  0  0  0  0  0  0  0  0
   65.0585   33.1047   47.5654 H   0  0  0  0  0  0  0  0  0  0  0  0
   64.1470   34.6030   47.8107 H   0  0  0  0  0  0  0  0  0  0  0  0
   63.4485   31.9102   49.1421 H   0  0  0  0  0  0  0  0  0  0  0  0
   63.4984   34.5168   51.4300 H   0  0  0  0  0  0  0  0  0  0  0  0
   65.3152   34.9638   53.0038 H   0  0  0  0  0  0  0  0  0  0  0  0
   67.5906   34.0250   52.7099 H   0  0  0  0  0  0  0  0  0  0  0  0
   68.0106   32.5789   50.7220 H   0  0  0  0  0  0  0  0  0  0  0  0
   66.2081   32.0938   49.0880 H   0  0  0  0  0  0  0  0  0  0  0  0
  1  2  1  0
  2  3  2  0
  3  4  1  0
  4  5  1  0
  5  6  1  0
  5  7  2  0
  7  8  1  0
  8  9  1  0
  9 10  2  0
  9 11  1  0
 11 12  2  0
 12 13  1  0
 13 14  2  0
 14 15  1  0
 15 16  1  0
 16 17  2  0
 17 18  1  0
 18 19  2  0
 19 20  1  0
 20 21  2  0
 20 22  1  0
 22 23  1  0
 23 24  1  0
 24 25  1  0
 25 26  2  0
 26 27  1  0
 27 28  2  0
 28 29  1  0
 29 30  2  0
 24 31  1  0
 14 32  1  0
  7  2  1  0
 32 11  1  0
 21 16  1  0
 30 25  1  0
 31 19  1  0
  1 33  1  0
  1 34  1  0
  1 35  1  0
  4 36  1  0
  6 37  1  0
  6 38  1  0
  6 39  1  0
  8 40  1  0
 12 41  1  0
 17 42  1  0
 18 43  1  0
 21 44  1  0
 22 45  1  0
 22 46  1  0
 23 47  1  0
 23 48  1  0
 24 49  1  6
 26 50  1  0
 27 51  1  0
 28 52  1  0
 29 53  1  0
 30 54  1  0
M  END
>  <smiles>  (34) 
Cc1n[nH]c(C)c1NC(=O)c1cnc(Oc2ccc3c(c2)CCC(c2ccccc2)O3)s1

>  <score_type>  (34) 
oracle

>  <origin>  (34) 
adg

>  <m_score__min__energy>  (34) 
-9.4900000000000002

>  <m_primary>  (34) 
energy

$$$$
34:0
     RDKit          3D

 44 46  0  0  0  0  0  0  0  0999 V2000
   59.4010   27.2980   46.4010 C   0  0  0  0  0  0  0  0  0  0  0  0
   58.4550   28.0670   45.8450 C   0  0  0  0  0  0  0  0  0  0  0  0
   57.1040   27.7500   45.7210 C   0  0  0  0  0  0  0  0  0  0  0  0
   56.4150   26.4910   46.0640 C   0  0  0  0  0  0  0  0  0  0  0  0
   55.1630   26.4190   45.9270 O   0  0  0  0  0  0  0  0  0  0  0  0
   57.1570   25.3410   46.4950 N   0  0  0  0  0  0  0  0  0  0  0  0
   56.5090   24.0950   46.8950 C   0  0  0  0  0  0  0  0  0  0  0  0
   56.5660   23.0960   45.7720 C   0  0  0  0  0  0  0  0  0  0  0  0
   56.5500   23.5370   44.4380 C   0  0  0  0  0  0  0  0  0  0  0  0
   56.5810   22.6130   43.3900 C   0  0  0  0  0  0  0  0  0  0  0  0
   56.6260   21.2420   43.6640 C   0  0  0  0  0  0  0  0  0  0  0  0
   56.6550   20.3470   42.6460 F   0  0  0  0  0  0  0  0  0  0  0  0
   56.6380   20.7960   44.9890 C   0  0  0  0  0  0  0  0  0  0  0  0
   56.6060   21.7170   46.0400 C   0  0  0  0  0  0  0  0  0  0  0  0
   56.4990   28.8660   45.1770 C   0  0  0  0  0  0  0  0  0  0  0  0
   55.1440   28.9700   44.8820 O   0  0  0  0  0  0  0  0  0  0  0  0
   57.3980   29.8440   44.9430 N   0  0  0  0  0  0  0  0  0  0  0  0
   57.1000   31.1370   44.3140 C   0  0  0  0  0  0  0  0  0  0  0  0
   57.7410   32.2600   45.0860 C   0  0  0  0  0  0  0  0  0  0  0  0
   58.3390   33.3340   44.4040 C   0  0  0  0  0  0  0  0  0  0  0  0
   58.9420   34.3750   45.1170 C   0  0  0  0  0  0  0  0  0  0  0  0
   58.9480   34.3540   46.5140 C   0  0  0  0  0  0  0  0  0  0  0  0
   58.3490   33.2950   47.2010 C   0  0  0  0  0  0  0  0  0  0  0  0
   57.7460   32.2510   46.4910 C   0  0  0  0  0  0  0  0  0  0  0  0
   58.6050   29.3650   45.3410 C   0  0  0  0  0  0  0  0  0  0  0  0
   59.7530   30.0550   45.2600 C   0  0  0  0  0  0  0  0  0  0  0  0
   60.4417   27.6515   46.4447 H   0  0  0  0  0  0  0  0  0  0  0  0
   59.1369   26.3132   46.8137 H   0  0  0  0  0  0  0  0  0  0  0  0
   58.2010   25.3610   46.4530 H   0  0  0  0  0  0  0  0  0  0  0  0
   57.0255   23.6829   47.7745 H   0  0  0  0  0  0  0  0  0  0  0  0
   55.4564   24.3003   47.1396 H   0  0  0  0  0  0  0  0  0  0  0  0
   56.5129   24.6141   44.2176 H   0  0  0  0  0  0  0  0  0  0  0  0
   56.5700   22.9645   42.3477 H   0  0  0  0  0  0  0  0  0  0  0  0
   56.6727   19.7179   45.2049 H   0  0  0  0  0  0  0  0  0  0  0  0
   56.6121   21.3611   47.0808 H   0  0  0  0  0  0  0  0  0  0  0  0
   57.4889   31.1371   43.2850 H   0  0  0  0  0  0  0  0  0  0  0  0
   56.0102   31.2866   44.3078 H   0  0  0  0  0  0  0  0  0  0  0  0
   58.3326   33.3557   43.3042 H   0  0  0  0  0  0  0  0  0  0  0  0
   59.4118   35.2107   44.5777 H   0  0  0  0  0  0  0  0  0  0  0  0
   59.4249   35.1722   47.0737 H   0  0  0  0  0  0  0  0  0  0  0  0
   58.3515   33.2820   48.3009 H   0  0  0  0  0  0  0  0  0  0  0  0
   57.2739   31.4197   47.0351 H   0  0  0  0  0  0  0  0  0  0  0  0
   60.6937   29.5997   45.6031 H   0  0  0  0  0  0  0  0  0  0  0  0
   59.7533   31.0759   44.8505 H   0  0  0  0  0  0  0  0  0  0  0  0
  1  2  2  0
  2  3  1  0
  3  4  1  0
  4  5  2  0
  4  6  1  0
  6  7  1  0
  7  8  1  0
  8  9  2  0
  9 10  1  0
 10 11  2  0
 11 12  1  0
 11 13  1  0
 13 14  2  0
  3 15  2  0
 15 16  1  0
 15 17  1  0
 17 18  1  0
 18 19  1  0
 19 20  2  0
 20 21  1  0
 21 22  2  0
 22 23  1  0
 23 24  2  0
 17 25  1  0
 25 26  2  0
 25  2  1  0
 14  8  1  0
 24 19  1  0
  1 27  1  0
  1 28  1  0
  6 29  1  0
  7 30  1  0
  7 31  1  0
  9 32  1  0
 10 33  1  0
 13 34  1  0
 14 35  1  0
 18 36  1  0
 18 37  1  0
 20 38  1  0
 21 39  1  0
 22 40  1  0
 23 41  1  0
 24 42  1  0
 26 43  1  0
 26 44  1  0
M  CHG  1  16  -1
M  END
>  <UniqueID>  (35) 
31

>  <SMILES>  (35) 
C=c1c(C(=O)NCc2ccc(F)cc2)c([O-])n(Cc2ccccc2)c1=C

>  <Energy>  (35) 
78.48304605950953

>  <Genealogy>  (35) 
C=c1c(C(=O)NCc2ccc(F)cc2)c([O-])n(Cc2ccccc2)c1=C (protonated)
C=c1c(C(=O)NCc2ccc(F)cc2)c([O-])n(Cc2ccccc2)c1=C (3D coordinates assigned)
C=c1c(C(=O)NCc2ccc(F)cc2)c([O-])n(Cc2ccccc2)c1=C (optimized conformer: 78.48304605950953 kcal/mol)

>  <smiles>  (35) 
C=c1c(C(=O)NCc2ccc(F)cc2)c(O)n(Cc2ccccc2)c1=C

>  <score_type>  (35) 
oracle

>  <origin>  (35) 
adg

>  <m_score__min__energy>  (35) 
-12.84

>  <m_primary>  (35) 
energy

$$$$
35:0
     RDKit          3D

 44 47  0  0  0  0  0  0  0  0999 V2000
   55.1450   27.5080   45.3440 H   0  0  0  0  0  0  0  0  0  0  0  0
   55.1300   26.7420   46.0060 O   0  0  0  0  0  0  0  0  0  0  0  0
   55.3980   25.4220   45.6410 C   0  0  0  0  0  0  0  0  0  0  0  0
   54.3670   24.5350   45.6080 N   0  0  0  0  0  0  0  0  0  0  0  0
   54.5440   23.2310   45.2690 C   0  0  0  0  0  0  0  0  0  0  0  0
   53.5580   22.4490   45.2550 O   0  0  0  0  0  0  0  0  0  0  0  0
   55.8150   22.7640   44.9320 C   0  0  0  0  0  0  0  0  0  0  0  0
   55.9645   21.7098   44.6558 H   0  0  0  0  0  0  0  0  0  0  0  0
   56.8930   23.6470   44.9490 C   0  0  0  0  0  0  0  0  0  0  0  0
   57.8959   23.2932   44.6680 H   0  0  0  0  0  0  0  0  0  0  0  0
   56.7030   24.9880   45.3240 C   0  0  0  0  0  0  0  0  0  0  0  0
   57.8370   25.9360   45.2850 C   0  0  0  0  0  0  0  0  0  0  0  0
   58.6648   25.7691   45.9899 H   0  0  0  0  0  0  0  0  0  0  0  0
   57.9310   26.9840   44.4540 C   0  0  0  0  0  0  0  0  0  0  0  0
   58.3908   26.8110   43.4698 H   0  0  0  0  0  0  0  0  0  0  0  0
   57.4650   28.3540   44.7570 C   0  0  0  0  0  0  0  0  0  0  0  0
   56.2140   28.8250   44.5330 N   0  0  0  0  0  0  0  0  0  0  0  0
   56.1670   30.1140   44.8620 N   0  0  0  0  0  0  0  0  0  0  0  0
   57.3940   30.4610   45.2870 C   0  0  0  0  0  0  0  0  0  0  0  0
   57.8220   31.7120   45.7230 C   0  0  0  0  0  0  0  0  0  0  0  0
   57.1316   32.5679   45.7522 H   0  0  0  0  0  0  0  0  0  0  0  0
   59.1660   31.8500   46.1260 C   0  0  0  0  0  0  0  0  0  0  0  0
   59.6100   33.1100   46.5520 O   0  0  0  0  0  0  0  0  0  0  0  0
   60.8490   33.3750   47.1560 C   0  0  0  0  0  0  0  0  0  0  0  0
   62.0100   33.5130   46.3720 C   0  0  0  0  0  0  0  0  0  0  0  0
   61.9394   33.4411   45.2766 H   0  0  0  0  0  0  0  0  0  0  0  0
   63.2490   33.7400   46.9710 C   0  0  0  0  0  0  0  0  0  0  0  0
   64.1483   33.8558   46.3482 H   0  0  0  0  0  0  0  0  0  0  0  0
   63.3470   33.8200   48.3580 C   0  0  0  0  0  0  0  0  0  0  0  0
   64.3241   34.0027   48.8291 H   0  0  0  0  0  0  0  0  0  0  0  0
   62.2090   33.6690   49.1520 C   0  0  0  0  0  0  0  0  0  0  0  0
   62.2986   33.7286   50.2467 H   0  0  0  0  0  0  0  0  0  0  0  0
   60.9460   33.4410   48.5680 C   0  0  0  0  0  0  0  0  0  0  0  0
   59.7400   33.2910   49.4310 C   0  0  0  0  0  0  0  0  0  0  0  0
   59.4220   34.2070   50.2390 O   0  0  0  0  0  0  0  0  0  0  0  0
   58.9000   32.0500   49.4020 C   0  0  0  0  0  0  0  0  0  0  0  0
   58.6833   31.7298   50.4318 H   0  0  0  0  0  0  0  0  0  0  0  0
   57.9564   32.2582   48.8765 H   0  0  0  0  0  0  0  0  0  0  0  0
   59.4439   31.2513   48.8765 H   0  0  0  0  0  0  0  0  0  0  0  0
   60.0440   30.7330   46.0460 C   0  0  0  0  0  0  0  0  0  0  0  0
   61.0985   30.8474   46.3374 H   0  0  0  0  0  0  0  0  0  0  0  0
   59.5770   29.4840   45.5980 C   0  0  0  0  0  0  0  0  0  0  0  0
   60.2461   28.6128   45.5406 H   0  0  0  0  0  0  0  0  0  0  0  0
   58.2380   29.3900   45.2300 C   0  0  0  0  0  0  0  0  0  0  0  0
  1  2  1  0
  2  3  1  0
  3  4  1  0
  4  5  1  0
  5  6  2  0
  5  7  1  0
  7  8  1  0
  7  9  2  0
  9 10  1  0
  9 11  1  0
 11 12  1  0
 12 13  1  0
 12 14  2  0
 14 15  1  0
 14 16  1  0
 16 17  1  0
 17 18  1  0
 18 19  2  0
 19 20  1  0
 20 21  1  0
 20 22  2  0
 22 23  1  0
 23 24  1  0
 24 25  2  0
 25 26  1  0
 25 27  1  0
 27 28  1  0
 27 29  2  0
 29 30  1  0
 29 31  1  0
 31 32  1  0
 31 33  2  0
 33 34  1  0
 34 35  2  0
 34 36  1  0
 36 37  1  0
 36 38  1  0
 36 39  1  0
 22 40  1  0
 40 41  1  0
 40 42  2  0
 42 43  1  0
 42 44  1  0
 11  3  2  0
 44 16  2  0
 44 19  1  0
 33 24  1  0
M  CHG  2   4  -1  17  -1
M  END
>  <UniqueID>  (36) 
32

>  <SMILES>  (36) 
CC(=O)c1ccccc1Oc1ccc2c(/C=C\c3ccc(=O)[n-]c3O)[n-]nc2c1

>  <Energy>  (36) 
104.98738309513627

>  <Genealogy>  (36) 
CC(=O)c1ccccc1Oc1ccc2c(C=Cc3ccc(=O)[n-]c3O)[n-]nc2c1 (protonated)
CC(=O)c1ccccc1Oc1ccc2c(/C=C\c3ccc(=O)[n-]c3O)[n-]nc2c1 (cis-trans isomerization)
CC(=O)c1ccccc1Oc1ccc2c(/C=C\c3ccc(=O)[n-]c3O)[n-]nc2c1 (3D coordinates assigned)
CC(=O)c1ccccc1Oc1ccc2c(/C=C\c3ccc(=O)[n-]c3O)[n-]nc2c1 (optimized conformer: 104.98738309513627 kcal/mol)

>  <smiles>  (36) 
CC(=O)c1ccccc1Oc1ccc2c(C=Cc3ccc(=O)[nH]c3O)[nH]nc2c1

>  <score_type>  (36) 
oracle

>  <origin>  (36) 
adg

>  <m_score__min__energy>  (36) 
-13.84

>  <m_primary>  (36) 
energy

$$$$
36:0
     RDKit          3D

 39 41  0  0  0  0  0  0  0  0999 V2000
   54.7350   27.4690   46.3620 H   0  0  0  0  0  0  0  0  0  0  0  0
   54.9620   26.5370   46.0370 O   0  0  0  0  0  0  0  0  0  0  0  0
   56.2770   26.0790   45.9820 C   0  0  0  0  0  0  0  0  0  0  0  0
   56.5180   24.7050   45.8540 C   0  0  0  0  0  0  0  0  0  0  0  0
   55.6745   23.9989   45.8569 H   0  0  0  0  0  0  0  0  0  0  0  0
   57.8210   24.2280   45.7230 C   0  0  0  0  0  0  0  0  0  0  0  0
   58.0112   23.1493   45.6216 H   0  0  0  0  0  0  0  0  0  0  0  0
   58.8790   25.1330   45.7220 C   0  0  0  0  0  0  0  0  0  0  0  0
   59.9113   24.7719   45.6037 H   0  0  0  0  0  0  0  0  0  0  0  0
   58.6370   26.4610   45.8670 N   0  0  0  0  0  0  0  0  0  0  0  0
   57.3830   26.9690   46.0140 C   0  0  0  0  0  0  0  0  0  0  0  0
   57.2670   28.2610   46.1570 N   0  0  0  0  0  0  0  0  0  0  0  0
   56.6350   29.1950   45.2730 C   0  0  0  0  0  0  0  0  0  0  0  0
   55.4510   28.9870   44.8960 O   0  0  0  0  0  0  0  0  0  0  0  0
   57.4210   30.3250   44.6850 C   0  0  0  0  0  0  0  0  0  0  0  0
   58.4232   30.3517   45.1376 H   0  0  0  0  0  0  0  0  0  0  0  0
   57.5188   30.1835   43.5985 H   0  0  0  0  0  0  0  0  0  0  0  0
   56.7250   31.5840   44.9590 N   0  0  0  0  0  0  0  0  0  0  0  0
   57.7370   32.9450   44.5800 S   0  0  0  0  0  0  0  0  0  0  0  0
   58.2880   32.7860   43.1910 O   0  0  0  0  0  0  0  0  0  0  0  0
   56.9260   34.2100   44.6340 O   0  0  0  0  0  0  0  0  0  0  0  0
   59.0710   33.0200   45.7290 C   0  0  0  0  0  0  0  0  0  0  0  0
   59.7250   34.2360   45.9540 C   0  0  0  0  0  0  0  0  0  0  0  0
   59.3778   35.1463   45.4433 H   0  0  0  0  0  0  0  0  0  0  0  0
   60.8170   34.3010   46.8240 C   0  0  0  0  0  0  0  0  0  0  0  0
   61.3196   35.2639   46.9979 H   0  0  0  0  0  0  0  0  0  0  0  0
   61.2790   33.1430   47.4800 C   0  0  0  0  0  0  0  0  0  0  0  0
   62.4230   33.1810   48.3610 N   0  0  0  0  0  0  0  0  0  0  0  0
   63.6290   32.7590   48.0110 N   0  0  0  0  0  0  0  0  0  0  0  0
   64.4590   32.9630   49.0500 C   0  0  0  0  0  0  0  0  0  0  0  0
   65.5298   32.7118   49.0659 H   0  0  0  0  0  0  0  0  0  0  0  0
   63.7610   33.5350   50.0910 C   0  0  0  0  0  0  0  0  0  0  0  0
   64.1482   33.8269   51.0784 H   0  0  0  0  0  0  0  0  0  0  0  0
   62.4710   33.6610   49.6230 C   0  0  0  0  0  0  0  0  0  0  0  0
   61.6228   34.0817   50.1829 H   0  0  0  0  0  0  0  0  0  0  0  0
   60.6120   31.9260   47.2490 C   0  0  0  0  0  0  0  0  0  0  0  0
   60.9543   31.0128   47.7577 H   0  0  0  0  0  0  0  0  0  0  0  0
   59.5190   31.8650   46.3800 C   0  0  0  0  0  0  0  0  0  0  0  0
   59.0091   30.9058   46.2072 H   0  0  0  0  0  0  0  0  0  0  0  0
  1  2  1  0
  2  3  1  0
  3  4  2  0
  4  5  1  0
  4  6  1  0
  6  7  1  0
  6  8  2  0
  8  9  1  0
  8 10  1  0
 10 11  1  0
 11 12  2  0
 12 13  1  0
 13 14  2  0
 13 15  1  0
 15 16  1  0
 15 17  1  0
 15 18  1  0
 18 19  1  0
 19 20  2  0
 19 21  2  0
 19 22  1  0
 22 23  2  0
 23 24  1  0
 23 25  1  0
 25 26  1  0
 25 27  2  0
 27 28  1  0
 28 29  1  0
 29 30  2  0
 30 31  1  0
 30 32  1  0
 32 33  1  0
 32 34  2  0
 34 35  1  0
 27 36  1  0
 36 37  1  0
 36 38  2  0
 38 39  1  0
 11  3  1  0
 38 22  1  0
 34 28  1  0
M  CHG  2  10  -1  18  -1
M  END
>  <UniqueID>  (37) 
33

>  <SMILES>  (37) 
O=C(C[N-]S(=O)(=O)c1ccc(-n2cccn2)cc1)/N=c1/[n-]cccc1O

>  <Energy>  (37) 
80.43288044418095

>  <Genealogy>  (37) 
O=C(C[N-]S(=O)(=O)c1ccc(-n2cccn2)cc1)N=c1[n-]cccc1O (protonated)
O=C(C[N-]S(=O)(=O)c1ccc(-n2cccn2)cc1)/N=c1/[n-]cccc1O (cis-trans isomerization)
O=C(C[N-]S(=O)(=O)c1ccc(-n2cccn2)cc1)/N=c1/[n-]cccc1O (3D coordinates assigned)
O=C(C[N-]S(=O)(=O)c1ccc(-n2cccn2)cc1)/N=c1/[n-]cccc1O (optimized conformer: 80.43288044418095 kcal/mol)

>  <smiles>  (37) 
O=C(CNS(=O)(=O)c1ccc(-n2cccn2)cc1)N=c1[nH]cccc1O

>  <score_type>  (37) 
oracle

>  <origin>  (37) 
adg

>  <m_score__min__energy>  (37) 
-12.449999999999999

>  <m_primary>  (37) 
energy

$$$$
37:0
     RDKit          3D

 48 50  0  0  0  0  0  0  0  0999 V2000
   55.2980   30.0470   54.6700 C   0  0  0  0  0  0  0  0  0  0  0  0
   55.9550   30.4330   53.0610 S   0  0  0  0  0  0  0  0  0  0  0  0
   54.8940   31.1480   52.2720 O   0  0  0  0  0  0  0  0  0  0  0  0
   56.3290   29.1740   52.3290 O   0  0  0  0  0  0  0  0  0  0  0  0
   57.3380   31.4710   53.2090 N   0  0  0  0  0  0  0  0  0  0  0  0
   58.0060   32.1070   52.1030 C   0  0  0  0  0  0  0  0  0  0  0  0
   57.8540   31.5660   50.8160 C   0  0  0  0  0  0  0  0  0  0  0  0
   58.4860   32.1540   49.7160 C   0  0  0  0  0  0  0  0  0  0  0  0
   59.2800   33.2950   49.8890 C   0  0  0  0  0  0  0  0  0  0  0  0
   60.1030   34.0310   48.5150 S   0  0  0  0  0  0  0  0  0  0  0  0
   59.3050   35.2010   48.0080 O   0  0  0  0  0  0  0  0  0  0  0  0
   61.4480   34.5270   48.9690 O   0  0  0  0  0  0  0  0  0  0  0  0
   60.3100   32.8570   47.2370 N   0  0  0  0  0  0  0  0  0  0  0  0
   61.0770   31.7020   47.7460 C   0  0  0  0  0  0  0  0  0  0  0  0
   61.0790   30.5500   46.7370 C   0  0  0  0  0  0  0  0  0  0  0  0
   59.7080   30.1750   46.3770 N   0  0  0  0  0  0  0  0  0  0  0  0
   59.4860   29.0110   45.5580 C   0  0  0  0  0  0  0  0  0  0  0  0
   60.3560   28.6810   44.7050 O   0  0  0  0  0  0  0  0  0  0  0  0
   58.2640   28.1850   45.6920 C   0  0  0  0  0  0  0  0  0  0  0  0
   58.3230   26.8820   46.2130 C   0  0  0  0  0  0  0  0  0  0  0  0
   57.1620   26.1160   46.3170 C   0  0  0  0  0  0  0  0  0  0  0  0
   55.9460   26.6540   45.8880 C   0  0  0  0  0  0  0  0  0  0  0  0
   54.8890   25.9760   45.9750 O   0  0  0  0  0  0  0  0  0  0  0  0
   55.9040   27.9100   45.3700 N   0  0  0  0  0  0  0  0  0  0  0  0
   57.0220   28.6760   45.2580 C   0  0  0  0  0  0  0  0  0  0  0  0
   58.5990   31.0450   46.7850 C   0  0  0  0  0  0  0  0  0  0  0  0
   59.0030   32.5160   46.6150 C   0  0  0  0  0  0  0  0  0  0  0  0
   59.4460   33.8340   51.1690 C   0  0  0  0  0  0  0  0  0  0  0  0
   58.8150   33.2470   52.2700 C   0  0  0  0  0  0  0  0  0  0  0  0
   55.9708   30.4423   55.4453 H   0  0  0  0  0  0  0  0  0  0  0  0
   54.3037   30.5045   54.7794 H   0  0  0  0  0  0  0  0  0  0  0  0
   55.2136   28.9557   54.7794 H   0  0  0  0  0  0  0  0  0  0  0  0
   57.7300   31.5910   54.1690 H   0  0  0  0  0  0  0  0  0  0  0  0
   57.2315   30.6706   50.6718 H   0  0  0  0  0  0  0  0  0  0  0  0
   58.3595   31.7199   48.7132 H   0  0  0  0  0  0  0  0  0  0  0  0
   62.1144   32.0154   47.9347 H   0  0  0  0  0  0  0  0  0  0  0  0
   60.6027   31.3509   48.6743 H   0  0  0  0  0  0  0  0  0  0  0  0
   61.6173   30.8645   45.8307 H   0  0  0  0  0  0  0  0  0  0  0  0
   61.5756   29.6808   47.1931 H   0  0  0  0  0  0  0  0  0  0  0  0
   59.2869   26.4647   46.5397 H   0  0  0  0  0  0  0  0  0  0  0  0
   57.2033   25.0984   46.7327 H   0  0  0  0  0  0  0  0  0  0  0  0
   56.9531   29.6850   44.8254 H   0  0  0  0  0  0  0  0  0  0  0  0
   57.7194   30.8332   46.1594 H   0  0  0  0  0  0  0  0  0  0  0  0
   58.3571   30.8543   47.8410 H   0  0  0  0  0  0  0  0  0  0  0  0
   59.0633   32.7366   45.5390 H   0  0  0  0  0  0  0  0  0  0  0  0
   58.2384   33.1186   47.1271 H   0  0  0  0  0  0  0  0  0  0  0  0
   60.0763   34.7244   51.3102 H   0  0  0  0  0  0  0  0  0  0  0  0
   58.9515   33.6785   53.2726 H   0  0  0  0  0  0  0  0  0  0  0  0
  1  2  1  0
  2  3  2  0
  2  4  2  0
  2  5  1  0
  5  6  1  0
  6  7  2  0
  7  8  1  0
  8  9  2  0
  9 10  1  0
 10 11  2  0
 10 12  2  0
 10 13  1  0
 13 14  1  0
 14 15  1  0
 15 16  1  0
 16 17  1  0
 17 18  2  0
 17 19  1  0
 19 20  1  0
 20 21  2  0
 21 22  1  0
 22 23  2  0
 22 24  1  0
 24 25  1  0
 16 26  1  0
 26 27  1  0
  9 28  1  0
 28 29  2  0
 29  6  1  0
 27 13  1  0
 25 19  2  0
  1 30  1  0
  1 31  1  0
  1 32  1  0
  5 33  1  0
  7 34  1  0
  8 35  1  0
 14 36  1  0
 14 37  1  0
 15 38  1  0
 15 39  1  0
 20 40  1  0
 21 41  1  0
 25 42  1  0
 26 43  1  0
 26 44  1  0
 27 45  1  0
 27 46  1  0
 28 47  1  0
 29 48  1  0
M  CHG  1  24  -1
M  END
>  <UniqueID>  (38) 
34

>  <SMILES>  (38) 
CS(=O)(=O)Nc1ccc(S(=O)(=O)N2CCN(C(=O)c3ccc(=O)[n-]c3)CC2)cc1

>  <Energy>  (38) 
58.771300414943006

>  <Genealogy>  (38) 
CS(=O)(=O)Nc1ccc(S(=O)(=O)N2CCN(C(=O)c3ccc(=O)[n-]c3)CC2)cc1 (protonated)
CS(=O)(=O)Nc1ccc(S(=O)(=O)N2CCN(C(=O)c3ccc(=O)[n-]c3)CC2)cc1 (3D coordinates assigned)
CS(=O)(=O)Nc1ccc(S(=O)(=O)N2CCN(C(=O)c3ccc(=O)[n-]c3)CC2)cc1 (nonaromatic ring conformer: 58.771300414943006 kcal/mol)

>  <smiles>  (38) 
CS(=O)(=O)Nc1ccc(S(=O)(=O)N2CCN(C(=O)c3ccc(=O)[nH]c3)CC2)cc1

>  <score_type>  (38) 
oracle

>  <origin>  (38) 
adg

>  <m_score__min__energy>  (38) 
-10.65

>  <m_primary>  (38) 
energy

$$$$
38:0
     RDKit          3D

 67 70  0  0  0  0  0  0  0  0999 V2000
   59.2860   35.4230   46.9500 O   0  0  0  0  0  0  0  0  0  0  0  0
   59.2330   34.5620   46.0320 C   0  0  0  0  0  0  0  0  0  0  0  0
   58.0900   34.5710   45.0640 C   0  0  0  0  0  0  0  0  0  0  0  0
   57.1900   33.3370   45.2150 C   0  0  0  0  0  0  0  0  0  0  0  0
   57.9360   32.0910   45.0280 N   0  0  0  0  0  0  0  0  0  0  0  0
   57.2550   30.8450   44.8110 C   0  0  0  0  0  0  0  0  0  0  0  0
   56.0280   30.8590   44.5150 O   0  0  0  0  0  0  0  0  0  0  0  0
   57.9590   29.5420   44.9330 C   0  0  0  0  0  0  0  0  0  0  0  0
   59.3510   29.4410   44.7410 C   0  0  0  0  0  0  0  0  0  0  0  0
   59.9980   28.2130   44.8910 C   0  0  0  0  0  0  0  0  0  0  0  0
   59.2750   27.0740   45.2450 C   0  0  0  0  0  0  0  0  0  0  0  0
   57.8900   27.1530   45.4440 C   0  0  0  0  0  0  0  0  0  0  0  0
   56.9720   25.7090   45.8830 S   0  0  0  0  0  0  0  0  0  0  0  0
   55.5160   26.0620   46.0030 O   0  0  0  0  0  0  0  0  0  0  0  0
   57.4420   25.2210   47.2250 O   0  0  0  0  0  0  0  0  0  0  0  0
   57.1620   24.4360   44.7020 N   0  0  0  0  0  0  0  0  0  0  0  0
   55.8640   24.0990   44.0960 C   0  0  0  0  0  0  0  0  0  0  0  0
   55.9720   22.8210   43.2390 C   0  0  0  0  0  0  0  0  0  0  0  0
   57.3240   22.4590   43.0300 O   0  0  0  0  0  0  0  0  0  0  0  0
   57.9260   22.1260   44.2700 C   0  0  0  0  0  0  0  0  0  0  0  0
   57.7600   23.2440   45.3230 C   0  0  0  0  0  0  0  0  0  0  0  0
   57.2380   28.3840   45.2910 C   0  0  0  0  0  0  0  0  0  0  0  0
   60.3070   33.6340   45.8340 N   0  0  0  0  0  0  0  0  0  0  0  0
   60.9230   32.8040   46.8290 C   0  0  0  0  0  0  0  0  0  0  0  0
   62.1980   33.1510   47.2920 C   0  0  0  0  0  0  0  0  0  0  0  0
   62.8360   32.3710   48.2600 C   0  0  0  0  0  0  0  0  0  0  0  0
   62.2130   31.2290   48.7610 C   0  0  0  0  0  0  0  0  0  0  0  0
   60.9490   30.8500   48.2870 C   0  0  0  0  0  0  0  0  0  0  0  0
   60.1620   29.4030   48.9260 S   0  0  0  0  0  0  0  0  0  0  0  0
   59.6690   28.5660   47.7790 O   0  0  0  0  0  0  0  0  0  0  0  0
   61.1660   28.5900   49.6950 O   0  0  0  0  0  0  0  0  0  0  0  0
   58.8280   29.8040   49.9820 N   0  0  0  0  0  0  0  0  0  0  0  0
   59.0990   29.3370   51.3510 C   0  0  0  0  0  0  0  0  0  0  0  0
   57.9410   29.7350   52.2880 C   0  0  0  0  0  0  0  0  0  0  0  0
   56.9420   30.4800   51.6160 O   0  0  0  0  0  0  0  0  0  0  0  0
   57.5190   31.6310   51.0270 C   0  0  0  0  0  0  0  0  0  0  0  0
   58.5850   31.2560   49.9790 C   0  0  0  0  0  0  0  0  0  0  0  0
   60.3080   31.6330   47.3140 C   0  0  0  0  0  0  0  0  0  0  0  0
   57.4856   35.4733   45.2385 H   0  0  0  0  0  0  0  0  0  0  0  0
   58.5096   34.5594   44.0472 H   0  0  0  0  0  0  0  0  0  0  0  0
   56.7490   33.3396   46.2227 H   0  0  0  0  0  0  0  0  0  0  0  0
   56.4102   33.3870   44.4408 H   0  0  0  0  0  0  0  0  0  0  0  0
   58.9810   32.1080   45.0650 H   0  0  0  0  0  0  0  0  0  0  0  0
   59.9318   30.3354   44.4712 H   0  0  0  0  0  0  0  0  0  0  0  0
   61.0838   28.1434   44.7291 H   0  0  0  0  0  0  0  0  0  0  0  0
   59.7931   26.1115   45.3683 H   0  0  0  0  0  0  0  0  0  0  0  0
   55.1252   23.9358   44.8945 H   0  0  0  0  0  0  0  0  0  0  0  0
   55.5519   24.9313   43.4481 H   0  0  0  0  0  0  0  0  0  0  0  0
   55.4556   21.9981   43.7549 H   0  0  0  0  0  0  0  0  0  0  0  0
   55.5081   23.0166   42.2610 H   0  0  0  0  0  0  0  0  0  0  0  0
   57.4594   21.2068   44.6539 H   0  0  0  0  0  0  0  0  0  0  0  0
   59.0030   21.9876   44.0941 H   0  0  0  0  0  0  0  0  0  0  0  0
   57.1056   22.8878   46.1322 H   0  0  0  0  0  0  0  0  0  0  0  0
   58.7478   23.5061   45.7298 H   0  0  0  0  0  0  0  0  0  0  0  0
   56.1517   28.4478   45.4519 H   0  0  0  0  0  0  0  0  0  0  0  0
   62.7007   34.0435   46.8911 H   0  0  0  0  0  0  0  0  0  0  0  0
   63.8321   32.6587   48.6275 H   0  0  0  0  0  0  0  0  0  0  0  0
   62.7144   30.6235   49.5304 H   0  0  0  0  0  0  0  0  0  0  0  0
   59.2036   28.2420   51.3474 H   0  0  0  0  0  0  0  0  0  0  0  0
   60.0285   29.8017   51.7115 H   0  0  0  0  0  0  0  0  0  0  0  0
   57.4862   28.8209   52.6973 H   0  0  0  0  0  0  0  0  0  0  0  0
   58.3549   30.3681   53.0867 H   0  0  0  0  0  0  0  0  0  0  0  0
   56.7272   32.2169   50.5374 H   0  0  0  0  0  0  0  0  0  0  0  0
   58.0064   32.2168   51.8203 H   0  0  0  0  0  0  0  0  0  0  0  0
   58.2347   31.5616   48.9821 H   0  0  0  0  0  0  0  0  0  0  0  0
   59.5236   31.7726   50.2281 H   0  0  0  0  0  0  0  0  0  0  0  0
   59.3227   31.3313   46.9292 H   0  0  0  0  0  0  0  0  0  0  0  0
  1  2  2  0
  2  3  1  0
  3  4  1  0
  4  5  1  0
  5  6  1  0
  6  7  2  0
  6  8  1  0
  8  9  2  0
  9 10  1  0
 10 11  2  0
 11 12  1  0
 12 13  1  0
 13 14  2  0
 13 15  2  0
 13 16  1  0
 16 17  1  0
 17 18  1  0
 18 19  1  0
 19 20  1  0
 20 21  1  0
 12 22  2  0
  2 23  1  0
 23 24  1  0
 24 25  2  0
 25 26  1  0
 26 27  2  0
 27 28  1  0
 28 29  1  0
 29 30  2  0
 29 31  2  0
 29 32  1  0
 32 33  1  0
 33 34  1  0
 34 35  1  0
 35 36  1  0
 36 37  1  0
 28 38  2  0
 22  8  1  0
 38 24  1  0
 21 16  1  0
 37 32  1  0
  3 39  1  0
  3 40  1  0
  4 41  1  0
  4 42  1  0
  5 43  1  0
  9 44  1  0
 10 45  1  0
 11 46  1  0
 17 47  1  0
 17 48  1  0
 18 49  1  0
 18 50  1  0
 20 51  1  0
 20 52  1  0
 21 53  1  0
 21 54  1  0
 22 55  1  0
 25 56  1  0
 26 57  1  0
 27 58  1  0
 33 59  1  0
 33 60  1  0
 34 61  1  0
 34 62  1  0
 36 63  1  0
 36 64  1  0
 37 65  1  0
 37 66  1  0
 38 67  1  0
M  CHG  1  23  -1
M  END
>  <UniqueID>  (39) 
35

>  <SMILES>  (39) 
O=C(CCNC(=O)c1cccc(S(=O)(=O)N2CCOCC2)c1)[N-]c1cccc(S(=O)(=O)N2CCOCC2)c1

>  <Energy>  (39) 
85.091844198094

>  <Genealogy>  (39) 
O=C(CCNC(=O)c1cccc(S(=O)(=O)N2CCOCC2)c1)[N-]c1cccc(S(=O)(=O)N2CCOCC2)c1 (protonated)
O=C(CCNC(=O)c1cccc(S(=O)(=O)N2CCOCC2)c1)[N-]c1cccc(S(=O)(=O)N2CCOCC2)c1 (3D coordinates assigned)
O=C(CCNC(=O)c1cccc(S(=O)(=O)N2CCOCC2)c1)[N-]c1cccc(S(=O)(=O)N2CCOCC2)c1 (nonaromatic ring conformer: 85.091844198094 kcal/mol)

>  <smiles>  (39) 
O=C(CCNC(=O)c1cccc(S(=O)(=O)N2CCOCC2)c1)Nc1cccc(S(=O)(=O)N2CCOCC2)c1

>  <score_type>  (39) 
oracle

>  <origin>  (39) 
adg

>  <m_score__min__energy>  (39) 
-13.75

>  <m_primary>  (39) 
energy

$$$$
39:0
     RDKit          3D

 36 37  0  0  0  0  0  0  0  0999 V2000
   56.6060   30.2510   43.2620 C   0  0  0  0  0  0  0  0  0  0  0  0
   56.4990   30.7630   44.5860 O   0  0  0  0  0  0  0  0  0  0  0  0
   57.4150   31.6500   45.1760 C   0  0  0  0  0  0  0  0  0  0  0  0
   57.1460   33.0300   45.2810 C   0  0  0  0  0  0  0  0  0  0  0  0
   58.0830   33.8900   45.8600 C   0  0  0  0  0  0  0  0  0  0  0  0
   59.2950   33.3900   46.3340 C   0  0  0  0  0  0  0  0  0  0  0  0
   59.5730   32.0250   46.2370 C   0  0  0  0  0  0  0  0  0  0  0  0
   58.6350   31.1470   45.6720 C   0  0  0  0  0  0  0  0  0  0  0  0
   59.0110   29.4230   45.5690 S   0  0  0  0  0  0  0  0  0  0  0  0
   59.6390   29.0900   44.2440 O   0  0  0  0  0  0  0  0  0  0  0  0
   59.9740   29.0760   46.6690 O   0  0  0  0  0  0  0  0  0  0  0  0
   57.5700   28.4720   45.7600 N   0  0  0  0  0  0  0  0  0  0  0  0
   57.5570   27.0380   45.9180 C   0  0  0  0  0  0  0  0  0  0  0  0
   58.7530   26.2980   45.9680 C   0  0  0  0  0  0  0  0  0  0  0  0
   58.7240   24.9140   46.1190 C   0  0  0  0  0  0  0  0  0  0  0  0
   57.5060   24.2460   46.2190 C   0  0  0  0  0  0  0  0  0  0  0  0
   56.2970   24.9480   46.1660 C   0  0  0  0  0  0  0  0  0  0  0  0
   55.0860   24.1780   46.2690 N   0  0  0  0  0  0  0  0  0  0  0  0
   54.5840   22.8330   45.2980 S   0  0  0  0  0  0  0  0  0  0  0  0
   52.8570   22.7820   45.2630 N   0  0  0  0  0  0  0  0  0  0  0  0
   55.0940   22.9930   43.8930 O   0  0  0  0  0  0  0  0  0  0  0  0
   55.0950   21.5490   45.8900 O   0  0  0  0  0  0  0  0  0  0  0  0
   56.3240   26.3580   46.0240 C   0  0  0  0  0  0  0  0  0  0  0  0
   55.1470   27.0940   45.9960 O   0  0  0  0  0  0  0  0  0  0  0  0
   56.8309   29.1750   43.3020 H   0  0  0  0  0  0  0  0  0  0  0  0
   55.6558   30.4075   42.7305 H   0  0  0  0  0  0  0  0  0  0  0  0
   57.4141   30.7749   42.7305 H   0  0  0  0  0  0  0  0  0  0  0  0
   56.1935   33.4319   44.9052 H   0  0  0  0  0  0  0  0  0  0  0  0
   57.8636   34.9648   45.9420 H   0  0  0  0  0  0  0  0  0  0  0  0
   60.0323   34.0708   46.7844 H   0  0  0  0  0  0  0  0  0  0  0  0
   60.5333   31.6353   46.6058 H   0  0  0  0  0  0  0  0  0  0  0  0
   56.6670   28.9970   45.7350 H   0  0  0  0  0  0  0  0  0  0  0  0
   59.7192   26.8174   45.8871 H   0  0  0  0  0  0  0  0  0  0  0  0
   59.6656   24.3468   46.1594 H   0  0  0  0  0  0  0  0  0  0  0  0
   57.4945   23.1529   46.3412 H   0  0  0  0  0  0  0  0  0  0  0  0
   52.5710   21.8770   45.7000 H   0  0  0  0  0  0  0  0  0  0  0  0
  1  2  1  0
  2  3  1  0
  3  4  2  0
  4  5  1  0
  5  6  2  0
  6  7  1  0
  7  8  2  0
  8  9  1  0
  9 10  2  0
  9 11  2  0
  9 12  1  0
 12 13  1  0
 13 14  2  0
 14 15  1  0
 15 16  2  0
 16 17  1  0
 17 18  1  0
 18 19  1  0
 19 20  1  0
 19 21  2  0
 19 22  2  0
 17 23  2  0
 23 24  1  0
  8  3  1  0
 23 13  1  0
  1 25  1  0
  1 26  1  0
  1 27  1  0
  4 28  1  0
  5 29  1  0
  6 30  1  0
  7 31  1  0
 12 32  1  0
 14 33  1  0
 15 34  1  0
 16 35  1  0
 20 36  1  0
M  CHG  3  18  -1  20  -1  24  -1
M  END
>  <UniqueID>  (40) 
36

>  <SMILES>  (40) 
COc1ccccc1S(=O)(=O)Nc1cccc([N-]S([NH-])(=O)=O)c1[O-]

>  <Energy>  (40) 
45.28670101588071

>  <Genealogy>  (40) 
COc1ccccc1S(=O)(=O)Nc1cccc([N-]S([NH-])(=O)=O)c1[O-] (protonated)
COc1ccccc1S(=O)(=O)Nc1cccc([N-]S([NH-])(=O)=O)c1[O-] (3D coordinates assigned)
COc1ccccc1S(=O)(=O)Nc1cccc([N-]S([NH-])(=O)=O)c1[O-] (optimized conformer: 45.28670101588071 kcal/mol)

>  <smiles>  (40) 
COc1ccccc1S(=O)(=O)Nc1cccc(NS(N)(=O)=O)c1O

>  <score_type>  (40) 
oracle

>  <origin>  (40) 
adg

>  <m_score__min__energy>  (40) 
-14.74

>  <m_primary>  (40) 
energy

$$$$
40:0
     RDKit          3D

 53 55  0  0  0  0  0  0  0  0999 V2000
   63.7900   33.3690   50.7840 O   0  0  0  0  0  0  0  0  0  0  0  0
   63.1150   32.7760   49.9010 C   0  0  0  0  0  0  0  0  0  0  0  0
   63.8130   32.2120   48.7310 C   0  0  0  0  0  0  0  0  0  0  0  0
   63.3770   32.2670   47.4630 C   0  0  0  0  0  0  0  0  0  0  0  0
   62.6180   33.3880   46.8680 C   0  0  0  0  0  0  0  0  0  0  0  0
   63.2210   34.2740   46.2030 O   0  0  0  0  0  0  0  0  0  0  0  0
   61.1480   33.4490   46.9760 C   0  0  0  0  0  0  0  0  0  0  0  0
   60.3770   34.5830   47.2130 C   0  0  0  0  0  0  0  0  0  0  0  0
   59.0010   34.3220   47.2460 C   0  0  0  0  0  0  0  0  0  0  0  0
   58.6800   32.9880   47.0300 C   0  0  0  0  0  0  0  0  0  0  0  0
   60.1100   32.1360   46.7960 S   0  0  0  0  0  0  0  0  0  0  0  0
   61.7080   32.5770   50.0870 N   0  0  0  0  0  0  0  0  0  0  0  0
   60.9650   33.0840   51.2360 C   0  0  0  0  0  0  0  0  0  0  0  0
   59.7010   33.8300   50.7620 C   0  0  0  0  0  0  0  0  0  0  0  0
   58.4340   33.2400   51.2470 N   0  0  0  0  0  0  0  0  0  0  0  0
   57.8890   32.1680   50.3760 C   0  0  0  0  0  0  0  0  0  0  0  0
   57.8250   30.8050   51.0770 C   0  0  0  0  0  0  0  0  0  0  0  0
   57.0780   30.9250   52.3350 N   0  0  0  0  0  0  0  0  0  0  0  0
   56.2970   29.8080   52.8120 C   0  0  0  0  0  0  0  0  0  0  0  0
   56.5280   28.6480   52.3670 O   0  0  0  0  0  0  0  0  0  0  0  0
   55.1660   29.9890   53.7890 C   0  0  0  0  0  0  0  0  0  0  0  0
   53.9790   30.6220   53.1130 C   0  0  0  0  0  0  0  0  0  0  0  0
   52.7930   30.8460   53.8340 C   0  0  0  0  0  0  0  0  0  0  0  0
   51.6830   31.4220   53.2070 C   0  0  0  0  0  0  0  0  0  0  0  0
   51.7490   31.7800   51.8560 C   0  0  0  0  0  0  0  0  0  0  0  0
   50.6440   32.3470   51.2320 O   0  0  0  0  0  0  0  0  0  0  0  0
   52.9290   31.5720   51.1350 C   0  0  0  0  0  0  0  0  0  0  0  0
   54.0420   31.0010   51.7600 C   0  0  0  0  0  0  0  0  0  0  0  0
   57.1970   32.1620   53.1220 C   0  0  0  0  0  0  0  0  0  0  0  0
   58.4390   32.9540   52.7000 C   0  0  0  0  0  0  0  0  0  0  0  0
   64.7714   31.7036   48.9127 H   0  0  0  0  0  0  0  0  0  0  0  0
   63.6025   31.4084   46.8134 H   0  0  0  0  0  0  0  0  0  0  0  0
   60.8057   35.5853   47.3599 H   0  0  0  0  0  0  0  0  0  0  0  0
   58.2453   35.1008   47.4261 H   0  0  0  0  0  0  0  0  0  0  0  0
   57.6656   32.5627   47.0147 H   0  0  0  0  0  0  0  0  0  0  0  0
   60.6707   32.2418   51.8795 H   0  0  0  0  0  0  0  0  0  0  0  0
   61.6039   33.7799   51.7996 H   0  0  0  0  0  0  0  0  0  0  0  0
   59.7580   34.8684   51.1203 H   0  0  0  0  0  0  0  0  0  0  0  0
   59.6840   33.7597   49.6644 H   0  0  0  0  0  0  0  0  0  0  0  0
   56.8725   32.4510   50.0651 H   0  0  0  0  0  0  0  0  0  0  0  0
   58.5663   32.0654   49.5153 H   0  0  0  0  0  0  0  0  0  0  0  0
   57.3204   30.0806   50.4208 H   0  0  0  0  0  0  0  0  0  0  0  0
   58.8470   30.4609   51.2940 H   0  0  0  0  0  0  0  0  0  0  0  0
   54.8732   29.0071   54.1892 H   0  0  0  0  0  0  0  0  0  0  0  0
   55.5028   30.6466   54.6040 H   0  0  0  0  0  0  0  0  0  0  0  0
   52.7376   30.5669   54.8966 H   0  0  0  0  0  0  0  0  0  0  0  0
   50.7577   31.5936   53.7765 H   0  0  0  0  0  0  0  0  0  0  0  0
   52.9818   31.8581   50.0742 H   0  0  0  0  0  0  0  0  0  0  0  0
   54.9708   30.8476   51.1910 H   0  0  0  0  0  0  0  0  0  0  0  0
   56.3019   32.7806   52.9603 H   0  0  0  0  0  0  0  0  0  0  0  0
   57.2904   31.8973   54.1856 H   0  0  0  0  0  0  0  0  0  0  0  0
   58.4602   33.9056   53.2513 H   0  0  0  0  0  0  0  0  0  0  0  0
   59.3282   32.3482   52.9289 H   0  0  0  0  0  0  0  0  0  0  0  0
  1  2  2  0
  2  3  1  0
  3  4  2  3
  4  5  1  0
  5  6  2  0
  5  7  1  0
  7  8  2  0
  8  9  1  0
  9 10  2  0
 10 11  1  0
  2 12  1  0
 12 13  1  0
 13 14  1  0
 14 15  1  0
 15 16  1  0
 16 17  1  0
 17 18  1  0
 18 19  1  0
 19 20  2  0
 19 21  1  0
 21 22  1  0
 22 23  2  0
 23 24  1  0
 24 25  2  0
 25 26  1  0
 25 27  1  0
 27 28  2  0
 18 29  1  0
 29 30  1  0
 11  7  1  0
 30 15  1  0
 28 22  1  0
  3 31  1  0
  4 32  1  0
  8 33  1  0
  9 34  1  0
 10 35  1  0
 13 36  1  0
 13 37  1  0
 14 38  1  0
 14 39  1  0
 16 40  1  0
 16 41  1  0
 17 42  1  0
 17 43  1  0
 21 44  1  0
 21 45  1  0
 23 46  1  0
 24 47  1  0
 27 48  1  0
 28 49  1  0
 29 50  1  0
 29 51  1  0
 30 52  1  0
 30 53  1  0
M  CHG  2  12  -1  26  -1
M  END
>  <UniqueID>  (41) 
37

>  <SMILES>  (41) 
O=C(C=CC(=O)c1cccs1)[N-]CCN1CCN(C(=O)Cc2ccc([O-])cc2)CC1

>  <Energy>  (41) 
90.96071803168132

>  <Genealogy>  (41) 
O=C(C=CC(=O)c1cccs1)[N-]CCN1CCN(C(=O)Cc2ccc([O-])cc2)CC1 (protonated)
O=C(C=CC(=O)c1cccs1)[N-]CCN1CCN(C(=O)Cc2ccc([O-])cc2)CC1 (3D coordinates assigned)
O=C(C=CC(=O)c1cccs1)[N-]CCN1CCN(C(=O)Cc2ccc([O-])cc2)CC1 (nonaromatic ring conformer: 90.96071803168132 kcal/mol)

>  <smiles>  (41) 
O=C(C=CC(=O)c1cccs1)NCCN1CCN(C(=O)Cc2ccc(O)cc2)CC1

>  <score_type>  (41) 
oracle

>  <origin>  (41) 
adg

>  <m_score__min__energy>  (41) 
-12.609999999999999

>  <m_primary>  (41) 
energy

$$$$
41:0
     RDKit          3D

 40 43  0  0  1  0  0  0  0  0999 V2000
   61.6870   27.9680   51.2010 O   0  0  0  0  0  0  0  0  0  0  0  0
   61.1200   28.2220   50.0990 C   0  0  0  0  0  0  0  0  0  0  0  0
   60.2100   27.3980   49.5400 N   0  0  0  0  0  0  0  0  0  0  0  0
   59.8150   27.9650   48.3870 C   0  0  0  0  0  0  0  0  0  0  0  0
   58.9390   27.6250   47.4040 N   0  0  0  0  0  0  0  0  0  0  0  0
   58.7320   28.3940   46.3350 C   0  0  0  0  0  0  0  0  0  0  0  0
   57.5950   27.9500   45.0590 S   0  0  0  0  0  0  0  0  0  0  0  0
   58.1600   28.4360   43.7500 O   0  0  0  0  0  0  0  0  0  0  0  0
   56.2670   28.6390   45.2440 O   0  0  0  0  0  0  0  0  0  0  0  0
   57.3790   26.2120   45.0450 C   0  0  0  0  0  0  0  0  0  0  0  0
   57.0720   25.4870   46.1770 C   0  0  0  0  0  0  0  0  0  0  0  0
   56.9270   24.1150   46.0310 C   0  0  0  0  0  0  0  0  0  0  0  0
   57.0820   23.4950   44.8160 C   0  0  0  0  0  0  0  0  0  0  0  0
   56.8800   21.6140   44.6390 Br  0  0  0  0  0  0  0  0  0  0  0  0
   57.3920   24.2210   43.6690 C   0  0  0  0  0  0  0  0  0  0  0  0
   57.5360   25.5840   43.8100 C   0  0  0  0  0  0  0  0  0  0  0  0
   59.4200   29.5990   46.1820 C   0  0  0  0  0  0  0  0  0  0  0  0
   59.2310   30.3570   45.1500 N   0  0  0  0  0  0  0  0  0  0  0  0
   58.7430   31.6890   45.4280 C   0  0  0  0  0  0  0  0  0  0  0  0
   59.5840   32.6110   46.0200 C   0  0  0  0  0  0  0  0  0  0  0  0
   59.1520   33.8770   46.2960 C   0  0  0  0  0  0  0  0  0  0  0  0
   57.8510   34.2490   45.9770 C   0  0  0  0  0  0  0  0  0  0  0  0
   57.0150   33.3420   45.3910 C   0  0  0  0  0  0  0  0  0  0  0  0
   57.4510   32.0630   45.1130 C   0  0  0  0  0  0  0  0  0  0  0  0
   56.6340   31.1100   44.5190 O   0  0  0  0  0  0  0  0  0  0  0  0
   60.2820   29.9450   47.1390 N   0  0  0  0  0  0  0  0  0  0  0  0
   60.5010   29.1690   48.2340 C   0  0  0  0  0  0  0  0  0  0  0  0
   61.3030   29.3050   49.3070 N   0  0  0  0  0  0  0  0  0  0  0  0
   59.8370   26.4830   49.8800 H   0  0  0  0  0  0  0  0  0  0  0  0
   56.9473   25.9758   47.1545 H   0  0  0  0  0  0  0  0  0  0  0  0
   56.6808   23.5067   46.9138 H   0  0  0  0  0  0  0  0  0  0  0  0
   57.5164   23.7282   42.6935 H   0  0  0  0  0  0  0  0  0  0  0  0
   57.7809   26.1918   42.9265 H   0  0  0  0  0  0  0  0  0  0  0  0
   60.6149   32.3220   46.2724 H   0  0  0  0  0  0  0  0  0  0  0  0
   59.8319   34.6005   46.7696 H   0  0  0  0  0  0  0  0  0  0  0  0
   57.4972   35.2674   46.1952 H   0  0  0  0  0  0  0  0  0  0  0  0
   55.9849   33.6338   45.1384 H   0  0  0  0  0  0  0  0  0  0  0  0
   56.9830   30.1830   44.2470 H   0  0  0  0  0  0  0  0  0  0  0  0
   60.8170   30.8260   47.0760 H   0  0  0  0  0  0  0  0  0  0  0  0
   61.9580   30.1010   49.5080 H   0  0  0  0  0  0  0  0  0  0  0  0
  1  2  2  0
  2  3  1  0
  3  4  1  0
  4  5  1  0
  5  6  2  0
  6  7  1  0
  7  8  2  0
  7  9  2  0
  7 10  1  0
 10 11  2  0
 11 12  1  0
 12 13  2  0
 13 14  1  0
 13 15  1  0
 15 16  2  0
  6 17  1  0
 17 18  2  0
 18 19  1  0
 19 20  2  0
 20 21  1  0
 21 22  2  0
 22 23  1  0
 23 24  2  0
 24 25  1  0
 17 26  1  0
 26 27  1  0
 27 28  1  0
 28  2  1  0
 27  4  2  0
 16 10  1  0
 24 19  1  0
  3 29  1  0
 11 30  1  0
 12 31  1  0
 15 32  1  0
 16 33  1  0
 20 34  1  0
 21 35  1  0
 22 36  1  0
 23 37  1  0
 25 38  1  0
 26 39  1  0
 28 40  1  0
M  END
>  <smiles>  (42) 
O=c1[nH]c2nc(S(=O)(=O)c3ccc(Br)cc3)c(=Nc3ccccc3O)[nH]c2[nH]1

>  <score_type>  (42) 
oracle

>  <origin>  (42) 
adg

>  <m_score__min__energy>  (42) 
-9.7300000000000004

>  <m_primary>  (42) 
energy

$$$$
42:0
     RDKit          3D

 51 53  0  0  0  0  0  0  0  0999 V2000
   63.7740   32.2230   47.9030 C   0  0  0  0  0  0  0  0  0  0  0  0
   62.5850   33.5350   47.7060 S   0  0  0  0  0  0  0  0  0  0  0  0
   62.8030   34.1800   46.3670 O   0  0  0  0  0  0  0  0  0  0  0  0
   62.7670   34.5730   48.7780 O   0  0  0  0  0  0  0  0  0  0  0  0
   60.9740   32.8940   47.7650 N   0  0  0  0  0  0  0  0  0  0  0  0
   60.6790   31.4890   47.8530 C   0  0  0  0  0  0  0  0  0  0  0  0
   59.9940   31.0030   48.9780 C   0  0  0  0  0  0  0  0  0  0  0  0
   59.6690   29.6480   49.0820 C   0  0  0  0  0  0  0  0  0  0  0  0
   60.0340   28.7540   48.0640 C   0  0  0  0  0  0  0  0  0  0  0  0
   59.6200   27.3360   48.1200 C   0  0  0  0  0  0  0  0  0  0  0  0
   60.1460   26.5740   48.9740 O   0  0  0  0  0  0  0  0  0  0  0  0
   58.6180   26.7970   47.2430 N   0  0  0  0  0  0  0  0  0  0  0  0
   58.3040   27.2340   45.9100 C   0  0  0  0  0  0  0  0  0  0  0  0
   58.4160   26.3170   44.8590 C   0  0  0  0  0  0  0  0  0  0  0  0
   58.1470   26.7110   43.5460 C   0  0  0  0  0  0  0  0  0  0  0  0
   57.7730   28.0300   43.2710 C   0  0  0  0  0  0  0  0  0  0  0  0
   57.6770   28.9670   44.3100 C   0  0  0  0  0  0  0  0  0  0  0  0
   57.1440   30.6220   43.9800 S   0  0  0  0  0  0  0  0  0  0  0  0
   57.0920   30.8320   42.4920 O   0  0  0  0  0  0  0  0  0  0  0  0
   55.7520   30.7890   44.5240 O   0  0  0  0  0  0  0  0  0  0  0  0
   58.2060   31.8430   44.6500 N   0  0  0  0  0  0  0  0  0  0  0  0
   58.2030   33.0770   43.8370 C   0  0  0  0  0  0  0  0  0  0  0  0
   58.9450   34.2070   44.5540 C   0  0  0  0  0  0  0  0  0  0  0  0
   58.2780   34.5600   45.8960 C   0  0  0  0  0  0  0  0  0  0  0  0
   57.4300   33.4110   46.4690 C   0  0  0  0  0  0  0  0  0  0  0  0
   58.0190   32.0380   46.1090 C   0  0  0  0  0  0  0  0  0  0  0  0
   57.9530   28.5660   45.6230 C   0  0  0  0  0  0  0  0  0  0  0  0
   60.7600   29.2280   46.9620 C   0  0  0  0  0  0  0  0  0  0  0  0
   61.0750   30.5850   46.8540 C   0  0  0  0  0  0  0  0  0  0  0  0
   63.9417   32.0379   48.9743 H   0  0  0  0  0  0  0  0  0  0  0  0
   63.3917   31.3074   47.4282 H   0  0  0  0  0  0  0  0  0  0  0  0
   64.7227   32.5136   47.4282 H   0  0  0  0  0  0  0  0  0  0  0  0
   60.1940   33.5630   47.5790 H   0  0  0  0  0  0  0  0  0  0  0  0
   59.7106   31.6950   49.7847 H   0  0  0  0  0  0  0  0  0  0  0  0
   59.1252   29.2809   49.9649 H   0  0  0  0  0  0  0  0  0  0  0  0
   58.7176   25.2800   45.0679 H   0  0  0  0  0  0  0  0  0  0  0  0
   58.2296   25.9819   42.7265 H   0  0  0  0  0  0  0  0  0  0  0  0
   57.5535   28.3335   42.2367 H   0  0  0  0  0  0  0  0  0  0  0  0
   58.6972   32.8755   42.8752 H   0  0  0  0  0  0  0  0  0  0  0  0
   57.1604   33.3886   43.6763 H   0  0  0  0  0  0  0  0  0  0  0  0
   59.9814   33.8903   44.7427 H   0  0  0  0  0  0  0  0  0  0  0  0
   58.9181   35.0990   43.9109 H   0  0  0  0  0  0  0  0  0  0  0  0
   59.0647   34.8107   46.6228 H   0  0  0  0  0  0  0  0  0  0  0  0
   57.6012   35.4076   45.7131 H   0  0  0  0  0  0  0  0  0  0  0  0
   57.3924   33.5071   47.5642 H   0  0  0  0  0  0  0  0  0  0  0  0
   56.4221   33.4775   46.0335 H   0  0  0  0  0  0  0  0  0  0  0  0
   58.9968   31.9374   46.6027 H   0  0  0  0  0  0  0  0  0  0  0  0
   57.3019   31.2767   46.4498 H   0  0  0  0  0  0  0  0  0  0  0  0
   57.8947   29.3008   46.4395 H   0  0  0  0  0  0  0  0  0  0  0  0
   61.0834   28.5275   46.1780 H   0  0  0  0  0  0  0  0  0  0  0  0
   61.6369   30.9476   45.9806 H   0  0  0  0  0  0  0  0  0  0  0  0
  1  2  1  0
  2  3  2  0
  2  4  2  0
  2  5  1  0
  5  6  1  0
  6  7  2  0
  7  8  1  0
  8  9  2  0
  9 10  1  0
 10 11  2  0
 10 12  1  0
 12 13  1  0
 13 14  2  0
 14 15  1  0
 15 16  2  0
 16 17  1  0
 17 18  1  0
 18 19  2  0
 18 20  2  0
 18 21  1  0
 21 22  1  0
 22 23  1  0
 23 24  1  0
 24 25  1  0
 25 26  1  0
 17 27  2  0
  9 28  1  0
 28 29  2  0
 29  6  1  0
 27 13  1  0
 26 21  1  0
  1 30  1  0
  1 31  1  0
  1 32  1  0
  5 33  1  0
  7 34  1  0
  8 35  1  0
 14 36  1  0
 15 37  1  0
 16 38  1  0
 22 39  1  0
 22 40  1  0
 23 41  1  0
 23 42  1  0
 24 43  1  0
 24 44  1  0
 25 45  1  0
 25 46  1  0
 26 47  1  0
 26 48  1  0
 27 49  1  0
 28 50  1  0
 29 51  1  0
M  CHG  1  12  -1
M  END
>  <UniqueID>  (43) 
38

>  <SMILES>  (43) 
CS(=O)(=O)Nc1ccc(C(=O)[N-]c2cccc(S(=O)(=O)N3CCCCC3)c2)cc1

>  <Energy>  (43) 
62.433842533415955

>  <Genealogy>  (43) 
CS(=O)(=O)Nc1ccc(C(=O)[N-]c2cccc(S(=O)(=O)N3CCCCC3)c2)cc1 (protonated)
CS(=O)(=O)Nc1ccc(C(=O)[N-]c2cccc(S(=O)(=O)N3CCCCC3)c2)cc1 (3D coordinates assigned)
CS(=O)(=O)Nc1ccc(C(=O)[N-]c2cccc(S(=O)(=O)N3CCCCC3)c2)cc1 (nonaromatic ring conformer: 62.433842533415955 kcal/mol)

>  <smiles>  (43) 
CS(=O)(=O)Nc1ccc(C(=O)Nc2cccc(S(=O)(=O)N3CCCCC3)c2)cc1

>  <score_type>  (43) 
oracle

>  <origin>  (43) 
adg

>  <m_score__min__energy>  (43) 
-11.02

>  <m_primary>  (43) 
energy

$$$$
43:0
     RDKit          3D

 67 71  0  0  0  0  0  0  0  0999 V2000
   55.5300   28.8170   45.0280 O   0  0  0  0  0  0  0  0  0  0  0  0
   56.5130   29.4850   44.6080 C   0  0  0  0  0  0  0  0  0  0  0  0
   57.3800   28.9210   43.5180 C   0  0  0  0  0  0  0  0  0  0  0  0
   57.8200   27.4840   43.8220 C   0  0  0  0  0  0  0  0  0  0  0  0
   57.9270   27.2470   45.2720 N   0  0  0  0  0  0  0  0  0  0  0  0
   57.2010   26.4020   46.0600 C   0  0  0  0  0  0  0  0  0  0  0  0
   56.0030   25.5990   45.5920 C   0  0  0  0  0  0  0  0  0  0  0  0
   56.3270   24.2240   45.1420 N   0  0  0  0  0  0  0  0  0  0  0  0
   56.6390   24.1280   43.7020 C   0  0  0  0  0  0  0  0  0  0  0  0
   56.9760   22.6850   43.3220 C   0  0  0  0  0  0  0  0  0  0  0  0
   55.9100   21.8280   43.6650 O   0  0  0  0  0  0  0  0  0  0  0  0
   55.7490   21.8160   45.0690 C   0  0  0  0  0  0  0  0  0  0  0  0
   55.3560   23.2030   45.5930 C   0  0  0  0  0  0  0  0  0  0  0  0
   57.6650   26.3300   47.3380 N   0  0  0  0  0  0  0  0  0  0  0  0
   58.6800   27.2100   47.3460 C   0  0  0  0  0  0  0  0  0  0  0  0
   59.4950   27.5430   48.4220 C   0  0  0  0  0  0  0  0  0  0  0  0
   60.4710   28.5400   48.2290 C   0  0  0  0  0  0  0  0  0  0  0  0
   61.3470   28.9540   49.2840 N   0  0  0  0  0  0  0  0  0  0  0  0
   61.3430   30.5050   50.0850 S   0  0  0  0  0  0  0  0  0  0  0  0
   62.1460   30.3930   51.3500 O   0  0  0  0  0  0  0  0  0  0  0  0
   59.9270   30.8570   50.4460 O   0  0  0  0  0  0  0  0  0  0  0  0
   62.0240   31.8020   49.1010 C   0  0  0  0  0  0  0  0  0  0  0  0
   61.8790   33.1450   49.4890 C   0  0  0  0  0  0  0  0  0  0  0  0
   62.3550   34.1700   48.6650 C   0  0  0  0  0  0  0  0  0  0  0  0
   62.9960   33.8630   47.4590 C   0  0  0  0  0  0  0  0  0  0  0  0
   63.1820   32.5230   47.0890 C   0  0  0  0  0  0  0  0  0  0  0  0
   62.7090   31.4990   47.9150 C   0  0  0  0  0  0  0  0  0  0  0  0
   60.6500   29.1080   46.9420 C   0  0  0  0  0  0  0  0  0  0  0  0
   59.8320   28.7220   45.8630 C   0  0  0  0  0  0  0  0  0  0  0  0
   58.8380   27.7740   46.1140 C   0  0  0  0  0  0  0  0  0  0  0  0
   56.7540   30.7770   45.1740 N   0  0  0  0  0  0  0  0  0  0  0  0
   57.7900   31.0680   46.1660 C   0  0  0  0  0  0  0  0  0  0  0  0
   58.3760   32.4480   45.9880 C   0  0  0  0  0  0  0  0  0  0  0  0
   58.5160   32.9760   44.6900 C   0  0  0  0  0  0  0  0  0  0  0  0
   59.0280   34.2630   44.4990 C   0  0  0  0  0  0  0  0  0  0  0  0
   59.3930   35.0440   45.5950 C   0  0  0  0  0  0  0  0  0  0  0  0
   59.2390   34.5420   46.8870 C   0  0  0  0  0  0  0  0  0  0  0  0
   58.7340   33.2510   47.0950 C   0  0  0  0  0  0  0  0  0  0  0  0
   58.5320   32.6960   48.7530 Cl  0  0  0  0  0  0  0  0  0  0  0  0
   56.8143   28.9275   42.5747 H   0  0  0  0  0  0  0  0  0  0  0  0
   58.2828   29.5450   43.4438 H   0  0  0  0  0  0  0  0  0  0  0  0
   57.0812   26.7871   43.3996 H   0  0  0  0  0  0  0  0  0  0  0  0
   58.8111   27.3243   43.3723 H   0  0  0  0  0  0  0  0  0  0  0  0
   55.2885   25.5291   46.4254 H   0  0  0  0  0  0  0  0  0  0  0  0
   55.5920   26.1271   44.7189 H   0  0  0  0  0  0  0  0  0  0  0  0
   55.7674   24.4616   43.1197 H   0  0  0  0  0  0  0  0  0  0  0  0
   57.5080   24.7659   43.4829 H   0  0  0  0  0  0  0  0  0  0  0  0
   57.1540   22.6271   42.2380 H   0  0  0  0  0  0  0  0  0  0  0  0
   57.8777   22.3718   43.8687 H   0  0  0  0  0  0  0  0  0  0  0  0
   54.9610   21.0956   45.3339 H   0  0  0  0  0  0  0  0  0  0  0  0
   56.7067   21.5284   45.5275 H   0  0  0  0  0  0  0  0  0  0  0  0
   54.3563   23.4626   45.2145 H   0  0  0  0  0  0  0  0  0  0  0  0
   55.3518   23.1787   46.6927 H   0  0  0  0  0  0  0  0  0  0  0  0
   59.3810   27.0428   49.3950 H   0  0  0  0  0  0  0  0  0  0  0  0
   61.3899   33.3906   50.4432 H   0  0  0  0  0  0  0  0  0  0  0  0
   62.2253   35.2202   48.9654 H   0  0  0  0  0  0  0  0  0  0  0  0
   63.3529   34.6707   46.8031 H   0  0  0  0  0  0  0  0  0  0  0  0
   63.6995   32.2780   46.1498 H   0  0  0  0  0  0  0  0  0  0  0  0
   62.8751   30.4488   47.6330 H   0  0  0  0  0  0  0  0  0  0  0  0
   61.4377   29.8595   46.7847 H   0  0  0  0  0  0  0  0  0  0  0  0
   59.9708   29.1512   44.8597 H   0  0  0  0  0  0  0  0  0  0  0  0
   57.3485   30.9972   47.1710 H   0  0  0  0  0  0  0  0  0  0  0  0
   58.6006   30.3364   46.0334 H   0  0  0  0  0  0  0  0  0  0  0  0
   58.2203   32.3714   43.8199 H   0  0  0  0  0  0  0  0  0  0  0  0
   59.1433   34.6610   43.4800 H   0  0  0  0  0  0  0  0  0  0  0  0
   59.8014   36.0537   45.4409 H   0  0  0  0  0  0  0  0  0  0  0  0
   59.5162   35.1646   47.7504 H   0  0  0  0  0  0  0  0  0  0  0  0
  1  2  2  0
  2  3  1  0
  3  4  1  0
  4  5  1  0
  5  6  1  0
  6  7  1  0
  7  8  1  0
  8  9  1  0
  9 10  1  0
 10 11  1  0
 11 12  1  0
 12 13  1  0
  6 14  2  0
 14 15  1  0
 15 16  2  0
 16 17  1  0
 17 18  1  0
 18 19  1  0
 19 20  2  0
 19 21  2  0
 19 22  1  0
 22 23  2  0
 23 24  1  0
 24 25  2  0
 25 26  1  0
 26 27  2  0
 17 28  2  0
 28 29  1  0
 29 30  2  0
  2 31  1  0
 31 32  1  0
 32 33  1  0
 33 34  2  0
 34 35  1  0
 35 36  2  0
 36 37  1  0
 37 38  2  0
 38 39  1  0
 30  5  1  0
 38 33  1  0
 13  8  1  0
 30 15  1  0
 27 22  1  0
  3 40  1  0
  3 41  1  0
  4 42  1  0
  4 43  1  0
  7 44  1  0
  7 45  1  0
  9 46  1  0
  9 47  1  0
 10 48  1  0
 10 49  1  0
 12 50  1  0
 12 51  1  0
 13 52  1  0
 13 53  1  0
 16 54  1  0
 23 55  1  0
 24 56  1  0
 25 57  1  0
 26 58  1  0
 27 59  1  0
 28 60  1  0
 29 61  1  0
 32 62  1  0
 32 63  1  0
 34 64  1  0
 35 65  1  0
 36 66  1  0
 37 67  1  0
M  CHG  2  18  -1  31  -1
M  END
>  <UniqueID>  (44) 
39

>  <SMILES>  (44) 
O=C(CCn1c(CN2CCOCC2)nc2cc([N-]S(=O)(=O)c3ccccc3)ccc21)[N-]Cc1ccccc1Cl

>  <Energy>  (44) 
120.34448334692823

>  <Genealogy>  (44) 
O=C(CCn1c(CN2CCOCC2)nc2cc([N-]S(=O)(=O)c3ccccc3)ccc21)[N-]Cc1ccccc1Cl (protonated)
O=C(CCn1c(CN2CCOCC2)nc2cc([N-]S(=O)(=O)c3ccccc3)ccc21)[N-]Cc1ccccc1Cl (3D coordinates assigned)
O=C(CCn1c(CN2CCOCC2)nc2cc([N-]S(=O)(=O)c3ccccc3)ccc21)[N-]Cc1ccccc1Cl (nonaromatic ring conformer: 120.34448334692823 kcal/mol)

>  <smiles>  (44) 
O=C(CCn1c(CN2CCOCC2)nc2cc(NS(=O)(=O)c3ccccc3)ccc21)NCc1ccccc1Cl

>  <score_type>  (44) 
oracle

>  <origin>  (44) 
adg

>  <m_score__min__energy>  (44) 
-13.41

>  <m_primary>  (44) 
energy

$$$$
44:0
     RDKit          3D

 45 47  0  0  0  0  0  0  0  0999 V2000
   60.0953   32.2974   46.4725 H   0  0  0  0  0  0  0  0  0  0  0  0
   59.2760   31.7720   45.9600 C   0  0  0  0  0  0  0  0  0  0  0  0
   59.3060   30.3820   45.8510 C   0  0  0  0  0  0  0  0  0  0  0  0
   60.1474   29.8204   46.2831 H   0  0  0  0  0  0  0  0  0  0  0  0
   58.2760   29.6930   45.1970 C   0  0  0  0  0  0  0  0  0  0  0  0
   58.3000   28.2570   45.1820 N   0  0  0  0  0  0  0  0  0  0  0  0
   58.7850   27.5470   43.9930 C   0  0  0  0  0  0  0  0  0  0  0  0
   58.8584   28.2511   43.1511 H   0  0  0  0  0  0  0  0  0  0  0  0
   59.7761   27.1185   44.2031 H   0  0  0  0  0  0  0  0  0  0  0  0
   57.8110   26.4210   43.6320 C   0  0  0  0  0  0  0  0  0  0  0  0
   56.8702   26.8702   43.2812 H   0  0  0  0  0  0  0  0  0  0  0  0
   58.2892   25.8092   42.8529 H   0  0  0  0  0  0  0  0  0  0  0  0
   57.4970   25.4880   44.8260 C   0  0  0  0  0  0  0  0  0  0  0  0
   56.4057   25.3680   44.8937 H   0  0  0  0  0  0  0  0  0  0  0  0
   58.0161   24.5377   44.6327 H   0  0  0  0  0  0  0  0  0  0  0  0
   58.0110   26.0090   46.1780 C   0  0  0  0  0  0  0  0  0  0  0  0
   57.4882   25.4784   46.9874 H   0  0  0  0  0  0  0  0  0  0  0  0
   59.0950   25.8289   46.2270 H   0  0  0  0  0  0  0  0  0  0  0  0
   57.7670   27.5150   46.3310 C   0  0  0  0  0  0  0  0  0  0  0  0
   56.6849   27.6977   46.4058 H   0  0  0  0  0  0  0  0  0  0  0  0
   58.2817   27.8614   47.2393 H   0  0  0  0  0  0  0  0  0  0  0  0
   57.2040   30.4150   44.6290 C   0  0  0  0  0  0  0  0  0  0  0  0
   56.1610   29.7480   43.8950 N   0  0  0  0  0  0  0  0  0  0  0  0
   55.1430   29.3310   44.4860 O   0  0  0  0  0  0  0  0  0  0  0  0
   56.1960   29.7010   42.5210 O   0  0  0  0  0  0  0  0  0  0  0  0
   57.1750   31.8160   44.7580 C   0  0  0  0  0  0  0  0  0  0  0  0
   56.3316   32.3809   44.3343 H   0  0  0  0  0  0  0  0  0  0  0  0
   58.2070   32.5060   45.4200 C   0  0  0  0  0  0  0  0  0  0  0  0
   58.1680   33.9830   45.5440 C   0  0  0  0  0  0  0  0  0  0  0  0
   57.1200   34.6090   45.2250 O   0  0  0  0  0  0  0  0  0  0  0  0
   59.3510   34.7000   45.9340 N   0  0  0  0  0  0  0  0  0  0  0  0
   60.2340   34.3830   46.8430 C   0  0  0  0  0  0  0  0  0  0  0  0
   59.8850   34.5500   48.1880 C   0  0  0  0  0  0  0  0  0  0  0  0
   58.8892   34.9329   48.4560 H   0  0  0  0  0  0  0  0  0  0  0  0
   60.8020   34.2300   49.1860 C   0  0  0  0  0  0  0  0  0  0  0  0
   60.5306   34.3562   50.2445 H   0  0  0  0  0  0  0  0  0  0  0  0
   62.0630   33.7500   48.8420 C   0  0  0  0  0  0  0  0  0  0  0  0
   62.7915   33.4931   49.6251 H   0  0  0  0  0  0  0  0  0  0  0  0
   62.3960   33.5970   47.4890 C   0  0  0  0  0  0  0  0  0  0  0  0
   63.7740   33.1440   47.1060 C   0  0  0  0  0  0  0  0  0  0  0  0
   64.3623   32.9506   48.0151 H   0  0  0  0  0  0  0  0  0  0  0  0
   63.7045   32.2214   46.5110 H   0  0  0  0  0  0  0  0  0  0  0  0
   64.2655   33.9279   46.5110 H   0  0  0  0  0  0  0  0  0  0  0  0
   61.4900   33.9350   46.5230 N   0  0  0  0  0  0  0  0  0  0  0  0
   61.8050   33.8810   45.5310 H   0  0  0  0  0  0  0  0  0  0  0  0
  1  2  1  0
  2  3  2  0
  3  4  1  0
  3  5  1  0
  5  6  1  0
  6  7  1  0
  7  8  1  0
  7  9  1  0
  7 10  1  0
 10 11  1  0
 10 12  1  0
 10 13  1  0
 13 14  1  0
 13 15  1  0
 13 16  1  0
 16 17  1  0
 16 18  1  0
 16 19  1  0
 19 20  1  0
 19 21  1  0
  5 22  2  0
 22 23  1  0
 23 24  2  0
 23 25  1  0
 22 26  1  0
 26 27  1  0
 26 28  2  0
 28 29  1  0
 29 30  2  0
 29 31  1  0
 31 32  2  0
 32 33  1  0
 33 34  1  0
 33 35  2  0
 35 36  1  0
 35 37  1  0
 37 38  1  0
 37 39  2  0
 39 40  1  0
 40 41  1  0
 40 42  1  0
 40 43  1  0
 39 44  1  0
 44 45  1  0
 28  2  1  0
 44 32  1  0
 19  6  1  0
M  CHG  2  23   1  25  -1
M  END
>  <UniqueID>  (45) 
40

>  <SMILES>  (45) 
Cc1ccc/c(=N/C(=O)c2ccc(N3CCCCC3)c([N+](=O)[O-])c2)[nH]1

>  <Energy>  (45) 
63.58332880389387

>  <Genealogy>  (45) 
Cc1ccc/c(=N/C(=O)c2ccc(N3CCCCC3)c([N+](=O)[O-])c2)[nH]1 (cis-trans isomerization)
Cc1ccc/c(=N/C(=O)c2ccc(N3CCCCC3)c([N+](=O)[O-])c2)[nH]1 (3D coordinates assigned)
Cc1ccc/c(=N/C(=O)c2ccc(N3CCCCC3)c([N+](=O)[O-])c2)[nH]1 (nonaromatic ring conformer: 63.58332880389387 kcal/mol)

>  <smiles>  (45) 
Cc1cccc(=NC(=O)c2ccc(N3CCCCC3)c([N+](=O)[O-])c2)[nH]1

>  <score_type>  (45) 
oracle

>  <origin>  (45) 
adg

>  <m_score__min__energy>  (45) 
-8.7899999999999991

>  <m_primary>  (45) 
energy

$$$$
45:0
     RDKit          3D

 41 42  0  0  0  0  0  0  0  0999 V2000
   58.6680   21.8440   46.7350 H   0  0  0  0  0  0  0  0  0  0  0  0
   57.6890   22.0050   46.9390 O   0  0  0  0  0  0  0  0  0  0  0  0
   57.0660   23.2250   46.6700 C   0  0  0  0  0  0  0  0  0  0  0  0
   57.7940   24.2520   46.0570 C   0  0  0  0  0  0  0  0  0  0  0  0
   59.1180   24.0260   45.6910 O   0  0  0  0  0  0  0  0  0  0  0  0
   57.1800   25.4920   45.7980 C   0  0  0  0  0  0  0  0  0  0  0  0
   57.9140   26.5930   45.1340 C   0  0  0  0  0  0  0  0  0  0  0  0
   57.7197   26.7649   44.0650 H   0  0  0  0  0  0  0  0  0  0  0  0
   58.8060   27.4020   45.7480 C   0  0  0  0  0  0  0  0  0  0  0  0
   59.4440   28.5030   44.9810 C   0  0  0  0  0  0  0  0  0  0  0  0
   60.6950   28.6610   45.0330 O   0  0  0  0  0  0  0  0  0  0  0  0
   58.6250   29.3880   44.1990 N   0  0  0  0  0  0  0  0  0  0  0  0
   58.0030   30.4680   44.5860 C   0  0  0  0  0  0  0  0  0  0  0  0
   58.5420   31.5810   45.2140 C   0  0  0  0  0  0  0  0  0  0  0  0
   59.5886   31.7608   45.5008 H   0  0  0  0  0  0  0  0  0  0  0  0
   57.4490   32.4120   45.3940 C   0  0  0  0  0  0  0  0  0  0  0  0
   57.4880   33.7830   45.9810 C   0  0  0  0  0  0  0  0  0  0  0  0
   57.4860   33.7121   47.0787 H   0  0  0  0  0  0  0  0  0  0  0  0
   58.4012   34.2984   45.6485 H   0  0  0  0  0  0  0  0  0  0  0  0
   56.6056   34.3494   45.6485 H   0  0  0  0  0  0  0  0  0  0  0  0
   56.3350   31.8430   44.8890 N   0  0  0  0  0  0  0  0  0  0  0  0
   56.6830   30.6660   44.3940 N   0  0  0  0  0  0  0  0  0  0  0  0
   55.7300   29.7200   43.8230 C   0  0  0  0  0  0  0  0  0  0  0  0
   55.2025   29.1964   44.6339 H   0  0  0  0  0  0  0  0  0  0  0  0
   55.0018   30.2627   43.2023 H   0  0  0  0  0  0  0  0  0  0  0  0
   56.2673   28.9878   43.2023 H   0  0  0  0  0  0  0  0  0  0  0  0
   59.1300   27.2580   47.1880 C   0  0  0  0  0  0  0  0  0  0  0  0
   59.8370   26.2910   47.5880 O   0  0  0  0  0  0  0  0  0  0  0  0
   58.6370   28.1920   48.1050 O   0  0  0  0  0  0  0  0  0  0  0  0
   58.8760   29.5890   47.9790 C   0  0  0  0  0  0  0  0  0  0  0  0
   58.3602   30.1230   48.7907 H   0  0  0  0  0  0  0  0  0  0  0  0
   58.4955   29.9379   47.0077 H   0  0  0  0  0  0  0  0  0  0  0  0
   60.3690   29.8620   48.0630 C   0  0  0  0  0  0  0  0  0  0  0  0
   60.6728   29.9175   49.1188 H   0  0  0  0  0  0  0  0  0  0  0  0
   60.9189   29.0495   47.5655 H   0  0  0  0  0  0  0  0  0  0  0  0
   60.5958   30.8165   47.5655 H   0  0  0  0  0  0  0  0  0  0  0  0
   55.8230   25.6520   46.1210 C   0  0  0  0  0  0  0  0  0  0  0  0
   55.1700   26.8500   45.8520 O   0  0  0  0  0  0  0  0  0  0  0  0
   55.1380   24.6390   46.7110 N   0  0  0  0  0  0  0  0  0  0  0  0
   55.7190   23.4450   46.9970 C   0  0  0  0  0  0  0  0  0  0  0  0
   55.0390   22.5410   47.5520 O   0  0  0  0  0  0  0  0  0  0  0  0
  1  2  1  0
  2  3  1  0
  3  4  2  0
  4  5  1  0
  4  6  1  0
  6  7  1  0
  7  8  1  0
  7  9  2  3
  9 10  1  0
 10 11  2  0
 10 12  1  0
 12 13  2  0
 13 14  1  0
 14 15  1  0
 14 16  2  0
 16 17  1  0
 17 18  1  0
 17 19  1  0
 17 20  1  0
 16 21  1  0
 21 22  1  0
 22 23  1  0
 23 24  1  0
 23 25  1  0
 23 26  1  0
  9 27  1  0
 27 28  2  0
 27 29  1  0
 29 30  1  0
 30 31  1  0
 30 32  1  0
 30 33  1  0
 33 34  1  0
 33 35  1  0
 33 36  1  0
  6 37  2  0
 37 38  1  0
 37 39  1  0
 39 40  1  0
 40 41  2  0
 40  3  1  0
 22 13  1  0
M  CHG  4   5  -1  21  -1  38  -1  39  -1
M  END
>  <UniqueID>  (46) 
41

>  <SMILES>  (46) 
CCOC(=O)C(=Cc1c([O-])[n-]c(=O)c(O)c1[O-])C(=O)/N=c1\cc(C)[n-]n1C

>  <Energy>  (46) 
81.71875782524401

>  <Genealogy>  (46) 
CCOC(=O)C(=Cc1c([O-])[n-]c(=O)c(O)c1[O-])C(=O)N=c1cc(C)[n-]n1C (protonated)
CCOC(=O)C(=Cc1c([O-])[n-]c(=O)c(O)c1[O-])C(=O)/N=c1\cc(C)[n-]n1C (cis-trans isomerization)
CCOC(=O)C(=Cc1c([O-])[n-]c(=O)c(O)c1[O-])C(=O)/N=c1\cc(C)[n-]n1C (3D coordinates assigned)
CCOC(=O)C(=Cc1c([O-])[n-]c(=O)c(O)c1[O-])C(=O)/N=c1\cc(C)[n-]n1C (optimized conformer: 81.71875782524401 kcal/mol)

>  <smiles>  (46) 
CCOC(=O)C(=Cc1c(O)[nH]c(=O)c(O)c1O)C(=O)N=c1cc(C)[nH]n1C

>  <score_type>  (46) 
oracle

>  <origin>  (46) 
adg

>  <m_score__min__energy>  (46) 
-14.77

>  <m_primary>  (46) 
energy

$$$$
46:0
     RDKit          3D

 61 64  0  0  0  0  0  0  0  0999 V2000
   58.9020   28.1480   44.0730 O   0  0  0  0  0  0  0  0  0  0  0  0
   59.2630   28.5630   45.2060 C   0  0  0  0  0  0  0  0  0  0  0  0
   58.9230   27.7630   46.4350 C   0  0  0  0  0  0  0  0  0  0  0  0
   57.4130   27.7040   46.7060 C   0  0  0  0  0  0  0  0  0  0  0  0
   56.9370   26.3210   46.7840 N   0  0  0  0  0  0  0  0  0  0  0  0
   55.8780   25.7630   46.0020 C   0  0  0  0  0  0  0  0  0  0  0  0
   54.7650   26.3460   45.9960 O   0  0  0  0  0  0  0  0  0  0  0  0
   56.0410   24.5280   45.2110 C   0  0  0  0  0  0  0  0  0  0  0  0
   57.3020   24.2000   44.7000 C   0  0  0  0  0  0  0  0  0  0  0  0
   57.4590   23.0750   43.8920 C   0  0  0  0  0  0  0  0  0  0  0  0
   56.3470   22.2840   43.6000 C   0  0  0  0  0  0  0  0  0  0  0  0
   55.1270   22.6180   44.0890 N   0  0  0  0  0  0  0  0  0  0  0  0
   54.9430   23.7130   44.8740 C   0  0  0  0  0  0  0  0  0  0  0  0
   53.7810   23.9980   45.2690 O   0  0  0  0  0  0  0  0  0  0  0  0
   59.9890   29.7950   45.2930 N   0  0  0  0  0  0  0  0  0  0  0  0
   59.5440   30.9880   45.9510 C   0  0  0  0  0  0  0  0  0  0  0  0
   60.2680   31.4770   47.0550 C   0  0  0  0  0  0  0  0  0  0  0  0
   59.8190   32.5920   47.7720 C   0  0  0  0  0  0  0  0  0  0  0  0
   60.7040   33.1710   49.1920 S   0  0  0  0  0  0  0  0  0  0  0  0
   59.8250   34.1450   49.9260 O   0  0  0  0  0  0  0  0  0  0  0  0
   60.9580   32.0060   50.1120 O   0  0  0  0  0  0  0  0  0  0  0  0
   62.2160   33.9800   48.8090 N   0  0  0  0  0  0  0  0  0  0  0  0
   62.5830   33.8720   47.3870 C   0  0  0  0  0  0  0  0  0  0  0  0
   63.5050   32.6710   47.1060 C   0  0  0  0  0  0  0  0  0  0  0  0
   63.3920   31.6930   48.1130 O   0  0  0  0  0  0  0  0  0  0  0  0
   63.8840   32.1930   49.3420 C   0  0  0  0  0  0  0  0  0  0  0  0
   63.3250   33.5820   49.6950 C   0  0  0  0  0  0  0  0  0  0  0  0
   58.6230   33.2100   47.3960 C   0  0  0  0  0  0  0  0  0  0  0  0
   57.8870   32.7280   46.3130 C   0  0  0  0  0  0  0  0  0  0  0  0
   58.3240   31.6080   45.5740 C   0  0  0  0  0  0  0  0  0  0  0  0
   57.5280   31.1330   44.4550 N   0  0  0  0  0  0  0  0  0  0  0  0
   57.7470   31.5500   43.0760 C   0  0  0  0  0  0  0  0  0  0  0  0
   56.6750   30.8490   42.2520 C   0  0  0  0  0  0  0  0  0  0  0  0
   56.2300   29.6710   43.1050 C   0  0  0  0  0  0  0  0  0  0  0  0
   56.5010   30.1020   44.5380 C   0  0  0  0  0  0  0  0  0  0  0  0
   59.2967   26.7371   46.3013 H   0  0  0  0  0  0  0  0  0  0  0  0
   59.3953   28.2598   47.2953 H   0  0  0  0  0  0  0  0  0  0  0  0
   57.2006   28.2098   47.6595 H   0  0  0  0  0  0  0  0  0  0  0  0
   56.8927   28.2025   45.8749 H   0  0  0  0  0  0  0  0  0  0  0  0
   58.1711   24.8314   44.9365 H   0  0  0  0  0  0  0  0  0  0  0  0
   58.4486   22.8136   43.4890 H   0  0  0  0  0  0  0  0  0  0  0  0
   56.4603   21.3880   42.9721 H   0  0  0  0  0  0  0  0  0  0  0  0
   61.1992   30.9760   47.3582 H   0  0  0  0  0  0  0  0  0  0  0  0
   61.6641   33.7580   46.7931 H   0  0  0  0  0  0  0  0  0  0  0  0
   63.1308   34.7856   47.1127 H   0  0  0  0  0  0  0  0  0  0  0  0
   63.2274   32.2244   46.1399 H   0  0  0  0  0  0  0  0  0  0  0  0
   64.5449   33.0290   47.0846 H   0  0  0  0  0  0  0  0  0  0  0  0
   63.6071   31.4905   50.1419 H   0  0  0  0  0  0  0  0  0  0  0  0
   64.9748   32.2939   49.2422 H   0  0  0  0  0  0  0  0  0  0  0  0
   62.9598   33.5632   50.7324 H   0  0  0  0  0  0  0  0  0  0  0  0
   64.1365   34.3137   49.5682 H   0  0  0  0  0  0  0  0  0  0  0  0
   58.2593   34.0828   47.9581 H   0  0  0  0  0  0  0  0  0  0  0  0
   56.9498   33.2298   46.0303 H   0  0  0  0  0  0  0  0  0  0  0  0
   57.6459   32.6416   42.9858 H   0  0  0  0  0  0  0  0  0  0  0  0
   58.7578   31.2872   42.7306 H   0  0  0  0  0  0  0  0  0  0  0  0
   55.8308   31.5272   42.0589 H   0  0  0  0  0  0  0  0  0  0  0  0
   57.0527   30.5285   41.2698 H   0  0  0  0  0  0  0  0  0  0  0  0
   55.1588   29.4690   42.9575 H   0  0  0  0  0  0  0  0  0  0  0  0
   56.7628   28.7450   42.8430 H   0  0  0  0  0  0  0  0  0  0  0  0
   55.5867   30.5080   44.9953 H   0  0  0  0  0  0  0  0  0  0  0  0
   56.8263   29.2556   45.1607 H   0  0  0  0  0  0  0  0  0  0  0  0
  1  2  2  0
  2  3  1  0
  3  4  1  0
  4  5  1  0
  5  6  1  0
  6  7  2  0
  6  8  1  0
  8  9  2  0
  9 10  1  0
 10 11  2  0
 11 12  1  0
 12 13  1  0
 13 14  2  0
  2 15  1  0
 15 16  1  0
 16 17  2  0
 17 18  1  0
 18 19  1  0
 19 20  2  0
 19 21  2  0
 19 22  1  0
 22 23  1  0
 23 24  1  0
 24 25  1  0
 25 26  1  0
 26 27  1  0
 18 28  2  0
 28 29  1  0
 29 30  2  0
 30 31  1  0
 31 32  1  0
 32 33  1  0
 33 34  1  0
 34 35  1  0
 13  8  1  0
 30 16  1  0
 35 31  1  0
 27 22  1  0
  3 36  1  0
  3 37  1  0
  4 38  1  0
  4 39  1  0
  9 40  1  0
 10 41  1  0
 11 42  1  0
 17 43  1  0
 23 44  1  0
 23 45  1  0
 24 46  1  0
 24 47  1  0
 26 48  1  0
 26 49  1  0
 27 50  1  0
 27 51  1  0
 28 52  1  0
 29 53  1  0
 32 54  1  0
 32 55  1  0
 33 56  1  0
 33 57  1  0
 34 58  1  0
 34 59  1  0
 35 60  1  0
 35 61  1  0
M  CHG  3   5  -1  12  -1  15  -1
M  END
>  <UniqueID>  (47) 
42

>  <SMILES>  (47) 
O=C(CC[N-]C(=O)c1ccc[n-]c1=O)[N-]c1cc(S(=O)(=O)N2CCOCC2)ccc1N1CCCC1

>  <Energy>  (47) 
83.33047659844166

>  <Genealogy>  (47) 
O=C(CC[N-]C(=O)c1ccc[n-]c1=O)[N-]c1cc(S(=O)(=O)N2CCOCC2)ccc1N1CCCC1 (protonated)
O=C(CC[N-]C(=O)c1ccc[n-]c1=O)[N-]c1cc(S(=O)(=O)N2CCOCC2)ccc1N1CCCC1 (3D coordinates assigned)
O=C(CC[N-]C(=O)c1ccc[n-]c1=O)[N-]c1cc(S(=O)(=O)N2CCOCC2)ccc1N1CCCC1 (nonaromatic ring conformer: 83.33047659844166 kcal/mol)

>  <smiles>  (47) 
O=C(CCNC(=O)c1ccc[nH]c1=O)Nc1cc(S(=O)(=O)N2CCOCC2)ccc1N1CCCC1

>  <score_type>  (47) 
oracle

>  <origin>  (47) 
adg

>  <m_score__min__energy>  (47) 
-14.34

>  <m_primary>  (47) 
energy

$$$$
47:0
     RDKit          3D

 59 61  0  0  0  0  0  0  0  0999 V2000
   63.5690   33.1150   46.8590 C   0  0  0  0  0  0  0  0  0  0  0  0
   64.1440   33.3620   48.2530 C   0  0  0  0  0  0  0  0  0  0  0  0
   63.0730   33.4250   49.2640 N   0  0  0  0  0  0  0  0  0  0  0  0
   62.1790   34.5980   49.2710 C   0  0  0  0  0  0  0  0  0  0  0  0
   60.7250   34.1870   49.2800 C   0  0  0  0  0  0  0  0  0  0  0  0
   60.1660   33.9920   50.3950 O   0  0  0  0  0  0  0  0  0  0  0  0
   59.9270   34.0470   48.0320 C   0  0  0  0  0  0  0  0  0  0  0  0
   58.6910   33.3780   48.0190 C   0  0  0  0  0  0  0  0  0  0  0  0
   57.9850   33.2070   46.8260 C   0  0  0  0  0  0  0  0  0  0  0  0
   58.5030   33.7070   45.6160 C   0  0  0  0  0  0  0  0  0  0  0  0
   57.8490   33.5280   44.3880 O   0  0  0  0  0  0  0  0  0  0  0  0
   57.8630   32.3190   43.6370 C   0  0  0  0  0  0  0  0  0  0  0  0
   59.7180   34.3940   45.6280 C   0  0  0  0  0  0  0  0  0  0  0  0
   60.4210   34.5720   46.8220 C   0  0  0  0  0  0  0  0  0  0  0  0
   62.9100   32.3100   50.1810 C   0  0  0  0  0  0  0  0  0  0  0  0
   63.5090   32.3110   51.2900 O   0  0  0  0  0  0  0  0  0  0  0  0
   62.0380   31.1600   49.8860 C   0  0  0  0  0  0  0  0  0  0  0  0
   61.9220   30.0780   50.7670 C   0  0  0  0  0  0  0  0  0  0  0  0
   61.1230   28.9890   50.4040 C   0  0  0  0  0  0  0  0  0  0  0  0
   61.0620   27.9810   51.1530 O   0  0  0  0  0  0  0  0  0  0  0  0
   60.4260   29.0100   49.1890 C   0  0  0  0  0  0  0  0  0  0  0  0
   60.5330   30.1270   48.3450 C   0  0  0  0  0  0  0  0  0  0  0  0
   59.8370   30.1620   47.0340 C   0  0  0  0  0  0  0  0  0  0  0  0
   58.6160   30.4690   46.9990 O   0  0  0  0  0  0  0  0  0  0  0  0
   60.4760   29.8200   45.7950 N   0  0  0  0  0  0  0  0  0  0  0  0
   60.2530   28.6160   44.9990 C   0  0  0  0  0  0  0  0  0  0  0  0
   58.8750   28.0740   45.2730 C   0  0  0  0  0  0  0  0  0  0  0  0
   57.7590   28.8410   44.8900 C   0  0  0  0  0  0  0  0  0  0  0  0
   56.4630   28.3840   45.1310 C   0  0  0  0  0  0  0  0  0  0  0  0
   56.2600   27.1520   45.7540 C   0  0  0  0  0  0  0  0  0  0  0  0
   54.9690   26.7030   46.0010 O   0  0  0  0  0  0  0  0  0  0  0  0
   57.3550   26.3700   46.1290 C   0  0  0  0  0  0  0  0  0  0  0  0
   58.6680   26.8080   45.8850 C   0  0  0  0  0  0  0  0  0  0  0  0
   59.8000   25.9200   46.3390 C   0  0  0  0  0  0  0  0  0  0  0  0
   61.3260   31.1650   48.7300 N   0  0  0  0  0  0  0  0  0  0  0  0
   62.5617   32.6823   46.9492 H   0  0  0  0  0  0  0  0  0  0  0  0
   63.5112   34.0677   46.3121 H   0  0  0  0  0  0  0  0  0  0  0  0
   64.2202   32.4172   46.3121 H   0  0  0  0  0  0  0  0  0  0  0  0
   64.8318   32.5425   48.5085 H   0  0  0  0  0  0  0  0  0  0  0  0
   64.6761   34.3247   48.2465 H   0  0  0  0  0  0  0  0  0  0  0  0
   62.3858   35.1995   50.1684 H   0  0  0  0  0  0  0  0  0  0  0  0
   62.3671   35.1803   48.3569 H   0  0  0  0  0  0  0  0  0  0  0  0
   58.2752   32.9849   48.9584 H   0  0  0  0  0  0  0  0  0  0  0  0
   57.0199   32.6793   46.8318 H   0  0  0  0  0  0  0  0  0  0  0  0
   57.8729   31.4604   44.3245 H   0  0  0  0  0  0  0  0  0  0  0  0
   56.9654   32.2707   43.0030 H   0  0  0  0  0  0  0  0  0  0  0  0
   58.7615   32.2915   43.0030 H   0  0  0  0  0  0  0  0  0  0  0  0
   60.1252   34.7985   44.6896 H   0  0  0  0  0  0  0  0  0  0  0  0
   61.3702   35.1279   46.8171 H   0  0  0  0  0  0  0  0  0  0  0  0
   62.4518   30.0843   51.7310 H   0  0  0  0  0  0  0  0  0  0  0  0
   59.7978   28.1554   48.8975 H   0  0  0  0  0  0  0  0  0  0  0  0
   60.3433   28.8621   43.9307 H   0  0  0  0  0  0  0  0  0  0  0  0
   61.0028   27.8575   45.2682 H   0  0  0  0  0  0  0  0  0  0  0  0
   57.9102   29.8117   44.3951 H   0  0  0  0  0  0  0  0  0  0  0  0
   55.6000   28.9958   44.8295 H   0  0  0  0  0  0  0  0  0  0  0  0
   57.1878   25.4004   46.6209 H   0  0  0  0  0  0  0  0  0  0  0  0
   59.8296   25.8968   47.4384 H   0  0  0  0  0  0  0  0  0  0  0  0
   59.6436   24.9012   45.9548 H   0  0  0  0  0  0  0  0  0  0  0  0
   60.7522   26.3145   45.9548 H   0  0  0  0  0  0  0  0  0  0  0  0
  1  2  1  0
  2  3  1  0
  3  4  1  0
  4  5  1  0
  5  6  2  0
  5  7  1  0
  7  8  2  0
  8  9  1  0
  9 10  2  0
 10 11  1  0
 11 12  1  0
 10 13  1  0
 13 14  2  0
  3 15  1  0
 15 16  2  0
 15 17  1  0
 17 18  2  0
 18 19  1  0
 19 20  2  0
 19 21  1  0
 21 22  2  0
 22 23  1  0
 23 24  2  0
 23 25  1  0
 25 26  1  0
 26 27  1  0
 27 28  2  0
 28 29  1  0
 29 30  2  0
 30 31  1  0
 30 32  1  0
 32 33  2  0
 33 34  1  0
 22 35  1  0
 14  7  1  0
 35 17  1  0
 33 27  1  0
  1 36  1  0
  1 37  1  0
  1 38  1  0
  2 39  1  0
  2 40  1  0
  4 41  1  0
  4 42  1  0
  8 43  1  0
  9 44  1  0
 12 45  1  0
 12 46  1  0
 12 47  1  0
 13 48  1  0
 14 49  1  0
 18 50  1  0
 21 51  1  0
 26 52  1  0
 26 53  1  0
 28 54  1  0
 29 55  1  0
 32 56  1  0
 34 57  1  0
 34 58  1  0
 34 59  1  0
M  CHG  3  25  -1  31  -1  35  -1
M  END
>  <UniqueID>  (48) 
43

>  <SMILES>  (48) 
CCN(CC(=O)c1ccc(OC)cc1)C(=O)c1cc(=O)cc(C(=O)[N-]Cc2ccc([O-])cc2C)[n-]1

>  <Energy>  (48) 
66.25073041287975

>  <Genealogy>  (48) 
CCN(CC(=O)c1ccc(OC)cc1)C(=O)c1cc(=O)cc(C(=O)[N-]Cc2ccc([O-])cc2C)[n-]1 (protonated)
CCN(CC(=O)c1ccc(OC)cc1)C(=O)c1cc(=O)cc(C(=O)[N-]Cc2ccc([O-])cc2C)[n-]1 (3D coordinates assigned)
CCN(CC(=O)c1ccc(OC)cc1)C(=O)c1cc(=O)cc(C(=O)[N-]Cc2ccc([O-])cc2C)[n-]1 (optimized conformer: 66.25073041287975 kcal/mol)

>  <smiles>  (48) 
CCN(CC(=O)c1ccc(OC)cc1)C(=O)c1cc(=O)cc(C(=O)NCc2ccc(O)cc2C)[nH]1

>  <score_type>  (48) 
oracle

>  <origin>  (48) 
adg

>  <m_score__min__energy>  (48) 
-14.859999999999999

>  <m_primary>  (48) 
energy

$$$$
48:0
     RDKit          3D

 48 50  0  0  0  0  0  0  0  0999 V2000
   58.1670   24.5610   45.6000 C   0  0  0  0  0  0  0  0  0  0  0  0
   58.6150   25.3840   46.6720 O   0  0  0  0  0  0  0  0  0  0  0  0
   58.7620   26.7770   46.5930 C   0  0  0  0  0  0  0  0  0  0  0  0
   59.8450   27.4540   47.1770 C   0  0  0  0  0  0  0  0  0  0  0  0
   59.9510   28.8400   47.0620 C   0  0  0  0  0  0  0  0  0  0  0  0
   58.9920   29.5740   46.3550 C   0  0  0  0  0  0  0  0  0  0  0  0
   59.1980   30.9850   46.2080 N   0  0  0  0  0  0  0  0  0  0  0  0
   59.5890   31.8530   47.2800 C   0  0  0  0  0  0  0  0  0  0  0  0
   59.8730   33.0560   47.0310 O   0  0  0  0  0  0  0  0  0  0  0  0
   59.6720   31.3300   48.6700 C   0  0  0  0  0  0  0  0  0  0  0  0
   58.4990   30.9050   49.3240 C   0  0  0  0  0  0  0  0  0  0  0  0
   58.5370   30.4210   50.6370 C   0  0  0  0  0  0  0  0  0  0  0  0
   57.3070   30.0190   51.2550 N   0  0  0  0  0  0  0  0  0  0  0  0
   56.3770   30.9860   52.3540 S   0  0  0  0  0  0  0  0  0  0  0  0
   56.6110   32.4390   52.0480 O   0  0  0  0  0  0  0  0  0  0  0  0
   56.8280   30.7010   53.7590 O   0  0  0  0  0  0  0  0  0  0  0  0
   54.6670   30.5890   52.2140 C   0  0  0  0  0  0  0  0  0  0  0  0
   54.2190   29.3030   52.5390 C   0  0  0  0  0  0  0  0  0  0  0  0
   52.8660   28.9800   52.4180 C   0  0  0  0  0  0  0  0  0  0  0  0
   51.9520   29.9400   51.9770 C   0  0  0  0  0  0  0  0  0  0  0  0
   52.3840   31.2390   51.6530 C   0  0  0  0  0  0  0  0  0  0  0  0
   51.4210   32.2600   51.1880 C   0  0  0  0  0  0  0  0  0  0  0  0
   50.9630   33.1190   51.9880 O   0  0  0  0  0  0  0  0  0  0  0  0
   51.0060   32.2860   49.8610 O   0  0  0  0  0  0  0  0  0  0  0  0
   53.7500   31.5560   51.7780 C   0  0  0  0  0  0  0  0  0  0  0  0
   59.7680   30.3470   51.3080 C   0  0  0  0  0  0  0  0  0  0  0  0
   60.9380   30.7630   50.6730 C   0  0  0  0  0  0  0  0  0  0  0  0
   60.9010   31.2530   49.3640 C   0  0  0  0  0  0  0  0  0  0  0  0
   62.0920   31.6530   48.7690 O   0  0  0  0  0  0  0  0  0  0  0  0
   57.8680   28.9110   45.8020 C   0  0  0  0  0  0  0  0  0  0  0  0
   56.7470   29.6460   45.1680 C   0  0  0  0  0  0  0  0  0  0  0  0
   55.4990   28.9930   44.9330 N   0  0  0  0  0  0  0  0  0  0  0  0
   56.8700   30.8620   44.8590 O   0  0  0  0  0  0  0  0  0  0  0  0
   57.7830   27.5100   45.9130 C   0  0  0  0  0  0  0  0  0  0  0  0
   57.6783   23.6632   46.0065 H   0  0  0  0  0  0  0  0  0  0  0  0
   57.4494   25.1214   44.9827 H   0  0  0  0  0  0  0  0  0  0  0  0
   59.0271   24.2626   44.9827 H   0  0  0  0  0  0  0  0  0  0  0  0
   60.6123   26.8893   47.7270 H   0  0  0  0  0  0  0  0  0  0  0  0
   60.7976   29.3618   47.5321 H   0  0  0  0  0  0  0  0  0  0  0  0
   57.5365   30.9543   48.7938 H   0  0  0  0  0  0  0  0  0  0  0  0
   54.9347   28.5452   52.8905 H   0  0  0  0  0  0  0  0  0  0  0  0
   52.5190   27.9672   52.6705 H   0  0  0  0  0  0  0  0  0  0  0  0
   50.8877   29.6785   51.8825 H   0  0  0  0  0  0  0  0  0  0  0  0
   54.1003   32.5693   51.5319 H   0  0  0  0  0  0  0  0  0  0  0  0
   59.8098   29.9601   52.3368 H   0  0  0  0  0  0  0  0  0  0  0  0
   61.8982   30.7051   51.2066 H   0  0  0  0  0  0  0  0  0  0  0  0
   54.6220   29.3340   45.3840 H   0  0  0  0  0  0  0  0  0  0  0  0
   56.9322   26.9824   45.4572 H   0  0  0  0  0  0  0  0  0  0  0  0
  1  2  1  0
  2  3  1  0
  3  4  2  0
  4  5  1  0
  5  6  2  0
  6  7  1  0
  7  8  1  0
  8  9  2  0
  8 10  1  0
 10 11  2  0
 11 12  1  0
 12 13  1  0
 13 14  1  0
 14 15  2  0
 14 16  2  0
 14 17  1  0
 17 18  2  0
 18 19  1  0
 19 20  2  0
 20 21  1  0
 21 22  1  0
 22 23  2  0
 22 24  1  0
 21 25  2  0
 12 26  2  0
 26 27  1  0
 27 28  2  0
 28 29  1  0
  6 30  1  0
 30 31  1  0
 31 32  1  0
 31 33  2  0
 30 34  2  0
 34  3  1  0
 28 10  1  0
 25 17  1  0
  1 35  1  0
  1 36  1  0
  1 37  1  0
  4 38  1  0
  5 39  1  0
 11 40  1  0
 18 41  1  0
 19 42  1  0
 20 43  1  0
 25 44  1  0
 26 45  1  0
 27 46  1  0
 32 47  1  0
 34 48  1  0
M  CHG  5   7  -1  13  -1  24  -1  29  -1  32  -1
M  END
>  <UniqueID>  (49) 
44

>  <SMILES>  (49) 
COc1ccc([N-]C(=O)c2cc([N-]S(=O)(=O)c3cccc(C(=O)[O-])c3)ccc2[O-])c(C([NH-])=O)c1

>  <Energy>  (49) 
66.07014948028393

>  <Genealogy>  (49) 
COc1ccc([N-]C(=O)c2cc([N-]S(=O)(=O)c3cccc(C(=O)[O-])c3)ccc2[O-])c(C([NH-])=O)c1 (protonated)
COc1ccc([N-]C(=O)c2cc([N-]S(=O)(=O)c3cccc(C(=O)[O-])c3)ccc2[O-])c(C([NH-])=O)c1 (3D coordinates assigned)
COc1ccc([N-]C(=O)c2cc([N-]S(=O)(=O)c3cccc(C(=O)[O-])c3)ccc2[O-])c(C([NH-])=O)c1 (optimized conformer: 66.07014948028393 kcal/mol)

>  <smiles>  (49) 
COc1ccc(NC(=O)c2cc(NS(=O)(=O)c3cccc(C(=O)O)c3)ccc2O)c(C(N)=O)c1

>  <score_type>  (49) 
oracle

>  <origin>  (49) 
adg

>  <m_score__min__energy>  (49) 
-18.789999999999999

>  <m_primary>  (49) 
energy

$$$$
49:0
     RDKit          3D

 45 47  0  0  0  0  0  0  0  0999 V2000
   55.4431   23.7584   45.7133 H   0  0  0  0  0  0  0  0  0  0  0  0
   56.1170   24.4960   45.2530 C   0  0  0  0  0  0  0  0  0  0  0  0
   56.4940   25.6380   45.9660 C   0  0  0  0  0  0  0  0  0  0  0  0
   56.1299   25.7866   46.9933 H   0  0  0  0  0  0  0  0  0  0  0  0
   57.3330   26.5940   45.3790 C   0  0  0  0  0  0  0  0  0  0  0  0
   57.7370   27.7390   46.1480 N   0  0  0  0  0  0  0  0  0  0  0  0
   57.7000   28.9910   45.7820 C   0  0  0  0  0  0  0  0  0  0  0  0
   57.2780   29.2840   44.5230 N   0  0  0  0  0  0  0  0  0  0  0  0
   57.2130   30.5610   44.0520 C   0  0  0  0  0  0  0  0  0  0  0  0
   56.7690   30.8230   42.7520 O   0  0  0  0  0  0  0  0  0  0  0  0
   57.4040   31.7670   41.8980 C   0  0  0  0  0  0  0  0  0  0  0  0
   57.9152   32.5269   42.5073 H   0  0  0  0  0  0  0  0  0  0  0  0
   58.1392   31.2507   41.2632 H   0  0  0  0  0  0  0  0  0  0  0  0
   56.6487   32.2533   41.2632 H   0  0  0  0  0  0  0  0  0  0  0  0
   57.5920   31.6230   44.8750 C   0  0  0  0  0  0  0  0  0  0  0  0
   57.5353   32.6567   44.5032 H   0  0  0  0  0  0  0  0  0  0  0  0
   58.0430   31.3690   46.1710 C   0  0  0  0  0  0  0  0  0  0  0  0
   58.4300   32.4510   46.9760 O   0  0  0  0  0  0  0  0  0  0  0  0
   59.7390   32.6510   47.4350 C   0  0  0  0  0  0  0  0  0  0  0  0
   60.5720   33.5660   46.7620 C   0  0  0  0  0  0  0  0  0  0  0  0
   60.0590   34.3130   45.5630 C   0  0  0  0  0  0  0  0  0  0  0  0
   59.4655   35.1773   45.8958 H   0  0  0  0  0  0  0  0  0  0  0  0
   60.9084   34.6627   44.9578 H   0  0  0  0  0  0  0  0  0  0  0  0
   59.4277   33.6458   44.9578 H   0  0  0  0  0  0  0  0  0  0  0  0
   61.9040   33.7230   47.1710 C   0  0  0  0  0  0  0  0  0  0  0  0
   62.5614   34.4233   46.6349 H   0  0  0  0  0  0  0  0  0  0  0  0
   62.4020   32.9950   48.2560 C   0  0  0  0  0  0  0  0  0  0  0  0
   63.7740   33.1540   48.6630 C   0  0  0  0  0  0  0  0  0  0  0  0
   64.8770   33.2820   48.9890 N   0  0  0  0  0  0  0  0  0  0  0  0
   61.5660   32.1120   48.9480 C   0  0  0  0  0  0  0  0  0  0  0  0
   61.9607   31.5417   49.8018 H   0  0  0  0  0  0  0  0  0  0  0  0
   60.2270   31.9490   48.5600 C   0  0  0  0  0  0  0  0  0  0  0  0
   59.3480   31.0000   49.3270 C   0  0  0  0  0  0  0  0  0  0  0  0
   59.4931   31.1567   50.4061 H   0  0  0  0  0  0  0  0  0  0  0  0
   58.2950   31.1849   49.0680 H   0  0  0  0  0  0  0  0  0  0  0  0
   59.6129   29.9643   49.0680 H   0  0  0  0  0  0  0  0  0  0  0  0
   58.1170   30.0410   46.6240 C   0  0  0  0  0  0  0  0  0  0  0  0
   58.4990   29.8219   47.6320 H   0  0  0  0  0  0  0  0  0  0  0  0
   57.8430   26.3650   44.0890 C   0  0  0  0  0  0  0  0  0  0  0  0
   58.5424   27.0859   43.6406 H   0  0  0  0  0  0  0  0  0  0  0  0
   57.4650   25.2250   43.3740 C   0  0  0  0  0  0  0  0  0  0  0  0
   57.8496   25.0620   42.3564 H   0  0  0  0  0  0  0  0  0  0  0  0
   56.5970   24.2900   43.9520 C   0  0  0  0  0  0  0  0  0  0  0  0
   56.2080   23.1150   43.2170 C   0  0  0  0  0  0  0  0  0  0  0  0
   55.8950   22.1700   42.6260 N   0  0  0  0  0  0  0  0  0  0  0  0
  1  2  1  0
  2  3  2  0
  3  4  1  0
  3  5  1  0
  5  6  1  0
  6  7  2  0
  7  8  1  0
  8  9  1  0
  9 10  1  0
 10 11  1  0
 11 12  1  0
 11 13  1  0
 11 14  1  0
  9 15  2  0
 15 16  1  0
 15 17  1  0
 17 18  1  0
 18 19  1  0
 19 20  2  0
 20 21  1  0
 21 22  1  0
 21 23  1  0
 21 24  1  0
 20 25  1  0
 25 26  1  0
 25 27  2  0
 27 28  1  0
 28 29  3  0
 27 30  1  0
 30 31  1  0
 30 32  2  0
 32 33  1  0
 33 34  1  0
 33 35  1  0
 33 36  1  0
 17 37  2  0
 37 38  1  0
  5 39  2  0
 39 40  1  0
 39 41  1  0
 41 42  1  0
 41 43  2  0
 43 44  1  0
 44 45  3  0
 43  2  1  0
 37  7  1  0
 32 19  1  0
M  CHG  1   8  -1
M  END
>  <UniqueID>  (50) 
45

>  <SMILES>  (50) 
COc1cc(Oc2c(C)cc(C#N)cc2C)c/c(=N\c2ccc(C#N)cc2)[n-]1

>  <Energy>  (50) 
59.8738097756999

>  <Genealogy>  (50) 
COc1cc(Oc2c(C)cc(C#N)cc2C)cc(=Nc2ccc(C#N)cc2)[n-]1 (protonated)
COc1cc(Oc2c(C)cc(C#N)cc2C)c/c(=N\c2ccc(C#N)cc2)[n-]1 (cis-trans isomerization)
COc1cc(Oc2c(C)cc(C#N)cc2C)c/c(=N\c2ccc(C#N)cc2)[n-]1 (3D coordinates assigned)
COc1cc(Oc2c(C)cc(C#N)cc2C)c/c(=N\c2ccc(C#N)cc2)[n-]1 (optimized conformer: 59.8738097756999 kcal/mol)

>  <smiles>  (50) 
COc1cc(Oc2c(C)cc(C#N)cc2C)cc(=Nc2ccc(C#N)cc2)[nH]1

>  <score_type>  (50) 
oracle

>  <origin>  (50) 
adg

>  <m_score__min__energy>  (50) 
-8.7200000000000006

>  <m_primary>  (50) 
energy

$$$$
50:0
     RDKit          3D

 42 45  0  0  0  0  0  0  0  0999 V2000
   50.0670   32.3020   49.7580 H   0  0  0  0  0  0  0  0  0  0  0  0
   51.0160   32.3410   50.1930 N   0  0  0  0  0  0  0  0  0  0  0  0
   51.2200   31.9220   51.5400 C   0  0  0  0  0  0  0  0  0  0  0  0
   50.2820   32.0230   52.3740 O   0  0  0  0  0  0  0  0  0  0  0  0
   52.5210   31.3720   51.9510 C   0  0  0  0  0  0  0  0  0  0  0  0
   53.6070   31.1570   51.0990 C   0  0  0  0  0  0  0  0  0  0  0  0
   53.6684   31.3560   50.0189 H   0  0  0  0  0  0  0  0  0  0  0  0
   54.5810   30.6400   51.9190 C   0  0  0  0  0  0  0  0  0  0  0  0
   55.8400   30.2460   51.6150 N   0  0  0  0  0  0  0  0  0  0  0  0
   56.6340   29.7620   52.6230 C   0  0  0  0  0  0  0  0  0  0  0  0
   57.8450   29.3480   52.3840 N   0  0  0  0  0  0  0  0  0  0  0  0
   58.8700   30.0510   51.6600 C   0  0  0  0  0  0  0  0  0  0  0  0
   59.8170   29.3700   50.8730 C   0  0  0  0  0  0  0  0  0  0  0  0
   59.7985   28.2712   50.8242 H   0  0  0  0  0  0  0  0  0  0  0  0
   60.7810   30.0810   50.1530 C   0  0  0  0  0  0  0  0  0  0  0  0
   61.5201   29.5381   49.5456 H   0  0  0  0  0  0  0  0  0  0  0  0
   60.8120   31.4820   50.2000 C   0  0  0  0  0  0  0  0  0  0  0  0
   61.8180   32.2450   49.4270 C   0  0  0  0  0  0  0  0  0  0  0  0
   62.9790   32.7860   49.9420 C   0  0  0  0  0  0  0  0  0  0  0  0
   63.3086   32.7033   50.9882 H   0  0  0  0  0  0  0  0  0  0  0  0
   63.6460   33.4310   48.9650 N   0  0  0  0  0  0  0  0  0  0  0  0
   62.8780   33.2640   47.8680 C   0  0  0  0  0  0  0  0  0  0  0  0
   63.2590   33.8060   46.5260 C   0  0  0  0  0  0  0  0  0  0  0  0
   63.8871   34.6996   46.6563 H   0  0  0  0  0  0  0  0  0  0  0  0
   63.8197   33.0419   45.9677 H   0  0  0  0  0  0  0  0  0  0  0  0
   62.3502   34.0749   45.9677 H   0  0  0  0  0  0  0  0  0  0  0  0
   61.7690   32.5280   48.1090 N   0  0  0  0  0  0  0  0  0  0  0  0
   60.7500   32.1300   47.1350 C   0  0  0  0  0  0  0  0  0  0  0  0
   59.8525   31.7795   47.6658 H   0  0  0  0  0  0  0  0  0  0  0  0
   60.4893   32.9924   46.5039 H   0  0  0  0  0  0  0  0  0  0  0  0
   61.1429   31.3192   46.5039 H   0  0  0  0  0  0  0  0  0  0  0  0
   59.8340   32.1630   50.9430 C   0  0  0  0  0  0  0  0  0  0  0  0
   59.8272   33.2629   50.9564 H   0  0  0  0  0  0  0  0  0  0  0  0
   58.8660   31.4530   51.6680 C   0  0  0  0  0  0  0  0  0  0  0  0
   57.9020   32.1380   52.4050 O   0  0  0  0  0  0  0  0  0  0  0  0
   57.0710   31.6750   52.7540 H   0  0  0  0  0  0  0  0  0  0  0  0
   56.1380   29.6670   53.8990 N   0  0  0  0  0  0  0  0  0  0  0  0
   54.8680   30.0630   54.2070 C   0  0  0  0  0  0  0  0  0  0  0  0
   54.4823   29.9893   55.2345 H   0  0  0  0  0  0  0  0  0  0  0  0
   54.0820   30.5610   53.1800 C   0  0  0  0  0  0  0  0  0  0  0  0
   52.8160   31.0050   53.2240 N   0  0  0  0  0  0  0  0  0  0  0  0
   52.1960   31.0550   54.0640 H   0  0  0  0  0  0  0  0  0  0  0  0
  1  2  1  0
  2  3  1  0
  3  4  2  0
  3  5  1  0
  5  6  2  0
  6  7  1  0
  6  8  1  0
  8  9  2  0
  9 10  1  0
 10 11  2  0
 11 12  1  0
 12 13  2  0
 13 14  1  0
 13 15  1  0
 15 16  1  0
 15 17  2  0
 17 18  1  0
 18 19  2  0
 19 20  1  0
 19 21  1  0
 21 22  2  0
 22 23  1  0
 23 24  1  0
 23 25  1  0
 23 26  1  0
 22 27  1  0
 27 28  1  0
 28 29  1  0
 28 30  1  0
 28 31  1  0
 17 32  1  0
 32 33  1  0
 32 34  2  0
 34 35  1  0
 35 36  1  0
 10 37  1  0
 37 38  1  0
 38 39  1  0
 38 40  2  0
 40 41  1  0
 41 42  1  0
 41  5  1  0
 40  8  1  0
 34 12  1  0
 27 18  1  0
M  CHG  2   2  -1  37  -1
M  END
>  <UniqueID>  (51) 
46

>  <SMILES>  (51) 
Cc1ncc(-c2ccc(/N=c3\nc4cc(C([NH-])=O)[nH]c4c[n-]3)c(O)c2)n1C

>  <Energy>  (51) 
120.57160904739439

>  <Genealogy>  (51) 
Cc1ncc(-c2ccc(N=c3nc4cc(C([NH-])=O)[nH]c4c[n-]3)c(O)c2)n1C (protonated)
Cc1ncc(-c2ccc(/N=c3\nc4cc(C([NH-])=O)[nH]c4c[n-]3)c(O)c2)n1C (cis-trans isomerization)
Cc1ncc(-c2ccc(/N=c3\nc4cc(C([NH-])=O)[nH]c4c[n-]3)c(O)c2)n1C (3D coordinates assigned)
Cc1ncc(-c2ccc(/N=c3\nc4cc(C([NH-])=O)[nH]c4c[n-]3)c(O)c2)n1C (optimized conformer: 120.57160904739439 kcal/mol)

>  <smiles>  (51) 
Cc1ncc(-c2ccc(N=c3nc4cc(C(N)=O)[nH]c4c[nH]3)c(O)c2)n1C

>  <score_type>  (51) 
oracle

>  <origin>  (51) 
adg

>  <m_score__min__energy>  (51) 
-11.41

>  <m_primary>  (51) 
energy

$$$$
51:0
     RDKit          3D

 47 49  0  0  0  0  0  0  0  0999 V2000
   55.6490   29.7360   45.9970 H   0  0  0  0  0  0  0  0  0  0  0  0
   55.1640   29.3460   45.2230 O   0  0  0  0  0  0  0  0  0  0  0  0
   55.9630   29.5900   44.1000 C   0  0  0  0  0  0  0  0  0  0  0  0
   55.4409   30.2958   43.4373 H   0  0  0  0  0  0  0  0  0  0  0  0
   56.1422   28.6314   43.5911 H   0  0  0  0  0  0  0  0  0  0  0  0
   57.3300   30.1900   44.4930 C   0  0  1  0  0  0  0  0  0  0  0  0
   57.6627   30.7379   43.5991 H   0  0  0  0  0  0  0  0  0  0  0  0
   57.2290   31.1810   45.5720 N   0  0  0  0  0  0  0  0  0  0  0  0
   57.5020   32.5880   45.4990 C   0  0  0  0  0  0  0  0  0  0  0  0
   57.1030   33.2650   44.5150 O   0  0  0  0  0  0  0  0  0  0  0  0
   58.2060   33.2760   46.5960 C   0  0  0  0  0  0  0  0  0  0  0  0
   58.2230   32.7160   48.1850 S   0  0  0  0  0  0  0  0  0  0  0  0
   59.2780   33.9170   48.7110 C   0  0  0  0  0  0  0  0  0  0  0  0
   59.7160   34.0820   49.9260 N   0  0  0  0  0  0  0  0  0  0  0  0
   60.8020   33.3830   50.5530 C   0  0  0  0  0  0  0  0  0  0  0  0
   60.5370   32.4720   51.3820 O   0  0  0  0  0  0  0  0  0  0  0  0
   62.2340   33.8180   50.3850 C   0  0  0  0  0  0  0  0  0  0  0  0
   62.2911   34.9139   50.4607 H   0  0  0  0  0  0  0  0  0  0  0  0
   62.8432   33.3522   51.1737 H   0  0  0  0  0  0  0  0  0  0  0  0
   62.7570   33.3880   49.0500 C   0  0  0  0  0  0  0  0  0  0  0  0
   63.6120   31.9720   48.7480 S   0  0  0  0  0  0  0  0  0  0  0  0
   63.7560   32.1980   47.0870 C   0  0  0  0  0  0  0  0  0  0  0  0
   64.2615   31.5174   46.3861 H   0  0  0  0  0  0  0  0  0  0  0  0
   63.1280   33.3900   46.7520 C   0  0  0  0  0  0  0  0  0  0  0  0
   63.0810   33.7772   45.7235 H   0  0  0  0  0  0  0  0  0  0  0  0
   62.5600   34.0530   47.8470 C   0  0  0  0  0  0  0  0  0  0  0  0
   62.0134   35.0039   47.7627 H   0  0  0  0  0  0  0  0  0  0  0  0
   59.6160   34.7560   47.7110 N   0  0  0  0  0  0  0  0  0  0  0  0
   59.0390   34.4050   46.5290 C   0  0  0  0  0  0  0  0  0  0  0  0
   59.3000   35.1980   45.2880 C   0  0  0  0  0  0  0  0  0  0  0  0
   59.6330   36.2098   45.5626 H   0  0  0  0  0  0  0  0  0  0  0  0
   60.0826   34.7029   44.6943 H   0  0  0  0  0  0  0  0  0  0  0  0
   58.3763   35.2645   44.6943 H   0  0  0  0  0  0  0  0  0  0  0  0
   58.4420   29.1330   44.7450 C   0  0  0  0  0  0  0  0  0  0  0  0
   57.9736   28.1377   44.7473 H   0  0  0  0  0  0  0  0  0  0  0  0
   59.1809   29.2638   43.9406 H   0  0  0  0  0  0  0  0  0  0  0  0
   59.1950   29.3010   46.0450 C   0  0  0  0  0  0  0  0  0  0  0  0
   58.8720   28.5260   47.1720 C   0  0  0  0  0  0  0  0  0  0  0  0
   58.0910   27.7547   47.1012 H   0  0  0  0  0  0  0  0  0  0  0  0
   59.5400   28.7320   48.3830 C   0  0  0  0  0  0  0  0  0  0  0  0
   59.2773   28.1276   49.2637 H   0  0  0  0  0  0  0  0  0  0  0  0
   60.5400   29.7030   48.4780 C   0  0  0  0  0  0  0  0  0  0  0  0
   61.0580   29.8678   49.4343 H   0  0  0  0  0  0  0  0  0  0  0  0
   60.8810   30.4630   47.3600 C   0  0  0  0  0  0  0  0  0  0  0  0
   61.6714   31.2244   47.4340 H   0  0  0  0  0  0  0  0  0  0  0  0
   60.2200   30.2590   46.1450 C   0  0  0  0  0  0  0  0  0  0  0  0
   60.5032   30.8511   45.2622 H   0  0  0  0  0  0  0  0  0  0  0  0
  1  2  1  0
  2  3  1  0
  3  4  1  0
  3  5  1  0
  3  6  1  0
  6  7  1  6
  6  8  1  0
  8  9  1  0
  9 10  2  0
  9 11  1  0
 11 12  1  0
 12 13  1  0
 13 14  2  0
 14 15  1  0
 15 16  2  0
 15 17  1  0
 17 18  1  0
 17 19  1  0
 17 20  1  0
 20 21  1  0
 21 22  1  0
 22 23  1  0
 22 24  2  0
 24 25  1  0
 24 26  1  0
 26 27  1  0
 13 28  1  0
 28 29  1  0
 29 30  1  0
 30 31  1  0
 30 32  1  0
 30 33  1  0
  6 34  1  0
 34 35  1  0
 34 36  1  0
 34 37  1  0
 37 38  2  0
 38 39  1  0
 38 40  1  0
 40 41  1  0
 40 42  2  0
 42 43  1  0
 42 44  1  0
 44 45  1  0
 44 46  2  0
 46 47  1  0
 29 11  2  0
 46 37  1  0
 26 20  2  0
M  CHG  2   8  -1  28  -1
M  END
>  <UniqueID>  (52) 
47

>  <SMILES>  (52) 
Cc1[n-]/c(=N/C(=O)Cc2cccs2)sc1C(=O)[N-][C@H](CO)Cc1ccccc1

>  <Energy>  (52) 
110.3810118778791

>  <Genealogy>  (52) 
Cc1[n-]c(=NC(=O)Cc2cccs2)sc1C(=O)[N-]C(CO)Cc1ccccc1 (protonated)
Cc1[n-]c(=NC(=O)Cc2cccs2)sc1C(=O)[N-][C@H](CO)Cc1ccccc1 (chirality)
Cc1[n-]/c(=N/C(=O)Cc2cccs2)sc1C(=O)[N-][C@H](CO)Cc1ccccc1 (cis-trans isomerization)
Cc1[n-]/c(=N/C(=O)Cc2cccs2)sc1C(=O)[N-][C@H](CO)Cc1ccccc1 (3D coordinates assigned)
Cc1[n-]/c(=N/C(=O)Cc2cccs2)sc1C(=O)[N-][C@H](CO)Cc1ccccc1 (optimized conformer: 110.3810118778791 kcal/mol)

>  <smiles>  (52) 
Cc1[nH]c(=NC(=O)Cc2cccs2)sc1C(=O)NC(CO)Cc1ccccc1

>  <score_type>  (52) 
oracle

>  <origin>  (52) 
adg

>  <m_score__min__energy>  (52) 
-12.06

>  <m_primary>  (52) 
energy

$$$$
52:0
     RDKit          3D

 47 50  0  0  0  0  0  0  0  0999 V2000
   60.5290   26.7180   47.1710 C   0  0  0  0  0  0  0  0  0  0  0  0
   60.0000   25.8000   46.0920 C   0  0  0  0  0  0  0  0  0  0  0  0
   58.5460   25.8140   46.0460 N   0  0  0  0  0  0  0  0  0  0  0  0
   57.8180   24.6920   46.3180 C   0  0  0  0  0  0  0  0  0  0  0  0
   58.4910   23.6540   46.6080 O   0  0  0  0  0  0  0  0  0  0  0  0
   56.4860   24.6850   46.2810 N   0  0  0  0  0  0  0  0  0  0  0  0
   55.7550   23.4510   46.5820 C   0  0  0  0  0  0  0  0  0  0  0  0
   55.7950   25.8100   45.9670 C   0  0  0  0  0  0  0  0  0  0  0  0
   54.5530   25.8480   45.9210 O   0  0  0  0  0  0  0  0  0  0  0  0
   56.4800   26.9750   45.6830 C   0  0  0  0  0  0  0  0  0  0  0  0
   56.1490   28.2330   45.3450 N   0  0  0  0  0  0  0  0  0  0  0  0
   57.2380   28.9860   45.1790 C   0  0  0  0  0  0  0  0  0  0  0  0
   57.3630   30.3970   44.8160 C   0  0  0  0  0  0  0  0  0  0  0  0
   57.1910   30.9820   43.5660 C   0  0  0  0  0  0  0  0  0  0  0  0
   57.3920   32.3040   43.6400 N   0  0  0  0  0  0  0  0  0  0  0  0
   57.6860   32.5860   44.8930 N   0  0  0  0  0  0  0  0  0  0  0  0
   57.9780   33.9310   45.4070 C   0  0  0  0  0  0  0  0  0  0  0  0
   59.0920   33.8690   46.3580 C   0  0  0  0  0  0  0  0  0  0  0  0
   58.9040   33.8520   47.7430 C   0  0  0  0  0  0  0  0  0  0  0  0
   60.0200   33.7920   48.5860 C   0  0  0  0  0  0  0  0  0  0  0  0
   61.2890   33.7500   48.0270 C   0  0  0  0  0  0  0  0  0  0  0  0
   62.5050   33.6850   48.9110 C   0  0  0  0  0  0  0  0  0  0  0  0
   61.5000   33.7650   46.6650 C   0  0  0  0  0  0  0  0  0  0  0  0
   60.3900   33.8250   45.8540 C   0  0  0  0  0  0  0  0  0  0  0  0
   57.6810   31.4590   45.6490 C   0  0  0  0  0  0  0  0  0  0  0  0
   58.2970   28.1910   45.4180 N   0  0  0  0  0  0  0  0  0  0  0  0
   57.8750   26.9520   45.7290 C   0  0  0  0  0  0  0  0  0  0  0  0
   60.2878   26.2994   48.1592 H   0  0  0  0  0  0  0  0  0  0  0  0
   61.6202   26.8127   47.0693 H   0  0  0  0  0  0  0  0  0  0  0  0
   60.0638   27.7096   47.0693 H   0  0  0  0  0  0  0  0  0  0  0  0
   60.3916   26.1298   45.1184 H   0  0  0  0  0  0  0  0  0  0  0  0
   60.3284   24.7750   46.3192 H   0  0  0  0  0  0  0  0  0  0  0  0
   55.6807   23.3255   47.6723 H   0  0  0  0  0  0  0  0  0  0  0  0
   54.7451   23.5084   46.1498 H   0  0  0  0  0  0  0  0  0  0  0  0
   56.2906   22.5929   46.1498 H   0  0  0  0  0  0  0  0  0  0  0  0
   55.1700   28.5810   45.2260 H   0  0  0  0  0  0  0  0  0  0  0  0
   56.9275   30.4367   42.6477 H   0  0  0  0  0  0  0  0  0  0  0  0
   58.2491   34.5909   44.5697 H   0  0  0  0  0  0  0  0  0  0  0  0
   57.0870   34.3259   45.9171 H   0  0  0  0  0  0  0  0  0  0  0  0
   57.8893   33.8854   48.1663 H   0  0  0  0  0  0  0  0  0  0  0  0
   59.8923   33.7783   49.6785 H   0  0  0  0  0  0  0  0  0  0  0  0
   62.1929   33.7017   49.9657 H   0  0  0  0  0  0  0  0  0  0  0  0
   63.0576   32.7560   48.7068 H   0  0  0  0  0  0  0  0  0  0  0  0
   63.1534   34.5498   48.7068 H   0  0  0  0  0  0  0  0  0  0  0  0
   62.5153   33.7304   46.2432 H   0  0  0  0  0  0  0  0  0  0  0  0
   60.5334   33.8388   44.7635 H   0  0  0  0  0  0  0  0  0  0  0  0
   57.8911   31.3989   46.7271 H   0  0  0  0  0  0  0  0  0  0  0  0
  1  2  1  0
  2  3  1  0
  3  4  1  0
  4  5  2  0
  4  6  1  0
  6  7  1  0
  6  8  1  0
  8  9  2  0
  8 10  1  0
 10 11  1  0
 11 12  1  0
 12 13  1  0
 13 14  1  0
 14 15  2  0
 15 16  1  0
 16 17  1  0
 17 18  1  0
 18 19  2  0
 19 20  1  0
 20 21  2  0
 21 22  1  0
 21 23  1  0
 23 24  2  0
 16 25  1  0
 12 26  2  0
 26 27  1  0
 27  3  1  0
 27 10  2  0
 25 13  2  0
 24 18  1  0
  1 28  1  0
  1 29  1  0
  1 30  1  0
  2 31  1  0
  2 32  1  0
  7 33  1  0
  7 34  1  0
  7 35  1  0
 11 36  1  0
 14 37  1  0
 17 38  1  0
 17 39  1  0
 19 40  1  0
 20 41  1  0
 22 42  1  0
 22 43  1  0
 22 44  1  0
 23 45  1  0
 24 46  1  0
 25 47  1  0
M  END
>  <smiles>  (53) 
CCn1c(=O)n(C)c(=O)c2[nH]c(-c3cnn(Cc4ccc(C)cc4)c3)nc21

>  <score_type>  (53) 
oracle

>  <origin>  (53) 
adg

>  <m_score__min__energy>  (53) 
-8.5

>  <m_primary>  (53) 
energy

$$$$
53:0
     RDKit          3D

 45 47  0  0  0  0  0  0  0  0999 V2000
   52.7846   25.1355   45.6851 H   0  0  0  0  0  0  0  0  0  0  0  0
   53.8530   24.8850   45.6100 C   0  0  0  0  0  0  0  0  0  0  0  0
   54.8420   25.6950   45.9080 O   0  0  0  0  0  0  0  0  0  0  0  0
   55.9750   25.0640   45.7050 C   0  0  0  0  0  0  0  0  0  0  0  0
   57.3220   25.6820   45.9020 C   0  0  0  0  0  0  0  0  0  0  0  0
   57.9408   25.5015   45.0107 H   0  0  0  0  0  0  0  0  0  0  0  0
   57.8031   25.2328   46.7834 H   0  0  0  0  0  0  0  0  0  0  0  0
   57.1790   27.1190   46.1100 N   0  0  0  0  0  0  0  0  0  0  0  0
   56.2390   27.4820   46.3860 H   0  0  0  0  0  0  0  0  0  0  0  0
   58.2560   28.0370   45.8630 C   0  0  0  0  0  0  0  0  0  0  0  0
   59.4340   27.6010   45.7600 O   0  0  0  0  0  0  0  0  0  0  0  0
   57.9840   29.4820   45.6980 C   0  0  0  0  0  0  0  0  0  0  0  0
   58.5410   30.6780   46.7460 S   0  0  0  0  0  0  0  0  0  0  0  0
   57.6930   31.9060   45.9630 C   0  0  0  0  0  0  0  0  0  0  0  0
   57.5990   33.1350   46.3690 N   0  0  0  0  0  0  0  0  0  0  0  0
   57.9460   34.2580   45.5510 C   0  0  0  0  0  0  0  0  0  0  0  0
   57.0740   34.7880   44.8150 O   0  0  0  0  0  0  0  0  0  0  0  0
   59.2820   34.7710   45.5460 N   0  0  0  0  0  0  0  0  0  0  0  0
   60.0110   35.1670   46.7480 C   0  0  0  0  0  0  0  0  0  0  0  0
   59.2894   35.3917   47.5473 H   0  0  0  0  0  0  0  0  0  0  0  0
   60.6169   36.0540   46.5109 H   0  0  0  0  0  0  0  0  0  0  0  0
   60.9390   34.0640   47.2160 C   0  0  0  0  0  0  0  0  0  0  0  0
   62.1750   33.8960   46.5630 C   0  0  0  0  0  0  0  0  0  0  0  0
   62.4249   34.5300   45.6995 H   0  0  0  0  0  0  0  0  0  0  0  0
   63.0870   32.9330   47.0000 C   0  0  0  0  0  0  0  0  0  0  0  0
   64.0533   32.8190   46.4870 H   0  0  0  0  0  0  0  0  0  0  0  0
   62.7750   32.1170   48.0840 C   0  0  0  0  0  0  0  0  0  0  0  0
   63.4998   31.3664   48.4322 H   0  0  0  0  0  0  0  0  0  0  0  0
   61.5450   32.2490   48.7300 C   0  0  0  0  0  0  0  0  0  0  0  0
   61.3063   31.6000   49.5854 H   0  0  0  0  0  0  0  0  0  0  0  0
   60.6070   33.2050   48.2970 C   0  0  0  0  0  0  0  0  0  0  0  0
   59.3070   33.3330   49.0440 C   0  0  0  0  0  0  0  0  0  0  0  0
   59.5026   33.3137   50.1263 H   0  0  0  0  0  0  0  0  0  0  0  0
   58.8221   34.2832   48.7759 H   0  0  0  0  0  0  0  0  0  0  0  0
   58.6461   32.4956   48.7759 H   0  0  0  0  0  0  0  0  0  0  0  0
   56.9940   31.4400   44.9100 N   0  0  0  0  0  0  0  0  0  0  0  0
   57.1510   30.0970   44.7470 C   0  0  0  0  0  0  0  0  0  0  0  0
   56.4270   29.3690   43.6590 C   0  0  0  0  0  0  0  0  0  0  0  0
   55.7177   28.6558   44.1041 H   0  0  0  0  0  0  0  0  0  0  0  0
   55.8786   30.0913   43.0364 H   0  0  0  0  0  0  0  0  0  0  0  0
   57.1523   28.8246   43.0364 H   0  0  0  0  0  0  0  0  0  0  0  0
   55.7290   23.7850   45.2460 C   0  0  0  0  0  0  0  0  0  0  0  0
   56.4722   23.0182   44.9821 H   0  0  0  0  0  0  0  0  0  0  0  0
   54.3570   23.6710   45.1880 C   0  0  0  0  0  0  0  0  0  0  0  0
   53.7798   22.7904   44.8697 H   0  0  0  0  0  0  0  0  0  0  0  0
  1  2  1  0
  2  3  1  0
  3  4  1  0
  4  5  1  0
  5  6  1  0
  5  7  1  0
  5  8  1  0
  8  9  1  0
  8 10  1  0
 10 11  2  0
 10 12  1  0
 12 13  1  0
 13 14  1  0
 14 15  2  0
 15 16  1  0
 16 17  2  0
 16 18  1  0
 18 19  1  0
 19 20  1  0
 19 21  1  0
 19 22  1  0
 22 23  2  0
 23 24  1  0
 23 25  1  0
 25 26  1  0
 25 27  2  0
 27 28  1  0
 27 29  1  0
 29 30  1  0
 29 31  2  0
 31 32  1  0
 32 33  1  0
 32 34  1  0
 32 35  1  0
 14 36  1  0
 36 37  1  0
 37 38  1  0
 38 39  1  0
 38 40  1  0
 38 41  1  0
  4 42  2  0
 42 43  1  0
 42 44  1  0
 44 45  1  0
 44  2  2  0
 37 12  2  0
 31 22  1  0
M  CHG  2  18  -1  36  -1
M  END
>  <UniqueID>  (54) 
48

>  <SMILES>  (54) 
Cc1ccccc1C[N-]C(=O)/N=c1/[n-]c(C)c(C(=O)NCc2ccco2)s1

>  <Energy>  (54) 
101.56477497586702

>  <Genealogy>  (54) 
Cc1ccccc1C[N-]C(=O)N=c1[n-]c(C)c(C(=O)NCc2ccco2)s1 (protonated)
Cc1ccccc1C[N-]C(=O)/N=c1/[n-]c(C)c(C(=O)NCc2ccco2)s1 (cis-trans isomerization)
Cc1ccccc1C[N-]C(=O)/N=c1/[n-]c(C)c(C(=O)NCc2ccco2)s1 (3D coordinates assigned)
Cc1ccccc1C[N-]C(=O)/N=c1/[n-]c(C)c(C(=O)NCc2ccco2)s1 (optimized conformer: 101.56477497586702 kcal/mol)

>  <smiles>  (54) 
Cc1ccccc1CNC(=O)N=c1[nH]c(C)c(C(=O)NCc2ccco2)s1

>  <score_type>  (54) 
oracle

>  <origin>  (54) 
adg

>  <m_score__min__energy>  (54) 
-10.02

>  <m_primary>  (54) 
energy

$$$$
54:0
     RDKit          3D

 67 69  0  0  0  0  0  0  0  0999 V2000
   50.9280   22.6370   45.6730 C   0  0  0  0  0  0  0  0  0  0  0  0
   52.3230   22.8140   45.2380 N   0  0  0  0  0  0  0  0  0  0  0  0
   52.4420   24.0690   44.4710 C   0  0  0  0  0  0  0  0  0  0  0  0
   53.2250   22.7970   46.4140 C   0  0  0  0  0  0  0  0  0  0  0  0
   54.6150   23.3760   46.0830 C   0  0  0  0  0  0  0  0  0  0  0  0
   55.4470   23.7080   47.3320 C   0  0  0  0  0  0  0  0  0  0  0  0
   56.2800   24.8870   47.1270 N   0  0  0  0  0  0  0  0  0  0  0  0
   55.9530   25.9490   46.2270 C   0  0  0  0  0  0  0  0  0  0  0  0
   54.7480   26.1970   45.9440 O   0  0  0  0  0  0  0  0  0  0  0  0
   57.0620   26.7800   45.6490 C   0  0  2  0  0  0  0  0  0  0  0  0
   57.5940   26.1810   44.3330 C   0  0  0  0  0  0  0  0  0  0  0  0
   57.5060   24.6760   44.2990 C   0  0  0  0  0  0  0  0  0  0  0  0
   58.2910   23.8990   45.1710 C   0  0  0  0  0  0  0  0  0  0  0  0
   58.1780   22.5040   45.1650 C   0  0  0  0  0  0  0  0  0  0  0  0
   57.2980   21.8740   44.2820 C   0  0  0  0  0  0  0  0  0  0  0  0
   56.5180   22.6400   43.4060 C   0  0  0  0  0  0  0  0  0  0  0  0
   56.6060   24.0360   43.4250 C   0  0  0  0  0  0  0  0  0  0  0  0
   58.1420   26.9430   46.6200 N   0  0  0  0  0  0  0  0  0  0  0  0
   58.9140   28.1420   46.7410 C   0  0  0  0  0  0  0  0  0  0  0  0
   60.1760   28.0920   46.7390 O   0  0  0  0  0  0  0  0  0  0  0  0
   58.2310   29.4660   46.9230 C   0  0  1  0  0  0  0  0  0  0  0  0
   59.1510   30.4530   47.4840 N   0  0  0  0  0  0  0  0  0  0  0  0
   58.9090   31.2020   48.6820 C   0  0  0  0  0  0  0  0  0  0  0  0
   58.5560   30.6110   49.7400 O   0  0  0  0  0  0  0  0  0  0  0  0
   59.0540   32.6990   48.6860 C   0  0  0  0  0  0  0  0  0  0  0  0
   58.7510   33.2870   47.3320 C   0  0  0  0  0  0  0  0  0  0  0  0
   57.4560   33.2000   46.7920 C   0  0  0  0  0  0  0  0  0  0  0  0
   57.1610   33.8160   45.5710 C   0  0  0  0  0  0  0  0  0  0  0  0
   58.1510   34.5330   44.8870 C   0  0  0  0  0  0  0  0  0  0  0  0
   59.4370   34.6320   45.4250 C   0  0  0  0  0  0  0  0  0  0  0  0
   59.7380   34.0150   46.6450 C   0  0  0  0  0  0  0  0  0  0  0  0
   57.7280   29.9510   45.5990 C   0  0  0  0  0  0  0  0  0  0  0  0
   58.4970   30.5420   44.6110 C   0  0  0  0  0  0  0  0  0  0  0  0
   57.6210   30.8630   43.5980 C   0  0  0  0  0  0  0  0  0  0  0  0
   56.3730   30.4510   44.0260 C   0  0  0  0  0  0  0  0  0  0  0  0
   56.4690   29.9160   45.2230 O   0  0  0  0  0  0  0  0  0  0  0  0
   50.8846   22.6315   46.7721 H   0  0  0  0  0  0  0  0  0  0  0  0
   50.3154   23.4646   45.2860 H   0  0  0  0  0  0  0  0  0  0  0  0
   50.5415   21.6826   45.2860 H   0  0  0  0  0  0  0  0  0  0  0  0
   52.5225   24.9175   45.1664 H   0  0  0  0  0  0  0  0  0  0  0  0
   53.3403   24.0277   43.8374 H   0  0  0  0  0  0  0  0  0  0  0  0
   51.5520   24.1973   43.8374 H   0  0  0  0  0  0  0  0  0  0  0  0
   52.7725   23.3966   47.2176 H   0  0  0  0  0  0  0  0  0  0  0  0
   53.3579   21.7505   46.7257 H   0  0  0  0  0  0  0  0  0  0  0  0
   55.1666   22.6383   45.4817 H   0  0  0  0  0  0  0  0  0  0  0  0
   54.4548   24.3178   45.5377 H   0  0  0  0  0  0  0  0  0  0  0  0
   54.7655   23.8951   48.1750 H   0  0  0  0  0  0  0  0  0  0  0  0
   56.1074   22.8536   47.5413 H   0  0  0  0  0  0  0  0  0  0  0  0
   56.6490   27.7725   45.4158 H   0  0  0  0  0  0  0  0  0  0  0  0
   57.0037   26.5866   43.4981 H   0  0  0  0  0  0  0  0  0  0  0  0
   58.6567   26.4528   44.2509 H   0  0  0  0  0  0  0  0  0  0  0  0
   58.9953   24.3893   45.8592 H   0  0  0  0  0  0  0  0  0  0  0  0
   58.7841   21.9018   45.8578 H   0  0  0  0  0  0  0  0  0  0  0  0
   57.2175   20.7770   44.2745 H   0  0  0  0  0  0  0  0  0  0  0  0
   55.8349   22.1427   42.7017 H   0  0  0  0  0  0  0  0  0  0  0  0
   55.9709   24.6351   42.7559 H   0  0  0  0  0  0  0  0  0  0  0  0
   57.3908   29.3344   47.6207 H   0  0  0  0  0  0  0  0  0  0  0  0
   58.3575   33.1236   49.4240 H   0  0  0  0  0  0  0  0  0  0  0  0
   60.0949   32.9442   48.9435 H   0  0  0  0  0  0  0  0  0  0  0  0
   56.6729   32.6464   47.3307 H   0  0  0  0  0  0  0  0  0  0  0  0
   56.1490   33.7371   45.1471 H   0  0  0  0  0  0  0  0  0  0  0  0
   57.9165   35.0175   43.9277 H   0  0  0  0  0  0  0  0  0  0  0  0
   60.2144   35.1960   44.8887 H   0  0  0  0  0  0  0  0  0  0  0  0
   60.7501   34.1001   47.0674 H   0  0  0  0  0  0  0  0  0  0  0  0
   59.5826   30.7186   44.6310 H   0  0  0  0  0  0  0  0  0  0  0  0
   57.8651   31.3489   42.6418 H   0  0  0  0  0  0  0  0  0  0  0  0
   55.4405   30.5550   43.4519 H   0  0  0  0  0  0  0  0  0  0  0  0
  1  2  1  0
  2  3  1  0
  2  4  1  0
  4  5  1  0
  5  6  1  0
  6  7  1  0
  7  8  1  0
  8  9  2  0
  8 10  1  0
 10 11  1  0
 11 12  1  0
 12 13  2  0
 13 14  1  0
 14 15  2  0
 15 16  1  0
 16 17  2  0
 10 18  1  0
 18 19  1  0
 19 20  2  0
 19 21  1  0
 21 22  1  0
 22 23  1  0
 23 24  2  0
 23 25  1  0
 25 26  1  0
 26 27  2  0
 27 28  1  0
 28 29  2  0
 29 30  1  0
 30 31  2  0
 21 32  1  0
 32 33  2  0
 33 34  1  0
 34 35  2  0
 35 36  1  0
 17 12  1  0
 31 26  1  0
 36 32  1  0
  1 37  1  0
  1 38  1  0
  1 39  1  0
  3 40  1  0
  3 41  1  0
  3 42  1  0
  4 43  1  0
  4 44  1  0
  5 45  1  0
  5 46  1  0
  6 47  1  0
  6 48  1  0
 10 49  1  6
 11 50  1  0
 11 51  1  0
 13 52  1  0
 14 53  1  0
 15 54  1  0
 16 55  1  0
 17 56  1  0
 21 57  1  1
 25 58  1  0
 25 59  1  0
 27 60  1  0
 28 61  1  0
 29 62  1  0
 30 63  1  0
 31 64  1  0
 33 65  1  0
 34 66  1  0
 35 67  1  0
M  CHG  3   7  -1  18  -1  22  -1
M  END
>  <UniqueID>  (55) 
49

>  <SMILES>  (55) 
CN(C)CCC[N-]C(=O)[C@H](Cc1ccccc1)[N-]C(=O)[C@@H]([N-]C(=O)Cc1ccccc1)c1ccco1

>  <Energy>  (55) 
76.44642958104757

>  <Genealogy>  (55) 
CN(C)CCC[N-]C(=O)C(Cc1ccccc1)[N-]C(=O)C([N-]C(=O)Cc1ccccc1)c1ccco1 (protonated)
CN(C)CCC[N-]C(=O)[C@H](Cc1ccccc1)[N-]C(=O)[C@@H]([N-]C(=O)Cc1ccccc1)c1ccco1 (chirality)
CN(C)CCC[N-]C(=O)[C@H](Cc1ccccc1)[N-]C(=O)[C@@H]([N-]C(=O)Cc1ccccc1)c1ccco1 (3D coordinates assigned)
CN(C)CCC[N-]C(=O)[C@H](Cc1ccccc1)[N-]C(=O)[C@@H]([N-]C(=O)Cc1ccccc1)c1ccco1 (optimized conformer: 76.44642958104757 kcal/mol)

>  <smiles>  (55) 
CN(C)CCCNC(=O)C(Cc1ccccc1)NC(=O)C(NC(=O)Cc1ccccc1)c1ccco1

>  <score_type>  (55) 
oracle

>  <origin>  (55) 
adg

>  <m_score__min__energy>  (55) 
-14.880000000000001

>  <m_primary>  (55) 
energy

$$$$
55:0
     RDKit          3D

 43 45  0  0  0  0  0  0  0  0999 V2000
   54.0290   25.3090   46.3790 H   0  0  0  0  0  0  0  0  0  0  0  0
   53.9720   24.3310   46.1160 O   0  0  0  0  0  0  0  0  0  0  0  0
   54.9680   23.4170   46.4590 C   0  0  0  0  0  0  0  0  0  0  0  0
   54.7680   22.0570   46.1860 C   0  0  0  0  0  0  0  0  0  0  0  0
   53.8570   21.7318   45.6623 H   0  0  0  0  0  0  0  0  0  0  0  0
   55.7180   21.1150   46.5750 C   0  0  0  0  0  0  0  0  0  0  0  0
   55.5639   20.0476   46.3585 H   0  0  0  0  0  0  0  0  0  0  0  0
   56.8650   21.5400   47.2410 C   0  0  0  0  0  0  0  0  0  0  0  0
   57.6162   20.8052   47.5661 H   0  0  0  0  0  0  0  0  0  0  0  0
   57.0560   22.8610   47.4890 N   0  0  0  0  0  0  0  0  0  0  0  0
   56.1650   23.8190   47.1090 C   0  0  0  0  0  0  0  0  0  0  0  0
   56.4540   25.0600   47.3890 N   0  0  0  0  0  0  0  0  0  0  0  0
   56.2880   26.2180   46.5600 C   0  0  0  0  0  0  0  0  0  0  0  0
   55.1350   26.5230   46.1540 O   0  0  0  0  0  0  0  0  0  0  0  0
   57.4240   27.1060   46.2630 C   0  0  0  0  0  0  0  0  0  0  0  0
   58.4580   27.0600   46.9830 O   0  0  0  0  0  0  0  0  0  0  0  0
   57.3600   27.9810   45.1290 N   0  0  0  0  0  0  0  0  0  0  0  0
   57.5070   29.4070   45.1420 C   0  0  0  0  0  0  0  0  0  0  0  0
   56.9580   30.2250   44.1370 C   0  0  0  0  0  0  0  0  0  0  0  0
   56.3838   29.7720   43.3154 H   0  0  0  0  0  0  0  0  0  0  0  0
   57.1390   31.6110   44.1780 C   0  0  0  0  0  0  0  0  0  0  0  0
   56.6944   32.2452   43.3969 H   0  0  0  0  0  0  0  0  0  0  0  0
   57.8850   32.1950   45.2110 C   0  0  0  0  0  0  0  0  0  0  0  0
   58.0970   33.9400   45.2920 S   0  0  0  0  0  0  0  0  0  0  0  0
   59.2020   34.3420   44.3570 O   0  0  0  0  0  0  0  0  0  0  0  0
   56.8380   34.6520   44.8810 O   0  0  0  0  0  0  0  0  0  0  0  0
   58.5210   34.4050   46.9090 N   0  0  0  0  0  0  0  0  0  0  0  0
   59.6610   34.1270   47.4650 C   0  0  0  0  0  0  0  0  0  0  0  0
   60.7860   34.1100   46.7040 N   0  0  0  0  0  0  0  0  0  0  0  0
   62.0000   33.8180   47.2450 C   0  0  0  0  0  0  0  0  0  0  0  0
   63.2210   33.8140   46.3830 C   0  0  0  0  0  0  0  0  0  0  0  0
   64.1187   33.8111   47.0188 H   0  0  0  0  0  0  0  0  0  0  0  0
   63.2185   32.9159   45.7479 H   0  0  0  0  0  0  0  0  0  0  0  0
   63.2244   34.7121   45.7479 H   0  0  0  0  0  0  0  0  0  0  0  0
   62.0960   33.5360   48.6120 C   0  0  0  0  0  0  0  0  0  0  0  0
   63.0678   33.3022   49.0712 H   0  0  0  0  0  0  0  0  0  0  0  0
   60.9320   33.5580   49.3790 C   0  0  0  0  0  0  0  0  0  0  0  0
   60.9781   33.3381   50.4558 H   0  0  0  0  0  0  0  0  0  0  0  0
   59.7420   33.8510   48.7960 N   0  0  0  0  0  0  0  0  0  0  0  0
   58.4510   31.3810   46.2000 C   0  0  0  0  0  0  0  0  0  0  0  0
   59.0389   31.8333   47.0123 H   0  0  0  0  0  0  0  0  0  0  0  0
   58.2710   29.9940   46.1580 C   0  0  0  0  0  0  0  0  0  0  0  0
   58.7332   29.3600   46.9290 H   0  0  0  0  0  0  0  0  0  0  0  0
  1  2  1  0
  2  3  1  0
  3  4  2  0
  4  5  1  0
  4  6  1  0
  6  7  1  0
  6  8  2  0
  8  9  1  0
  8 10  1  0
 10 11  1  0
 11 12  2  3
 12 13  1  0
 13 14  2  0
 13 15  1  0
 15 16  2  0
 15 17  1  0
 17 18  1  0
 18 19  2  0
 19 20  1  0
 19 21  1  0
 21 22  1  0
 21 23  2  0
 23 24  1  0
 24 25  2  0
 24 26  2  0
 24 27  1  0
 27 28  2  0
 28 29  1  0
 29 30  2  0
 30 31  1  0
 31 32  1  0
 31 33  1  0
 31 34  1  0
 30 35  1  0
 35 36  1  0
 35 37  2  0
 37 38  1  0
 37 39  1  0
 23 40  1  0
 40 41  1  0
 40 42  2  0
 42 43  1  0
 11  3  1  0
 42 18  1  0
 39 28  1  0
M  CHG  3  10  -1  17  -1  39  -1
M  END
>  <UniqueID>  (56) 
50

>  <SMILES>  (56) 
Cc1cc[n-]/c(=N\S(=O)(=O)c2ccc([N-]C(=O)C(=O)N=c3[n-]cccc3O)cc2)n1

>  <Energy>  (56) 
64.1987040596976

>  <Genealogy>  (56) 
Cc1cc[n-]c(=NS(=O)(=O)c2ccc([N-]C(=O)C(=O)N=c3[n-]cccc3O)cc2)n1 (protonated)
Cc1cc[n-]/c(=N\S(=O)(=O)c2ccc([N-]C(=O)C(=O)N=c3[n-]cccc3O)cc2)n1 (cis-trans isomerization)
Cc1cc[n-]/c(=N\S(=O)(=O)c2ccc([N-]C(=O)C(=O)N=c3[n-]cccc3O)cc2)n1 (3D coordinates assigned)
Cc1cc[n-]/c(=N\S(=O)(=O)c2ccc([N-]C(=O)C(=O)N=c3[n-]cccc3O)cc2)n1 (optimized conformer: 64.1987040596976 kcal/mol)

>  <smiles>  (56) 
Cc1cc[nH]c(=NS(=O)(=O)c2ccc(NC(=O)C(=O)N=c3[nH]cccc3O)cc2)n1

>  <score_type>  (56) 
oracle

>  <origin>  (56) 
adg

>  <m_score__min__energy>  (56) 
-13.119999999999999

>  <m_primary>  (56) 
energy

$$$$
56:0
     RDKit          3D

 69 72  0  0  0  0  0  0  0  0999 V2000
   59.1820   29.7600   51.8430 C   0  0  0  0  0  0  0  0  0  0  0  0
   60.4560   29.2870   51.1460 C   0  0  0  0  0  0  0  0  0  0  0  0
   60.2620   29.2450   49.6800 N   0  0  0  0  0  0  0  0  0  0  0  0
   58.8210   29.3400   49.3420 C   0  0  0  0  0  0  0  0  0  0  0  0
   58.5300   28.8420   47.9230 C   0  0  0  0  0  0  0  0  0  0  0  0
   58.9590   27.4460   47.7900 N   0  0  0  0  0  0  0  0  0  0  0  0
   58.2170   26.5350   46.9550 C   0  0  0  0  0  0  0  0  0  0  0  0
   57.8270   25.2870   47.4680 C   0  0  0  0  0  0  0  0  0  0  0  0
   57.0570   24.4120   46.6990 C   0  0  0  0  0  0  0  0  0  0  0  0
   56.6700   24.7670   45.4030 C   0  0  0  0  0  0  0  0  0  0  0  0
   55.7010   23.6670   44.4280 S   0  0  0  0  0  0  0  0  0  0  0  0
   55.8760   22.0570   45.0260 N   0  0  0  0  0  0  0  0  0  0  0  0
   56.1510   23.7180   42.9950 O   0  0  0  0  0  0  0  0  0  0  0  0
   54.2560   24.0760   44.4950 O   0  0  0  0  0  0  0  0  0  0  0  0
   57.0530   26.0080   44.8820 C   0  0  0  0  0  0  0  0  0  0  0  0
   57.8230   26.8970   45.6470 C   0  0  0  0  0  0  0  0  0  0  0  0
   58.2710   28.1250   45.0640 N   0  0  0  0  0  0  0  0  0  0  0  0
   57.1660   29.3140   44.4550 S   0  0  0  0  0  0  0  0  0  0  0  0
   55.8520   29.2370   45.1820 O   0  0  0  0  0  0  0  0  0  0  0  0
   56.9210   29.0760   42.9920 O   0  0  0  0  0  0  0  0  0  0  0  0
   57.8850   30.9010   44.6990 C   0  0  0  0  0  0  0  0  0  0  0  0
   57.4160   32.0090   43.9830 C   0  0  0  0  0  0  0  0  0  0  0  0
   57.8920   33.2880   44.2760 C   0  0  0  0  0  0  0  0  0  0  0  0
   58.8460   33.4760   45.2940 C   0  0  0  0  0  0  0  0  0  0  0  0
   59.3560   34.7460   45.6090 O   0  0  0  0  0  0  0  0  0  0  0  0
   59.2990   35.3410   46.9010 C   0  0  0  0  0  0  0  0  0  0  0  0
   59.3180   32.3600   46.0120 C   0  0  0  0  0  0  0  0  0  0  0  0
   60.2710   32.5310   47.0730 N   0  0  0  0  0  0  0  0  0  0  0  0
   59.8390   32.4140   48.4690 C   0  0  0  0  0  0  0  0  0  0  0  0
   61.0530   32.2710   49.3950 C   0  0  0  0  0  0  0  0  0  0  0  0
   62.0590   31.3920   48.7830 N   0  0  0  0  0  0  0  0  0  0  0  0
   62.6350   31.9750   47.5550 C   0  0  0  0  0  0  0  0  0  0  0  0
   61.6620   32.8840   46.7750 C   0  0  0  0  0  0  0  0  0  0  0  0
   58.8400   31.0790   45.7050 C   0  0  0  0  0  0  0  0  0  0  0  0
   60.0300   26.9460   48.6560 C   0  0  0  0  0  0  0  0  0  0  0  0
   60.9690   28.0940   49.0520 C   0  0  0  0  0  0  0  0  0  0  0  0
   59.3198   29.7088   52.9331 H   0  0  0  0  0  0  0  0  0  0  0  0
   58.9669   30.7979   51.5489 H   0  0  0  0  0  0  0  0  0  0  0  0
   58.3417   29.1139   51.5489 H   0  0  0  0  0  0  0  0  0  0  0  0
   61.2764   29.9806   51.3825 H   0  0  0  0  0  0  0  0  0  0  0  0
   60.6997   28.2747   51.5008 H   0  0  0  0  0  0  0  0  0  0  0  0
   58.2478   28.7310   50.0565 H   0  0  0  0  0  0  0  0  0  0  0  0
   58.5284   30.3989   49.3969 H   0  0  0  0  0  0  0  0  0  0  0  0
   57.4503   28.9129   47.7251 H   0  0  0  0  0  0  0  0  0  0  0  0
   59.0802   29.4620   47.2000 H   0  0  0  0  0  0  0  0  0  0  0  0
   58.1308   24.9963   48.4845 H   0  0  0  0  0  0  0  0  0  0  0  0
   56.7537   23.4396   47.1143 H   0  0  0  0  0  0  0  0  0  0  0  0
   55.1030   21.4910   44.6100 H   0  0  0  0  0  0  0  0  0  0  0  0
   56.7476   26.2891   43.8633 H   0  0  0  0  0  0  0  0  0  0  0  0
   59.2620   28.4230   45.2100 H   0  0  0  0  0  0  0  0  0  0  0  0
   56.6697   31.8711   43.1867 H   0  0  0  0  0  0  0  0  0  0  0  0
   57.5197   34.1536   43.7085 H   0  0  0  0  0  0  0  0  0  0  0  0
   59.3741   34.5573   47.6692 H   0  0  0  0  0  0  0  0  0  0  0  0
   60.1335   36.0484   47.0161 H   0  0  0  0  0  0  0  0  0  0  0  0
   58.3454   35.8771   47.0161 H   0  0  0  0  0  0  0  0  0  0  0  0
   59.2732   33.3146   48.7498 H   0  0  0  0  0  0  0  0  0  0  0  0
   59.2048   31.5212   48.5722 H   0  0  0  0  0  0  0  0  0  0  0  0
   61.4954   33.2629   49.5695 H   0  0  0  0  0  0  0  0  0  0  0  0
   60.7262   31.8317   50.3491 H   0  0  0  0  0  0  0  0  0  0  0  0
   61.5970   30.4810   48.5430 H   0  0  0  0  0  0  0  0  0  0  0  0
   63.5157   32.5714   47.8355 H   0  0  0  0  0  0  0  0  0  0  0  0
   62.8861   31.1344   46.8914 H   0  0  0  0  0  0  0  0  0  0  0  0
   61.8380   33.9313   47.0617 H   0  0  0  0  0  0  0  0  0  0  0  0
   61.8381   32.7482   45.6977 H   0  0  0  0  0  0  0  0  0  0  0  0
   59.2186   30.2074   46.2591 H   0  0  0  0  0  0  0  0  0  0  0  0
   59.5891   26.5075   49.5633 H   0  0  0  0  0  0  0  0  0  0  0  0
   60.6052   26.1823   48.1120 H   0  0  0  0  0  0  0  0  0  0  0  0
   61.7103   27.7076   49.7670 H   0  0  0  0  0  0  0  0  0  0  0  0
   61.4373   28.4646   48.1282 H   0  0  0  0  0  0  0  0  0  0  0  0
  1  2  1  0
  2  3  1  0
  3  4  1  0
  4  5  1  0
  5  6  1  0
  6  7  1  0
  7  8  2  0
  8  9  1  0
  9 10  2  0
 10 11  1  0
 11 12  1  0
 11 13  2  0
 11 14  2  0
 10 15  1  0
 15 16  2  0
 16 17  1  0
 17 18  1  0
 18 19  2  0
 18 20  2  0
 18 21  1  0
 21 22  2  0
 22 23  1  0
 23 24  2  0
 24 25  1  0
 25 26  1  0
 24 27  1  0
 27 28  1  0
 28 29  1  0
 29 30  1  0
 30 31  1  0
 31 32  1  0
 32 33  1  0
 27 34  2  0
  6 35  1  0
 35 36  1  0
 36  3  1  0
 16  7  1  0
 34 21  1  0
 33 28  1  0
  1 37  1  0
  1 38  1  0
  1 39  1  0
  2 40  1  0
  2 41  1  0
  4 42  1  0
  4 43  1  0
  5 44  1  0
  5 45  1  0
  8 46  1  0
  9 47  1  0
 12 48  1  0
 15 49  1  0
 17 50  1  0
 22 51  1  0
 23 52  1  0
 26 53  1  0
 26 54  1  0
 26 55  1  0
 29 56  1  0
 29 57  1  0
 30 58  1  0
 30 59  1  0
 31 60  1  0
 32 61  1  0
 32 62  1  0
 33 63  1  0
 33 64  1  0
 34 65  1  0
 35 66  1  0
 35 67  1  0
 36 68  1  0
 36 69  1  0
M  CHG  1  12  -1
M  END
>  <UniqueID>  (57) 
51

>  <SMILES>  (57) 
CCN1CCN(c2ccc(S([NH-])(=O)=O)cc2NS(=O)(=O)c2ccc(OC)c(N3CCNCC3)c2)CC1

>  <Energy>  (57) 
91.98177317678139

>  <Genealogy>  (57) 
CCN1CCN(c2ccc(S([NH-])(=O)=O)cc2NS(=O)(=O)c2ccc(OC)c(N3CCNCC3)c2)CC1 (protonated)
CCN1CCN(c2ccc(S([NH-])(=O)=O)cc2NS(=O)(=O)c2ccc(OC)c(N3CCNCC3)c2)CC1 (3D coordinates assigned)
CCN1CCN(c2ccc(S([NH-])(=O)=O)cc2NS(=O)(=O)c2ccc(OC)c(N3CCNCC3)c2)CC1 (nonaromatic ring conformer: 91.98177317678139 kcal/mol)

>  <smiles>  (57) 
CCN1CCN(c2ccc(S(N)(=O)=O)cc2NS(=O)(=O)c2ccc(OC)c(N3CCNCC3)c2)CC1

>  <score_type>  (57) 
oracle

>  <origin>  (57) 
adg

>  <m_score__min__energy>  (57) 
-11.85

>  <m_primary>  (57) 
energy

$$$$
57:0
     RDKit          3D

 53 55  0  0  0  0  0  0  0  0999 V2000
   55.1430   26.6430   45.9890 N   0  0  0  0  0  0  0  0  0  0  0  0
   56.2820   25.8650   46.3550 C   0  0  0  0  0  0  0  0  0  0  0  0
   56.2120   25.0890   47.3500 O   0  0  0  0  0  0  0  0  0  0  0  0
   57.5420   26.0170   45.6010 C   0  0  0  0  0  0  0  0  0  0  0  0
   57.9010   25.0960   44.8160 O   0  0  0  0  0  0  0  0  0  0  0  0
   58.4070   27.2520   45.7200 C   0  0  1  0  0  0  0  0  0  0  0  0
   57.5860   28.5060   46.0920 C   0  0  0  0  0  0  0  0  0  0  0  0
   57.4340   29.4630   44.9340 C   0  0  0  0  0  0  0  0  0  0  0  0
   56.3380   29.3610   44.0570 C   0  0  0  0  0  0  0  0  0  0  0  0
   56.1890   30.2690   43.0040 C   0  0  0  0  0  0  0  0  0  0  0  0
   57.1360   31.2780   42.8110 C   0  0  0  0  0  0  0  0  0  0  0  0
   58.2400   31.3760   43.6630 C   0  0  0  0  0  0  0  0  0  0  0  0
   58.3940   30.4690   44.7220 C   0  0  0  0  0  0  0  0  0  0  0  0
   59.4440   27.0420   46.7350 N   0  0  0  0  0  0  0  0  0  0  0  0
   60.0070   28.1330   47.4640 C   0  0  0  0  0  0  0  0  0  0  0  0
   60.2290   29.2250   46.8750 O   0  0  0  0  0  0  0  0  0  0  0  0
   60.3350   27.9530   48.8890 C   0  0  0  0  0  0  0  0  0  0  0  0
   60.8980   26.8140   49.3360 N   0  0  0  0  0  0  0  0  0  0  0  0
   61.0020   26.9880   50.6700 C   0  0  0  0  0  0  0  0  0  0  0  0
   60.5170   28.1690   51.0950 N   0  0  0  0  0  0  0  0  0  0  0  0
   60.0910   28.7940   49.9800 C   0  0  0  0  0  0  0  0  0  0  0  0
   59.3680   30.1000   50.0000 C   0  0  0  0  0  0  0  0  0  0  0  0
   58.1320   30.1210   50.2370 O   0  0  0  0  0  0  0  0  0  0  0  0
   60.0160   31.3700   49.8130 N   0  0  0  0  0  0  0  0  0  0  0  0
   60.4650   32.0060   48.5720 C   0  0  2  0  0  0  0  0  0  0  0  0
   61.9640   31.9040   48.4700 C   0  0  0  0  0  0  0  0  0  0  0  0
   62.5940   32.6590   47.7430 O   0  0  0  0  0  0  0  0  0  0  0  0
   59.9870   33.4730   48.4720 C   0  0  0  0  0  0  0  0  0  0  0  0
   59.0930   33.7500   47.2850 C   0  0  0  0  0  0  0  0  0  0  0  0
   57.7820   33.2410   47.2450 C   0  0  0  0  0  0  0  0  0  0  0  0
   56.9780   33.4600   46.1230 C   0  0  0  0  0  0  0  0  0  0  0  0
   57.4730   34.1880   45.0330 C   0  0  0  0  0  0  0  0  0  0  0  0
   58.7780   34.7030   45.0660 C   0  0  0  0  0  0  0  0  0  0  0  0
   59.5840   34.4870   46.1860 C   0  0  0  0  0  0  0  0  0  0  0  0
   54.5340   27.0760   46.7170 H   0  0  0  0  0  0  0  0  0  0  0  0
   58.8642   27.4225   44.7341 H   0  0  0  0  0  0  0  0  0  0  0  0
   56.5855   28.1878   46.4202 H   0  0  0  0  0  0  0  0  0  0  0  0
   58.1259   29.0333   46.8923 H   0  0  0  0  0  0  0  0  0  0  0  0
   55.5948   28.5629   44.2006 H   0  0  0  0  0  0  0  0  0  0  0  0
   55.3256   30.1888   42.3272 H   0  0  0  0  0  0  0  0  0  0  0  0
   57.0127   31.9965   41.9873 H   0  0  0  0  0  0  0  0  0  0  0  0
   58.9890   32.1655   43.5028 H   0  0  0  0  0  0  0  0  0  0  0  0
   59.2666   30.5446   45.3875 H   0  0  0  0  0  0  0  0  0  0  0  0
   61.4405   26.2376   51.3443 H   0  0  0  0  0  0  0  0  0  0  0  0
   60.0132   31.4742   47.7217 H   0  0  0  0  0  0  0  0  0  0  0  0
   62.4983   31.1417   49.0561 H   0  0  0  0  0  0  0  0  0  0  0  0
   59.4306   33.7185   49.3886 H   0  0  0  0  0  0  0  0  0  0  0  0
   60.8869   34.0923   48.3434 H   0  0  0  0  0  0  0  0  0  0  0  0
   57.3889   32.6694   48.0987 H   0  0  0  0  0  0  0  0  0  0  0  0
   55.9538   33.0597   46.0956 H   0  0  0  0  0  0  0  0  0  0  0  0
   56.8381   34.3560   44.1506 H   0  0  0  0  0  0  0  0  0  0  0  0
   59.1656   35.2761   44.2108 H   0  0  0  0  0  0  0  0  0  0  0  0
   60.6060   34.8931   46.2117 H   0  0  0  0  0  0  0  0  0  0  0  0
  1  2  1  0
  2  3  2  0
  2  4  1  0
  4  5  2  0
  4  6  1  0
  6  7  1  0
  7  8  1  0
  8  9  2  0
  9 10  1  0
 10 11  2  0
 11 12  1  0
 12 13  2  0
  6 14  1  0
 14 15  1  0
 15 16  2  0
 15 17  1  0
 17 18  1  0
 18 19  1  0
 19 20  2  0
 20 21  1  0
 21 22  1  0
 22 23  2  0
 22 24  1  0
 24 25  1  0
 25 26  1  0
 26 27  2  0
 25 28  1  0
 28 29  1  0
 29 30  2  0
 30 31  1  0
 31 32  2  0
 32 33  1  0
 33 34  2  0
 13  8  1  0
 21 17  2  0
 34 29  1  0
  1 35  1  0
  6 36  1  6
  7 37  1  0
  7 38  1  0
  9 39  1  0
 10 40  1  0
 11 41  1  0
 12 42  1  0
 13 43  1  0
 19 44  1  0
 25 45  1  6
 26 46  1  0
 28 47  1  0
 28 48  1  0
 30 49  1  0
 31 50  1  0
 32 51  1  0
 33 52  1  0
 34 53  1  0
M  CHG  4   1  -1  14  -1  18  -1  24  -1
M  END
>  <UniqueID>  (58) 
52

>  <SMILES>  (58) 
[NH-]C(=O)C(=O)[C@@H](Cc1ccccc1)[N-]C(=O)c1[n-]cnc1C(=O)[N-][C@H](C=O)Cc1ccccc1

>  <Energy>  (58) 
88.25212405167181

>  <Genealogy>  (58) 
[NH-]C(=O)C(=O)C(Cc1ccccc1)[N-]C(=O)c1[n-]cnc1C(=O)[N-]C(C=O)Cc1ccccc1 (protonated)
[NH-]C(=O)C(=O)[C@@H](Cc1ccccc1)[N-]C(=O)c1[n-]cnc1C(=O)[N-][C@H](C=O)Cc1ccccc1 (chirality)
[NH-]C(=O)C(=O)[C@@H](Cc1ccccc1)[N-]C(=O)c1[n-]cnc1C(=O)[N-][C@H](C=O)Cc1ccccc1 (3D coordinates assigned)
[NH-]C(=O)C(=O)[C@@H](Cc1ccccc1)[N-]C(=O)c1[n-]cnc1C(=O)[N-][C@H](C=O)Cc1ccccc1 (optimized conformer: 88.25212405167181 kcal/mol)

>  <smiles>  (58) 
NC(=O)C(=O)C(Cc1ccccc1)NC(=O)c1[nH]cnc1C(=O)NC(C=O)Cc1ccccc1

>  <score_type>  (58) 
oracle

>  <origin>  (58) 
adg

>  <m_score__min__energy>  (58) 
-16.870000000000001

>  <m_primary>  (58) 
energy

$$$$
58:0
     RDKit          3D

 34 35  0  0  0  0  0  0  0  0999 V2000
   59.9030   29.0980   45.0030 C   0  0  0  0  0  0  0  0  0  0  0  0
   58.5810   29.7640   44.9020 C   0  0  0  0  0  0  0  0  0  0  0  0
   58.5510   31.1160   44.9820 N   0  0  0  0  0  0  0  0  0  0  0  0
   57.3750   31.8030   44.8990 C   0  0  0  0  0  0  0  0  0  0  0  0
   57.4750   33.5750   45.0200 S   0  0  0  0  0  0  0  0  0  0  0  0
   59.1890   34.0780   44.9300 C   0  0  0  0  0  0  0  0  0  0  0  0
   59.8510   34.0110   46.2770 C   0  0  0  0  0  0  0  0  0  0  0  0
   59.2280   34.5640   47.3790 C   0  0  0  0  0  0  0  0  0  0  0  0
   59.8240   34.5150   48.6450 C   0  0  0  0  0  0  0  0  0  0  0  0
   61.0670   33.8920   48.7720 C   0  0  0  0  0  0  0  0  0  0  0  0
   61.6870   33.3350   47.6480 C   0  0  0  0  0  0  0  0  0  0  0  0
   61.0950   33.3870   46.3980 C   0  0  0  0  0  0  0  0  0  0  0  0
   56.2180   31.1350   44.7330 N   0  0  0  0  0  0  0  0  0  0  0  0
   56.2150   29.7730   44.6480 C   0  0  0  0  0  0  0  0  0  0  0  0
   55.1380   29.1290   44.4920 O   0  0  0  0  0  0  0  0  0  0  0  0
   57.3970   29.0650   44.7310 C   0  0  0  0  0  0  0  0  0  0  0  0
   57.4530   27.5760   44.6460 C   0  0  0  0  0  0  0  0  0  0  0  0
   56.7310   27.0510   45.8510 C   0  0  0  0  0  0  0  0  0  0  0  0
   57.3820   26.7310   46.8800 O   0  0  0  0  0  0  0  0  0  0  0  0
   55.3530   26.9000   45.8830 O   0  0  0  0  0  0  0  0  0  0  0  0
   60.1666   28.9652   46.0626 H   0  0  0  0  0  0  0  0  0  0  0  0
   59.8571   28.1154   44.5106 H   0  0  0  0  0  0  0  0  0  0  0  0
   60.6653   29.7196   44.5106 H   0  0  0  0  0  0  0  0  0  0  0  0
   59.4500   31.6340   45.1110 H   0  0  0  0  0  0  0  0  0  0  0  0
   59.7217   33.4114   44.2358 H   0  0  0  0  0  0  0  0  0  0  0  0
   59.2263   35.1192   44.5771 H   0  0  0  0  0  0  0  0  0  0  0  0
   58.2486   35.0503   47.2600 H   0  0  0  0  0  0  0  0  0  0  0  0
   59.3244   34.9572   49.5195 H   0  0  0  0  0  0  0  0  0  0  0  0
   61.5585   33.8391   49.7547 H   0  0  0  0  0  0  0  0  0  0  0  0
   62.6656   32.8454   47.7602 H   0  0  0  0  0  0  0  0  0  0  0  0
   61.5922   32.9475   45.5207 H   0  0  0  0  0  0  0  0  0  0  0  0
   56.9588   27.2294   43.7264 H   0  0  0  0  0  0  0  0  0  0  0  0
   58.4931   27.2188   44.6197 H   0  0  0  0  0  0  0  0  0  0  0  0
   54.7700   27.1010   45.0550 H   0  0  0  0  0  0  0  0  0  0  0  0
  1  2  1  0
  2  3  1  0
  3  4  1  0
  4  5  1  0
  5  6  1  0
  6  7  1  0
  7  8  2  0
  8  9  1  0
  9 10  2  0
 10 11  1  0
 11 12  2  0
  4 13  2  0
 13 14  1  0
 14 15  2  0
 14 16  1  0
 16 17  1  0
 17 18  1  0
 18 19  2  0
 18 20  1  0
 16  2  2  0
 12  7  1  0
  1 21  1  0
  1 22  1  0
  1 23  1  0
  3 24  1  0
  6 25  1  0
  6 26  1  0
  8 27  1  0
  9 28  1  0
 10 29  1  0
 11 30  1  0
 12 31  1  0
 17 32  1  0
 17 33  1  0
 20 34  1  0
M  END
>  <smiles>  (59) 
Cc1[nH]c(SCc2ccccc2)nc(=O)c1CC(=O)O

>  <score_type>  (59) 
oracle

>  <origin>  (59) 
adg

>  <m_score__min__energy>  (59) 
-8.8699999999999992

>  <m_primary>  (59) 
energy

$$$$
59:0
     RDKit          3D

 55 58  0  0  0  0  0  0  0  0999 V2000
   56.2380   31.7870   44.8260 O   0  0  0  0  0  0  0  0  0  0  0  0
   57.3670   31.4580   45.2780 C   0  0  0  0  0  0  0  0  0  0  0  0
   57.7330   30.0750   45.2870 N   0  0  0  0  0  0  0  0  0  0  0  0
   56.7820   28.9730   45.1860 C   0  0  0  0  0  0  0  0  0  0  0  0
   57.3460   27.7670   45.8850 C   0  0  0  0  0  0  0  0  0  0  0  0
   58.7120   27.7260   46.2150 C   0  0  0  0  0  0  0  0  0  0  0  0
   59.2360   26.6350   46.9150 C   0  0  0  0  0  0  0  0  0  0  0  0
   58.4010   25.5830   47.3020 C   0  0  0  0  0  0  0  0  0  0  0  0
   57.0400   25.6190   46.9890 C   0  0  0  0  0  0  0  0  0  0  0  0
   56.5070   26.7080   46.2890 C   0  0  0  0  0  0  0  0  0  0  0  0
   55.1460   26.7280   45.9990 O   0  0  0  0  0  0  0  0  0  0  0  0
   58.2600   32.5030   45.8180 C   0  0  0  0  0  0  0  0  0  0  0  0
   58.4700   33.6840   45.0860 C   0  0  0  0  0  0  0  0  0  0  0  0
   59.3110   34.6820   45.5810 C   0  0  0  0  0  0  0  0  0  0  0  0
   59.9420   34.5160   46.8150 C   0  0  0  0  0  0  0  0  0  0  0  0
   59.7320   33.3530   47.5580 C   0  0  0  0  0  0  0  0  0  0  0  0
   58.8980   32.3330   47.0640 C   0  0  0  0  0  0  0  0  0  0  0  0
   58.6600   31.1400   47.8300 N   0  0  0  0  0  0  0  0  0  0  0  0
   59.1810   30.8680   49.1360 C   0  0  0  0  0  0  0  0  0  0  0  0
   60.1790   30.1070   49.2410 O   0  0  0  0  0  0  0  0  0  0  0  0
   58.6120   31.5010   50.3470 C   0  0  0  0  0  0  0  0  0  0  0  0
   57.4630   30.9540   50.9450 C   0  0  0  0  0  0  0  0  0  0  0  0
   56.9040   31.5460   52.0790 C   0  0  0  0  0  0  0  0  0  0  0  0
   57.4810   32.6920   52.6260 C   0  0  0  0  0  0  0  0  0  0  0  0
   58.6280   33.2440   52.0480 C   0  0  0  0  0  0  0  0  0  0  0  0
   59.2090   32.6510   50.9090 C   0  0  0  0  0  0  0  0  0  0  0  0
   60.3840   33.1610   50.3260 O   0  0  0  0  0  0  0  0  0  0  0  0
   61.6850   32.6110   50.5060 C   0  0  0  0  0  0  0  0  0  0  0  0
   62.4400   32.7150   49.2140 C   0  0  0  0  0  0  0  0  0  0  0  0
   62.6600   31.5680   48.4320 C   0  0  0  0  0  0  0  0  0  0  0  0
   63.3270   31.6680   47.2070 C   0  0  0  0  0  0  0  0  0  0  0  0
   63.7700   32.9130   46.7500 C   0  0  0  0  0  0  0  0  0  0  0  0
   63.5410   34.0610   47.5150 C   0  0  0  0  0  0  0  0  0  0  0  0
   62.8720   33.9650   48.7400 C   0  0  0  0  0  0  0  0  0  0  0  0
   55.8323   29.2621   45.6598 H   0  0  0  0  0  0  0  0  0  0  0  0
   56.6026   28.7358   44.1270 H   0  0  0  0  0  0  0  0  0  0  0  0
   59.3715   28.5559   45.9212 H   0  0  0  0  0  0  0  0  0  0  0  0
   60.3076   26.6045   47.1617 H   0  0  0  0  0  0  0  0  0  0  0  0
   58.8158   24.7263   47.8533 H   0  0  0  0  0  0  0  0  0  0  0  0
   56.3852   24.7892   47.2934 H   0  0  0  0  0  0  0  0  0  0  0  0
   57.9685   33.8228   44.1169 H   0  0  0  0  0  0  0  0  0  0  0  0
   59.4767   35.6001   44.9982 H   0  0  0  0  0  0  0  0  0  0  0  0
   60.6058   35.3029   47.2026 H   0  0  0  0  0  0  0  0  0  0  0  0
   60.2215   33.2332   48.5357 H   0  0  0  0  0  0  0  0  0  0  0  0
   57.0010   30.0526   50.5160 H   0  0  0  0  0  0  0  0  0  0  0  0
   56.0073   31.1081   52.5418 H   0  0  0  0  0  0  0  0  0  0  0  0
   57.0328   33.1622   53.5137 H   0  0  0  0  0  0  0  0  0  0  0  0
   59.0799   34.1468   52.4849 H   0  0  0  0  0  0  0  0  0  0  0  0
   62.2167   33.1697   51.2903 H   0  0  0  0  0  0  0  0  0  0  0  0
   61.6050   31.5560   50.8068 H   0  0  0  0  0  0  0  0  0  0  0  0
   62.3062   30.5881   48.7849 H   0  0  0  0  0  0  0  0  0  0  0  0
   63.5034   30.7662   46.6023 H   0  0  0  0  0  0  0  0  0  0  0  0
   64.2988   32.9894   45.7885 H   0  0  0  0  0  0  0  0  0  0  0  0
   63.8872   35.0404   47.1533 H   0  0  0  0  0  0  0  0  0  0  0  0
   62.6836   34.8714   49.3341 H   0  0  0  0  0  0  0  0  0  0  0  0
  1  2  2  0
  2  3  1  0
  3  4  1  0
  4  5  1  0
  5  6  2  0
  6  7  1  0
  7  8  2  0
  8  9  1  0
  9 10  2  0
 10 11  1  0
  2 12  1  0
 12 13  2  0
 13 14  1  0
 14 15  2  0
 15 16  1  0
 16 17  2  0
 17 18  1  0
 18 19  1  0
 19 20  2  0
 19 21  1  0
 21 22  2  0
 22 23  1  0
 23 24  2  0
 24 25  1  0
 25 26  2  0
 26 27  1  0
 27 28  1  0
 28 29  1  0
 29 30  2  0
 30 31  1  0
 31 32  2  0
 32 33  1  0
 33 34  2  0
 10  5  1  0
 17 12  1  0
 26 21  1  0
 34 29  1  0
  4 35  1  0
  4 36  1  0
  6 37  1  0
  7 38  1  0
  8 39  1  0
  9 40  1  0
 13 41  1  0
 14 42  1  0
 15 43  1  0
 16 44  1  0
 22 45  1  0
 23 46  1  0
 24 47  1  0
 25 48  1  0
 28 49  1  0
 28 50  1  0
 30 51  1  0
 31 52  1  0
 32 53  1  0
 33 54  1  0
 34 55  1  0
M  CHG  3   3  -1  11  -1  18  -1
M  END
>  <UniqueID>  (60) 
53

>  <SMILES>  (60) 
O=C([N-]Cc1ccccc1[O-])c1ccccc1[N-]C(=O)c1ccccc1OCc1ccccc1

>  <Energy>  (60) 
71.47116207952243

>  <Genealogy>  (60) 
O=C([N-]Cc1ccccc1[O-])c1ccccc1[N-]C(=O)c1ccccc1OCc1ccccc1 (protonated)
O=C([N-]Cc1ccccc1[O-])c1ccccc1[N-]C(=O)c1ccccc1OCc1ccccc1 (3D coordinates assigned)
O=C([N-]Cc1ccccc1[O-])c1ccccc1[N-]C(=O)c1ccccc1OCc1ccccc1 (optimized conformer: 71.47116207952243 kcal/mol)

>  <smiles>  (60) 
O=C(NCc1ccccc1O)c1ccccc1NC(=O)c1ccccc1OCc1ccccc1

>  <score_type>  (60) 
oracle

>  <origin>  (60) 
adg

>  <m_score__min__energy>  (60) 
-15.720000000000001

>  <m_primary>  (60) 
energy

$$$$
60:0
     RDKit          3D

 51 53  0  0  0  0  0  0  0  0999 V2000
   58.1370   32.8340   43.6310 C   0  0  0  0  0  0  0  0  0  0  0  0
   57.2930   32.5270   44.8760 C   0  0  2  0  0  0  0  0  0  0  0  0
   58.0320   32.7280   46.2190 C   0  0  0  0  0  0  0  0  0  0  0  0
   59.2090   33.7250   46.2350 C   0  0  0  0  0  0  0  0  0  0  0  0
   60.5230   33.1420   46.7050 C   0  0  0  0  0  0  0  0  0  0  0  0
   61.6920   33.9220   46.6650 C   0  0  0  0  0  0  0  0  0  0  0  0
   62.9140   33.3910   47.0820 C   0  0  0  0  0  0  0  0  0  0  0  0
   62.9880   32.0710   47.5290 C   0  0  0  0  0  0  0  0  0  0  0  0
   61.8400   31.2750   47.5400 C   0  0  0  0  0  0  0  0  0  0  0  0
   60.6160   31.8000   47.1130 C   0  0  0  0  0  0  0  0  0  0  0  0
   56.6040   31.2330   44.8070 N   0  0  0  0  0  0  0  0  0  0  0  0
   56.8640   30.1230   43.9330 C   0  0  0  0  0  0  0  0  0  0  0  0
   56.7450   30.2510   42.6840 O   0  0  0  0  0  0  0  0  0  0  0  0
   57.2480   28.8100   44.5020 C   0  0  0  0  0  0  0  0  0  0  0  0
   57.0330   28.5250   45.8650 C   0  0  0  0  0  0  0  0  0  0  0  0
   57.3950   27.2840   46.3940 C   0  0  0  0  0  0  0  0  0  0  0  0
   57.9870   26.3060   45.5800 C   0  0  0  0  0  0  0  0  0  0  0  0
   58.3880   24.9680   46.1480 C   0  0  0  0  0  0  0  0  0  0  0  0
   57.8340   23.8640   45.3330 N   0  0  0  0  0  0  0  0  0  0  0  0
   58.6430   22.8400   44.8790 C   0  0  0  0  0  0  0  0  0  0  0  0
   60.0320   22.7500   45.2370 N   0  0  0  0  0  0  0  0  0  0  0  0
   58.1140   21.8510   44.0420 C   0  0  0  0  0  0  0  0  0  0  0  0
   56.7700   21.9030   43.7030 C   0  0  0  0  0  0  0  0  0  0  0  0
   56.2650   21.0140   42.9670 O   0  0  0  0  0  0  0  0  0  0  0  0
   55.9960   22.9070   44.1760 N   0  0  0  0  0  0  0  0  0  0  0  0
   56.5040   23.8790   44.9730 C   0  0  0  0  0  0  0  0  0  0  0  0
   55.7320   24.7950   45.3720 O   0  0  0  0  0  0  0  0  0  0  0  0
   58.1880   26.5810   44.2180 C   0  0  0  0  0  0  0  0  0  0  0  0
   57.8250   27.8200   43.6850 C   0  0  0  0  0  0  0  0  0  0  0  0
   59.1290   33.1948   43.9404 H   0  0  0  0  0  0  0  0  0  0  0  0
   58.2504   31.9195   43.0303 H   0  0  0  0  0  0  0  0  0  0  0  0
   57.6364   33.6076   43.0303 H   0  0  0  0  0  0  0  0  0  0  0  0
   56.5106   33.3001   44.8611 H   0  0  0  0  0  0  0  0  0  0  0  0
   57.2924   33.0777   46.9543 H   0  0  0  0  0  0  0  0  0  0  0  0
   58.4857   31.7509   46.4414 H   0  0  0  0  0  0  0  0  0  0  0  0
   59.3492   34.1064   45.2128 H   0  0  0  0  0  0  0  0  0  0  0  0
   58.9414   34.5110   46.9565 H   0  0  0  0  0  0  0  0  0  0  0  0
   61.6434   34.9593   46.3021 H   0  0  0  0  0  0  0  0  0  0  0  0
   63.8201   34.0142   47.0582 H   0  0  0  0  0  0  0  0  0  0  0  0
   63.9482   31.6582   47.8719 H   0  0  0  0  0  0  0  0  0  0  0  0
   61.8989   30.2323   47.8855 H   0  0  0  0  0  0  0  0  0  0  0  0
   59.7218   31.1597   47.0963 H   0  0  0  0  0  0  0  0  0  0  0  0
   56.5771   29.2848   46.5168 H   0  0  0  0  0  0  0  0  0  0  0  0
   57.2145   27.0714   47.4580 H   0  0  0  0  0  0  0  0  0  0  0  0
   59.4855   24.8942   46.1568 H   0  0  0  0  0  0  0  0  0  0  0  0
   57.9906   24.8854   47.1704 H   0  0  0  0  0  0  0  0  0  0  0  0
   60.7820   22.5720   44.5360 H   0  0  0  0  0  0  0  0  0  0  0  0
   60.3410   22.9720   46.2090 H   0  0  0  0  0  0  0  0  0  0  0  0
   58.7551   21.0437   43.6583 H   0  0  0  0  0  0  0  0  0  0  0  0
   58.6344   25.8155   43.5662 H   0  0  0  0  0  0  0  0  0  0  0  0
   57.9916   28.0238   42.6170 H   0  0  0  0  0  0  0  0  0  0  0  0
  1  2  1  0
  2  3  1  0
  3  4  1  0
  4  5  1  0
  5  6  2  0
  6  7  1  0
  7  8  2  0
  8  9  1  0
  9 10  2  0
  2 11  1  0
 11 12  1  0
 12 13  2  0
 12 14  1  0
 14 15  2  0
 15 16  1  0
 16 17  2  0
 17 18  1  0
 18 19  1  0
 19 20  1  0
 20 21  1  0
 20 22  2  0
 22 23  1  0
 23 24  2  0
 23 25  1  0
 25 26  1  0
 26 27  2  0
 17 28  1  0
 28 29  2  0
 10  5  1  0
 29 14  1  0
 26 19  1  0
  1 30  1  0
  1 31  1  0
  1 32  1  0
  2 33  1  1
  3 34  1  0
  3 35  1  0
  4 36  1  0
  4 37  1  0
  6 38  1  0
  7 39  1  0
  8 40  1  0
  9 41  1  0
 10 42  1  0
 15 43  1  0
 16 44  1  0
 18 45  1  0
 18 46  1  0
 21 47  1  0
 21 48  1  0
 22 49  1  0
 28 50  1  0
 29 51  1  0
M  CHG  2  11  -1  25  -1
M  END
>  <UniqueID>  (61) 
54

>  <SMILES>  (61) 
C[C@H](CCc1ccccc1)[N-]C(=O)c1ccc(Cn2c(N)cc(=O)[n-]c2=O)cc1

>  <Energy>  (61) 
60.51513802651126

>  <Genealogy>  (61) 
CC(CCc1ccccc1)[N-]C(=O)c1ccc(Cn2c(N)cc(=O)[n-]c2=O)cc1 (protonated)
C[C@H](CCc1ccccc1)[N-]C(=O)c1ccc(Cn2c(N)cc(=O)[n-]c2=O)cc1 (chirality)
C[C@H](CCc1ccccc1)[N-]C(=O)c1ccc(Cn2c(N)cc(=O)[n-]c2=O)cc1 (3D coordinates assigned)
C[C@H](CCc1ccccc1)[N-]C(=O)c1ccc(Cn2c(N)cc(=O)[n-]c2=O)cc1 (optimized conformer: 60.51513802651126 kcal/mol)

>  <smiles>  (61) 
CC(CCc1ccccc1)NC(=O)c1ccc(Cn2c(N)cc(=O)[nH]c2=O)cc1

>  <score_type>  (61) 
oracle

>  <origin>  (61) 
adg

>  <m_score__min__energy>  (61) 
-12.130000000000001

>  <m_primary>  (61) 
energy

$$$$
61:0
     RDKit          3D

 48 51  0  0  0  0  0  0  0  0999 V2000
   60.6650   34.6121   49.2559 H   0  0  0  0  0  0  0  0  0  0  0  0
   60.0140   34.1390   48.5060 C   0  0  0  0  0  0  0  0  0  0  0  0
   59.2650   33.0140   48.8450 C   0  0  0  0  0  0  0  0  0  0  0  0
   59.3287   32.5974   49.8611 H   0  0  0  0  0  0  0  0  0  0  0  0
   58.4340   32.4150   47.8970 C   0  0  0  0  0  0  0  0  0  0  0  0
   57.8490   31.5249   48.1718 H   0  0  0  0  0  0  0  0  0  0  0  0
   58.3360   32.9360   46.5950 C   0  0  0  0  0  0  0  0  0  0  0  0
   57.3940   32.2560   45.6250 C   0  0  0  0  0  0  0  0  0  0  0  0
   56.8011   31.5052   46.1678 H   0  0  0  0  0  0  0  0  0  0  0  0
   56.7400   33.0212   45.1813 H   0  0  0  0  0  0  0  0  0  0  0  0
   58.3130   31.4290   44.2770 S   0  0  0  0  0  0  0  0  0  0  0  0
   58.1090   29.7770   44.9480 C   0  0  0  0  0  0  0  0  0  0  0  0
   56.8920   29.1830   45.0530 N   0  0  0  0  0  0  0  0  0  0  0  0
   57.1860   27.9920   45.6070 C   0  0  0  0  0  0  0  0  0  0  0  0
   56.2990   26.9740   45.9490 C   0  0  0  0  0  0  0  0  0  0  0  0
   55.2196   27.0734   45.7620 H   0  0  0  0  0  0  0  0  0  0  0  0
   56.8310   25.8140   46.5420 C   0  0  0  0  0  0  0  0  0  0  0  0
   56.1615   24.9874   46.8222 H   0  0  0  0  0  0  0  0  0  0  0  0
   58.2200   25.7040   46.7800 C   0  0  0  0  0  0  0  0  0  0  0  0
   58.6238   24.7945   47.2487 H   0  0  0  0  0  0  0  0  0  0  0  0
   59.0900   26.7510   46.4210 C   0  0  0  0  0  0  0  0  0  0  0  0
   60.1728   26.6797   46.6011 H   0  0  0  0  0  0  0  0  0  0  0  0
   58.5280   27.8830   45.8280 C   0  0  0  0  0  0  0  0  0  0  0  0
   59.1320   29.0060   45.4030 N   0  0  0  0  0  0  0  0  0  0  0  0
   60.5490   29.3550   45.5080 C   0  0  0  0  0  0  0  0  0  0  0  0
   61.1549   28.4385   45.4533 H   0  0  0  0  0  0  0  0  0  0  0  0
   60.8169   30.0294   44.6813 H   0  0  0  0  0  0  0  0  0  0  0  0
   60.8110   30.0450   46.8090 C   0  0  0  0  0  0  0  0  0  0  0  0
   60.6750   29.4080   47.8880 O   0  0  0  0  0  0  0  0  0  0  0  0
   61.3150   31.3900   46.7990 N   0  0  0  0  0  0  0  0  0  0  0  0
   62.2650   31.9100   47.5270 C   0  0  0  0  0  0  0  0  0  0  0  0
   63.1030   32.9470   47.0590 C   0  0  0  0  0  0  0  0  0  0  0  0
   62.9658   33.3563   46.0472 H   0  0  0  0  0  0  0  0  0  0  0  0
   64.1060   33.4480   47.8900 C   0  0  0  0  0  0  0  0  0  0  0  0
   64.7585   34.2600   47.5365 H   0  0  0  0  0  0  0  0  0  0  0  0
   64.2810   32.9200   49.1670 C   0  0  0  0  0  0  0  0  0  0  0  0
   65.0652   33.3156   49.8293 H   0  0  0  0  0  0  0  0  0  0  0  0
   63.4520   31.8850   49.5970 C   0  0  0  0  0  0  0  0  0  0  0  0
   63.5852   31.4567   50.6014 H   0  0  0  0  0  0  0  0  0  0  0  0
   62.4780   31.4030   48.7770 N   0  0  0  0  0  0  0  0  0  0  0  0
   61.8750   30.6240   49.1280 H   0  0  0  0  0  0  0  0  0  0  0  0
   59.1070   34.0770   46.2470 C   0  0  0  0  0  0  0  0  0  0  0  0
   59.0770   34.6690   44.8620 C   0  0  0  0  0  0  0  0  0  0  0  0
   59.0214   35.7653   44.9330 H   0  0  0  0  0  0  0  0  0  0  0  0
   59.9908   34.3824   44.3209 H   0  0  0  0  0  0  0  0  0  0  0  0
   58.1968   34.2915   44.3209 H   0  0  0  0  0  0  0  0  0  0  0  0
   59.9390   34.6660   47.2160 C   0  0  0  0  0  0  0  0  0  0  0  0
   60.5369   35.5514   46.9543 H   0  0  0  0  0  0  0  0  0  0  0  0
  1  2  1  0
  2  3  2  0
  3  4  1  0
  3  5  1  0
  5  6  1  0
  5  7  2  0
  7  8  1  0
  8  9  1  0
  8 10  1  0
  8 11  1  0
 11 12  1  0
 12 13  2  0
 13 14  1  0
 14 15  2  0
 15 16  1  0
 15 17  1  0
 17 18  1  0
 17 19  2  0
 19 20  1  0
 19 21  1  0
 21 22  1  0
 21 23  2  0
 23 24  1  0
 24 25  1  0
 25 26  1  0
 25 27  1  0
 25 28  1  0
 28 29  2  0
 28 30  1  0
 30 31  2  0
 31 32  1  0
 32 33  1  0
 32 34  2  0
 34 35  1  0
 34 36  1  0
 36 37  1  0
 36 38  2  0
 38 39  1  0
 38 40  1  0
 40 41  1  0
  7 42  1  0
 42 43  1  0
 43 44  1  0
 43 45  1  0
 43 46  1  0
 42 47  2  0
 47 48  1  0
 47  2  1  0
 24 12  1  0
 40 31  1  0
 23 14  1  0
M  END
>  <UniqueID>  (62) 
55

>  <SMILES>  (62) 
Cc1ccccc1CSc1nc2ccccc2n1CC(=O)/N=c1\cccc[nH]1

>  <Energy>  (62) 
91.10221085470114

>  <Genealogy>  (62) 
Cc1ccccc1CSc1nc2ccccc2n1CC(=O)/N=c1\cccc[nH]1 (cis-trans isomerization)
Cc1ccccc1CSc1nc2ccccc2n1CC(=O)/N=c1\cccc[nH]1 (3D coordinates assigned)
Cc1ccccc1CSc1nc2ccccc2n1CC(=O)/N=c1\cccc[nH]1 (optimized conformer: 91.10221085470114 kcal/mol)

>  <smiles>  (62) 
Cc1ccccc1CSc1nc2ccccc2n1CC(=O)N=c1cccc[nH]1

>  <score_type>  (62) 
oracle

>  <origin>  (62) 
adg

>  <m_score__min__energy>  (62) 
-8.6899999999999995

>  <m_primary>  (62) 
energy

$$$$
62:0
     RDKit          3D

 42 44  0  0  0  0  0  0  0  0999 V2000
   59.8989   26.7989   44.9749 H   0  0  0  0  0  0  0  0  0  0  0  0
   58.8360   26.7930   45.2580 C   0  0  0  0  0  0  0  0  0  0  0  0
   58.0540   27.8700   44.9840 N   0  0  0  0  0  0  0  0  0  0  0  0
   56.7330   27.9240   45.3140 C   0  0  0  0  0  0  0  0  0  0  0  0
   56.0810   29.0140   45.0110 N   0  0  0  0  0  0  0  0  0  0  0  0
   56.5860   30.3400   44.7920 C   0  0  0  0  0  0  0  0  0  0  0  0
   55.9860   31.1150   43.9980 O   0  0  0  0  0  0  0  0  0  0  0  0
   57.7360   30.8370   45.5830 C   0  0  0  0  0  0  0  0  0  0  0  0
   58.1960   30.1180   46.6980 C   0  0  0  0  0  0  0  0  0  0  0  0
   57.6978   29.1805   46.9859 H   0  0  0  0  0  0  0  0  0  0  0  0
   59.2800   30.5830   47.4440 C   0  0  0  0  0  0  0  0  0  0  0  0
   59.6230   30.0144   48.3210 H   0  0  0  0  0  0  0  0  0  0  0  0
   59.9340   31.7670   47.0850 C   0  0  0  0  0  0  0  0  0  0  0  0
   61.0430   32.2150   47.8790 N   0  0  0  0  0  0  0  0  0  0  0  0
   61.1840   33.2450   47.9790 H   0  0  0  0  0  0  0  0  0  0  0  0
   61.8650   31.3220   48.6490 C   0  0  0  0  0  0  0  0  0  0  0  0
   61.6540   30.0800   48.6210 O   0  0  0  0  0  0  0  0  0  0  0  0
   62.9780   31.8440   49.4650 C   0  0  0  0  0  0  0  0  0  0  0  0
   63.0940   31.4240   50.8010 C   0  0  0  0  0  0  0  0  0  0  0  0
   62.3534   30.7272   51.2206 H   0  0  0  0  0  0  0  0  0  0  0  0
   64.1430   31.8850   51.6000 C   0  0  0  0  0  0  0  0  0  0  0  0
   64.2307   31.5440   52.6421 H   0  0  0  0  0  0  0  0  0  0  0  0
   65.0790   32.7770   51.0780 C   0  0  0  0  0  0  0  0  0  0  0  0
   65.9087   33.1325   51.7067 H   0  0  0  0  0  0  0  0  0  0  0  0
   64.9650   33.2200   49.7580 C   0  0  0  0  0  0  0  0  0  0  0  0
   65.7017   33.9296   49.3533 H   0  0  0  0  0  0  0  0  0  0  0  0
   63.9170   32.7650   48.9470 C   0  0  0  0  0  0  0  0  0  0  0  0
   63.7700   33.4380   47.3270 Cl  0  0  0  0  0  0  0  0  0  0  0  0
   59.4640   32.5240   45.9940 C   0  0  0  0  0  0  0  0  0  0  0  0
   60.0810   33.7520   45.7050 O   0  0  0  0  0  0  0  0  0  0  0  0
   59.4050   35.0030   45.6380 C   0  0  0  0  0  0  0  0  0  0  0  0
   59.2077   35.3682   46.6567 H   0  0  0  0  0  0  0  0  0  0  0  0
   60.0326   35.7307   45.1028 H   0  0  0  0  0  0  0  0  0  0  0  0
   58.4523   34.8768   45.1028 H   0  0  0  0  0  0  0  0  0  0  0  0
   58.3740   32.0430   45.2420 C   0  0  0  0  0  0  0  0  0  0  0  0
   58.0168   32.6191   44.3756 H   0  0  0  0  0  0  0  0  0  0  0  0
   56.1390   26.7900   45.9260 C   0  0  0  0  0  0  0  0  0  0  0  0
   54.7770   26.7110   46.1900 O   0  0  0  0  0  0  0  0  0  0  0  0
   56.9380   25.6830   46.2280 C   0  0  0  0  0  0  0  0  0  0  0  0
   56.4961   24.8091   46.7290 H   0  0  0  0  0  0  0  0  0  0  0  0
   58.2920   25.6820   45.8970 C   0  0  0  0  0  0  0  0  0  0  0  0
   58.9232   24.8139   46.1377 H   0  0  0  0  0  0  0  0  0  0  0  0
  1  2  1  0
  2  3  1  0
  3  4  1  0
  4  5  2  0
  5  6  1  0
  6  7  2  0
  6  8  1  0
  8  9  2  0
  9 10  1  0
  9 11  1  0
 11 12  1  0
 11 13  2  0
 13 14  1  0
 14 15  1  0
 14 16  1  0
 16 17  2  0
 16 18  1  0
 18 19  2  0
 19 20  1  0
 19 21  1  0
 21 22  1  0
 21 23  2  0
 23 24  1  0
 23 25  1  0
 25 26  1  0
 25 27  2  0
 27 28  1  0
 13 29  1  0
 29 30  1  0
 30 31  1  0
 31 32  1  0
 31 33  1  0
 31 34  1  0
 29 35  2  0
 35 36  1  0
  4 37  1  0
 37 38  1  0
 37 39  2  0
 39 40  1  0
 39 41  1  0
 41 42  1  0
 41  2  2  0
 35  8  1  0
 27 18  1  0
M  CHG  2   3  -1  38  -1
M  END
>  <UniqueID>  (63) 
56

>  <SMILES>  (63) 
COc1cc(C(=O)/N=c2/[n-]cccc2[O-])ccc1NC(=O)c1ccccc1Cl

>  <Energy>  (63) 
69.36078544690066

>  <Genealogy>  (63) 
COc1cc(C(=O)N=c2[n-]cccc2[O-])ccc1NC(=O)c1ccccc1Cl (protonated)
COc1cc(C(=O)/N=c2/[n-]cccc2[O-])ccc1NC(=O)c1ccccc1Cl (cis-trans isomerization)
COc1cc(C(=O)/N=c2/[n-]cccc2[O-])ccc1NC(=O)c1ccccc1Cl (3D coordinates assigned)
COc1cc(C(=O)/N=c2/[n-]cccc2[O-])ccc1NC(=O)c1ccccc1Cl (optimized conformer: 69.36078544690066 kcal/mol)

>  <smiles>  (63) 
COc1cc(C(=O)N=c2[nH]cccc2O)ccc1NC(=O)c1ccccc1Cl

>  <score_type>  (63) 
oracle

>  <origin>  (63) 
adg

>  <m_score__min__energy>  (63) 
-12.98

>  <m_primary>  (63) 
energy

$$$$
63:0
     RDKit          3D

 49 52  0  0  0  0  0  0  0  0999 V2000
   54.9580   26.0020   45.9700 N   0  0  0  0  0  0  0  0  0  0  0  0
   56.6760   25.8090   46.0080 S   0  0  0  0  0  0  0  0  0  0  0  0
   57.1040   25.0270   44.7980 O   0  0  0  0  0  0  0  0  0  0  0  0
   57.0640   25.0570   47.2510 O   0  0  0  0  0  0  0  0  0  0  0  0
   57.4640   27.3840   46.0000 C   0  0  0  0  0  0  0  0  0  0  0  0
   58.7780   27.5130   46.4790 C   0  0  0  0  0  0  0  0  0  0  0  0
   59.4280   28.7480   46.4210 C   0  0  0  0  0  0  0  0  0  0  0  0
   58.7680   29.8640   45.8960 C   0  0  0  0  0  0  0  0  0  0  0  0
   57.4450   29.7550   45.4500 C   0  0  0  0  0  0  0  0  0  0  0  0
   56.8070   30.9050   44.8800 N   0  0  0  0  0  0  0  0  0  0  0  0
   57.1420   31.4780   43.6090 C   0  0  0  0  0  0  0  0  0  0  0  0
   56.9180   30.8420   42.5420 O   0  0  0  0  0  0  0  0  0  0  0  0
   57.7150   32.8590   43.5500 C   0  0  0  0  0  0  0  0  0  0  0  0
   57.6340   33.4890   44.8290 O   0  0  0  0  0  0  0  0  0  0  0  0
   58.6700   33.5270   45.7780 C   0  0  0  0  0  0  0  0  0  0  0  0
   59.9920   33.8820   45.4450 C   0  0  0  0  0  0  0  0  0  0  0  0
   60.9790   33.9350   46.4340 C   0  0  0  0  0  0  0  0  0  0  0  0
   60.6700   33.6210   47.7670 C   0  0  0  0  0  0  0  0  0  0  0  0
   61.7200   33.6660   48.8090 C   0  0  0  0  0  0  0  0  0  0  0  0
   62.7930   32.8470   48.8150 N   0  0  0  0  0  0  0  0  0  0  0  0
   63.4860   33.2210   49.9060 C   0  0  0  0  0  0  0  0  0  0  0  0
   64.7630   32.5960   50.3240 C   0  0  0  0  0  0  0  0  0  0  0  0
   65.9940   33.2530   50.1320 C   0  0  0  0  0  0  0  0  0  0  0  0
   67.1880   32.6470   50.5380 C   0  0  0  0  0  0  0  0  0  0  0  0
   67.1680   31.3840   51.1330 C   0  0  0  0  0  0  0  0  0  0  0  0
   65.9530   30.7220   51.3260 C   0  0  0  0  0  0  0  0  0  0  0  0
   64.7560   31.3240   50.9310 C   0  0  0  0  0  0  0  0  0  0  0  0
   62.8230   34.2550   50.5300 C   0  0  0  0  0  0  0  0  0  0  0  0
   61.7120   34.5470   49.8330 N   0  0  0  0  0  0  0  0  0  0  0  0
   59.3530   33.2540   48.0940 C   0  0  0  0  0  0  0  0  0  0  0  0
   58.3650   33.2090   47.1060 C   0  0  0  0  0  0  0  0  0  0  0  0
   56.8000   28.5050   45.4900 C   0  0  0  0  0  0  0  0  0  0  0  0
   54.7470   26.7210   45.2380 H   0  0  0  0  0  0  0  0  0  0  0  0
   59.2965   26.6394   46.9008 H   0  0  0  0  0  0  0  0  0  0  0  0
   60.4604   28.8431   46.7887 H   0  0  0  0  0  0  0  0  0  0  0  0
   59.2899   30.8303   45.8333 H   0  0  0  0  0  0  0  0  0  0  0  0
   58.7692   32.8007   43.2413 H   0  0  0  0  0  0  0  0  0  0  0  0
   57.1396   33.4523   42.8241 H   0  0  0  0  0  0  0  0  0  0  0  0
   60.2490   34.1186   44.4020 H   0  0  0  0  0  0  0  0  0  0  0  0
   62.0056   34.2250   46.1655 H   0  0  0  0  0  0  0  0  0  0  0  0
   66.0168   34.2467   49.6609 H   0  0  0  0  0  0  0  0  0  0  0  0
   68.1455   33.1672   50.3880 H   0  0  0  0  0  0  0  0  0  0  0  0
   68.1089   30.9103   51.4498 H   0  0  0  0  0  0  0  0  0  0  0  0
   65.9389   29.7247   51.7899 H   0  0  0  0  0  0  0  0  0  0  0  0
   63.8017   30.8019   51.0947 H   0  0  0  0  0  0  0  0  0  0  0  0
   63.1505   34.7602   51.4506 H   0  0  0  0  0  0  0  0  0  0  0  0
   59.0983   33.0007   49.1337 H   0  0  0  0  0  0  0  0  0  0  0  0
   57.3381   32.9209   47.3752 H   0  0  0  0  0  0  0  0  0  0  0  0
   55.7691   28.4087   45.1186 H   0  0  0  0  0  0  0  0  0  0  0  0
  1  2  1  0
  2  3  2  0
  2  4  2  0
  2  5  1  0
  5  6  2  0
  6  7  1  0
  7  8  2  0
  8  9  1  0
  9 10  1  0
 10 11  1  0
 11 12  2  0
 11 13  1  0
 13 14  1  0
 14 15  1  0
 15 16  2  0
 16 17  1  0
 17 18  2  0
 18 19  1  0
 19 20  2  0
 20 21  1  0
 21 22  1  0
 22 23  2  0
 23 24  1  0
 24 25  2  0
 25 26  1  0
 26 27  2  0
 21 28  2  0
 28 29  1  0
 18 30  1  0
 30 31  2  0
  9 32  2  0
 32  5  1  0
 31 15  1  0
 29 19  1  0
 27 22  1  0
  1 33  1  0
  6 34  1  0
  7 35  1  0
  8 36  1  0
 13 37  1  0
 13 38  1  0
 16 39  1  0
 17 40  1  0
 23 41  1  0
 24 42  1  0
 25 43  1  0
 26 44  1  0
 27 45  1  0
 28 46  1  0
 30 47  1  0
 31 48  1  0
 32 49  1  0
M  CHG  3   1  -1  10  -1  29  -1
M  END
>  <UniqueID>  (64) 
57

>  <SMILES>  (64) 
[NH-]S(=O)(=O)c1cccc([N-]C(=O)COc2ccc(-c3nc(-c4ccccc4)c[n-]3)cc2)c1

>  <Energy>  (64) 
84.92972320236541

>  <Genealogy>  (64) 
[NH-]S(=O)(=O)c1cccc([N-]C(=O)COc2ccc(-c3nc(-c4ccccc4)c[n-]3)cc2)c1 (protonated)
[NH-]S(=O)(=O)c1cccc([N-]C(=O)COc2ccc(-c3nc(-c4ccccc4)c[n-]3)cc2)c1 (3D coordinates assigned)
[NH-]S(=O)(=O)c1cccc([N-]C(=O)COc2ccc(-c3nc(-c4ccccc4)c[n-]3)cc2)c1 (optimized conformer: 84.92972320236541 kcal/mol)

>  <smiles>  (64) 
NS(=O)(=O)c1cccc(NC(=O)COc2ccc(-c3nc(-c4ccccc4)c[nH]3)cc2)c1

>  <score_type>  (64) 
oracle

>  <origin>  (64) 
adg

>  <m_score__min__energy>  (64) 
-13.949999999999999

>  <m_primary>  (64) 
energy

$$$$
64:0
     RDKit          3D

 58 61  0  0  0  0  0  0  0  0999 V2000
   54.6981   28.0634   53.0077 H   0  0  0  0  0  0  0  0  0  0  0  0
   54.9890   29.1010   52.7870 C   0  0  0  0  0  0  0  0  0  0  0  0
   56.0940   29.7140   53.2530 N   0  0  0  0  0  0  0  0  0  0  0  0
   56.0960   30.9490   52.7750 N   0  0  0  0  0  0  0  0  0  0  0  0
   57.1480   31.9280   53.0460 C   0  0  0  0  0  0  0  0  0  0  0  0
   57.6371   31.6754   53.9983 H   0  0  0  0  0  0  0  0  0  0  0  0
   56.6903   32.9268   53.0993 H   0  0  0  0  0  0  0  0  0  0  0  0
   58.2000   31.9330   51.9280 C   0  0  0  0  0  0  0  0  0  0  0  0
   59.1053   32.4340   52.3013 H   0  0  0  0  0  0  0  0  0  0  0  0
   57.7624   32.4609   51.0679 H   0  0  0  0  0  0  0  0  0  0  0  0
   58.5730   30.5550   51.4650 C   0  0  0  0  0  0  0  0  0  0  0  0
   57.7790   29.8930   50.7430 O   0  0  0  0  0  0  0  0  0  0  0  0
   59.8820   30.0530   51.7770 N   0  0  0  0  0  0  0  0  0  0  0  0
   60.3720   28.8900   51.4580 C   0  0  0  0  0  0  0  0  0  0  0  0
   60.9530   28.0840   52.3910 N   0  0  0  0  0  0  0  0  0  0  0  0
   61.4610   26.8640   52.0710 C   0  0  0  0  0  0  0  0  0  0  0  0
   61.9279   26.2422   52.8491 H   0  0  0  0  0  0  0  0  0  0  0  0
   61.3910   26.4000   50.7580 C   0  0  0  0  0  0  0  0  0  0  0  0
   61.7979   25.4120   50.4967 H   0  0  0  0  0  0  0  0  0  0  0  0
   60.7970   27.2040   49.7720 C   0  0  0  0  0  0  0  0  0  0  0  0
   60.6440   26.7690   48.4460 O   0  0  0  0  0  0  0  0  0  0  0  0
   59.8410   27.4010   47.4900 C   0  0  0  0  0  0  0  0  0  0  0  0
   58.4880   27.0540   47.4010 C   0  0  0  0  0  0  0  0  0  0  0  0
   58.0600   26.3272   48.1071 H   0  0  0  0  0  0  0  0  0  0  0  0
   57.6800   27.6290   46.4170 C   0  0  0  0  0  0  0  0  0  0  0  0
   56.6198   27.3450   46.3444 H   0  0  0  0  0  0  0  0  0  0  0  0
   58.2150   28.5680   45.5200 C   0  0  0  0  0  0  0  0  0  0  0  0
   57.4330   29.0900   44.4390 N   0  0  0  0  0  0  0  0  0  0  0  0
   56.2510   29.8860   44.6100 C   0  0  0  0  0  0  0  0  0  0  0  0
   55.1570   29.3160   44.8550 O   0  0  0  0  0  0  0  0  0  0  0  0
   56.2840   31.3160   44.4970 N   0  0  0  0  0  0  0  0  0  0  0  0
   57.3480   32.1470   44.9820 C   0  0  0  0  0  0  0  0  0  0  0  0
   57.9020   33.1590   44.1820 C   0  0  0  0  0  0  0  0  0  0  0  0
   57.5605   33.2860   43.1441 H   0  0  0  0  0  0  0  0  0  0  0  0
   58.8840   34.0040   44.6990 C   0  0  0  0  0  0  0  0  0  0  0  0
   59.3082   34.8010   44.0706 H   0  0  0  0  0  0  0  0  0  0  0  0
   59.3300   33.8410   46.0120 C   0  0  0  0  0  0  0  0  0  0  0  0
   60.0878   34.5256   46.4208 H   0  0  0  0  0  0  0  0  0  0  0  0
   58.8160   32.8060   46.8160 C   0  0  0  0  0  0  0  0  0  0  0  0
   59.2420   32.6730   48.2610 C   0  0  0  0  0  0  0  0  0  0  0  0
   58.1540   32.3570   49.0590 F   0  0  0  0  0  0  0  0  0  0  0  0
   59.7670   33.8720   48.7130 F   0  0  0  0  0  0  0  0  0  0  0  0
   60.2980   31.5790   48.4010 C   0  0  0  0  0  0  0  0  0  0  0  0
   60.4855   31.3847   49.4673 H   0  0  0  0  0  0  0  0  0  0  0  0
   59.9384   30.6583   47.9183 H   0  0  0  0  0  0  0  0  0  0  0  0
   61.2308   31.9059   47.9183 H   0  0  0  0  0  0  0  0  0  0  0  0
   57.8220   31.9620   46.2870 C   0  0  0  0  0  0  0  0  0  0  0  0
   57.4131   31.1487   46.9046 H   0  0  0  0  0  0  0  0  0  0  0  0
   59.5480   28.9740   45.6630 C   0  0  0  0  0  0  0  0  0  0  0  0
   59.9560   29.7573   45.0073 H   0  0  0  0  0  0  0  0  0  0  0  0
   60.3610   28.3870   46.6360 C   0  0  0  0  0  0  0  0  0  0  0  0
   61.4116   28.6982   46.7333 H   0  0  0  0  0  0  0  0  0  0  0  0
   60.2920   28.4570   50.1290 C   0  0  0  0  0  0  0  0  0  0  0  0
   59.8320   29.1027   49.3665 H   0  0  0  0  0  0  0  0  0  0  0  0
   55.0130   31.1410   52.0010 C   0  0  0  0  0  0  0  0  0  0  0  0
   54.7588   32.0695   51.4688 H   0  0  0  0  0  0  0  0  0  0  0  0
   54.2760   29.9770   51.9880 C   0  0  0  0  0  0  0  0  0  0  0  0
   53.3303   29.7864   51.4595 H   0  0  0  0  0  0  0  0  0  0  0  0
  1  2  1  0
  2  3  2  0
  3  4  1  0
  4  5  1  0
  5  6  1  0
  5  7  1  0
  5  8  1  0
  8  9  1  0
  8 10  1  0
  8 11  1  0
 11 12  2  0
 11 13  1  0
 13 14  2  0
 14 15  1  0
 15 16  1  0
 16 17  1  0
 16 18  2  0
 18 19  1  0
 18 20  1  0
 20 21  1  0
 21 22  1  0
 22 23  2  0
 23 24  1  0
 23 25  1  0
 25 26  1  0
 25 27  2  0
 27 28  1  0
 28 29  1  0
 29 30  2  0
 29 31  1  0
 31 32  1  0
 32 33  2  0
 33 34  1  0
 33 35  1  0
 35 36  1  0
 35 37  2  0
 37 38  1  0
 37 39  1  0
 39 40  1  0
 40 41  1  0
 40 42  1  0
 40 43  1  0
 43 44  1  0
 43 45  1  0
 43 46  1  0
 39 47  2  0
 47 48  1  0
 27 49  1  0
 49 50  1  0
 49 51  2  0
 51 52  1  0
 20 53  2  0
 53 54  1  0
  4 55  1  0
 55 56  1  0
 55 57  2  0
 57 58  1  0
 57  2  1  0
 53 14  1  0
 51 22  1  0
 47 32  1  0
M  CHG  3  15  -1  28  -1  31  -1
M  END
>  <UniqueID>  (65) 
58

>  <SMILES>  (65) 
CC(F)(F)c1cccc([N-]C(=O)[N-]c2ccc(Oc3cc[n-]/c(=N\C(=O)CCn4cccn4)c3)cc2)c1

>  <Energy>  (65) 
101.73225890817686

>  <Genealogy>  (65) 
CC(F)(F)c1cccc([N-]C(=O)[N-]c2ccc(Oc3cc[n-]c(=NC(=O)CCn4cccn4)c3)cc2)c1 (protonated)
CC(F)(F)c1cccc([N-]C(=O)[N-]c2ccc(Oc3cc[n-]/c(=N\C(=O)CCn4cccn4)c3)cc2)c1 (cis-trans isomerization)
CC(F)(F)c1cccc([N-]C(=O)[N-]c2ccc(Oc3cc[n-]/c(=N\C(=O)CCn4cccn4)c3)cc2)c1 (3D coordinates assigned)
CC(F)(F)c1cccc([N-]C(=O)[N-]c2ccc(Oc3cc[n-]/c(=N\C(=O)CCn4cccn4)c3)cc2)c1 (optimized conformer: 101.73225890817686 kcal/mol)

>  <smiles>  (65) 
CC(F)(F)c1cccc(NC(=O)Nc2ccc(Oc3cc[nH]c(=NC(=O)CCn4cccn4)c3)cc2)c1

>  <score_type>  (65) 
oracle

>  <origin>  (65) 
adg

>  <m_score__min__energy>  (65) 
-12.449999999999999

>  <m_primary>  (65) 
energy

$$$$
65:0
     RDKit          3D

 52 54  0  0  0  0  0  0  0  0999 V2000
   56.0626   29.9430   53.0069 H   0  0  0  0  0  0  0  0  0  0  0  0
   56.7410   30.4120   52.2790 C   0  0  0  0  0  0  0  0  0  0  0  0
   57.4570   29.6390   51.4230 N   0  0  0  0  0  0  0  0  0  0  0  0
   58.3030   30.1720   50.4970 C   0  0  0  0  0  0  0  0  0  0  0  0
   58.9970   29.4080   49.7030 N   0  0  0  0  0  0  0  0  0  0  0  0
   59.1300   29.5390   48.2790 C   0  0  0  0  0  0  0  0  0  0  0  0
   58.1350   29.2710   47.5530 O   0  0  0  0  0  0  0  0  0  0  0  0
   60.4260   29.9620   47.6290 C   0  0  0  0  0  0  0  0  0  0  0  0
   60.7802   29.1446   46.9837 H   0  0  0  0  0  0  0  0  0  0  0  0
   60.2271   30.8765   47.0509 H   0  0  0  0  0  0  0  0  0  0  0  0
   61.5200   30.2880   48.6560 C   0  0  0  0  0  0  0  0  0  0  0  0
   61.0526   30.4332   49.6411 H   0  0  0  0  0  0  0  0  0  0  0  0
   62.2315   29.4494   48.6777 H   0  0  0  0  0  0  0  0  0  0  0  0
   62.2770   31.5380   48.2850 C   0  0  0  0  0  0  0  0  0  0  0  0
   61.9470   32.2530   47.1220 C   0  0  0  0  0  0  0  0  0  0  0  0
   61.1155   31.9131   46.4872 H   0  0  0  0  0  0  0  0  0  0  0  0
   62.6720   33.3960   46.7680 C   0  0  0  0  0  0  0  0  0  0  0  0
   62.4068   33.9550   45.8585 H   0  0  0  0  0  0  0  0  0  0  0  0
   63.7320   33.8280   47.5680 C   0  0  0  0  0  0  0  0  0  0  0  0
   64.3006   34.7271   47.2880 H   0  0  0  0  0  0  0  0  0  0  0  0
   64.0710   33.1200   48.7230 C   0  0  0  0  0  0  0  0  0  0  0  0
   64.9065   33.4616   49.3517 H   0  0  0  0  0  0  0  0  0  0  0  0
   63.3490   31.9770   49.0810 C   0  0  0  0  0  0  0  0  0  0  0  0
   63.6212   31.4193   49.9892 H   0  0  0  0  0  0  0  0  0  0  0  0
   58.4710   31.5660   50.4290 C   0  0  0  0  0  0  0  0  0  0  0  0
   59.3660   32.0990   49.4840 O   0  0  0  0  0  0  0  0  0  0  0  0
   59.3710   33.4490   49.0190 C   0  0  0  0  0  0  0  0  0  0  0  0
   60.3887   33.8572   49.1062 H   0  0  0  0  0  0  0  0  0  0  0  0
   58.6705   34.0364   49.6308 H   0  0  0  0  0  0  0  0  0  0  0  0
   58.9320   33.5180   47.5790 C   0  0  0  0  0  0  0  0  0  0  0  0
   59.3000   34.6040   46.7720 C   0  0  0  0  0  0  0  0  0  0  0  0
   59.9146   35.4148   47.1902 H   0  0  0  0  0  0  0  0  0  0  0  0
   58.8880   34.6590   45.4380 C   0  0  0  0  0  0  0  0  0  0  0  0
   59.1845   35.5100   44.8072 H   0  0  0  0  0  0  0  0  0  0  0  0
   58.1010   33.6370   44.9030 C   0  0  0  0  0  0  0  0  0  0  0  0
   57.7831   33.6835   43.8510 H   0  0  0  0  0  0  0  0  0  0  0  0
   57.7130   32.5470   45.7060 C   0  0  0  0  0  0  0  0  0  0  0  0
   56.9220   31.4970   45.2170 O   0  0  0  0  0  0  0  0  0  0  0  0
   57.0160   30.9610   43.9000 C   0  0  0  0  0  0  0  0  0  0  0  0
   58.0747   30.8190   43.6375 H   0  0  0  0  0  0  0  0  0  0  0  0
   56.5499   31.6582   43.1882 H   0  0  0  0  0  0  0  0  0  0  0  0
   56.3080   29.6450   43.8410 C   0  0  0  0  0  0  0  0  0  0  0  0
   56.2480   29.0150   42.7520 O   0  0  0  0  0  0  0  0  0  0  0  0
   55.6610   29.1170   44.9990 N   0  0  0  0  0  0  0  0  0  0  0  0
   55.1530   28.2060   44.9480 H   0  0  0  0  0  0  0  0  0  0  0  0
   55.6760   29.6360   45.9050 H   0  0  0  0  0  0  0  0  0  0  0  0
   58.1290   32.4990   47.0410 C   0  0  0  0  0  0  0  0  0  0  0  0
   57.8239   31.6542   47.6760 H   0  0  0  0  0  0  0  0  0  0  0  0
   57.7330   32.3780   51.3100 C   0  0  0  0  0  0  0  0  0  0  0  0
   57.8408   33.4719   51.2684 H   0  0  0  0  0  0  0  0  0  0  0  0
   56.8650   31.7990   52.2360 C   0  0  0  0  0  0  0  0  0  0  0  0
   56.2848   32.4307   52.9247 H   0  0  0  0  0  0  0  0  0  0  0  0
  1  2  1  0
  2  3  1  0
  3  4  1  0
  4  5  2  0
  5  6  1  0
  6  7  2  0
  6  8  1  0
  8  9  1  0
  8 10  1  0
  8 11  1  0
 11 12  1  0
 11 13  1  0
 11 14  1  0
 14 15  2  0
 15 16  1  0
 15 17  1  0
 17 18  1  0
 17 19  2  0
 19 20  1  0
 19 21  1  0
 21 22  1  0
 21 23  2  0
 23 24  1  0
  4 25  1  0
 25 26  1  0
 26 27  1  0
 27 28  1  0
 27 29  1  0
 27 30  1  0
 30 31  2  0
 31 32  1  0
 31 33  1  0
 33 34  1  0
 33 35  2  0
 35 36  1  0
 35 37  1  0
 37 38  1  0
 38 39  1  0
 39 40  1  0
 39 41  1  0
 39 42  1  0
 42 43  2  0
 42 44  1  0
 44 45  1  0
 44 46  1  0
 37 47  2  0
 47 48  1  0
 25 49  2  0
 49 50  1  0
 49 51  1  0
 51 52  1  0
 51  2  2  0
 23 14  1  0
 47 30  1  0
M  CHG  1   3  -1
M  END
>  <UniqueID>  (66) 
59

>  <SMILES>  (66) 
NC(=O)COc1cccc(COc2ccc[n-]/c2=N\C(=O)CCc2ccccc2)c1

>  <Energy>  (66) 
55.040867317979334

>  <Genealogy>  (66) 
NC(=O)COc1cccc(COc2ccc[n-]c2=NC(=O)CCc2ccccc2)c1 (protonated)
NC(=O)COc1cccc(COc2ccc[n-]/c2=N\C(=O)CCc2ccccc2)c1 (cis-trans isomerization)
NC(=O)COc1cccc(COc2ccc[n-]/c2=N\C(=O)CCc2ccccc2)c1 (3D coordinates assigned)
NC(=O)COc1cccc(COc2ccc[n-]/c2=N\C(=O)CCc2ccccc2)c1 (optimized conformer: 55.040867317979334 kcal/mol)

>  <smiles>  (66) 
NC(=O)COc1cccc(COc2ccc[nH]c2=NC(=O)CCc2ccccc2)c1

>  <score_type>  (66) 
oracle

>  <origin>  (66) 
adg

>  <m_score__min__energy>  (66) 
-10.859999999999999

>  <m_primary>  (66) 
energy

$$$$
66:0
     RDKit          3D

 50 53  0  0  0  0  0  0  0  0999 V2000
   57.7390   32.2120   41.8210 C   0  0  0  0  0  0  0  0  0  0  0  0
   58.1920   31.6790   43.0610 O   0  0  0  0  0  0  0  0  0  0  0  0
   58.1780   32.3780   44.2770 C   0  0  0  0  0  0  0  0  0  0  0  0
   58.3800   33.7740   44.3070 C   0  0  0  0  0  0  0  0  0  0  0  0
   58.3390   34.4730   45.5130 C   0  0  0  0  0  0  0  0  0  0  0  0
   58.0960   33.7970   46.7030 C   0  0  0  0  0  0  0  0  0  0  0  0
   57.8980   32.4160   46.6940 C   0  0  0  0  0  0  0  0  0  0  0  0
   57.9480   31.6840   45.4910 C   0  0  0  0  0  0  0  0  0  0  0  0
   57.7250   30.2120   45.5720 C   0  0  0  0  0  0  0  0  0  0  0  0
   56.5110   29.6720   45.3060 N   0  0  0  0  0  0  0  0  0  0  0  0
   56.6070   28.3660   45.6130 C   0  0  0  0  0  0  0  0  0  0  0  0
   55.5590   27.4620   45.4870 O   0  0  0  0  0  0  0  0  0  0  0  0
   57.8540   28.0630   46.0880 C   0  0  0  0  0  0  0  0  0  0  0  0
   58.2690   26.8250   46.5650 O   0  0  0  0  0  0  0  0  0  0  0  0
   58.6030   29.2200   46.0370 C   0  0  0  0  0  0  0  0  0  0  0  0
   59.9600   29.3760   46.5880 C   0  0  0  0  0  0  0  0  0  0  0  0
   60.9000   29.6300   45.7880 O   0  0  0  0  0  0  0  0  0  0  0  0
   60.2550   29.3160   48.0460 C   0  0  0  0  0  0  0  0  0  0  0  0
   60.4050   28.1310   48.7590 C   0  0  0  0  0  0  0  0  0  0  0  0
   60.3340   26.7310   48.2300 C   0  0  0  0  0  0  0  0  0  0  0  0
   60.6040   28.4670   50.0800 C   0  0  0  0  0  0  0  0  0  0  0  0
   60.5760   29.8420   50.1360 C   0  0  0  0  0  0  0  0  0  0  0  0
   60.3650   30.3660   48.9090 N   0  0  0  0  0  0  0  0  0  0  0  0
   60.2200   31.8110   48.6740 C   0  0  0  0  0  0  0  0  0  0  0  0
   61.4450   32.4050   48.0360 C   0  0  0  0  0  0  0  0  0  0  0  0
   62.7070   32.2420   48.6350 C   0  0  0  0  0  0  0  0  0  0  0  0
   63.8340   32.8600   48.0860 C   0  0  0  0  0  0  0  0  0  0  0  0
   63.7100   33.6570   46.9450 C   0  0  0  0  0  0  0  0  0  0  0  0
   62.4570   33.8400   46.3530 C   0  0  0  0  0  0  0  0  0  0  0  0
   61.3270   33.2220   46.8980 C   0  0  0  0  0  0  0  0  0  0  0  0
   57.0374   33.0375   42.0112 H   0  0  0  0  0  0  0  0  0  0  0  0
   58.5992   32.5868   41.2469 H   0  0  0  0  0  0  0  0  0  0  0  0
   57.2305   31.4235   41.2469 H   0  0  0  0  0  0  0  0  0  0  0  0
   58.5718   34.3166   43.3695 H   0  0  0  0  0  0  0  0  0  0  0  0
   58.4992   35.5612   45.5226 H   0  0  0  0  0  0  0  0  0  0  0  0
   58.0598   34.3513   47.6525 H   0  0  0  0  0  0  0  0  0  0  0  0
   57.6999   31.8908   47.6400 H   0  0  0  0  0  0  0  0  0  0  0  0
   55.6830   26.5960   44.9760 H   0  0  0  0  0  0  0  0  0  0  0  0
   60.2981   26.0227   49.0708 H   0  0  0  0  0  0  0  0  0  0  0  0
   59.4289   26.6167   47.6154 H   0  0  0  0  0  0  0  0  0  0  0  0
   61.2229   26.5257   47.6154 H   0  0  0  0  0  0  0  0  0  0  0  0
   60.7550   27.7750   50.9216 H   0  0  0  0  0  0  0  0  0  0  0  0
   60.7075   30.4332   51.0543 H   0  0  0  0  0  0  0  0  0  0  0  0
   59.3582   31.9780   48.0111 H   0  0  0  0  0  0  0  0  0  0  0  0
   60.0741   32.3001   49.6484 H   0  0  0  0  0  0  0  0  0  0  0  0
   62.8076   31.6250   49.5401 H   0  0  0  0  0  0  0  0  0  0  0  0
   64.8200   32.7188   48.5528 H   0  0  0  0  0  0  0  0  0  0  0  0
   64.5984   34.1404   46.5126 H   0  0  0  0  0  0  0  0  0  0  0  0
   62.3596   34.4710   45.4572 H   0  0  0  0  0  0  0  0  0  0  0  0
   60.3415   33.3758   46.4342 H   0  0  0  0  0  0  0  0  0  0  0  0
  1  2  1  0
  2  3  1  0
  3  4  2  0
  4  5  1  0
  5  6  2  0
  6  7  1  0
  7  8  2  0
  8  9  1  0
  9 10  1  0
 10 11  1  0
 11 12  1  0
 11 13  2  0
 13 14  1  0
 13 15  1  0
 15 16  1  0
 16 17  2  0
 16 18  1  0
 18 19  2  0
 19 20  1  0
 19 21  1  0
 21 22  2  0
 22 23  1  0
 23 24  1  0
 24 25  1  0
 25 26  2  0
 26 27  1  0
 27 28  2  0
 28 29  1  0
 29 30  2  0
  8  3  1  0
 15  9  2  0
 23 18  1  0
 30 25  1  0
  1 31  1  0
  1 32  1  0
  1 33  1  0
  4 34  1  0
  5 35  1  0
  6 36  1  0
  7 37  1  0
 12 38  1  0
 20 39  1  0
 20 40  1  0
 20 41  1  0
 21 42  1  0
 22 43  1  0
 24 44  1  0
 24 45  1  0
 26 46  1  0
 27 47  1  0
 28 48  1  0
 29 49  1  0
 30 50  1  0
M  CHG  2  10  -1  14  -1
M  END
>  <UniqueID>  (67) 
60

>  <SMILES>  (67) 
COc1ccccc1-c1[n-]c(O)c([O-])c1C(=O)c1c(C)ccn1Cc1ccccc1

>  <Energy>  (67) 
117.61137616910344

>  <Genealogy>  (67) 
COc1ccccc1-c1[n-]c(O)c([O-])c1C(=O)c1c(C)ccn1Cc1ccccc1 (protonated)
COc1ccccc1-c1[n-]c(O)c([O-])c1C(=O)c1c(C)ccn1Cc1ccccc1 (3D coordinates assigned)
COc1ccccc1-c1[n-]c(O)c([O-])c1C(=O)c1c(C)ccn1Cc1ccccc1 (optimized conformer: 117.61137616910344 kcal/mol)

>  <smiles>  (67) 
COc1ccccc1-c1[nH]c(O)c(O)c1C(=O)c1c(C)ccn1Cc1ccccc1

>  <score_type>  (67) 
oracle

>  <origin>  (67) 
adg

>  <m_score__min__energy>  (67) 
-12.390000000000001

>  <m_primary>  (67) 
energy

$$$$
67:0
     RDKit          3D

 42 44  0  0  0  0  0  0  0  0999 V2000
   54.7740   27.4580   46.3640 H   0  0  0  0  0  0  0  0  0  0  0  0
   54.8370   26.4750   46.1260 O   0  0  0  0  0  0  0  0  0  0  0  0
   56.0670   25.8240   46.0180 C   0  0  0  0  0  0  0  0  0  0  0  0
   56.1670   24.4800   46.4000 C   0  0  0  0  0  0  0  0  0  0  0  0
   55.2783   23.9537   46.7784 H   0  0  0  0  0  0  0  0  0  0  0  0
   57.3840   23.8020   46.3050 C   0  0  0  0  0  0  0  0  0  0  0  0
   57.4460   22.4630   46.6800 O   0  0  0  0  0  0  0  0  0  0  0  0
   58.5270   24.4690   45.8350 C   0  0  0  0  0  0  0  0  0  0  0  0
   59.8440   23.7450   45.6950 C   0  0  0  0  0  0  0  0  0  0  0  0
   60.2237   23.4904   46.6955 H   0  0  0  0  0  0  0  0  0  0  0  0
   60.5538   24.4026   45.1718 H   0  0  0  0  0  0  0  0  0  0  0  0
   59.6750   22.4650   44.8840 C   0  0  0  0  0  0  0  0  0  0  0  0
   59.5621   21.6103   45.5672 H   0  0  0  0  0  0  0  0  0  0  0  0
   58.7800   22.5482   44.2499 H   0  0  0  0  0  0  0  0  0  0  0  0
   60.5609   22.3131   44.2499 H   0  0  0  0  0  0  0  0  0  0  0  0
   58.4250   25.8110   45.4370 C   0  0  0  0  0  0  0  0  0  0  0  0
   59.3144   26.3292   45.0491 H   0  0  0  0  0  0  0  0  0  0  0  0
   57.2030   26.5050   45.5260 C   0  0  0  0  0  0  0  0  0  0  0  0
   57.1410   27.9250   45.1020 C   0  0  0  0  0  0  0  0  0  0  0  0
   57.1730   28.9760   45.9510 N   0  0  0  0  0  0  0  0  0  0  0  0
   57.0910   30.0300   45.1180 C   0  0  0  0  0  0  0  0  0  0  0  0
   57.0960   31.2530   45.5750 N   0  0  0  0  0  0  0  0  0  0  0  0
   57.3680   32.5160   44.8930 C   0  0  0  0  0  0  0  0  0  0  0  0
   57.8537   32.3051   43.9288 H   0  0  0  0  0  0  0  0  0  0  0  0
   56.4134   33.0412   44.7415 H   0  0  0  0  0  0  0  0  0  0  0  0
   58.2670   33.3950   45.7110 C   0  0  0  0  0  0  0  0  0  0  0  0
   58.8200   34.6010   45.3210 C   0  0  0  0  0  0  0  0  0  0  0  0
   58.7223   35.0542   44.3235 H   0  0  0  0  0  0  0  0  0  0  0  0
   59.4980   35.1330   46.3580 N   0  0  0  0  0  0  0  0  0  0  0  0
   59.3600   34.3120   47.3890 N   0  0  0  0  0  0  0  0  0  0  0  0
   59.9930   34.5190   48.6830 C   0  0  0  0  0  0  0  0  0  0  0  0
   59.2760   34.2845   49.4836 H   0  0  0  0  0  0  0  0  0  0  0  0
   60.8699   33.8608   48.7717 H   0  0  0  0  0  0  0  0  0  0  0  0
   60.3116   35.5681   48.7717 H   0  0  0  0  0  0  0  0  0  0  0  0
   58.6190   33.2450   47.0370 C   0  0  0  0  0  0  0  0  0  0  0  0
   58.3432   32.4036   47.6897 H   0  0  0  0  0  0  0  0  0  0  0  0
   57.0120   29.6370   43.8210 N   0  0  0  0  0  0  0  0  0  0  0  0
   56.8390   30.4080   42.5940 C   0  0  0  0  0  0  0  0  0  0  0  0
   56.6046   31.4525   42.8472 H   0  0  0  0  0  0  0  0  0  0  0  0
   57.7673   30.3730   42.0050 H   0  0  0  0  0  0  0  0  0  0  0  0
   56.0146   29.9797   42.0050 H   0  0  0  0  0  0  0  0  0  0  0  0
   57.0390   28.3150   43.8150 N   0  0  0  0  0  0  0  0  0  0  0  0
  1  2  1  0
  2  3  1  0
  3  4  2  0
  4  5  1  0
  4  6  1  0
  6  7  1  0
  6  8  2  0
  8  9  1  0
  9 10  1  0
  9 11  1  0
  9 12  1  0
 12 13  1  0
 12 14  1  0
 12 15  1  0
  8 16  1  0
 16 17  1  0
 16 18  2  0
 18 19  1  0
 19 20  2  0
 20 21  1  0
 21 22  2  0
 22 23  1  0
 23 24  1  0
 23 25  1  0
 23 26  1  0
 26 27  1  0
 27 28  1  0
 27 29  2  0
 29 30  1  0
 30 31  1  0
 31 32  1  0
 31 33  1  0
 31 34  1  0
 30 35  1  0
 35 36  1  0
 21 37  1  0
 37 38  1  0
 38 39  1  0
 38 40  1  0
 38 41  1  0
 37 42  1  0
 18  3  1  0
 42 19  1  0
 35 26  2  0
M  CHG  2   7  -1  42  -1
M  END
>  <UniqueID>  (68) 
61

>  <SMILES>  (68) 
CCc1cc(-c2n/c(=N/Cc3cnn(C)c3)n(C)[n-]2)c(O)cc1[O-]

>  <Energy>  (68) 
110.3124486196151

>  <Genealogy>  (68) 
CCc1cc(-c2nc(=NCc3cnn(C)c3)n(C)[n-]2)c(O)cc1[O-] (protonated)
CCc1cc(-c2n/c(=N/Cc3cnn(C)c3)n(C)[n-]2)c(O)cc1[O-] (cis-trans isomerization)
CCc1cc(-c2n/c(=N/Cc3cnn(C)c3)n(C)[n-]2)c(O)cc1[O-] (3D coordinates assigned)
CCc1cc(-c2n/c(=N/Cc3cnn(C)c3)n(C)[n-]2)c(O)cc1[O-] (optimized conformer: 110.3124486196151 kcal/mol)

>  <smiles>  (68) 
CCc1cc(-c2nc(=NCc3cnn(C)c3)n(C)[nH]2)c(O)cc1O

>  <score_type>  (68) 
oracle

>  <origin>  (68) 
adg

>  <m_score__min__energy>  (68) 
-11.59

>  <m_primary>  (68) 
energy

$$$$
68:0
     RDKit          3D

 57 59  0  0  0  0  0  0  0  0999 V2000
   52.0130   23.2210   45.5430 C   0  0  0  0  0  0  0  0  0  0  0  0
   53.2510   23.0300   44.8730 O   0  0  0  0  0  0  0  0  0  0  0  0
   54.1780   24.0650   44.7450 C   0  0  0  0  0  0  0  0  0  0  0  0
   55.4930   23.8240   44.6140 C   0  0  0  0  0  0  0  0  0  0  0  0
   56.0510   23.0040   43.5120 C   0  0  0  0  0  0  0  0  0  0  0  0
   56.6410   23.5450   42.5350 O   0  0  0  0  0  0  0  0  0  0  0  0
   55.9140   21.6130   43.5580 O   0  0  0  0  0  0  0  0  0  0  0  0
   56.9030   20.7630   44.1280 C   0  0  0  0  0  0  0  0  0  0  0  0
   56.4240   24.4170   45.6010 C   0  0  0  0  0  0  0  0  0  0  0  0
   56.3620   23.9780   46.9340 C   0  0  0  0  0  0  0  0  0  0  0  0
   57.2070   24.5250   47.9010 C   0  0  0  0  0  0  0  0  0  0  0  0
   58.1240   25.5150   47.5480 C   0  0  0  0  0  0  0  0  0  0  0  0
   58.2060   25.9550   46.2250 C   0  0  0  0  0  0  0  0  0  0  0  0
   57.3750   25.4040   45.2350 C   0  0  0  0  0  0  0  0  0  0  0  0
   57.4960   25.9150   43.8220 C   0  0  0  0  0  0  0  0  0  0  0  0
   58.5220   26.9020   43.7690 O   0  0  0  0  0  0  0  0  0  0  0  0
   58.3490   28.2490   44.1160 C   0  0  0  0  0  0  0  0  0  0  0  0
   59.2570   28.9420   44.9350 C   0  0  0  0  0  0  0  0  0  0  0  0
   59.0460   30.2890   45.2410 C   0  0  0  0  0  0  0  0  0  0  0  0
   57.9220   30.9720   44.7410 C   0  0  0  0  0  0  0  0  0  0  0  0
   57.7180   32.4090   45.0690 C   0  0  0  0  0  0  0  0  0  0  0  0
   56.6340   32.7700   45.6070 O   0  0  0  0  0  0  0  0  0  0  0  0
   58.7920   33.4370   44.8040 C   0  0  0  0  0  0  0  0  0  0  0  0
   59.4220   33.9570   46.0710 C   0  0  0  0  0  0  0  0  0  0  0  0
   58.8980   34.9650   46.6200 O   0  0  0  0  0  0  0  0  0  0  0  0
   60.6210   33.3320   46.6950 C   0  0  0  0  0  0  0  0  0  0  0  0
   61.8970   33.8330   46.3700 C   0  0  0  0  0  0  0  0  0  0  0  0
   63.0480   33.2790   46.9380 C   0  0  0  0  0  0  0  0  0  0  0  0
   62.9440   32.2150   47.8330 C   0  0  0  0  0  0  0  0  0  0  0  0
   64.0620   31.6790   48.3840 F   0  0  0  0  0  0  0  0  0  0  0  0
   61.6890   31.6980   48.1590 C   0  0  0  0  0  0  0  0  0  0  0  0
   60.5300   32.2440   47.5950 C   0  0  0  0  0  0  0  0  0  0  0  0
   59.3400   31.6780   47.9110 F   0  0  0  0  0  0  0  0  0  0  0  0
   57.0160   30.2700   43.9240 C   0  0  0  0  0  0  0  0  0  0  0  0
   57.2290   28.9220   43.6210 C   0  0  0  0  0  0  0  0  0  0  0  0
   52.1769   23.1957   46.6304 H   0  0  0  0  0  0  0  0  0  0  0  0
   51.5887   24.1952   45.2587 H   0  0  0  0  0  0  0  0  0  0  0  0
   51.3148   22.4199   45.2587 H   0  0  0  0  0  0  0  0  0  0  0  0
   53.8225   25.1060   44.7515 H   0  0  0  0  0  0  0  0  0  0  0  0
   56.8428   20.8147   45.2251 H   0  0  0  0  0  0  0  0  0  0  0  0
   56.7299   19.7275   43.7997 H   0  0  0  0  0  0  0  0  0  0  0  0
   57.9007   21.0898   43.7997 H   0  0  0  0  0  0  0  0  0  0  0  0
   55.6416   23.1968   47.2181 H   0  0  0  0  0  0  0  0  0  0  0  0
   57.1497   24.1751   48.9423 H   0  0  0  0  0  0  0  0  0  0  0  0
   58.7839   25.9500   48.3131 H   0  0  0  0  0  0  0  0  0  0  0  0
   58.9278   26.7401   45.9556 H   0  0  0  0  0  0  0  0  0  0  0  0
   57.7509   25.0824   43.1498 H   0  0  0  0  0  0  0  0  0  0  0  0
   56.5400   26.3571   43.5049 H   0  0  0  0  0  0  0  0  0  0  0  0
   60.1385   28.4212   45.3372 H   0  0  0  0  0  0  0  0  0  0  0  0
   59.7664   30.8212   45.8797 H   0  0  0  0  0  0  0  0  0  0  0  0
   59.5754   32.9763   44.1843 H   0  0  0  0  0  0  0  0  0  0  0  0
   58.3192   34.2887   44.2931 H   0  0  0  0  0  0  0  0  0  0  0  0
   61.9886   34.6694   45.6614 H   0  0  0  0  0  0  0  0  0  0  0  0
   64.0375   33.6833   46.6783 H   0  0  0  0  0  0  0  0  0  0  0  0
   61.6103   30.8566   48.8632 H   0  0  0  0  0  0  0  0  0  0  0  0
   56.1327   30.7866   43.5204 H   0  0  0  0  0  0  0  0  0  0  0  0
   56.5078   28.3859   42.9866 H   0  0  0  0  0  0  0  0  0  0  0  0
  1  2  1  0
  2  3  1  0
  3  4  2  3
  4  5  1  0
  5  6  2  0
  5  7  1  0
  7  8  1  0
  4  9  1  0
  9 10  2  0
 10 11  1  0
 11 12  2  0
 12 13  1  0
 13 14  2  0
 14 15  1  0
 15 16  1  0
 16 17  1  0
 17 18  2  0
 18 19  1  0
 19 20  2  0
 20 21  1  0
 21 22  2  0
 21 23  1  0
 23 24  1  0
 24 25  2  0
 24 26  1  0
 26 27  2  0
 27 28  1  0
 28 29  2  0
 29 30  1  0
 29 31  1  0
 31 32  2  0
 32 33  1  0
 20 34  1  0
 34 35  2  0
 14  9  1  0
 35 17  1  0
 32 26  1  0
  1 36  1  0
  1 37  1  0
  1 38  1  0
  3 39  1  0
  8 40  1  0
  8 41  1  0
  8 42  1  0
 10 43  1  0
 11 44  1  0
 12 45  1  0
 13 46  1  0
 15 47  1  0
 15 48  1  0
 18 49  1  0
 19 50  1  0
 23 51  1  0
 23 52  1  0
 27 53  1  0
 28 54  1  0
 31 55  1  0
 34 56  1  0
 35 57  1  0
M  END
>  <UniqueID>  (69) 
62

>  <SMILES>  (69) 
COC=C(C(=O)OC)c1ccccc1COc1ccc(C(=O)CC(=O)c2ccc(F)cc2F)cc1

>  <Energy>  (69) 
65.77079506554287

>  <Genealogy>  (69) 
COC=C(C(=O)OC)c1ccccc1COc1ccc(C(=O)CC(=O)c2ccc(F)cc2F)cc1 (3D coordinates assigned)
COC=C(C(=O)OC)c1ccccc1COc1ccc(C(=O)CC(=O)c2ccc(F)cc2F)cc1 (optimized conformer: 65.77079506554287 kcal/mol)

>  <smiles>  (69) 
COC=C(C(=O)OC)c1ccccc1COc1ccc(C(=O)CC(=O)c2ccc(F)cc2F)cc1

>  <score_type>  (69) 
oracle

>  <origin>  (69) 
adg

>  <m_score__min__energy>  (69) 
-9

>  <m_primary>  (69) 
energy

$$$$
69:0
     RDKit          3D

 58 60  0  0  0  0  0  0  0  0999 V2000
   57.8500   29.2990   52.7280 C   0  0  0  0  0  0  0  0  0  0  0  0
   57.8760   29.3950   51.3090 O   0  0  0  0  0  0  0  0  0  0  0  0
   58.5920   30.3850   50.6280 C   0  0  0  0  0  0  0  0  0  0  0  0
   58.3740   31.6990   50.9010 N   0  0  0  0  0  0  0  0  0  0  0  0
   59.0730   32.6920   50.2940 C   0  0  0  0  0  0  0  0  0  0  0  0
   60.0700   32.3930   49.3450 C   0  0  0  0  0  0  0  0  0  0  0  0
   60.8880   33.5200   48.6930 C   0  0  1  0  0  0  0  0  0  0  0  0
   59.9410   34.6020   48.1270 C   0  0  0  0  0  0  0  0  0  0  0  0
   58.7290   34.0450   47.7550 F   0  0  0  0  0  0  0  0  0  0  0  0
   61.8290   34.1740   49.7440 C   0  0  0  0  0  0  0  0  0  0  0  0
   62.9690   33.2140   50.1340 C   0  0  2  0  0  0  0  0  0  0  0  0
   63.9260   33.8430   51.1520 C   0  0  0  0  0  0  0  0  0  0  0  0
   63.7020   33.2900   52.4000 F   0  0  0  0  0  0  0  0  0  0  0  0
   63.7140   35.2090   51.2280 F   0  0  0  0  0  0  0  0  0  0  0  0
   65.2400   33.6060   50.7870 F   0  0  0  0  0  0  0  0  0  0  0  0
   63.7030   32.8300   48.9720 O   0  0  0  0  0  0  0  0  0  0  0  0
   63.0730   32.6310   47.7420 C   0  0  0  0  0  0  0  0  0  0  0  0
   63.7460   32.1310   46.7560 N   0  0  0  0  0  0  0  0  0  0  0  0
   61.6960   33.0000   47.5740 N   0  0  0  0  0  0  0  0  0  0  0  0
   60.3100   31.0340   49.0610 C   0  0  0  0  0  0  0  0  0  0  0  0
   59.5570   30.0270   49.6700 C   0  0  0  0  0  0  0  0  0  0  0  0
   59.8340   28.6580   49.3370 N   0  0  0  0  0  0  0  0  0  0  0  0
   59.8560   28.0890   48.0210 C   0  0  0  0  0  0  0  0  0  0  0  0
   60.7800   27.2840   47.7300 O   0  0  0  0  0  0  0  0  0  0  0  0
   58.8650   28.4690   46.9880 C   0  0  0  0  0  0  0  0  0  0  0  0
   58.5900   29.8160   46.7140 C   0  0  0  0  0  0  0  0  0  0  0  0
   57.6560   30.1620   45.7210 C   0  0  0  0  0  0  0  0  0  0  0  0
   57.3480   31.4990   45.3980 O   0  0  0  0  0  0  0  0  0  0  0  0
   58.1100   32.4540   44.6470 C   0  0  0  0  0  0  0  0  0  0  0  0
   57.7990   33.9010   45.0480 C   0  0  0  0  0  0  0  0  0  0  0  0
   58.0400   32.2120   43.1350 C   0  0  0  0  0  0  0  0  0  0  0  0
   57.0070   29.1250   45.0050 C   0  0  0  0  0  0  0  0  0  0  0  0
   56.0140   29.3990   43.9340 C   0  0  0  0  0  0  0  0  0  0  0  0
   54.7770   29.3190   44.1550 O   0  0  0  0  0  0  0  0  0  0  0  0
   56.4390   29.7540   42.6570 O   0  0  0  0  0  0  0  0  0  0  0  0
   57.3090   27.7910   45.3250 C   0  0  0  0  0  0  0  0  0  0  0  0
   58.2120   27.5020   46.2940 N   0  0  0  0  0  0  0  0  0  0  0  0
   58.1138   30.2728   53.1663 H   0  0  0  0  0  0  0  0  0  0  0  0
   56.8412   29.0098   53.0575 H   0  0  0  0  0  0  0  0  0  0  0  0
   58.5750   28.5402   53.0575 H   0  0  0  0  0  0  0  0  0  0  0  0
   58.8585   33.7411   50.5459 H   0  0  0  0  0  0  0  0  0  0  0  0
   59.7655   35.3673   48.8974 H   0  0  0  0  0  0  0  0  0  0  0  0
   60.4098   35.0539   47.2404 H   0  0  0  0  0  0  0  0  0  0  0  0
   62.2608   35.0921   49.3189 H   0  0  0  0  0  0  0  0  0  0  0  0
   61.2420   34.4068   50.6447 H   0  0  0  0  0  0  0  0  0  0  0  0
   62.5080   32.3305   50.5997 H   0  0  0  0  0  0  0  0  0  0  0  0
   64.7890   32.1650   46.7290 H   0  0  0  0  0  0  0  0  0  0  0  0
   61.2230   32.7770   46.6670 H   0  0  0  0  0  0  0  0  0  0  0  0
   61.1027   30.7616   48.3486 H   0  0  0  0  0  0  0  0  0  0  0  0
   59.1071   30.6061   47.2783 H   0  0  0  0  0  0  0  0  0  0  0  0
   59.1635   32.2921   44.9188 H   0  0  0  0  0  0  0  0  0  0  0  0
   57.7816   33.9818   46.1449 H   0  0  0  0  0  0  0  0  0  0  0  0
   58.5742   34.5683   44.6434 H   0  0  0  0  0  0  0  0  0  0  0  0
   56.8180   34.1909   44.6434 H   0  0  0  0  0  0  0  0  0  0  0  0
   57.7390   31.1714   42.9438 H   0  0  0  0  0  0  0  0  0  0  0  0
   57.3026   32.8950   42.6881 H   0  0  0  0  0  0  0  0  0  0  0  0
   59.0282   32.3959   42.6881 H   0  0  0  0  0  0  0  0  0  0  0  0
   56.8085   26.9739   44.7847 H   0  0  0  0  0  0  0  0  0  0  0  0
  1  2  1  0
  2  3  1  0
  3  4  2  0
  4  5  1  0
  5  6  2  0
  6  7  1  0
  7  8  1  6
  8  9  1  0
  7 10  1  0
 10 11  1  0
 11 12  1  0
 12 13  1  0
 12 14  1  0
 12 15  1  0
 11 16  1  0
 16 17  1  0
 17 18  2  3
 17 19  1  0
  6 20  1  0
 20 21  2  0
 21 22  1  0
 22 23  1  0
 23 24  2  0
 23 25  1  0
 25 26  2  0
 26 27  1  0
 27 28  1  0
 28 29  1  0
 29 30  1  0
 29 31  1  0
 27 32  2  0
 32 33  1  0
 33 34  2  0
 33 35  1  0
 32 36  1  0
 36 37  2  0
 21  3  1  0
 37 25  1  0
 19  7  1  0
  1 38  1  0
  1 39  1  0
  1 40  1  0
  5 41  1  0
  8 42  1  0
  8 43  1  0
 10 44  1  0
 10 45  1  0
 11 46  1  1
 18 47  1  0
 19 48  1  0
 20 49  1  0
 26 50  1  0
 29 51  1  0
 30 52  1  0
 30 53  1  0
 30 54  1  0
 31 55  1  0
 31 56  1  0
 31 57  1  0
 36 58  1  0
M  CHG  2  22  -1  35  -1
M  END
>  <UniqueID>  (70) 
63

>  <SMILES>  (70) 
COc1ncc([C@@]2(CF)C[C@H](C(F)(F)F)OC(=N)N2)cc1[N-]C(=O)c1cc(OC(C)C)c(C(=O)[O-])cn1

>  <Energy>  (70) 
67.62962718246256

>  <Genealogy>  (70) 
COc1ncc(C2(CF)CC(C(F)(F)F)OC(=N)N2)cc1[N-]C(=O)c1cc(OC(C)C)c(C(=O)[O-])cn1 (protonated)
COc1ncc([C@@]2(CF)C[C@H](C(F)(F)F)OC(=N)N2)cc1[N-]C(=O)c1cc(OC(C)C)c(C(=O)[O-])cn1 (chirality)
COc1ncc([C@@]2(CF)C[C@H](C(F)(F)F)OC(=N)N2)cc1[N-]C(=O)c1cc(OC(C)C)c(C(=O)[O-])cn1 (3D coordinates assigned)
COc1ncc([C@@]2(CF)C[C@H](C(F)(F)F)OC(=N)N2)cc1[N-]C(=O)c1cc(OC(C)C)c(C(=O)[O-])cn1 (nonaromatic ring conformer: 67.62962718246256 kcal/mol)

>  <smiles>  (70) 
COc1ncc(C2(CF)CC(C(F)(F)F)OC(=N)N2)cc1NC(=O)c1cc(OC(C)C)c(C(=O)O)cn1

>  <score_type>  (70) 
oracle

>  <origin>  (70) 
adg

>  <m_score__min__energy>  (70) 
-10.699999999999999

>  <m_primary>  (70) 
energy

$$$$
70:0
     RDKit          3D

 39 40  0  0  0  0  0  0  0  0999 V2000
   54.1610   24.4670   47.1100 H   0  0  0  0  0  0  0  0  0  0  0  0
   55.0660   24.0370   46.9620 O   0  0  0  0  0  0  0  0  0  0  0  0
   56.1900   24.7950   46.6440 C   0  0  0  0  0  0  0  0  0  0  0  0
   57.4720   24.2410   46.7410 C   0  0  0  0  0  0  0  0  0  0  0  0
   57.5943   23.1989   47.0713 H   0  0  0  0  0  0  0  0  0  0  0  0
   58.5980   25.0060   46.4200 C   0  0  0  0  0  0  0  0  0  0  0  0
   59.6018   24.5646   46.5068 H   0  0  0  0  0  0  0  0  0  0  0  0
   58.4540   26.3390   45.9860 C   0  0  0  0  0  0  0  0  0  0  0  0
   59.6150   27.1970   45.6440 C   0  0  0  0  0  0  0  0  0  0  0  0
   59.7105   27.5506   44.6068 H   0  0  0  0  0  0  0  0  0  0  0  0
   60.5540   27.5660   46.5260 C   0  0  0  0  0  0  0  0  0  0  0  0
   61.5619   27.8080   46.1579 H   0  0  0  0  0  0  0  0  0  0  0  0
   60.2840   27.6590   47.9710 C   0  0  0  0  0  0  0  0  0  0  0  0
   60.6690   26.7540   48.7600 O   0  0  0  0  0  0  0  0  0  0  0  0
   59.5790   28.8000   48.4710 N   0  0  0  0  0  0  0  0  0  0  0  0
   59.8210   30.1670   48.0200 C   0  0  0  0  0  0  0  0  0  0  0  0
   59.2694   30.8617   48.6705 H   0  0  0  0  0  0  0  0  0  0  0  0
   60.9024   30.3622   48.0696 H   0  0  0  0  0  0  0  0  0  0  0  0
   59.3590   30.3670   46.5690 C   0  0  0  0  0  0  0  0  0  0  0  0
   59.6036   31.3951   46.2639 H   0  0  0  0  0  0  0  0  0  0  0  0
   59.8795   29.6162   45.9563 H   0  0  0  0  0  0  0  0  0  0  0  0
   57.8490   30.1460   46.3720 C   0  0  0  0  0  0  0  0  0  0  0  0
   57.6099   29.0992   46.6109 H   0  0  0  0  0  0  0  0  0  0  0  0
   57.3161   30.8402   47.0384 H   0  0  0  0  0  0  0  0  0  0  0  0
   57.4110   30.4340   44.9560 C   0  0  0  0  0  0  0  0  0  0  0  0
   58.2050   31.2600   44.1410 C   0  0  0  0  0  0  0  0  0  0  0  0
   59.1269   31.7031   44.5458 H   0  0  0  0  0  0  0  0  0  0  0  0
   57.8310   31.5220   42.8200 C   0  0  0  0  0  0  0  0  0  0  0  0
   58.4573   32.1708   42.1900 H   0  0  0  0  0  0  0  0  0  0  0  0
   56.6630   30.9610   42.2990 C   0  0  0  0  0  0  0  0  0  0  0  0
   56.3690   31.1697   41.2598 H   0  0  0  0  0  0  0  0  0  0  0  0
   55.8680   30.1350   43.0970 C   0  0  0  0  0  0  0  0  0  0  0  0
   54.9491   29.6936   42.6837 H   0  0  0  0  0  0  0  0  0  0  0  0
   56.2360   29.8670   44.4200 C   0  0  0  0  0  0  0  0  0  0  0  0
   55.4300   29.0370   45.1930 O   0  0  0  0  0  0  0  0  0  0  0  0
   57.1640   26.8900   45.9080 C   0  0  0  0  0  0  0  0  0  0  0  0
   57.0370   27.9357   45.5911 H   0  0  0  0  0  0  0  0  0  0  0  0
   56.0400   26.1230   46.2290 C   0  0  0  0  0  0  0  0  0  0  0  0
   54.7710   26.6840   46.1350 O   0  0  0  0  0  0  0  0  0  0  0  0
  1  2  1  0
  2  3  1  0
  3  4  2  0
  4  5  1  0
  4  6  1  0
  6  7  1  0
  6  8  2  0
  8  9  1  0
  9 10  1  0
  9 11  2  0
 11 12  1  0
 11 13  1  0
 13 14  2  0
 13 15  1  0
 15 16  1  0
 16 17  1  0
 16 18  1  0
 16 19  1  0
 19 20  1  0
 19 21  1  0
 19 22  1  0
 22 23  1  0
 22 24  1  0
 22 25  1  0
 25 26  2  0
 26 27  1  0
 26 28  1  0
 28 29  1  0
 28 30  2  0
 30 31  1  0
 30 32  1  0
 32 33  1  0
 32 34  2  0
 34 35  1  0
  8 36  1  0
 36 37  1  0
 36 38  2  0
 38 39  1  0
 38  3  1  0
 34 25  1  0
M  CHG  3  15  -1  35  -1  39  -1
M  END
>  <UniqueID>  (71) 
64

>  <SMILES>  (71) 
O=C(/C=C/c1ccc(O)c([O-])c1)[N-]CCCc1ccccc1[O-]

>  <Energy>  (71) 
35.77951411928996

>  <Genealogy>  (71) 
O=C(C=Cc1ccc(O)c([O-])c1)[N-]CCCc1ccccc1[O-] (protonated)
O=C(/C=C/c1ccc(O)c([O-])c1)[N-]CCCc1ccccc1[O-] (cis-trans isomerization)
O=C(/C=C/c1ccc(O)c([O-])c1)[N-]CCCc1ccccc1[O-] (3D coordinates assigned)
O=C(/C=C/c1ccc(O)c([O-])c1)[N-]CCCc1ccccc1[O-] (optimized conformer: 35.77951411928996 kcal/mol)

>  <smiles>  (71) 
O=C(C=Cc1ccc(O)c(O)c1)NCCCc1ccccc1O

>  <score_type>  (71) 
oracle

>  <origin>  (71) 
adg

>  <m_score__min__energy>  (71) 
-14.69

>  <m_primary>  (71) 
energy

$$$$
71:0
     RDKit          3D

 48 50  0  0  0  0  0  0  0  0999 V2000
   53.3330   22.2990   46.5810 C   0  0  0  0  0  0  0  0  0  0  0  0
   54.1630   23.4970   46.5350 N   0  0  0  0  0  0  0  0  0  0  0  0
   53.9030   24.5640   45.6160 C   0  0  0  0  0  0  0  0  0  0  0  0
   52.9960   24.4420   44.7510 O   0  0  0  0  0  0  0  0  0  0  0  0
   54.6790   25.7680   45.7080 N   0  0  0  0  0  0  0  0  0  0  0  0
   55.8920   25.8860   46.1740 C   0  0  0  0  0  0  0  0  0  0  0  0
   56.7080   26.9160   45.6920 C   0  0  0  0  0  0  0  0  0  0  0  0
   58.0090   27.0730   46.1990 C   0  0  0  0  0  0  0  0  0  0  0  0
   58.8770   28.0790   45.7390 O   0  0  0  0  0  0  0  0  0  0  0  0
   59.4050   29.1120   46.5260 C   0  0  0  0  0  0  0  0  0  0  0  0
   58.8790   29.4230   47.7910 C   0  0  0  0  0  0  0  0  0  0  0  0
   59.4200   30.4720   48.5410 C   0  0  0  0  0  0  0  0  0  0  0  0
   60.5080   31.2040   48.0560 C   0  0  0  0  0  0  0  0  0  0  0  0
   60.9870   32.3160   48.8240 N   0  0  0  0  0  0  0  0  0  0  0  0
   60.4800   33.6550   48.7890 C   0  0  0  0  0  0  0  0  0  0  0  0
   61.1280   34.5960   49.3220 O   0  0  0  0  0  0  0  0  0  0  0  0
   59.1900   33.8910   48.2100 N   0  0  0  0  0  0  0  0  0  0  0  0
   58.7760   33.6180   46.8620 C   0  0  0  0  0  0  0  0  0  0  0  0
   59.3180   34.3960   45.8310 C   0  0  0  0  0  0  0  0  0  0  0  0
   58.9160   34.1950   44.5090 C   0  0  0  0  0  0  0  0  0  0  0  0
   57.9540   33.2290   44.2070 C   0  0  0  0  0  0  0  0  0  0  0  0
   57.3940   32.4440   45.2180 C   0  0  0  0  0  0  0  0  0  0  0  0
   56.4460   31.4750   44.8540 O   0  0  0  0  0  0  0  0  0  0  0  0
   56.6700   30.4190   43.9190 C   0  0  0  0  0  0  0  0  0  0  0  0
   55.7740   29.3880   44.1430 F   0  0  0  0  0  0  0  0  0  0  0  0
   57.9540   29.9390   44.0860 F   0  0  0  0  0  0  0  0  0  0  0  0
   56.5340   30.8840   42.6250 F   0  0  0  0  0  0  0  0  0  0  0  0
   57.7990   32.6510   46.5520 C   0  0  0  0  0  0  0  0  0  0  0  0
   61.0460   30.8790   46.7980 C   0  0  0  0  0  0  0  0  0  0  0  0
   60.5050   29.8300   46.0480 C   0  0  0  0  0  0  0  0  0  0  0  0
   58.4760   26.1700   47.1620 C   0  0  0  0  0  0  0  0  0  0  0  0
   57.6370   25.1530   47.6170 C   0  0  0  0  0  0  0  0  0  0  0  0
   56.3750   25.0370   47.1240 N   0  0  0  0  0  0  0  0  0  0  0  0
   53.1429   22.0246   47.6291 H   0  0  0  0  0  0  0  0  0  0  0  0
   52.3767   22.4958   46.0743 H   0  0  0  0  0  0  0  0  0  0  0  0
   53.8532   21.4728   46.0743 H   0  0  0  0  0  0  0  0  0  0  0  0
   54.9690   23.5820   47.1960 H   0  0  0  0  0  0  0  0  0  0  0  0
   56.3316   27.6010   44.9180 H   0  0  0  0  0  0  0  0  0  0  0  0
   58.0381   28.8389   48.1932 H   0  0  0  0  0  0  0  0  0  0  0  0
   58.9862   30.7232   49.5201 H   0  0  0  0  0  0  0  0  0  0  0  0
   60.0645   35.1696   46.0641 H   0  0  0  0  0  0  0  0  0  0  0  0
   59.3583   34.7993   43.7033 H   0  0  0  0  0  0  0  0  0  0  0  0
   57.6344   33.0849   43.1644 H   0  0  0  0  0  0  0  0  0  0  0  0
   57.3487   32.0528   47.3578 H   0  0  0  0  0  0  0  0  0  0  0  0
   61.8968   31.4529   46.4019 H   0  0  0  0  0  0  0  0  0  0  0  0
   60.9479   29.5682   45.0757 H   0  0  0  0  0  0  0  0  0  0  0  0
   59.4984   26.2622   47.5572 H   0  0  0  0  0  0  0  0  0  0  0  0
   57.9969   24.4432   48.3763 H   0  0  0  0  0  0  0  0  0  0  0  0
  1  2  1  0
  2  3  1  0
  3  4  2  0
  3  5  1  0
  5  6  2  3
  6  7  1  0
  7  8  2  0
  8  9  1  0
  9 10  1  0
 10 11  2  0
 11 12  1  0
 12 13  2  0
 13 14  1  0
 14 15  1  0
 15 16  2  0
 15 17  1  0
 17 18  1  0
 18 19  2  0
 19 20  1  0
 20 21  2  0
 21 22  1  0
 22 23  1  0
 23 24  1  0
 24 25  1  0
 24 26  1  0
 24 27  1  0
 22 28  2  0
 13 29  1  0
 29 30  2  0
  8 31  1  0
 31 32  2  0
 32 33  1  0
 33  6  1  0
 30 10  1  0
 28 18  1  0
  1 34  1  0
  1 35  1  0
  1 36  1  0
  2 37  1  0
  7 38  1  0
 11 39  1  0
 12 40  1  0
 19 41  1  0
 20 42  1  0
 21 43  1  0
 28 44  1  0
 29 45  1  0
 30 46  1  0
 31 47  1  0
 32 48  1  0
M  CHG  3  14  -1  17  -1  33  -1
M  END
>  <UniqueID>  (72) 
65

>  <SMILES>  (72) 
CNC(=O)N=c1cc(Oc2ccc([N-]C(=O)[N-]c3cccc(OC(F)(F)F)c3)cc2)cc[n-]1

>  <Energy>  (72) 
64.97661171353828

>  <Genealogy>  (72) 
CNC(=O)N=c1cc(Oc2ccc([N-]C(=O)[N-]c3cccc(OC(F)(F)F)c3)cc2)cc[n-]1 (protonated)
CNC(=O)N=c1cc(Oc2ccc([N-]C(=O)[N-]c3cccc(OC(F)(F)F)c3)cc2)cc[n-]1 (3D coordinates assigned)
CNC(=O)N=c1cc(Oc2ccc([N-]C(=O)[N-]c3cccc(OC(F)(F)F)c3)cc2)cc[n-]1 (optimized conformer: 64.97661171353828 kcal/mol)

>  <smiles>  (72) 
CNC(=O)N=c1cc(Oc2ccc(NC(=O)Nc3cccc(OC(F)(F)F)c3)cc2)cc[nH]1

>  <score_type>  (72) 
oracle

>  <origin>  (72) 
adg

>  <m_score__min__energy>  (72) 
-11.720000000000001

>  <m_primary>  (72) 
energy

$$$$
72:0
     RDKit          3D

 49 51  0  0  0  0  0  0  0  0999 V2000
   54.8920   26.3410   45.9770 N   0  0  0  0  0  0  0  0  0  0  0  0
   56.3230   25.4550   46.3680 S   0  0  0  0  0  0  0  0  0  0  0  0
   56.0290   24.4930   47.4850 O   0  0  0  0  0  0  0  0  0  0  0  0
   56.7740   24.6740   45.1650 O   0  0  0  0  0  0  0  0  0  0  0  0
   57.5890   26.5740   46.8650 C   0  0  0  0  0  0  0  0  0  0  0  0
   57.3840   27.9560   46.7630 C   0  0  0  0  0  0  0  0  0  0  0  0
   58.3920   28.8470   47.1470 C   0  0  0  0  0  0  0  0  0  0  0  0
   59.6190   28.3650   47.6290 C   0  0  0  0  0  0  0  0  0  0  0  0
   60.6900   29.3290   48.0590 C   0  0  0  0  0  0  0  0  0  0  0  0
   60.8010   29.3460   49.5140 N   0  0  0  0  0  0  0  0  0  0  0  0
   59.8420   29.9660   50.3750 C   0  0  0  0  0  0  0  0  0  0  0  0
   59.4140   29.3550   51.3910 O   0  0  0  0  0  0  0  0  0  0  0  0
   59.3420   31.2640   50.0370 N   0  0  0  0  0  0  0  0  0  0  0  0
   59.5990   31.9910   48.8270 C   0  0  0  0  0  0  0  0  0  0  0  0
   60.7540   32.7810   48.7510 C   0  0  0  0  0  0  0  0  0  0  0  0
   61.0290   33.5230   47.5990 C   0  0  0  0  0  0  0  0  0  0  0  0
   60.1450   33.4930   46.5180 C   0  0  0  0  0  0  0  0  0  0  0  0
   58.9770   32.7220   46.5860 C   0  0  0  0  0  0  0  0  0  0  0  0
   57.8290   32.7140   45.2500 S   0  0  0  0  0  0  0  0  0  0  0  0
   58.5270   33.2010   44.0100 O   0  0  0  0  0  0  0  0  0  0  0  0
   56.6840   33.6430   45.5510 O   0  0  0  0  0  0  0  0  0  0  0  0
   57.2370   31.0920   44.9940 N   0  0  0  0  0  0  0  0  0  0  0  0
   55.9030   31.1340   44.3690 C   0  0  0  0  0  0  0  0  0  0  0  0
   55.4890   29.7400   43.8600 C   0  0  0  0  0  0  0  0  0  0  0  0
   56.3310   28.7360   44.3910 O   0  0  0  0  0  0  0  0  0  0  0  0
   57.6510   28.9140   43.9070 C   0  0  0  0  0  0  0  0  0  0  0  0
   58.1760   30.3470   44.1430 C   0  0  0  0  0  0  0  0  0  0  0  0
   58.6990   31.9830   47.7450 C   0  0  0  0  0  0  0  0  0  0  0  0
   59.8230   26.9780   47.7250 C   0  0  0  0  0  0  0  0  0  0  0  0
   58.8150   26.0890   47.3420 C   0  0  0  0  0  0  0  0  0  0  0  0
   55.1750   27.1050   45.3240 H   0  0  0  0  0  0  0  0  0  0  0  0
   56.4278   28.3418   46.3799 H   0  0  0  0  0  0  0  0  0  0  0  0
   58.2220   29.9311   47.0708 H   0  0  0  0  0  0  0  0  0  0  0  0
   61.6523   29.0196   47.6252 H   0  0  0  0  0  0  0  0  0  0  0  0
   60.4257   30.3375   47.7083 H   0  0  0  0  0  0  0  0  0  0  0  0
   61.4484   32.8173   49.6033 H   0  0  0  0  0  0  0  0  0  0  0  0
   61.9435   34.1318   47.5435 H   0  0  0  0  0  0  0  0  0  0  0  0
   60.3662   34.0757   45.6116 H   0  0  0  0  0  0  0  0  0  0  0  0
   55.1683   31.4789   45.1115 H   0  0  0  0  0  0  0  0  0  0  0  0
   55.9380   31.8241   43.5131 H   0  0  0  0  0  0  0  0  0  0  0  0
   54.4518   29.5387   44.1662 H   0  0  0  0  0  0  0  0  0  0  0  0
   55.5766   29.7270   42.7636 H   0  0  0  0  0  0  0  0  0  0  0  0
   58.3151   28.2050   44.4230 H   0  0  0  0  0  0  0  0  0  0  0  0
   57.6372   28.7363   42.8215 H   0  0  0  0  0  0  0  0  0  0  0  0
   59.1570   30.2987   44.6383 H   0  0  0  0  0  0  0  0  0  0  0  0
   58.2720   30.8607   43.1750 H   0  0  0  0  0  0  0  0  0  0  0  0
   57.7723   31.3938   47.8088 H   0  0  0  0  0  0  0  0  0  0  0  0
   60.7804   26.5903   48.1033 H   0  0  0  0  0  0  0  0  0  0  0  0
   58.9841   25.0045   47.4151 H   0  0  0  0  0  0  0  0  0  0  0  0
  1  2  1  0
  2  3  2  0
  2  4  2  0
  2  5  1  0
  5  6  2  0
  6  7  1  0
  7  8  2  0
  8  9  1  0
  9 10  1  0
 10 11  1  0
 11 12  2  0
 11 13  1  0
 13 14  1  0
 14 15  2  0
 15 16  1  0
 16 17  2  0
 17 18  1  0
 18 19  1  0
 19 20  2  0
 19 21  2  0
 19 22  1  0
 22 23  1  0
 23 24  1  0
 24 25  1  0
 25 26  1  0
 26 27  1  0
 18 28  2  0
  8 29  1  0
 29 30  2  0
 30  5  1  0
 28 14  1  0
 27 22  1  0
  1 31  1  0
  6 32  1  0
  7 33  1  0
  9 34  1  0
  9 35  1  0
 15 36  1  0
 16 37  1  0
 17 38  1  0
 23 39  1  0
 23 40  1  0
 24 41  1  0
 24 42  1  0
 26 43  1  0
 26 44  1  0
 27 45  1  0
 27 46  1  0
 28 47  1  0
 29 48  1  0
 30 49  1  0
M  CHG  3   1  -1  10  -1  13  -1
M  END
>  <UniqueID>  (73) 
66

>  <SMILES>  (73) 
[NH-]S(=O)(=O)c1ccc(C[N-]C(=O)[N-]c2cccc(S(=O)(=O)N3CCOCC3)c2)cc1

>  <Energy>  (73) 
57.97869330151737

>  <Genealogy>  (73) 
[NH-]S(=O)(=O)c1ccc(C[N-]C(=O)[N-]c2cccc(S(=O)(=O)N3CCOCC3)c2)cc1 (protonated)
[NH-]S(=O)(=O)c1ccc(C[N-]C(=O)[N-]c2cccc(S(=O)(=O)N3CCOCC3)c2)cc1 (3D coordinates assigned)
[NH-]S(=O)(=O)c1ccc(C[N-]C(=O)[N-]c2cccc(S(=O)(=O)N3CCOCC3)c2)cc1 (nonaromatic ring conformer: 57.97869330151737 kcal/mol)

>  <smiles>  (73) 
NS(=O)(=O)c1ccc(CNC(=O)Nc2cccc(S(=O)(=O)N3CCOCC3)c2)cc1

>  <score_type>  (73) 
oracle

>  <origin>  (73) 
adg

>  <m_score__min__energy>  (73) 
-14.25

>  <m_primary>  (73) 
energy

$$$$
73:0
     RDKit          3D

 46 48  0  0  0  0  0  0  0  0999 V2000
   64.1040   33.0760   46.7320 C   0  0  0  0  0  0  0  0  0  0  0  0
   63.0500   33.4680   47.7240 C   0  0  0  0  0  0  0  0  0  0  0  0
   61.8210   33.8300   47.2720 N   0  0  0  0  0  0  0  0  0  0  0  0
   60.8310   34.2000   48.1220 C   0  0  0  0  0  0  0  0  0  0  0  0
   59.6630   34.5090   47.6410 N   0  0  0  0  0  0  0  0  0  0  0  0
   58.4650   33.7250   47.7610 C   0  0  0  0  0  0  0  0  0  0  0  0
   58.3060   32.9230   48.7210 O   0  0  0  0  0  0  0  0  0  0  0  0
   57.3940   33.8550   46.7250 C   0  0  0  0  0  0  0  0  0  0  0  0
   58.1020   33.7730   45.0420 S   0  0  0  0  0  0  0  0  0  0  0  0
   57.9340   31.9940   44.8840 C   0  0  0  0  0  0  0  0  0  0  0  0
   59.0520   31.1670   45.0230 C   0  0  0  0  0  0  0  0  0  0  0  0
   58.8960   29.7840   44.9280 C   0  0  0  0  0  0  0  0  0  0  0  0
   57.6260   29.2290   44.6860 C   0  0  0  0  0  0  0  0  0  0  0  0
   57.4600   27.7580   44.5820 C   0  0  0  0  0  0  0  0  0  0  0  0
   57.7880   27.1700   43.5150 O   0  0  0  0  0  0  0  0  0  0  0  0
   56.9660   26.9880   45.6910 N   0  0  0  0  0  0  0  0  0  0  0  0
   56.5080   25.6330   45.5560 C   0  0  0  0  0  0  0  0  0  0  0  0
   57.4450   24.6090   45.3480 C   0  0  0  0  0  0  0  0  0  0  0  0
   57.0260   23.2830   45.2100 C   0  0  0  0  0  0  0  0  0  0  0  0
   55.6670   22.9660   45.2930 C   0  0  0  0  0  0  0  0  0  0  0  0
   54.7290   23.9740   45.5290 C   0  0  0  0  0  0  0  0  0  0  0  0
   55.1410   25.3020   45.6750 C   0  0  0  0  0  0  0  0  0  0  0  0
   54.1940   26.2810   45.9620 O   0  0  0  0  0  0  0  0  0  0  0  0
   56.5380   30.1040   44.5240 C   0  0  0  0  0  0  0  0  0  0  0  0
   56.7150   31.4490   44.6290 N   0  0  0  0  0  0  0  0  0  0  0  0
   61.0660   34.2030   49.4630 N   0  0  0  0  0  0  0  0  0  0  0  0
   62.2730   33.8490   49.9760 C   0  0  0  0  0  0  0  0  0  0  0  0
   62.4600   33.8580   51.4630 C   0  0  0  0  0  0  0  0  0  0  0  0
   63.3080   33.4640   49.1070 C   0  0  0  0  0  0  0  0  0  0  0  0
   64.8880   32.9870   49.7350 Cl  0  0  0  0  0  0  0  0  0  0  0  0
   65.0048   32.7410   47.2672 H   0  0  0  0  0  0  0  0  0  0  0  0
   63.7271   32.2579   46.1006 H   0  0  0  0  0  0  0  0  0  0  0  0
   64.3533   33.9415   46.1006 H   0  0  0  0  0  0  0  0  0  0  0  0
   56.6695   33.0370   46.8513 H   0  0  0  0  0  0  0  0  0  0  0  0
   56.8991   34.8292   46.8512 H   0  0  0  0  0  0  0  0  0  0  0  0
   60.0455   31.6025   45.2056 H   0  0  0  0  0  0  0  0  0  0  0  0
   59.7692   29.1249   45.0427 H   0  0  0  0  0  0  0  0  0  0  0  0
   57.1310   27.3500   46.6570 H   0  0  0  0  0  0  0  0  0  0  0  0
   58.5165   24.8518   45.2932 H   0  0  0  0  0  0  0  0  0  0  0  0
   57.7661   22.4881   45.0359 H   0  0  0  0  0  0  0  0  0  0  0  0
   55.3365   21.9238   45.1726 H   0  0  0  0  0  0  0  0  0  0  0  0
   53.6607   23.7215   45.6003 H   0  0  0  0  0  0  0  0  0  0  0  0
   55.5376   29.6991   44.3111 H   0  0  0  0  0  0  0  0  0  0  0  0
   61.4780   33.8107   51.9563 H   0  0  0  0  0  0  0  0  0  0  0  0
   63.0628   32.9878   51.7620 H   0  0  0  0  0  0  0  0  0  0  0  0
   62.9764   34.7821   51.7620 H   0  0  0  0  0  0  0  0  0  0  0  0
  1  2  1  0
  2  3  2  0
  3  4  1  0
  4  5  2  3
  5  6  1  0
  6  7  2  0
  6  8  1  0
  8  9  1  0
  9 10  1  0
 10 11  2  0
 11 12  1  0
 12 13  2  0
 13 14  1  0
 14 15  2  0
 14 16  1  0
 16 17  1  0
 17 18  2  0
 18 19  1  0
 19 20  2  0
 20 21  1  0
 21 22  2  0
 22 23  1  0
 13 24  1  0
 24 25  2  0
  4 26  1  0
 26 27  1  0
 27 28  1  0
 27 29  2  0
 29 30  1  0
 29  2  1  0
 25 10  1  0
 22 17  1  0
  1 31  1  0
  1 32  1  0
  1 33  1  0
  8 34  1  0
  8 35  1  0
 11 36  1  0
 12 37  1  0
 16 38  1  0
 18 39  1  0
 19 40  1  0
 20 41  1  0
 21 42  1  0
 24 43  1  0
 28 44  1  0
 28 45  1  0
 28 46  1  0
M  CHG  2  23  -1  26  -1
M  END
>  <UniqueID>  (74) 
67

>  <SMILES>  (74) 
Cc1nc(=NC(=O)CSc2ccc(C(=O)Nc3ccccc3[O-])cn2)[n-]c(C)c1Cl

>  <Energy>  (74) 
53.950530874512125

>  <Genealogy>  (74) 
Cc1nc(=NC(=O)CSc2ccc(C(=O)Nc3ccccc3[O-])cn2)[n-]c(C)c1Cl (protonated)
Cc1nc(=NC(=O)CSc2ccc(C(=O)Nc3ccccc3[O-])cn2)[n-]c(C)c1Cl (3D coordinates assigned)
Cc1nc(=NC(=O)CSc2ccc(C(=O)Nc3ccccc3[O-])cn2)[n-]c(C)c1Cl (optimized conformer: 53.950530874512125 kcal/mol)

>  <smiles>  (74) 
Cc1nc(=NC(=O)CSc2ccc(C(=O)Nc3ccccc3O)cn2)[nH]c(C)c1Cl

>  <score_type>  (74) 
oracle

>  <origin>  (74) 
adg

>  <m_score__min__energy>  (74) 
-13.33

>  <m_primary>  (74) 
energy

$$$$
74:0
     RDKit          3D

 39 40  0  0  0  0  0  0  0  0999 V2000
   61.4580   31.5680   48.3400 C   0  0  0  0  0  0  0  0  0  0  0  0
   60.8360   30.3500   47.7220 C   0  0  0  0  0  0  0  0  0  0  0  0
   60.1980   29.3940   48.5260 C   0  0  0  0  0  0  0  0  0  0  0  0
   59.6570   28.2380   47.9560 C   0  0  0  0  0  0  0  0  0  0  0  0
   59.7670   28.0130   46.5710 C   0  0  0  0  0  0  0  0  0  0  0  0
   59.2670   26.8620   45.9450 O   0  0  0  0  0  0  0  0  0  0  0  0
   57.9800   26.2800   46.1640 C   0  0  0  0  0  0  0  0  0  0  0  0
   56.8420   27.2800   45.8990 C   0  0  0  0  0  0  0  0  0  0  0  0
   57.2510   28.3270   44.9640 N   0  0  0  0  0  0  0  0  0  0  0  0
   56.3650   29.3590   44.5090 C   0  0  0  0  0  0  0  0  0  0  0  0
   55.1540   29.3630   44.8620 O   0  0  0  0  0  0  0  0  0  0  0  0
   56.8820   30.4520   43.6230 C   0  0  0  0  0  0  0  0  0  0  0  0
   57.5070   31.5430   44.4500 C   0  0  0  0  0  0  0  0  0  0  0  0
   57.7700   31.3400   45.8150 C   0  0  0  0  0  0  0  0  0  0  0  0
   58.3280   32.3640   46.5860 C   0  0  0  0  0  0  0  0  0  0  0  0
   58.6240   33.6000   46.0010 C   0  0  0  0  0  0  0  0  0  0  0  0
   59.3100   34.8890   46.9730 Cl  0  0  0  0  0  0  0  0  0  0  0  0
   58.3530   33.8130   44.6440 C   0  0  0  0  0  0  0  0  0  0  0  0
   57.7930   32.7910   43.8730 C   0  0  0  0  0  0  0  0  0  0  0  0
   60.4000   28.9720   45.7730 C   0  0  0  0  0  0  0  0  0  0  0  0
   60.9440   30.1260   46.3420 C   0  0  0  0  0  0  0  0  0  0  0  0
   61.4157   31.4852   49.4361 H   0  0  0  0  0  0  0  0  0  0  0  0
   62.5070   31.6473   48.0184 H   0  0  0  0  0  0  0  0  0  0  0  0
   60.9072   32.4642   48.0184 H   0  0  0  0  0  0  0  0  0  0  0  0
   60.1229   29.5549   49.6116 H   0  0  0  0  0  0  0  0  0  0  0  0
   59.1436   27.5018   48.5919 H   0  0  0  0  0  0  0  0  0  0  0  0
   57.8603   25.4191   45.4898 H   0  0  0  0  0  0  0  0  0  0  0  0
   57.9220   25.9713   47.2182 H   0  0  0  0  0  0  0  0  0  0  0  0
   55.9831   26.7390   45.4753 H   0  0  0  0  0  0  0  0  0  0  0  0
   56.5746   27.7570   46.8534 H   0  0  0  0  0  0  0  0  0  0  0  0
   58.2310   28.3090   44.6030 H   0  0  0  0  0  0  0  0  0  0  0  0
   57.6370   30.0378   42.9386 H   0  0  0  0  0  0  0  0  0  0  0  0
   56.0439   30.8738   43.0488 H   0  0  0  0  0  0  0  0  0  0  0  0
   57.5358   30.3707   46.2793 H   0  0  0  0  0  0  0  0  0  0  0  0
   58.5345   32.1978   47.6536 H   0  0  0  0  0  0  0  0  0  0  0  0
   58.5812   34.7859   44.1843 H   0  0  0  0  0  0  0  0  0  0  0  0
   57.5751   32.9648   42.8089 H   0  0  0  0  0  0  0  0  0  0  0  0
   60.4701   28.8157   44.6864 H   0  0  0  0  0  0  0  0  0  0  0  0
   61.4586   30.8611   45.7057 H   0  0  0  0  0  0  0  0  0  0  0  0
  1  2  1  0
  2  3  2  0
  3  4  1  0
  4  5  2  0
  5  6  1  0
  6  7  1  0
  7  8  1  0
  8  9  1  0
  9 10  1  0
 10 11  2  0
 10 12  1  0
 12 13  1  0
 13 14  2  0
 14 15  1  0
 15 16  2  0
 16 17  1  0
 16 18  1  0
 18 19  2  0
  5 20  1  0
 20 21  2  0
 21  2  1  0
 19 13  1  0
  1 22  1  0
  1 23  1  0
  1 24  1  0
  3 25  1  0
  4 26  1  0
  7 27  1  0
  7 28  1  0
  8 29  1  0
  8 30  1  0
  9 31  1  0
 12 32  1  0
 12 33  1  0
 14 34  1  0
 15 35  1  0
 18 36  1  0
 19 37  1  0
 20 38  1  0
 21 39  1  0
M  END
>  <UniqueID>  (75) 
68

>  <SMILES>  (75) 
Cc1ccc(OCCNC(=O)Cc2ccc(Cl)cc2)cc1

>  <Energy>  (75) 
29.942392492917055

>  <Genealogy>  (75) 
Cc1ccc(OCCNC(=O)Cc2ccc(Cl)cc2)cc1 (3D coordinates assigned)
Cc1ccc(OCCNC(=O)Cc2ccc(Cl)cc2)cc1 (optimized conformer: 29.942392492917055 kcal/mol)

>  <smiles>  (75) 
Cc1ccc(OCCNC(=O)Cc2ccc(Cl)cc2)cc1

>  <score_type>  (75) 
oracle

>  <origin>  (75) 
adg

>  <m_score__min__energy>  (75) 
-7.1299999999999999

>  <m_primary>  (75) 
energy

$$$$
75:0
     RDKit          3D

 43 45  0  0  0  0  0  0  0  0999 V2000
   58.8490   34.2230   44.6860 C   0  0  0  0  0  0  0  0  0  0  0  0
   58.7210   33.9810   46.4460 S   0  0  0  0  0  0  0  0  0  0  0  0
   59.0590   35.2790   47.1240 O   0  0  0  0  0  0  0  0  0  0  0  0
   57.3080   33.5930   46.7820 O   0  0  0  0  0  0  0  0  0  0  0  0
   59.8090   32.7360   46.9960 N   0  0  0  0  0  0  0  0  0  0  0  0
   61.1470   33.1030   47.3580 C   0  0  0  0  0  0  0  0  0  0  0  0
   61.6130   32.8820   48.6630 C   0  0  0  0  0  0  0  0  0  0  0  0
   62.9230   33.2290   49.0070 C   0  0  0  0  0  0  0  0  0  0  0  0
   63.7730   33.7900   48.0500 C   0  0  0  0  0  0  0  0  0  0  0  0
   63.3150   34.0030   46.7460 C   0  0  0  0  0  0  0  0  0  0  0  0
   62.0060   33.6570   46.3980 C   0  0  0  0  0  0  0  0  0  0  0  0
   59.4330   31.3430   46.9620 C   0  0  0  0  0  0  0  0  0  0  0  0
   59.2680   30.6650   45.7410 C   0  0  0  0  0  0  0  0  0  0  0  0
   58.9150   29.3140   45.7190 C   0  0  0  0  0  0  0  0  0  0  0  0
   58.7280   28.6050   46.9160 C   0  0  0  0  0  0  0  0  0  0  0  0
   58.3610   27.1660   46.8840 C   0  0  0  0  0  0  0  0  0  0  0  0
   59.2470   26.2940   47.0820 O   0  0  0  0  0  0  0  0  0  0  0  0
   57.0330   26.7320   46.5550 N   0  0  0  0  0  0  0  0  0  0  0  0
   56.6990   25.6270   45.9450 C   0  0  0  0  0  0  0  0  0  0  0  0
   57.6350   24.6990   45.5650 N   0  0  0  0  0  0  0  0  0  0  0  0
   57.2790   23.5460   44.9330 C   0  0  0  0  0  0  0  0  0  0  0  0
   55.9400   23.2890   44.6400 C   0  0  0  0  0  0  0  0  0  0  0  0
   54.9710   24.2250   44.9940 C   0  0  0  0  0  0  0  0  0  0  0  0
   55.3460   25.4010   45.6440 C   0  0  0  0  0  0  0  0  0  0  0  0
   54.3760   26.3350   45.9960 O   0  0  0  0  0  0  0  0  0  0  0  0
   58.8820   29.2810   48.1380 C   0  0  0  0  0  0  0  0  0  0  0  0
   59.2360   30.6330   48.1590 C   0  0  0  0  0  0  0  0  0  0  0  0
   59.3545   35.1787   44.4831 H   0  0  0  0  0  0  0  0  0  0  0  0
   59.4297   33.4000   44.2440 H   0  0  0  0  0  0  0  0  0  0  0  0
   57.8419   34.2398   44.2440 H   0  0  0  0  0  0  0  0  0  0  0  0
   60.9471   32.4354   49.4160 H   0  0  0  0  0  0  0  0  0  0  0  0
   63.2850   33.0603   50.0319 H   0  0  0  0  0  0  0  0  0  0  0  0
   64.8028   34.0642   48.3226 H   0  0  0  0  0  0  0  0  0  0  0  0
   63.9855   34.4433   45.9933 H   0  0  0  0  0  0  0  0  0  0  0  0
   61.6495   33.8195   45.3701 H   0  0  0  0  0  0  0  0  0  0  0  0
   59.4185   31.2041   44.7940 H   0  0  0  0  0  0  0  0  0  0  0  0
   58.7823   28.8009   44.7551 H   0  0  0  0  0  0  0  0  0  0  0  0
   58.6530   24.8570   45.7270 H   0  0  0  0  0  0  0  0  0  0  0  0
   58.0511   22.8144   44.6525 H   0  0  0  0  0  0  0  0  0  0  0  0
   55.6517   22.3558   44.1340 H   0  0  0  0  0  0  0  0  0  0  0  0
   53.9124   24.0372   44.7615 H   0  0  0  0  0  0  0  0  0  0  0  0
   58.7230   28.7429   49.0841 H   0  0  0  0  0  0  0  0  0  0  0  0
   59.3619   31.1472   49.1232 H   0  0  0  0  0  0  0  0  0  0  0  0
  1  2  1  0
  2  3  2  0
  2  4  2  0
  2  5  1  0
  5  6  1  0
  6  7  2  0
  7  8  1  0
  8  9  2  0
  9 10  1  0
 10 11  2  0
  5 12  1  0
 12 13  2  0
 13 14  1  0
 14 15  2  0
 15 16  1  0
 16 17  2  0
 16 18  1  0
 18 19  2  3
 19 20  1  0
 20 21  1  0
 21 22  2  0
 22 23  1  0
 23 24  2  0
 24 25  1  0
 15 26  1  0
 26 27  2  0
 11  6  1  0
 27 12  1  0
 24 19  1  0
  1 28  1  0
  1 29  1  0
  1 30  1  0
  7 31  1  0
  8 32  1  0
  9 33  1  0
 10 34  1  0
 11 35  1  0
 13 36  1  0
 14 37  1  0
 20 38  1  0
 21 39  1  0
 22 40  1  0
 23 41  1  0
 26 42  1  0
 27 43  1  0
M  CHG  1  25  -1
M  END
>  <UniqueID>  (76) 
69

>  <SMILES>  (76) 
CS(=O)(=O)N(c1ccccc1)c1ccc(C(=O)N=c2[nH]cccc2[O-])cc1

>  <Energy>  (76) 
63.9326309554023

>  <Genealogy>  (76) 
CS(=O)(=O)N(c1ccccc1)c1ccc(C(=O)N=c2[nH]cccc2[O-])cc1 (protonated)
CS(=O)(=O)N(c1ccccc1)c1ccc(C(=O)N=c2[nH]cccc2[O-])cc1 (3D coordinates assigned)
CS(=O)(=O)N(c1ccccc1)c1ccc(C(=O)N=c2[nH]cccc2[O-])cc1 (optimized conformer: 63.9326309554023 kcal/mol)

>  <smiles>  (76) 
CS(=O)(=O)N(c1ccccc1)c1ccc(C(=O)N=c2[nH]cccc2O)cc1

>  <score_type>  (76) 
oracle

>  <origin>  (76) 
adg

>  <m_score__min__energy>  (76) 
-11.94

>  <m_primary>  (76) 
energy

$$$$
76:0
     RDKit          3D

 71 74  0  0  0  0  0  0  0  0999 V2000
   52.1920   24.4440   45.0940 C   0  0  0  0  0  0  0  0  0  0  0  0
   53.5080   23.2620   45.2740 S   0  0  0  0  0  0  0  0  0  0  0  0
   52.9170   21.9380   45.6730 O   0  0  0  0  0  0  0  0  0  0  0  0
   54.2290   23.1330   43.9600 O   0  0  0  0  0  0  0  0  0  0  0  0
   54.5840   23.8280   46.5090 N   0  0  0  0  0  0  0  0  0  0  0  0
   55.8280   24.5390   46.3470 C   0  0  0  0  0  0  0  0  0  0  0  0
   57.0080   23.7880   46.4050 C   0  0  0  0  0  0  0  0  0  0  0  0
   58.2530   24.4020   46.2680 C   0  0  0  0  0  0  0  0  0  0  0  0
   58.3400   25.7860   46.1090 C   0  0  0  0  0  0  0  0  0  0  0  0
   57.1800   26.5660   46.1010 C   0  0  0  0  0  0  0  0  0  0  0  0
   57.3130   27.9910   46.0200 N   0  0  0  0  0  0  0  0  0  0  0  0
   57.9700   28.6950   44.9590 C   0  0  0  0  0  0  0  0  0  0  0  0
   59.2170   28.5950   44.8020 O   0  0  0  0  0  0  0  0  0  0  0  0
   57.1650   29.4890   43.9800 C   0  0  0  0  0  0  0  0  0  0  0  0
   57.4850   30.9530   44.1140 C   0  0  0  0  0  0  0  0  0  0  0  0
   57.9240   31.6920   43.0040 C   0  0  0  0  0  0  0  0  0  0  0  0
   58.2560   33.0430   43.1450 C   0  0  0  0  0  0  0  0  0  0  0  0
   58.1810   33.6580   44.3970 C   0  0  0  0  0  0  0  0  0  0  0  0
   57.7770   32.9190   45.5240 C   0  0  0  0  0  0  0  0  0  0  0  0
   57.6870   33.5070   46.8300 N   0  0  0  0  0  0  0  0  0  0  0  0
   58.3940   33.0800   48.0000 C   0  0  0  0  0  0  0  0  0  0  0  0
   57.8190   32.3770   48.8760 O   0  0  0  0  0  0  0  0  0  0  0  0
   59.7790   33.6210   48.2470 C   0  0  2  0  0  0  0  0  0  0  0  0
   60.1880   34.7080   47.2140 C   0  0  0  0  0  0  0  0  0  0  0  0
   61.0710   34.1360   46.0980 C   0  0  0  0  0  0  0  0  0  0  0  0
   62.3770   33.5770   46.6870 C   0  0  0  0  0  0  0  0  0  0  0  0
   62.1380   32.8890   47.9640 N   0  0  0  0  0  0  0  0  0  0  0  0
   63.2240   32.6360   48.8670 C   0  0  0  0  0  0  0  0  0  0  0  0
   64.3630   33.1210   48.6260 O   0  0  0  0  0  0  0  0  0  0  0  0
   63.0010   31.8780   50.1480 C   0  0  0  0  0  0  0  0  0  0  0  0
   62.5170   32.8000   51.2740 C   0  0  0  0  0  0  0  0  0  0  0  0
   61.0370   32.6480   51.5300 C   0  0  0  0  0  0  0  0  0  0  0  0
   60.2340   33.7810   51.7450 C   0  0  0  0  0  0  0  0  0  0  0  0
   58.8530   33.6450   51.9160 C   0  0  0  0  0  0  0  0  0  0  0  0
   58.2630   32.3790   51.8770 C   0  0  0  0  0  0  0  0  0  0  0  0
   59.0550   31.2460   51.6620 C   0  0  0  0  0  0  0  0  0  0  0  0
   60.4360   31.3790   51.4810 C   0  0  0  0  0  0  0  0  0  0  0  0
   60.7820   32.4470   48.3110 C   0  0  0  0  0  0  0  0  0  0  0  0
   57.4100   31.5770   45.3690 C   0  0  0  0  0  0  0  0  0  0  0  0
   55.9150   25.9400   46.1640 C   0  0  0  0  0  0  0  0  0  0  0  0
   54.7710   26.7150   46.0180 O   0  0  0  0  0  0  0  0  0  0  0  0
   51.8425   24.7579   46.0886 H   0  0  0  0  0  0  0  0  0  0  0  0
   52.5598   25.3209   44.5410 H   0  0  0  0  0  0  0  0  0  0  0  0
   51.3595   23.9845   44.5410 H   0  0  0  0  0  0  0  0  0  0  0  0
   56.9527   22.7004   46.5605 H   0  0  0  0  0  0  0  0  0  0  0  0
   59.1692   23.7935   46.2853 H   0  0  0  0  0  0  0  0  0  0  0  0
   59.3235   26.2639   45.9897 H   0  0  0  0  0  0  0  0  0  0  0  0
   57.4031   29.1566   42.9588 H   0  0  0  0  0  0  0  0  0  0  0  0
   56.0953   29.3342   44.1842 H   0  0  0  0  0  0  0  0  0  0  0  0
   58.0071   31.2068   42.0203 H   0  0  0  0  0  0  0  0  0  0  0  0
   58.5772   33.6232   42.2674 H   0  0  0  0  0  0  0  0  0  0  0  0
   58.4383   34.7223   44.5020 H   0  0  0  0  0  0  0  0  0  0  0  0
   59.7873   34.1381   49.2178 H   0  0  0  0  0  0  0  0  0  0  0  0
   59.2776   35.1316   46.7648 H   0  0  0  0  0  0  0  0  0  0  0  0
   60.7663   35.4796   47.7433 H   0  0  0  0  0  0  0  0  0  0  0  0
   60.5293   33.3282   45.5842 H   0  0  0  0  0  0  0  0  0  0  0  0
   61.3134   34.9384   45.3857 H   0  0  0  0  0  0  0  0  0  0  0  0
   62.8154   32.8643   45.9730 H   0  0  0  0  0  0  0  0  0  0  0  0
   63.0623   34.4178   46.8696 H   0  0  0  0  0  0  0  0  0  0  0  0
   62.2439   31.0991   49.9745 H   0  0  0  0  0  0  0  0  0  0  0  0
   63.9592   31.4338   50.4556 H   0  0  0  0  0  0  0  0  0  0  0  0
   63.0644   32.5531   52.1956 H   0  0  0  0  0  0  0  0  0  0  0  0
   62.7046   33.8396   50.9673 H   0  0  0  0  0  0  0  0  0  0  0  0
   60.6941   34.7796   51.7789 H   0  0  0  0  0  0  0  0  0  0  0  0
   58.2299   34.5362   52.0815 H   0  0  0  0  0  0  0  0  0  0  0  0
   57.1768   32.2733   52.0152 H   0  0  0  0  0  0  0  0  0  0  0  0
   58.5912   30.2489   51.6352 H   0  0  0  0  0  0  0  0  0  0  0  0
   61.0534   30.4868   51.2997 H   0  0  0  0  0  0  0  0  0  0  0  0
   60.4667   31.6664   47.6030 H   0  0  0  0  0  0  0  0  0  0  0  0
   60.7952   32.0553   49.3388 H   0  0  0  0  0  0  0  0  0  0  0  0
   57.0589   31.0051   46.2406 H   0  0  0  0  0  0  0  0  0  0  0  0
  1  2  1  0
  2  3  2  0
  2  4  2  0
  2  5  1  0
  5  6  1  0
  6  7  2  0
  7  8  1  0
  8  9  2  0
  9 10  1  0
 10 11  1  0
 11 12  1  0
 12 13  2  0
 12 14  1  0
 14 15  1  0
 15 16  2  0
 16 17  1  0
 17 18  2  0
 18 19  1  0
 19 20  1  0
 20 21  1  0
 21 22  2  0
 21 23  1  0
 23 24  1  0
 24 25  1  0
 25 26  1  0
 26 27  1  0
 27 28  1  0
 28 29  2  0
 28 30  1  0
 30 31  1  0
 31 32  1  0
 32 33  2  0
 33 34  1  0
 34 35  2  0
 35 36  1  0
 36 37  2  0
 27 38  1  0
 19 39  2  0
 10 40  2  0
 40 41  1  0
 40  6  1  0
 39 15  1  0
 38 23  1  0
 37 32  1  0
  1 42  1  0
  1 43  1  0
  1 44  1  0
  7 45  1  0
  8 46  1  0
  9 47  1  0
 14 48  1  0
 14 49  1  0
 16 50  1  0
 17 51  1  0
 18 52  1  0
 23 53  1  1
 24 54  1  0
 24 55  1  0
 25 56  1  0
 25 57  1  0
 26 58  1  0
 26 59  1  0
 30 60  1  0
 30 61  1  0
 31 62  1  0
 31 63  1  0
 33 64  1  0
 34 65  1  0
 35 66  1  0
 36 67  1  0
 37 68  1  0
 38 69  1  0
 38 70  1  0
 39 71  1  0
M  CHG  4   5  -1  11  -1  20  -1  41  -1
M  END
>  <UniqueID>  (77) 
70

>  <SMILES>  (77) 
CS(=O)(=O)[N-]c1cccc([N-]C(=O)Cc2cccc([N-]C(=O)[C@@H]3CCCN(C(=O)CCc4ccccc4)C3)c2)c1[O-]

>  <Energy>  (77) 
85.17394194927034

>  <Genealogy>  (77) 
CS(=O)(=O)[N-]c1cccc([N-]C(=O)Cc2cccc([N-]C(=O)C3CCCN(C(=O)CCc4ccccc4)C3)c2)c1[O-] (protonated)
CS(=O)(=O)[N-]c1cccc([N-]C(=O)Cc2cccc([N-]C(=O)[C@@H]3CCCN(C(=O)CCc4ccccc4)C3)c2)c1[O-] (chirality)
CS(=O)(=O)[N-]c1cccc([N-]C(=O)Cc2cccc([N-]C(=O)[C@@H]3CCCN(C(=O)CCc4ccccc4)C3)c2)c1[O-] (3D coordinates assigned)
CS(=O)(=O)[N-]c1cccc([N-]C(=O)Cc2cccc([N-]C(=O)[C@@H]3CCCN(C(=O)CCc4ccccc4)C3)c2)c1[O-] (nonaromatic ring conformer: 85.17394194927034 kcal/mol)

>  <smiles>  (77) 
CS(=O)(=O)Nc1cccc(NC(=O)Cc2cccc(NC(=O)C3CCCN(C(=O)CCc4ccccc4)C3)c2)c1O

>  <score_type>  (77) 
oracle

>  <origin>  (77) 
adg

>  <m_score__min__energy>  (77) 
-18.289999999999999

>  <m_primary>  (77) 
energy

$$$$
77:0
     RDKit          3D

 53 56  0  0  0  0  0  0  0  0999 V2000
   55.1440   29.6990   44.8800 O   0  0  0  0  0  0  0  0  0  0  0  0
   56.2310   29.0660   44.7960 C   0  0  0  0  0  0  0  0  0  0  0  0
   57.2250   29.4650   43.7810 C   0  0  0  0  0  0  0  0  0  0  0  0
   58.3170   30.1930   44.0560 C   0  0  0  0  0  0  0  0  0  0  0  0
   58.2540   31.5330   44.6620 C   0  0  0  0  0  0  0  0  0  0  0  0
   57.7630   32.6120   43.9150 C   0  0  0  0  0  0  0  0  0  0  0  0
   57.6410   33.8730   44.5030 C   0  0  0  0  0  0  0  0  0  0  0  0
   57.9930   34.0590   45.8420 C   0  0  0  0  0  0  0  0  0  0  0  0
   58.4810   32.9840   46.6090 C   0  0  0  0  0  0  0  0  0  0  0  0
   58.7970   33.1680   48.0450 C   0  0  0  0  0  0  0  0  0  0  0  0
   58.0300   32.6820   48.9200 O   0  0  0  0  0  0  0  0  0  0  0  0
   59.9830   33.8890   48.4240 N   0  0  0  0  0  0  0  0  0  0  0  0
   61.2230   33.5410   48.2320 C   0  0  0  0  0  0  0  0  0  0  0  0
   61.9700   32.9960   49.2150 N   0  0  0  0  0  0  0  0  0  0  0  0
   63.2350   32.7230   48.7970 C   0  0  0  0  0  0  0  0  0  0  0  0
   63.5060   33.0530   47.4740 C   0  0  0  0  0  0  0  0  0  0  0  0
   62.1090   33.7100   46.8060 S   0  0  0  0  0  0  0  0  0  0  0  0
   58.6280   31.7240   45.9990 C   0  0  0  0  0  0  0  0  0  0  0  0
   56.4610   27.9140   45.6130 N   0  0  0  0  0  0  0  0  0  0  0  0
   57.6510   27.6230   46.3560 C   0  0  0  0  0  0  0  0  0  0  0  0
   58.3830   26.4760   46.0290 C   0  0  0  0  0  0  0  0  0  0  0  0
   59.5860   26.1960   46.6810 C   0  0  0  0  0  0  0  0  0  0  0  0
   60.0770   27.0720   47.6500 C   0  0  0  0  0  0  0  0  0  0  0  0
   59.3680   28.2370   47.9690 C   0  0  0  0  0  0  0  0  0  0  0  0
   60.0410   29.3760   49.1310 S   0  0  0  0  0  0  0  0  0  0  0  0
   61.2660   28.8080   49.7930 O   0  0  0  0  0  0  0  0  0  0  0  0
   60.4170   30.6400   48.4120 O   0  0  0  0  0  0  0  0  0  0  0  0
   58.8550   29.7400   50.3440 N   0  0  0  0  0  0  0  0  0  0  0  0
   58.8880   30.7900   51.1080 C   0  0  0  0  0  0  0  0  0  0  0  0
   58.2720   30.8250   52.4480 C   0  0  0  0  0  0  0  0  0  0  0  0
   58.5630   32.2500   52.9430 C   0  0  0  0  0  0  0  0  0  0  0  0
   59.3710   32.9650   51.8430 C   0  0  0  0  0  0  0  0  0  0  0  0
   59.5190   32.0090   50.7630 N   0  0  0  0  0  0  0  0  0  0  0  0
   58.1520   28.5100   47.3240 C   0  0  0  0  0  0  0  0  0  0  0  0
   57.0610   29.1475   42.7407 H   0  0  0  0  0  0  0  0  0  0  0  0
   59.3041   29.7699   43.8181 H   0  0  0  0  0  0  0  0  0  0  0  0
   57.4732   32.4657   42.8640 H   0  0  0  0  0  0  0  0  0  0  0  0
   57.2671   34.7211   43.9107 H   0  0  0  0  0  0  0  0  0  0  0  0
   57.8881   35.0533   46.3007 H   0  0  0  0  0  0  0  0  0  0  0  0
   63.9900   32.2731   49.4586 H   0  0  0  0  0  0  0  0  0  0  0  0
   64.4653   32.9097   46.9552 H   0  0  0  0  0  0  0  0  0  0  0  0
   59.0396   30.8829   46.5761 H   0  0  0  0  0  0  0  0  0  0  0  0
   58.0088   25.7910   45.2540 H   0  0  0  0  0  0  0  0  0  0  0  0
   60.1472   25.2837   46.4304 H   0  0  0  0  0  0  0  0  0  0  0  0
   61.0229   26.8470   48.1644 H   0  0  0  0  0  0  0  0  0  0  0  0
   57.1887   30.6441   52.3870 H   0  0  0  0  0  0  0  0  0  0  0  0
   58.6681   30.0499   53.1206 H   0  0  0  0  0  0  0  0  0  0  0  0
   57.6191   32.7851   53.1239 H   0  0  0  0  0  0  0  0  0  0  0  0
   59.1289   32.2252   53.8860 H   0  0  0  0  0  0  0  0  0  0  0  0
   58.8308   33.8565   51.4916 H   0  0  0  0  0  0  0  0  0  0  0  0
   60.3492   33.3002   52.2182 H   0  0  0  0  0  0  0  0  0  0  0  0
   60.0090   32.2220   49.8680 H   0  0  0  0  0  0  0  0  0  0  0  0
   57.5894   29.4208   47.5768 H   0  0  0  0  0  0  0  0  0  0  0  0
  1  2  2  0
  2  3  1  0
  3  4  2  3
  4  5  1  0
  5  6  2  0
  6  7  1  0
  7  8  2  0
  8  9  1  0
  9 10  1  0
 10 11  2  0
 10 12  1  0
 12 13  2  3
 13 14  1  0
 14 15  1  0
 15 16  2  0
 16 17  1  0
  9 18  2  0
  2 19  1  0
 19 20  1  0
 20 21  2  0
 21 22  1  0
 22 23  2  0
 23 24  1  0
 24 25  1  0
 25 26  2  0
 25 27  2  0
 25 28  1  0
 28 29  2  3
 29 30  1  0
 30 31  1  0
 31 32  1  0
 32 33  1  0
 24 34  2  0
 18  5  1  0
 34 20  1  0
 17 13  1  0
 33 29  1  0
  3 35  1  0
  4 36  1  0
  6 37  1  0
  7 38  1  0
  8 39  1  0
 15 40  1  0
 16 41  1  0
 18 42  1  0
 21 43  1  0
 22 44  1  0
 23 45  1  0
 30 46  1  0
 30 47  1  0
 31 48  1  0
 31 49  1  0
 32 50  1  0
 32 51  1  0
 33 52  1  0
 34 53  1  0
M  CHG  2  14  -1  19  -1
M  END
>  <UniqueID>  (78) 
71

>  <SMILES>  (78) 
O=C(C=Cc1cccc(C(=O)N=c2[n-]ccs2)c1)[N-]c1cccc(S(=O)(=O)N=C2CCCN2)c1

>  <Energy>  (78) 
109.14864504037313

>  <Genealogy>  (78) 
O=C(C=Cc1cccc(C(=O)N=c2[n-]ccs2)c1)[N-]c1cccc(S(=O)(=O)N=C2CCCN2)c1 (protonated)
O=C(C=Cc1cccc(C(=O)N=c2[n-]ccs2)c1)[N-]c1cccc(S(=O)(=O)N=C2CCCN2)c1 (3D coordinates assigned)
O=C(C=Cc1cccc(C(=O)N=c2[n-]ccs2)c1)[N-]c1cccc(S(=O)(=O)N=C2CCCN2)c1 (nonaromatic ring conformer: 109.14864504037313 kcal/mol)

>  <smiles>  (78) 
O=C(C=Cc1cccc(C(=O)N=c2[nH]ccs2)c1)Nc1cccc(S(=O)(=O)N=C2CCCN2)c1

>  <score_type>  (78) 
oracle

>  <origin>  (78) 
adg

>  <m_score__min__energy>  (78) 
-12.1

>  <m_primary>  (78) 
energy

$$$$
78:0
     RDKit          3D

 53 55  0  0  0  0  0  0  0  0999 V2000
   63.5900   32.7860   47.8430 C   0  0  0  0  0  0  0  0  0  0  0  0
   62.2550   32.4410   48.1990 O   0  0  0  0  0  0  0  0  0  0  0  0
   61.1560   32.5280   47.3300 C   0  0  0  0  0  0  0  0  0  0  0  0
   60.3720   31.4090   46.9900 C   0  0  0  0  0  0  0  0  0  0  0  0
   59.2860   31.5480   46.1200 C   0  0  0  0  0  0  0  0  0  0  0  0
   58.9670   32.8020   45.5830 C   0  0  0  0  0  0  0  0  0  0  0  0
   57.6130   32.9620   44.4680 S   0  0  0  0  0  0  0  0  0  0  0  0
   58.0800   32.7530   43.0540 O   0  0  0  0  0  0  0  0  0  0  0  0
   57.0460   34.3500   44.5810 O   0  0  0  0  0  0  0  0  0  0  0  0
   56.3740   31.8080   44.8560 N   0  0  0  0  0  0  0  0  0  0  0  0
   56.3410   30.7570   43.8440 C   0  0  0  0  0  0  0  0  0  0  0  0
   56.6450   29.4440   44.4920 C   0  0  0  0  0  0  0  0  0  0  0  0
   55.7680   28.8930   45.2100 O   0  0  0  0  0  0  0  0  0  0  0  0
   57.8900   28.7820   44.2180 N   0  0  0  0  0  0  0  0  0  0  0  0
   58.3530   27.6190   44.9250 C   0  0  0  0  0  0  0  0  0  0  0  0
   59.6980   27.5430   45.3170 C   0  0  0  0  0  0  0  0  0  0  0  0
   60.1680   26.4280   46.0150 C   0  0  0  0  0  0  0  0  0  0  0  0
   59.2970   25.3850   46.3400 C   0  0  0  0  0  0  0  0  0  0  0  0
   57.9460   25.4580   45.9770 C   0  0  0  0  0  0  0  0  0  0  0  0
   56.8420   24.1460   46.4000 S   0  0  0  0  0  0  0  0  0  0  0  0
   57.4190   23.3670   47.5490 O   0  0  0  0  0  0  0  0  0  0  0  0
   55.5290   24.7270   46.8460 O   0  0  0  0  0  0  0  0  0  0  0  0
   56.5710   23.0670   45.0520 N   0  0  0  0  0  0  0  0  0  0  0  0
   57.8280   22.4200   44.6500 C   0  0  0  0  0  0  0  0  0  0  0  0
   57.5680   21.4550   43.4740 C   0  0  0  0  0  0  0  0  0  0  0  0
   56.2470   21.5620   42.9720 O   0  0  0  0  0  0  0  0  0  0  0  0
   55.9650   22.9110   42.6530 C   0  0  0  0  0  0  0  0  0  0  0  0
   55.9890   23.7980   43.9150 C   0  0  0  0  0  0  0  0  0  0  0  0
   57.4750   26.5790   45.2800 C   0  0  0  0  0  0  0  0  0  0  0  0
   59.7510   33.9160   45.9160 C   0  0  0  0  0  0  0  0  0  0  0  0
   60.8360   33.7770   46.7850 C   0  0  0  0  0  0  0  0  0  0  0  0
   64.1847   32.9397   48.7555 H   0  0  0  0  0  0  0  0  0  0  0  0
   64.0329   31.9728   47.2493 H   0  0  0  0  0  0  0  0  0  0  0  0
   63.5835   33.7120   47.2493 H   0  0  0  0  0  0  0  0  0  0  0  0
   60.6146   30.4218   47.4102 H   0  0  0  0  0  0  0  0  0  0  0  0
   58.6796   30.6690   45.8562 H   0  0  0  0  0  0  0  0  0  0  0  0
   55.3420   30.7188   43.3851 H   0  0  0  0  0  0  0  0  0  0  0  0
   57.0892   30.9682   43.0658 H   0  0  0  0  0  0  0  0  0  0  0  0
   58.4480   29.1160   43.4000 H   0  0  0  0  0  0  0  0  0  0  0  0
   60.3861   28.3659   45.0734 H   0  0  0  0  0  0  0  0  0  0  0  0
   61.2263   26.3710   46.3095 H   0  0  0  0  0  0  0  0  0  0  0  0
   59.6729   24.5047   46.8820 H   0  0  0  0  0  0  0  0  0  0  0  0
   58.5507   23.1886   44.3385 H   0  0  0  0  0  0  0  0  0  0  0  0
   58.2326   21.8533   45.5015 H   0  0  0  0  0  0  0  0  0  0  0  0
   58.2743   21.6871   42.6633 H   0  0  0  0  0  0  0  0  0  0  0  0
   57.7048   20.4284   43.8447 H   0  0  0  0  0  0  0  0  0  0  0  0
   56.7204   23.2773   41.9422 H   0  0  0  0  0  0  0  0  0  0  0  0
   54.9595   22.9619   42.2098 H   0  0  0  0  0  0  0  0  0  0  0  0
   56.5933   24.6951   43.7147 H   0  0  0  0  0  0  0  0  0  0  0  0
   54.9569   24.0825   44.1677 H   0  0  0  0  0  0  0  0  0  0  0  0
   56.4111   26.6460   45.0086 H   0  0  0  0  0  0  0  0  0  0  0  0
   59.5110   34.9021   45.4918 H   0  0  0  0  0  0  0  0  0  0  0  0
   61.4440   34.6566   47.0432 H   0  0  0  0  0  0  0  0  0  0  0  0
  1  2  1  0
  2  3  1  0
  3  4  2  0
  4  5  1  0
  5  6  2  0
  6  7  1  0
  7  8  2  0
  7  9  2  0
  7 10  1  0
 10 11  1  0
 11 12  1  0
 12 13  2  0
 12 14  1  0
 14 15  1  0
 15 16  2  0
 16 17  1  0
 17 18  2  0
 18 19  1  0
 19 20  1  0
 20 21  2  0
 20 22  2  0
 20 23  1  0
 23 24  1  0
 24 25  1  0
 25 26  1  0
 26 27  1  0
 27 28  1  0
 19 29  2  0
  6 30  1  0
 30 31  2  0
 31  3  1  0
 29 15  1  0
 28 23  1  0
  1 32  1  0
  1 33  1  0
  1 34  1  0
  4 35  1  0
  5 36  1  0
 11 37  1  0
 11 38  1  0
 14 39  1  0
 16 40  1  0
 17 41  1  0
 18 42  1  0
 24 43  1  0
 24 44  1  0
 25 45  1  0
 25 46  1  0
 27 47  1  0
 27 48  1  0
 28 49  1  0
 28 50  1  0
 29 51  1  0
 30 52  1  0
 31 53  1  0
M  CHG  1  10  -1
M  END
>  <UniqueID>  (79) 
72

>  <SMILES>  (79) 
COc1ccc(S(=O)(=O)[N-]CC(=O)Nc2cccc(S(=O)(=O)N3CCOCC3)c2)cc1

>  <Energy>  (79) 
60.30533013556924

>  <Genealogy>  (79) 
COc1ccc(S(=O)(=O)[N-]CC(=O)Nc2cccc(S(=O)(=O)N3CCOCC3)c2)cc1 (protonated)
COc1ccc(S(=O)(=O)[N-]CC(=O)Nc2cccc(S(=O)(=O)N3CCOCC3)c2)cc1 (3D coordinates assigned)
COc1ccc(S(=O)(=O)[N-]CC(=O)Nc2cccc(S(=O)(=O)N3CCOCC3)c2)cc1 (nonaromatic ring conformer: 60.30533013556924 kcal/mol)

>  <smiles>  (79) 
COc1ccc(S(=O)(=O)NCC(=O)Nc2cccc(S(=O)(=O)N3CCOCC3)c2)cc1

>  <score_type>  (79) 
oracle

>  <origin>  (79) 
adg

>  <m_score__min__energy>  (79) 
-11.93

>  <m_primary>  (79) 
energy

$$$$
79:0
     RDKit          3D

 77 81  0  0  0  0  0  0  0  0999 V2000
   56.6990   20.1340   46.9000 C   0  0  0  0  0  0  0  0  0  0  0  0
   57.3970   21.1810   47.6320 N   0  0  0  0  0  0  0  0  0  0  0  0
   56.9820   22.5510   47.6130 C   0  0  0  0  0  0  0  0  0  0  0  0
   56.4060   23.0390   48.6220 O   0  0  0  0  0  0  0  0  0  0  0  0
   57.2300   23.3550   46.4450 N   0  0  0  0  0  0  0  0  0  0  0  0
   57.0870   22.9280   45.1630 C   0  0  0  0  0  0  0  0  0  0  0  0
   57.4080   23.9370   44.2620 C   0  0  0  0  0  0  0  0  0  0  0  0
   57.7570   25.0160   45.0420 C   0  0  0  0  0  0  0  0  0  0  0  0
   58.1770   26.2870   44.6580 C   0  0  0  0  0  0  0  0  0  0  0  0
   58.4760   27.2130   45.6700 C   0  0  0  0  0  0  0  0  0  0  0  0
   58.9260   28.4900   45.3230 O   0  0  0  0  0  0  0  0  0  0  0  0
   58.0570   29.5480   45.0320 C   0  0  0  0  0  0  0  0  0  0  0  0
   56.7410   29.2630   44.6630 C   0  0  0  0  0  0  0  0  0  0  0  0
   55.8610   30.3090   44.3930 C   0  0  0  0  0  0  0  0  0  0  0  0
   56.2790   31.5970   44.5110 N   0  0  0  0  0  0  0  0  0  0  0  0
   57.5510   31.9220   44.8730 C   0  0  0  0  0  0  0  0  0  0  0  0
   57.8440   33.1840   45.0260 N   0  0  0  0  0  0  0  0  0  0  0  0
   59.1430   33.7900   45.1320 C   0  0  0  0  0  0  0  0  0  0  0  0
   59.6340   34.4150   44.1540 O   0  0  0  0  0  0  0  0  0  0  0  0
   59.8840   33.7230   46.4140 C   0  0  0  0  0  0  0  0  0  0  0  0
   61.2790   33.5540   46.4250 C   0  0  0  0  0  0  0  0  0  0  0  0
   61.9830   33.5380   47.6320 C   0  0  0  0  0  0  0  0  0  0  0  0
   61.3080   33.6980   48.8520 C   0  0  0  0  0  0  0  0  0  0  0  0
   62.0730   33.6950   50.1540 C   0  0  0  0  0  0  0  0  0  0  0  0
   62.6630   32.3690   50.4610 N   0  0  0  0  0  0  0  0  0  0  0  0
   62.4660   32.0580   51.8920 C   0  0  0  0  0  0  0  0  0  0  0  0
   62.9550   30.6340   52.2290 C   0  0  0  0  0  0  0  0  0  0  0  0
   63.9610   30.1440   51.2580 N   0  0  0  0  0  0  0  0  0  0  0  0
   64.7170   29.0200   51.8290 C   0  0  0  0  0  0  0  0  0  0  0  0
   64.8760   31.2270   50.8640 C   0  0  0  0  0  0  0  0  0  0  0  0
   64.1040   32.3170   50.0980 C   0  0  0  0  0  0  0  0  0  0  0  0
   59.9140   33.8460   48.8490 C   0  0  0  0  0  0  0  0  0  0  0  0
   59.2080   33.8620   47.6410 C   0  0  0  0  0  0  0  0  0  0  0  0
   58.4720   30.8850   45.1340 C   0  0  0  0  0  0  0  0  0  0  0  0
   58.3660   26.8520   47.0350 C   0  0  0  0  0  0  0  0  0  0  0  0
   58.7090   27.8120   48.0020 O   0  0  0  0  0  0  0  0  0  0  0  0
   60.0360   28.1780   48.3790 C   0  0  0  0  0  0  0  0  0  0  0  0
   60.3900   29.5730   47.8570 C   0  0  0  0  0  0  0  0  0  0  0  0
   60.6260   30.4480   48.9460 O   0  0  0  0  0  0  0  0  0  0  0  0
   59.4940   30.5160   49.7870 C   0  0  0  0  0  0  0  0  0  0  0  0
   57.9410   25.5470   47.3890 C   0  0  0  0  0  0  0  0  0  0  0  0
   57.6430   24.6440   46.3600 C   0  0  0  0  0  0  0  0  0  0  0  0
   56.2339   19.4364   47.6121 H   0  0  0  0  0  0  0  0  0  0  0  0
   55.9205   20.5854   46.2674 H   0  0  0  0  0  0  0  0  0  0  0  0
   57.4151   19.5890   46.2674 H   0  0  0  0  0  0  0  0  0  0  0  0
   56.7604   21.9176   44.8760 H   0  0  0  0  0  0  0  0  0  0  0  0
   57.3875   23.8844   43.1635 H   0  0  0  0  0  0  0  0  0  0  0  0
   58.2715   26.5568   43.5958 H   0  0  0  0  0  0  0  0  0  0  0  0
   56.4012   28.2197   44.5859 H   0  0  0  0  0  0  0  0  0  0  0  0
   54.8277   30.0924   44.0843 H   0  0  0  0  0  0  0  0  0  0  0  0
   61.8213   33.4333   45.4756 H   0  0  0  0  0  0  0  0  0  0  0  0
   63.0742   33.3990   47.6259 H   0  0  0  0  0  0  0  0  0  0  0  0
   62.8837   34.4357   50.0890 H   0  0  0  0  0  0  0  0  0  0  0  0
   61.3651   33.9413   50.9591 H   0  0  0  0  0  0  0  0  0  0  0  0
   62.1470   31.6480   49.9020 H   0  0  0  0  0  0  0  0  0  0  0  0
   63.0300   32.7831   52.4971 H   0  0  0  0  0  0  0  0  0  0  0  0
   61.3905   32.1176   52.1153 H   0  0  0  0  0  0  0  0  0  0  0  0
   63.4057   30.6423   53.2324 H   0  0  0  0  0  0  0  0  0  0  0  0
   62.0871   29.9596   52.1858 H   0  0  0  0  0  0  0  0  0  0  0  0
   64.6807   29.0739   52.9271 H   0  0  0  0  0  0  0  0  0  0  0  0
   64.2727   28.0712   51.4936 H   0  0  0  0  0  0  0  0  0  0  0  0
   65.7632   29.0738   51.4936 H   0  0  0  0  0  0  0  0  0  0  0  0
   65.3292   31.6666   51.7648 H   0  0  0  0  0  0  0  0  0  0  0  0
   65.6619   30.8164   50.2130 H   0  0  0  0  0  0  0  0  0  0  0  0
   64.5582   33.2931   50.3237 H   0  0  0  0  0  0  0  0  0  0  0  0
   64.1660   32.0744   49.0269 H   0  0  0  0  0  0  0  0  0  0  0  0
   59.3726   33.9501   49.8008 H   0  0  0  0  0  0  0  0  0  0  0  0
   58.1149   33.9843   47.6502 H   0  0  0  0  0  0  0  0  0  0  0  0
   59.5084   31.1230   45.4155 H   0  0  0  0  0  0  0  0  0  0  0  0
   60.1120   28.1746   49.4764 H   0  0  0  0  0  0  0  0  0  0  0  0
   60.7372   27.4520   47.9418 H   0  0  0  0  0  0  0  0  0  0  0  0
   61.2955   29.5113   47.2354 H   0  0  0  0  0  0  0  0  0  0  0  0
   59.5532   29.9588   47.2562 H   0  0  0  0  0  0  0  0  0  0  0  0
   59.8167   30.4966   50.8384 H   0  0  0  0  0  0  0  0  0  0  0  0
   58.9455   31.4487   49.5889 H   0  0  0  0  0  0  0  0  0  0  0  0
   58.8378   29.6557   49.5889 H   0  0  0  0  0  0  0  0  0  0  0  0
   57.8476   25.2508   48.4443 H   0  0  0  0  0  0  0  0  0  0  0  0
  1  2  1  0
  2  3  1  0
  3  4  2  0
  3  5  1  0
  5  6  1  0
  6  7  2  0
  7  8  1  0
  8  9  2  0
  9 10  1  0
 10 11  1  0
 11 12  1  0
 12 13  1  0
 13 14  2  0
 14 15  1  0
 15 16  1  0
 16 17  2  3
 17 18  1  0
 18 19  2  0
 18 20  1  0
 20 21  2  0
 21 22  1  0
 22 23  2  0
 23 24  1  0
 24 25  1  0
 25 26  1  0
 26 27  1  0
 27 28  1  0
 28 29  1  0
 28 30  1  0
 30 31  1  0
 23 32  1  0
 32 33  2  0
 16 34  1  0
 10 35  2  0
 35 36  1  0
 36 37  1  0
 37 38  1  0
 38 39  1  0
 39 40  1  0
 35 41  1  0
 41 42  2  0
 42  5  1  0
 42  8  1  0
 34 12  2  0
 33 20  1  0
 31 25  1  0
  1 43  1  0
  1 44  1  0
  1 45  1  0
  6 46  1  0
  7 47  1  0
  9 48  1  0
 13 49  1  0
 14 50  1  0
 21 51  1  0
 22 52  1  0
 24 53  1  0
 24 54  1  0
 25 55  1  0
 26 56  1  0
 26 57  1  0
 27 58  1  0
 27 59  1  0
 29 60  1  0
 29 61  1  0
 29 62  1  0
 30 63  1  0
 30 64  1  0
 31 65  1  0
 31 66  1  0
 32 67  1  0
 33 68  1  0
 34 69  1  0
 37 70  1  0
 37 71  1  0
 38 72  1  0
 38 73  1  0
 40 74  1  0
 40 75  1  0
 40 76  1  0
 41 77  1  0
M  CHG  3   2  -1  15  -1  25   1
M  END
>  <UniqueID>  (80) 
73

>  <SMILES>  (80) 
C[N-]C(=O)n1ccc2cc(Oc3cc[n-]c(=NC(=O)c4ccc(C[NH+]5CCN(C)CC5)cc4)c3)c(OCCOC)cc21

>  <Energy>  (80) 
143.06964740150357

>  <Genealogy>  (80) 
C[N-]C(=O)n1ccc2cc(Oc3cc[n-]c(=NC(=O)c4ccc(C[NH+]5CCN(C)CC5)cc4)c3)c(OCCOC)cc21 (protonated)
C[N-]C(=O)n1ccc2cc(Oc3cc[n-]c(=NC(=O)c4ccc(C[NH+]5CCN(C)CC5)cc4)c3)c(OCCOC)cc21 (3D coordinates assigned)
C[N-]C(=O)n1ccc2cc(Oc3cc[n-]c(=NC(=O)c4ccc(C[NH+]5CCN(C)CC5)cc4)c3)c(OCCOC)cc21 (nonaromatic ring conformer: 143.06964740150357 kcal/mol)

>  <smiles>  (80) 
CNC(=O)n1ccc2cc(Oc3cc[nH]c(=NC(=O)c4ccc(CN5CCN(C)CC5)cc4)c3)c(OCCOC)cc21

>  <score_type>  (80) 
oracle

>  <origin>  (80) 
adg

>  <m_score__min__energy>  (80) 
-9.6999999999999993

>  <m_primary>  (80) 
energy

$$$$
80:0
     RDKit          3D

 33 34  0  0  0  0  0  0  0  0999 V2000
   55.9570   34.9740   44.4310 H   0  0  0  0  0  0  0  0  0  0  0  0
   56.9120   34.9270   44.7630 O   0  0  0  0  0  0  0  0  0  0  0  0
   57.5160   33.7360   45.1650 C   0  0  0  0  0  0  0  0  0  0  0  0
   56.8900   32.5270   44.8460 C   0  0  0  0  0  0  0  0  0  0  0  0
   55.9435   32.5369   44.2857 H   0  0  0  0  0  0  0  0  0  0  0  0
   57.4560   31.2970   45.2330 C   0  0  0  0  0  0  0  0  0  0  0  0
   56.8500   30.0690   44.9170 O   0  0  0  0  0  0  0  0  0  0  0  0
   57.0320   29.3710   43.6890 C   0  0  0  0  0  0  0  0  0  0  0  0
   57.3045   28.3260   43.8981 H   0  0  0  0  0  0  0  0  0  0  0  0
   56.0970   29.3973   43.1102 H   0  0  0  0  0  0  0  0  0  0  0  0
   57.8351   29.8506   43.1102 H   0  0  0  0  0  0  0  0  0  0  0  0
   58.6570   31.2920   45.9670 C   0  0  0  0  0  0  0  0  0  0  0  0
   59.2880   30.0050   46.3360 C   0  0  0  0  0  0  0  0  0  0  0  0
   60.0271   29.5861   45.6372 H   0  0  0  0  0  0  0  0  0  0  0  0
   59.0320   29.3070   47.4540 C   0  0  0  0  0  0  0  0  0  0  0  0
   59.1021   29.8462   48.4102 H   0  0  0  0  0  0  0  0  0  0  0  0
   58.6630   27.8720   47.5110 C   0  0  0  0  0  0  0  0  0  0  0  0
   59.3200   27.0690   48.2240 O   0  0  0  0  0  0  0  0  0  0  0  0
   57.4410   27.4190   46.9130 N   0  0  0  0  0  0  0  0  0  0  0  0
   57.1900   26.2840   46.3200 C   0  0  0  0  0  0  0  0  0  0  0  0
   58.2420   25.4550   46.0750 N   0  0  0  0  0  0  0  0  0  0  0  0
   58.0980   24.2450   45.4740 C   0  0  0  0  0  0  0  0  0  0  0  0
   58.9789   23.6099   45.2991 H   0  0  0  0  0  0  0  0  0  0  0  0
   56.8350   23.8080   45.0790 C   0  0  0  0  0  0  0  0  0  0  0  0
   56.7089   22.8216   44.6088 H   0  0  0  0  0  0  0  0  0  0  0  0
   55.7340   24.6360   45.2870 C   0  0  0  0  0  0  0  0  0  0  0  0
   54.7327   24.3040   44.9754 H   0  0  0  0  0  0  0  0  0  0  0  0
   55.8960   25.8870   45.8900 C   0  0  0  0  0  0  0  0  0  0  0  0
   54.7870   26.7150   45.9980 O   0  0  0  0  0  0  0  0  0  0  0  0
   59.2970   32.5070   46.2610 C   0  0  0  0  0  0  0  0  0  0  0  0
   60.2558   32.5004   46.8002 H   0  0  0  0  0  0  0  0  0  0  0  0
   58.7290   33.7240   45.8760 C   0  0  0  0  0  0  0  0  0  0  0  0
   59.6530   35.3400   46.3330 Br  0  0  0  0  0  0  0  0  0  0  0  0
  1  2  1  0
  2  3  1  0
  3  4  2  0
  4  5  1  0
  4  6  1  0
  6  7  1  0
  7  8  1  0
  8  9  1  0
  8 10  1  0
  8 11  1  0
  6 12  2  0
 12 13  1  0
 13 14  1  0
 13 15  2  0
 15 16  1  0
 15 17  1  0
 17 18  2  0
 17 19  1  0
 19 20  2  3
 20 21  1  0
 21 22  1  0
 22 23  1  0
 22 24  2  0
 24 25  1  0
 24 26  1  0
 26 27  1  0
 26 28  2  0
 28 29  1  0
 12 30  1  0
 30 31  1  0
 30 32  2  0
 32 33  1  0
 32  3  1  0
 28 20  1  0
M  CHG  2  21  -1  29  -1
M  END
>  <UniqueID>  (81) 
74

>  <SMILES>  (81) 
COc1cc(O)c(Br)cc1/C=C\C(=O)N=c1[n-]cccc1[O-]

>  <Energy>  (81) 
55.25100961785152

>  <Genealogy>  (81) 
COc1cc(O)c(Br)cc1C=CC(=O)N=c1[n-]cccc1[O-] (protonated)
COc1cc(O)c(Br)cc1/C=C\C(=O)N=c1[n-]cccc1[O-] (cis-trans isomerization)
COc1cc(O)c(Br)cc1/C=C\C(=O)N=c1[n-]cccc1[O-] (3D coordinates assigned)
COc1cc(O)c(Br)cc1/C=C\C(=O)N=c1[n-]cccc1[O-] (optimized conformer: 55.25100961785152 kcal/mol)

>  <smiles>  (81) 
COc1cc(O)c(Br)cc1C=CC(=O)N=c1[nH]cccc1O

>  <score_type>  (81) 
oracle

>  <origin>  (81) 
adg

>  <m_score__min__energy>  (81) 
-12.74

>  <m_primary>  (81) 
energy

$$$$
81:0
     RDKit          3D

 55 57  0  0  0  0  0  0  0  0999 V2000
   63.9450   31.7070   46.8540 N   0  0  0  0  0  0  0  0  0  0  0  0
   63.4920   33.0410   47.8630 S   0  0  0  0  0  0  0  0  0  0  0  0
   63.7530   34.3280   47.1410 O   0  0  0  0  0  0  0  0  0  0  0  0
   64.3200   33.0250   49.1200 O   0  0  0  0  0  0  0  0  0  0  0  0
   61.7890   32.9210   48.2840 C   0  0  0  0  0  0  0  0  0  0  0  0
   61.3850   32.1300   49.3720 C   0  0  0  0  0  0  0  0  0  0  0  0
   60.0360   32.0370   49.7120 C   0  0  0  0  0  0  0  0  0  0  0  0
   59.0740   32.7140   48.9570 C   0  0  0  0  0  0  0  0  0  0  0  0
   59.4590   33.4720   47.8390 C   0  0  0  0  0  0  0  0  0  0  0  0
   58.4800   34.1240   47.0170 N   0  0  0  0  0  0  0  0  0  0  0  0
   58.7490   34.7030   45.7350 C   0  0  0  0  0  0  0  0  0  0  0  0
   59.6320   35.5960   45.6400 O   0  0  0  0  0  0  0  0  0  0  0  0
   58.0320   34.2400   44.5020 C   0  0  0  0  0  0  0  0  0  0  0  0
   58.4960   32.9320   44.1630 O   0  0  0  0  0  0  0  0  0  0  0  0
   57.8550   31.7320   44.5010 C   0  0  0  0  0  0  0  0  0  0  0  0
   56.9610   31.1860   43.5790 C   0  0  0  0  0  0  0  0  0  0  0  0
   56.3170   29.9760   43.8510 C   0  0  0  0  0  0  0  0  0  0  0  0
   56.5780   29.2790   45.0370 C   0  0  0  0  0  0  0  0  0  0  0  0
   55.9200   28.0230   45.2540 N   0  0  0  0  0  0  0  0  0  0  0  0
   56.6150   26.6330   46.0250 S   0  0  0  0  0  0  0  0  0  0  0  0
   57.2410   27.0740   47.3140 O   0  0  0  0  0  0  0  0  0  0  0  0
   55.5360   25.6310   46.3330 O   0  0  0  0  0  0  0  0  0  0  0  0
   57.8570   25.8840   44.9780 C   0  0  0  0  0  0  0  0  0  0  0  0
   58.8010   24.9910   45.7920 C   0  0  0  0  0  0  0  0  0  0  0  0
   60.0620   25.6280   45.9870 O   0  0  0  0  0  0  0  0  0  0  0  0
   60.2470   26.9530   46.4220 C   0  0  0  0  0  0  0  0  0  0  0  0
   60.1380   27.3380   47.7740 C   0  0  0  0  0  0  0  0  0  0  0  0
   60.3110   28.6770   48.1420 C   0  0  0  0  0  0  0  0  0  0  0  0
   60.6040   29.6360   47.1740 C   0  0  0  0  0  0  0  0  0  0  0  0
   60.7180   29.2590   45.8320 C   0  0  0  0  0  0  0  0  0  0  0  0
   60.5370   27.9250   45.4590 C   0  0  0  0  0  0  0  0  0  0  0  0
   57.4710   29.8250   45.9740 C   0  0  0  0  0  0  0  0  0  0  0  0
   58.0930   31.0530   45.7120 C   0  0  0  0  0  0  0  0  0  0  0  0
   60.8230   33.5940   47.5220 C   0  0  0  0  0  0  0  0  0  0  0  0
   64.5220   31.0630   47.4450 H   0  0  0  0  0  0  0  0  0  0  0  0
   64.5810   32.0850   46.1160 H   0  0  0  0  0  0  0  0  0  0  0  0
   62.1364   31.5812   49.9587 H   0  0  0  0  0  0  0  0  0  0  0  0
   59.7282   31.4297   50.5760 H   0  0  0  0  0  0  0  0  0  0  0  0
   58.0126   32.6530   49.2392 H   0  0  0  0  0  0  0  0  0  0  0  0
   56.9492   34.2100   44.6934 H   0  0  0  0  0  0  0  0  0  0  0  0
   58.2305   34.9337   43.6717 H   0  0  0  0  0  0  0  0  0  0  0  0
   56.7622   31.7109   42.6330 H   0  0  0  0  0  0  0  0  0  0  0  0
   55.5978   29.5670   43.1261 H   0  0  0  0  0  0  0  0  0  0  0  0
   57.3589   25.2740   44.2100 H   0  0  0  0  0  0  0  0  0  0  0  0
   58.4497   26.6849   44.5119 H   0  0  0  0  0  0  0  0  0  0  0  0
   58.3461   24.7851   46.7721 H   0  0  0  0  0  0  0  0  0  0  0  0
   58.9624   24.0539   45.2389 H   0  0  0  0  0  0  0  0  0  0  0  0
   59.9161   26.5829   48.5425 H   0  0  0  0  0  0  0  0  0  0  0  0
   60.2156   28.9732   49.1971 H   0  0  0  0  0  0  0  0  0  0  0  0
   60.7453   30.6874   47.4649 H   0  0  0  0  0  0  0  0  0  0  0  0
   60.9509   30.0152   45.0679 H   0  0  0  0  0  0  0  0  0  0  0  0
   60.6231   27.6371   44.4008 H   0  0  0  0  0  0  0  0  0  0  0  0
   57.6816   29.2896   46.9115 H   0  0  0  0  0  0  0  0  0  0  0  0
   58.7727   31.4903   46.4581 H   0  0  0  0  0  0  0  0  0  0  0  0
   61.1340   34.2200   46.6726 H   0  0  0  0  0  0  0  0  0  0  0  0
  1  2  1  0
  2  3  2  0
  2  4  2  0
  2  5  1  0
  5  6  2  0
  6  7  1  0
  7  8  2  0
  8  9  1  0
  9 10  1  0
 10 11  1  0
 11 12  2  0
 11 13  1  0
 13 14  1  0
 14 15  1  0
 15 16  2  0
 16 17  1  0
 17 18  2  0
 18 19  1  0
 19 20  1  0
 20 21  2  0
 20 22  2  0
 20 23  1  0
 23 24  1  0
 24 25  1  0
 25 26  1  0
 26 27  2  0
 27 28  1  0
 28 29  2  0
 29 30  1  0
 30 31  2  0
 18 32  1  0
 32 33  2  0
  9 34  2  0
 34  5  1  0
 33 15  1  0
 31 26  1  0
  1 35  1  0
  1 36  1  0
  6 37  1  0
  7 38  1  0
  8 39  1  0
 13 40  1  0
 13 41  1  0
 16 42  1  0
 17 43  1  0
 23 44  1  0
 23 45  1  0
 24 46  1  0
 24 47  1  0
 27 48  1  0
 28 49  1  0
 29 50  1  0
 30 51  1  0
 31 52  1  0
 32 53  1  0
 33 54  1  0
 34 55  1  0
M  CHG  2  10  -1  19  -1
M  END
>  <UniqueID>  (82) 
75

>  <SMILES>  (82) 
NS(=O)(=O)c1cccc([N-]C(=O)COc2ccc([N-]S(=O)(=O)CCOc3ccccc3)cc2)c1

>  <Energy>  (82) 
58.85777575506548

>  <Genealogy>  (82) 
NS(=O)(=O)c1cccc([N-]C(=O)COc2ccc([N-]S(=O)(=O)CCOc3ccccc3)cc2)c1 (protonated)
NS(=O)(=O)c1cccc([N-]C(=O)COc2ccc([N-]S(=O)(=O)CCOc3ccccc3)cc2)c1 (3D coordinates assigned)
NS(=O)(=O)c1cccc([N-]C(=O)COc2ccc([N-]S(=O)(=O)CCOc3ccccc3)cc2)c1 (optimized conformer: 58.85777575506548 kcal/mol)

>  <smiles>  (82) 
NS(=O)(=O)c1cccc(NC(=O)COc2ccc(NS(=O)(=O)CCOc3ccccc3)cc2)c1

>  <score_type>  (82) 
oracle

>  <origin>  (82) 
adg

>  <m_score__min__energy>  (82) 
-11.640000000000001

>  <m_primary>  (82) 
energy

$$$$
82:0
     RDKit          3D

 53 55  0  0  0  0  0  0  0  0999 V2000
   54.7440   21.2760   45.3660 N   0  0  0  0  0  0  0  0  0  0  0  0
   56.2720   21.5890   44.6220 S   0  0  0  0  0  0  0  0  0  0  0  0
   57.2780   20.6060   45.1550 O   0  0  0  0  0  0  0  0  0  0  0  0
   56.1630   21.4090   43.1350 O   0  0  0  0  0  0  0  0  0  0  0  0
   56.7850   23.2380   44.9730 C   0  0  0  0  0  0  0  0  0  0  0  0
   55.8230   24.2460   45.1230 C   0  0  0  0  0  0  0  0  0  0  0  0
   56.2160   25.5700   45.3370 C   0  0  0  0  0  0  0  0  0  0  0  0
   57.5780   25.8990   45.4240 C   0  0  0  0  0  0  0  0  0  0  0  0
   58.0090   27.3310   45.5370 C   0  0  0  0  0  0  0  0  0  0  0  0
   56.8320   28.1470   45.7880 N   0  0  0  0  0  0  0  0  0  0  0  0
   56.2920   29.0930   44.8630 C   0  0  0  0  0  0  0  0  0  0  0  0
   55.0600   29.3730   44.8780 O   0  0  0  0  0  0  0  0  0  0  0  0
   57.1460   29.7150   43.8960 N   0  0  0  0  0  0  0  0  0  0  0  0
   57.2310   31.1630   43.7040 C   0  0  0  0  0  0  0  0  0  0  0  0
   57.9150   31.8200   44.8750 C   0  0  0  0  0  0  0  0  0  0  0  0
   58.5390   31.0420   45.8670 C   0  0  0  0  0  0  0  0  0  0  0  0
   59.2620   31.6530   46.8940 C   0  0  0  0  0  0  0  0  0  0  0  0
   59.3500   33.0540   46.9600 C   0  0  0  0  0  0  0  0  0  0  0  0
   60.0890   33.6940   48.0100 N   0  0  0  0  0  0  0  0  0  0  0  0
   61.4480   34.1180   47.8550 C   0  0  0  0  0  0  0  0  0  0  0  0
   61.9690   34.1610   46.7070 O   0  0  0  0  0  0  0  0  0  0  0  0
   62.1740   34.5780   49.0000 N   0  0  0  0  0  0  0  0  0  0  0  0
   63.1720   33.8490   49.7370 C   0  0  0  0  0  0  0  0  0  0  0  0
   63.2210   33.8940   51.1440 C   0  0  0  0  0  0  0  0  0  0  0  0
   64.1990   33.1800   51.8420 C   0  0  0  0  0  0  0  0  0  0  0  0
   65.1480   32.4280   51.1470 C   0  0  0  0  0  0  0  0  0  0  0  0
   65.1290   32.3990   49.7510 C   0  0  0  0  0  0  0  0  0  0  0  0
   64.1510   33.1100   49.0370 C   0  0  0  0  0  0  0  0  0  0  0  0
   64.1540   33.0660   47.6050 N   0  0  0  0  0  0  0  0  0  0  0  0
   58.6830   33.8320   46.0030 C   0  0  0  0  0  0  0  0  0  0  0  0
   57.9850   33.2200   44.9570 C   0  0  0  0  0  0  0  0  0  0  0  0
   58.5400   24.8850   45.2830 C   0  0  0  0  0  0  0  0  0  0  0  0
   58.1460   23.5620   45.0590 C   0  0  0  0  0  0  0  0  0  0  0  0
   54.3740   20.3930   44.9500 H   0  0  0  0  0  0  0  0  0  0  0  0
   54.7535   23.9939   45.0721 H   0  0  0  0  0  0  0  0  0  0  0  0
   55.4548   26.3577   45.4377 H   0  0  0  0  0  0  0  0  0  0  0  0
   58.7207   27.4401   46.3686 H   0  0  0  0  0  0  0  0  0  0  0  0
   58.4996   27.6522   44.6064 H   0  0  0  0  0  0  0  0  0  0  0  0
   57.8036   31.3722   42.7884 H   0  0  0  0  0  0  0  0  0  0  0  0
   56.2115   31.5674   43.6195 H   0  0  0  0  0  0  0  0  0  0  0  0
   58.4570   29.9456   45.8337 H   0  0  0  0  0  0  0  0  0  0  0  0
   59.7641   31.0357   47.6535 H   0  0  0  0  0  0  0  0  0  0  0  0
   59.5870   33.9620   48.8870 H   0  0  0  0  0  0  0  0  0  0  0  0
   62.4845   34.4952   51.6972 H   0  0  0  0  0  0  0  0  0  0  0  0
   64.2210   33.2106   52.9414 H   0  0  0  0  0  0  0  0  0  0  0  0
   65.9104   31.8586   51.6988 H   0  0  0  0  0  0  0  0  0  0  0  0
   65.8857   31.8149   49.2067 H   0  0  0  0  0  0  0  0  0  0  0  0
   63.4960   33.6440   47.0380 H   0  0  0  0  0  0  0  0  0  0  0  0
   64.8140   32.4360   47.0930 H   0  0  0  0  0  0  0  0  0  0  0  0
   58.7089   34.9293   46.0753 H   0  0  0  0  0  0  0  0  0  0  0  0
   57.4884   33.8384   44.1948 H   0  0  0  0  0  0  0  0  0  0  0  0
   59.6096   25.1331   45.3492 H   0  0  0  0  0  0  0  0  0  0  0  0
   58.9057   22.7740   44.9501 H   0  0  0  0  0  0  0  0  0  0  0  0
  1  2  1  0
  2  3  2  0
  2  4  2  0
  2  5  1  0
  5  6  2  0
  6  7  1  0
  7  8  2  0
  8  9  1  0
  9 10  1  0
 10 11  1  0
 11 12  2  0
 11 13  1  0
 13 14  1  0
 14 15  1  0
 15 16  2  0
 16 17  1  0
 17 18  2  0
 18 19  1  0
 19 20  1  0
 20 21  2  0
 20 22  1  0
 22 23  1  0
 23 24  2  0
 24 25  1  0
 25 26  2  0
 26 27  1  0
 27 28  2  0
 28 29  1  0
 18 30  1  0
 30 31  2  0
  8 32  1  0
 32 33  2  0
 33  5  1  0
 31 15  1  0
 28 23  1  0
  1 34  1  0
  6 35  1  0
  7 36  1  0
  9 37  1  0
  9 38  1  0
 14 39  1  0
 14 40  1  0
 16 41  1  0
 17 42  1  0
 19 43  1  0
 24 44  1  0
 25 45  1  0
 26 46  1  0
 27 47  1  0
 29 48  1  0
 29 49  1  0
 30 50  1  0
 31 51  1  0
 32 52  1  0
 33 53  1  0
M  CHG  4   1  -1  10  -1  13  -1  22  -1
M  END
>  <UniqueID>  (83) 
76

>  <SMILES>  (83) 
[NH-]S(=O)(=O)c1ccc(C[N-]C(=O)[N-]Cc2ccc(NC(=O)[N-]c3ccccc3N)cc2)cc1

>  <Energy>  (83) 
52.83599386681824

>  <Genealogy>  (83) 
[NH-]S(=O)(=O)c1ccc(C[N-]C(=O)[N-]Cc2ccc(NC(=O)[N-]c3ccccc3N)cc2)cc1 (protonated)
[NH-]S(=O)(=O)c1ccc(C[N-]C(=O)[N-]Cc2ccc(NC(=O)[N-]c3ccccc3N)cc2)cc1 (3D coordinates assigned)
[NH-]S(=O)(=O)c1ccc(C[N-]C(=O)[N-]Cc2ccc(NC(=O)[N-]c3ccccc3N)cc2)cc1 (optimized conformer: 52.83599386681824 kcal/mol)

>  <smiles>  (83) 
Nc1ccccc1NC(=O)Nc1ccc(CNC(=O)NCc2ccc(S(N)(=O)=O)cc2)cc1

>  <score_type>  (83) 
oracle

>  <origin>  (83) 
adg

>  <m_score__min__energy>  (83) 
-14.06

>  <m_primary>  (83) 
energy

$$$$
83:0
     RDKit          3D

 42 45  0  0  0  0  0  0  0  0999 V2000
   59.0790   34.2150   44.7760 H   0  0  0  0  0  0  0  0  0  0  0  0
   58.8890   33.7340   43.9050 O   0  0  0  0  0  0  0  0  0  0  0  0
   57.9840   32.6750   43.8330 C   0  0  0  0  0  0  0  0  0  0  0  0
   57.8030   32.0160   42.6090 C   0  0  0  0  0  0  0  0  0  0  0  0
   58.3227   32.3786   41.7099 H   0  0  0  0  0  0  0  0  0  0  0  0
   56.9680   30.9040   42.5260 C   0  0  0  0  0  0  0  0  0  0  0  0
   56.8222   30.3882   41.5654 H   0  0  0  0  0  0  0  0  0  0  0  0
   56.3200   30.4530   43.6730 C   0  0  0  0  0  0  0  0  0  0  0  0
   55.6723   29.5652   43.6252 H   0  0  0  0  0  0  0  0  0  0  0  0
   56.4870   31.1080   44.8500 N   0  0  0  0  0  0  0  0  0  0  0  0
   57.2720   32.2140   44.9730 C   0  0  0  0  0  0  0  0  0  0  0  0
   57.3550   32.7660   46.1530 N   0  0  0  0  0  0  0  0  0  0  0  0
   58.5250   33.0770   46.9240 C   0  0  0  0  0  0  0  0  0  0  0  0
   59.0320   34.2300   46.8540 O   0  0  0  0  0  0  0  0  0  0  0  0
   59.0740   32.0830   47.8730 C   0  0  0  0  0  0  0  0  0  0  0  0
   59.3610   32.4510   49.2160 C   0  0  0  0  0  0  0  0  0  0  0  0
   59.1560   33.4776   49.5538 H   0  0  0  0  0  0  0  0  0  0  0  0
   59.9040   31.5180   50.1180 C   0  0  0  0  0  0  0  0  0  0  0  0
   60.1256   31.7980   51.1584 H   0  0  0  0  0  0  0  0  0  0  0  0
   60.1520   30.2310   49.6540 C   0  0  0  0  0  0  0  0  0  0  0  0
   60.6960   29.1400   50.2970 C   0  0  0  0  0  0  0  0  0  0  0  0
   61.0284   29.0796   51.3438 H   0  0  0  0  0  0  0  0  0  0  0  0
   60.7350   28.1310   49.3390 C   0  0  0  0  0  0  0  0  0  0  0  0
   61.1221   27.1162   49.5130 H   0  0  0  0  0  0  0  0  0  0  0  0
   60.2300   28.5730   48.1630 N   0  0  0  0  0  0  0  0  0  0  0  0
   60.1710   27.8130   46.9130 C   0  0  0  0  0  0  0  0  0  0  0  0
   60.5533   28.4360   46.0910 H   0  0  0  0  0  0  0  0  0  0  0  0
   60.7857   26.9066   47.0157 H   0  0  0  0  0  0  0  0  0  0  0  0
   58.7510   27.4110   46.6130 C   0  0  0  0  0  0  0  0  0  0  0  0
   57.9330   28.2490   45.8370 C   0  0  0  0  0  0  0  0  0  0  0  0
   58.3378   29.1893   45.4344 H   0  0  0  0  0  0  0  0  0  0  0  0
   56.6060   27.8930   45.5740 C   0  0  0  0  0  0  0  0  0  0  0  0
   55.9704   28.5528   44.9651 H   0  0  0  0  0  0  0  0  0  0  0  0
   56.0870   26.7000   46.0840 C   0  0  0  0  0  0  0  0  0  0  0  0
   54.7680   26.3490   45.8230 O   0  0  0  0  0  0  0  0  0  0  0  0
   56.8960   25.8590   46.8550 C   0  0  0  0  0  0  0  0  0  0  0  0
   56.4870   24.9195   47.2551 H   0  0  0  0  0  0  0  0  0  0  0  0
   58.2230   26.2100   47.1180 C   0  0  0  0  0  0  0  0  0  0  0  0
   58.8565   25.5441   47.7223 H   0  0  0  0  0  0  0  0  0  0  0  0
   59.8800   29.8600   48.3630 C   0  0  0  0  0  0  0  0  0  0  0  0
   59.3380   30.7610   47.4440 C   0  0  0  0  0  0  0  0  0  0  0  0
   59.1215   30.4502   46.4113 H   0  0  0  0  0  0  0  0  0  0  0  0
  1  2  1  0
  2  3  1  0
  3  4  2  0
  4  5  1  0
  4  6  1  0
  6  7  1  0
  6  8  2  0
  8  9  1  0
  8 10  1  0
 10 11  1  0
 11 12  2  0
 12 13  1  0
 13 14  2  0
 13 15  1  0
 15 16  2  0
 16 17  1  0
 16 18  1  0
 18 19  1  0
 18 20  2  0
 20 21  1  0
 21 22  1  0
 21 23  2  0
 23 24  1  0
 23 25  1  0
 25 26  1  0
 26 27  1  0
 26 28  1  0
 26 29  1  0
 29 30  2  0
 30 31  1  0
 30 32  1  0
 32 33  1  0
 32 34  2  0
 34 35  1  0
 34 36  1  0
 36 37  1  0
 36 38  2  0
 38 39  1  0
 25 40  1  0
 40 41  2  0
 41 42  1  0
 11  3  1  0
 41 15  1  0
 40 20  1  0
 38 29  1  0
M  CHG  2  10  -1  35  -1
M  END
>  <UniqueID>  (84) 
77

>  <SMILES>  (84) 
O=C(/N=c1/[n-]cccc1O)c1ccc2ccn(Cc3ccc([O-])cc3)c2c1

>  <Energy>  (84) 
91.20651097746985

>  <Genealogy>  (84) 
O=C(N=c1[n-]cccc1O)c1ccc2ccn(Cc3ccc([O-])cc3)c2c1 (protonated)
O=C(/N=c1/[n-]cccc1O)c1ccc2ccn(Cc3ccc([O-])cc3)c2c1 (cis-trans isomerization)
O=C(/N=c1/[n-]cccc1O)c1ccc2ccn(Cc3ccc([O-])cc3)c2c1 (3D coordinates assigned)
O=C(/N=c1/[n-]cccc1O)c1ccc2ccn(Cc3ccc([O-])cc3)c2c1 (optimized conformer: 91.20651097746985 kcal/mol)

>  <smiles>  (84) 
O=C(N=c1[nH]cccc1O)c1ccc2ccn(Cc3ccc(O)cc3)c2c1

>  <score_type>  (84) 
oracle

>  <origin>  (84) 
adg

>  <m_score__min__energy>  (84) 
-12.44

>  <m_primary>  (84) 
energy

$$$$
84:0
     RDKit          3D

 43 44  0  0  0  0  0  0  0  0999 V2000
   55.5140   23.3370   43.3040 C   0  0  0  0  0  0  0  0  0  0  0  0
   55.0460   23.7770   44.6870 C   0  0  0  0  0  0  0  0  0  0  0  0
   56.1380   24.4130   45.4190 N   0  0  0  0  0  0  0  0  0  0  0  0
   56.0350   25.7400   45.9570 C   0  0  0  0  0  0  0  0  0  0  0  0
   54.9170   26.3190   46.0010 O   0  0  0  0  0  0  0  0  0  0  0  0
   57.1780   26.4000   46.5130 N   0  0  0  0  0  0  0  0  0  0  0  0
   57.4950   27.7920   46.3720 C   0  0  0  0  0  0  0  0  0  0  0  0
   58.3520   28.4480   47.2710 C   0  0  0  0  0  0  0  0  0  0  0  0
   58.6650   29.7980   47.0900 C   0  0  0  0  0  0  0  0  0  0  0  0
   58.1450   30.5140   45.9950 C   0  0  0  0  0  0  0  0  0  0  0  0
   58.4540   31.9510   45.7890 C   0  0  0  0  0  0  0  0  0  0  0  0
   57.5270   32.8360   45.2150 C   0  0  0  0  0  0  0  0  0  0  0  0
   57.8880   34.1720   45.0490 C   0  0  0  0  0  0  0  0  0  0  0  0
   59.1120   34.6010   45.4480 N   0  0  0  0  0  0  0  0  0  0  0  0
   59.9970   33.7440   46.0210 C   0  0  0  0  0  0  0  0  0  0  0  0
   61.3540   34.2250   46.4230 C   0  0  0  0  0  0  0  0  0  0  0  0
   61.8300   33.4940   47.9800 S   0  0  0  0  0  0  0  0  0  0  0  0
   62.9640   34.2770   48.5800 O   0  0  0  0  0  0  0  0  0  0  0  0
   60.6590   33.5220   48.9220 O   0  0  0  0  0  0  0  0  0  0  0  0
   62.3330   31.7970   47.7410 C   0  0  0  0  0  0  0  0  0  0  0  0
   61.5090   30.8460   48.6020 C   0  0  0  0  0  0  0  0  0  0  0  0
   59.6660   32.4340   46.1800 N   0  0  0  0  0  0  0  0  0  0  0  0
   57.2990   29.8450   45.0920 C   0  0  0  0  0  0  0  0  0  0  0  0
   56.9890   28.4940   45.2740 C   0  0  0  0  0  0  0  0  0  0  0  0
   56.3118   22.5869   43.4083 H   0  0  0  0  0  0  0  0  0  0  0  0
   54.6687   22.8990   42.7530 H   0  0  0  0  0  0  0  0  0  0  0  0
   55.8991   24.2077   42.7530 H   0  0  0  0  0  0  0  0  0  0  0  0
   54.2181   24.4930   44.5780 H   0  0  0  0  0  0  0  0  0  0  0  0
   54.7109   22.8916   45.2472 H   0  0  0  0  0  0  0  0  0  0  0  0
   56.9960   23.8500   45.6150 H   0  0  0  0  0  0  0  0  0  0  0  0
   58.7789   27.8965   48.1216 H   0  0  0  0  0  0  0  0  0  0  0  0
   59.3238   30.3059   47.8098 H   0  0  0  0  0  0  0  0  0  0  0  0
   56.5339   32.4813   44.9020 H   0  0  0  0  0  0  0  0  0  0  0  0
   57.1796   34.8798   44.5938 H   0  0  0  0  0  0  0  0  0  0  0  0
   62.0837   33.9416   45.6502 H   0  0  0  0  0  0  0  0  0  0  0  0
   61.3293   35.3192   46.5326 H   0  0  0  0  0  0  0  0  0  0  0  0
   62.1981   31.5294   46.6826 H   0  0  0  0  0  0  0  0  0  0  0  0
   63.3887   31.7041   48.0357 H   0  0  0  0  0  0  0  0  0  0  0  0
   61.6943   31.0599   49.6650 H   0  0  0  0  0  0  0  0  0  0  0  0
   60.4403   30.9841   48.3811 H   0  0  0  0  0  0  0  0  0  0  0  0
   61.7979   29.8078   48.3811 H   0  0  0  0  0  0  0  0  0  0  0  0
   56.8774   30.3900   44.2346 H   0  0  0  0  0  0  0  0  0  0  0  0
   56.3422   27.9796   44.5480 H   0  0  0  0  0  0  0  0  0  0  0  0
  1  2  1  0
  2  3  1  0
  3  4  1  0
  4  5  2  0
  4  6  1  0
  6  7  1  0
  7  8  2  0
  8  9  1  0
  9 10  2  0
 10 11  1  0
 11 12  2  0
 12 13  1  0
 13 14  2  0
 14 15  1  0
 15 16  1  0
 16 17  1  0
 17 18  2  0
 17 19  2  0
 17 20  1  0
 20 21  1  0
 15 22  2  0
 10 23  1  0
 23 24  2  0
 24  7  1  0
 22 11  1  0
  1 25  1  0
  1 26  1  0
  1 27  1  0
  2 28  1  0
  2 29  1  0
  3 30  1  0
  8 31  1  0
  9 32  1  0
 12 33  1  0
 13 34  1  0
 16 35  1  0
 16 36  1  0
 20 37  1  0
 20 38  1  0
 21 39  1  0
 21 40  1  0
 21 41  1  0
 23 42  1  0
 24 43  1  0
M  CHG  1   6  -1
M  END
>  <UniqueID>  (85) 
78

>  <SMILES>  (85) 
CCNC(=O)[N-]c1ccc(-c2ccnc(CS(=O)(=O)CC)n2)cc1

>  <Energy>  (85) 
35.20148359815264

>  <Genealogy>  (85) 
CCNC(=O)[N-]c1ccc(-c2ccnc(CS(=O)(=O)CC)n2)cc1 (protonated)
CCNC(=O)[N-]c1ccc(-c2ccnc(CS(=O)(=O)CC)n2)cc1 (3D coordinates assigned)
CCNC(=O)[N-]c1ccc(-c2ccnc(CS(=O)(=O)CC)n2)cc1 (optimized conformer: 35.20148359815264 kcal/mol)

>  <smiles>  (85) 
CCNC(=O)Nc1ccc(-c2ccnc(CS(=O)(=O)CC)n2)cc1

>  <score_type>  (85) 
oracle

>  <origin>  (85) 
adg

>  <m_score__min__energy>  (85) 
-9

>  <m_primary>  (85) 
energy

$$$$
85:0
     RDKit          3D

 55 57  0  0  0  0  0  0  0  0999 V2000
   57.3870   25.2800   44.0190 C   0  0  0  0  0  0  0  0  0  0  0  0
   57.5060   26.6560   44.3620 O   0  0  0  0  0  0  0  0  0  0  0  0
   58.0690   27.1370   45.5570 C   0  0  0  0  0  0  0  0  0  0  0  0
   58.2890   26.2940   46.6620 C   0  0  0  0  0  0  0  0  0  0  0  0
   58.8480   26.7980   47.8380 C   0  0  0  0  0  0  0  0  0  0  0  0
   59.2120   28.1500   47.9280 C   0  0  0  0  0  0  0  0  0  0  0  0
   59.7380   28.7140   49.1400 N   0  0  0  0  0  0  0  0  0  0  0  0
   59.1900   29.6430   49.8760 C   0  0  0  0  0  0  0  0  0  0  0  0
   58.1280   29.3490   50.6640 N   0  0  0  0  0  0  0  0  0  0  0  0
   57.5460   30.2890   51.4400 C   0  0  0  0  0  0  0  0  0  0  0  0
   56.5560   29.9650   52.1490 O   0  0  0  0  0  0  0  0  0  0  0  0
   58.0280   31.5690   51.4430 N   0  0  0  0  0  0  0  0  0  0  0  0
   57.3690   32.6200   52.2500 C   0  0  0  0  0  0  0  0  0  0  0  0
   58.1840   32.9570   53.5100 C   0  0  0  0  0  0  0  0  0  0  0  0
   58.8950   34.3050   53.4010 C   0  0  0  0  0  0  0  0  0  0  0  0
   60.2250   34.0970   53.0170 O   0  0  0  0  0  0  0  0  0  0  0  0
   59.1140   31.8750   50.6610 C   0  0  0  0  0  0  0  0  0  0  0  0
   59.5700   33.0550   50.6600 O   0  0  0  0  0  0  0  0  0  0  0  0
   59.7080   30.9130   49.8810 N   0  0  0  0  0  0  0  0  0  0  0  0
   60.8520   31.2550   49.0090 C   0  0  0  0  0  0  0  0  0  0  0  0
   60.4530   32.3090   48.0090 C   0  0  0  0  0  0  0  0  0  0  0  0
   59.1350   32.3620   47.5260 C   0  0  0  0  0  0  0  0  0  0  0  0
   58.7720   33.3180   46.5730 C   0  0  0  0  0  0  0  0  0  0  0  0
   59.7190   34.2270   46.0930 C   0  0  0  0  0  0  0  0  0  0  0  0
   59.2630   35.4170   44.8910 Cl  0  0  0  0  0  0  0  0  0  0  0  0
   61.0330   34.1820   46.5720 C   0  0  0  0  0  0  0  0  0  0  0  0
   61.4000   33.2270   47.5230 C   0  0  0  0  0  0  0  0  0  0  0  0
   58.9620   28.9980   46.8450 C   0  0  0  0  0  0  0  0  0  0  0  0
   58.4150   28.5010   45.6510 C   0  0  0  0  0  0  0  0  0  0  0  0
   58.1560   29.4470   44.5070 C   0  0  0  0  0  0  0  0  0  0  0  0
   56.4060   29.7550   44.3440 S   0  0  0  0  0  0  0  0  0  0  0  0
   56.0140   29.6410   42.8970 O   0  0  0  0  0  0  0  0  0  0  0  0
   56.0900   31.1390   44.8370 O   0  0  0  0  0  0  0  0  0  0  0  0
   55.5370   28.6320   45.2440 O   0  0  0  0  0  0  0  0  0  0  0  0
   57.3348   24.6764   44.9371 H   0  0  0  0  0  0  0  0  0  0  0  0
   56.4723   25.1274   43.4274 H   0  0  0  0  0  0  0  0  0  0  0  0
   58.2619   24.9726   43.4274 H   0  0  0  0  0  0  0  0  0  0  0  0
   58.0185   25.2297   46.5988 H   0  0  0  0  0  0  0  0  0  0  0  0
   59.0039   26.1312   48.6989 H   0  0  0  0  0  0  0  0  0  0  0  0
   57.2651   33.5281   51.6380 H   0  0  0  0  0  0  0  0  0  0  0  0
   56.3840   32.2459   52.5659 H   0  0  0  0  0  0  0  0  0  0  0  0
   57.5034   32.9855   54.3737 H   0  0  0  0  0  0  0  0  0  0  0  0
   58.9540   32.1805   53.6288 H   0  0  0  0  0  0  0  0  0  0  0  0
   58.3885   34.9278   52.6489 H   0  0  0  0  0  0  0  0  0  0  0  0
   58.8683   34.8154   54.3750 H   0  0  0  0  0  0  0  0  0  0  0  0
   60.1900   33.5660   52.1780 H   0  0  0  0  0  0  0  0  0  0  0  0
   61.6780   31.6362   49.6274 H   0  0  0  0  0  0  0  0  0  0  0  0
   61.1708   30.3520   48.4678 H   0  0  0  0  0  0  0  0  0  0  0  0
   58.3856   31.6484   47.8992 H   0  0  0  0  0  0  0  0  0  0  0  0
   57.7379   33.3550   46.1997 H   0  0  0  0  0  0  0  0  0  0  0  0
   61.7782   34.9000   46.1990 H   0  0  0  0  0  0  0  0  0  0  0  0
   62.4352   33.1932   47.8934 H   0  0  0  0  0  0  0  0  0  0  0  0
   59.1970   30.0693   46.9294 H   0  0  0  0  0  0  0  0  0  0  0  0
   58.6758   30.3976   44.6971 H   0  0  0  0  0  0  0  0  0  0  0  0
   58.5283   28.9942   43.5763 H   0  0  0  0  0  0  0  0  0  0  0  0
  1  2  1  0
  2  3  1  0
  3  4  2  0
  4  5  1  0
  5  6  2  0
  6  7  1  0
  7  8  2  3
  8  9  1  0
  9 10  1  0
 10 11  2  0
 10 12  1  0
 12 13  1  0
 13 14  1  0
 14 15  1  0
 15 16  1  0
 12 17  1  0
 17 18  2  0
 17 19  1  0
 19 20  1  0
 20 21  1  0
 21 22  2  0
 22 23  1  0
 23 24  2  0
 24 25  1  0
 24 26  1  0
 26 27  2  0
  6 28  1  0
 28 29  2  0
 29 30  1  0
 30 31  1  0
 31 32  2  0
 31 33  2  0
 31 34  1  0
 29  3  1  0
 19  8  1  0
 27 21  1  0
  1 35  1  0
  1 36  1  0
  1 37  1  0
  4 38  1  0
  5 39  1  0
 13 40  1  0
 13 41  1  0
 14 42  1  0
 14 43  1  0
 15 44  1  0
 15 45  1  0
 16 46  1  0
 20 47  1  0
 20 48  1  0
 22 49  1  0
 23 50  1  0
 26 51  1  0
 27 52  1  0
 28 53  1  0
 30 54  1  0
 30 55  1  0
M  CHG  2   9  -1  34  -1
M  END
>  <UniqueID>  (86) 
79

>  <SMILES>  (86) 
COc1ccc(N=c2[n-]c(=O)n(CCCO)c(=O)n2Cc2ccc(Cl)cc2)cc1CS(=O)(=O)[O-]

>  <Energy>  (86) 
60.22805309146325

>  <Genealogy>  (86) 
COc1ccc(N=c2[n-]c(=O)n(CCCO)c(=O)n2Cc2ccc(Cl)cc2)cc1CS(=O)(=O)[O-] (protonated)
COc1ccc(N=c2[n-]c(=O)n(CCCO)c(=O)n2Cc2ccc(Cl)cc2)cc1CS(=O)(=O)[O-] (3D coordinates assigned)
COc1ccc(N=c2[n-]c(=O)n(CCCO)c(=O)n2Cc2ccc(Cl)cc2)cc1CS(=O)(=O)[O-] (optimized conformer: 60.22805309146325 kcal/mol)

>  <smiles>  (86) 
COc1ccc(N=c2[nH]c(=O)n(CCCO)c(=O)n2Cc2ccc(Cl)cc2)cc1CS(=O)(=O)O

>  <score_type>  (86) 
oracle

>  <origin>  (86) 
adg

>  <m_score__min__energy>  (86) 
-12.710000000000001

>  <m_primary>  (86) 
energy

$$$$
86:0
     RDKit          3D

 56 59  0  0  0  0  0  0  0  0999 V2000
   64.8847   32.6926   49.2513 H   0  0  0  0  0  0  0  0  0  0  0  0
   63.9750   32.6130   48.6380 C   0  0  0  0  0  0  0  0  0  0  0  0
   55.4320   25.7660   45.9720 N   0  0  0  0  0  0  0  0  0  0  0  0
   56.5090   26.5360   45.6520 C   0  0  0  0  0  0  0  0  0  0  0  0
   56.4210   27.8330   45.6340 N   0  0  0  0  0  0  0  0  0  0  0  0
   60.4870   29.5820   47.6120 C   0  0  0  0  0  0  0  0  0  0  0  0
   59.7020   28.5280   48.1080 C   0  0  0  0  0  0  0  0  0  0  0  0
   59.5136   28.4472   49.1887 H   0  0  0  0  0  0  0  0  0  0  0  0
   59.1590   27.5810   47.2340 C   0  0  0  0  0  0  0  0  0  0  0  0
   58.5215   26.7756   47.6277 H   0  0  0  0  0  0  0  0  0  0  0  0
   59.4220   27.6520   45.8610 C   0  0  0  0  0  0  0  0  0  0  0  0
   58.8430   26.6970   45.0150 O   0  0  0  0  0  0  0  0  0  0  0  0
   57.7240   25.9130   45.3300 C   0  0  0  0  0  0  0  0  0  0  0  0
   61.9150   31.5040   48.1800 C   0  0  0  0  0  0  0  0  0  0  0  0
   61.0960   30.5370   48.4940 N   0  0  0  0  0  0  0  0  0  0  0  0
   56.8600   28.6920   44.5330 C   0  0  0  0  0  0  0  0  0  0  0  0
   57.0306   28.0716   43.6408 H   0  0  0  0  0  0  0  0  0  0  0  0
   57.7871   29.1997   44.8376 H   0  0  0  0  0  0  0  0  0  0  0  0
   55.8120   29.7570   44.2060 C   0  0  0  0  0  0  0  0  0  0  0  0
   54.8420   29.4563   44.6288 H   0  0  0  0  0  0  0  0  0  0  0  0
   55.7262   29.8577   43.1140 H   0  0  0  0  0  0  0  0  0  0  0  0
   56.2130   31.0410   44.7780 N   0  0  0  0  0  0  0  0  0  0  0  0
   57.5340   31.7140   43.8710 S   0  0  0  0  0  0  0  0  0  0  0  0
   58.8180   31.0120   44.2190 O   0  0  0  0  0  0  0  0  0  0  0  0
   57.2570   31.5280   42.4060 O   0  0  0  0  0  0  0  0  0  0  0  0
   57.6780   33.4600   44.2190 C   0  0  0  0  0  0  0  0  0  0  0  0
   58.3375   33.9247   43.4713 H   0  0  0  0  0  0  0  0  0  0  0  0
   56.6771   33.9143   44.1772 H   0  0  0  0  0  0  0  0  0  0  0  0
   58.2540   33.6790   45.5910 C   0  0  0  0  0  0  0  0  0  0  0  0
   59.1000   34.7750   45.8370 C   0  0  0  0  0  0  0  0  0  0  0  0
   59.3513   35.4678   45.0204 H   0  0  0  0  0  0  0  0  0  0  0  0
   59.6230   34.9870   47.1170 C   0  0  0  0  0  0  0  0  0  0  0  0
   60.2891   35.8423   47.3037 H   0  0  0  0  0  0  0  0  0  0  0  0
   59.3000   34.1130   48.1590 C   0  0  0  0  0  0  0  0  0  0  0  0
   59.7159   34.2778   49.1639 H   0  0  0  0  0  0  0  0  0  0  0  0
   58.4480   33.0290   47.9240 C   0  0  0  0  0  0  0  0  0  0  0  0
   58.1921   32.3436   48.7455 H   0  0  0  0  0  0  0  0  0  0  0  0
   57.9210   32.8150   46.6470 C   0  0  0  0  0  0  0  0  0  0  0  0
   57.2433   31.9671   46.4687 H   0  0  0  0  0  0  0  0  0  0  0  0
   63.0590   31.6440   48.9050 N   0  0  0  0  0  0  0  0  0  0  0  0
   55.5120   24.4100   45.9980 C   0  0  0  0  0  0  0  0  0  0  0  0
   54.6288   23.8067   46.2549 H   0  0  0  0  0  0  0  0  0  0  0  0
   56.7240   23.7900   45.6960 C   0  0  0  0  0  0  0  0  0  0  0  0
   56.8058   22.6933   45.7197 H   0  0  0  0  0  0  0  0  0  0  0  0
   57.8040   24.5500   45.3720 N   0  0  0  0  0  0  0  0  0  0  0  0
   58.7120   24.0690   45.1870 H   0  0  0  0  0  0  0  0  0  0  0  0
   60.2230   28.6980   45.3670 C   0  0  0  0  0  0  0  0  0  0  0  0
   60.4244   28.7710   44.2881 H   0  0  0  0  0  0  0  0  0  0  0  0
   60.7640   29.6450   46.2420 C   0  0  0  0  0  0  0  0  0  0  0  0
   61.4110   30.4441   45.8511 H   0  0  0  0  0  0  0  0  0  0  0  0
   61.6810   32.3780   47.0960 C   0  0  0  0  0  0  0  0  0  0  0  0
   60.7753   32.2694   46.4813 H   0  0  0  0  0  0  0  0  0  0  0  0
   62.6100   33.3820   46.8110 C   0  0  0  0  0  0  0  0  0  0  0  0
   62.4329   34.0743   45.9748 H   0  0  0  0  0  0  0  0  0  0  0  0
   63.7630   33.5060   47.5880 C   0  0  0  0  0  0  0  0  0  0  0  0
   64.4955   34.2984   47.3747 H   0  0  0  0  0  0  0  0  0  0  0  0
  1  2  1  0
  2  3  1  0
  3  4  1  0
  4  5  2  0
  5  6  1  0
  6  7  2  0
  7  8  1  0
  7  9  1  0
  9 10  1  0
  9 11  2  0
 11 12  1  0
 12 13  1  0
 13 14  1  0
 14 15  2  0
 15 16  1  0
 16 17  1  0
 16 18  1  0
 16 19  1  0
 19 20  1  0
 19 21  1  0
 19 22  1  0
 22 23  1  0
 23 24  2  0
 23 25  2  0
 23 26  1  0
 26 27  1  0
 26 28  1  0
 26 29  1  0
 29 30  2  0
 30 31  1  0
 30 32  1  0
 32 33  1  0
 32 34  2  0
 34 35  1  0
 34 36  1  0
 36 37  1  0
 36 38  2  0
 38 39  1  0
 14 40  1  0
 40 41  1  0
 41 42  1  0
 41 43  2  0
 43 44  1  0
 43 45  1  0
 45 46  1  0
 11 47  1  0
 47 48  1  0
 47 49  2  0
 49 50  1  0
  4 51  1  0
 51 52  1  0
 51 53  2  0
 53 54  1  0
 53 55  1  0
 55 56  1  0
 55  2  2  0
 49  6  1  0
 45 13  2  0
 38 29  1  0
M  CHG  4   3  -1  22  -1  40  -1  45   1
M  END
>  <UniqueID>  (87) 
80

>  <SMILES>  (87) 
O=S(=O)(Cc1ccccc1)[N-]CC/N=c1\[n-]cc[nH+]c1Oc1ccc(/N=c2\cccc[n-]2)cc1

>  <Energy>  (87) 
69.48862276303548

>  <Genealogy>  (87) 
O=S(=O)(Cc1ccccc1)[N-]CCN=c1[n-]cc[nH+]c1Oc1ccc(N=c2cccc[n-]2)cc1 (protonated)
O=S(=O)(Cc1ccccc1)[N-]CC/N=c1\[n-]cc[nH+]c1Oc1ccc(/N=c2\cccc[n-]2)cc1 (cis-trans isomerization)
O=S(=O)(Cc1ccccc1)[N-]CC/N=c1\[n-]cc[nH+]c1Oc1ccc(/N=c2\cccc[n-]2)cc1 (3D coordinates assigned)
O=S(=O)(Cc1ccccc1)[N-]CC/N=c1\[n-]cc[nH+]c1Oc1ccc(/N=c2\cccc[n-]2)cc1 (optimized conformer: 69.48862276303548 kcal/mol)

>  <smiles>  (87) 
O=S(=O)(Cc1ccccc1)NCCN=c1[nH]ccnc1Oc1ccc(N=c2cccc[nH]2)cc1

>  <score_type>  (87) 
oracle

>  <origin>  (87) 
adg

>  <m_score__min__energy>  (87) 
-11.789999999999999

>  <m_primary>  (87) 
energy

$$$$
87:0
     RDKit          3D

 17 17  0  0  0  0  0  0  0  0999 V2000
   55.1560   29.2720   44.8290 N   0  0  0  0  0  0  0  0  0  0  0  0
   56.4920   29.7660   44.8710 C   0  0  0  0  0  0  0  0  0  0  0  0
   56.6990   31.0080   44.8910 O   0  0  0  0  0  0  0  0  0  0  0  0
   57.6470   28.8130   44.8390 C   0  0  0  0  0  0  0  0  0  0  0  0
   57.5840   27.8750   45.9610 N   0  0  0  0  0  0  0  0  0  0  0  0
   56.8650   26.7900   46.0970 C   0  0  0  0  0  0  0  0  0  0  0  0
   55.5450   26.8460   45.7630 N   0  0  0  0  0  0  0  0  0  0  0  0
   54.7490   25.7830   45.8790 N   0  0  0  0  0  0  0  0  0  0  0  0
   55.2280   24.6000   46.3340 C   0  0  0  0  0  0  0  0  0  0  0  0
   54.4630   23.6060   46.4380 O   0  0  0  0  0  0  0  0  0  0  0  0
   56.5340   24.4930   46.6750 N   0  0  0  0  0  0  0  0  0  0  0  0
   57.3710   25.5540   46.5700 C   0  0  0  0  0  0  0  0  0  0  0  0
   58.5790   25.4040   46.8940 O   0  0  0  0  0  0  0  0  0  0  0  0
   54.5300   29.3460   45.6620 H   0  0  0  0  0  0  0  0  0  0  0  0
   57.6211   28.2478   43.8957 H   0  0  0  0  0  0  0  0  0  0  0  0
   58.5801   29.3903   44.9166 H   0  0  0  0  0  0  0  0  0  0  0  0
   55.1350   27.7390   45.4080 H   0  0  0  0  0  0  0  0  0  0  0  0
  1  2  1  0
  2  3  2  0
  2  4  1  0
  4  5  1  0
  5  6  2  3
  6  7  1  0
  7  8  1  0
  8  9  1  0
  9 10  2  0
  9 11  1  0
 11 12  1  0
 12 13  2  0
 12  6  1  0
  1 14  1  0
  4 15  1  0
  4 16  1  0
  7 17  1  0
M  CHG  3   1  -1   8  -1  11  -1
M  END
>  <UniqueID>  (88) 
81

>  <SMILES>  (88) 
[NH-]C(=O)CN=c1[nH][n-]c(=O)[n-]c1=O

>  <Energy>  (88) 
21.229890313553167

>  <Genealogy>  (88) 
[NH-]C(=O)CN=c1[nH][n-]c(=O)[n-]c1=O (protonated)
[NH-]C(=O)CN=c1[nH][n-]c(=O)[n-]c1=O (3D coordinates assigned)
[NH-]C(=O)CN=c1[nH][n-]c(=O)[n-]c1=O (optimized conformer: 21.229890313553167 kcal/mol)

>  <smiles>  (88) 
NC(=O)CN=c1[nH][nH]c(=O)[nH]c1=O

>  <score_type>  (88) 
oracle

>  <origin>  (88) 
adg

>  <m_score__min__energy>  (88) 
-12.720000000000001

>  <m_primary>  (88) 
energy

$$$$
88:0
     RDKit          3D

 60 61  0  0  0  0  0  0  0  0999 V2000
   56.9600   22.1990   43.8210 C   0  0  0  0  0  0  0  0  0  0  0  0
   57.4810   22.1820   45.2550 C   0  0  0  0  0  0  0  0  0  0  0  0
   56.5590   21.3600   46.1690 C   0  0  0  0  0  0  0  0  0  0  0  0
   55.9160   22.2290   47.2540 C   0  0  0  0  0  0  0  0  0  0  0  0
   55.4950   23.5220   46.7140 N   0  0  0  0  0  0  0  0  0  0  0  0
   54.3130   23.6750   45.9120 C   0  0  0  0  0  0  0  0  0  0  0  0
   53.6140   22.6700   45.6130 O   0  0  0  0  0  0  0  0  0  0  0  0
   53.8870   25.0330   45.4430 C   0  0  0  0  0  0  0  0  0  0  0  0
   54.7830   26.0500   45.9820 N   0  0  0  0  0  0  0  0  0  0  0  0
   56.1790   26.1270   45.6710 C   0  0  0  0  0  0  0  0  0  0  0  0
   56.7440   25.1670   45.0800 O   0  0  0  0  0  0  0  0  0  0  0  0
   56.9440   27.3920   45.9900 C   0  0  1  0  0  0  0  0  0  0  0  0
   58.0460   27.1930   47.0600 C   0  0  0  0  0  0  0  0  0  0  0  0
   58.9740   28.3780   47.1760 C   0  0  0  0  0  0  0  0  0  0  0  0
   59.9180   28.6420   46.1690 C   0  0  0  0  0  0  0  0  0  0  0  0
   60.7590   29.7540   46.2660 C   0  0  0  0  0  0  0  0  0  0  0  0
   60.6690   30.6070   47.3690 C   0  0  0  0  0  0  0  0  0  0  0  0
   59.7410   30.3450   48.3810 C   0  0  0  0  0  0  0  0  0  0  0  0
   58.8990   29.2340   48.2890 C   0  0  0  0  0  0  0  0  0  0  0  0
   57.4520   28.0450   44.7690 N   0  0  0  0  0  0  0  0  0  0  0  0
   56.4520   29.3360   44.1440 S   0  0  0  0  0  0  0  0  0  0  0  0
   55.1530   29.3550   44.8970 O   0  0  0  0  0  0  0  0  0  0  0  0
   56.1560   29.1330   42.6830 O   0  0  0  0  0  0  0  0  0  0  0  0
   57.2610   30.8820   44.3860 C   0  0  0  0  0  0  0  0  0  0  0  0
   57.5280   31.7290   43.3000 C   0  0  0  0  0  0  0  0  0  0  0  0
   58.1750   32.9520   43.5070 C   0  0  0  0  0  0  0  0  0  0  0  0
   58.5440   33.3500   44.7980 C   0  0  0  0  0  0  0  0  0  0  0  0
   59.2300   34.6000   44.9660 N   0  0  0  0  0  0  0  0  0  0  0  0
   59.9830   35.0220   46.1110 C   0  0  0  0  0  0  0  0  0  0  0  0
   61.1180   34.2130   46.6630 C   0  0  0  0  0  0  0  0  0  0  0  0
   59.6550   36.0880   46.6950 O   0  0  0  0  0  0  0  0  0  0  0  0
   58.3020   32.4860   45.8800 C   0  0  0  0  0  0  0  0  0  0  0  0
   57.6540   31.2640   45.6740 C   0  0  0  0  0  0  0  0  0  0  0  0
   55.8606   22.2349   43.8307 H   0  0  0  0  0  0  0  0  0  0  0  0
   57.3512   23.0849   43.2992 H   0  0  0  0  0  0  0  0  0  0  0  0
   57.2926   21.2895   43.2992 H   0  0  0  0  0  0  0  0  0  0  0  0
   58.4872   21.7376   45.2664 H   0  0  0  0  0  0  0  0  0  0  0  0
   57.5109   23.2164   45.6281 H   0  0  0  0  0  0  0  0  0  0  0  0
   55.7645   20.9059   45.5586 H   0  0  0  0  0  0  0  0  0  0  0  0
   57.1663   20.5875   46.6634 H   0  0  0  0  0  0  0  0  0  0  0  0
   55.0373   21.7058   47.6591 H   0  0  0  0  0  0  0  0  0  0  0  0
   56.6596   22.4066   48.0449 H   0  0  0  0  0  0  0  0  0  0  0  0
   56.0410   24.3680   46.9890 H   0  0  0  0  0  0  0  0  0  0  0  0
   53.9183   25.0653   44.3439 H   0  0  0  0  0  0  0  0  0  0  0  0
   52.8631   25.2314   45.7928 H   0  0  0  0  0  0  0  0  0  0  0  0
   56.2189   28.0803   46.4487 H   0  0  0  0  0  0  0  0  0  0  0  0
   57.5631   27.0288   48.0346 H   0  0  0  0  0  0  0  0  0  0  0  0
   58.6522   26.3283   46.7522 H   0  0  0  0  0  0  0  0  0  0  0  0
   59.9953   27.9708   45.3010 H   0  0  0  0  0  0  0  0  0  0  0  0
   61.4931   29.9581   45.4726 H   0  0  0  0  0  0  0  0  0  0  0  0
   61.3283   31.4846   47.4410 H   0  0  0  0  0  0  0  0  0  0  0  0
   59.6736   31.0146   49.2511 H   0  0  0  0  0  0  0  0  0  0  0  0
   58.1744   29.0280   49.0906 H   0  0  0  0  0  0  0  0  0  0  0  0
   57.2282   31.4311   42.2844 H   0  0  0  0  0  0  0  0  0  0  0  0
   58.3954   33.6054   42.6500 H   0  0  0  0  0  0  0  0  0  0  0  0
   61.0846   34.2368   47.7622 H   0  0  0  0  0  0  0  0  0  0  0  0
   61.0298   33.1729   46.3159 H   0  0  0  0  0  0  0  0  0  0  0  0
   62.0724   34.6357   46.3159 H   0  0  0  0  0  0  0  0  0  0  0  0
   58.6235   32.7721   46.8923 H   0  0  0  0  0  0  0  0  0  0  0  0
   57.4523   30.6002   46.5277 H   0  0  0  0  0  0  0  0  0  0  0  0
  1  2  1  0
  2  3  1  0
  3  4  1  0
  4  5  1  0
  5  6  1  0
  6  7  2  0
  6  8  1  0
  8  9  1  0
  9 10  1  0
 10 11  2  0
 10 12  1  0
 12 13  1  0
 13 14  1  0
 14 15  2  0
 15 16  1  0
 16 17  2  0
 17 18  1  0
 18 19  2  0
 12 20  1  0
 20 21  1  0
 21 22  2  0
 21 23  2  0
 21 24  1  0
 24 25  2  0
 25 26  1  0
 26 27  2  0
 27 28  1  0
 28 29  1  0
 29 30  1  0
 29 31  2  0
 27 32  1  0
 32 33  2  0
 19 14  1  0
 33 24  1  0
  1 34  1  0
  1 35  1  0
  1 36  1  0
  2 37  1  0
  2 38  1  0
  3 39  1  0
  3 40  1  0
  4 41  1  0
  4 42  1  0
  5 43  1  0
  8 44  1  0
  8 45  1  0
 12 46  1  1
 13 47  1  0
 13 48  1  0
 15 49  1  0
 16 50  1  0
 17 51  1  0
 18 52  1  0
 19 53  1  0
 25 54  1  0
 26 55  1  0
 30 56  1  0
 30 57  1  0
 30 58  1  0
 32 59  1  0
 33 60  1  0
M  CHG  3   9  -1  20  -1  28  -1
M  END
>  <UniqueID>  (89) 
82

>  <SMILES>  (89) 
CCCCNC(=O)C[N-]C(=O)[C@@H](Cc1ccccc1)[N-]S(=O)(=O)c1ccc([N-]C(C)=O)cc1

>  <Energy>  (89) 
52.76947480235186

>  <Genealogy>  (89) 
CCCCNC(=O)C[N-]C(=O)C(Cc1ccccc1)[N-]S(=O)(=O)c1ccc([N-]C(C)=O)cc1 (protonated)
CCCCNC(=O)C[N-]C(=O)[C@@H](Cc1ccccc1)[N-]S(=O)(=O)c1ccc([N-]C(C)=O)cc1 (chirality)
CCCCNC(=O)C[N-]C(=O)[C@@H](Cc1ccccc1)[N-]S(=O)(=O)c1ccc([N-]C(C)=O)cc1 (3D coordinates assigned)
CCCCNC(=O)C[N-]C(=O)[C@@H](Cc1ccccc1)[N-]S(=O)(=O)c1ccc([N-]C(C)=O)cc1 (optimized conformer: 52.76947480235186 kcal/mol)

>  <smiles>  (89) 
CCCCNC(=O)CNC(=O)C(Cc1ccccc1)NS(=O)(=O)c1ccc(NC(C)=O)cc1

>  <score_type>  (89) 
oracle

>  <origin>  (89) 
adg

>  <m_score__min__energy>  (89) 
-12.99

>  <m_primary>  (89) 
energy

$$$$
89:0
     RDKit          3D

 28 29  0  0  0  0  0  0  0  0999 V2000
   55.3160   29.3330   45.0020 N   0  0  0  0  0  0  0  0  0  0  0  0
   56.6820   30.2010   44.3950 S   0  0  0  0  0  0  0  0  0  0  0  0
   56.4080   31.6750   44.4990 O   0  0  0  0  0  0  0  0  0  0  0  0
   56.9020   29.8470   42.9520 O   0  0  0  0  0  0  0  0  0  0  0  0
   58.1190   29.7730   45.3300 C   0  0  0  0  0  0  0  0  0  0  0  0
   59.0840   30.7500   45.6170 C   0  0  0  0  0  0  0  0  0  0  0  0
   60.2250   30.4220   46.3530 C   0  0  0  0  0  0  0  0  0  0  0  0
   60.4080   29.1180   46.8140 C   0  0  0  0  0  0  0  0  0  0  0  0
   59.4550   28.1360   46.5340 C   0  0  0  0  0  0  0  0  0  0  0  0
   58.3120   28.4490   45.7760 C   0  0  0  0  0  0  0  0  0  0  0  0
   57.3090   27.4600   45.4970 N   0  0  0  0  0  0  0  0  0  0  0  0
   57.5040   26.2000   44.8440 C   0  0  0  0  0  0  0  0  0  0  0  0
   57.7730   26.1440   43.6140 O   0  0  0  0  0  0  0  0  0  0  0  0
   57.2880   24.9390   45.6150 C   0  0  0  0  0  0  0  0  0  0  0  0
   55.8530   24.5250   45.5220 C   0  0  0  0  0  0  0  0  0  0  0  0
   55.4450   23.2580   45.3220 N   0  0  0  0  0  0  0  0  0  0  0  0
   54.0990   23.3510   45.3990 C   0  0  0  0  0  0  0  0  0  0  0  0
   53.3430   22.3560   45.2550 O   0  0  0  0  0  0  0  0  0  0  0  0
   53.6290   24.5930   45.6480 N   0  0  0  0  0  0  0  0  0  0  0  0
   54.7530   25.3210   45.7310 C   0  0  0  0  0  0  0  0  0  0  0  0
   54.7740   26.6840   46.0010 O   0  0  0  0  0  0  0  0  0  0  0  0
   55.4980   28.3190   44.8300 H   0  0  0  0  0  0  0  0  0  0  0  0
   58.9412   31.7807   45.2602 H   0  0  0  0  0  0  0  0  0  0  0  0
   60.9798   31.1924   46.5693 H   0  0  0  0  0  0  0  0  0  0  0  0
   61.3041   28.8629   47.3988 H   0  0  0  0  0  0  0  0  0  0  0  0
   59.5991   27.1118   46.9084 H   0  0  0  0  0  0  0  0  0  0  0  0
   57.9247   24.1439   45.1997 H   0  0  0  0  0  0  0  0  0  0  0  0
   57.5480   25.1104   46.6700 H   0  0  0  0  0  0  0  0  0  0  0  0
  1  2  1  0
  2  3  2  0
  2  4  2  0
  2  5  1  0
  5  6  2  0
  6  7  1  0
  7  8  2  0
  8  9  1  0
  9 10  2  0
 10 11  1  0
 11 12  1  0
 12 13  2  0
 12 14  1  0
 14 15  1  0
 15 16  1  0
 16 17  1  0
 17 18  2  0
 17 19  1  0
 19 20  1  0
 20 21  1  0
 10  5  1  0
 20 15  2  0
  1 22  1  0
  6 23  1  0
  7 24  1  0
  8 25  1  0
  9 26  1  0
 14 27  1  0
 14 28  1  0
M  CHG  5   1  -1  11  -1  16  -1  19  -1  21  -1
M  END
>  <UniqueID>  (90) 
83

>  <SMILES>  (90) 
[NH-]S(=O)(=O)c1ccccc1[N-]C(=O)Cc1[n-]c(=O)[n-]c1[O-]

>  <Energy>  (90) 
59.038352968544785

>  <Genealogy>  (90) 
[NH-]S(=O)(=O)c1ccccc1[N-]C(=O)Cc1[n-]c(=O)[n-]c1[O-] (protonated)
[NH-]S(=O)(=O)c1ccccc1[N-]C(=O)Cc1[n-]c(=O)[n-]c1[O-] (3D coordinates assigned)
[NH-]S(=O)(=O)c1ccccc1[N-]C(=O)Cc1[n-]c(=O)[n-]c1[O-] (optimized conformer: 59.038352968544785 kcal/mol)

>  <smiles>  (90) 
NS(=O)(=O)c1ccccc1NC(=O)Cc1[nH]c(=O)[nH]c1O

>  <score_type>  (90) 
oracle

>  <origin>  (90) 
adg

>  <m_score__min__energy>  (90) 
-17.850000000000001

>  <m_primary>  (90) 
energy

$$$$
90:0
     RDKit          3D

 45 47  0  0  0  0  0  0  0  0999 V2000
   56.3040   30.4750   42.5510 O   0  0  0  0  0  0  0  0  0  0  0  0
   56.7670   30.8350   43.6660 C   0  0  0  0  0  0  0  0  0  0  0  0
   57.7820   31.9320   43.7250 C   0  0  0  0  0  0  0  0  0  0  0  0
   58.0640   32.2750   45.1160 N   0  0  0  0  0  0  0  0  0  0  0  0
   58.8180   33.4450   45.4770 C   0  0  0  0  0  0  0  0  0  0  0  0
   59.1800   34.2610   44.5860 O   0  0  0  0  0  0  0  0  0  0  0  0
   59.1980   33.7090   46.8750 C   0  0  0  0  0  0  0  0  0  0  0  0
   59.9620   34.7610   47.3490 C   0  0  0  0  0  0  0  0  0  0  0  0
   60.0330   34.5830   48.7140 C   0  0  0  0  0  0  0  0  0  0  0  0
   59.3120   33.4390   48.9890 C   0  0  0  0  0  0  0  0  0  0  0  0
   58.8300   32.9410   47.8750 O   0  0  0  0  0  0  0  0  0  0  0  0
   56.4170   30.1400   44.8700 N   0  0  0  0  0  0  0  0  0  0  0  0
   57.0710   28.9890   45.4250 C   0  0  0  0  0  0  0  0  0  0  0  0
   58.3680   29.1390   45.9330 C   0  0  0  0  0  0  0  0  0  0  0  0
   59.0340   28.0510   46.5050 C   0  0  0  0  0  0  0  0  0  0  0  0
   58.4060   26.8070   46.5840 C   0  0  0  0  0  0  0  0  0  0  0  0
   57.1050   26.6440   46.0930 C   0  0  0  0  0  0  0  0  0  0  0  0
   56.3050   25.0820   46.2370 S   0  0  0  0  0  0  0  0  0  0  0  0
   56.5000   24.5360   47.6280 O   0  0  0  0  0  0  0  0  0  0  0  0
   54.8310   25.2660   45.9990 O   0  0  0  0  0  0  0  0  0  0  0  0
   56.9590   23.9750   45.0540 N   0  0  0  0  0  0  0  0  0  0  0  0
   57.4270   22.7440   45.7200 C   0  0  0  0  0  0  0  0  0  0  0  0
   57.6600   21.6140   44.6980 C   0  0  0  0  0  0  0  0  0  0  0  0
   57.7520   22.1350   43.3860 O   0  0  0  0  0  0  0  0  0  0  0  0
   56.5000   22.6810   43.0000 C   0  0  0  0  0  0  0  0  0  0  0  0
   55.9310   23.6580   44.0520 C   0  0  0  0  0  0  0  0  0  0  0  0
   56.4320   27.7380   45.5270 C   0  0  0  0  0  0  0  0  0  0  0  0
   58.7092   31.5974   43.2368 H   0  0  0  0  0  0  0  0  0  0  0  0
   57.3873   32.8183   43.2067 H   0  0  0  0  0  0  0  0  0  0  0  0
   57.7670   31.5960   45.8510 H   0  0  0  0  0  0  0  0  0  0  0  0
   60.4175   35.5703   46.7595 H   0  0  0  0  0  0  0  0  0  0  0  0
   60.5583   35.2235   49.4378 H   0  0  0  0  0  0  0  0  0  0  0  0
   59.1638   33.0095   49.9908 H   0  0  0  0  0  0  0  0  0  0  0  0
   58.8654   30.1188   45.8815 H   0  0  0  0  0  0  0  0  0  0  0  0
   60.0554   28.1756   46.8938 H   0  0  0  0  0  0  0  0  0  0  0  0
   58.9343   25.9530   47.0329 H   0  0  0  0  0  0  0  0  0  0  0  0
   58.3712   22.9554   46.2432 H   0  0  0  0  0  0  0  0  0  0  0  0
   56.6550   22.4171   46.4321 H   0  0  0  0  0  0  0  0  0  0  0  0
   58.5959   21.0915   44.9451 H   0  0  0  0  0  0  0  0  0  0  0  0
   56.8097   20.9175   44.7422 H   0  0  0  0  0  0  0  0  0  0  0  0
   56.6284   23.2209   42.0502 H   0  0  0  0  0  0  0  0  0  0  0  0
   55.7890   21.8478   42.8988 H   0  0  0  0  0  0  0  0  0  0  0  0
   55.6113   24.5846   43.5528 H   0  0  0  0  0  0  0  0  0  0  0  0
   55.0721   23.1878   44.5532 H   0  0  0  0  0  0  0  0  0  0  0  0
   55.4014   27.6179   45.1616 H   0  0  0  0  0  0  0  0  0  0  0  0
  1  2  2  0
  2  3  1  0
  3  4  1  0
  4  5  1  0
  5  6  2  0
  5  7  1  0
  7  8  2  0
  8  9  1  0
  9 10  2  0
 10 11  1  0
  2 12  1  0
 12 13  1  0
 13 14  2  0
 14 15  1  0
 15 16  2  0
 16 17  1  0
 17 18  1  0
 18 19  2  0
 18 20  2  0
 18 21  1  0
 21 22  1  0
 22 23  1  0
 23 24  1  0
 24 25  1  0
 25 26  1  0
 17 27  2  0
 11  7  1  0
 27 13  1  0
 26 21  1  0
  3 28  1  0
  3 29  1  0
  4 30  1  0
  8 31  1  0
  9 32  1  0
 10 33  1  0
 14 34  1  0
 15 35  1  0
 16 36  1  0
 22 37  1  0
 22 38  1  0
 23 39  1  0
 23 40  1  0
 25 41  1  0
 25 42  1  0
 26 43  1  0
 26 44  1  0
 27 45  1  0
M  CHG  1  12  -1
M  END
>  <UniqueID>  (91) 
84

>  <SMILES>  (91) 
O=C(CNC(=O)c1ccco1)[N-]c1cccc(S(=O)(=O)N2CCOCC2)c1

>  <Energy>  (91) 
79.05172975287837

>  <Genealogy>  (91) 
O=C(CNC(=O)c1ccco1)[N-]c1cccc(S(=O)(=O)N2CCOCC2)c1 (protonated)
O=C(CNC(=O)c1ccco1)[N-]c1cccc(S(=O)(=O)N2CCOCC2)c1 (3D coordinates assigned)
O=C(CNC(=O)c1ccco1)[N-]c1cccc(S(=O)(=O)N2CCOCC2)c1 (nonaromatic ring conformer: 79.05172975287837 kcal/mol)

>  <smiles>  (91) 
O=C(CNC(=O)c1ccco1)Nc1cccc(S(=O)(=O)N2CCOCC2)c1

>  <score_type>  (91) 
oracle

>  <origin>  (91) 
adg

>  <m_score__min__energy>  (91) 
-10.630000000000001

>  <m_primary>  (91) 
energy

$$$$
91:0
     RDKit          3D

 37 39  0  0  0  0  0  0  0  0999 V2000
   65.3530   32.7200   48.2840 H   0  0  0  0  0  0  0  0  0  0  0  0
   64.5670   32.9970   48.8610 O   0  0  0  0  0  0  0  0  0  0  0  0
   63.3620   33.4090   48.2970 C   0  0  0  0  0  0  0  0  0  0  0  0
   63.1920   33.4260   46.9050 C   0  0  0  0  0  0  0  0  0  0  0  0
   64.0157   33.1113   46.2474 H   0  0  0  0  0  0  0  0  0  0  0  0
   61.9780   33.8420   46.3520 C   0  0  0  0  0  0  0  0  0  0  0  0
   61.8476   33.8477   45.2598 H   0  0  0  0  0  0  0  0  0  0  0  0
   60.9230   34.2530   47.1840 C   0  0  0  0  0  0  0  0  0  0  0  0
   59.6050   34.6640   46.5900 C   0  0  0  0  0  0  0  0  0  0  0  0
   59.7838   35.3201   45.7254 H   0  0  0  0  0  0  0  0  0  0  0  0
   59.0178   35.2003   47.3500 H   0  0  0  0  0  0  0  0  0  0  0  0
   58.8460   33.4560   46.1460 C   0  0  0  0  0  0  0  0  0  0  0  0
   59.0280   32.2230   46.6710 N   0  0  0  0  0  0  0  0  0  0  0  0
   58.1990   31.3090   46.1720 N   0  0  0  0  0  0  0  0  0  0  0  0
   57.3420   31.8080   45.2550 C   0  0  0  0  0  0  0  0  0  0  0  0
   56.4560   31.0620   44.6630 N   0  0  0  0  0  0  0  0  0  0  0  0
   56.3090   29.6350   44.7530 C   0  0  0  0  0  0  0  0  0  0  0  0
   55.2110   29.0710   44.4980 O   0  0  0  0  0  0  0  0  0  0  0  0
   57.4550   28.8120   45.1480 C   0  0  0  0  0  0  0  0  0  0  0  0
   58.4428   28.9945   44.6997 H   0  0  0  0  0  0  0  0  0  0  0  0
   57.3060   27.8670   46.0270 N   0  0  0  0  0  0  0  0  0  0  0  0
   57.1460   26.4620   45.7580 C   0  0  0  0  0  0  0  0  0  0  0  0
   58.2250   25.6300   45.3870 C   0  0  0  0  0  0  0  0  0  0  0  0
   59.2377   26.0513   45.3031 H   0  0  0  0  0  0  0  0  0  0  0  0
   58.0120   24.2740   45.1260 C   0  0  0  0  0  0  0  0  0  0  0  0
   58.8580   23.6306   44.8425 H   0  0  0  0  0  0  0  0  0  0  0  0
   56.7280   23.7330   45.2240 C   0  0  0  0  0  0  0  0  0  0  0  0
   56.5644   22.6641   45.0225 H   0  0  0  0  0  0  0  0  0  0  0  0
   55.6520   24.5500   45.5780 C   0  0  0  0  0  0  0  0  0  0  0  0
   54.6405   24.1238   45.6510 H   0  0  0  0  0  0  0  0  0  0  0  0
   55.8570   25.9090   45.8400 C   0  0  0  0  0  0  0  0  0  0  0  0
   54.7740   26.7090   46.1860 O   0  0  0  0  0  0  0  0  0  0  0  0
   57.5900   33.4650   45.0230 S   0  0  0  0  0  0  0  0  0  0  0  0
   61.0940   34.2220   48.5770 C   0  0  0  0  0  0  0  0  0  0  0  0
   60.2686   34.5268   49.2372 H   0  0  0  0  0  0  0  0  0  0  0  0
   62.3100   33.8050   49.1290 C   0  0  0  0  0  0  0  0  0  0  0  0
   62.4391   33.7886   50.2213 H   0  0  0  0  0  0  0  0  0  0  0  0
  1  2  1  0
  2  3  1  0
  3  4  2  0
  4  5  1  0
  4  6  1  0
  6  7  1  0
  6  8  2  0
  8  9  1  0
  9 10  1  0
  9 11  1  0
  9 12  1  0
 12 13  2  0
 13 14  1  0
 14 15  1  0
 15 16  2  0
 16 17  1  0
 17 18  2  0
 17 19  1  0
 19 20  1  0
 19 21  2  3
 21 22  1  0
 22 23  2  0
 23 24  1  0
 23 25  1  0
 25 26  1  0
 25 27  2  0
 27 28  1  0
 27 29  1  0
 29 30  1  0
 29 31  2  0
 31 32  1  0
 15 33  1  0
  8 34  1  0
 34 35  1  0
 34 36  2  0
 36 37  1  0
 36  3  1  0
 33 12  1  0
 31 22  1  0
M  CHG  2  14  -1  32  -1
M  END
>  <UniqueID>  (92) 
85

>  <SMILES>  (92) 
O=C(C=Nc1ccccc1[O-])/N=c1/[n-]nc(Cc2ccc(O)cc2)s1

>  <Energy>  (92) 
76.26817751406055

>  <Genealogy>  (92) 
O=C(C=Nc1ccccc1[O-])N=c1[n-]nc(Cc2ccc(O)cc2)s1 (protonated)
O=C(C=Nc1ccccc1[O-])/N=c1/[n-]nc(Cc2ccc(O)cc2)s1 (cis-trans isomerization)
O=C(C=Nc1ccccc1[O-])/N=c1/[n-]nc(Cc2ccc(O)cc2)s1 (3D coordinates assigned)
O=C(C=Nc1ccccc1[O-])/N=c1/[n-]nc(Cc2ccc(O)cc2)s1 (optimized conformer: 76.26817751406055 kcal/mol)

>  <smiles>  (92) 
O=C(C=Nc1ccccc1O)N=c1[nH]nc(Cc2ccc(O)cc2)s1

>  <score_type>  (92) 
oracle

>  <origin>  (92) 
adg

>  <m_score__min__energy>  (92) 
-14.210000000000001

>  <m_primary>  (92) 
energy

$$$$
92:0
     RDKit          3D

 33 34  0  0  0  0  0  0  0  0999 V2000
   57.0480   34.2370   44.9630 C   0  0  0  0  0  0  0  0  0  0  0  0
   58.1480   33.5020   45.6030 N   0  0  0  0  0  0  0  0  0  0  0  0
   58.1390   32.1330   45.5920 C   0  0  0  0  0  0  0  0  0  0  0  0
   59.1850   31.4000   46.1810 C   0  0  0  0  0  0  0  0  0  0  0  0
   59.1910   29.9170   46.1800 C   0  0  0  0  0  0  0  0  0  0  0  0
   60.2980   29.3120   46.1660 O   0  0  0  0  0  0  0  0  0  0  0  0
   57.9620   29.1660   46.1900 N   0  0  0  0  0  0  0  0  0  0  0  0
   57.9080   27.7300   46.2470 C   0  0  0  0  0  0  0  0  0  0  0  0
   59.0320   26.9790   46.6320 C   0  0  0  0  0  0  0  0  0  0  0  0
   58.9570   25.5880   46.7110 C   0  0  0  0  0  0  0  0  0  0  0  0
   57.7620   24.9300   46.4200 C   0  0  0  0  0  0  0  0  0  0  0  0
   56.6230   25.6630   46.0540 C   0  0  0  0  0  0  0  0  0  0  0  0
   55.1080   24.8320   45.6990 S   0  0  0  0  0  0  0  0  0  0  0  0
   53.7850   25.9460   45.7030 N   0  0  0  0  0  0  0  0  0  0  0  0
   55.1990   24.1890   44.3430 O   0  0  0  0  0  0  0  0  0  0  0  0
   54.8610   23.7780   46.7410 O   0  0  0  0  0  0  0  0  0  0  0  0
   56.6980   27.0660   45.9730 C   0  0  0  0  0  0  0  0  0  0  0  0
   55.5740   27.8030   45.6110 O   0  0  0  0  0  0  0  0  0  0  0  0
   60.2540   32.1020   46.7490 C   0  0  0  0  0  0  0  0  0  0  0  0
   60.2590   33.4950   46.7440 C   0  0  0  0  0  0  0  0  0  0  0  0
   59.1950   34.1880   46.1630 C   0  0  0  0  0  0  0  0  0  0  0  0
   59.2160   35.4490   46.1570 O   0  0  0  0  0  0  0  0  0  0  0  0
   56.3980   34.6713   45.7369 H   0  0  0  0  0  0  0  0  0  0  0  0
   57.4603   35.0417   44.3365 H   0  0  0  0  0  0  0  0  0  0  0  0
   56.4623   33.5481   44.3365 H   0  0  0  0  0  0  0  0  0  0  0  0
   57.3029   31.5994   45.1164 H   0  0  0  0  0  0  0  0  0  0  0  0
   57.0540   29.6740   46.1160 H   0  0  0  0  0  0  0  0  0  0  0  0
   59.9757   27.4906   46.8723 H   0  0  0  0  0  0  0  0  0  0  0  0
   59.8443   25.0076   47.0041 H   0  0  0  0  0  0  0  0  0  0  0  0
   57.7124   23.8326   46.4777 H   0  0  0  0  0  0  0  0  0  0  0  0
   54.0310   26.7090   46.3730 H   0  0  0  0  0  0  0  0  0  0  0  0
   61.0928   31.5522   47.2008 H   0  0  0  0  0  0  0  0  0  0  0  0
   61.0970   34.0463   47.1955 H   0  0  0  0  0  0  0  0  0  0  0  0
  1  2  1  0
  2  3  1  0
  3  4  2  0
  4  5  1  0
  5  6  2  0
  5  7  1  0
  7  8  1  0
  8  9  2  0
  9 10  1  0
 10 11  2  0
 11 12  1  0
 12 13  1  0
 13 14  1  0
 13 15  2  0
 13 16  2  0
 12 17  2  0
 17 18  1  0
  4 19  1  0
 19 20  2  0
 20 21  1  0
 21 22  2  0
 21  2  1  0
 17  8  1  0
  1 23  1  0
  1 24  1  0
  1 25  1  0
  3 26  1  0
  7 27  1  0
  9 28  1  0
 10 29  1  0
 11 30  1  0
 14 31  1  0
 19 32  1  0
 20 33  1  0
M  CHG  2  14  -1  18  -1
M  END
>  <UniqueID>  (93) 
86

>  <SMILES>  (93) 
Cn1cc(C(=O)Nc2cccc(S([NH-])(=O)=O)c2[O-])ccc1=O

>  <Energy>  (93) 
43.925563368464616

>  <Genealogy>  (93) 
Cn1cc(C(=O)Nc2cccc(S([NH-])(=O)=O)c2[O-])ccc1=O (protonated)
Cn1cc(C(=O)Nc2cccc(S([NH-])(=O)=O)c2[O-])ccc1=O (3D coordinates assigned)
Cn1cc(C(=O)Nc2cccc(S([NH-])(=O)=O)c2[O-])ccc1=O (optimized conformer: 43.925563368464616 kcal/mol)

>  <smiles>  (93) 
Cn1cc(C(=O)Nc2cccc(S(N)(=O)=O)c2O)ccc1=O

>  <score_type>  (93) 
oracle

>  <origin>  (93) 
adg

>  <m_score__min__energy>  (93) 
-13.06

>  <m_primary>  (93) 
energy

$$$$
93:0
     RDKit          3D

 48 49  0  0  0  0  0  0  0  0999 V2000
   62.2000   31.4930   47.1390 C   0  0  0  0  0  0  0  0  0  0  0  0
   62.6460   33.0840   47.8060 S   0  0  0  0  0  0  0  0  0  0  0  0
   63.9940   32.9910   48.4680 O   0  0  0  0  0  0  0  0  0  0  0  0
   62.7210   34.0770   46.6800 O   0  0  0  0  0  0  0  0  0  0  0  0
   61.4590   33.6260   48.9530 N   0  0  0  0  0  0  0  0  0  0  0  0
   60.5380   34.5660   48.3190 C   0  0  0  0  0  0  0  0  0  0  0  0
   59.7470   33.8450   47.2650 C   0  0  0  0  0  0  0  0  0  0  0  0
   59.8620   34.2210   45.9170 C   0  0  0  0  0  0  0  0  0  0  0  0
   59.1040   33.5750   44.9360 C   0  0  0  0  0  0  0  0  0  0  0  0
   58.2220   32.5400   45.2910 C   0  0  0  0  0  0  0  0  0  0  0  0
   57.4050   31.8370   44.2410 C   0  0  0  0  0  0  0  0  0  0  0  0
   56.3640   31.0170   44.8560 N   0  0  0  0  0  0  0  0  0  0  0  0
   56.2770   29.5860   44.7940 C   0  0  0  0  0  0  0  0  0  0  0  0
   55.1440   29.0450   44.8350 O   0  0  0  0  0  0  0  0  0  0  0  0
   57.4420   28.7550   44.7300 N   0  0  0  0  0  0  0  0  0  0  0  0
   58.1950   28.2600   45.8460 C   0  0  0  0  0  0  0  0  0  0  0  0
   58.6630   29.1830   46.7890 C   0  0  0  0  0  0  0  0  0  0  0  0
   59.3960   28.7540   47.8950 C   0  0  0  0  0  0  0  0  0  0  0  0
   59.8660   29.6610   48.7870 F   0  0  0  0  0  0  0  0  0  0  0  0
   59.6500   27.3950   48.0810 C   0  0  0  0  0  0  0  0  0  0  0  0
   59.1600   26.4580   47.1680 C   0  0  0  0  0  0  0  0  0  0  0  0
   58.4090   26.8760   46.0490 C   0  0  0  0  0  0  0  0  0  0  0  0
   57.8620   25.9620   45.1290 O   0  0  0  0  0  0  0  0  0  0  0  0
   57.0660   24.8140   45.4280 C   0  0  0  0  0  0  0  0  0  0  0  0
   55.6980   25.2160   45.9970 C   0  0  0  0  0  0  0  0  0  0  0  0
   55.4920   26.6640   45.9940 N   0  0  0  0  0  0  0  0  0  0  0  0
   58.0880   32.1840   46.6430 C   0  0  0  0  0  0  0  0  0  0  0  0
   58.8420   32.8340   47.6220 C   0  0  0  0  0  0  0  0  0  0  0  0
   62.0034   30.7918   47.9634 H   0  0  0  0  0  0  0  0  0  0  0  0
   61.2958   31.5949   46.5209 H   0  0  0  0  0  0  0  0  0  0  0  0
   63.0254   31.1101   46.5209 H   0  0  0  0  0  0  0  0  0  0  0  0
   59.8538   34.9780   49.0754 H   0  0  0  0  0  0  0  0  0  0  0  0
   61.1063   35.3875   47.8583 H   0  0  0  0  0  0  0  0  0  0  0  0
   60.5524   35.0283   45.6313 H   0  0  0  0  0  0  0  0  0  0  0  0
   59.1982   33.8778   43.8827 H   0  0  0  0  0  0  0  0  0  0  0  0
   56.9345   32.5870   43.5882 H   0  0  0  0  0  0  0  0  0  0  0  0
   58.0693   31.1833   43.6567 H   0  0  0  0  0  0  0  0  0  0  0  0
   58.4510   30.2542   46.6565 H   0  0  0  0  0  0  0  0  0  0  0  0
   60.2375   27.0604   48.9487 H   0  0  0  0  0  0  0  0  0  0  0  0
   59.3609   25.3876   47.3224 H   0  0  0  0  0  0  0  0  0  0  0  0
   56.9140   24.2335   44.5061 H   0  0  0  0  0  0  0  0  0  0  0  0
   57.5933   24.2134   46.1838 H   0  0  0  0  0  0  0  0  0  0  0  0
   54.9113   24.7468   45.3880 H   0  0  0  0  0  0  0  0  0  0  0  0
   55.6585   24.8756   47.0423 H   0  0  0  0  0  0  0  0  0  0  0  0
   55.8660   27.0690   46.8830 H   0  0  0  0  0  0  0  0  0  0  0  0
   56.0170   27.0800   45.1920 H   0  0  0  0  0  0  0  0  0  0  0  0
   57.3852   31.3887   46.9322 H   0  0  0  0  0  0  0  0  0  0  0  0
   58.7259   32.5520   48.6789 H   0  0  0  0  0  0  0  0  0  0  0  0
  1  2  1  0
  2  3  2  0
  2  4  2  0
  2  5  1  0
  5  6  1  0
  6  7  1  0
  7  8  2  0
  8  9  1  0
  9 10  2  0
 10 11  1  0
 11 12  1  0
 12 13  1  0
 13 14  2  0
 13 15  1  0
 15 16  1  0
 16 17  2  0
 17 18  1  0
 18 19  1  0
 18 20  2  0
 20 21  1  0
 21 22  2  0
 22 23  1  0
 23 24  1  0
 24 25  1  0
 25 26  1  0
 10 27  1  0
 27 28  2  0
 28  7  1  0
 22 16  1  0
  1 29  1  0
  1 30  1  0
  1 31  1  0
  6 32  1  0
  6 33  1  0
  8 34  1  0
  9 35  1  0
 11 36  1  0
 11 37  1  0
 17 38  1  0
 20 39  1  0
 21 40  1  0
 24 41  1  0
 24 42  1  0
 25 43  1  0
 25 44  1  0
 26 45  1  0
 26 46  1  0
 27 47  1  0
 28 48  1  0
M  CHG  3   5  -1  12  -1  15  -1
M  END
>  <UniqueID>  (94) 
87

>  <SMILES>  (94) 
CS(=O)(=O)[N-]Cc1ccc(C[N-]C(=O)[N-]c2cc(F)ccc2OCCN)cc1

>  <Energy>  (94) 
45.6800956795057

>  <Genealogy>  (94) 
CS(=O)(=O)[N-]Cc1ccc(C[N-]C(=O)[N-]c2cc(F)ccc2OCCN)cc1 (protonated)
CS(=O)(=O)[N-]Cc1ccc(C[N-]C(=O)[N-]c2cc(F)ccc2OCCN)cc1 (3D coordinates assigned)
CS(=O)(=O)[N-]Cc1ccc(C[N-]C(=O)[N-]c2cc(F)ccc2OCCN)cc1 (optimized conformer: 45.6800956795057 kcal/mol)

>  <smiles>  (94) 
CS(=O)(=O)NCc1ccc(CNC(=O)Nc2cc(F)ccc2OCCN)cc1

>  <score_type>  (94) 
oracle

>  <origin>  (94) 
adg

>  <m_score__min__energy>  (94) 
-12.19

>  <m_primary>  (94) 
energy

$$$$
