0:0
     RDKit          3D

 54 58  0  0  0  0  0  0  0  0999 V2000
   59.7110   30.8331   45.6762 H   0  0  0  0  0  0  0  0  0  0  0  0
   58.9600   30.1420   45.2660 C   0  0  0  0  0  0  0  0  0  0  0  0
   57.5480   30.5720   45.2140 C   0  0  0  0  0  0  0  0  0  0  0  0
   56.6550   29.6930   45.1070 O   0  0  0  0  0  0  0  0  0  0  0  0
   57.1590   31.9530   45.2540 N   0  0  0  0  0  0  0  0  0  0  0  0
   57.9170   32.9300   45.6530 C   0  0  0  0  0  0  0  0  0  0  0  0
   58.3610   33.0750   46.9210 N   0  0  0  0  0  0  0  0  0  0  0  0
   59.0960   34.2110   47.0630 C   0  0  0  0  0  0  0  0  0  0  0  0
   59.6420   34.6370   48.3930 C   0  0  0  0  0  0  0  0  0  0  0  0
   60.0338   35.6619   48.3147 H   0  0  0  0  0  0  0  0  0  0  0  0
   58.8372   34.6018   49.1420 H   0  0  0  0  0  0  0  0  0  0  0  0
   60.7520   33.7090   48.8150 C   0  0  0  0  0  0  0  0  0  0  0  0
   61.2740   33.8970   49.9050 O   0  0  0  0  0  0  0  0  0  0  0  0
   61.2280   32.6560   47.9230 N   0  0  2  0  0  0  0  0  0  0  0  0
   60.4190   32.4080   47.3050 H   0  0  0  0  0  0  0  0  0  0  0  0
   61.5980   31.4230   48.6670 C   0  0  0  0  0  0  0  0  0  0  0  0
   61.6672   30.5827   47.9606 H   0  0  0  0  0  0  0  0  0  0  0  0
   60.8261   31.2236   49.4249 H   0  0  0  0  0  0  0  0  0  0  0  0
   62.9110   31.5930   49.3550 C   0  0  0  0  0  0  0  0  0  0  0  0
   63.8710   32.4680   48.8970 C   0  0  0  0  0  0  0  0  0  0  0  0
   64.9450   32.3240   49.7470 C   0  0  0  0  0  0  0  0  0  0  0  0
   66.1780   32.9690   49.7950 C   0  0  0  0  0  0  0  0  0  0  0  0
   66.4403   33.7505   49.0667 H   0  0  0  0  0  0  0  0  0  0  0  0
   67.0770   32.5860   50.8080 C   0  0  0  0  0  0  0  0  0  0  0  0
   68.0613   33.0723   50.8772 H   0  0  0  0  0  0  0  0  0  0  0  0
   66.7240   31.5810   51.7370 C   0  0  0  0  0  0  0  0  0  0  0  0
   67.4369   31.2903   52.5226 H   0  0  0  0  0  0  0  0  0  0  0  0
   65.4690   30.9490   51.6660 C   0  0  0  0  0  0  0  0  0  0  0  0
   65.1859   30.1654   52.3842 H   0  0  0  0  0  0  0  0  0  0  0  0
   64.5960   31.3490   50.6550 C   0  0  0  0  0  0  0  0  0  0  0  0
   63.3540   30.8830   50.4170 N   0  0  0  0  0  0  0  0  0  0  0  0
   62.8460   30.1330   50.9350 H   0  0  0  0  0  0  0  0  0  0  0  0
   63.6680   33.4020   47.7480 C   0  0  0  0  0  0  0  0  0  0  0  0
   64.5012   33.2880   47.0389 H   0  0  0  0  0  0  0  0  0  0  0  0
   63.6311   34.4318   48.1329 H   0  0  0  0  0  0  0  0  0  0  0  0
   62.3310   33.0950   47.0170 C   0  0  0  0  0  0  0  0  0  0  0  0
   62.5139   32.2962   46.2832 H   0  0  0  0  0  0  0  0  0  0  0  0
   62.0022   34.0346   46.5489 H   0  0  0  0  0  0  0  0  0  0  0  0
   59.2160   34.9840   45.9090 C   0  0  0  0  0  0  0  0  0  0  0  0
   59.7587   35.9370   45.8234 H   0  0  0  0  0  0  0  0  0  0  0  0
   58.3860   34.2050   44.6700 S   0  0  0  0  0  0  0  0  0  0  0  0
   59.3570   28.9400   44.8310 C   0  0  0  0  0  0  0  0  0  0  0  0
   60.1453   28.8858   44.0657 H   0  0  0  0  0  0  0  0  0  0  0  0
   58.7710   27.6800   45.3450 C   0  0  0  0  0  0  0  0  0  0  0  0
   58.1880   26.7690   44.4370 C   0  0  0  0  0  0  0  0  0  0  0  0
   58.1360   27.0890   42.7060 Cl  0  0  0  0  0  0  0  0  0  0  0  0
   57.6430   25.5650   44.9000 C   0  0  0  0  0  0  0  0  0  0  0  0
   57.2045   24.8527   44.1856 H   0  0  0  0  0  0  0  0  0  0  0  0
   57.6530   25.2640   46.2610 C   0  0  0  0  0  0  0  0  0  0  0  0
   57.2360   24.3101   46.6161 H   0  0  0  0  0  0  0  0  0  0  0  0
   58.1910   26.1710   47.1720 C   0  0  0  0  0  0  0  0  0  0  0  0
   58.1850   25.9344   48.2462 H   0  0  0  0  0  0  0  0  0  0  0  0
   58.7390   27.3810   46.7300 C   0  0  0  0  0  0  0  0  0  0  0  0
   59.2830   28.5240   47.9550 Cl  0  0  0  0  0  0  0  0  0  0  0  0
  1  2  1  0
  2  3  1  0
  3  4  2  0
  3  5  1  0
  5  6  2  0
  6  7  1  0
  7  8  1  0
  8  9  1  0
  9 10  1  0
  9 11  1  0
  9 12  1  0
 12 13  2  0
 12 14  1  0
 14 15  1  6
 14 16  1  0
 16 17  1  0
 16 18  1  0
 16 19  1  0
 19 20  2  0
 20 21  1  0
 21 22  2  0
 22 23  1  0
 22 24  1  0
 24 25  1  0
 24 26  2  0
 26 27  1  0
 26 28  1  0
 28 29  1  0
 28 30  2  0
 30 31  1  0
 31 32  1  0
 20 33  1  0
 33 34  1  0
 33 35  1  0
 33 36  1  0
 36 37  1  0
 36 38  1  0
  8 39  2  0
 39 40  1  0
 39 41  1  0
  2 42  2  3
 42 43  1  0
 42 44  1  0
 44 45  2  0
 45 46  1  0
 45 47  1  0
 47 48  1  0
 47 49  2  0
 49 50  1  0
 49 51  1  0
 51 52  1  0
 51 53  2  0
 53 54  1  0
 41  6  1  0
 53 44  1  0
 36 14  1  0
 31 19  1  0
 30 21  1  0
M  CHG  2   7  -1  14   1
M  END
>  <UniqueID>  (1) 
1

>  <SMILES>  (1) 
O=C(C=Cc1c(Cl)cccc1Cl)/N=c1\[n-]c(CC(=O)[N@H+]2CCc3c([nH]c4ccccc34)C2)cs1

>  <Energy>  (1) 
139.7894379182561

>  <Genealogy>  (1) 
O=C(C=Cc1c(Cl)cccc1Cl)N=c1[n-]c(CC(=O)[NH+]2CCc3c([nH]c4ccccc34)C2)cs1 (protonated)
O=C(C=Cc1c(Cl)cccc1Cl)N=c1[n-]c(CC(=O)[N@H+]2CCc3c([nH]c4ccccc34)C2)cs1 (chirality)
O=C(C=Cc1c(Cl)cccc1Cl)/N=c1\[n-]c(CC(=O)[N@H+]2CCc3c([nH]c4ccccc34)C2)cs1 (cis-trans isomerization)
O=C(C=Cc1c(Cl)cccc1Cl)/N=c1\[n-]c(CC(=O)[N@H+]2CCc3c([nH]c4ccccc34)C2)cs1 (3D coordinates assigned)
O=C(C=Cc1c(Cl)cccc1Cl)/N=c1\[n-]c(CC(=O)[N@H+]2CCc3c([nH]c4ccccc34)C2)cs1 (nonaromatic ring conformer: 139.7894379182561 kcal/mol)

>  <smiles>  (1) 
O=C(C=Cc1c(Cl)cccc1Cl)N=c1[nH]c(CC(=O)N2CCc3c([nH]c4ccccc34)C2)cs1

>  <score_type>  (1) 
oracle

>  <origin>  (1) 
adg

>  <m_score__min__energy>  (1) 
-10.57

>  <m_primary>  (1) 
energy

$$$$
1:0
     RDKit          3D

 37 39  0  0  0  0  0  0  0  0999 V2000
   57.1960   34.4640   45.5000 O   0  0  0  0  0  0  0  0  0  0  0  0
   58.2300   33.7450   45.4270 C   0  0  0  0  0  0  0  0  0  0  0  0
   58.3790   32.7740   44.2840 C   0  0  0  0  0  0  0  0  0  0  0  0
   57.9620   31.4180   44.6790 N   0  0  0  0  0  0  0  0  0  0  0  0
   58.3170   30.9390   45.9070 C   0  0  0  0  0  0  0  0  0  0  0  0
   57.9530   29.6540   46.2990 C   0  0  0  0  0  0  0  0  0  0  0  0
   57.2190   28.8580   45.4150 C   0  0  0  0  0  0  0  0  0  0  0  0
   56.8220   27.4840   45.8130 C   0  0  0  0  0  0  0  0  0  0  0  0
   57.7480   26.5790   46.3560 C   0  0  0  0  0  0  0  0  0  0  0  0
   57.3100   25.3000   46.7050 C   0  0  0  0  0  0  0  0  0  0  0  0
   58.1160   24.4660   47.1940 O   0  0  0  0  0  0  0  0  0  0  0  0
   56.0120   24.9500   46.5100 N   0  0  0  0  0  0  0  0  0  0  0  0
   55.1270   25.8300   45.9750 C   0  0  0  0  0  0  0  0  0  0  0  0
   53.9300   25.4880   45.7970 O   0  0  0  0  0  0  0  0  0  0  0  0
   55.5340   27.0790   45.6300 N   0  0  0  0  0  0  0  0  0  0  0  0
   56.9020   29.3560   44.1830 N   0  0  0  0  0  0  0  0  0  0  0  0
   57.2670   30.6140   43.8120 C   0  0  0  0  0  0  0  0  0  0  0  0
   56.9630   31.0300   42.6590 O   0  0  0  0  0  0  0  0  0  0  0  0
   59.2730   33.9040   46.4040 N   0  0  0  0  0  0  0  0  0  0  0  0
   59.1680   34.8150   47.5300 C   0  0  0  0  0  0  0  0  0  0  0  0
   60.4180   34.5800   48.3670 C   0  0  0  0  0  0  0  0  0  0  0  0
   61.3960   33.8400   47.4590 C   0  0  0  0  0  0  0  0  0  0  0  0
   60.5500   33.2110   46.3600 C   0  0  0  0  0  0  0  0  0  0  0  0
   57.7545   33.1108   43.4434 H   0  0  0  0  0  0  0  0  0  0  0  0
   59.4388   32.7409   43.9911 H   0  0  0  0  0  0  0  0  0  0  0  0
   58.8961   31.5745   46.5931 H   0  0  0  0  0  0  0  0  0  0  0  0
   58.2387   29.2706   47.2897 H   0  0  0  0  0  0  0  0  0  0  0  0
   58.7980   26.8719   46.5036 H   0  0  0  0  0  0  0  0  0  0  0  0
   56.3980   28.7620   43.4880 H   0  0  0  0  0  0  0  0  0  0  0  0
   59.1318   35.8567   47.1786 H   0  0  0  0  0  0  0  0  0  0  0  0
   58.2508   34.6387   48.1111 H   0  0  0  0  0  0  0  0  0  0  0  0
   60.8476   35.5394   48.6909 H   0  0  0  0  0  0  0  0  0  0  0  0
   60.1932   34.0015   49.2752 H   0  0  0  0  0  0  0  0  0  0  0  0
   62.1237   34.5427   47.0270 H   0  0  0  0  0  0  0  0  0  0  0  0
   61.9672   33.0810   48.0137 H   0  0  0  0  0  0  0  0  0  0  0  0
   61.0289   33.3505   45.3796 H   0  0  0  0  0  0  0  0  0  0  0  0
   60.4303   32.1277   46.5085 H   0  0  0  0  0  0  0  0  0  0  0  0
  1  2  2  0
  2  3  1  0
  3  4  1  0
  4  5  1  0
  5  6  2  0
  6  7  1  0
  7  8  1  0
  8  9  2  0
  9 10  1  0
 10 11  2  0
 10 12  1  0
 12 13  1  0
 13 14  2  0
 13 15  1  0
  7 16  2  0
 16 17  1  0
 17 18  2  0
  2 19  1  0
 19 20  1  0
 20 21  1  0
 21 22  1  0
 22 23  1  0
 17  4  1  0
 23 19  1  0
 15  8  1  0
  3 24  1  0
  3 25  1  0
  5 26  1  0
  6 27  1  0
  9 28  1  0
 16 29  1  0
 20 30  1  0
 20 31  1  0
 21 32  1  0
 21 33  1  0
 22 34  1  0
 22 35  1  0
 23 36  1  0
 23 37  1  0
M  CHG  3  12  -1  15  -1  16   1
M  END
>  <UniqueID>  (2) 
2

>  <SMILES>  (2) 
O=C(Cn1ccc(-c2cc(=O)[n-]c(=O)[n-]2)[nH+]c1=O)N1CCCC1

>  <Energy>  (2) 
44.01223361761754

>  <Genealogy>  (2) 
O=C(Cn1ccc(-c2cc(=O)[n-]c(=O)[n-]2)[nH+]c1=O)N1CCCC1 (protonated)
O=C(Cn1ccc(-c2cc(=O)[n-]c(=O)[n-]2)[nH+]c1=O)N1CCCC1 (3D coordinates assigned)
O=C(Cn1ccc(-c2cc(=O)[n-]c(=O)[n-]2)[nH+]c1=O)N1CCCC1 (nonaromatic ring conformer: 44.01223361761754 kcal/mol)

>  <smiles>  (2) 
O=C(Cn1ccc(-c2cc(=O)[nH]c(=O)[nH]2)nc1=O)N1CCCC1

>  <score_type>  (2) 
oracle

>  <origin>  (2) 
adg

>  <m_score__min__energy>  (2) 
-10.59

>  <m_primary>  (2) 
energy

$$$$
2:0
     RDKit          3D

 40 41  0  0  0  0  0  0  0  0999 V2000
   58.1638   33.7412   43.3363 H   0  0  0  0  0  0  0  0  0  0  0  0
   58.0500   32.8430   43.9610 C   0  0  0  0  0  0  0  0  0  0  0  0
   57.6480   31.6400   43.3780 C   0  0  0  0  0  0  0  0  0  0  0  0
   57.4418   31.5965   42.2984 H   0  0  0  0  0  0  0  0  0  0  0  0
   57.5060   30.4870   44.1630 C   0  0  0  0  0  0  0  0  0  0  0  0
   57.0340   29.1980   43.5410 C   0  0  0  0  0  0  0  0  0  0  0  0
   55.9675   29.2874   43.2868 H   0  0  0  0  0  0  0  0  0  0  0  0
   57.6237   29.0027   42.6332 H   0  0  0  0  0  0  0  0  0  0  0  0
   57.2170   28.0780   44.4800 N   0  0  0  0  0  0  0  0  0  0  0  0
   56.6420   27.2670   44.1520 H   0  0  0  0  0  0  0  0  0  0  0  0
   56.8830   28.3520   45.4350 H   0  0  0  0  0  0  0  0  0  0  0  0
   58.6220   27.6440   44.5490 C   0  0  0  0  0  0  0  0  0  0  0  0
   58.8686   27.0871   43.6330 H   0  0  0  0  0  0  0  0  0  0  0  0
   59.2534   28.5393   44.6475 H   0  0  0  0  0  0  0  0  0  0  0  0
   58.8720   26.7610   45.7380 C   0  0  0  0  0  0  0  0  0  0  0  0
   60.0430   26.3630   45.9770 O   0  0  0  0  0  0  0  0  0  0  0  0
   57.7670   26.3940   46.5800 N   0  0  0  0  0  0  0  0  0  0  0  0
   56.6010   25.9330   46.2270 C   0  0  0  0  0  0  0  0  0  0  0  0
   55.5490   26.7420   46.0020 N   0  0  0  0  0  0  0  0  0  0  0  0
   54.5500   25.9730   45.6800 O   0  0  0  0  0  0  0  0  0  0  0  0
   54.9020   24.7090   45.6940 C   0  0  0  0  0  0  0  0  0  0  0  0
   53.9950   23.5750   45.3510 C   0  0  0  0  0  0  0  0  0  0  0  0
   53.6232   23.1101   46.2760 H   0  0  0  0  0  0  0  0  0  0  0  0
   53.1452   23.9504   44.7621 H   0  0  0  0  0  0  0  0  0  0  0  0
   54.5480   22.8284   44.7621 H   0  0  0  0  0  0  0  0  0  0  0  0
   56.2330   24.6100   46.0410 C   0  0  0  0  0  0  0  0  0  0  0  0
   56.8498   23.7051   46.1445 H   0  0  0  0  0  0  0  0  0  0  0  0
   57.7420   30.5580   45.5440 C   0  0  0  0  0  0  0  0  0  0  0  0
   57.6099   29.6605   46.1662 H   0  0  0  0  0  0  0  0  0  0  0  0
   58.1470   31.7690   46.1420 C   0  0  0  0  0  0  0  0  0  0  0  0
   58.3910   31.8690   47.5220 O   0  0  0  0  0  0  0  0  0  0  0  0
   59.2250   30.9820   48.2620 C   0  0  0  0  0  0  0  0  0  0  0  0
   59.0706   31.1462   49.3387 H   0  0  0  0  0  0  0  0  0  0  0  0
   58.9698   29.9423   48.0093 H   0  0  0  0  0  0  0  0  0  0  0  0
   60.2785   31.1727   48.0093 H   0  0  0  0  0  0  0  0  0  0  0  0
   58.3100   32.9150   45.3380 C   0  0  0  0  0  0  0  0  0  0  0  0
   58.7290   34.2180   45.9570 C   0  0  0  0  0  0  0  0  0  0  0  0
   58.7004   34.1292   47.0530 H   0  0  0  0  0  0  0  0  0  0  0  0
   59.7517   34.4645   45.6356 H   0  0  0  0  0  0  0  0  0  0  0  0
   58.0417   35.0144   45.6356 H   0  0  0  0  0  0  0  0  0  0  0  0
  1  2  1  0
  2  3  2  0
  3  4  1  0
  3  5  1  0
  5  6  1  0
  6  7  1  0
  6  8  1  0
  6  9  1  0
  9 10  1  0
  9 11  1  0
  9 12  1  0
 12 13  1  0
 12 14  1  0
 12 15  1  0
 15 16  2  0
 15 17  1  0
 17 18  2  0
 18 19  1  0
 19 20  1  0
 20 21  1  0
 21 22  1  0
 22 23  1  0
 22 24  1  0
 22 25  1  0
 21 26  2  0
 26 27  1  0
  5 28  2  0
 28 29  1  0
 28 30  1  0
 30 31  1  0
 31 32  1  0
 32 33  1  0
 32 34  1  0
 32 35  1  0
 30 36  2  0
 36 37  1  0
 37 38  1  0
 37 39  1  0
 37 40  1  0
 36  2  1  0
 26 18  1  0
M  CHG  2   9   1  19  -1
M  END
>  <UniqueID>  (3) 
3

>  <SMILES>  (3) 
COc1cc(C[NH2+]CC(=O)/N=c2\cc(C)o[n-]2)ccc1C

>  <Energy>  (3) 
70.89973077663795

>  <Genealogy>  (3) 
COc1cc(C[NH2+]CC(=O)N=c2cc(C)o[n-]2)ccc1C (protonated)
COc1cc(C[NH2+]CC(=O)/N=c2\cc(C)o[n-]2)ccc1C (cis-trans isomerization)
COc1cc(C[NH2+]CC(=O)/N=c2\cc(C)o[n-]2)ccc1C (3D coordinates assigned)
COc1cc(C[NH2+]CC(=O)/N=c2\cc(C)o[n-]2)ccc1C (optimized conformer: 70.89973077663795 kcal/mol)

>  <smiles>  (3) 
COc1cc(CNCC(=O)N=c2cc(C)o[nH]2)ccc1C

>  <score_type>  (3) 
oracle

>  <origin>  (3) 
adg

>  <m_score__min__energy>  (3) 
-7.1799999999999997

>  <m_primary>  (3) 
energy

$$$$
3:0
     RDKit          3D

 55 58  0  0  0  0  0  0  0  0999 V2000
   52.5832   24.2723   45.2050 H   0  0  0  0  0  0  0  0  0  0  0  0
   53.6830   24.2920   45.2090 C   0  0  0  0  0  0  0  0  0  0  0  0
   54.3420   25.2180   45.9520 N   0  0  0  0  0  0  0  0  0  0  0  0
   55.7000   25.2890   45.9970 C   0  0  0  0  0  0  0  0  0  0  0  0
   56.2410   26.2220   46.7330 N   0  0  0  0  0  0  0  0  0  0  0  0
   57.6230   26.6120   46.8410 C   0  0  0  0  0  0  0  0  0  0  0  0
   58.3710   26.0800   47.7060 O   0  0  0  0  0  0  0  0  0  0  0  0
   58.1460   27.7120   45.9960 C   0  0  0  0  0  0  0  0  0  0  0  0
   59.5290   27.8600   45.7870 C   0  0  0  0  0  0  0  0  0  0  0  0
   60.2307   27.1544   46.2558 H   0  0  0  0  0  0  0  0  0  0  0  0
   60.0180   28.8970   44.9880 C   0  0  0  0  0  0  0  0  0  0  0  0
   61.1016   29.0018   44.8301 H   0  0  0  0  0  0  0  0  0  0  0  0
   59.1380   29.8010   44.3890 C   0  0  0  0  0  0  0  0  0  0  0  0
   59.5296   30.6116   43.7569 H   0  0  0  0  0  0  0  0  0  0  0  0
   57.7560   29.6770   44.5920 C   0  0  0  0  0  0  0  0  0  0  0  0
   56.8000   30.6350   43.9400 C   0  0  0  0  0  0  0  0  0  0  0  0
   55.8706   30.1068   43.6807 H   0  0  0  0  0  0  0  0  0  0  0  0
   57.2552   31.0438   43.0259 H   0  0  0  0  0  0  0  0  0  0  0  0
   56.5000   31.7230   44.8640 N   0  0  0  0  0  0  0  0  0  0  0  0
   57.3970   32.7490   45.3110 C   0  0  0  0  0  0  0  0  0  0  0  0
   57.5130   33.7810   44.6000 O   0  0  0  0  0  0  0  0  0  0  0  0
   58.2260   32.6440   46.5360 C   0  0  0  0  0  0  0  0  0  0  0  0
   58.5170   31.5190   47.2950 C   0  0  0  0  0  0  0  0  0  0  0  0
   58.2093   30.4832   47.0888 H   0  0  0  0  0  0  0  0  0  0  0  0
   59.2710   31.9650   48.3610 C   0  0  0  0  0  0  0  0  0  0  0  0
   59.8200   31.1090   49.3720 N   0  0  0  0  0  0  0  0  0  0  0  0
   59.9330   31.5010   50.3320 H   0  0  0  0  0  0  0  0  0  0  0  0
   60.4220   29.8420   49.0760 C   0  0  0  0  0  0  0  0  0  0  0  0
   60.6680   29.5160   47.8840 O   0  0  0  0  0  0  0  0  0  0  0  0
   60.7870   28.9270   50.1680 C   0  0  0  0  0  0  0  0  0  0  0  0
   61.1450   29.3190   51.3700 O   0  0  0  0  0  0  0  0  0  0  0  0
   61.3970   28.2540   52.0990 C   0  0  0  0  0  0  0  0  0  0  0  0
   61.7192   28.2684   53.1506 H   0  0  0  0  0  0  0  0  0  0  0  0
   61.1960   27.1150   51.3450 C   0  0  0  0  0  0  0  0  0  0  0  0
   61.3245   26.0733   51.6743 H   0  0  0  0  0  0  0  0  0  0  0  0
   60.8020   27.5460   50.0970 C   0  0  0  0  0  0  0  0  0  0  0  0
   60.5517   26.9221   49.2263 H   0  0  0  0  0  0  0  0  0  0  0  0
   59.4790   33.2970   48.2750 N   0  0  0  0  0  0  0  0  0  0  0  0
   60.2740   34.1430   49.1620 C   0  0  0  0  0  0  0  0  0  0  0  0
   60.0423   33.8965   50.2087 H   0  0  0  0  0  0  0  0  0  0  0  0
   61.3436   33.9697   48.9726 H   0  0  0  0  0  0  0  0  0  0  0  0
   60.0346   35.1998   48.9726 H   0  0  0  0  0  0  0  0  0  0  0  0
   58.8190   33.7200   47.1790 C   0  0  0  0  0  0  0  0  0  0  0  0
   58.7594   34.7659   46.8435 H   0  0  0  0  0  0  0  0  0  0  0  0
   57.2650   28.6240   45.3850 C   0  0  0  0  0  0  0  0  0  0  0  0
   56.1803   28.5120   45.5293 H   0  0  0  0  0  0  0  0  0  0  0  0
   56.4550   24.3840   45.2210 C   0  0  0  0  0  0  0  0  0  0  0  0
   57.5529   24.4513   45.2083 H   0  0  0  0  0  0  0  0  0  0  0  0
   55.8010   23.3960   44.4640 C   0  0  0  0  0  0  0  0  0  0  0  0
   56.5880   22.4540   43.5860 C   0  0  0  0  0  0  0  0  0  0  0  0
   56.3380   22.7510   42.2580 F   0  0  0  0  0  0  0  0  0  0  0  0
   56.2250   21.1410   43.8310 F   0  0  0  0  0  0  0  0  0  0  0  0
   57.9470   22.5800   43.8270 F   0  0  0  0  0  0  0  0  0  0  0  0
   54.3990   23.3660   44.4510 C   0  0  0  0  0  0  0  0  0  0  0  0
   53.8672   22.6165   43.8465 H   0  0  0  0  0  0  0  0  0  0  0  0
  1  2  1  0
  2  3  1  0
  3  4  1  0
  4  5  2  0
  5  6  1  0
  6  7  2  0
  6  8  1  0
  8  9  2  0
  9 10  1  0
  9 11  1  0
 11 12  1  0
 11 13  2  0
 13 14  1  0
 13 15  1  0
 15 16  1  0
 16 17  1  0
 16 18  1  0
 16 19  1  0
 19 20  1  0
 20 21  2  0
 20 22  1  0
 22 23  1  0
 23 24  1  0
 23 25  2  0
 25 26  1  0
 26 27  1  0
 26 28  1  0
 28 29  2  0
 28 30  1  0
 30 31  1  0
 31 32  1  0
 32 33  1  0
 32 34  2  0
 34 35  1  0
 34 36  1  0
 36 37  1  0
 25 38  1  0
 38 39  1  0
 39 40  1  0
 39 41  1  0
 39 42  1  0
 38 43  1  0
 43 44  1  0
 15 45  2  0
 45 46  1  0
  4 47  1  0
 47 48  1  0
 47 49  2  0
 49 50  1  0
 50 51  1  0
 50 52  1  0
 50 53  1  0
 49 54  1  0
 54 55  1  0
 54  2  2  0
 45  8  1  0
 43 22  2  0
 36 30  2  0
M  CHG  2   3  -1  19  -1
M  END
>  <UniqueID>  (4) 
4

>  <SMILES>  (4) 
Cn1cc(C(=O)[N-]Cc2cccc(C(=O)/N=c3\cc(C(F)(F)F)cc[n-]3)c2)cc1NC(=O)c1ccco1

>  <Energy>  (4) 
126.44967644212122

>  <Genealogy>  (4) 
Cn1cc(C(=O)[N-]Cc2cccc(C(=O)N=c3cc(C(F)(F)F)cc[n-]3)c2)cc1NC(=O)c1ccco1 (protonated)
Cn1cc(C(=O)[N-]Cc2cccc(C(=O)/N=c3\cc(C(F)(F)F)cc[n-]3)c2)cc1NC(=O)c1ccco1 (cis-trans isomerization)
Cn1cc(C(=O)[N-]Cc2cccc(C(=O)/N=c3\cc(C(F)(F)F)cc[n-]3)c2)cc1NC(=O)c1ccco1 (3D coordinates assigned)
Cn1cc(C(=O)[N-]Cc2cccc(C(=O)/N=c3\cc(C(F)(F)F)cc[n-]3)c2)cc1NC(=O)c1ccco1 (optimized conformer: 126.44967644212122 kcal/mol)

>  <smiles>  (4) 
Cn1cc(C(=O)NCc2cccc(C(=O)N=c3cc(C(F)(F)F)cc[nH]3)c2)cc1NC(=O)c1ccco1

>  <score_type>  (4) 
oracle

>  <origin>  (4) 
adg

>  <m_score__min__energy>  (4) 
-10.960000000000001

>  <m_primary>  (4) 
energy

$$$$
4:0
     RDKit          3D

 30 32  0  0  0  0  0  0  0  0999 V2000
   59.9130   35.7090   46.3970 C   0  0  0  0  0  0  0  0  0  0  0  0
   59.3050   34.5610   46.0760 C   0  0  0  0  0  0  0  0  0  0  0  0
   59.4300   33.4350   46.9050 C   0  0  0  0  0  0  0  0  0  0  0  0
   58.7940   32.2360   46.5720 C   0  0  0  0  0  0  0  0  0  0  0  0
   58.0160   32.1330   45.3990 C   0  0  0  0  0  0  0  0  0  0  0  0
   57.4010   30.9730   45.0750 C   0  0  0  0  0  0  0  0  0  0  0  0
   56.0880   30.8900   44.7510 N   0  0  0  0  0  0  0  0  0  0  0  0
   55.9050   29.5840   44.5050 C   0  0  0  0  0  0  0  0  0  0  0  0
   54.8030   29.1000   44.1350 O   0  0  0  0  0  0  0  0  0  0  0  0
   57.0880   28.8940   44.6850 C   0  0  0  0  0  0  0  0  0  0  0  0
   57.3350   27.5850   44.5260 C   0  0  0  0  0  0  0  0  0  0  0  0
   57.3400   26.6010   45.6300 C   0  0  0  0  0  0  0  0  0  0  0  0
   56.1490   26.1980   46.2560 C   0  0  0  0  0  0  0  0  0  0  0  0
   54.9210   26.7010   45.8410 O   0  0  0  0  0  0  0  0  0  0  0  0
   56.1910   25.3160   47.2900 N   0  0  0  0  0  0  0  0  0  0  0  0
   57.3730   24.8260   47.7440 C   0  0  0  0  0  0  0  0  0  0  0  0
   57.3880   24.0100   48.7010 O   0  0  0  0  0  0  0  0  0  0  0  0
   58.5390   25.2230   47.1730 N   0  0  0  0  0  0  0  0  0  0  0  0
   58.5500   26.1010   46.1360 C   0  0  0  0  0  0  0  0  0  0  0  0
   59.6510   26.4510   45.6340 O   0  0  0  0  0  0  0  0  0  0  0  0
   58.0390   29.7770   45.0390 N   0  0  0  0  0  0  0  0  0  0  0  0
   57.8970   33.2700   44.5720 C   0  0  0  0  0  0  0  0  0  0  0  0
   58.5340   34.4690   44.9080 C   0  0  0  0  0  0  0  0  0  0  0  0
   59.8106   36.5873   45.7427 H   0  0  0  0  0  0  0  0  0  0  0  0
   60.5152   35.7744   47.3152 H   0  0  0  0  0  0  0  0  0  0  0  0
   60.0327   33.4969   47.8231 H   0  0  0  0  0  0  0  0  0  0  0  0
   58.9010   31.3624   47.2318 H   0  0  0  0  0  0  0  0  0  0  0  0
   57.5473   27.2205   43.5101 H   0  0  0  0  0  0  0  0  0  0  0  0
   57.2963   33.2128   43.6523 H   0  0  0  0  0  0  0  0  0  0  0  0
   58.4296   35.3457   44.2518 H   0  0  0  0  0  0  0  0  0  0  0  0
  1  2  2  0
  2  3  1  0
  3  4  2  0
  4  5  1  0
  5  6  2  3
  6  7  1  0
  7  8  1  0
  8  9  2  0
  8 10  1  0
 10 11  2  3
 11 12  1  0
 12 13  2  0
 13 14  1  0
 13 15  1  0
 15 16  1  0
 16 17  2  0
 16 18  1  0
 18 19  1  0
 19 20  2  0
 10 21  1  0
  5 22  1  0
 22 23  2  0
 23  2  1  0
 21  6  1  0
 19 12  1  0
  1 24  1  0
  1 25  1  0
  3 26  1  0
  4 27  1  0
 11 28  1  0
 22 29  1  0
 23 30  1  0
M  CHG  5   7  -1  14  -1  15  -1  18  -1  21  -1
M  END
>  <UniqueID>  (5) 
5

>  <SMILES>  (5) 
C=c1ccc(=c2[n-]c(=O)c(=Cc3c([O-])[n-]c(=O)[n-]c3=O)[n-]2)cc1

>  <Energy>  (5) 
78.13458061737495

>  <Genealogy>  (5) 
C=c1ccc(=c2[n-]c(=O)c(=Cc3c([O-])[n-]c(=O)[n-]c3=O)[n-]2)cc1 (protonated)
C=c1ccc(=c2[n-]c(=O)c(=Cc3c([O-])[n-]c(=O)[n-]c3=O)[n-]2)cc1 (3D coordinates assigned)
C=c1ccc(=c2[n-]c(=O)c(=Cc3c([O-])[n-]c(=O)[n-]c3=O)[n-]2)cc1 (optimized conformer: 78.13458061737495 kcal/mol)

>  <smiles>  (5) 
C=c1ccc(=c2[nH]c(=O)c(=Cc3c(O)[nH]c(=O)[nH]c3=O)[nH]2)cc1

>  <score_type>  (5) 
oracle

>  <origin>  (5) 
adg

>  <m_score__min__energy>  (5) 
-17.629999999999999

>  <m_primary>  (5) 
energy

$$$$
5:0
     RDKit          3D

 37 38  0  0  0  0  0  0  0  0999 V2000
   57.0230   31.2370   42.1970 C   0  0  0  0  0  0  0  0  0  0  0  0
   57.2890   30.8040   43.4320 C   0  0  0  0  0  0  0  0  0  0  0  0
   58.4850   30.9760   44.1020 C   0  0  0  0  0  0  0  0  0  0  0  0
   58.3100   30.3750   45.3370 C   0  0  0  0  0  0  0  0  0  0  0  0
   59.3290   30.3110   46.4050 C   0  0  0  0  0  0  0  0  0  0  0  0
   60.4870   29.9080   46.1180 O   0  0  0  0  0  0  0  0  0  0  0  0
   59.0570   30.6950   47.7580 N   0  0  0  0  0  0  0  0  0  0  0  0
   58.4420   31.9470   48.1800 C   0  0  0  0  0  0  0  0  0  0  0  0
   58.7160   33.0070   47.1480 C   0  0  0  0  0  0  0  0  0  0  0  0
   57.8140   33.2010   46.0870 C   0  0  0  0  0  0  0  0  0  0  0  0
   58.0430   34.1970   45.1370 C   0  0  0  0  0  0  0  0  0  0  0  0
   59.1680   35.0160   45.2410 C   0  0  0  0  0  0  0  0  0  0  0  0
   60.0640   34.8440   46.2970 C   0  0  0  0  0  0  0  0  0  0  0  0
   59.8460   33.8430   47.2640 C   0  0  0  0  0  0  0  0  0  0  0  0
   60.7230   33.6500   48.3450 O   0  0  0  0  0  0  0  0  0  0  0  0
   62.1320   33.8440   48.2910 C   0  0  0  0  0  0  0  0  0  0  0  0
   62.7480   32.7220   47.5180 C   0  0  0  0  0  0  0  0  0  0  0  0
   61.9950   31.5500   47.2140 N   0  0  0  0  0  0  0  0  0  0  0  0
   63.9620   32.7900   47.1800 O   0  0  0  0  0  0  0  0  0  0  0  0
   57.0990   29.8690   45.4220 O   0  0  0  0  0  0  0  0  0  0  0  0
   56.4570   30.1070   44.3010 C   0  0  0  0  0  0  0  0  0  0  0  0
   55.1980   29.7170   44.0870 C   0  0  0  0  0  0  0  0  0  0  0  0
   56.0360   31.0495   41.7491 H   0  0  0  0  0  0  0  0  0  0  0  0
   57.7909   31.7812   41.6276 H   0  0  0  0  0  0  0  0  0  0  0  0
   59.3876   31.4842   43.7317 H   0  0  0  0  0  0  0  0  0  0  0  0
   57.3559   31.8066   48.2834 H   0  0  0  0  0  0  0  0  0  0  0  0
   58.8628   32.2569   49.1479 H   0  0  0  0  0  0  0  0  0  0  0  0
   56.9216   32.5631   46.0053 H   0  0  0  0  0  0  0  0  0  0  0  0
   57.3363   34.3366   44.3057 H   0  0  0  0  0  0  0  0  0  0  0  0
   59.3489   35.7985   44.4894 H   0  0  0  0  0  0  0  0  0  0  0  0
   60.9472   35.4950   46.3749 H   0  0  0  0  0  0  0  0  0  0  0  0
   62.3540   34.7999   47.7940 H   0  0  0  0  0  0  0  0  0  0  0  0
   62.5441   33.8633   49.3107 H   0  0  0  0  0  0  0  0  0  0  0  0
   61.0010   31.4580   47.5260 H   0  0  0  0  0  0  0  0  0  0  0  0
   62.4370   30.7590   46.6950 H   0  0  0  0  0  0  0  0  0  0  0  0
   54.7076   29.9429   43.1286 H   0  0  0  0  0  0  0  0  0  0  0  0
   54.6512   29.1698   44.8691 H   0  0  0  0  0  0  0  0  0  0  0  0
  1  2  2  0
  2  3  1  0
  3  4  2  0
  4  5  1  0
  5  6  2  0
  5  7  1  0
  7  8  1  0
  8  9  1  0
  9 10  2  0
 10 11  1  0
 11 12  2  0
 12 13  1  0
 13 14  2  0
 14 15  1  0
 15 16  1  0
 16 17  1  0
 17 18  1  0
 17 19  2  0
  4 20  1  0
 20 21  1  0
 21 22  2  0
 21  2  1  0
 14  9  1  0
  1 23  1  0
  1 24  1  0
  3 25  1  0
  8 26  1  0
  8 27  1  0
 10 28  1  0
 11 29  1  0
 12 30  1  0
 13 31  1  0
 16 32  1  0
 16 33  1  0
 18 34  1  0
 18 35  1  0
 22 36  1  0
 22 37  1  0
M  CHG  1   7  -1
M  END
>  <UniqueID>  (6) 
6

>  <SMILES>  (6) 
C=c1cc(C(=O)[N-]Cc2ccccc2OCC(N)=O)oc1=C

>  <Energy>  (6) 
60.00374737974412

>  <Genealogy>  (6) 
C=c1cc(C(=O)[N-]Cc2ccccc2OCC(N)=O)oc1=C (protonated)
C=c1cc(C(=O)[N-]Cc2ccccc2OCC(N)=O)oc1=C (3D coordinates assigned)
C=c1cc(C(=O)[N-]Cc2ccccc2OCC(N)=O)oc1=C (optimized conformer: 60.00374737974412 kcal/mol)

>  <smiles>  (6) 
C=c1cc(C(=O)NCc2ccccc2OCC(N)=O)oc1=C

>  <score_type>  (6) 
oracle

>  <origin>  (6) 
adg

>  <m_score__min__energy>  (6) 
-8.9600000000000009

>  <m_primary>  (6) 
energy

$$$$
6:0
     RDKit          3D

 32 33  0  0  0  0  0  0  0  0999 V2000
   57.1910   31.1690   43.6760 C   0  0  0  0  0  0  0  0  0  0  0  0
   57.3930   29.9670   44.2140 C   0  0  0  0  0  0  0  0  0  0  0  0
   58.6760   29.3370   44.2990 N   0  0  0  0  0  0  0  0  0  0  0  0
   58.3610   28.0850   44.9460 C   0  0  0  0  0  0  0  0  0  0  0  0
   59.4350   27.0820   45.2440 C   0  0  0  0  0  0  0  0  0  0  0  0
   57.0580   27.9250   45.2390 C   0  0  0  0  0  0  0  0  0  0  0  0
   56.4090   26.7680   45.8960 C   0  0  0  0  0  0  0  0  0  0  0  0
   55.1530   26.7160   46.0050 O   0  0  0  0  0  0  0  0  0  0  0  0
   57.2200   25.7030   46.4120 N   0  0  0  0  0  0  0  0  0  0  0  0
   57.1220   24.2880   46.0450 C   0  0  0  0  0  0  0  0  0  0  0  0
   58.4740   23.7110   45.6150 C   0  0  0  0  0  0  0  0  0  0  0  0
   58.1760   22.8100   44.4290 C   0  0  0  0  0  0  0  0  0  0  0  0
   56.9410   23.4000   43.7700 C   0  0  0  0  0  0  0  0  0  0  0  0
   56.1400   24.0500   44.8900 C   0  0  0  0  0  0  0  0  0  0  0  0
   56.3750   29.1180   44.7860 C   0  0  0  0  0  0  0  0  0  0  0  0
   55.1430   29.3690   44.8710 O   0  0  0  0  0  0  0  0  0  0  0  0
   56.1768   31.5937   43.6437 H   0  0  0  0  0  0  0  0  0  0  0  0
   58.0384   31.7367   43.2641 H   0  0  0  0  0  0  0  0  0  0  0  0
   59.0630   29.1640   43.3420 H   0  0  0  0  0  0  0  0  0  0  0  0
   59.3210   29.9020   44.8980 H   0  0  0  0  0  0  0  0  0  0  0  0
   59.5470   26.9774   46.3333 H   0  0  0  0  0  0  0  0  0  0  0  0
   59.1599   26.1100   44.8087 H   0  0  0  0  0  0  0  0  0  0  0  0
   60.3860   27.4228   44.8087 H   0  0  0  0  0  0  0  0  0  0  0  0
   56.7623   23.7840   46.9542 H   0  0  0  0  0  0  0  0  0  0  0  0
   59.1599   24.5189   45.3204 H   0  0  0  0  0  0  0  0  0  0  0  0
   58.9593   23.1589   46.4333 H   0  0  0  0  0  0  0  0  0  0  0  0
   59.0223   22.8073   43.7263 H   0  0  0  0  0  0  0  0  0  0  0  0
   58.0135   21.7674   44.7398 H   0  0  0  0  0  0  0  0  0  0  0  0
   57.2295   24.1514   43.0202 H   0  0  0  0  0  0  0  0  0  0  0  0
   56.3543   22.6291   43.2489 H   0  0  0  0  0  0  0  0  0  0  0  0
   55.7156   25.0057   44.5487 H   0  0  0  0  0  0  0  0  0  0  0  0
   55.3029   23.4094   45.2046 H   0  0  0  0  0  0  0  0  0  0  0  0
  1  2  2  0
  2  3  1  0
  3  4  1  0
  4  5  1  0
  4  6  2  0
  6  7  1  0
  7  8  2  0
  7  9  1  0
  9 10  1  0
 10 11  1  0
 11 12  1  0
 12 13  1  0
 13 14  1  0
  6 15  1  0
 15 16  2  0
 15  2  1  0
 14 10  1  0
  1 17  1  0
  1 18  1  0
  3 19  1  0
  3 20  1  0
  5 21  1  0
  5 22  1  0
  5 23  1  0
 10 24  1  0
 11 25  1  0
 11 26  1  0
 12 27  1  0
 12 28  1  0
 13 29  1  0
 13 30  1  0
 14 31  1  0
 14 32  1  0
M  CHG  2   3   1   9  -1
M  END
>  <UniqueID>  (7) 
7

>  <SMILES>  (7) 
C=C1[NH2+]C(C)=C(C(=O)[N-]C2CCCC2)C1=O

>  <Energy>  (7) 
47.88438683981062

>  <Genealogy>  (7) 
C=C1[NH2+]C(C)=C(C(=O)[N-]C2CCCC2)C1=O (protonated)
C=C1[NH2+]C(C)=C(C(=O)[N-]C2CCCC2)C1=O (3D coordinates assigned)
C=C1[NH2+]C(C)=C(C(=O)[N-]C2CCCC2)C1=O (nonaromatic ring conformer: 47.88438683981062 kcal/mol)

>  <smiles>  (7) 
C=C1NC(C)=C(C(=O)NC2CCCC2)C1=O

>  <score_type>  (7) 
oracle

>  <origin>  (7) 
adg

>  <m_score__min__energy>  (7) 
-7.0999999999999996

>  <m_primary>  (7) 
energy

$$$$
7:0
     RDKit          3D

 32 34  0  0  0  0  0  0  0  0999 V2000
   58.9400   31.6340   47.8700 C   0  0  0  0  0  0  0  0  0  0  0  0
   58.7580   32.0850   46.4380 C   0  0  0  0  0  0  0  0  0  0  0  0
   59.3590   33.2820   45.9780 C   0  0  0  0  0  0  0  0  0  0  0  0
   60.2650   34.0300   46.8060 N   0  0  0  0  0  0  0  0  0  0  0  0
   61.4910   33.7950   46.7710 O   0  0  0  0  0  0  0  0  0  0  0  0
   59.7770   34.8890   47.7620 O   0  0  0  0  0  0  0  0  0  0  0  0
   59.0780   33.7210   44.6710 C   0  0  0  0  0  0  0  0  0  0  0  0
   59.5850   34.7880   44.2340 O   0  0  0  0  0  0  0  0  0  0  0  0
   58.2930   33.0100   43.8730 O   0  0  0  0  0  0  0  0  0  0  0  0
   57.7460   31.8580   44.2380 C   0  0  0  0  0  0  0  0  0  0  0  0
   56.9450   31.1680   43.3240 C   0  0  0  0  0  0  0  0  0  0  0  0
   56.3740   29.9440   43.6730 C   0  0  0  0  0  0  0  0  0  0  0  0
   56.6150   29.3810   44.9290 C   0  0  0  0  0  0  0  0  0  0  0  0
   56.0030   28.1220   45.2450 N   0  0  0  0  0  0  0  0  0  0  0  0
   56.6030   27.0390   45.9680 C   0  0  0  0  0  0  0  0  0  0  0  0
   55.9040   26.0710   46.3710 O   0  0  0  0  0  0  0  0  0  0  0  0
   58.0340   27.0820   46.2910 C   0  0  0  0  0  0  0  0  0  0  0  0
   59.0770   26.7530   45.4330 C   0  0  0  0  0  0  0  0  0  0  0  0
   60.3400   26.8880   46.0220 C   0  0  0  0  0  0  0  0  0  0  0  0
   60.2970   27.3220   47.3410 C   0  0  0  0  0  0  0  0  0  0  0  0
   58.6860   27.5370   47.7740 S   0  0  0  0  0  0  0  0  0  0  0  0
   57.3960   30.0850   45.8650 C   0  0  0  0  0  0  0  0  0  0  0  0
   57.9690   31.3320   45.5320 C   0  0  0  0  0  0  0  0  0  0  0  0
   58.6166   32.4353   48.5507 H   0  0  0  0  0  0  0  0  0  0  0  0
   58.3350   30.7332   48.0504 H   0  0  0  0  0  0  0  0  0  0  0  0
   60.0008   31.4054   48.0504 H   0  0  0  0  0  0  0  0  0  0  0  0
   56.7640   31.5918   42.3252 H   0  0  0  0  0  0  0  0  0  0  0  0
   55.7290   29.4179   42.9538 H   0  0  0  0  0  0  0  0  0  0  0  0
   58.9253   26.4201   44.3956 H   0  0  0  0  0  0  0  0  0  0  0  0
   61.2782   26.6708   45.4903 H   0  0  0  0  0  0  0  0  0  0  0  0
   61.1674   27.4953   47.9909 H   0  0  0  0  0  0  0  0  0  0  0  0
   57.5616   29.6595   46.8658 H   0  0  0  0  0  0  0  0  0  0  0  0
  1  2  1  0
  2  3  2  0
  3  4  1  0
  4  5  2  0
  4  6  1  0
  3  7  1  0
  7  8  2  0
  7  9  1  0
  9 10  1  0
 10 11  2  0
 11 12  1  0
 12 13  2  0
 13 14  1  0
 14 15  1  0
 15 16  2  0
 15 17  1  0
 17 18  2  0
 18 19  1  0
 19 20  2  0
 20 21  1  0
 13 22  1  0
 22 23  2  0
 23  2  1  0
 23 10  1  0
 21 17  1  0
  1 24  1  0
  1 25  1  0
  1 26  1  0
 11 27  1  0
 12 28  1  0
 18 29  1  0
 19 30  1  0
 20 31  1  0
 22 32  1  0
M  CHG  3   4   1   6  -1  14  -1
M  END
>  <UniqueID>  (8) 
8

>  <SMILES>  (8) 
Cc1c([N+](=O)[O-])c(=O)oc2ccc([N-]C(=O)c3cccs3)cc12

>  <Energy>  (8) 
77.13055971069105

>  <Genealogy>  (8) 
Cc1c([N+](=O)[O-])c(=O)oc2ccc([N-]C(=O)c3cccs3)cc12 (protonated)
Cc1c([N+](=O)[O-])c(=O)oc2ccc([N-]C(=O)c3cccs3)cc12 (3D coordinates assigned)
Cc1c([N+](=O)[O-])c(=O)oc2ccc([N-]C(=O)c3cccs3)cc12 (optimized conformer: 77.13055971069105 kcal/mol)

>  <smiles>  (8) 
Cc1c([N+](=O)[O-])c(=O)oc2ccc(NC(=O)c3cccs3)cc12

>  <score_type>  (8) 
oracle

>  <origin>  (8) 
adg

>  <m_score__min__energy>  (8) 
-9.1899999999999995

>  <m_primary>  (8) 
energy

$$$$
8:0
     RDKit          3D

 40 42  0  0  0  0  0  0  0  0999 V2000
   58.4680   27.1610   44.7660 O   0  0  0  0  0  0  0  0  0  0  0  0
   57.6380   27.8210   45.4490 C   0  0  0  0  0  0  0  0  0  0  0  0
   56.8300   27.1730   46.4470 N   0  0  0  0  0  0  0  0  0  0  0  0
   56.1730   26.0560   46.3290 C   0  0  0  0  0  0  0  0  0  0  0  0
   56.7510   24.8710   46.8010 C   0  0  0  0  0  0  0  0  0  0  0  0
   56.0520   23.6690   46.6790 C   0  0  0  0  0  0  0  0  0  0  0  0
   54.7860   23.6570   46.0910 C   0  0  0  0  0  0  0  0  0  0  0  0
   53.8950   22.1550   45.9320 Cl  0  0  0  0  0  0  0  0  0  0  0  0
   54.2370   24.8570   45.6300 C   0  0  0  0  0  0  0  0  0  0  0  0
   54.9350   26.0180   45.7580 N   0  0  0  0  0  0  0  0  0  0  0  0
   57.4710   29.2770   45.2060 C   0  0  0  0  0  0  0  0  0  0  0  0
   56.2360   29.8040   44.8000 C   0  0  0  0  0  0  0  0  0  0  0  0
   55.1450   28.9700   44.5640 O   0  0  0  0  0  0  0  0  0  0  0  0
   56.0890   31.1420   44.6550 N   0  0  0  0  0  0  0  0  0  0  0  0
   57.1060   32.0050   44.8980 C   0  0  0  0  0  0  0  0  0  0  0  0
   56.8990   33.2410   44.7700 O   0  0  0  0  0  0  0  0  0  0  0  0
   58.3360   31.5340   45.2820 N   0  0  0  0  0  0  0  0  0  0  0  0
   59.4180   32.4840   45.6170 C   0  0  0  0  0  0  0  0  0  0  0  0
   59.7760   32.4110   47.1100 C   0  0  0  0  0  0  0  0  0  0  0  0
   61.2560   32.5900   47.3360 C   0  0  0  0  0  0  0  0  0  0  0  0
   61.9300   31.7860   48.2710 C   0  0  0  0  0  0  0  0  0  0  0  0
   63.2840   32.0090   48.5450 C   0  0  0  0  0  0  0  0  0  0  0  0
   63.9720   33.0360   47.8920 C   0  0  0  0  0  0  0  0  0  0  0  0
   63.3080   33.8390   46.9610 C   0  0  0  0  0  0  0  0  0  0  0  0
   61.9550   33.6190   46.6820 C   0  0  0  0  0  0  0  0  0  0  0  0
   58.5320   30.1810   45.4180 C   0  0  0  0  0  0  0  0  0  0  0  0
   59.6720   29.7380   45.7350 O   0  0  0  0  0  0  0  0  0  0  0  0
   57.7485   24.8873   47.2645 H   0  0  0  0  0  0  0  0  0  0  0  0
   56.4980   22.7327   47.0456 H   0  0  0  0  0  0  0  0  0  0  0  0
   53.2407   24.8628   45.1638 H   0  0  0  0  0  0  0  0  0  0  0  0
   55.1370   28.0150   44.9000 H   0  0  0  0  0  0  0  0  0  0  0  0
   60.3094   32.2378   45.0214 H   0  0  0  0  0  0  0  0  0  0  0  0
   59.0709   33.5029   45.3904 H   0  0  0  0  0  0  0  0  0  0  0  0
   59.2346   33.2045   47.6460 H   0  0  0  0  0  0  0  0  0  0  0  0
   59.4888   31.4173   47.4842 H   0  0  0  0  0  0  0  0  0  0  0  0
   61.3915   30.9788   48.7891 H   0  0  0  0  0  0  0  0  0  0  0  0
   63.8080   31.3751   49.2755 H   0  0  0  0  0  0  0  0  0  0  0  0
   65.0355   33.2118   48.1110 H   0  0  0  0  0  0  0  0  0  0  0  0
   63.8504   34.6459   46.4464 H   0  0  0  0  0  0  0  0  0  0  0  0
   61.4364   34.2536   45.9482 H   0  0  0  0  0  0  0  0  0  0  0  0
  1  2  2  0
  2  3  1  0
  3  4  2  3
  4  5  1  0
  5  6  2  0
  6  7  1  0
  7  8  1  0
  7  9  2  0
  9 10  1  0
  2 11  1  0
 11 12  2  0
 12 13  1  0
 12 14  1  0
 14 15  1  0
 15 16  2  0
 15 17  1  0
 17 18  1  0
 18 19  1  0
 19 20  1  0
 20 21  2  0
 21 22  1  0
 22 23  2  0
 23 24  1  0
 24 25  2  0
 17 26  1  0
 26 27  2  0
 10  4  1  0
 26 11  1  0
 25 20  1  0
  5 28  1  0
  6 29  1  0
  9 30  1  0
 13 31  1  0
 18 32  1  0
 18 33  1  0
 19 34  1  0
 19 35  1  0
 21 36  1  0
 22 37  1  0
 23 38  1  0
 24 39  1  0
 25 40  1  0
M  CHG  2  10  -1  14  -1
M  END
>  <UniqueID>  (9) 
9

>  <SMILES>  (9) 
O=C(N=c1ccc(Cl)c[n-]1)c1c(O)[n-]c(=O)n(CCc2ccccc2)c1=O

>  <Energy>  (9) 
50.00989223181926

>  <Genealogy>  (9) 
O=C(N=c1ccc(Cl)c[n-]1)c1c(O)[n-]c(=O)n(CCc2ccccc2)c1=O (protonated)
O=C(N=c1ccc(Cl)c[n-]1)c1c(O)[n-]c(=O)n(CCc2ccccc2)c1=O (3D coordinates assigned)
O=C(N=c1ccc(Cl)c[n-]1)c1c(O)[n-]c(=O)n(CCc2ccccc2)c1=O (optimized conformer: 50.00989223181926 kcal/mol)

>  <smiles>  (9) 
O=C(N=c1ccc(Cl)c[nH]1)c1c(O)[nH]c(=O)n(CCc2ccccc2)c1=O

>  <score_type>  (9) 
oracle

>  <origin>  (9) 
adg

>  <m_score__min__energy>  (9) 
-12.24

>  <m_primary>  (9) 
energy

$$$$
9:0
     RDKit          3D

 61 64  0  0  0  0  0  0  0  0999 V2000
   57.5610   28.2560   43.6940 C   0  0  0  0  0  0  0  0  0  0  0  0
   56.5850   29.7270   43.9140 S   0  0  0  0  0  0  0  0  0  0  0  0
   55.3210   29.3800   44.6500 O   0  0  0  0  0  0  0  0  0  0  0  0
   56.2220   30.3000   42.5730 O   0  0  0  0  0  0  0  0  0  0  0  0
   57.5160   30.9030   44.8310 C   0  0  0  0  0  0  0  0  0  0  0  0
   57.1320   32.2490   44.8550 C   0  0  0  0  0  0  0  0  0  0  0  0
   57.8340   33.1660   45.6400 C   0  0  0  0  0  0  0  0  0  0  0  0
   58.9330   32.7560   46.4160 C   0  0  0  0  0  0  0  0  0  0  0  0
   59.6410   33.7580   47.2630 C   0  0  0  0  0  0  0  0  0  0  0  0
   59.0880   34.8800   47.4410 O   0  0  0  0  0  0  0  0  0  0  0  0
   60.9080   33.4650   47.9220 N   0  0  2  0  0  0  0  0  0  0  0  0
   61.2980   34.5770   48.8360 C   0  0  0  0  0  0  0  0  0  0  0  0
   61.9530   34.0670   50.1120 C   0  0  0  0  0  0  0  0  0  0  0  0
   63.2340   34.5730   50.4070 C   0  0  0  0  0  0  0  0  0  0  0  0
   63.8830   34.2360   51.5910 C   0  0  0  0  0  0  0  0  0  0  0  0
   63.2580   33.4050   52.5120 C   0  0  0  0  0  0  0  0  0  0  0  0
   61.9970   32.8780   52.2360 C   0  0  0  0  0  0  0  0  0  0  0  0
   61.3430   33.1400   51.0120 C   0  0  0  0  0  0  0  0  0  0  0  0
   59.9680   32.5290   50.7310 C   0  0  0  0  0  0  0  0  0  0  0  0
   59.9000   31.5180   49.6460 N   0  0  0  0  0  0  0  0  0  0  0  0
   61.0110   30.5620   49.5490 C   0  0  0  0  0  0  0  0  0  0  0  0
   60.4230   29.1630   49.6170 C   0  0  0  0  0  0  0  0  0  0  0  0
   58.9550   29.3280   49.2720 C   0  0  0  0  0  0  0  0  0  0  0  0
   58.6290   30.7920   49.5340 C   0  0  0  0  0  0  0  0  0  0  0  0
   62.0240   33.1160   46.9930 C   0  0  0  0  0  0  0  0  0  0  0  0
   63.1610   34.1420   46.8990 C   0  0  0  0  0  0  0  0  0  0  0  0
   64.1380   33.0960   47.4260 C   0  0  0  0  0  0  0  0  0  0  0  0
   63.0170   32.0630   47.4940 C   0  0  0  0  0  0  0  0  0  0  0  0
   59.3390   31.4070   46.3510 C   0  0  0  0  0  0  0  0  0  0  0  0
   58.6260   30.4900   45.5750 C   0  0  0  0  0  0  0  0  0  0  0  0
   57.8331   27.8459   44.6778 H   0  0  0  0  0  0  0  0  0  0  0  0
   56.9783   27.5097   43.1341 H   0  0  0  0  0  0  0  0  0  0  0  0
   58.4751   28.5028   43.1341 H   0  0  0  0  0  0  0  0  0  0  0  0
   56.2746   32.5853   44.2536 H   0  0  0  0  0  0  0  0  0  0  0  0
   57.5238   34.2213   45.6516 H   0  0  0  0  0  0  0  0  0  0  0  0
   60.7890   32.6110   48.5100 H   0  0  0  0  0  0  0  0  0  0  0  0
   62.0070   35.2347   48.3119 H   0  0  0  0  0  0  0  0  0  0  0  0
   60.3838   35.1197   49.1183 H   0  0  0  0  0  0  0  0  0  0  0  0
   63.7290   35.2449   49.6904 H   0  0  0  0  0  0  0  0  0  0  0  0
   64.8901   34.6274   51.7974 H   0  0  0  0  0  0  0  0  0  0  0  0
   63.7588   33.1622   53.4608 H   0  0  0  0  0  0  0  0  0  0  0  0
   61.5014   32.2452   52.9870 H   0  0  0  0  0  0  0  0  0  0  0  0
   59.6205   32.0484   51.6574 H   0  0  0  0  0  0  0  0  0  0  0  0
   59.3428   33.3663   50.3874 H   0  0  0  0  0  0  0  0  0  0  0  0
   61.5416   30.6996   48.5953 H   0  0  0  0  0  0  0  0  0  0  0  0
   61.7276   30.7193   50.3686 H   0  0  0  0  0  0  0  0  0  0  0  0
   60.9175   28.5016   48.8904 H   0  0  0  0  0  0  0  0  0  0  0  0
   60.5623   28.7076   50.6085 H   0  0  0  0  0  0  0  0  0  0  0  0
   58.7798   29.0799   48.2148 H   0  0  0  0  0  0  0  0  0  0  0  0
   58.3206   28.6585   49.8715 H   0  0  0  0  0  0  0  0  0  0  0  0
   58.0369   31.1991   48.7011 H   0  0  0  0  0  0  0  0  0  0  0  0
   58.0420   30.8970   50.4583 H   0  0  0  0  0  0  0  0  0  0  0  0
   61.3915   32.9043   46.1183 H   0  0  0  0  0  0  0  0  0  0  0  0
   63.3758   34.4835   45.8757 H   0  0  0  0  0  0  0  0  0  0  0  0
   63.0720   35.1221   47.3905 H   0  0  0  0  0  0  0  0  0  0  0  0
   64.9410   32.8384   46.7198 H   0  0  0  0  0  0  0  0  0  0  0  0
   64.7474   33.3089   48.3167 H   0  0  0  0  0  0  0  0  0  0  0  0
   63.1497   31.2096   46.8128 H   0  0  0  0  0  0  0  0  0  0  0  0
   62.8226   31.5101   48.4248 H   0  0  0  0  0  0  0  0  0  0  0  0
   60.2230   31.0747   46.9151 H   0  0  0  0  0  0  0  0  0  0  0  0
   58.9397   29.4360   45.5489 H   0  0  0  0  0  0  0  0  0  0  0  0
  1  2  1  0
  2  3  2  0
  2  4  2  0
  2  5  1  0
  5  6  2  0
  6  7  1  0
  7  8  2  0
  8  9  1  0
  9 10  2  0
  9 11  1  0
 11 12  1  0
 12 13  1  0
 13 14  2  0
 14 15  1  0
 15 16  2  0
 16 17  1  0
 17 18  2  0
 18 19  1  0
 19 20  1  0
 20 21  1  0
 21 22  1  0
 22 23  1  0
 23 24  1  0
 11 25  1  0
 25 26  1  0
 26 27  1  0
 27 28  1  0
  8 29  1  0
 29 30  2  0
 30  5  1  0
 18 13  1  0
 24 20  1  0
 28 25  1  0
  1 31  1  0
  1 32  1  0
  1 33  1  0
  6 34  1  0
  7 35  1  0
 11 36  1  1
 12 37  1  0
 12 38  1  0
 14 39  1  0
 15 40  1  0
 16 41  1  0
 17 42  1  0
 19 43  1  0
 19 44  1  0
 21 45  1  0
 21 46  1  0
 22 47  1  0
 22 48  1  0
 23 49  1  0
 23 50  1  0
 24 51  1  0
 24 52  1  0
 25 53  1  0
 26 54  1  0
 26 55  1  0
 27 56  1  0
 27 57  1  0
 28 58  1  0
 28 59  1  0
 29 60  1  0
 30 61  1  0
M  CHG  1  11   1
M  END
>  <UniqueID>  (10) 
10

>  <SMILES>  (10) 
CS(=O)(=O)c1ccc(C(=O)[N@H+](Cc2ccccc2CN2CCCC2)C2CCC2)cc1

>  <Energy>  (10) 
147.0472123799357

>  <Genealogy>  (10) 
CS(=O)(=O)c1ccc(C(=O)[NH+](Cc2ccccc2CN2CCCC2)C2CCC2)cc1 (protonated)
CS(=O)(=O)c1ccc(C(=O)[N@H+](Cc2ccccc2CN2CCCC2)C2CCC2)cc1 (chirality)
CS(=O)(=O)c1ccc(C(=O)[N@H+](Cc2ccccc2CN2CCCC2)C2CCC2)cc1 (3D coordinates assigned)
CS(=O)(=O)c1ccc(C(=O)[N@H+](Cc2ccccc2CN2CCCC2)C2CCC2)cc1 (nonaromatic ring conformer: 147.0472123799357 kcal/mol)

>  <smiles>  (10) 
CS(=O)(=O)c1ccc(C(=O)N(Cc2ccccc2CN2CCCC2)C2CCC2)cc1

>  <score_type>  (10) 
oracle

>  <origin>  (10) 
adg

>  <m_score__min__energy>  (10) 
-7.8899999999999997

>  <m_primary>  (10) 
energy

$$$$
10:0
     RDKit          3D

 53 56  0  0  0  0  0  0  0  0999 V2000
   64.0720   33.1190   47.0930 C   0  0  0  0  0  0  0  0  0  0  0  0
   63.2930   34.1900   46.3380 C   0  0  0  0  0  0  0  0  0  0  0  0
   61.8900   34.0340   46.5510 O   0  0  0  0  0  0  0  0  0  0  0  0
   61.2970   33.2820   47.5790 C   0  0  0  0  0  0  0  0  0  0  0  0
   61.3790   33.7640   48.8870 C   0  0  0  0  0  0  0  0  0  0  0  0
   60.8220   33.0440   49.9430 C   0  0  0  0  0  0  0  0  0  0  0  0
   60.1480   31.8410   49.6780 C   0  0  0  0  0  0  0  0  0  0  0  0
   59.5590   31.0620   50.7380 N   0  0  0  0  0  0  0  0  0  0  0  0
   58.5800   30.0000   50.4630 C   0  0  0  0  0  0  0  0  0  0  0  0
   57.3770   30.1530   51.3990 C   0  0  0  0  0  0  0  0  0  0  0  0
   57.8070   30.4240   52.7820 N   0  0  0  0  0  0  0  0  0  0  0  0
   56.8400   30.8610   53.7560 C   0  0  0  0  0  0  0  0  0  0  0  0
   57.1130   31.8380   54.5060 O   0  0  0  0  0  0  0  0  0  0  0  0
   55.5250   30.1940   53.8880 C   0  0  0  0  0  0  0  0  0  0  0  0
   55.3030   29.2670   54.9210 C   0  0  0  0  0  0  0  0  0  0  0  0
   54.0620   28.6370   55.0470 C   0  0  0  0  0  0  0  0  0  0  0  0
   53.0320   28.9240   54.1460 C   0  0  0  0  0  0  0  0  0  0  0  0
   53.2410   29.8380   53.1040 C   0  0  0  0  0  0  0  0  0  0  0  0
   52.1380   30.1280   52.1230 C   0  0  0  0  0  0  0  0  0  0  0  0
   51.3940   31.3660   52.5170 C   0  0  0  0  0  0  0  0  0  0  0  0
   51.0720   31.6780   53.7850 N   0  0  0  0  0  0  0  0  0  0  0  0
   50.3870   32.8360   53.6580 C   0  0  0  0  0  0  0  0  0  0  0  0
   49.9120   33.4540   54.6450 O   0  0  0  0  0  0  0  0  0  0  0  0
   50.2550   33.2780   52.3890 N   0  0  0  0  0  0  0  0  0  0  0  0
   50.8970   32.3350   51.6800 C   0  0  0  0  0  0  0  0  0  0  0  0
   51.0150   32.3550   50.2960 O   0  0  0  0  0  0  0  0  0  0  0  0
   54.4960   30.4550   52.9670 C   0  0  0  0  0  0  0  0  0  0  0  0
   59.2360   30.4160   53.1180 C   0  0  0  0  0  0  0  0  0  0  0  0
   60.0160   31.2800   52.1190 C   0  0  0  0  0  0  0  0  0  0  0  0
   60.0840   31.3860   48.3960 N   0  0  0  0  0  0  0  0  0  0  0  0
   60.6240   32.0700   47.3530 C   0  0  0  0  0  0  0  0  0  0  0  0
   63.9572   33.2768   48.1756 H   0  0  0  0  0  0  0  0  0  0  0  0
   63.6841   32.1254   46.8241 H   0  0  0  0  0  0  0  0  0  0  0  0
   65.1368   33.1820   46.8241 H   0  0  0  0  0  0  0  0  0  0  0  0
   63.6047   35.1828   46.6946 H   0  0  0  0  0  0  0  0  0  0  0  0
   63.5021   34.0893   45.2628 H   0  0  0  0  0  0  0  0  0  0  0  0
   61.8870   34.7192   49.0858 H   0  0  0  0  0  0  0  0  0  0  0  0
   60.9098   33.4151   50.9748 H   0  0  0  0  0  0  0  0  0  0  0  0
   58.2428   30.0748   49.4186 H   0  0  0  0  0  0  0  0  0  0  0  0
   59.0494   29.0193   50.6298 H   0  0  0  0  0  0  0  0  0  0  0  0
   56.7531   30.9880   51.0474 H   0  0  0  0  0  0  0  0  0  0  0  0
   56.8077   29.2118   51.3901 H   0  0  0  0  0  0  0  0  0  0  0  0
   56.1092   29.0366   55.6330 H   0  0  0  0  0  0  0  0  0  0  0  0
   53.8949   27.9127   55.8579 H   0  0  0  0  0  0  0  0  0  0  0  0
   52.0547   28.4310   54.2552 H   0  0  0  0  0  0  0  0  0  0  0  0
   52.5723   30.2703   51.1225 H   0  0  0  0  0  0  0  0  0  0  0  0
   51.4372   29.2802   52.1167 H   0  0  0  0  0  0  0  0  0  0  0  0
   54.6746   31.1482   52.1318 H   0  0  0  0  0  0  0  0  0  0  0  0
   59.3737   30.8184   54.1325 H   0  0  0  0  0  0  0  0  0  0  0  0
   59.6115   29.3831   53.0715 H   0  0  0  0  0  0  0  0  0  0  0  0
   59.8749   32.3397   52.3780 H   0  0  0  0  0  0  0  0  0  0  0  0
   61.0776   30.9978   52.1774 H   0  0  0  0  0  0  0  0  0  0  0  0
   60.5339   31.6740   46.3307 H   0  0  0  0  0  0  0  0  0  0  0  0
  1  2  1  0
  2  3  1  0
  3  4  1  0
  4  5  2  0
  5  6  1  0
  6  7  2  0
  7  8  1  0
  8  9  1  0
  9 10  1  0
 10 11  1  0
 11 12  1  0
 12 13  2  0
 12 14  1  0
 14 15  2  0
 15 16  1  0
 16 17  2  0
 17 18  1  0
 18 19  1  0
 19 20  1  0
 20 21  1  0
 21 22  1  0
 22 23  2  0
 22 24  1  0
 24 25  1  0
 25 26  1  0
 18 27  2  0
 11 28  1  0
 28 29  1  0
  7 30  1  0
 30 31  2  0
 31  4  1  0
 29  8  1  0
 27 14  1  0
 25 20  2  0
  1 32  1  0
  1 33  1  0
  1 34  1  0
  2 35  1  0
  2 36  1  0
  5 37  1  0
  6 38  1  0
  9 39  1  0
  9 40  1  0
 10 41  1  0
 10 42  1  0
 15 43  1  0
 16 44  1  0
 17 45  1  0
 19 46  1  0
 19 47  1  0
 27 48  1  0
 28 49  1  0
 28 50  1  0
 29 51  1  0
 29 52  1  0
 31 53  1  0
M  CHG  3  21  -1  24  -1  26  -1
M  END
>  <UniqueID>  (11) 
11

>  <SMILES>  (11) 
CCOc1ccc(N2CCN(C(=O)c3cccc(Cc4[n-]c(=O)[n-]c4[O-])c3)CC2)nc1

>  <Energy>  (11) 
92.1867362765697

>  <Genealogy>  (11) 
CCOc1ccc(N2CCN(C(=O)c3cccc(Cc4[n-]c(=O)[n-]c4[O-])c3)CC2)nc1 (protonated)
CCOc1ccc(N2CCN(C(=O)c3cccc(Cc4[n-]c(=O)[n-]c4[O-])c3)CC2)nc1 (3D coordinates assigned)
CCOc1ccc(N2CCN(C(=O)c3cccc(Cc4[n-]c(=O)[n-]c4[O-])c3)CC2)nc1 (nonaromatic ring conformer: 92.1867362765697 kcal/mol)

>  <smiles>  (11) 
CCOc1ccc(N2CCN(C(=O)c3cccc(Cc4[nH]c(=O)[nH]c4O)c3)CC2)nc1

>  <score_type>  (11) 
oracle

>  <origin>  (11) 
adg

>  <m_score__min__energy>  (11) 
-16.489999999999998

>  <m_primary>  (11) 
energy

$$$$
11:0
     RDKit          3D

 33 34  0  0  0  0  0  0  0  0999 V2000
   63.2730   33.4010   47.4690 C   0  0  0  0  0  0  0  0  0  0  0  0
   62.5040   32.3370   47.2180 C   0  0  0  0  0  0  0  0  0  0  0  0
   61.3010   32.0160   48.0590 C   0  0  0  0  0  0  0  0  0  0  0  0
   60.0530   32.6220   47.4640 C   0  0  0  0  0  0  0  0  0  0  0  0
   59.2220   31.8430   46.6400 C   0  0  0  0  0  0  0  0  0  0  0  0
   58.0680   32.3980   46.0580 C   0  0  0  0  0  0  0  0  0  0  0  0
   57.2180   31.6570   45.2250 O   0  0  0  0  0  0  0  0  0  0  0  0
   57.5990   30.5470   44.4560 C   0  0  0  0  0  0  0  0  0  0  0  0
   58.0040   30.7080   43.2730 O   0  0  0  0  0  0  0  0  0  0  0  0
   57.5790   29.1930   45.0680 C   0  0  0  0  0  0  0  0  0  0  0  0
   58.7900   28.6110   45.4850 C   0  0  0  0  0  0  0  0  0  0  0  0
   58.8080   27.3410   46.0650 C   0  0  0  0  0  0  0  0  0  0  0  0
   57.6200   26.6310   46.2380 C   0  0  0  0  0  0  0  0  0  0  0  0
   57.6510   25.3660   46.8160 O   0  0  0  0  0  0  0  0  0  0  0  0
   56.4030   27.1870   45.8320 C   0  0  0  0  0  0  0  0  0  0  0  0
   55.2270   26.4590   46.0160 O   0  0  0  0  0  0  0  0  0  0  0  0
   56.3760   28.4680   45.2470 C   0  0  0  0  0  0  0  0  0  0  0  0
   55.1560   29.0080   44.8530 O   0  0  0  0  0  0  0  0  0  0  0  0
   57.7730   33.7480   46.2770 C   0  0  0  0  0  0  0  0  0  0  0  0
   58.5990   34.5310   47.0860 C   0  0  0  0  0  0  0  0  0  0  0  0
   59.7360   33.9750   47.6800 C   0  0  0  0  0  0  0  0  0  0  0  0
   60.5490   34.7770   48.4750 O   0  0  0  0  0  0  0  0  0  0  0  0
   64.1474   33.6095   46.8350 H   0  0  0  0  0  0  0  0  0  0  0  0
   63.0315   34.0681   48.3096 H   0  0  0  0  0  0  0  0  0  0  0  0
   62.7585   31.6793   46.3738 H   0  0  0  0  0  0  0  0  0  0  0  0
   61.1806   30.9240   48.1140 H   0  0  0  0  0  0  0  0  0  0  0  0
   61.4518   32.4361   49.0644 H   0  0  0  0  0  0  0  0  0  0  0  0
   59.4765   30.7901   46.4487 H   0  0  0  0  0  0  0  0  0  0  0  0
   59.7327   29.1623   45.3527 H   0  0  0  0  0  0  0  0  0  0  0  0
   59.7625   26.8989   46.3866 H   0  0  0  0  0  0  0  0  0  0  0  0
   54.3610   26.7030   45.5530 H   0  0  0  0  0  0  0  0  0  0  0  0
   56.8841   34.1957   45.8086 H   0  0  0  0  0  0  0  0  0  0  0  0
   58.3541   35.5897   47.2567 H   0  0  0  0  0  0  0  0  0  0  0  0
  1  2  2  0
  2  3  1  0
  3  4  1  0
  4  5  2  0
  5  6  1  0
  6  7  1  0
  7  8  1  0
  8  9  2  0
  8 10  1  0
 10 11  2  0
 11 12  1  0
 12 13  2  0
 13 14  1  0
 13 15  1  0
 15 16  1  0
 15 17  2  0
 17 18  1  0
  6 19  2  0
 19 20  1  0
 20 21  2  0
 21 22  1  0
 21  4  1  0
 17 10  1  0
  1 23  1  0
  1 24  1  0
  2 25  1  0
  3 26  1  0
  3 27  1  0
  5 28  1  0
 11 29  1  0
 12 30  1  0
 16 31  1  0
 19 32  1  0
 20 33  1  0
M  CHG  3  14  -1  18  -1  22  -1
M  END
>  <UniqueID>  (12) 
12

>  <SMILES>  (12) 
C=CCc1cc(OC(=O)c2ccc([O-])c(O)c2[O-])ccc1[O-]

>  <Energy>  (12) 
38.33928922490244

>  <Genealogy>  (12) 
C=CCc1cc(OC(=O)c2ccc([O-])c(O)c2[O-])ccc1[O-] (protonated)
C=CCc1cc(OC(=O)c2ccc([O-])c(O)c2[O-])ccc1[O-] (3D coordinates assigned)
C=CCc1cc(OC(=O)c2ccc([O-])c(O)c2[O-])ccc1[O-] (optimized conformer: 38.33928922490244 kcal/mol)

>  <smiles>  (12) 
C=CCc1cc(OC(=O)c2ccc(O)c(O)c2O)ccc1O

>  <score_type>  (12) 
oracle

>  <origin>  (12) 
adg

>  <m_score__min__energy>  (12) 
-13.880000000000001

>  <m_primary>  (12) 
energy

$$$$
12:0
     RDKit          3D

 54 56  0  0  0  0  0  0  0  0999 V2000
   56.1050   22.7860   42.6630 C   0  0  0  0  0  0  0  0  0  0  0  0
   56.2270   21.6630   43.5090 O   0  0  0  0  0  0  0  0  0  0  0  0
   57.5910   21.3900   43.7660 C   0  0  0  0  0  0  0  0  0  0  0  0
   58.0650   22.1430   44.9720 C   0  0  0  0  0  0  0  0  0  0  0  0
   59.2410   21.9700   45.3910 O   0  0  0  0  0  0  0  0  0  0  0  0
   57.1850   23.0730   45.6170 N   0  0  0  0  0  0  0  0  0  0  0  0
   57.2900   24.5030   45.5780 C   0  0  0  0  0  0  0  0  0  0  0  0
   56.9650   25.2990   46.6860 C   0  0  0  0  0  0  0  0  0  0  0  0
   57.0480   26.6900   46.6020 C   0  0  0  0  0  0  0  0  0  0  0  0
   57.4720   27.3140   45.4160 C   0  0  0  0  0  0  0  0  0  0  0  0
   57.5220   28.7950   45.3600 C   0  0  0  0  0  0  0  0  0  0  0  0
   56.5970   29.4460   44.6050 N   0  0  0  0  0  0  0  0  0  0  0  0
   56.5680   30.7980   44.4940 C   0  0  0  0  0  0  0  0  0  0  0  0
   57.5070   31.5830   45.1710 C   0  0  0  0  0  0  0  0  0  0  0  0
   57.4640   33.0510   45.0110 C   0  0  0  0  0  0  0  0  0  0  0  0
   56.4280   33.6700   45.3730 O   0  0  0  0  0  0  0  0  0  0  0  0
   58.5260   33.7920   44.3880 N   0  0  0  0  0  0  0  0  0  0  0  0
   59.2830   34.9040   44.9610 C   0  0  0  0  0  0  0  0  0  0  0  0
   59.9140   34.5370   46.2800 C   0  0  0  0  0  0  0  0  0  0  0  0
   59.2510   34.8090   47.4880 C   0  0  0  0  0  0  0  0  0  0  0  0
   59.8390   34.4590   48.7070 C   0  0  0  0  0  0  0  0  0  0  0  0
   61.0830   33.8230   48.7300 C   0  0  0  0  0  0  0  0  0  0  0  0
   61.7460   33.5290   47.5300 C   0  0  0  0  0  0  0  0  0  0  0  0
   63.3070   32.7130   47.5370 S   0  0  0  0  0  0  0  0  0  0  0  0
   64.1980   33.1970   48.9370 N   0  0  0  0  0  0  0  0  0  0  0  0
   63.0960   31.2260   47.5620 O   0  0  0  0  0  0  0  0  0  0  0  0
   64.0920   33.0770   46.3090 O   0  0  0  0  0  0  0  0  0  0  0  0
   61.1590   33.8840   46.3100 C   0  0  0  0  0  0  0  0  0  0  0  0
   58.4530   30.9470   45.9940 C   0  0  0  0  0  0  0  0  0  0  0  0
   59.2630   31.6300   46.6770 O   0  0  0  0  0  0  0  0  0  0  0  0
   58.4880   29.5450   46.0680 C   0  0  0  0  0  0  0  0  0  0  0  0
   59.8960   28.7030   47.0770 Br  0  0  0  0  0  0  0  0  0  0  0  0
   57.7720   26.5140   44.2840 C   0  0  0  0  0  0  0  0  0  0  0  0
   58.1590   27.1190   42.9600 C   0  0  0  0  0  0  0  0  0  0  0  0
   57.6590   25.1180   44.3780 C   0  0  0  0  0  0  0  0  0  0  0  0
   56.0062   23.6958   43.2733 H   0  0  0  0  0  0  0  0  0  0  0  0
   56.9998   22.8657   42.0281 H   0  0  0  0  0  0  0  0  0  0  0  0
   55.2140   22.6717   42.0281 H   0  0  0  0  0  0  0  0  0  0  0  0
   57.7163   20.3114   43.9418 H   0  0  0  0  0  0  0  0  0  0  0  0
   58.1847   21.7070   42.8959 H   0  0  0  0  0  0  0  0  0  0  0  0
   56.6433   24.8253   47.6252 H   0  0  0  0  0  0  0  0  0  0  0  0
   56.7786   27.3046   47.4736 H   0  0  0  0  0  0  0  0  0  0  0  0
   55.8019   31.2792   43.8683 H   0  0  0  0  0  0  0  0  0  0  0  0
   60.0762   35.1942   44.2563 H   0  0  0  0  0  0  0  0  0  0  0  0
   58.5846   35.7352   45.1379 H   0  0  0  0  0  0  0  0  0  0  0  0
   58.2662   35.2989   47.4748 H   0  0  0  0  0  0  0  0  0  0  0  0
   59.3210   34.6849   49.6507 H   0  0  0  0  0  0  0  0  0  0  0  0
   61.5432   33.5524   49.6917 H   0  0  0  0  0  0  0  0  0  0  0  0
   65.2090   33.0450   48.7220 H   0  0  0  0  0  0  0  0  0  0  0  0
   61.6756   33.6504   45.3674 H   0  0  0  0  0  0  0  0  0  0  0  0
   58.7444   28.0342   43.1322 H   0  0  0  0  0  0  0  0  0  0  0  0
   58.7642   26.3983   42.3904 H   0  0  0  0  0  0  0  0  0  0  0  0
   57.2510   27.3663   42.3904 H   0  0  0  0  0  0  0  0  0  0  0  0
   57.8642   24.4978   43.4930 H   0  0  0  0  0  0  0  0  0  0  0  0
  1  2  1  0
  2  3  1  0
  3  4  1  0
  4  5  2  0
  4  6  1  0
  6  7  1  0
  7  8  2  0
  8  9  1  0
  9 10  2  0
 10 11  1  0
 11 12  1  0
 12 13  1  0
 13 14  2  0
 14 15  1  0
 15 16  2  0
 15 17  1  0
 17 18  1  0
 18 19  1  0
 19 20  2  0
 20 21  1  0
 21 22  2  0
 22 23  1  0
 23 24  1  0
 24 25  1  0
 24 26  2  0
 24 27  2  0
 23 28  2  0
 14 29  1  0
 29 30  2  0
 29 31  1  0
 31 32  1  0
 10 33  1  0
 33 34  1  0
 33 35  2  0
 35  7  1  0
 31 11  2  0
 28 19  1  0
  1 36  1  0
  1 37  1  0
  1 38  1  0
  3 39  1  0
  3 40  1  0
  8 41  1  0
  9 42  1  0
 13 43  1  0
 18 44  1  0
 18 45  1  0
 20 46  1  0
 21 47  1  0
 22 48  1  0
 25 49  1  0
 28 50  1  0
 34 51  1  0
 34 52  1  0
 34 53  1  0
 35 54  1  0
M  CHG  4   6  -1  12  -1  17  -1  25  -1
M  END
>  <UniqueID>  (13) 
13

>  <SMILES>  (13) 
COCC(=O)[N-]c1ccc(-c2[n-]cc(C(=O)[N-]Cc3cccc(S([NH-])(=O)=O)c3)c(=O)c2Br)c(C)c1

>  <Energy>  (13) 
71.32320616532408

>  <Genealogy>  (13) 
COCC(=O)[N-]c1ccc(-c2[n-]cc(C(=O)[N-]Cc3cccc(S([NH-])(=O)=O)c3)c(=O)c2Br)c(C)c1 (protonated)
COCC(=O)[N-]c1ccc(-c2[n-]cc(C(=O)[N-]Cc3cccc(S([NH-])(=O)=O)c3)c(=O)c2Br)c(C)c1 (3D coordinates assigned)
COCC(=O)[N-]c1ccc(-c2[n-]cc(C(=O)[N-]Cc3cccc(S([NH-])(=O)=O)c3)c(=O)c2Br)c(C)c1 (optimized conformer: 71.32320616532408 kcal/mol)

>  <smiles>  (13) 
COCC(=O)Nc1ccc(-c2[nH]cc(C(=O)NCc3cccc(S(N)(=O)=O)c3)c(=O)c2Br)c(C)c1

>  <score_type>  (13) 
oracle

>  <origin>  (13) 
adg

>  <m_score__min__energy>  (13) 
-15.130000000000001

>  <m_primary>  (13) 
energy

$$$$
13:0
     RDKit          3D

 67 71  0  0  0  0  0  0  0  0999 V2000
   56.2750   20.0150   43.8620 C   0  0  0  0  0  0  0  0  0  0  0  0
   55.9510   21.3110   43.3730 O   0  0  0  0  0  0  0  0  0  0  0  0
   56.3410   22.5090   43.9880 C   0  0  0  0  0  0  0  0  0  0  0  0
   55.4080   23.4340   44.4980 C   0  0  0  0  0  0  0  0  0  0  0  0
   55.8490   24.6260   45.0770 C   0  0  0  0  0  0  0  0  0  0  0  0
   57.2240   24.9180   45.1540 C   0  0  0  0  0  0  0  0  0  0  0  0
   57.6670   26.1980   45.6550 N   0  0  0  0  0  0  0  0  0  0  0  0
   57.0650   27.3030   45.1980 N   0  0  0  0  0  0  0  0  0  0  0  0
   57.4390   28.5550   45.5840 C   0  0  0  0  0  0  0  0  0  0  0  0
   56.6670   29.7000   45.0520 C   0  0  0  0  0  0  0  0  0  0  0  0
   55.5780   29.4670   44.4640 O   0  0  0  0  0  0  0  0  0  0  0  0
   57.0550   31.0660   45.2580 N   0  0  0  0  0  0  0  0  0  0  0  0
   57.2860   32.1000   44.2460 C   0  0  0  0  0  0  0  0  0  0  0  0
   57.4820   33.4590   44.8500 C   0  0  0  0  0  0  0  0  0  0  0  0
   56.6810   34.3910   44.5680 O   0  0  0  0  0  0  0  0  0  0  0  0
   58.5250   33.6930   45.8030 N   0  0  0  0  0  0  0  0  0  0  0  0
   59.8970   33.8340   45.3100 C   0  0  0  0  0  0  0  0  0  0  0  0
   60.7920   34.4740   46.3680 C   0  0  0  0  0  0  0  0  0  0  0  0
   60.6060   33.7600   47.6440 N   0  0  0  0  0  0  0  0  0  0  0  0
   61.6070   34.1750   48.6480 C   0  0  0  0  0  0  0  0  0  0  0  0
   62.1990   32.9860   49.3580 C   0  0  0  0  0  0  0  0  0  0  0  0
   61.3670   32.0910   50.0490 C   0  0  0  0  0  0  0  0  0  0  0  0
   61.9140   30.9730   50.6880 C   0  0  0  0  0  0  0  0  0  0  0  0
   63.2920   30.7450   50.6440 C   0  0  0  0  0  0  0  0  0  0  0  0
   64.1250   31.6320   49.9570 C   0  0  0  0  0  0  0  0  0  0  0  0
   63.5820   32.7510   49.3180 C   0  0  0  0  0  0  0  0  0  0  0  0
   59.2320   33.9320   48.1850 C   0  0  0  0  0  0  0  0  0  0  0  0
   58.1570   34.2300   47.1160 C   0  0  0  0  0  0  0  0  0  0  0  0
   58.5510   28.7060   46.4360 C   0  0  0  0  0  0  0  0  0  0  0  0
   59.0970   29.9690   46.7450 C   0  0  0  0  0  0  0  0  0  0  0  0
   60.1640   30.0800   47.6380 C   0  0  0  0  0  0  0  0  0  0  0  0
   60.7220   28.9360   48.2070 C   0  0  0  0  0  0  0  0  0  0  0  0
   60.2330   27.6740   47.8670 C   0  0  0  0  0  0  0  0  0  0  0  0
   59.1580   27.5450   46.9660 C   0  0  0  0  0  0  0  0  0  0  0  0
   58.6870   26.2850   46.5640 C   0  0  0  0  0  0  0  0  0  0  0  0
   59.2090   25.2340   47.0370 O   0  0  0  0  0  0  0  0  0  0  0  0
   58.1530   23.9880   44.6540 C   0  0  0  0  0  0  0  0  0  0  0  0
   57.7120   22.7920   44.0830 C   0  0  0  0  0  0  0  0  0  0  0  0
   56.2720   20.0268   44.9619 H   0  0  0  0  0  0  0  0  0  0  0  0
   55.5304   19.2902   43.5011 H   0  0  0  0  0  0  0  0  0  0  0  0
   57.2731   19.7259   43.5011 H   0  0  0  0  0  0  0  0  0  0  0  0
   54.3312   23.2169   44.4400 H   0  0  0  0  0  0  0  0  0  0  0  0
   55.1160   25.3425   45.4761 H   0  0  0  0  0  0  0  0  0  0  0  0
   56.2850   27.2120   44.5050 H   0  0  0  0  0  0  0  0  0  0  0  0
   58.1857   31.8362   43.6707 H   0  0  0  0  0  0  0  0  0  0  0  0
   56.3945   32.1446   43.6031 H   0  0  0  0  0  0  0  0  0  0  0  0
   60.2929   32.8394   45.0569 H   0  0  0  0  0  0  0  0  0  0  0  0
   59.8864   34.4807   44.4202 H   0  0  0  0  0  0  0  0  0  0  0  0
   61.8439   34.4025   46.0545 H   0  0  0  0  0  0  0  0  0  0  0  0
   60.5252   35.5340   46.4910 H   0  0  0  0  0  0  0  0  0  0  0  0
   62.4127   34.7278   48.1427 H   0  0  0  0  0  0  0  0  0  0  0  0
   61.1064   34.8097   49.3940 H   0  0  0  0  0  0  0  0  0  0  0  0
   60.2822   32.2692   50.0881 H   0  0  0  0  0  0  0  0  0  0  0  0
   61.2584   30.2724   51.2259 H   0  0  0  0  0  0  0  0  0  0  0  0
   63.7209   29.8675   51.1500 H   0  0  0  0  0  0  0  0  0  0  0  0
   65.2091   31.4498   49.9188 H   0  0  0  0  0  0  0  0  0  0  0  0
   64.2413   33.4496   48.7820 H   0  0  0  0  0  0  0  0  0  0  0  0
   58.9498   33.0062   48.7077 H   0  0  0  0  0  0  0  0  0  0  0  0
   59.2641   34.8076   48.8500 H   0  0  0  0  0  0  0  0  0  0  0  0
   57.2064   33.7755   47.4319 H   0  0  0  0  0  0  0  0  0  0  0  0
   58.0641   35.3221   47.0226 H   0  0  0  0  0  0  0  0  0  0  0  0
   58.6789   30.8734   46.2788 H   0  0  0  0  0  0  0  0  0  0  0  0
   60.5654   31.0718   47.8933 H   0  0  0  0  0  0  0  0  0  0  0  0
   61.5497   29.0284   48.9256 H   0  0  0  0  0  0  0  0  0  0  0  0
   60.6898   26.7744   48.3053 H   0  0  0  0  0  0  0  0  0  0  0  0
   59.2302   24.2032   44.7128 H   0  0  0  0  0  0  0  0  0  0  0  0
   58.4461   22.0655   43.7044 H   0  0  0  0  0  0  0  0  0  0  0  0
  1  2  1  0
  2  3  1  0
  3  4  2  0
  4  5  1  0
  5  6  2  0
  6  7  1  0
  7  8  1  0
  8  9  2  0
  9 10  1  0
 10 11  2  0
 10 12  1  0
 12 13  1  0
 13 14  1  0
 14 15  2  0
 14 16  1  0
 16 17  1  0
 17 18  1  0
 18 19  1  0
 19 20  1  0
 20 21  1  0
 21 22  2  0
 22 23  1  0
 23 24  2  0
 24 25  1  0
 25 26  2  0
 19 27  1  0
 27 28  1  0
  9 29  1  0
 29 30  2  0
 30 31  1  0
 31 32  2  0
 32 33  1  0
 33 34  2  0
 34 35  1  0
 35 36  2  0
  6 37  1  0
 37 38  2  0
 38  3  1  0
 35  7  1  0
 28 16  1  0
 34 29  1  0
 26 21  1  0
  1 39  1  0
  1 40  1  0
  1 41  1  0
  4 42  1  0
  5 43  1  0
  8 44  1  0
 13 45  1  0
 13 46  1  0
 17 47  1  0
 17 48  1  0
 18 49  1  0
 18 50  1  0
 20 51  1  0
 20 52  1  0
 22 53  1  0
 23 54  1  0
 24 55  1  0
 25 56  1  0
 26 57  1  0
 27 58  1  0
 27 59  1  0
 28 60  1  0
 28 61  1  0
 30 62  1  0
 31 63  1  0
 32 64  1  0
 33 65  1  0
 37 66  1  0
 38 67  1  0
M  CHG  2   8   1  12  -1
M  END
>  <UniqueID>  (14) 
14

>  <SMILES>  (14) 
COc1ccc(-n2[nH+]c(C(=O)[N-]CC(=O)N3CCN(Cc4ccccc4)CC3)c3ccccc3c2=O)cc1

>  <Energy>  (14) 
101.10810902010338

>  <Genealogy>  (14) 
COc1ccc(-n2[nH+]c(C(=O)[N-]CC(=O)N3CCN(Cc4ccccc4)CC3)c3ccccc3c2=O)cc1 (protonated)
COc1ccc(-n2[nH+]c(C(=O)[N-]CC(=O)N3CCN(Cc4ccccc4)CC3)c3ccccc3c2=O)cc1 (3D coordinates assigned)
COc1ccc(-n2[nH+]c(C(=O)[N-]CC(=O)N3CCN(Cc4ccccc4)CC3)c3ccccc3c2=O)cc1 (nonaromatic ring conformer: 101.10810902010338 kcal/mol)

>  <smiles>  (14) 
COc1ccc(-n2nc(C(=O)NCC(=O)N3CCN(Cc4ccccc4)CC3)c3ccccc3c2=O)cc1

>  <score_type>  (14) 
oracle

>  <origin>  (14) 
adg

>  <m_score__min__energy>  (14) 
-10.27

>  <m_primary>  (14) 
energy

$$$$
14:0
     RDKit          3D

 55 58  0  0  0  0  0  0  0  0999 V2000
   59.0820   26.9230   46.2270 O   0  0  0  0  0  0  0  0  0  0  0  0
   58.1380   26.8810   45.3920 C   0  0  0  0  0  0  0  0  0  0  0  0
   57.5330   28.1040   44.9300 N   0  0  0  0  0  0  0  0  0  0  0  0
   58.0140   29.4140   45.2810 C   0  0  0  0  0  0  0  0  0  0  0  0
   57.7170   30.5390   44.4900 C   0  0  0  0  0  0  0  0  0  0  0  0
   58.1760   31.8050   44.8640 C   0  0  0  0  0  0  0  0  0  0  0  0
   58.9270   31.9650   46.0370 C   0  0  0  0  0  0  0  0  0  0  0  0
   59.5220   33.5530   46.5170 S   0  0  0  0  0  0  0  0  0  0  0  0
   58.4750   34.2220   47.3640 O   0  0  0  0  0  0  0  0  0  0  0  0
   59.7800   34.3970   45.2980 O   0  0  0  0  0  0  0  0  0  0  0  0
   60.9990   33.3720   47.4280 N   0  0  0  0  0  0  0  0  0  0  0  0
   62.1420   33.8460   46.6340 C   0  0  0  0  0  0  0  0  0  0  0  0
   63.4400   33.4250   47.3310 C   0  0  0  0  0  0  0  0  0  0  0  0
   63.3090   33.5400   48.7900 N   0  0  0  0  0  0  0  0  0  0  0  0
   64.2520   32.8770   49.6560 C   0  0  0  0  0  0  0  0  0  0  0  0
   63.9190   31.6550   50.2690 C   0  0  0  0  0  0  0  0  0  0  0  0
   64.8380   31.0080   51.1010 C   0  0  0  0  0  0  0  0  0  0  0  0
   66.0970   31.5700   51.3250 C   0  0  0  0  0  0  0  0  0  0  0  0
   66.4420   32.7780   50.7130 C   0  0  0  0  0  0  0  0  0  0  0  0
   65.5260   33.4290   49.8800 C   0  0  0  0  0  0  0  0  0  0  0  0
   62.2640   34.4130   49.3420 C   0  0  0  0  0  0  0  0  0  0  0  0
   60.8910   34.0990   48.7120 C   0  0  0  0  0  0  0  0  0  0  0  0
   59.2010   30.8510   46.8400 C   0  0  0  0  0  0  0  0  0  0  0  0
   58.7400   29.5850   46.4680 C   0  0  0  0  0  0  0  0  0  0  0  0
   57.6660   25.5590   44.9110 C   0  0  0  0  0  0  0  0  0  0  0  0
   57.4040   24.5360   45.8380 C   0  0  0  0  0  0  0  0  0  0  0  0
   56.9530   23.2840   45.4080 C   0  0  0  0  0  0  0  0  0  0  0  0
   56.7450   23.0300   44.0410 C   0  0  0  0  0  0  0  0  0  0  0  0
   56.2810   21.7430   43.5940 N   0  0  0  0  0  0  0  0  0  0  0  0
   55.8950   20.8860   44.4150 O   0  0  0  0  0  0  0  0  0  0  0  0
   56.2580   21.4350   42.2530 O   0  0  0  0  0  0  0  0  0  0  0  0
   56.9930   24.0580   43.1160 C   0  0  0  0  0  0  0  0  0  0  0  0
   57.4450   25.3100   43.5450 C   0  0  0  0  0  0  0  0  0  0  0  0
   56.6670   28.0620   44.3500 H   0  0  0  0  0  0  0  0  0  0  0  0
   57.1208   30.4216   43.5731 H   0  0  0  0  0  0  0  0  0  0  0  0
   57.9473   32.6787   44.2360 H   0  0  0  0  0  0  0  0  0  0  0  0
   62.1023   33.4021   45.6283 H   0  0  0  0  0  0  0  0  0  0  0  0
   62.1052   34.9418   46.5456 H   0  0  0  0  0  0  0  0  0  0  0  0
   63.6671   32.3807   47.0704 H   0  0  0  0  0  0  0  0  0  0  0  0
   64.2514   34.0880   46.9962 H   0  0  0  0  0  0  0  0  0  0  0  0
   62.9303   31.2062   50.0928 H   0  0  0  0  0  0  0  0  0  0  0  0
   64.5690   30.0549   51.5799 H   0  0  0  0  0  0  0  0  0  0  0  0
   66.8170   31.0616   51.9832 H   0  0  0  0  0  0  0  0  0  0  0  0
   67.4353   33.2176   50.8866 H   0  0  0  0  0  0  0  0  0  0  0  0
   65.8036   34.3778   49.3976 H   0  0  0  0  0  0  0  0  0  0  0  0
   62.2043   34.2592   50.4296 H   0  0  0  0  0  0  0  0  0  0  0  0
   62.5235   35.4574   49.1140 H   0  0  0  0  0  0  0  0  0  0  0  0
   60.3142   33.4823   49.4170 H   0  0  0  0  0  0  0  0  0  0  0  0
   60.3948   35.0591   48.5068 H   0  0  0  0  0  0  0  0  0  0  0  0
   59.7810   30.9727   47.7667 H   0  0  0  0  0  0  0  0  0  0  0  0
   58.9483   28.7171   47.1109 H   0  0  0  0  0  0  0  0  0  0  0  0
   57.5550   24.7216   46.9117 H   0  0  0  0  0  0  0  0  0  0  0  0
   56.7594   22.4913   46.1456 H   0  0  0  0  0  0  0  0  0  0  0  0
   56.8300   23.8763   42.0434 H   0  0  0  0  0  0  0  0  0  0  0  0
   57.6290   26.1058   42.8083 H   0  0  0  0  0  0  0  0  0  0  0  0
  1  2  2  0
  2  3  1  0
  3  4  1  0
  4  5  2  0
  5  6  1  0
  6  7  2  0
  7  8  1  0
  8  9  2  0
  8 10  2  0
  8 11  1  0
 11 12  1  0
 12 13  1  0
 13 14  1  0
 14 15  1  0
 15 16  2  0
 16 17  1  0
 17 18  2  0
 18 19  1  0
 19 20  2  0
 14 21  1  0
 21 22  1  0
  7 23  1  0
 23 24  2  0
  2 25  1  0
 25 26  2  0
 26 27  1  0
 27 28  2  0
 28 29  1  0
 29 30  2  0
 29 31  1  0
 28 32  1  0
 32 33  2  0
 24  4  1  0
 33 25  1  0
 22 11  1  0
 20 15  1  0
  3 34  1  0
  5 35  1  0
  6 36  1  0
 12 37  1  0
 12 38  1  0
 13 39  1  0
 13 40  1  0
 16 41  1  0
 17 42  1  0
 18 43  1  0
 19 44  1  0
 20 45  1  0
 21 46  1  0
 21 47  1  0
 22 48  1  0
 22 49  1  0
 23 50  1  0
 24 51  1  0
 26 52  1  0
 27 53  1  0
 32 54  1  0
 33 55  1  0
M  CHG  2  29   1  31  -1
M  END
>  <UniqueID>  (15) 
15

>  <SMILES>  (15) 
O=C(Nc1ccc(S(=O)(=O)N2CCN(c3ccccc3)CC2)cc1)c1ccc([N+](=O)[O-])cc1

>  <Energy>  (15) 
74.87525203026466

>  <Genealogy>  (15) 
O=C(Nc1ccc(S(=O)(=O)N2CCN(c3ccccc3)CC2)cc1)c1ccc([N+](=O)[O-])cc1 (3D coordinates assigned)
O=C(Nc1ccc(S(=O)(=O)N2CCN(c3ccccc3)CC2)cc1)c1ccc([N+](=O)[O-])cc1 (nonaromatic ring conformer: 74.87525203026466 kcal/mol)

>  <smiles>  (15) 
O=C(Nc1ccc(S(=O)(=O)N2CCN(c3ccccc3)CC2)cc1)c1ccc([N+](=O)[O-])cc1

>  <score_type>  (15) 
oracle

>  <origin>  (15) 
adg

>  <m_score__min__energy>  (15) 
-9.9199999999999999

>  <m_primary>  (15) 
energy

$$$$
15:0
     RDKit          3D

 41 43  0  0  0  0  0  0  0  0999 V2000
   54.7890   27.0880   46.5840 H   0  0  0  0  0  0  0  0  0  0  0  0
   54.7370   26.2360   45.9820 N   0  0  0  0  0  0  0  0  0  0  0  0
   56.2520   25.4190   46.1330 S   0  0  0  0  0  0  0  0  0  0  0  0
   56.3500   24.3520   45.0780 O   0  0  0  0  0  0  0  0  0  0  0  0
   56.3390   24.7690   47.4860 O   0  0  0  0  0  0  0  0  0  0  0  0
   57.5650   26.5750   45.9400 C   0  0  0  0  0  0  0  0  0  0  0  0
   57.9800   27.3610   47.0240 C   0  0  0  0  0  0  0  0  0  0  0  0
   57.4780   27.2614   47.9977 H   0  0  0  0  0  0  0  0  0  0  0  0
   59.0300   28.2710   46.8710 C   0  0  0  0  0  0  0  0  0  0  0  0
   59.3419   28.8946   47.7217 H   0  0  0  0  0  0  0  0  0  0  0  0
   59.6880   28.3930   45.6380 C   0  0  0  0  0  0  0  0  0  0  0  0
   60.7900   29.3980   45.4630 C   0  0  0  0  0  0  0  0  0  0  0  0
   61.7329   28.8755   45.2442 H   0  0  0  0  0  0  0  0  0  0  0  0
   60.5457   30.0722   44.6289 H   0  0  0  0  0  0  0  0  0  0  0  0
   60.9350   30.1730   46.6940 N   0  0  0  0  0  0  0  0  0  0  0  0
   60.9770   31.4720   46.7900 C   0  0  0  0  0  0  0  0  0  0  0  0
   62.0830   32.1460   47.3500 C   0  0  0  0  0  0  0  0  0  0  0  0
   62.9471   31.5775   47.7245 H   0  0  0  0  0  0  0  0  0  0  0  0
   62.0720   33.5390   47.4250 C   0  0  0  0  0  0  0  0  0  0  0  0
   62.9289   34.0730   47.8616 H   0  0  0  0  0  0  0  0  0  0  0  0
   60.9760   34.2540   46.9470 C   0  0  0  0  0  0  0  0  0  0  0  0
   60.9612   35.3524   47.0036 H   0  0  0  0  0  0  0  0  0  0  0  0
   59.8960   33.5610   46.3950 C   0  0  0  0  0  0  0  0  0  0  0  0
   58.4840   34.4680   45.7640 S   0  0  0  0  0  0  0  0  0  0  0  0
   57.9660   33.1070   44.7180 C   0  0  0  0  0  0  0  0  0  0  0  0
   57.1040   32.1250   45.2200 C   0  0  0  0  0  0  0  0  0  0  0  0
   56.7480   32.1852   46.2590 H   0  0  0  0  0  0  0  0  0  0  0  0
   56.6950   31.0670   44.4010 C   0  0  0  0  0  0  0  0  0  0  0  0
   56.0151   30.2976   44.7956 H   0  0  0  0  0  0  0  0  0  0  0  0
   57.1500   30.9870   43.0810 C   0  0  0  0  0  0  0  0  0  0  0  0
   56.8272   30.1554   42.4374 H   0  0  0  0  0  0  0  0  0  0  0  0
   58.0160   31.9650   42.5790 C   0  0  0  0  0  0  0  0  0  0  0  0
   58.3755   31.9005   41.5414 H   0  0  0  0  0  0  0  0  0  0  0  0
   58.4250   33.0250   43.3960 C   0  0  0  0  0  0  0  0  0  0  0  0
   59.1061   33.7932   43.0011 H   0  0  0  0  0  0  0  0  0  0  0  0
   59.9170   32.2000   46.3320 N   0  0  0  0  0  0  0  0  0  0  0  0
   59.0970   31.7030   45.9150 H   0  0  0  0  0  0  0  0  0  0  0  0
   59.2650   27.6120   44.5510 C   0  0  0  0  0  0  0  0  0  0  0  0
   59.7620   27.7161   43.5752 H   0  0  0  0  0  0  0  0  0  0  0  0
   58.2140   26.7020   44.7040 C   0  0  0  0  0  0  0  0  0  0  0  0
   57.8956   26.0839   43.8516 H   0  0  0  0  0  0  0  0  0  0  0  0
  1  2  1  0
  2  3  1  0
  3  4  2  0
  3  5  2  0
  3  6  1  0
  6  7  2  0
  7  8  1  0
  7  9  1  0
  9 10  1  0
  9 11  2  0
 11 12  1  0
 12 13  1  0
 12 14  1  0
 12 15  1  0
 15 16  2  0
 16 17  1  0
 17 18  1  0
 17 19  2  0
 19 20  1  0
 19 21  1  0
 21 22  1  0
 21 23  2  0
 23 24  1  0
 24 25  1  0
 25 26  2  0
 26 27  1  0
 26 28  1  0
 28 29  1  0
 28 30  2  0
 30 31  1  0
 30 32  1  0
 32 33  1  0
 32 34  2  0
 34 35  1  0
 23 36  1  0
 36 37  1  0
 11 38  1  0
 38 39  1  0
 38 40  2  0
 40 41  1  0
 40  6  1  0
 36 16  1  0
 34 25  1  0
M  CHG  1   2  -1
M  END
>  <UniqueID>  (16) 
16

>  <SMILES>  (16) 
[NH-]S(=O)(=O)c1ccc(C/N=c2\cccc(Sc3ccccc3)[nH]2)cc1

>  <Energy>  (16) 
39.76432796874415

>  <Genealogy>  (16) 
[NH-]S(=O)(=O)c1ccc(CN=c2cccc(Sc3ccccc3)[nH]2)cc1 (protonated)
[NH-]S(=O)(=O)c1ccc(C/N=c2\cccc(Sc3ccccc3)[nH]2)cc1 (cis-trans isomerization)
[NH-]S(=O)(=O)c1ccc(C/N=c2\cccc(Sc3ccccc3)[nH]2)cc1 (3D coordinates assigned)
[NH-]S(=O)(=O)c1ccc(C/N=c2\cccc(Sc3ccccc3)[nH]2)cc1 (optimized conformer: 39.76432796874415 kcal/mol)

>  <smiles>  (16) 
NS(=O)(=O)c1ccc(CN=c2cccc(Sc3ccccc3)[nH]2)cc1

>  <score_type>  (16) 
oracle

>  <origin>  (16) 
adg

>  <m_score__min__energy>  (16) 
-11.539999999999999

>  <m_primary>  (16) 
energy

$$$$
16:0
     RDKit          3D

 60 64  0  0  0  0  0  0  0  0999 V2000
   60.9240   29.9670   49.2060 O   0  0  0  0  0  0  0  0  0  0  0  0
   59.7680   30.0090   48.7040 C   0  0  0  0  0  0  0  0  0  0  0  0
   58.9400   31.1570   48.9270 N   0  0  0  0  0  0  0  0  0  0  0  0
   58.5410   31.6240   50.2240 C   0  0  0  0  0  0  0  0  0  0  0  0
   59.0150   32.8550   50.6820 C   0  0  0  0  0  0  0  0  0  0  0  0
   58.6080   33.3500   51.9280 C   0  0  0  0  0  0  0  0  0  0  0  0
   57.6930   32.6320   52.7050 C   0  0  0  0  0  0  0  0  0  0  0  0
   57.1680   31.4130   52.2380 C   0  0  0  0  0  0  0  0  0  0  0  0
   56.1410   30.6840   53.0200 C   0  0  0  0  0  0  0  0  0  0  0  0
   56.2620   30.5990   54.2740 O   0  0  0  0  0  0  0  0  0  0  0  0
   54.9970   30.0840   52.3810 N   0  0  0  0  0  0  0  0  0  0  0  0
   54.4680   28.7930   52.8440 C   0  0  0  0  0  0  0  0  0  0  0  0
   52.9890   28.9660   53.2220 C   0  0  0  0  0  0  0  0  0  0  0  0
   52.2600   29.5420   52.1520 O   0  0  0  0  0  0  0  0  0  0  0  0
   52.7290   30.8600   51.8910 C   0  0  0  0  0  0  0  0  0  0  0  0
   54.1900   30.8320   51.4080 C   0  0  0  0  0  0  0  0  0  0  0  0
   57.5990   30.9160   50.9940 C   0  0  0  0  0  0  0  0  0  0  0  0
   59.2700   28.8660   47.9060 C   0  0  0  0  0  0  0  0  0  0  0  0
   59.7230   27.5610   48.1750 C   0  0  0  0  0  0  0  0  0  0  0  0
   59.1970   26.4690   47.4800 C   0  0  0  0  0  0  0  0  0  0  0  0
   58.1990   26.6600   46.5190 C   0  0  0  0  0  0  0  0  0  0  0  0
   57.7350   27.9560   46.2330 C   0  0  0  0  0  0  0  0  0  0  0  0
   56.6630   28.1650   45.1970 C   0  0  0  0  0  0  0  0  0  0  0  0
   56.1840   29.5460   45.2340 N   0  0  0  0  0  0  0  0  0  0  0  0
   56.6490   30.6070   44.3900 C   0  0  0  0  0  0  0  0  0  0  0  0
   56.4640   30.5180   43.1500 O   0  0  0  0  0  0  0  0  0  0  0  0
   57.3620   31.7820   44.9260 C   0  0  0  0  0  0  0  0  0  0  0  0
   57.7690   32.8790   44.1680 C   0  0  0  0  0  0  0  0  0  0  0  0
   58.4370   33.7000   45.0570 C   0  0  0  0  0  0  0  0  0  0  0  0
   59.0480   34.9400   44.8670 C   0  0  0  0  0  0  0  0  0  0  0  0
   59.6680   35.5480   45.9860 C   0  0  0  0  0  0  0  0  0  0  0  0
   59.6410   34.9200   47.2540 C   0  0  0  0  0  0  0  0  0  0  0  0
   59.0120   33.6670   47.4080 C   0  0  0  0  0  0  0  0  0  0  0  0
   58.4250   33.0820   46.2830 C   0  0  0  0  0  0  0  0  0  0  0  0
   57.7850   31.9010   46.2140 N   0  0  0  0  0  0  0  0  0  0  0  0
   58.2860   29.0550   46.9150 C   0  0  0  0  0  0  0  0  0  0  0  0
   59.7111   33.4388   50.0618 H   0  0  0  0  0  0  0  0  0  0  0  0
   59.0091   34.3058   52.2961 H   0  0  0  0  0  0  0  0  0  0  0  0
   57.3825   33.0221   53.6855 H   0  0  0  0  0  0  0  0  0  0  0  0
   54.5586   28.0475   52.0402 H   0  0  0  0  0  0  0  0  0  0  0  0
   55.0381   28.4500   53.7200 H   0  0  0  0  0  0  0  0  0  0  0  0
   52.5605   27.9816   53.4616 H   0  0  0  0  0  0  0  0  0  0  0  0
   52.9237   29.6344   54.0932 H   0  0  0  0  0  0  0  0  0  0  0  0
   52.1006   31.3196   51.1139 H   0  0  0  0  0  0  0  0  0  0  0  0
   52.6752   31.4451   52.8209 H   0  0  0  0  0  0  0  0  0  0  0  0
   54.2451   30.3396   50.4259 H   0  0  0  0  0  0  0  0  0  0  0  0
   54.5727   31.8592   51.3167 H   0  0  0  0  0  0  0  0  0  0  0  0
   57.1954   29.9638   50.6192 H   0  0  0  0  0  0  0  0  0  0  0  0
   60.4978   27.3993   48.9389 H   0  0  0  0  0  0  0  0  0  0  0  0
   59.5692   25.4553   47.6895 H   0  0  0  0  0  0  0  0  0  0  0  0
   57.7766   25.7952   45.9863 H   0  0  0  0  0  0  0  0  0  0  0  0
   57.0751   27.9504   44.1999 H   0  0  0  0  0  0  0  0  0  0  0  0
   55.8222   27.4887   45.4106 H   0  0  0  0  0  0  0  0  0  0  0  0
   57.5961   33.0533   43.0957 H   0  0  0  0  0  0  0  0  0  0  0  0
   59.0482   35.4288   43.8816 H   0  0  0  0  0  0  0  0  0  0  0  0
   60.1751   36.5171   45.8684 H   0  0  0  0  0  0  0  0  0  0  0  0
   60.1108   35.4094   48.1199 H   0  0  0  0  0  0  0  0  0  0  0  0
   58.9843   33.1645   48.3861 H   0  0  0  0  0  0  0  0  0  0  0  0
   57.6710   31.2070   46.9880 H   0  0  0  0  0  0  0  0  0  0  0  0
   57.9457   30.0726   46.6727 H   0  0  0  0  0  0  0  0  0  0  0  0
  1  2  2  0
  2  3  1  0
  3  4  1  0
  4  5  2  0
  5  6  1  0
  6  7  2  0
  7  8  1  0
  8  9  1  0
  9 10  2  0
  9 11  1  0
 11 12  1  0
 12 13  1  0
 13 14  1  0
 14 15  1  0
 15 16  1  0
  8 17  2  0
  2 18  1  0
 18 19  2  0
 19 20  1  0
 20 21  2  0
 21 22  1  0
 22 23  1  0
 23 24  1  0
 24 25  1  0
 25 26  2  0
 25 27  1  0
 27 28  2  0
 28 29  1  0
 29 30  2  0
 30 31  1  0
 31 32  2  0
 32 33  1  0
 33 34  2  0
 34 35  1  0
 22 36  2  0
 17  4  1  0
 36 18  1  0
 16 11  1  0
 35 27  1  0
 34 29  1  0
  5 37  1  0
  6 38  1  0
  7 39  1  0
 12 40  1  0
 12 41  1  0
 13 42  1  0
 13 43  1  0
 15 44  1  0
 15 45  1  0
 16 46  1  0
 16 47  1  0
 17 48  1  0
 19 49  1  0
 20 50  1  0
 21 51  1  0
 23 52  1  0
 23 53  1  0
 28 54  1  0
 30 55  1  0
 31 56  1  0
 32 57  1  0
 33 58  1  0
 35 59  1  0
 36 60  1  0
M  CHG  2   3  -1  24  -1
M  END
>  <UniqueID>  (17) 
17

>  <SMILES>  (17) 
O=C([N-]c1cccc(C(=O)N2CCOCC2)c1)c1cccc(C[N-]C(=O)c2cc3ccccc3[nH]2)c1

>  <Energy>  (17) 
113.92210639333233

>  <Genealogy>  (17) 
O=C([N-]c1cccc(C(=O)N2CCOCC2)c1)c1cccc(C[N-]C(=O)c2cc3ccccc3[nH]2)c1 (protonated)
O=C([N-]c1cccc(C(=O)N2CCOCC2)c1)c1cccc(C[N-]C(=O)c2cc3ccccc3[nH]2)c1 (3D coordinates assigned)
O=C([N-]c1cccc(C(=O)N2CCOCC2)c1)c1cccc(C[N-]C(=O)c2cc3ccccc3[nH]2)c1 (nonaromatic ring conformer: 113.92210639333233 kcal/mol)

>  <smiles>  (17) 
O=C(Nc1cccc(C(=O)N2CCOCC2)c1)c1cccc(CNC(=O)c2cc3ccccc3[nH]2)c1

>  <score_type>  (17) 
oracle

>  <origin>  (17) 
adg

>  <m_score__min__energy>  (17) 
-13.23

>  <m_primary>  (17) 
energy

$$$$
17:0
     RDKit          3D

 45 47  0  0  0  0  0  0  0  0999 V2000
   58.1370   30.3320   46.2060 C   0  0  0  0  0  0  0  0  0  0  0  0
   58.7990   29.4440   46.9660 C   0  0  0  0  0  0  0  0  0  0  0  0
   58.6360   28.0530   46.9420 C   0  0  0  0  0  0  0  0  0  0  0  0
   57.8500   27.3420   46.1050 C   0  0  0  0  0  0  0  0  0  0  0  0
   57.2040   26.0490   46.4230 C   0  0  0  0  0  0  0  0  0  0  0  0
   57.8300   24.9350   46.8460 N   0  0  0  0  0  0  0  0  0  0  0  0
   56.8240   24.0540   47.0210 C   0  0  0  0  0  0  0  0  0  0  0  0
   57.0180   22.8720   47.4120 O   0  0  0  0  0  0  0  0  0  0  0  0
   55.5940   24.5360   46.7470 N   0  0  0  0  0  0  0  0  0  0  0  0
   55.8530   25.8010   46.3750 C   0  0  0  0  0  0  0  0  0  0  0  0
   54.8720   26.7080   45.9950 O   0  0  0  0  0  0  0  0  0  0  0  0
   59.4750   27.5520   47.9290 C   0  0  0  0  0  0  0  0  0  0  0  0
   60.1230   28.6330   48.4900 C   0  0  0  0  0  0  0  0  0  0  0  0
   61.1130   28.5290   49.6100 C   0  0  0  0  0  0  0  0  0  0  0  0
   59.7190   29.7860   47.9060 N   0  0  0  0  0  0  0  0  0  0  0  0
   60.2310   31.1330   48.2150 C   0  0  0  0  0  0  0  0  0  0  0  0
   61.4850   31.4740   47.3940 C   0  0  0  0  0  0  0  0  0  0  0  0
   62.3010   32.5550   48.0300 C   0  0  0  0  0  0  0  0  0  0  0  0
   63.3650   32.2640   48.6410 O   0  0  0  0  0  0  0  0  0  0  0  0
   61.8660   33.9150   47.9320 N   0  0  0  0  0  0  0  0  0  0  0  0
   60.5590   34.3840   48.3770 C   0  0  0  0  0  0  0  0  0  0  0  0
   59.5590   34.2590   47.2620 C   0  0  0  0  0  0  0  0  0  0  0  0
   59.8640   34.7250   45.9740 C   0  0  0  0  0  0  0  0  0  0  0  0
   58.9300   34.6010   44.9410 C   0  0  0  0  0  0  0  0  0  0  0  0
   57.6870   34.0100   45.1860 C   0  0  0  0  0  0  0  0  0  0  0  0
   57.3820   33.5310   46.4630 C   0  0  0  0  0  0  0  0  0  0  0  0
   58.3170   33.6440   47.4960 C   0  0  0  0  0  0  0  0  0  0  0  0
   58.3457   31.4072   46.3083 H   0  0  0  0  0  0  0  0  0  0  0  0
   57.3862   29.9840   45.4813 H   0  0  0  0  0  0  0  0  0  0  0  0
   57.6752   27.7591   45.1023 H   0  0  0  0  0  0  0  0  0  0  0  0
   59.5990   26.4957   48.2096 H   0  0  0  0  0  0  0  0  0  0  0  0
   60.5843   28.5845   50.5730 H   0  0  0  0  0  0  0  0  0  0  0  0
   61.6469   27.5698   49.5396 H   0  0  0  0  0  0  0  0  0  0  0  0
   61.8346   29.3563   49.5396 H   0  0  0  0  0  0  0  0  0  0  0  0
   59.4473   31.8713   47.9897 H   0  0  0  0  0  0  0  0  0  0  0  0
   60.5051   31.1566   49.2801 H   0  0  0  0  0  0  0  0  0  0  0  0
   62.1049   30.5699   47.3022 H   0  0  0  0  0  0  0  0  0  0  0  0
   61.1553   31.8355   46.4088 H   0  0  0  0  0  0  0  0  0  0  0  0
   60.2271   33.7783   49.2331 H   0  0  0  0  0  0  0  0  0  0  0  0
   60.6372   35.4402   48.6741 H   0  0  0  0  0  0  0  0  0  0  0  0
   60.8413   35.1895   45.7764 H   0  0  0  0  0  0  0  0  0  0  0  0
   59.1737   34.9692   43.9335 H   0  0  0  0  0  0  0  0  0  0  0  0
   56.9497   33.9221   44.3744 H   0  0  0  0  0  0  0  0  0  0  0  0
   56.4047   33.0643   46.6555 H   0  0  0  0  0  0  0  0  0  0  0  0
   58.0799   33.2503   48.4954 H   0  0  0  0  0  0  0  0  0  0  0  0
  1  2  2  0
  2  3  1  0
  3  4  2  3
  4  5  1  0
  5  6  1  0
  6  7  1  0
  7  8  2  0
  7  9  1  0
  9 10  1  0
 10 11  1  0
  3 12  1  0
 12 13  2  0
 13 14  1  0
 13 15  1  0
 15 16  1  0
 16 17  1  0
 17 18  1  0
 18 19  2  0
 18 20  1  0
 20 21  1  0
 21 22  1  0
 22 23  2  0
 23 24  1  0
 24 25  2  0
 25 26  1  0
 26 27  2  0
 15  2  1  0
 27 22  1  0
 10  5  2  0
  1 28  1  0
  1 29  1  0
  4 30  1  0
 12 31  1  0
 14 32  1  0
 14 33  1  0
 14 34  1  0
 16 35  1  0
 16 36  1  0
 17 37  1  0
 17 38  1  0
 21 39  1  0
 21 40  1  0
 23 41  1  0
 24 42  1  0
 25 43  1  0
 26 44  1  0
 27 45  1  0
M  CHG  4   6  -1   9  -1  11  -1  20  -1
M  END
>  <UniqueID>  (18) 
18

>  <SMILES>  (18) 
C=c1c(=Cc2[n-]c(=O)[n-]c2[O-])cc(C)n1CCC(=O)[N-]Cc1ccccc1

>  <Energy>  (18) 
97.34290686651192

>  <Genealogy>  (18) 
C=c1c(=Cc2[n-]c(=O)[n-]c2[O-])cc(C)n1CCC(=O)[N-]Cc1ccccc1 (protonated)
C=c1c(=Cc2[n-]c(=O)[n-]c2[O-])cc(C)n1CCC(=O)[N-]Cc1ccccc1 (3D coordinates assigned)
C=c1c(=Cc2[n-]c(=O)[n-]c2[O-])cc(C)n1CCC(=O)[N-]Cc1ccccc1 (optimized conformer: 97.34290686651192 kcal/mol)

>  <smiles>  (18) 
C=c1c(=Cc2[nH]c(=O)[nH]c2O)cc(C)n1CCC(=O)NCc1ccccc1

>  <score_type>  (18) 
oracle

>  <origin>  (18) 
adg

>  <m_score__min__energy>  (18) 
-16.460000000000001

>  <m_primary>  (18) 
energy

$$$$
18:0
     RDKit          3D

 38 40  0  0  0  0  0  0  0  0999 V2000
   57.9131   20.0708   44.9463 H   0  0  0  0  0  0  0  0  0  0  0  0
   57.5830   21.0540   45.3130 C   0  0  0  0  0  0  0  0  0  0  0  0
   57.3450   21.2570   46.6740 C   0  0  0  0  0  0  0  0  0  0  0  0
   57.5870   19.8350   47.9220 Br  0  0  0  0  0  0  0  0  0  0  0  0
   56.9370   22.4750   47.1160 N   0  0  0  0  0  0  0  0  0  0  0  0
   56.7480   23.5290   46.2720 C   0  0  0  0  0  0  0  0  0  0  0  0
   56.3510   24.6890   46.7110 N   0  0  0  0  0  0  0  0  0  0  0  0
   56.0390   25.8510   45.9250 C   0  0  0  0  0  0  0  0  0  0  0  0
   54.8790   26.3350   45.9980 O   0  0  0  0  0  0  0  0  0  0  0  0
   57.0030   26.4140   45.0250 N   0  0  0  0  0  0  0  0  0  0  0  0
   57.6890   27.6670   45.1530 C   0  0  0  0  0  0  0  0  0  0  0  0
   59.0790   27.7410   45.3540 C   0  0  0  0  0  0  0  0  0  0  0  0
   59.6719   26.8177   45.4311 H   0  0  0  0  0  0  0  0  0  0  0  0
   59.7090   28.9840   45.4560 C   0  0  0  0  0  0  0  0  0  0  0  0
   60.7921   29.0366   45.6407 H   0  0  0  0  0  0  0  0  0  0  0  0
   58.9670   30.1600   45.3240 C   0  0  0  0  0  0  0  0  0  0  0  0
   59.4649   31.1358   45.4233 H   0  0  0  0  0  0  0  0  0  0  0  0
   57.5930   30.1020   45.0660 C   0  0  0  0  0  0  0  0  0  0  0  0
   56.8620   31.3250   44.9070 N   0  0  0  0  0  0  0  0  0  0  0  0
   57.3880   32.5440   44.3660 C   0  0  0  0  0  0  0  0  0  0  0  0
   57.8040   32.5450   43.1770 O   0  0  0  0  0  0  0  0  0  0  0  0
   57.4750   33.8140   45.1900 C   0  0  0  0  0  0  0  0  0  0  0  0
   56.5294   34.2794   44.8750 H   0  0  0  0  0  0  0  0  0  0  0  0
   57.7740   33.5900   46.6750 C   0  0  0  0  0  0  0  0  0  0  0  0
   57.0462   34.0573   47.3546 H   0  0  0  0  0  0  0  0  0  0  0  0
   57.7750   32.5731   47.0943 H   0  0  0  0  0  0  0  0  0  0  0  0
   59.0760   34.3640   46.5330 C   0  0  0  0  0  0  0  0  0  0  0  0
   59.1073   35.2988   47.1119 H   0  0  0  0  0  0  0  0  0  0  0  0
   60.0251   33.9201   46.8678 H   0  0  0  0  0  0  0  0  0  0  0  0
   58.8020   34.5620   45.0500 C   0  0  0  0  0  0  0  0  0  0  0  0
   58.6937   35.6150   44.7508 H   0  0  0  0  0  0  0  0  0  0  0  0
   59.5424   34.2435   44.3014 H   0  0  0  0  0  0  0  0  0  0  0  0
   56.9510   28.8510   45.0070 C   0  0  0  0  0  0  0  0  0  0  0  0
   55.6040   28.7810   44.8680 F   0  0  0  0  0  0  0  0  0  0  0  0
   56.9770   23.3580   44.9010 C   0  0  0  0  0  0  0  0  0  0  0  0
   56.8273   24.1970   44.2055 H   0  0  0  0  0  0  0  0  0  0  0  0
   57.3970   22.1140   44.4230 C   0  0  0  0  0  0  0  0  0  0  0  0
   57.5807   21.9699   43.3481 H   0  0  0  0  0  0  0  0  0  0  0  0
  1  2  1  0
  2  3  2  0
  3  4  1  0
  3  5  1  0
  5  6  1  0
  6  7  2  0
  7  8  1  0
  8  9  2  0
  8 10  1  0
 10 11  1  0
 11 12  2  0
 12 13  1  0
 12 14  1  0
 14 15  1  0
 14 16  2  0
 16 17  1  0
 16 18  1  0
 18 19  1  0
 19 20  1  0
 20 21  2  0
 20 22  1  0
 22 23  1  0
 22 24  1  0
 24 25  1  0
 24 26  1  0
 24 27  1  0
 27 28  1  0
 27 29  1  0
 27 30  1  0
 30 31  1  0
 30 32  1  0
 18 33  2  0
 33 34  1  0
  6 35  1  0
 35 36  1  0
 35 37  2  0
 37 38  1  0
 37  2  1  0
 33 11  1  0
 30 22  1  0
M  CHG  3   5  -1  10  -1  19  -1
M  END
>  <UniqueID>  (19) 
19

>  <SMILES>  (19) 
O=C(/N=c1/cccc(Br)[n-]1)[N-]c1cccc([N-]C(=O)C2CCC2)c1F

>  <Energy>  (19) 
111.62726351824833

>  <Genealogy>  (19) 
O=C(N=c1cccc(Br)[n-]1)[N-]c1cccc([N-]C(=O)C2CCC2)c1F (protonated)
O=C(/N=c1/cccc(Br)[n-]1)[N-]c1cccc([N-]C(=O)C2CCC2)c1F (cis-trans isomerization)
O=C(/N=c1/cccc(Br)[n-]1)[N-]c1cccc([N-]C(=O)C2CCC2)c1F (3D coordinates assigned)
O=C(/N=c1/cccc(Br)[n-]1)[N-]c1cccc([N-]C(=O)C2CCC2)c1F (nonaromatic ring conformer: 111.62726351824833 kcal/mol)

>  <smiles>  (19) 
O=C(N=c1cccc(Br)[nH]1)Nc1cccc(NC(=O)C2CCC2)c1F

>  <score_type>  (19) 
oracle

>  <origin>  (19) 
adg

>  <m_score__min__energy>  (19) 
-12.51

>  <m_primary>  (19) 
energy

$$$$
19:0
     RDKit          3D

 75 77  0  0  0  0  0  0  0  0999 V2000
   57.6735   31.4365   43.2485 H   0  0  0  0  0  0  0  0  0  0  0  0
   57.2530   31.3590   44.2620 C   0  0  0  0  0  0  0  0  0  0  0  0
   57.0460   29.9920   44.8170 C   0  0  0  0  0  0  0  0  0  0  0  0
   55.8810   29.5060   44.8680 O   0  0  0  0  0  0  0  0  0  0  0  0
   58.1550   29.1880   45.2760 N   0  0  0  0  0  0  0  0  0  0  0  0
   57.9950   28.2320   46.3630 C   0  0  0  0  0  0  0  0  0  0  0  0
   58.3677   27.2495   46.0377 H   0  0  0  0  0  0  0  0  0  0  0  0
   56.9283   28.1679   46.6239 H   0  0  0  0  0  0  0  0  0  0  0  0
   58.7820   28.6850   47.6050 C   0  0  0  0  0  0  0  0  0  0  0  0
   59.1597   27.7842   48.1109 H   0  0  0  0  0  0  0  0  0  0  0  0
   58.0740   29.2754   48.2051 H   0  0  0  0  0  0  0  0  0  0  0  0
   59.9410   29.5850   47.3520 N   0  0  0  0  0  0  0  0  0  0  0  0
   60.7040   30.0790   48.4980 C   0  0  0  0  0  0  0  0  0  0  0  0
   61.0250   29.2330   49.5830 C   0  0  0  0  0  0  0  0  0  0  0  0
   60.6857   28.1867   49.5707 H   0  0  0  0  0  0  0  0  0  0  0  0
   61.7640   29.7000   50.6690 C   0  0  0  0  0  0  0  0  0  0  0  0
   61.9937   29.0185   51.5014 H   0  0  0  0  0  0  0  0  0  0  0  0
   62.2190   31.0260   50.7160 C   0  0  0  0  0  0  0  0  0  0  0  0
   63.0120   31.4830   51.9130 C   0  0  0  0  0  0  0  0  0  0  0  0
   62.4912   31.1828   52.8342 H   0  0  0  0  0  0  0  0  0  0  0  0
   64.0103   31.0217   51.8893 H   0  0  0  0  0  0  0  0  0  0  0  0
   63.1134   32.5781   51.8893 H   0  0  0  0  0  0  0  0  0  0  0  0
   61.9190   31.8940   49.6410 C   0  0  0  0  0  0  0  0  0  0  0  0
   62.4030   33.3290   49.5890 C   0  0  0  0  0  0  0  0  0  0  0  0
   61.5976   33.9692   49.1999 H   0  0  0  0  0  0  0  0  0  0  0  0
   62.6828   33.6480   50.6039 H   0  0  0  0  0  0  0  0  0  0  0  0
   63.5830   33.4430   48.7090 N   0  0  0  0  0  0  0  0  0  0  0  0
   63.1850   33.4170   47.2900 C   0  0  0  0  0  0  0  0  0  0  0  0
   62.0897   33.3454   47.2176 H   0  0  0  0  0  0  0  0  0  0  0  0
   63.5256   34.3393   46.7967 H   0  0  0  0  0  0  0  0  0  0  0  0
   63.6427   32.5468   46.7967 H   0  0  0  0  0  0  0  0  0  0  0  0
   64.5200   32.3380   48.9780 C   0  0  0  0  0  0  0  0  0  0  0  0
   64.6307   32.2074   50.0646 H   0  0  0  0  0  0  0  0  0  0  0  0
   64.1294   31.4100   48.5351 H   0  0  0  0  0  0  0  0  0  0  0  0
   65.4994   32.5717   48.5351 H   0  0  0  0  0  0  0  0  0  0  0  0
   61.1650   31.4150   48.5550 C   0  0  0  0  0  0  0  0  0  0  0  0
   60.9270   32.0984   47.7266 H   0  0  0  0  0  0  0  0  0  0  0  0
   60.2720   30.1040   46.0010 C   0  0  0  0  0  0  0  0  0  0  0  0
   61.3534   29.9838   45.8394 H   0  0  0  0  0  0  0  0  0  0  0  0
   59.9554   31.1572   45.9777 H   0  0  0  0  0  0  0  0  0  0  0  0
   59.5370   29.3970   44.8700 C   0  0  0  0  0  0  0  0  0  0  0  0
   60.0145   28.4272   44.6665 H   0  0  0  0  0  0  0  0  0  0  0  0
   59.5728   30.0093   43.9569 H   0  0  0  0  0  0  0  0  0  0  0  0
   56.9660   32.5050   44.9030 C   0  0  0  0  0  0  0  0  0  0  0  0
   55.9222   32.8518   44.8905 H   0  0  0  0  0  0  0  0  0  0  0  0
   57.9540   33.3280   45.6210 C   0  0  0  0  0  0  0  0  0  0  0  0
   58.7330   34.2580   44.9190 C   0  0  0  0  0  0  0  0  0  0  0  0
   58.6206   34.3586   43.8294 H   0  0  0  0  0  0  0  0  0  0  0  0
   59.6520   35.0570   45.6030 C   0  0  0  0  0  0  0  0  0  0  0  0
   60.2454   35.8031   45.0542 H   0  0  0  0  0  0  0  0  0  0  0  0
   59.8200   34.9110   46.9850 C   0  0  0  0  0  0  0  0  0  0  0  0
   60.5284   35.5591   47.5218 H   0  0  0  0  0  0  0  0  0  0  0  0
   59.0900   33.9430   47.6880 C   0  0  0  0  0  0  0  0  0  0  0  0
   59.2750   33.8040   49.1060 N   0  0  0  0  0  0  0  0  0  0  0  0
   59.9050   34.4910   49.5920 H   0  0  0  0  0  0  0  0  0  0  0  0
   58.6870   32.7450   49.8760 C   0  0  0  0  0  0  0  0  0  0  0  0
   58.2010   31.7370   49.2960 O   0  0  0  0  0  0  0  0  0  0  0  0
   58.6600   32.8410   51.3480 C   0  0  0  0  0  0  0  0  0  0  0  0
   59.1841   33.6773   51.8337 H   0  0  0  0  0  0  0  0  0  0  0  0
   58.0220   31.9490   52.1140 C   0  0  0  0  0  0  0  0  0  0  0  0
   57.3912   32.3032   52.9426 H   0  0  0  0  0  0  0  0  0  0  0  0
   58.1500   30.4740   51.8650 C   0  0  0  0  0  0  0  0  0  0  0  0
   58.5768   30.3106   50.8645 H   0  0  0  0  0  0  0  0  0  0  0  0
   58.8077   30.0375   52.6311 H   0  0  0  0  0  0  0  0  0  0  0  0
   56.8230   29.8230   51.9420 N   0  0  0  0  0  0  0  0  0  0  0  0
   56.7340   28.9560   53.1330 C   0  0  0  0  0  0  0  0  0  0  0  0
   56.7974   29.5732   54.0414 H   0  0  0  0  0  0  0  0  0  0  0  0
   55.7757   28.4160   53.1227 H   0  0  0  0  0  0  0  0  0  0  0  0
   57.5626   28.2326   53.1227 H   0  0  0  0  0  0  0  0  0  0  0  0
   55.7620   30.8420   51.9950 C   0  0  0  0  0  0  0  0  0  0  0  0
   55.5247   31.0700   53.0446 H   0  0  0  0  0  0  0  0  0  0  0  0
   56.1064   31.7565   51.4900 H   0  0  0  0  0  0  0  0  0  0  0  0
   54.8621   30.4610   51.4900 H   0  0  0  0  0  0  0  0  0  0  0  0
   58.1400   33.1660   47.0020 C   0  0  0  0  0  0  0  0  0  0  0  0
   57.5389   32.4266   47.5515 H   0  0  0  0  0  0  0  0  0  0  0  0
  1  2  1  0
  2  3  1  0
  3  4  2  0
  3  5  1  0
  5  6  1  0
  6  7  1  0
  6  8  1  0
  6  9  1  0
  9 10  1  0
  9 11  1  0
  9 12  1  0
 12 13  1  0
 13 14  2  0
 14 15  1  0
 14 16  1  0
 16 17  1  0
 16 18  2  0
 18 19  1  0
 19 20  1  0
 19 21  1  0
 19 22  1  0
 18 23  1  0
 23 24  1  0
 24 25  1  0
 24 26  1  0
 24 27  1  0
 27 28  1  0
 28 29  1  0
 28 30  1  0
 28 31  1  0
 27 32  1  0
 32 33  1  0
 32 34  1  0
 32 35  1  0
 23 36  2  0
 36 37  1  0
 12 38  1  0
 38 39  1  0
 38 40  1  0
 38 41  1  0
 41 42  1  0
 41 43  1  0
  2 44  2  3
 44 45  1  0
 44 46  1  0
 46 47  2  0
 47 48  1  0
 47 49  1  0
 49 50  1  0
 49 51  2  0
 51 52  1  0
 51 53  1  0
 53 54  1  0
 54 55  1  0
 54 56  1  0
 56 57  2  0
 56 58  1  0
 58 59  1  0
 58 60  2  0
 60 61  1  0
 60 62  1  0
 62 63  1  0
 62 64  1  0
 62 65  1  0
 65 66  1  0
 66 67  1  0
 66 68  1  0
 66 69  1  0
 65 70  1  0
 70 71  1  0
 70 72  1  0
 70 73  1  0
 53 74  2  0
 74 75  1  0
 41  5  1  0
 74 46  1  0
 36 13  1  0
M  END
>  <UniqueID>  (20) 
20

>  <SMILES>  (20) 
Cc1ccc(N2CCN(C(=O)C=Cc3cccc(NC(=O)/C=C/CN(C)C)c3)CC2)cc1CN(C)C

>  <Energy>  (20) 
95.97713133444344

>  <Genealogy>  (20) 
Cc1ccc(N2CCN(C(=O)C=Cc3cccc(NC(=O)/C=C/CN(C)C)c3)CC2)cc1CN(C)C (cis-trans isomerization)
Cc1ccc(N2CCN(C(=O)C=Cc3cccc(NC(=O)/C=C/CN(C)C)c3)CC2)cc1CN(C)C (3D coordinates assigned)
Cc1ccc(N2CCN(C(=O)C=Cc3cccc(NC(=O)/C=C/CN(C)C)c3)CC2)cc1CN(C)C (nonaromatic ring conformer: 95.97713133444344 kcal/mol)

>  <smiles>  (20) 
Cc1ccc(N2CCN(C(=O)C=Cc3cccc(NC(=O)C=CCN(C)C)c3)CC2)cc1CN(C)C

>  <score_type>  (20) 
oracle

>  <origin>  (20) 
adg

>  <m_score__min__energy>  (20) 
-9.75

>  <m_primary>  (20) 
energy

$$$$
20:0
     RDKit          3D

 55 58  0  0  0  0  0  0  0  0999 V2000
   56.6090   29.3700   43.0040 C   0  0  0  0  0  0  0  0  0  0  0  0
   57.3370   29.3340   44.1320 C   0  0  0  0  0  0  0  0  0  0  0  0
   57.6430   28.2020   44.9040 C   0  0  0  0  0  0  0  0  0  0  0  0
   57.5010   26.8880   44.6420 C   0  0  0  0  0  0  0  0  0  0  0  0
   57.0470   25.8670   45.6000 C   0  0  0  0  0  0  0  0  0  0  0  0
   57.8230   24.8950   46.1130 N   0  0  0  0  0  0  0  0  0  0  0  0
   57.0160   24.2960   47.0160 C   0  0  0  0  0  0  0  0  0  0  0  0
   57.3850   23.3130   47.7080 O   0  0  0  0  0  0  0  0  0  0  0  0
   55.7850   24.8400   47.1240 N   0  0  0  0  0  0  0  0  0  0  0  0
   55.8270   25.8410   46.2310 C   0  0  0  0  0  0  0  0  0  0  0  0
   54.7730   26.7160   45.9990 O   0  0  0  0  0  0  0  0  0  0  0  0
   58.1500   28.6790   46.1030 C   0  0  0  0  0  0  0  0  0  0  0  0
   58.1980   30.0540   46.0000 C   0  0  0  0  0  0  0  0  0  0  0  0
   58.6550   30.9770   47.0870 C   0  0  0  0  0  0  0  0  0  0  0  0
   57.7180   30.4510   44.8020 N   0  0  0  0  0  0  0  0  0  0  0  0
   57.5050   31.8070   44.3890 C   0  0  0  0  0  0  0  0  0  0  0  0
   57.8080   32.1590   43.2180 O   0  0  0  0  0  0  0  0  0  0  0  0
   56.8590   32.7250   45.2750 N   0  0  0  0  0  0  0  0  0  0  0  0
   57.2820   34.1150   45.4020 C   0  0  0  0  0  0  0  0  0  0  0  0
   58.6180   34.1680   46.0950 C   0  0  0  0  0  0  0  0  0  0  0  0
   58.6910   34.2650   47.4940 C   0  0  0  0  0  0  0  0  0  0  0  0
   59.9230   34.1500   48.1450 C   0  0  0  0  0  0  0  0  0  0  0  0
   61.0940   33.9280   47.4060 C   0  0  0  0  0  0  0  0  0  0  0  0
   62.6360   33.7010   48.2330 S   0  0  0  0  0  0  0  0  0  0  0  0
   63.7470   33.7310   47.2210 O   0  0  0  0  0  0  0  0  0  0  0  0
   62.8540   34.8350   49.1960 O   0  0  0  0  0  0  0  0  0  0  0  0
   62.6910   32.1860   49.1030 N   0  0  0  0  0  0  0  0  0  0  0  0
   61.4500   31.4250   48.8980 C   0  0  0  0  0  0  0  0  0  0  0  0
   61.5230   30.0850   49.6630 C   0  0  0  0  0  0  0  0  0  0  0  0
   62.6830   29.9900   50.4700 O   0  0  0  0  0  0  0  0  0  0  0  0
   62.7630   31.1080   51.3340 C   0  0  0  0  0  0  0  0  0  0  0  0
   62.9070   32.4220   50.5400 C   0  0  0  0  0  0  0  0  0  0  0  0
   61.0270   33.8580   46.0080 C   0  0  0  0  0  0  0  0  0  0  0  0
   59.7960   33.9740   45.3570 C   0  0  0  0  0  0  0  0  0  0  0  0
   56.4398   30.3271   42.4889 H   0  0  0  0  0  0  0  0  0  0  0  0
   56.1819   28.4424   42.5952 H   0  0  0  0  0  0  0  0  0  0  0  0
   57.7454   26.5491   43.6245 H   0  0  0  0  0  0  0  0  0  0  0  0
   58.4557   28.0762   46.9709 H   0  0  0  0  0  0  0  0  0  0  0  0
   58.4329   30.5283   48.0665 H   0  0  0  0  0  0  0  0  0  0  0  0
   59.7388   31.1418   46.9965 H   0  0  0  0  0  0  0  0  0  0  0  0
   58.1290   31.9389   46.9965 H   0  0  0  0  0  0  0  0  0  0  0  0
   57.3687   34.5654   44.4022 H   0  0  0  0  0  0  0  0  0  0  0  0
   56.5394   34.6736   45.9907 H   0  0  0  0  0  0  0  0  0  0  0  0
   57.7752   34.4321   48.0801 H   0  0  0  0  0  0  0  0  0  0  0  0
   59.9739   34.2339   49.2406 H   0  0  0  0  0  0  0  0  0  0  0  0
   60.5968   32.0114   49.2699 H   0  0  0  0  0  0  0  0  0  0  0  0
   61.3222   31.2228   47.8243 H   0  0  0  0  0  0  0  0  0  0  0  0
   60.6357   29.9964   50.3070 H   0  0  0  0  0  0  0  0  0  0  0  0
   61.5623   29.2747   48.9201 H   0  0  0  0  0  0  0  0  0  0  0  0
   61.8483   31.1560   51.9431 H   0  0  0  0  0  0  0  0  0  0  0  0
   63.6508   30.9898   51.9727 H   0  0  0  0  0  0  0  0  0  0  0  0
   62.1635   33.1469   50.9030 H   0  0  0  0  0  0  0  0  0  0  0  0
   63.9242   32.8145   50.6857 H   0  0  0  0  0  0  0  0  0  0  0  0
   61.9460   33.7113   45.4215 H   0  0  0  0  0  0  0  0  0  0  0  0
   59.7499   33.9129   44.2597 H   0  0  0  0  0  0  0  0  0  0  0  0
  1  2  2  0
  2  3  1  0
  3  4  2  3
  4  5  1  0
  5  6  1  0
  6  7  1  0
  7  8  2  0
  7  9  1  0
  9 10  1  0
 10 11  1  0
  3 12  1  0
 12 13  2  0
 13 14  1  0
 13 15  1  0
 15 16  1  0
 16 17  2  0
 16 18  1  0
 18 19  1  0
 19 20  1  0
 20 21  2  0
 21 22  1  0
 22 23  2  0
 23 24  1  0
 24 25  2  0
 24 26  2  0
 24 27  1  0
 27 28  1  0
 28 29  1  0
 29 30  1  0
 30 31  1  0
 31 32  1  0
 23 33  1  0
 33 34  2  0
 15  2  1  0
 34 20  1  0
 10  5  2  0
 32 27  1  0
  1 35  1  0
  1 36  1  0
  4 37  1  0
 12 38  1  0
 14 39  1  0
 14 40  1  0
 14 41  1  0
 19 42  1  0
 19 43  1  0
 21 44  1  0
 22 45  1  0
 28 46  1  0
 28 47  1  0
 29 48  1  0
 29 49  1  0
 31 50  1  0
 31 51  1  0
 32 52  1  0
 32 53  1  0
 33 54  1  0
 34 55  1  0
M  CHG  4   6  -1   9  -1  11  -1  18  -1
M  END
>  <UniqueID>  (21) 
21

>  <SMILES>  (21) 
C=c1c(=Cc2[n-]c(=O)[n-]c2[O-])cc(C)n1C(=O)[N-]Cc1ccc(S(=O)(=O)N2CCOCC2)cc1

>  <Energy>  (21) 
133.35425799038705

>  <Genealogy>  (21) 
C=c1c(=Cc2[n-]c(=O)[n-]c2[O-])cc(C)n1C(=O)[N-]Cc1ccc(S(=O)(=O)N2CCOCC2)cc1 (protonated)
C=c1c(=Cc2[n-]c(=O)[n-]c2[O-])cc(C)n1C(=O)[N-]Cc1ccc(S(=O)(=O)N2CCOCC2)cc1 (3D coordinates assigned)
C=c1c(=Cc2[n-]c(=O)[n-]c2[O-])cc(C)n1C(=O)[N-]Cc1ccc(S(=O)(=O)N2CCOCC2)cc1 (nonaromatic ring conformer: 133.35425799038705 kcal/mol)

>  <smiles>  (21) 
C=c1c(=Cc2[nH]c(=O)[nH]c2O)cc(C)n1C(=O)NCc1ccc(S(=O)(=O)N2CCOCC2)cc1

>  <score_type>  (21) 
oracle

>  <origin>  (21) 
adg

>  <m_score__min__energy>  (21) 
-19.609999999999999

>  <m_primary>  (21) 
energy

$$$$
21:0
     RDKit          3D

 53 56  0  0  0  0  0  0  0  0999 V2000
   59.9070   29.4510   44.5820 O   0  0  0  0  0  0  0  0  0  0  0  0
   58.7100   29.0910   44.7480 C   0  0  0  0  0  0  0  0  0  0  0  0
   57.7060   30.0680   45.0810 N   0  0  0  0  0  0  0  0  0  0  0  0
   57.9970   31.4440   45.3810 C   0  0  0  0  0  0  0  0  0  0  0  0
   57.3810   32.4560   44.6300 C   0  0  0  0  0  0  0  0  0  0  0  0
   57.6270   33.8000   44.9200 C   0  0  0  0  0  0  0  0  0  0  0  0
   58.4740   34.1460   45.9730 C   0  0  0  0  0  0  0  0  0  0  0  0
   59.0720   33.1490   46.7540 C   0  0  0  0  0  0  0  0  0  0  0  0
   60.1070   33.5880   48.1140 S   0  0  0  0  0  0  0  0  0  0  0  0
   59.2710   33.6340   49.3630 O   0  0  0  0  0  0  0  0  0  0  0  0
   60.6640   34.9660   47.8850 O   0  0  0  0  0  0  0  0  0  0  0  0
   61.4260   32.4600   48.3480 N   0  0  0  0  0  0  0  0  0  0  0  0
   62.2400   32.7770   49.5370 C   0  0  0  0  0  0  0  0  0  0  0  0
   63.3060   33.8680   49.2700 C   0  0  0  0  0  0  0  0  0  0  0  0
   63.4330   34.2010   47.9010 O   0  0  0  0  0  0  0  0  0  0  0  0
   63.5560   33.0250   47.1370 C   0  0  0  0  0  0  0  0  0  0  0  0
   62.2270   32.2510   47.1220 C   0  0  0  0  0  0  0  0  0  0  0  0
   58.8330   31.8000   46.4560 C   0  0  0  0  0  0  0  0  0  0  0  0
   58.3660   27.6570   44.5850 C   0  0  0  0  0  0  0  0  0  0  0  0
   58.3420   26.8110   45.7060 C   0  0  0  0  0  0  0  0  0  0  0  0
   58.0210   25.4610   45.5650 C   0  0  0  0  0  0  0  0  0  0  0  0
   57.7410   24.9460   44.2900 C   0  0  0  0  0  0  0  0  0  0  0  0
   57.3860   23.5620   44.1070 N   0  0  0  0  0  0  0  0  0  0  0  0
   58.3740   22.5300   44.4670 C   0  0  0  0  0  0  0  0  0  0  0  0
   57.7410   21.1370   44.5680 C   0  0  0  0  0  0  0  0  0  0  0  0
   56.9100   20.8480   43.3200 C   0  0  0  0  0  0  0  0  0  0  0  0
   55.9020   21.8410   43.1670 O   0  0  0  0  0  0  0  0  0  0  0  0
   56.1440   23.1800   43.4780 C   0  0  0  0  0  0  0  0  0  0  0  0
   55.2410   24.0320   43.2640 O   0  0  0  0  0  0  0  0  0  0  0  0
   57.7710   25.7810   43.2150 N   0  0  0  0  0  0  0  0  0  0  0  0
   58.0760   27.1010   43.3270 C   0  0  0  0  0  0  0  0  0  0  0  0
   56.6990   29.7930   45.0690 H   0  0  0  0  0  0  0  0  0  0  0  0
   56.7003   32.1896   43.8080 H   0  0  0  0  0  0  0  0  0  0  0  0
   57.1517   34.5874   44.3166 H   0  0  0  0  0  0  0  0  0  0  0  0
   58.6730   35.2057   46.1907 H   0  0  0  0  0  0  0  0  0  0  0  0
   61.5707   33.1295   50.3356 H   0  0  0  0  0  0  0  0  0  0  0  0
   62.7745   31.8591   49.8228 H   0  0  0  0  0  0  0  0  0  0  0  0
   63.0247   34.7748   49.8256 H   0  0  0  0  0  0  0  0  0  0  0  0
   64.2751   33.4651   49.5993 H   0  0  0  0  0  0  0  0  0  0  0  0
   63.8320   33.2904   46.1058 H   0  0  0  0  0  0  0  0  0  0  0  0
   64.3332   32.3889   47.5857 H   0  0  0  0  0  0  0  0  0  0  0  0
   61.6365   32.5840   46.2558 H   0  0  0  0  0  0  0  0  0  0  0  0
   62.4693   31.1796   47.0643 H   0  0  0  0  0  0  0  0  0  0  0  0
   59.3021   31.0144   47.0665 H   0  0  0  0  0  0  0  0  0  0  0  0
   58.5778   27.2157   46.7013 H   0  0  0  0  0  0  0  0  0  0  0  0
   57.9876   24.8046   46.4471 H   0  0  0  0  0  0  0  0  0  0  0  0
   59.1601   22.5077   43.6979 H   0  0  0  0  0  0  0  0  0  0  0  0
   58.7883   22.7865   45.4532 H   0  0  0  0  0  0  0  0  0  0  0  0
   58.5356   20.3818   44.6593 H   0  0  0  0  0  0  0  0  0  0  0  0
   57.0879   21.1010   45.4524 H   0  0  0  0  0  0  0  0  0  0  0  0
   57.5651   20.8544   42.4364 H   0  0  0  0  0  0  0  0  0  0  0  0
   56.4335   19.8620   43.4233 H   0  0  0  0  0  0  0  0  0  0  0  0
   58.0959   27.7366   42.4295 H   0  0  0  0  0  0  0  0  0  0  0  0
  1  2  2  0
  2  3  1  0
  3  4  1  0
  4  5  2  0
  5  6  1  0
  6  7  2  0
  7  8  1  0
  8  9  1  0
  9 10  2  0
  9 11  2  0
  9 12  1  0
 12 13  1  0
 13 14  1  0
 14 15  1  0
 15 16  1  0
 16 17  1  0
  8 18  2  0
  2 19  1  0
 19 20  2  0
 20 21  1  0
 21 22  2  0
 22 23  1  0
 23 24  1  0
 24 25  1  0
 25 26  1  0
 26 27  1  0
 27 28  1  0
 28 29  2  0
 22 30  1  0
 30 31  2  0
 18  4  1  0
 31 19  1  0
 17 12  1  0
 28 23  1  0
  3 32  1  0
  5 33  1  0
  6 34  1  0
  7 35  1  0
 13 36  1  0
 13 37  1  0
 14 38  1  0
 14 39  1  0
 16 40  1  0
 16 41  1  0
 17 42  1  0
 17 43  1  0
 18 44  1  0
 20 45  1  0
 21 46  1  0
 24 47  1  0
 24 48  1  0
 25 49  1  0
 25 50  1  0
 26 51  1  0
 26 52  1  0
 31 53  1  0
M  END
>  <UniqueID>  (22) 
22

>  <SMILES>  (22) 
O=C(Nc1cccc(S(=O)(=O)N2CCOCC2)c1)c1ccc(N2CCCOC2=O)nc1

>  <Energy>  (22) 
76.6938931771419

>  <Genealogy>  (22) 
O=C(Nc1cccc(S(=O)(=O)N2CCOCC2)c1)c1ccc(N2CCCOC2=O)nc1 (3D coordinates assigned)
O=C(Nc1cccc(S(=O)(=O)N2CCOCC2)c1)c1ccc(N2CCCOC2=O)nc1 (nonaromatic ring conformer: 76.6938931771419 kcal/mol)

>  <smiles>  (22) 
O=C(Nc1cccc(S(=O)(=O)N2CCOCC2)c1)c1ccc(N2CCCOC2=O)nc1

>  <score_type>  (22) 
oracle

>  <origin>  (22) 
adg

>  <m_score__min__energy>  (22) 
-9.7400000000000002

>  <m_primary>  (22) 
energy

$$$$
22:0
     RDKit          3D

 37 39  0  0  0  0  0  0  0  0999 V2000
   59.4870   26.1408   47.4756 H   0  0  0  0  0  0  0  0  0  0  0  0
   60.0390   27.0040   47.8760 C   0  0  0  0  0  0  0  0  0  0  0  0
   60.6173   26.9036   48.8063 H   0  0  0  0  0  0  0  0  0  0  0  0
   60.0070   28.1750   47.2320 C   0  0  0  0  0  0  0  0  0  0  0  0
   59.2220   28.5340   46.1230 C   0  0  0  0  0  0  0  0  0  0  0  0
   58.4400   27.7750   45.3250 C   0  0  0  0  0  0  0  0  0  0  0  0
   58.6578   27.7864   44.2468 H   0  0  0  0  0  0  0  0  0  0  0  0
   57.3220   26.9350   45.7780 C   0  0  0  0  0  0  0  0  0  0  0  0
   57.4320   25.3140   46.2390 S   0  0  0  0  0  0  0  0  0  0  0  0
   55.7630   25.1440   46.3370 C   0  0  0  0  0  0  0  0  0  0  0  0
   55.1780   24.0830   46.6770 O   0  0  0  0  0  0  0  0  0  0  0  0
   55.1040   26.2710   45.9970 N   0  0  0  0  0  0  0  0  0  0  0  0
   55.9730   27.2620   45.6680 C   0  0  0  0  0  0  0  0  0  0  0  0
   55.5300   28.5100   45.2490 O   0  0  0  0  0  0  0  0  0  0  0  0
   59.3840   29.9100   45.9830 C   0  0  0  0  0  0  0  0  0  0  0  0
   58.7930   30.7690   44.9390 C   0  0  0  0  0  0  0  0  0  0  0  0
   58.7190   30.3320   43.7590 O   0  0  0  0  0  0  0  0  0  0  0  0
   58.2990   32.0820   45.2500 N   0  0  0  0  0  0  0  0  0  0  0  0
   57.9230   33.0450   44.2300 C   0  0  0  0  0  0  0  0  0  0  0  0
   58.8181   33.4414   43.7283 H   0  0  0  0  0  0  0  0  0  0  0  0
   57.2930   32.5878   43.4527 H   0  0  0  0  0  0  0  0  0  0  0  0
   57.1890   34.1590   44.9650 C   0  0  0  0  0  0  0  0  0  0  0  0
   57.5420   35.1418   44.6194 H   0  0  0  0  0  0  0  0  0  0  0  0
   56.1055   34.1174   44.7798 H   0  0  0  0  0  0  0  0  0  0  0  0
   57.5100   33.9710   46.4450 C   0  0  0  0  0  0  0  0  0  0  0  0
   58.3100   34.6602   46.7534 H   0  0  0  0  0  0  0  0  0  0  0  0
   56.6356   34.1834   47.0777 H   0  0  0  0  0  0  0  0  0  0  0  0
   57.9690   32.5270   46.5930 C   0  0  0  0  0  0  0  0  0  0  0  0
   58.8535   32.4702   47.2445 H   0  0  0  0  0  0  0  0  0  0  0  0
   57.1914   31.8977   47.0506 H   0  0  0  0  0  0  0  0  0  0  0  0
   60.3040   30.3070   46.9410 C   0  0  0  0  0  0  0  0  0  0  0  0
   60.8500   31.6870   47.1460 C   0  0  0  0  0  0  0  0  0  0  0  0
   60.9314   31.8928   48.2235 H   0  0  0  0  0  0  0  0  0  0  0  0
   61.8449   31.7603   46.6825 H   0  0  0  0  0  0  0  0  0  0  0  0
   60.1746   32.4212   46.6825 H   0  0  0  0  0  0  0  0  0  0  0  0
   60.6710   29.2540   47.6930 N   0  0  0  0  0  0  0  0  0  0  0  0
   61.3230   29.2850   48.5100 H   0  0  0  0  0  0  0  0  0  0  0  0
  1  2  1  0
  2  3  1  0
  2  4  2  0
  4  5  1  0
  5  6  2  0
  6  7  1  0
  6  8  1  0
  8  9  1  0
  9 10  1  0
 10 11  2  0
 10 12  1  0
 12 13  1  0
 13 14  1  0
  5 15  1  0
 15 16  1  0
 16 17  2  0
 16 18  1  0
 18 19  1  0
 19 20  1  0
 19 21  1  0
 19 22  1  0
 22 23  1  0
 22 24  1  0
 22 25  1  0
 25 26  1  0
 25 27  1  0
 25 28  1  0
 28 29  1  0
 28 30  1  0
 15 31  2  0
 31 32  1  0
 32 33  1  0
 32 34  1  0
 32 35  1  0
 31 36  1  0
 36 37  1  0
 36  4  1  0
 13  8  2  0
 28 18  1  0
M  CHG  2  12  -1  14  -1
M  END
>  <UniqueID>  (23) 
23

>  <SMILES>  (23) 
C=c1[nH]c(C)c(C(=O)N2CCCC2)/c1=C/c1sc(=O)[n-]c1[O-]

>  <Energy>  (23) 
112.5771607753279

>  <Genealogy>  (23) 
C=c1[nH]c(C)c(C(=O)N2CCCC2)c1=Cc1sc(=O)[n-]c1[O-] (protonated)
C=c1[nH]c(C)c(C(=O)N2CCCC2)/c1=C/c1sc(=O)[n-]c1[O-] (cis-trans isomerization)
C=c1[nH]c(C)c(C(=O)N2CCCC2)/c1=C/c1sc(=O)[n-]c1[O-] (3D coordinates assigned)
C=c1[nH]c(C)c(C(=O)N2CCCC2)/c1=C/c1sc(=O)[n-]c1[O-] (nonaromatic ring conformer: 112.5771607753279 kcal/mol)

>  <smiles>  (23) 
C=c1[nH]c(C)c(C(=O)N2CCCC2)c1=Cc1sc(=O)[nH]c1O

>  <score_type>  (23) 
oracle

>  <origin>  (23) 
adg

>  <m_score__min__energy>  (23) 
-13.84

>  <m_primary>  (23) 
energy

$$$$
23:0
     RDKit          3D

 49 52  0  0  0  0  0  0  0  0999 V2000
   60.3450   35.0440   54.2340 H   0  0  0  0  0  0  0  0  0  0  0  0
   60.7790   34.2110   53.7770 N   0  0  0  0  0  0  0  0  0  0  0  0
   60.1170   33.4780   52.9430 C   0  0  0  0  0  0  0  0  0  0  0  0
   59.4570   32.3780   53.3880 N   0  0  0  0  0  0  0  0  0  0  0  0
   58.7590   31.5810   52.5380 C   0  0  0  0  0  0  0  0  0  0  0  0
   58.0860   30.4670   53.0570 O   0  0  0  0  0  0  0  0  0  0  0  0
   56.6930   30.3360   53.1610 C   0  0  0  0  0  0  0  0  0  0  0  0
   55.8570   30.3740   52.0310 C   0  0  0  0  0  0  0  0  0  0  0  0
   56.2936   30.5137   51.0311 H   0  0  0  0  0  0  0  0  0  0  0  0
   54.4740   30.2350   52.1730 C   0  0  0  0  0  0  0  0  0  0  0  0
   53.8264   30.2780   51.2849 H   0  0  0  0  0  0  0  0  0  0  0  0
   53.9060   30.0410   53.4410 C   0  0  0  0  0  0  0  0  0  0  0  0
   52.4140   29.9180   53.5900 C   0  0  0  0  0  0  0  0  0  0  0  0
   52.1049   28.9000   53.3104 H   0  0  0  0  0  0  0  0  0  0  0  0
   52.1427   30.1226   54.6362 H   0  0  0  0  0  0  0  0  0  0  0  0
   51.7140   30.9080   52.7040 C   0  0  0  0  0  0  0  0  0  0  0  0
   51.7890   30.8780   51.3610 N   0  0  0  0  0  0  0  0  0  0  0  0
   51.0660   31.9530   50.9860 C   0  0  0  0  0  0  0  0  0  0  0  0
   50.8920   32.2660   49.7790 O   0  0  0  0  0  0  0  0  0  0  0  0
   50.5450   32.6660   52.0040 N   0  0  0  0  0  0  0  0  0  0  0  0
   50.9730   32.0080   53.0960 C   0  0  0  0  0  0  0  0  0  0  0  0
   50.6020   32.4020   54.4940 C   0  0  0  0  0  0  0  0  0  0  0  0
   49.9026   31.6589   54.9047 H   0  0  0  0  0  0  0  0  0  0  0  0
   51.5168   32.4440   55.1033 H   0  0  0  0  0  0  0  0  0  0  0  0
   49.9400   33.7740   54.5110 C   0  0  0  0  0  0  0  0  0  0  0  0
   49.7857   34.0938   55.5521 H   0  0  0  0  0  0  0  0  0  0  0  0
   50.5871   34.4997   53.9966 H   0  0  0  0  0  0  0  0  0  0  0  0
   48.9692   33.7191   53.9966 H   0  0  0  0  0  0  0  0  0  0  0  0
   54.7450   29.9750   54.5660 C   0  0  0  0  0  0  0  0  0  0  0  0
   54.3117   29.8125   55.5639 H   0  0  0  0  0  0  0  0  0  0  0  0
   56.1280   30.1150   54.4220 C   0  0  0  0  0  0  0  0  0  0  0  0
   56.7778   30.0509   55.3072 H   0  0  0  0  0  0  0  0  0  0  0  0
   58.6950   31.9170   51.1770 C   0  0  0  0  0  0  0  0  0  0  0  0
   58.1141   31.2999   50.4757 H   0  0  0  0  0  0  0  0  0  0  0  0
   59.3840   33.0530   50.7250 C   0  0  0  0  0  0  0  0  0  0  0  0
   59.3700   33.4380   49.3370 N   0  0  0  0  0  0  0  0  0  0  0  0
   58.4980   32.8130   48.3570 C   0  0  0  0  0  0  0  0  0  0  0  0
   58.7983   31.7684   48.1876 H   0  0  0  0  0  0  0  0  0  0  0  0
   57.4518   32.7976   48.6964 H   0  0  0  0  0  0  0  0  0  0  0  0
   58.6620   33.6260   47.0800 C   0  0  0  0  0  0  0  0  0  0  0  0
   58.7482   32.9586   46.2098 H   0  0  0  0  0  0  0  0  0  0  0  0
   57.7954   34.2800   46.9032 H   0  0  0  0  0  0  0  0  0  0  0  0
   59.9450   34.4320   47.2600 C   0  0  0  0  0  0  0  0  0  0  0  0
   60.7824   33.9379   46.7455 H   0  0  0  0  0  0  0  0  0  0  0  0
   59.8505   35.4414   46.8331 H   0  0  0  0  0  0  0  0  0  0  0  0
   60.2010   34.4820   48.7610 C   0  0  0  0  0  0  0  0  0  0  0  0
   61.2625   34.2893   48.9756 H   0  0  0  0  0  0  0  0  0  0  0  0
   59.9608   35.4699   49.1810 H   0  0  0  0  0  0  0  0  0  0  0  0
   60.0810   33.8030   51.6230 N   0  0  0  0  0  0  0  0  0  0  0  0
  1  2  1  0
  2  3  2  0
  3  4  1  0
  4  5  2  0
  5  6  1  0
  6  7  1  0
  7  8  2  0
  8  9  1  0
  8 10  1  0
 10 11  1  0
 10 12  2  0
 12 13  1  0
 13 14  1  0
 13 15  1  0
 13 16  1  0
 16 17  1  0
 17 18  1  0
 18 19  2  0
 18 20  1  0
 20 21  1  0
 21 22  1  0
 22 23  1  0
 22 24  1  0
 22 25  1  0
 25 26  1  0
 25 27  1  0
 25 28  1  0
 12 29  1  0
 29 30  1  0
 29 31  2  0
 31 32  1  0
  5 33  1  0
 33 34  1  0
 33 35  2  0
 35 36  1  0
 36 37  1  0
 37 38  1  0
 37 39  1  0
 37 40  1  0
 40 41  1  0
 40 42  1  0
 40 43  1  0
 43 44  1  0
 43 45  1  0
 43 46  1  0
 46 47  1  0
 46 48  1  0
 35 49  1  0
 49  3  1  0
 31  7  1  0
 46 36  1  0
 21 16  2  0
M  CHG  3  17  -1  20  -1  49  -1
M  END
>  <UniqueID>  (24) 
24

>  <SMILES>  (24) 
[H]/N=c1/nc(Oc2ccc(Cc3[n-]c(=O)[n-]c3CC)cc2)cc(N2CCCC2)[n-]1

>  <Energy>  (24) 
81.22542399267887

>  <Genealogy>  (24) 
CCc1[n-]c(=O)[n-]c1Cc1ccc(Oc2cc(N3CCCC3)[n-]c(=N)n2)cc1 (protonated)
[H]/N=c1/nc(Oc2ccc(Cc3[n-]c(=O)[n-]c3CC)cc2)cc(N2CCCC2)[n-]1 (cis-trans isomerization)
[H]/N=c1/nc(Oc2ccc(Cc3[n-]c(=O)[n-]c3CC)cc2)cc(N2CCCC2)[n-]1 (3D coordinates assigned)
[H]/N=c1/nc(Oc2ccc(Cc3[n-]c(=O)[n-]c3CC)cc2)cc(N2CCCC2)[n-]1 (nonaromatic ring conformer: 81.22542399267887 kcal/mol)

>  <smiles>  (24) 
CCc1[nH]c(=O)[nH]c1Cc1ccc(Oc2cc(N3CCCC3)[nH]c(=N)n2)cc1

>  <score_type>  (24) 
oracle

>  <origin>  (24) 
adg

>  <m_score__min__energy>  (24) 
-13.52

>  <m_primary>  (24) 
energy

$$$$
24:0
     RDKit          3D

 21 23  0  0  0  0  0  0  0  0999 V2000
   55.5400   28.8410   44.8160 O   0  0  0  0  0  0  0  0  0  0  0  0
   56.6630   29.1070   45.3190 C   0  0  0  0  0  0  0  0  0  0  0  0
   57.2830   30.3870   45.2480 N   0  0  0  0  0  0  0  0  0  0  0  0
   58.4000   30.2090   45.8790 C   0  0  0  0  0  0  0  0  0  0  0  0
   59.3790   31.1870   46.0580 C   0  0  0  0  0  0  0  0  0  0  0  0
   60.5610   30.8350   46.7280 C   0  0  0  0  0  0  0  0  0  0  0  0
   60.7540   29.5200   47.1950 C   0  0  0  0  0  0  0  0  0  0  0  0
   59.7610   28.5440   47.0090 C   0  0  0  0  0  0  0  0  0  0  0  0
   58.5750   28.9170   46.3660 C   0  0  0  0  0  0  0  0  0  0  0  0
   57.5090   28.1840   46.0580 C   0  0  0  0  0  0  0  0  0  0  0  0
   57.2310   26.7660   46.3460 C   0  0  0  0  0  0  0  0  0  0  0  0
   58.1920   25.8580   46.5870 N   0  0  0  0  0  0  0  0  0  0  0  0
   57.5050   24.7060   46.7400 C   0  0  0  0  0  0  0  0  0  0  0  0
   58.0670   23.6080   46.9930 O   0  0  0  0  0  0  0  0  0  0  0  0
   56.1680   24.8190   46.5900 N   0  0  0  0  0  0  0  0  0  0  0  0
   56.0110   26.1280   46.3310 C   0  0  0  0  0  0  0  0  0  0  0  0
   54.7840   26.7080   46.0350 O   0  0  0  0  0  0  0  0  0  0  0  0
   59.2280   32.2099   45.6828 H   0  0  0  0  0  0  0  0  0  0  0  0
   61.3427   31.5918   46.8897 H   0  0  0  0  0  0  0  0  0  0  0  0
   61.6897   29.2554   47.7093 H   0  0  0  0  0  0  0  0  0  0  0  0
   59.9117   27.5124   47.3599 H   0  0  0  0  0  0  0  0  0  0  0  0
  1  2  2  0
  2  3  1  0
  3  4  2  0
  4  5  1  0
  5  6  2  0
  6  7  1  0
  7  8  2  0
  8  9  1  0
  9 10  2  0
 10 11  1  0
 11 12  1  0
 12 13  1  0
 13 14  2  0
 13 15  1  0
 15 16  1  0
 16 17  1  0
 10  2  1  0
 16 11  2  0
  9  4  1  0
  5 18  1  0
  6 19  1  0
  7 20  1  0
  8 21  1  0
M  CHG  3  12  -1  15  -1  17  -1
M  END
>  <UniqueID>  (25) 
25

>  <SMILES>  (25) 
O=C1N=c2ccccc2=C1c1[n-]c(=O)[n-]c1[O-]

>  <Energy>  (25) 
90.5421696689071

>  <Genealogy>  (25) 
O=C1N=c2ccccc2=C1c1[n-]c(=O)[n-]c1[O-] (protonated)
O=C1N=c2ccccc2=C1c1[n-]c(=O)[n-]c1[O-] (3D coordinates assigned)
O=C1N=c2ccccc2=C1c1[n-]c(=O)[n-]c1[O-] (nonaromatic ring conformer: 90.5421696689071 kcal/mol)

>  <smiles>  (25) 
O=C1N=c2ccccc2=C1c1[nH]c(=O)[nH]c1O

>  <score_type>  (25) 
oracle

>  <origin>  (25) 
adg

>  <m_score__min__energy>  (25) 
-15.35

>  <m_primary>  (25) 
energy

$$$$
25:0
     RDKit          3D

 49 52  0  0  0  0  0  0  0  0999 V2000
   57.7910   26.2660   43.1640 C   0  0  0  0  0  0  0  0  0  0  0  0
   57.8660   26.1860   44.5040 C   0  0  0  0  0  0  0  0  0  0  0  0
   57.3690   25.1420   45.3030 C   0  0  0  0  0  0  0  0  0  0  0  0
   56.5480   24.1130   45.0090 C   0  0  0  0  0  0  0  0  0  0  0  0
   55.0960   24.0830   45.2370 C   0  0  0  0  0  0  0  0  0  0  0  0
   54.2910   23.0510   44.9250 N   0  0  0  0  0  0  0  0  0  0  0  0
   53.0560   23.5290   45.1900 C   0  0  0  0  0  0  0  0  0  0  0  0
   52.0150   22.8380   45.0360 O   0  0  0  0  0  0  0  0  0  0  0  0
   53.0220   24.8070   45.6240 N   0  0  0  0  0  0  0  0  0  0  0  0
   54.3210   25.1460   45.6330 C   0  0  0  0  0  0  0  0  0  0  0  0
   54.7890   26.4040   45.9930 O   0  0  0  0  0  0  0  0  0  0  0  0
   57.8820   25.3460   46.5700 C   0  0  0  0  0  0  0  0  0  0  0  0
   58.5920   26.5260   46.5310 C   0  0  0  0  0  0  0  0  0  0  0  0
   59.3400   27.0940   47.6990 C   0  0  0  0  0  0  0  0  0  0  0  0
   58.5860   27.0450   45.2780 N   0  0  0  0  0  0  0  0  0  0  0  0
   59.3290   28.2480   44.8610 C   0  0  0  0  0  0  0  0  0  0  0  0
   58.3970   29.4220   44.7030 C   0  0  0  0  0  0  0  0  0  0  0  0
   57.1300   29.2520   44.1200 C   0  0  0  0  0  0  0  0  0  0  0  0
   56.2510   30.3320   44.0150 C   0  0  0  0  0  0  0  0  0  0  0  0
   56.6260   31.5900   44.4930 C   0  0  0  0  0  0  0  0  0  0  0  0
   57.8890   31.7790   45.0720 C   0  0  0  0  0  0  0  0  0  0  0  0
   58.2800   33.1350   45.6130 C   0  0  0  0  0  0  0  0  0  0  0  0
   59.2310   33.0270   46.7450 N   0  0  2  0  0  0  0  0  0  0  0  0
   58.5750   32.4050   47.9100 C   0  0  0  0  0  0  0  0  0  0  0  0
   59.3150   33.0380   49.4480 S   0  0  0  0  0  0  0  0  0  0  0  0
   59.6640   34.6120   48.6350 C   0  0  0  0  0  0  0  0  0  0  0  0
   59.7110   34.3120   47.1820 C   0  0  0  0  0  0  0  0  0  0  0  0
   60.2210   35.1050   46.4040 O   0  0  0  0  0  0  0  0  0  0  0  0
   58.7750   30.6930   45.1640 C   0  0  0  0  0  0  0  0  0  0  0  0
   58.2169   27.1345   42.6402 H   0  0  0  0  0  0  0  0  0  0  0  0
   57.3037   25.4630   42.5915 H   0  0  0  0  0  0  0  0  0  0  0  0
   57.0045   23.2187   44.5597 H   0  0  0  0  0  0  0  0  0  0  0  0
   57.7488   24.6908   47.4435 H   0  0  0  0  0  0  0  0  0  0  0  0
   58.8793   26.7442   48.6346 H   0  0  0  0  0  0  0  0  0  0  0  0
   60.3880   26.7621   47.6598 H   0  0  0  0  0  0  0  0  0  0  0  0
   59.3017   28.1926   47.6598 H   0  0  0  0  0  0  0  0  0  0  0  0
   60.0853   28.4874   45.6230 H   0  0  0  0  0  0  0  0  0  0  0  0
   59.8121   28.0474   43.8934 H   0  0  0  0  0  0  0  0  0  0  0  0
   56.8289   28.2630   43.7443 H   0  0  0  0  0  0  0  0  0  0  0  0
   55.2616   30.1920   43.5551 H   0  0  0  0  0  0  0  0  0  0  0  0
   55.9273   32.4360   44.4148 H   0  0  0  0  0  0  0  0  0  0  0  0
   58.7514   33.7166   44.8071 H   0  0  0  0  0  0  0  0  0  0  0  0
   57.3690   33.6304   45.9800 H   0  0  0  0  0  0  0  0  0  0  0  0
   60.0570   32.4420   46.4740 H   0  0  0  0  0  0  0  0  0  0  0  0
   57.5017   32.6453   47.8957 H   0  0  0  0  0  0  0  0  0  0  0  0
   58.7123   31.3146   47.8638 H   0  0  0  0  0  0  0  0  0  0  0  0
   58.8680   35.3399   48.8508 H   0  0  0  0  0  0  0  0  0  0  0  0
   60.6080   35.0515   48.9895 H   0  0  0  0  0  0  0  0  0  0  0  0
   59.7737   30.8397   45.6011 H   0  0  0  0  0  0  0  0  0  0  0  0
  1  2  2  0
  2  3  1  0
  3  4  2  3
  4  5  1  0
  5  6  1  0
  6  7  1  0
  7  8  2  0
  7  9  1  0
  9 10  1  0
 10 11  1  0
  3 12  1  0
 12 13  2  0
 13 14  1  0
 13 15  1  0
 15 16  1  0
 16 17  1  0
 17 18  2  0
 18 19  1  0
 19 20  2  0
 20 21  1  0
 21 22  1  0
 22 23  1  0
 23 24  1  0
 24 25  1  0
 25 26  1  0
 26 27  1  0
 27 28  2  0
 21 29  2  0
 15  2  1  0
 29 17  1  0
 10  5  2  0
 27 23  1  0
  1 30  1  0
  1 31  1  0
  4 32  1  0
 12 33  1  0
 14 34  1  0
 14 35  1  0
 14 36  1  0
 16 37  1  0
 16 38  1  0
 18 39  1  0
 19 40  1  0
 20 41  1  0
 22 42  1  0
 22 43  1  0
 23 44  1  6
 24 45  1  0
 24 46  1  0
 26 47  1  0
 26 48  1  0
 29 49  1  0
M  CHG  4   6  -1   9  -1  11  -1  23   1
M  END
>  <UniqueID>  (26) 
26

>  <SMILES>  (26) 
C=c1c(=Cc2[n-]c(=O)[n-]c2[O-])cc(C)n1Cc1cccc(C[N@@H+]2CSCC2=O)c1

>  <Energy>  (26) 
118.96597376513199

>  <Genealogy>  (26) 
C=c1c(=Cc2[n-]c(=O)[n-]c2[O-])cc(C)n1Cc1cccc(C[NH+]2CSCC2=O)c1 (protonated)
C=c1c(=Cc2[n-]c(=O)[n-]c2[O-])cc(C)n1Cc1cccc(C[N@@H+]2CSCC2=O)c1 (chirality)
C=c1c(=Cc2[n-]c(=O)[n-]c2[O-])cc(C)n1Cc1cccc(C[N@@H+]2CSCC2=O)c1 (3D coordinates assigned)
C=c1c(=Cc2[n-]c(=O)[n-]c2[O-])cc(C)n1Cc1cccc(C[N@@H+]2CSCC2=O)c1 (nonaromatic ring conformer: 118.96597376513199 kcal/mol)

>  <smiles>  (26) 
C=c1c(=Cc2[nH]c(=O)[nH]c2O)cc(C)n1Cc1cccc(CN2CSCC2=O)c1

>  <score_type>  (26) 
oracle

>  <origin>  (26) 
adg

>  <m_score__min__energy>  (26) 
-15.19

>  <m_primary>  (26) 
energy

$$$$
26:0
     RDKit          3D

 48 50  0  0  0  0  0  0  0  0999 V2000
   59.3620   26.4530   46.9830 C   0  0  0  0  0  0  0  0  0  0  0  0
   58.7810   27.6420   46.2680 C   0  0  0  0  0  0  0  0  0  0  0  0
   59.0910   28.9370   46.7130 C   0  0  0  0  0  0  0  0  0  0  0  0
   58.5640   30.0540   46.0660 C   0  0  0  0  0  0  0  0  0  0  0  0
   57.7120   29.8990   44.9650 C   0  0  0  0  0  0  0  0  0  0  0  0
   57.1570   31.1110   44.2590 C   0  0  0  0  0  0  0  0  0  0  0  0
   56.6210   32.0770   45.2160 N   0  0  0  0  0  0  0  0  0  0  0  0
   57.1570   33.3810   45.4820 C   0  0  0  0  0  0  0  0  0  0  0  0
   56.6660   34.3720   44.8800 O   0  0  0  0  0  0  0  0  0  0  0  0
   58.2870   33.5930   46.4070 C   0  0  0  0  0  0  0  0  0  0  0  0
   59.3800   34.3690   46.0090 C   0  0  0  0  0  0  0  0  0  0  0  0
   60.4320   34.5930   46.8930 C   0  0  0  0  0  0  0  0  0  0  0  0
   60.3810   34.0490   48.1790 C   0  0  0  0  0  0  0  0  0  0  0  0
   61.3330   34.2720   48.9760 O   0  0  0  0  0  0  0  0  0  0  0  0
   59.3100   33.2830   48.5650 N   0  0  0  0  0  0  0  0  0  0  0  0
   59.2470   32.7350   49.9250 C   0  0  0  0  0  0  0  0  0  0  0  0
   58.2660   33.0690   47.7060 C   0  0  0  0  0  0  0  0  0  0  0  0
   57.4160   28.6090   44.5000 C   0  0  0  0  0  0  0  0  0  0  0  0
   57.9340   27.4730   45.1490 C   0  0  0  0  0  0  0  0  0  0  0  0
   57.6680   26.1560   44.6330 N   0  0  0  0  0  0  0  0  0  0  0  0
   56.6140   25.3080   45.1160 C   0  0  0  0  0  0  0  0  0  0  0  0
   55.8130   25.7290   45.9930 O   0  0  0  0  0  0  0  0  0  0  0  0
   56.4270   23.9430   44.5900 C   0  0  0  0  0  0  0  0  0  0  0  0
   57.4450   23.1010   44.1880 C   0  0  0  0  0  0  0  0  0  0  0  0
   56.8340   21.9440   43.7490 C   0  0  0  0  0  0  0  0  0  0  0  0
   55.5300   22.0650   43.8500 O   0  0  0  0  0  0  0  0  0  0  0  0
   55.2470   23.2520   44.3380 C   0  0  0  0  0  0  0  0  0  0  0  0
   53.8470   23.7310   44.5430 C   0  0  0  0  0  0  0  0  0  0  0  0
   59.2872   26.6061   48.0697 H   0  0  0  0  0  0  0  0  0  0  0  0
   58.8049   25.5474   46.7011 H   0  0  0  0  0  0  0  0  0  0  0  0
   60.4188   26.3360   46.7011 H   0  0  0  0  0  0  0  0  0  0  0  0
   59.7553   29.0715   47.5794 H   0  0  0  0  0  0  0  0  0  0  0  0
   58.8188   31.0630   46.4223 H   0  0  0  0  0  0  0  0  0  0  0  0
   57.9604   31.5881   43.6785 H   0  0  0  0  0  0  0  0  0  0  0  0
   56.3416   30.7865   43.5958 H   0  0  0  0  0  0  0  0  0  0  0  0
   59.4086   34.8021   44.9983 H   0  0  0  0  0  0  0  0  0  0  0  0
   61.2983   35.1947   46.5808 H   0  0  0  0  0  0  0  0  0  0  0  0
   59.3410   33.5529   50.6546 H   0  0  0  0  0  0  0  0  0  0  0  0
   58.2841   32.2233   50.0699 H   0  0  0  0  0  0  0  0  0  0  0  0
   60.0686   32.0181   50.0699 H   0  0  0  0  0  0  0  0  0  0  0  0
   57.4001   32.4784   48.0397 H   0  0  0  0  0  0  0  0  0  0  0  0
   56.7713   28.4840   43.6175 H   0  0  0  0  0  0  0  0  0  0  0  0
   58.2810   25.8070   43.8650 H   0  0  0  0  0  0  0  0  0  0  0  0
   58.5246   23.3102   44.2127 H   0  0  0  0  0  0  0  0  0  0  0  0
   57.3598   21.0546   43.3715 H   0  0  0  0  0  0  0  0  0  0  0  0
   53.6380   23.8025   45.6206 H   0  0  0  0  0  0  0  0  0  0  0  0
   53.7268   24.7214   44.0797 H   0  0  0  0  0  0  0  0  0  0  0  0
   53.1453   23.0218   44.0797 H   0  0  0  0  0  0  0  0  0  0  0  0
  1  2  1  0
  2  3  2  0
  3  4  1  0
  4  5  2  0
  5  6  1  0
  6  7  1  0
  7  8  1  0
  8  9  2  0
  8 10  1  0
 10 11  1  0
 11 12  2  0
 12 13  1  0
 13 14  2  0
 13 15  1  0
 15 16  1  0
 15 17  1  0
  5 18  1  0
 18 19  2  0
 19 20  1  0
 20 21  1  0
 21 22  2  0
 21 23  1  0
 23 24  1  0
 24 25  2  0
 25 26  1  0
 26 27  1  0
 27 28  1  0
 19  2  1  0
 27 23  2  0
 17 10  2  0
  1 29  1  0
  1 30  1  0
  1 31  1  0
  3 32  1  0
  4 33  1  0
  6 34  1  0
  6 35  1  0
 11 36  1  0
 12 37  1  0
 16 38  1  0
 16 39  1  0
 16 40  1  0
 17 41  1  0
 18 42  1  0
 20 43  1  0
 24 44  1  0
 25 45  1  0
 28 46  1  0
 28 47  1  0
 28 48  1  0
M  CHG  1   7  -1
M  END
>  <UniqueID>  (27) 
27

>  <SMILES>  (27) 
Cc1ccc(C[N-]C(=O)c2ccc(=O)n(C)c2)cc1NC(=O)c1ccoc1C

>  <Energy>  (27) 
85.1943629098672

>  <Genealogy>  (27) 
Cc1ccc(C[N-]C(=O)c2ccc(=O)n(C)c2)cc1NC(=O)c1ccoc1C (protonated)
Cc1ccc(C[N-]C(=O)c2ccc(=O)n(C)c2)cc1NC(=O)c1ccoc1C (3D coordinates assigned)
Cc1ccc(C[N-]C(=O)c2ccc(=O)n(C)c2)cc1NC(=O)c1ccoc1C (optimized conformer: 85.1943629098672 kcal/mol)

>  <smiles>  (27) 
Cc1ccc(CNC(=O)c2ccc(=O)n(C)c2)cc1NC(=O)c1ccoc1C

>  <score_type>  (27) 
oracle

>  <origin>  (27) 
adg

>  <m_score__min__energy>  (27) 
-9.5999999999999996

>  <m_primary>  (27) 
energy

$$$$
27:0
     RDKit          3D

 35 37  0  0  0  0  0  0  0  0999 V2000
   56.7640   30.7430   44.8570 O   0  0  0  0  0  0  0  0  0  0  0  0
   57.3800   29.7250   45.2720 C   0  0  0  0  0  0  0  0  0  0  0  0
   58.7730   29.9110   45.8150 C   0  0  0  0  0  0  0  0  0  0  0  0
   58.7630   30.4330   47.2280 C   0  0  0  0  0  0  0  0  0  0  0  0
   58.6090   29.6530   48.3160 N   0  0  0  0  0  0  0  0  0  0  0  0
   58.5200   30.5370   49.3280 C   0  0  0  0  0  0  0  0  0  0  0  0
   58.3770   30.1840   50.5280 O   0  0  0  0  0  0  0  0  0  0  0  0
   58.5860   31.8300   48.9530 N   0  0  0  0  0  0  0  0  0  0  0  0
   58.7390   31.7610   47.6190 C   0  0  0  0  0  0  0  0  0  0  0  0
   58.8170   32.9530   46.7500 C   0  0  0  0  0  0  0  0  0  0  0  0
   57.8040   33.1940   45.8070 C   0  0  0  0  0  0  0  0  0  0  0  0
   57.8700   34.3050   44.9630 C   0  0  0  0  0  0  0  0  0  0  0  0
   58.9520   35.1810   45.0450 C   0  0  0  0  0  0  0  0  0  0  0  0
   59.9750   34.9480   45.9670 C   0  0  0  0  0  0  0  0  0  0  0  0
   59.9220   33.8300   46.8260 C   0  0  0  0  0  0  0  0  0  0  0  0
   60.9560   33.5770   47.7940 N   0  0  0  0  0  0  0  0  0  0  0  0
   62.1770   33.3680   47.4970 C   0  0  0  0  0  0  0  0  0  0  0  0
   63.7210   33.1030   47.1200 S   0  0  0  0  0  0  0  0  0  0  0  0
   56.7180   28.4500   45.1870 N   0  0  0  0  0  0  0  0  0  0  0  0
   57.0980   27.2880   45.6430 C   0  0  0  0  0  0  0  0  0  0  0  0
   58.4170   26.9560   45.7410 N   0  0  0  0  0  0  0  0  0  0  0  0
   58.8290   25.7570   46.2290 C   0  0  0  0  0  0  0  0  0  0  0  0
   57.8890   24.8160   46.6540 C   0  0  0  0  0  0  0  0  0  0  0  0
   56.5310   25.1260   46.5700 C   0  0  0  0  0  0  0  0  0  0  0  0
   56.1280   26.3660   46.0670 C   0  0  0  0  0  0  0  0  0  0  0  0
   54.7740   26.6730   45.9880 O   0  0  0  0  0  0  0  0  0  0  0  0
   59.2930   28.9418   45.7981 H   0  0  0  0  0  0  0  0  0  0  0  0
   59.2879   30.6500   45.1835 H   0  0  0  0  0  0  0  0  0  0  0  0
   56.9520   32.5022   45.7327 H   0  0  0  0  0  0  0  0  0  0  0  0
   57.0679   34.4891   44.2331 H   0  0  0  0  0  0  0  0  0  0  0  0
   58.9999   36.0575   44.3820 H   0  0  0  0  0  0  0  0  0  0  0  0
   60.8276   35.6407   46.0238 H   0  0  0  0  0  0  0  0  0  0  0  0
   59.9031   25.5275   46.2893 H   0  0  0  0  0  0  0  0  0  0  0  0
   58.2148   23.8428   47.0499 H   0  0  0  0  0  0  0  0  0  0  0  0
   55.7782   24.3948   46.8995 H   0  0  0  0  0  0  0  0  0  0  0  0
  1  2  2  0
  2  3  1  0
  3  4  1  0
  4  5  1  0
  5  6  1  0
  6  7  2  0
  6  8  1  0
  8  9  1  0
  9 10  1  0
 10 11  2  0
 11 12  1  0
 12 13  2  0
 13 14  1  0
 14 15  2  0
 15 16  1  0
 16 17  2  0
 17 18  2  0
  2 19  1  0
 19 20  2  3
 20 21  1  0
 21 22  1  0
 22 23  2  0
 23 24  1  0
 24 25  2  0
 25 26  1  0
  9  4  2  0
 15 10  1  0
 25 20  1  0
  3 27  1  0
  3 28  1  0
 11 29  1  0
 12 30  1  0
 13 31  1  0
 14 32  1  0
 22 33  1  0
 23 34  1  0
 24 35  1  0
M  CHG  4   5  -1   8  -1  21  -1  26  -1
M  END
>  <UniqueID>  (28) 
28

>  <SMILES>  (28) 
O=C(Cc1[n-]c(=O)[n-]c1-c1ccccc1N=C=S)N=c1[n-]cccc1[O-]

>  <Energy>  (28) 
77.88474279017774

>  <Genealogy>  (28) 
O=C(Cc1[n-]c(=O)[n-]c1-c1ccccc1N=C=S)N=c1[n-]cccc1[O-] (protonated)
O=C(Cc1[n-]c(=O)[n-]c1-c1ccccc1N=C=S)N=c1[n-]cccc1[O-] (3D coordinates assigned)
O=C(Cc1[n-]c(=O)[n-]c1-c1ccccc1N=C=S)N=c1[n-]cccc1[O-] (optimized conformer: 77.88474279017774 kcal/mol)

>  <smiles>  (28) 
O=C(Cc1[nH]c(=O)[nH]c1-c1ccccc1N=C=S)N=c1[nH]cccc1O

>  <score_type>  (28) 
oracle

>  <origin>  (28) 
adg

>  <m_score__min__energy>  (28) 
-16.260000000000002

>  <m_primary>  (28) 
energy

$$$$
28:0
     RDKit          3D

 59 63  0  0  0  0  0  0  0  0999 V2000
   63.9821   33.8797   47.5405 H   0  0  0  0  0  0  0  0  0  0  0  0
   63.6380   33.7750   48.5800 C   0  0  0  0  0  0  0  0  0  0  0  0
   62.5850   34.5140   48.9590 C   0  0  0  0  0  0  0  0  0  0  0  0
   62.7826   35.5444   49.2896 H   0  0  0  0  0  0  0  0  0  0  0  0
   61.1810   34.0550   48.9680 C   0  0  0  0  0  0  0  0  0  0  0  0
   60.4580   33.7610   50.0760 N   0  0  0  0  0  0  0  0  0  0  0  0
   59.2590   33.3160   49.7110 N   0  0  0  0  0  0  0  0  0  0  0  0
   59.2280   33.3140   48.3680 C   0  0  0  0  0  0  0  0  0  0  0  0
   58.1790   32.9230   47.5410 C   0  0  0  0  0  0  0  0  0  0  0  0
   57.2249   32.5755   47.9639 H   0  0  0  0  0  0  0  0  0  0  0  0
   58.3740   32.9850   46.1440 C   0  0  0  0  0  0  0  0  0  0  0  0
   57.2970   32.6150   45.2670 N   0  0  0  0  0  0  0  0  0  0  0  0
   56.5330   33.3120   45.1120 H   0  0  0  0  0  0  0  0  0  0  0  0
   57.2010   31.3530   44.5850 C   0  0  0  0  0  0  0  0  0  0  0  0
   56.7110   31.2690   43.2710 C   0  0  0  0  0  0  0  0  0  0  0  0
   56.3825   32.1804   42.7501 H   0  0  0  0  0  0  0  0  0  0  0  0
   56.6390   30.0340   42.6230 C   0  0  0  0  0  0  0  0  0  0  0  0
   56.2362   29.9725   41.6012 H   0  0  0  0  0  0  0  0  0  0  0  0
   57.0780   28.8760   43.2710 C   0  0  0  0  0  0  0  0  0  0  0  0
   56.9980   27.9016   42.7669 H   0  0  0  0  0  0  0  0  0  0  0  0
   57.6210   28.9530   44.5640 C   0  0  0  0  0  0  0  0  0  0  0  0
   58.0550   27.7810   45.2670 N   0  0  0  0  0  0  0  0  0  0  0  0
   57.8140   27.4660   46.6460 C   0  0  0  0  0  0  0  0  0  0  0  0
   58.1400   28.3100   47.5220 O   0  0  0  0  0  0  0  0  0  0  0  0
   57.3220   26.1110   47.0840 C   0  0  0  0  0  0  0  0  0  0  0  0
   58.0543   25.3496   46.7773 H   0  0  0  0  0  0  0  0  0  0  0  0
   57.2036   26.1263   48.1775 H   0  0  0  0  0  0  0  0  0  0  0  0
   55.9850   25.7780   46.4710 C   0  0  0  0  0  0  0  0  0  0  0  0
   55.2690   26.7050   46.0070 O   0  0  0  0  0  0  0  0  0  0  0  0
   55.5670   24.4220   46.2670 N   0  0  0  0  0  0  0  0  0  0  0  0
   56.2570   23.4370   45.4860 C   0  0  0  0  0  0  0  0  0  0  0  0
   55.9870   23.3500   44.1140 C   0  0  0  0  0  0  0  0  0  0  0  0
   55.2674   24.0426   43.6530 H   0  0  0  0  0  0  0  0  0  0  0  0
   56.6270   22.3880   43.3280 C   0  0  0  0  0  0  0  0  0  0  0  0
   56.4223   22.3352   42.2485 H   0  0  0  0  0  0  0  0  0  0  0  0
   57.5270   21.4930   43.9130 C   0  0  0  0  0  0  0  0  0  0  0  0
   58.0392   20.7432   43.2922 H   0  0  0  0  0  0  0  0  0  0  0  0
   57.7760   21.5510   45.2870 C   0  0  0  0  0  0  0  0  0  0  0  0
   58.4790   20.8411   45.7472 H   0  0  0  0  0  0  0  0  0  0  0  0
   57.1340   22.5090   46.0790 C   0  0  0  0  0  0  0  0  0  0  0  0
   57.3530   22.5150   47.4520 O   0  0  0  0  0  0  0  0  0  0  0  0
   57.6630   30.1900   45.2190 C   0  0  0  0  0  0  0  0  0  0  0  0
   58.0627   30.2504   46.2420 H   0  0  0  0  0  0  0  0  0  0  0  0
   59.6080   33.4720   45.6280 C   0  0  0  0  0  0  0  0  0  0  0  0
   59.7508   33.5466   44.5399 H   0  0  0  0  0  0  0  0  0  0  0  0
   60.6470   33.8590   46.4940 C   0  0  0  0  0  0  0  0  0  0  0  0
   61.6080   34.2255   46.1038 H   0  0  0  0  0  0  0  0  0  0  0  0
   60.4140   33.7610   47.8630 C   0  0  0  0  0  0  0  0  0  0  0  0
   64.3730   32.8310   49.4480 C   0  0  0  0  0  0  0  0  0  0  0  0
   63.7220   31.7440   50.0580 C   0  0  0  0  0  0  0  0  0  0  0  0
   62.6545   31.5644   49.8625 H   0  0  0  0  0  0  0  0  0  0  0  0
   64.4270   30.8910   50.9120 C   0  0  0  0  0  0  0  0  0  0  0  0
   63.9179   30.0320   51.3735 H   0  0  0  0  0  0  0  0  0  0  0  0
   65.7770   31.1280   51.1800 C   0  0  0  0  0  0  0  0  0  0  0  0
   66.3321   30.4515   51.8465 H   0  0  0  0  0  0  0  0  0  0  0  0
   66.4230   32.2240   50.6020 C   0  0  0  0  0  0  0  0  0  0  0  0
   67.4844   32.4138   50.8196 H   0  0  0  0  0  0  0  0  0  0  0  0
   65.7210   33.0800   49.7470 C   0  0  0  0  0  0  0  0  0  0  0  0
   66.2277   33.9517   49.3074 H   0  0  0  0  0  0  0  0  0  0  0  0
  1  2  1  0
  2  3  2  0
  3  4  1  0
  3  5  1  0
  5  6  1  0
  6  7  1  0
  7  8  2  0
  8  9  1  0
  9 10  1  0
  9 11  2  0
 11 12  1  0
 12 13  1  0
 12 14  1  0
 14 15  2  0
 15 16  1  0
 15 17  1  0
 17 18  1  0
 17 19  2  0
 19 20  1  0
 19 21  1  0
 21 22  1  0
 22 23  1  0
 23 24  2  0
 23 25  1  0
 25 26  1  0
 25 27  1  0
 25 28  1  0
 28 29  2  0
 28 30  1  0
 30 31  1  0
 31 32  2  0
 32 33  1  0
 32 34  1  0
 34 35  1  0
 34 36  2  0
 36 37  1  0
 36 38  1  0
 38 39  1  0
 38 40  2  0
 40 41  1  0
 21 42  2  0
 42 43  1  0
 11 44  1  0
 44 45  1  0
 44 46  2  0
 46 47  1  0
 46 48  1  0
  2 49  1  0
 49 50  2  0
 50 51  1  0
 50 52  1  0
 52 53  1  0
 52 54  2  0
 54 55  1  0
 54 56  1  0
 56 57  1  0
 56 58  2  0
 58 59  1  0
 48  5  2  0
 58 49  1  0
 48  8  1  0
 42 14  1  0
 40 31  1  0
M  CHG  4   6  -1  22  -1  30  -1  41  -1
M  END
>  <UniqueID>  (29) 
29

>  <SMILES>  (29) 
O=C(CC(=O)[N-]c1ccccc1[O-])[N-]c1cccc(Nc2ccc3c(/C=C\c4ccccc4)[n-]nc3c2)c1

>  <Energy>  (29) 
128.55620443417422

>  <Genealogy>  (29) 
O=C(CC(=O)[N-]c1ccccc1[O-])[N-]c1cccc(Nc2ccc3c(C=Cc4ccccc4)[n-]nc3c2)c1 (protonated)
O=C(CC(=O)[N-]c1ccccc1[O-])[N-]c1cccc(Nc2ccc3c(/C=C\c4ccccc4)[n-]nc3c2)c1 (cis-trans isomerization)
O=C(CC(=O)[N-]c1ccccc1[O-])[N-]c1cccc(Nc2ccc3c(/C=C\c4ccccc4)[n-]nc3c2)c1 (3D coordinates assigned)
O=C(CC(=O)[N-]c1ccccc1[O-])[N-]c1cccc(Nc2ccc3c(/C=C\c4ccccc4)[n-]nc3c2)c1 (optimized conformer: 128.55620443417422 kcal/mol)

>  <smiles>  (29) 
O=C(CC(=O)Nc1ccccc1O)Nc1cccc(Nc2ccc3c(C=Cc4ccccc4)[nH]nc3c2)c1

>  <score_type>  (29) 
oracle

>  <origin>  (29) 
adg

>  <m_score__min__energy>  (29) 
-17.84

>  <m_primary>  (29) 
energy

$$$$
29:0
     RDKit          3D

 52 54  0  0  0  0  0  0  0  0999 V2000
   57.7149   31.6336   43.7624 H   0  0  0  0  0  0  0  0  0  0  0  0
   57.9540   30.6170   44.1080 C   0  0  0  0  0  0  0  0  0  0  0  0
   57.8524   29.7643   43.4206 H   0  0  0  0  0  0  0  0  0  0  0  0
   58.3700   30.4170   45.3690 C   0  0  0  0  0  0  0  0  0  0  0  0
   58.7040   29.1740   45.9260 C   0  0  0  0  0  0  0  0  0  0  0  0
   58.4570   27.9170   45.5030 C   0  0  0  0  0  0  0  0  0  0  0  0
   59.1963   27.4577   44.8304 H   0  0  0  0  0  0  0  0  0  0  0  0
   57.2800   27.1070   45.8660 C   0  0  0  0  0  0  0  0  0  0  0  0
   57.3290   25.8370   46.3100 N   0  0  0  0  0  0  0  0  0  0  0  0
   56.0270   25.4810   46.3770 C   0  0  0  0  0  0  0  0  0  0  0  0
   55.6550   24.3460   46.7720 O   0  0  0  0  0  0  0  0  0  0  0  0
   55.1580   26.4330   45.9770 N   0  0  0  0  0  0  0  0  0  0  0  0
   55.9700   27.4500   45.6440 C   0  0  0  0  0  0  0  0  0  0  0  0
   55.5200   28.6650   45.1430 O   0  0  0  0  0  0  0  0  0  0  0  0
   59.3800   29.4420   47.0970 C   0  0  0  0  0  0  0  0  0  0  0  0
   59.8370   28.7035   47.7722 H   0  0  0  0  0  0  0  0  0  0  0  0
   59.3750   30.8120   47.2620 C   0  0  0  0  0  0  0  0  0  0  0  0
   60.0540   31.5020   48.3880 C   0  0  0  0  0  0  0  0  0  0  0  0
   59.4150   32.3650   49.0510 O   0  0  0  0  0  0  0  0  0  0  0  0
   61.4510   31.2420   48.6860 N   0  0  0  0  0  0  0  0  0  0  0  0
   61.5500   30.2140   48.8630 H   0  0  0  0  0  0  0  0  0  0  0  0
   61.8900   31.9250   49.9340 C   0  0  0  0  0  0  0  0  0  0  0  0
   60.9970   32.1851   50.5212 H   0  0  0  0  0  0  0  0  0  0  0  0
   62.5522   31.2281   50.4686 H   0  0  0  0  0  0  0  0  0  0  0  0
   62.7020   33.2190   49.6770 C   0  0  2  0  0  0  0  0  0  0  0  0
   63.7562   32.9477   49.5188 H   0  0  0  0  0  0  0  0  0  0  0  0
   62.6220   34.1550   50.8880 C   0  0  0  0  0  0  0  0  0  0  0  0
   62.6726   33.5625   51.8134 H   0  0  0  0  0  0  0  0  0  0  0  0
   63.4629   34.8636   50.8599 H   0  0  0  0  0  0  0  0  0  0  0  0
   61.6731   34.7107   50.8599 H   0  0  0  0  0  0  0  0  0  0  0  0
   62.1970   33.8970   48.4750 N   0  0  0  0  0  0  0  0  0  0  0  0
   62.6650   34.8280   48.3700 H   0  0  0  0  0  0  0  0  0  0  0  0
   62.3940   33.0890   47.2530 C   0  0  1  0  0  0  0  0  0  0  0  0
   61.5623   33.3429   46.5794 H   0  0  0  0  0  0  0  0  0  0  0  0
   63.7110   33.4440   46.5430 C   0  0  0  0  0  0  0  0  0  0  0  0
   64.4874   33.6533   47.2936 H   0  0  0  0  0  0  0  0  0  0  0  0
   64.0276   32.5991   45.9137 H   0  0  0  0  0  0  0  0  0  0  0  0
   63.5601   34.3335   45.9137 H   0  0  0  0  0  0  0  0  0  0  0  0
   62.3140   31.5630   47.5310 C   0  0  0  0  0  0  0  0  0  0  0  0
   61.9094   31.0628   46.6388 H   0  0  0  0  0  0  0  0  0  0  0  0
   63.3300   31.2128   47.7659 H   0  0  0  0  0  0  0  0  0  0  0  0
   58.7230   31.4170   46.2320 N   0  0  0  0  0  0  0  0  0  0  0  0
   58.4210   32.8670   46.1540 C   0  0  0  0  0  0  0  0  0  0  0  0
   58.4318   33.2540   47.1836 H   0  0  0  0  0  0  0  0  0  0  0  0
   57.0060   33.1470   45.6210 C   0  0  0  0  0  0  0  0  0  0  0  0
   56.3160   33.2835   46.4667 H   0  0  0  0  0  0  0  0  0  0  0  0
   57.0193   34.0599   45.0075 H   0  0  0  0  0  0  0  0  0  0  0  0
   56.6706   32.2978   45.0075 H   0  0  0  0  0  0  0  0  0  0  0  0
   59.5070   33.6280   45.3840 C   0  0  0  0  0  0  0  0  0  0  0  0
   60.1932   34.1088   46.0967 H   0  0  0  0  0  0  0  0  0  0  0  0
   60.0689   32.9250   44.7514 H   0  0  0  0  0  0  0  0  0  0  0  0
   59.0380   34.3961   44.7514 H   0  0  0  0  0  0  0  0  0  0  0  0
  1  2  1  0
  2  3  1  0
  2  4  2  0
  4  5  1  0
  5  6  2  0
  6  7  1  0
  6  8  1  0
  8  9  1  0
  9 10  1  0
 10 11  2  0
 10 12  1  0
 12 13  1  0
 13 14  1  0
  5 15  1  0
 15 16  1  0
 15 17  2  0
 17 18  1  0
 18 19  2  0
 18 20  1  0
 20 21  1  0
 20 22  1  0
 22 23  1  0
 22 24  1  0
 22 25  1  0
 25 26  1  6
 25 27  1  0
 27 28  1  0
 27 29  1  0
 27 30  1  0
 25 31  1  0
 31 32  1  0
 31 33  1  0
 33 34  1  6
 33 35  1  0
 35 36  1  0
 35 37  1  0
 35 38  1  0
 33 39  1  0
 39 40  1  0
 39 41  1  0
 17 42  1  0
 42 43  1  0
 43 44  1  0
 43 45  1  0
 45 46  1  0
 45 47  1  0
 45 48  1  0
 43 49  1  0
 49 50  1  0
 49 51  1  0
 49 52  1  0
 42  4  1  0
 13  8  2  0
 39 20  1  0
M  CHG  4   9  -1  12  -1  14  -1  20   1
M  END
>  <UniqueID>  (30) 
30

>  <SMILES>  (30) 
C=c1/c(=C\c2[n-]c(=O)[n-]c2[O-])cc(C(=O)[NH+]2C[C@H](C)N[C@@H](C)C2)n1C(C)C

>  <Energy>  (30) 
136.45496106297972

>  <Genealogy>  (30) 
C=c1c(=Cc2[n-]c(=O)[n-]c2[O-])cc(C(=O)[NH+]2CC(C)NC(C)C2)n1C(C)C (protonated)
C=c1c(=Cc2[n-]c(=O)[n-]c2[O-])cc(C(=O)[NH+]2C[C@H](C)N[C@@H](C)C2)n1C(C)C (chirality)
C=c1/c(=C\c2[n-]c(=O)[n-]c2[O-])cc(C(=O)[NH+]2C[C@H](C)N[C@@H](C)C2)n1C(C)C (cis-trans isomerization)
C=c1/c(=C\c2[n-]c(=O)[n-]c2[O-])cc(C(=O)[NH+]2C[C@H](C)N[C@@H](C)C2)n1C(C)C (3D coordinates assigned)
C=c1/c(=C\c2[n-]c(=O)[n-]c2[O-])cc(C(=O)[NH+]2C[C@H](C)N[C@@H](C)C2)n1C(C)C (nonaromatic ring conformer: 136.45496106297972 kcal/mol)

>  <smiles>  (30) 
C=c1c(=Cc2[nH]c(=O)[nH]c2O)cc(C(=O)N2CC(C)NC(C)C2)n1C(C)C

>  <score_type>  (30) 
oracle

>  <origin>  (30) 
adg

>  <m_score__min__energy>  (30) 
-15.550000000000001

>  <m_primary>  (30) 
energy

$$$$
30:0
     RDKit          3D

 61 65  0  0  0  0  0  0  0  0999 V2000
   59.5300   33.8120   49.5870 O   0  0  0  0  0  0  0  0  0  0  0  0
   59.8020   32.6350   49.2310 C   0  0  0  0  0  0  0  0  0  0  0  0
   60.3380   31.6620   50.2310 C   0  0  0  0  0  0  0  0  0  0  0  0
   61.5130   31.0400   49.7090 O   0  0  0  0  0  0  0  0  0  0  0  0
   62.8120   31.0740   50.2550 C   0  0  0  0  0  0  0  0  0  0  0  0
   63.2440   30.1900   51.2660 C   0  0  0  0  0  0  0  0  0  0  0  0
   64.5430   30.2630   51.7660 C   0  0  0  0  0  0  0  0  0  0  0  0
   65.4490   31.2030   51.2610 C   0  0  0  0  0  0  0  0  0  0  0  0
   66.7620   31.2580   51.7620 C   0  0  0  0  0  0  0  0  0  0  0  0
   67.6680   32.1940   51.2580 C   0  0  0  0  0  0  0  0  0  0  0  0
   67.2720   33.0840   50.2590 C   0  0  0  0  0  0  0  0  0  0  0  0
   65.9690   33.0440   49.7560 C   0  0  0  0  0  0  0  0  0  0  0  0
   65.0380   32.1020   50.2440 C   0  0  0  0  0  0  0  0  0  0  0  0
   63.7130   32.0300   49.7460 C   0  0  0  0  0  0  0  0  0  0  0  0
   63.0810   33.2210   48.3680 Br  0  0  0  0  0  0  0  0  0  0  0  0
   59.6610   32.2370   47.8610 N   0  0  0  0  0  0  0  0  0  0  0  0
   59.4180   33.1850   46.8150 C   0  0  0  0  0  0  0  0  0  0  0  0
   59.9370   34.4810   46.9500 C   0  0  0  0  0  0  0  0  0  0  0  0
   59.6770   35.4540   45.9840 C   0  0  0  0  0  0  0  0  0  0  0  0
   58.8970   35.1420   44.8740 C   0  0  0  0  0  0  0  0  0  0  0  0
   58.3890   33.8520   44.7130 C   0  0  0  0  0  0  0  0  0  0  0  0
   58.6450   32.8480   45.6700 C   0  0  0  0  0  0  0  0  0  0  0  0
   58.1250   31.4710   45.4300 C   0  0  0  0  0  0  0  0  0  0  0  0
   56.9920   31.2930   44.9040 O   0  0  0  0  0  0  0  0  0  0  0  0
   58.8890   30.3330   45.8540 N   0  0  0  0  0  0  0  0  0  0  0  0
   58.3540   29.0240   46.0960 C   0  0  0  0  0  0  0  0  0  0  0  0
   57.3560   28.5310   45.2450 C   0  0  0  0  0  0  0  0  0  0  0  0
   56.8270   27.2510   45.4430 C   0  0  0  0  0  0  0  0  0  0  0  0
   57.2770   26.4580   46.5080 C   0  0  0  0  0  0  0  0  0  0  0  0
   56.6130   24.8470   46.7620 S   0  0  0  0  0  0  0  0  0  0  0  0
   56.7410   24.4500   48.2060 O   0  0  0  0  0  0  0  0  0  0  0  0
   55.1540   24.8470   46.4030 O   0  0  0  0  0  0  0  0  0  0  0  0
   57.4430   23.6970   45.7580 N   0  0  0  0  0  0  0  0  0  0  0  0
   57.1660   22.4310   45.7250 C   0  0  0  0  0  0  0  0  0  0  0  0
   57.4070   21.6310   46.8010 N   0  0  0  0  0  0  0  0  0  0  0  0
   57.1130   20.3050   46.7690 C   0  0  0  0  0  0  0  0  0  0  0  0
   56.5500   19.7450   45.6220 C   0  0  0  0  0  0  0  0  0  0  0  0
   56.3060   20.5770   44.5310 C   0  0  0  0  0  0  0  0  0  0  0  0
   56.6170   21.8950   44.6000 N   0  0  0  0  0  0  0  0  0  0  0  0
   58.2420   26.9670   47.3890 C   0  0  0  0  0  0  0  0  0  0  0  0
   58.7780   28.2420   47.1870 C   0  0  0  0  0  0  0  0  0  0  0  0
   60.5870   32.1928   51.1618 H   0  0  0  0  0  0  0  0  0  0  0  0
   59.5783   30.8939   50.4383 H   0  0  0  0  0  0  0  0  0  0  0  0
   62.5489   29.4358   51.6636 H   0  0  0  0  0  0  0  0  0  0  0  0
   64.8591   29.5758   52.5646 H   0  0  0  0  0  0  0  0  0  0  0  0
   67.0765   30.5616   52.5533 H   0  0  0  0  0  0  0  0  0  0  0  0
   68.6954   32.2296   51.6493 H   0  0  0  0  0  0  0  0  0  0  0  0
   67.9886   33.8202   49.8658 H   0  0  0  0  0  0  0  0  0  0  0  0
   65.6658   33.7536   48.9720 H   0  0  0  0  0  0  0  0  0  0  0  0
   59.8660   31.2480   47.5950 H   0  0  0  0  0  0  0  0  0  0  0  0
   60.5544   34.7327   47.8249 H   0  0  0  0  0  0  0  0  0  0  0  0
   60.0884   36.4676   46.0997 H   0  0  0  0  0  0  0  0  0  0  0  0
   58.6803   35.9145   44.1215 H   0  0  0  0  0  0  0  0  0  0  0  0
   57.7807   33.6151   43.8277 H   0  0  0  0  0  0  0  0  0  0  0  0
   56.9865   29.1536   44.4169 H   0  0  0  0  0  0  0  0  0  0  0  0
   56.0552   26.8654   44.7606 H   0  0  0  0  0  0  0  0  0  0  0  0
   57.3186   19.6739   47.6462 H   0  0  0  0  0  0  0  0  0  0  0  0
   56.3048   18.6735   45.5798 H   0  0  0  0  0  0  0  0  0  0  0  0
   55.8610   20.1644   43.6136 H   0  0  0  0  0  0  0  0  0  0  0  0
   58.5786   26.3603   48.2426 H   0  0  0  0  0  0  0  0  0  0  0  0
   59.5336   28.6356   47.8828 H   0  0  0  0  0  0  0  0  0  0  0  0
  1  2  2  0
  2  3  1  0
  3  4  1  0
  4  5  1  0
  5  6  2  0
  6  7  1  0
  7  8  2  0
  8  9  1  0
  9 10  2  0
 10 11  1  0
 11 12  2  0
 12 13  1  0
 13 14  2  0
 14 15  1  0
  2 16  1  0
 16 17  1  0
 17 18  2  0
 18 19  1  0
 19 20  2  0
 20 21  1  0
 21 22  2  0
 22 23  1  0
 23 24  2  0
 23 25  1  0
 25 26  1  0
 26 27  2  0
 27 28  1  0
 28 29  2  0
 29 30  1  0
 30 31  2  0
 30 32  2  0
 30 33  1  0
 33 34  2  3
 34 35  1  0
 35 36  2  0
 36 37  1  0
 37 38  2  0
 38 39  1  0
 29 40  1  0
 40 41  2  0
 14  5  1  0
 22 17  1  0
 41 26  1  0
 13  8  1  0
 39 34  1  0
  3 42  1  0
  3 43  1  0
  6 44  1  0
  7 45  1  0
  9 46  1  0
 10 47  1  0
 11 48  1  0
 12 49  1  0
 16 50  1  0
 18 51  1  0
 19 52  1  0
 20 53  1  0
 21 54  1  0
 27 55  1  0
 28 56  1  0
 36 57  1  0
 37 58  1  0
 38 59  1  0
 40 60  1  0
 41 61  1  0
M  CHG  2  25  -1  39  -1
M  END
>  <UniqueID>  (31) 
31

>  <SMILES>  (31) 
O=C(COc1ccc2ccccc2c1Br)Nc1ccccc1C(=O)[N-]c1ccc(S(=O)(=O)N=c2nccc[n-]2)cc1

>  <Energy>  (31) 
94.23564825006184

>  <Genealogy>  (31) 
O=C(COc1ccc2ccccc2c1Br)Nc1ccccc1C(=O)[N-]c1ccc(S(=O)(=O)N=c2nccc[n-]2)cc1 (protonated)
O=C(COc1ccc2ccccc2c1Br)Nc1ccccc1C(=O)[N-]c1ccc(S(=O)(=O)N=c2nccc[n-]2)cc1 (3D coordinates assigned)
O=C(COc1ccc2ccccc2c1Br)Nc1ccccc1C(=O)[N-]c1ccc(S(=O)(=O)N=c2nccc[n-]2)cc1 (optimized conformer: 94.23564825006184 kcal/mol)

>  <smiles>  (31) 
O=C(COc1ccc2ccccc2c1Br)Nc1ccccc1C(=O)Nc1ccc(S(=O)(=O)N=c2nccc[nH]2)cc1

>  <score_type>  (31) 
oracle

>  <origin>  (31) 
adg

>  <m_score__min__energy>  (31) 
-12.970000000000001

>  <m_primary>  (31) 
energy

$$$$
31:0
     RDKit          3D

 51 53  0  0  0  0  0  0  0  0999 V2000
   62.9470   33.8570   46.5710 C   0  0  0  0  0  0  0  0  0  0  0  0
   63.4360   32.5350   47.1540 C   0  0  0  0  0  0  0  0  0  0  0  0
   62.3810   31.8680   47.8460 O   0  0  0  0  0  0  0  0  0  0  0  0
   61.6030   32.4120   48.8830 C   0  0  0  0  0  0  0  0  0  0  0  0
   62.1300   33.3350   49.8100 C   0  0  0  0  0  0  0  0  0  0  0  0
   61.3430   33.8090   50.8620 C   0  0  0  0  0  0  0  0  0  0  0  0
   60.0290   33.3660   51.0090 C   0  0  0  0  0  0  0  0  0  0  0  0
   59.4930   32.4570   50.0960 C   0  0  0  0  0  0  0  0  0  0  0  0
   60.2610   31.9930   49.0180 C   0  0  0  0  0  0  0  0  0  0  0  0
   59.6750   31.0600   48.0960 N   0  0  0  0  0  0  0  0  0  0  0  0
   60.0260   29.6660   48.0670 C   0  0  0  0  0  0  0  0  0  0  0  0
   61.0870   29.2790   48.6300 O   0  0  0  0  0  0  0  0  0  0  0  0
   59.1790   28.6820   47.3510 C   0  0  0  0  0  0  0  0  0  0  0  0
   58.8840   27.4400   47.9410 C   0  0  0  0  0  0  0  0  0  0  0  0
   58.0690   26.5180   47.2820 C   0  0  0  0  0  0  0  0  0  0  0  0
   57.5430   26.8170   46.0230 C   0  0  0  0  0  0  0  0  0  0  0  0
   56.7010   25.9350   45.4320 F   0  0  0  0  0  0  0  0  0  0  0  0
   57.8450   28.0440   45.4090 C   0  0  0  0  0  0  0  0  0  0  0  0
   57.2890   28.3990   44.1360 N   0  0  0  0  0  0  0  0  0  0  0  0
   56.2340   29.3430   43.9070 C   0  0  0  0  0  0  0  0  0  0  0  0
   55.2420   29.3370   44.6840 O   0  0  0  0  0  0  0  0  0  0  0  0
   56.3470   30.4250   42.8600 C   0  0  0  0  0  0  0  0  0  0  0  0
   57.4480   31.4520   43.1870 C   0  0  0  0  0  0  0  0  0  0  0  0
   57.4440   31.9130   44.6270 C   0  0  0  0  0  0  0  0  0  0  0  0
   56.3490   32.0270   45.2410 O   0  0  0  0  0  0  0  0  0  0  0  0
   58.6570   32.2220   45.3360 N   0  0  0  0  0  0  0  0  0  0  0  0
   58.9830   33.3560   45.8830 C   0  0  0  0  0  0  0  0  0  0  0  0
   58.8980   33.6240   47.2040 N   0  0  0  0  0  0  0  0  0  0  0  0
   59.2750   34.9010   47.4780 C   0  0  0  0  0  0  0  0  0  0  0  0
   59.6540   35.6550   46.3730 C   0  0  0  0  0  0  0  0  0  0  0  0
   59.5080   34.6860   45.0040 S   0  0  0  0  0  0  0  0  0  0  0  0
   58.6350   28.9800   46.0870 C   0  0  0  0  0  0  0  0  0  0  0  0
   62.6919   34.5465   47.3892 H   0  0  0  0  0  0  0  0  0  0  0  0
   63.7406   34.3005   45.9517 H   0  0  0  0  0  0  0  0  0  0  0  0
   62.0558   33.6773   45.9517 H   0  0  0  0  0  0  0  0  0  0  0  0
   63.7959   31.8915   46.3377 H   0  0  0  0  0  0  0  0  0  0  0  0
   64.2500   32.7413   47.8645 H   0  0  0  0  0  0  0  0  0  0  0  0
   63.1678   33.6839   49.7038 H   0  0  0  0  0  0  0  0  0  0  0  0
   61.7608   34.5336   51.5764 H   0  0  0  0  0  0  0  0  0  0  0  0
   59.4150   33.7331   51.8446 H   0  0  0  0  0  0  0  0  0  0  0  0
   58.4598   32.1015   50.2228 H   0  0  0  0  0  0  0  0  0  0  0  0
   59.1220   31.4450   47.2960 H   0  0  0  0  0  0  0  0  0  0  0  0
   59.2987   27.1931   48.9295 H   0  0  0  0  0  0  0  0  0  0  0  0
   57.8401   25.5521   47.7560 H   0  0  0  0  0  0  0  0  0  0  0  0
   56.5785   29.9562   41.8922 H   0  0  0  0  0  0  0  0  0  0  0  0
   55.3876   30.9624   42.8308 H   0  0  0  0  0  0  0  0  0  0  0  0
   58.4247   30.9937   42.9722 H   0  0  0  0  0  0  0  0  0  0  0  0
   57.2536   32.3389   42.5660 H   0  0  0  0  0  0  0  0  0  0  0  0
   59.2799   35.3083   48.4998 H   0  0  0  0  0  0  0  0  0  0  0  0
   59.9906   36.7021   46.3902 H   0  0  0  0  0  0  0  0  0  0  0  0
   58.8330   29.9594   45.6270 H   0  0  0  0  0  0  0  0  0  0  0  0
  1  2  1  0
  2  3  1  0
  3  4  1  0
  4  5  2  0
  5  6  1  0
  6  7  2  0
  7  8  1  0
  8  9  2  0
  9 10  1  0
 10 11  1  0
 11 12  2  0
 11 13  1  0
 13 14  2  0
 14 15  1  0
 15 16  2  0
 16 17  1  0
 16 18  1  0
 18 19  1  0
 19 20  1  0
 20 21  2  0
 20 22  1  0
 22 23  1  0
 23 24  1  0
 24 25  2  0
 24 26  1  0
 26 27  2  3
 27 28  1  0
 28 29  1  0
 29 30  2  0
 30 31  1  0
 18 32  2  0
  9  4  1  0
 32 13  1  0
 31 27  1  0
  1 33  1  0
  1 34  1  0
  1 35  1  0
  2 36  1  0
  2 37  1  0
  5 38  1  0
  6 39  1  0
  7 40  1  0
  8 41  1  0
 10 42  1  0
 14 43  1  0
 15 44  1  0
 22 45  1  0
 22 46  1  0
 23 47  1  0
 23 48  1  0
 29 49  1  0
 30 50  1  0
 32 51  1  0
M  CHG  2  19  -1  28  -1
M  END
>  <UniqueID>  (32) 
32

>  <SMILES>  (32) 
CCOc1ccccc1NC(=O)c1ccc(F)c([N-]C(=O)CCC(=O)N=c2[n-]ccs2)c1

>  <Energy>  (32) 
97.49507171944381

>  <Genealogy>  (32) 
CCOc1ccccc1NC(=O)c1ccc(F)c([N-]C(=O)CCC(=O)N=c2[n-]ccs2)c1 (protonated)
CCOc1ccccc1NC(=O)c1ccc(F)c([N-]C(=O)CCC(=O)N=c2[n-]ccs2)c1 (3D coordinates assigned)
CCOc1ccccc1NC(=O)c1ccc(F)c([N-]C(=O)CCC(=O)N=c2[n-]ccs2)c1 (optimized conformer: 97.49507171944381 kcal/mol)

>  <smiles>  (32) 
CCOc1ccccc1NC(=O)c1ccc(F)c(NC(=O)CCC(=O)N=c2[nH]ccs2)c1

>  <score_type>  (32) 
oracle

>  <origin>  (32) 
adg

>  <m_score__min__energy>  (32) 
-11.51

>  <m_primary>  (32) 
energy

$$$$
32:0
     RDKit          3D

 79 82  0  0  0  0  0  0  0  0999 V2000
   55.9370   26.3050   46.2990 C   0  0  0  0  0  0  0  0  0  0  0  0
   56.6220   27.1650   45.3450 N   0  0  0  0  0  0  0  0  0  0  0  0
   57.0150   28.5060   45.6560 C   0  0  0  0  0  0  0  0  0  0  0  0
   56.3130   29.4770   45.2640 O   0  0  0  0  0  0  0  0  0  0  0  0
   58.2630   28.7470   46.4090 C   0  0  0  0  0  0  0  0  0  0  0  0
   58.4070   28.1270   47.6620 C   0  0  0  0  0  0  0  0  0  0  0  0
   59.5810   28.2790   48.4010 C   0  0  0  0  0  0  0  0  0  0  0  0
   60.6260   29.0500   47.9010 C   0  0  0  0  0  0  0  0  0  0  0  0
   60.4960   29.6880   46.6670 C   0  0  0  0  0  0  0  0  0  0  0  0
   59.3090   29.5730   45.9180 C   0  0  0  0  0  0  0  0  0  0  0  0
   59.1950   30.3770   44.6380 C   0  0  0  0  0  0  0  0  0  0  0  0
   58.7100   31.6920   44.9130 O   0  0  0  0  0  0  0  0  0  0  0  0
   58.9030   32.3810   46.1220 C   0  0  0  0  0  0  0  0  0  0  0  0
   57.9610   32.3470   47.1690 C   0  0  0  0  0  0  0  0  0  0  0  0
   58.2200   33.0070   48.3720 C   0  0  0  0  0  0  0  0  0  0  0  0
   59.4180   33.7140   48.5510 C   0  0  0  0  0  0  0  0  0  0  0  0
   59.7410   34.3350   49.8850 C   0  0  0  0  0  0  0  0  0  0  0  0
   60.5990   33.4370   50.6730 N   0  0  0  0  0  0  0  0  0  0  0  0
   61.9420   33.8980   51.0680 C   0  0  0  0  0  0  0  0  0  0  0  0
   62.6200   34.6650   49.9250 C   0  0  0  0  0  0  0  0  0  0  0  0
   63.0290   33.7200   48.8270 C   0  0  0  0  0  0  0  0  0  0  0  0
   62.9490   32.3310   49.0250 C   0  0  0  0  0  0  0  0  0  0  0  0
   63.2900   31.4540   47.9900 C   0  0  0  0  0  0  0  0  0  0  0  0
   63.7020   31.9550   46.7520 C   0  0  0  0  0  0  0  0  0  0  0  0
   63.7730   33.3360   46.5460 C   0  0  0  0  0  0  0  0  0  0  0  0
   63.4320   34.2170   47.5760 C   0  0  0  0  0  0  0  0  0  0  0  0
   60.1720   32.0790   50.9270 C   0  0  0  0  0  0  0  0  0  0  0  0
   60.9970   31.1310   50.8170 O   0  0  0  0  0  0  0  0  0  0  0  0
   58.7890   31.7640   51.3360 C   0  0  0  0  0  0  0  0  0  0  0  0
   57.9430   32.7670   51.8280 C   0  0  0  0  0  0  0  0  0  0  0  0
   56.6460   32.4520   52.2440 C   0  0  0  0  0  0  0  0  0  0  0  0
   56.1710   31.1350   52.1490 C   0  0  0  0  0  0  0  0  0  0  0  0
   54.8050   30.7830   52.6710 C   0  0  0  0  0  0  0  0  0  0  0  0
   53.9480   30.1820   51.5510 C   0  0  0  0  0  0  0  0  0  0  0  0
   52.4520   30.3320   51.8580 C   0  0  0  0  0  0  0  0  0  0  0  0
   52.1280   31.6820   52.5130 C   0  0  0  0  0  0  0  0  0  0  0  0
   51.1020   32.4480   51.7350 C   0  0  0  0  0  0  0  0  0  0  0  0
   50.2720   33.1840   52.3310 O   0  0  0  0  0  0  0  0  0  0  0  0
   51.0540   32.3370   50.3490 O   0  0  0  0  0  0  0  0  0  0  0  0
   57.0110   30.1360   51.6330 C   0  0  0  0  0  0  0  0  0  0  0  0
   58.3070   30.4510   51.2190 C   0  0  0  0  0  0  0  0  0  0  0  0
   60.3410   33.7760   47.4940 C   0  0  0  0  0  0  0  0  0  0  0  0
   60.0800   33.1180   46.2890 C   0  0  0  0  0  0  0  0  0  0  0  0
   56.1879   26.6200   47.3226 H   0  0  0  0  0  0  0  0  0  0  0  0
   54.8502   26.3821   46.1476 H   0  0  0  0  0  0  0  0  0  0  0  0
   56.2552   25.2630   46.1476 H   0  0  0  0  0  0  0  0  0  0  0  0
   57.5858   27.5156   48.0644 H   0  0  0  0  0  0  0  0  0  0  0  0
   59.6805   27.7885   49.3805 H   0  0  0  0  0  0  0  0  0  0  0  0
   61.5556   29.1566   48.4793 H   0  0  0  0  0  0  0  0  0  0  0  0
   61.3304   30.2878   46.2746 H   0  0  0  0  0  0  0  0  0  0  0  0
   60.1861   30.4483   44.1662 H   0  0  0  0  0  0  0  0  0  0  0  0
   58.4884   29.8718   43.9631 H   0  0  0  0  0  0  0  0  0  0  0  0
   57.0169   31.7979   47.0382 H   0  0  0  0  0  0  0  0  0  0  0  0
   57.4795   32.9722   49.1847 H   0  0  0  0  0  0  0  0  0  0  0  0
   60.2653   35.2885   49.7238 H   0  0  0  0  0  0  0  0  0  0  0  0
   58.8041   34.5078   50.4350 H   0  0  0  0  0  0  0  0  0  0  0  0
   61.8522   34.5603   51.9417 H   0  0  0  0  0  0  0  0  0  0  0  0
   62.5561   33.0185   51.3117 H   0  0  0  0  0  0  0  0  0  0  0  0
   61.9169   35.4079   49.5203 H   0  0  0  0  0  0  0  0  0  0  0  0
   63.5175   35.1666   50.3159 H   0  0  0  0  0  0  0  0  0  0  0  0
   62.6177   31.9328   49.9954 H   0  0  0  0  0  0  0  0  0  0  0  0
   63.2338   30.3673   48.1509 H   0  0  0  0  0  0  0  0  0  0  0  0
   63.9703   31.2630   45.9401 H   0  0  0  0  0  0  0  0  0  0  0  0
   64.0978   33.7298   45.5716 H   0  0  0  0  0  0  0  0  0  0  0  0
   63.4792   35.3029   47.4068 H   0  0  0  0  0  0  0  0  0  0  0  0
   58.3006   33.8056   51.8871 H   0  0  0  0  0  0  0  0  0  0  0  0
   55.9943   33.2408   52.6480 H   0  0  0  0  0  0  0  0  0  0  0  0
   54.9050   30.0499   53.4850 H   0  0  0  0  0  0  0  0  0  0  0  0
   54.3178   31.6957   53.0448 H   0  0  0  0  0  0  0  0  0  0  0  0
   54.1748   30.7005   50.6077 H   0  0  0  0  0  0  0  0  0  0  0  0
   54.1818   29.1102   51.4694 H   0  0  0  0  0  0  0  0  0  0  0  0
   51.8872   30.2497   50.9177 H   0  0  0  0  0  0  0  0  0  0  0  0
   52.1704   29.5372   52.5644 H   0  0  0  0  0  0  0  0  0  0  0  0
   51.7435   31.5019   53.5277 H   0  0  0  0  0  0  0  0  0  0  0  0
   53.0517   32.2788   52.5393 H   0  0  0  0  0  0  0  0  0  0  0  0
   56.6471   29.1009   51.5544 H   0  0  0  0  0  0  0  0  0  0  0  0
   58.9533   29.6662   50.7991 H   0  0  0  0  0  0  0  0  0  0  0  0
   61.2742   34.3455   47.6153 H   0  0  0  0  0  0  0  0  0  0  0  0
   60.8062   33.1802   45.4651 H   0  0  0  0  0  0  0  0  0  0  0  0
  1  2  1  0
  2  3  1  0
  3  4  2  0
  3  5  1  0
  5  6  2  0
  6  7  1  0
  7  8  2  0
  8  9  1  0
  9 10  2  0
 10 11  1  0
 11 12  1  0
 12 13  1  0
 13 14  2  0
 14 15  1  0
 15 16  2  0
 16 17  1  0
 17 18  1  0
 18 19  1  0
 19 20  1  0
 20 21  1  0
 21 22  2  0
 22 23  1  0
 23 24  2  0
 24 25  1  0
 25 26  2  0
 18 27  1  0
 27 28  2  0
 27 29  1  0
 29 30  2  0
 30 31  1  0
 31 32  2  0
 32 33  1  0
 33 34  1  0
 34 35  1  0
 35 36  1  0
 36 37  1  0
 37 38  2  0
 37 39  1  0
 32 40  1  0
 40 41  2  0
 16 42  1  0
 42 43  2  0
 10  5  1  0
 43 13  1  0
 26 21  1  0
 41 29  1  0
  1 44  1  0
  1 45  1  0
  1 46  1  0
  6 47  1  0
  7 48  1  0
  8 49  1  0
  9 50  1  0
 11 51  1  0
 11 52  1  0
 14 53  1  0
 15 54  1  0
 17 55  1  0
 17 56  1  0
 19 57  1  0
 19 58  1  0
 20 59  1  0
 20 60  1  0
 22 61  1  0
 23 62  1  0
 24 63  1  0
 25 64  1  0
 26 65  1  0
 30 66  1  0
 31 67  1  0
 33 68  1  0
 33 69  1  0
 34 70  1  0
 34 71  1  0
 35 72  1  0
 35 73  1  0
 36 74  1  0
 36 75  1  0
 40 76  1  0
 41 77  1  0
 42 78  1  0
 43 79  1  0
M  CHG  2   2  -1  39  -1
M  END
>  <UniqueID>  (33) 
33

>  <SMILES>  (33) 
C[N-]C(=O)c1ccccc1COc1ccc(CN(CCc2ccccc2)C(=O)c2ccc(CCCCC(=O)[O-])cc2)cc1

>  <Energy>  (33) 
77.50997586291545

>  <Genealogy>  (33) 
C[N-]C(=O)c1ccccc1COc1ccc(CN(CCc2ccccc2)C(=O)c2ccc(CCCCC(=O)[O-])cc2)cc1 (protonated)
C[N-]C(=O)c1ccccc1COc1ccc(CN(CCc2ccccc2)C(=O)c2ccc(CCCCC(=O)[O-])cc2)cc1 (3D coordinates assigned)
C[N-]C(=O)c1ccccc1COc1ccc(CN(CCc2ccccc2)C(=O)c2ccc(CCCCC(=O)[O-])cc2)cc1 (optimized conformer: 77.50997586291545 kcal/mol)

>  <smiles>  (33) 
CNC(=O)c1ccccc1COc1ccc(CN(CCc2ccccc2)C(=O)c2ccc(CCCCC(=O)O)cc2)cc1

>  <score_type>  (33) 
oracle

>  <origin>  (33) 
adg

>  <m_score__min__energy>  (33) 
-16.940000000000001

>  <m_primary>  (33) 
energy

$$$$
33:0
     RDKit          3D

 50 52  0  0  0  0  0  0  0  0999 V2000
   61.6600   33.9300   49.4790 C   0  0  0  0  0  0  0  0  0  0  0  0
   61.4470   33.8380   48.1630 C   0  0  0  0  0  0  0  0  0  0  0  0
   60.2570   34.1300   47.5260 C   0  0  0  0  0  0  0  0  0  0  0  0
   60.4980   33.9110   46.1820 C   0  0  0  0  0  0  0  0  0  0  0  0
   59.5100   34.0940   45.0690 C   0  0  0  0  0  0  0  0  0  0  0  0
   58.1320   34.5200   45.5910 C   0  0  0  0  0  0  0  0  0  0  0  0
   57.3410   33.3450   46.1180 C   0  0  0  0  0  0  0  0  0  0  0  0
   57.3020   33.1430   47.3620 O   0  0  0  0  0  0  0  0  0  0  0  0
   56.6990   32.4030   45.2500 N   0  0  0  0  0  0  0  0  0  0  0  0
   57.2120   31.1270   44.8410 C   0  0  0  0  0  0  0  0  0  0  0  0
   56.5410   30.4220   43.8360 C   0  0  0  0  0  0  0  0  0  0  0  0
   57.0270   29.1890   43.3930 C   0  0  0  0  0  0  0  0  0  0  0  0
   58.2000   28.6600   43.9380 C   0  0  0  0  0  0  0  0  0  0  0  0
   58.9030   29.3730   44.9190 C   0  0  0  0  0  0  0  0  0  0  0  0
   60.4060   28.7380   45.5780 S   0  0  0  0  0  0  0  0  0  0  0  0
   61.4440   28.7170   44.4920 O   0  0  0  0  0  0  0  0  0  0  0  0
   60.9020   29.6170   46.6890 O   0  0  0  0  0  0  0  0  0  0  0  0
   60.2030   27.1330   46.1900 N   0  0  0  0  0  0  0  0  0  0  0  0
   58.9410   26.4620   46.2180 C   0  0  0  0  0  0  0  0  0  0  0  0
   58.8000   25.1450   45.7460 C   0  0  0  0  0  0  0  0  0  0  0  0
   57.5490   24.5210   45.7590 C   0  0  0  0  0  0  0  0  0  0  0  0
   56.4180   25.2100   46.2370 C   0  0  0  0  0  0  0  0  0  0  0  0
   55.1350   24.6410   46.2470 O   0  0  0  0  0  0  0  0  0  0  0  0
   54.5130   24.0440   45.1160 C   0  0  0  0  0  0  0  0  0  0  0  0
   56.5700   26.5140   46.7250 C   0  0  0  0  0  0  0  0  0  0  0  0
   57.8220   27.1330   46.7320 C   0  0  0  0  0  0  0  0  0  0  0  0
   58.4140   30.6130   45.3590 C   0  0  0  0  0  0  0  0  0  0  0  0
   61.7370   33.5140   45.9990 O   0  0  0  0  0  0  0  0  0  0  0  0
   62.3360   33.4580   47.1670 C   0  0  0  0  0  0  0  0  0  0  0  0
   63.6030   33.0800   47.3140 C   0  0  0  0  0  0  0  0  0  0  0  0
   62.6455   33.6749   49.8958 H   0  0  0  0  0  0  0  0  0  0  0  0
   60.8498   34.2608   50.1455 H   0  0  0  0  0  0  0  0  0  0  0  0
   59.3173   34.4654   47.9892 H   0  0  0  0  0  0  0  0  0  0  0  0
   59.8856   34.8683   44.3839 H   0  0  0  0  0  0  0  0  0  0  0  0
   59.3955   33.1293   44.5530 H   0  0  0  0  0  0  0  0  0  0  0  0
   58.2692   35.2492   46.4030 H   0  0  0  0  0  0  0  0  0  0  0  0
   57.5713   34.9602   44.7532 H   0  0  0  0  0  0  0  0  0  0  0  0
   55.6258   30.8406   43.3921 H   0  0  0  0  0  0  0  0  0  0  0  0
   56.4850   28.6335   42.6135 H   0  0  0  0  0  0  0  0  0  0  0  0
   58.5722   27.6828   43.5967 H   0  0  0  0  0  0  0  0  0  0  0  0
   59.6781   24.6032   45.3647 H   0  0  0  0  0  0  0  0  0  0  0  0
   57.4480   23.4881   45.3945 H   0  0  0  0  0  0  0  0  0  0  0  0
   53.7576   23.3189   45.4531 H   0  0  0  0  0  0  0  0  0  0  0  0
   54.0282   24.8236   44.5100 H   0  0  0  0  0  0  0  0  0  0  0  0
   55.2721   23.5277   44.5100 H   0  0  0  0  0  0  0  0  0  0  0  0
   55.6930   27.0570   47.1072 H   0  0  0  0  0  0  0  0  0  0  0  0
   57.9305   28.1483   47.1413 H   0  0  0  0  0  0  0  0  0  0  0  0
   58.9740   31.1856   46.1130 H   0  0  0  0  0  0  0  0  0  0  0  0
   64.0556   33.0511   48.3162 H   0  0  0  0  0  0  0  0  0  0  0  0
   64.1981   32.7964   46.4334 H   0  0  0  0  0  0  0  0  0  0  0  0
  1  2  2  0
  2  3  1  0
  3  4  2  0
  4  5  1  0
  5  6  1  0
  6  7  1  0
  7  8  2  0
  7  9  1  0
  9 10  1  0
 10 11  2  0
 11 12  1  0
 12 13  2  0
 13 14  1  0
 14 15  1  0
 15 16  2  0
 15 17  2  0
 15 18  1  0
 18 19  1  0
 19 20  2  0
 20 21  1  0
 21 22  2  0
 22 23  1  0
 23 24  1  0
 22 25  1  0
 25 26  2  0
 14 27  2  0
  4 28  1  0
 28 29  1  0
 29 30  2  0
 29  2  1  0
 27 10  1  0
 26 19  1  0
  1 31  1  0
  1 32  1  0
  3 33  1  0
  5 34  1  0
  5 35  1  0
  6 36  1  0
  6 37  1  0
 11 38  1  0
 12 39  1  0
 13 40  1  0
 20 41  1  0
 21 42  1  0
 24 43  1  0
 24 44  1  0
 24 45  1  0
 25 46  1  0
 26 47  1  0
 27 48  1  0
 30 49  1  0
 30 50  1  0
M  CHG  2   9  -1  18  -1
M  END
>  <UniqueID>  (34) 
34

>  <SMILES>  (34) 
C=c1cc(CCC(=O)[N-]c2cccc(S(=O)(=O)[N-]c3ccc(OC)cc3)c2)oc1=C

>  <Energy>  (34) 
88.87164278199094

>  <Genealogy>  (34) 
C=c1cc(CCC(=O)[N-]c2cccc(S(=O)(=O)[N-]c3ccc(OC)cc3)c2)oc1=C (protonated)
C=c1cc(CCC(=O)[N-]c2cccc(S(=O)(=O)[N-]c3ccc(OC)cc3)c2)oc1=C (3D coordinates assigned)
C=c1cc(CCC(=O)[N-]c2cccc(S(=O)(=O)[N-]c3ccc(OC)cc3)c2)oc1=C (optimized conformer: 88.87164278199094 kcal/mol)

>  <smiles>  (34) 
C=c1cc(CCC(=O)Nc2cccc(S(=O)(=O)Nc3ccc(OC)cc3)c2)oc1=C

>  <score_type>  (34) 
oracle

>  <origin>  (34) 
adg

>  <m_score__min__energy>  (34) 
-11.789999999999999

>  <m_primary>  (34) 
energy

$$$$
34:0
     RDKit          3D

 47 49  0  0  0  0  0  0  0  0999 V2000
   55.8662   26.6234   45.8504 H   0  0  0  0  0  0  0  0  0  0  0  0
   56.9630   26.6900   45.8000 C   0  0  0  0  0  0  0  0  0  0  0  0
   57.7430   25.5830   46.1310 C   0  0  0  0  0  0  0  0  0  0  0  0
   57.2669   24.6404   46.4390 H   0  0  0  0  0  0  0  0  0  0  0  0
   59.1310   25.6820   46.0680 C   0  0  0  0  0  0  0  0  0  0  0  0
   59.7539   24.8146   46.3320 H   0  0  0  0  0  0  0  0  0  0  0  0
   59.7200   26.8450   45.6820 N   0  0  0  0  0  0  0  0  0  0  0  0
   60.7640   26.8780   45.6400 H   0  0  0  0  0  0  0  0  0  0  0  0
   58.9810   27.9450   45.3420 C   0  0  0  0  0  0  0  0  0  0  0  0
   57.5750   27.8910   45.4020 C   0  0  0  0  0  0  0  0  0  0  0  0
   56.7640   29.0900   45.0900 C   0  0  0  0  0  0  0  0  0  0  0  0
   55.5120   29.0330   45.2080 O   0  0  0  0  0  0  0  0  0  0  0  0
   57.4410   30.3430   44.6510 C   0  0  0  0  0  0  0  0  0  0  0  0
   56.8370   31.4960   44.5400 N   0  0  0  0  0  0  0  0  0  0  0  0
   57.4240   32.8270   44.3710 C   0  0  0  0  0  0  0  0  0  0  0  0
   56.6154   33.5589   44.2277 H   0  0  0  0  0  0  0  0  0  0  0  0
   58.0892   32.8027   43.4952 H   0  0  0  0  0  0  0  0  0  0  0  0
   58.2400   33.2270   45.5750 C   0  0  0  0  0  0  0  0  0  0  0  0
   59.0570   34.3630   45.5230 C   0  0  0  0  0  0  0  0  0  0  0  0
   59.0984   34.9641   44.6027 H   0  0  0  0  0  0  0  0  0  0  0  0
   59.8190   34.7380   46.6300 C   0  0  0  0  0  0  0  0  0  0  0  0
   60.4600   35.6301   46.5727 H   0  0  0  0  0  0  0  0  0  0  0  0
   59.7760   33.9880   47.8170 C   0  0  0  0  0  0  0  0  0  0  0  0
   60.6170   34.4210   48.9900 C   0  0  0  0  0  0  0  0  0  0  0  0
   60.1039   34.1568   49.9264 H   0  0  0  0  0  0  0  0  0  0  0  0
   61.5916   33.9126   48.9499 H   0  0  0  0  0  0  0  0  0  0  0  0
   60.7694   35.5097   48.9499 H   0  0  0  0  0  0  0  0  0  0  0  0
   58.9200   32.8620   47.8950 C   0  0  0  0  0  0  0  0  0  0  0  0
   58.8460   32.0000   49.1370 C   0  0  0  0  0  0  0  0  0  0  0  0
   59.6449   32.2983   49.8318 H   0  0  0  0  0  0  0  0  0  0  0  0
   57.8608   32.1391   49.6061 H   0  0  0  0  0  0  0  0  0  0  0  0
   59.0110   30.5720   48.7920 N   0  0  0  0  0  0  0  0  0  0  0  0
   58.9220   29.7250   49.9940 C   0  0  0  0  0  0  0  0  0  0  0  0
   58.9883   30.3558   50.8927 H   0  0  0  0  0  0  0  0  0  0  0  0
   57.9624   29.1872   49.9934 H   0  0  0  0  0  0  0  0  0  0  0  0
   59.7489   28.9995   49.9934 H   0  0  0  0  0  0  0  0  0  0  0  0
   60.3100   30.3600   48.1350 C   0  0  0  0  0  0  0  0  0  0  0  0
   61.0909   30.2326   48.8991 H   0  0  0  0  0  0  0  0  0  0  0  0
   60.2606   29.4580   47.5073 H   0  0  0  0  0  0  0  0  0  0  0  0
   60.5499   31.2309   47.5073 H   0  0  0  0  0  0  0  0  0  0  0  0
   58.1540   32.5010   46.7730 C   0  0  0  0  0  0  0  0  0  0  0  0
   57.4769   31.6363   46.8349 H   0  0  0  0  0  0  0  0  0  0  0  0
   58.8820   30.2820   44.2230 C   0  0  0  0  0  0  0  0  0  0  0  0
   58.9187   30.1064   43.1377 H   0  0  0  0  0  0  0  0  0  0  0  0
   59.3491   31.2390   44.4988 H   0  0  0  0  0  0  0  0  0  0  0  0
   59.6500   29.1910   44.9110 C   0  0  0  0  0  0  0  0  0  0  0  0
   60.8970   29.3190   45.0540 O   0  0  0  0  0  0  0  0  0  0  0  0
  1  2  1  0
  2  3  2  0
  3  4  1  0
  3  5  1  0
  5  6  1  0
  5  7  2  0
  7  8  1  0
  7  9  1  0
  9 10  2  0
 10 11  1  0
 11 12  2  0
 11 13  1  0
 13 14  2  0
 14 15  1  0
 15 16  1  0
 15 17  1  0
 15 18  1  0
 18 19  2  0
 19 20  1  0
 19 21  1  0
 21 22  1  0
 21 23  2  0
 23 24  1  0
 24 25  1  0
 24 26  1  0
 24 27  1  0
 23 28  1  0
 28 29  1  0
 29 30  1  0
 29 31  1  0
 29 32  1  0
 32 33  1  0
 33 34  1  0
 33 35  1  0
 33 36  1  0
 32 37  1  0
 37 38  1  0
 37 39  1  0
 37 40  1  0
 28 41  2  0
 41 42  1  0
 13 43  1  0
 43 44  1  0
 43 45  1  0
 43 46  1  0
 46 47  2  0
 10  2  1  0
 41 18  1  0
 46  9  1  0
M  CHG  1   7   1
M  END
>  <UniqueID>  (35) 
35

>  <SMILES>  (35) 
Cc1ccc(C/N=C2/CC(=O)c3[nH+]cccc3C2=O)cc1CN(C)C

>  <Energy>  (35) 
54.863405527830565

>  <Genealogy>  (35) 
Cc1ccc(CN=C2CC(=O)c3[nH+]cccc3C2=O)cc1CN(C)C (protonated)
Cc1ccc(C/N=C2/CC(=O)c3[nH+]cccc3C2=O)cc1CN(C)C (cis-trans isomerization)
Cc1ccc(C/N=C2/CC(=O)c3[nH+]cccc3C2=O)cc1CN(C)C (3D coordinates assigned)
Cc1ccc(C/N=C2/CC(=O)c3[nH+]cccc3C2=O)cc1CN(C)C (nonaromatic ring conformer: 54.863405527830565 kcal/mol)

>  <smiles>  (35) 
Cc1ccc(CN=C2CC(=O)c3ncccc3C2=O)cc1CN(C)C

>  <score_type>  (35) 
oracle

>  <origin>  (35) 
adg

>  <m_score__min__energy>  (35) 
-6.9900000000000002

>  <m_primary>  (35) 
energy

$$$$
35:0
     RDKit          3D

 42 44  0  0  0  0  0  0  0  0999 V2000
   55.0450   23.6110   43.9380 C   0  0  0  0  0  0  0  0  0  0  0  0
   54.3730   23.7760   45.5770 S   0  0  0  0  0  0  0  0  0  0  0  0
   53.3650   24.8940   45.6220 O   0  0  0  0  0  0  0  0  0  0  0  0
   53.6810   22.4980   45.9540 O   0  0  0  0  0  0  0  0  0  0  0  0
   55.6330   24.0870   46.7160 N   0  0  0  0  0  0  0  0  0  0  0  0
   56.7290   24.9890   46.5010 C   0  0  0  0  0  0  0  0  0  0  0  0
   58.0640   24.5460   46.5940 C   0  0  0  0  0  0  0  0  0  0  0  0
   59.1200   25.4210   46.3330 C   0  0  0  0  0  0  0  0  0  0  0  0
   58.8640   26.7420   45.9790 C   0  0  0  0  0  0  0  0  0  0  0  0
   57.5390   27.2170   45.8940 C   0  0  0  0  0  0  0  0  0  0  0  0
   57.2970   28.5810   45.4980 N   0  0  0  0  0  0  0  0  0  0  0  0
   56.2530   29.0470   44.7800 C   0  0  0  0  0  0  0  0  0  0  0  0
   56.2930   30.3830   44.6030 N   0  0  0  0  0  0  0  0  0  0  0  0
   57.4180   30.7630   45.2380 C   0  0  0  0  0  0  0  0  0  0  0  0
   57.8670   32.1630   45.3350 C   0  0  0  0  0  0  0  0  0  0  0  0
   57.3720   33.0180   44.5570 O   0  0  0  0  0  0  0  0  0  0  0  0
   58.8260   32.5800   46.3230 N   0  0  0  0  0  0  0  0  0  0  0  0
   58.7550   32.0890   47.7050 C   0  0  0  0  0  0  0  0  0  0  0  0
   59.0200   33.2520   48.6690 C   0  0  0  0  0  0  0  0  0  0  0  0
   60.2280   33.9220   48.3350 O   0  0  0  0  0  0  0  0  0  0  0  0
   60.1040   34.5360   47.0650 C   0  0  0  0  0  0  0  0  0  0  0  0
   59.9330   33.4760   45.9680 C   0  0  0  0  0  0  0  0  0  0  0  0
   58.0480   29.6590   45.7720 C   0  0  0  0  0  0  0  0  0  0  0  0
   56.4660   26.3270   46.1490 C   0  0  0  0  0  0  0  0  0  0  0  0
   55.1440   26.7670   45.9990 O   0  0  0  0  0  0  0  0  0  0  0  0
   56.1114   23.3492   44.0036 H   0  0  0  0  0  0  0  0  0  0  0  0
   54.5054   22.8187   43.3985 H   0  0  0  0  0  0  0  0  0  0  0  0
   54.9337   24.5631   43.3985 H   0  0  0  0  0  0  0  0  0  0  0  0
   58.2752   23.5035   46.8742 H   0  0  0  0  0  0  0  0  0  0  0  0
   60.1581   25.0648   46.4075 H   0  0  0  0  0  0  0  0  0  0  0  0
   59.7020   27.4213   45.7637 H   0  0  0  0  0  0  0  0  0  0  0  0
   55.4540   28.4045   44.3814 H   0  0  0  0  0  0  0  0  0  0  0  0
   57.7548   31.6733   47.8966 H   0  0  0  0  0  0  0  0  0  0  0  0
   59.5106   31.3042   47.8571 H   0  0  0  0  0  0  0  0  0  0  0  0
   58.1846   33.9653   48.6111 H   0  0  0  0  0  0  0  0  0  0  0  0
   59.1115   32.8496   49.6887 H   0  0  0  0  0  0  0  0  0  0  0  0
   59.2259   35.1986   47.0678 H   0  0  0  0  0  0  0  0  0  0  0  0
   61.0164   35.1152   46.8600 H   0  0  0  0  0  0  0  0  0  0  0  0
   59.7118   33.9710   45.0109 H   0  0  0  0  0  0  0  0  0  0  0  0
   60.8610   32.8931   45.8730 H   0  0  0  0  0  0  0  0  0  0  0  0
   58.9988   29.6613   46.3252 H   0  0  0  0  0  0  0  0  0  0  0  0
   54.3510   26.2790   46.3990 H   0  0  0  0  0  0  0  0  0  0  0  0
  1  2  1  0
  2  3  2  0
  2  4  2  0
  2  5  1  0
  5  6  1  0
  6  7  2  0
  7  8  1  0
  8  9  2  0
  9 10  1  0
 10 11  1  0
 11 12  1  0
 12 13  2  0
 13 14  1  0
 14 15  1  0
 15 16  2  0
 15 17  1  0
 17 18  1  0
 18 19  1  0
 19 20  1  0
 20 21  1  0
 21 22  1  0
 14 23  2  0
 10 24  2  0
 24 25  1  0
 24  6  1  0
 23 11  1  0
 22 17  1  0
  1 26  1  0
  1 27  1  0
  1 28  1  0
  7 29  1  0
  8 30  1  0
  9 31  1  0
 12 32  1  0
 18 33  1  0
 18 34  1  0
 19 35  1  0
 19 36  1  0
 21 37  1  0
 21 38  1  0
 22 39  1  0
 22 40  1  0
 23 41  1  0
 25 42  1  0
M  CHG  1   5  -1
M  END
>  <UniqueID>  (36) 
36

>  <SMILES>  (36) 
CS(=O)(=O)[N-]c1cccc(-n2cnc(C(=O)N3CCOCC3)c2)c1O

>  <Energy>  (36) 
84.00098215619191

>  <Genealogy>  (36) 
CS(=O)(=O)[N-]c1cccc(-n2cnc(C(=O)N3CCOCC3)c2)c1O (protonated)
CS(=O)(=O)[N-]c1cccc(-n2cnc(C(=O)N3CCOCC3)c2)c1O (3D coordinates assigned)
CS(=O)(=O)[N-]c1cccc(-n2cnc(C(=O)N3CCOCC3)c2)c1O (nonaromatic ring conformer: 84.00098215619191 kcal/mol)

>  <smiles>  (36) 
CS(=O)(=O)Nc1cccc(-n2cnc(C(=O)N3CCOCC3)c2)c1O

>  <score_type>  (36) 
oracle

>  <origin>  (36) 
adg

>  <m_score__min__energy>  (36) 
-10.48

>  <m_primary>  (36) 
energy

$$$$
36:0
     RDKit          3D

 40 42  0  0  0  0  0  0  0  0999 V2000
   57.2870   28.9190   43.2880 O   0  0  0  0  0  0  0  0  0  0  0  0
   56.4830   29.3920   44.1340 C   0  0  0  0  0  0  0  0  0  0  0  0
   56.1640   30.8530   44.1120 C   0  0  0  0  0  0  0  0  0  0  0  0
   57.4050   31.7760   43.1410 S   0  0  0  0  0  0  0  0  0  0  0  0
   58.1190   32.6090   44.5570 C   0  0  0  0  0  0  0  0  0  0  0  0
   58.1950   31.9740   45.7530 N   0  0  0  0  0  0  0  0  0  0  0  0
   58.7550   32.5760   46.8340 C   0  0  0  0  0  0  0  0  0  0  0  0
   58.8070   31.9520   47.9270 O   0  0  0  0  0  0  0  0  0  0  0  0
   59.2740   33.8810   46.7230 C   0  0  0  0  0  0  0  0  0  0  0  0
   59.8850   34.5900   47.9090 C   0  0  0  0  0  0  0  0  0  0  0  0
   61.3240   34.1810   48.0870 C   0  0  0  0  0  0  0  0  0  0  0  0
   61.9180   34.2070   49.3620 C   0  0  0  0  0  0  0  0  0  0  0  0
   63.2460   33.8010   49.5290 C   0  0  0  0  0  0  0  0  0  0  0  0
   63.9880   33.3620   48.4290 C   0  0  0  0  0  0  0  0  0  0  0  0
   63.4030   33.3280   47.1600 C   0  0  0  0  0  0  0  0  0  0  0  0
   62.0760   33.7330   46.9870 C   0  0  0  0  0  0  0  0  0  0  0  0
   59.1680   34.5190   45.4740 C   0  0  0  0  0  0  0  0  0  0  0  0
   59.6480   35.8100   45.2910 O   0  0  0  0  0  0  0  0  0  0  0  0
   58.5970   33.8730   44.4270 N   0  0  0  0  0  0  0  0  0  0  0  0
   55.9430   28.5730   45.1800 N   0  0  0  0  0  0  0  0  0  0  0  0
   56.5860   27.4750   45.8450 C   0  0  0  0  0  0  0  0  0  0  0  0
   57.9720   27.4610   46.0910 C   0  0  0  0  0  0  0  0  0  0  0  0
   58.5630   26.3640   46.7290 C   0  0  0  0  0  0  0  0  0  0  0  0
   60.2910   26.3520   47.0340 Cl  0  0  0  0  0  0  0  0  0  0  0  0
   57.7790   25.2730   47.1150 C   0  0  0  0  0  0  0  0  0  0  0  0
   56.4080   25.2700   46.8520 C   0  0  0  0  0  0  0  0  0  0  0  0
   55.8130   26.3620   46.2110 C   0  0  0  0  0  0  0  0  0  0  0  0
   54.4480   26.3390   45.9450 O   0  0  0  0  0  0  0  0  0  0  0  0
   55.1719   30.9983   43.6596 H   0  0  0  0  0  0  0  0  0  0  0  0
   56.1741   31.2307   45.1451 H   0  0  0  0  0  0  0  0  0  0  0  0
   59.8355   35.6767   47.7455 H   0  0  0  0  0  0  0  0  0  0  0  0
   59.3235   34.3157   48.8143 H   0  0  0  0  0  0  0  0  0  0  0  0
   61.3359   34.5479   50.2308 H   0  0  0  0  0  0  0  0  0  0  0  0
   63.7070   33.8273   50.5274 H   0  0  0  0  0  0  0  0  0  0  0  0
   65.0324   33.0432   48.5619 H   0  0  0  0  0  0  0  0  0  0  0  0
   63.9881   32.9817   46.2953 H   0  0  0  0  0  0  0  0  0  0  0  0
   61.6190   33.7010   45.9870 H   0  0  0  0  0  0  0  0  0  0  0  0
   58.5926   28.3147   45.7809 H   0  0  0  0  0  0  0  0  0  0  0  0
   58.2426   24.4164   47.6262 H   0  0  0  0  0  0  0  0  0  0  0  0
   55.7941   24.4071   47.1494 H   0  0  0  0  0  0  0  0  0  0  0  0
  1  2  2  0
  2  3  1  0
  3  4  1  0
  4  5  1  0
  5  6  2  0
  6  7  1  0
  7  8  2  0
  7  9  1  0
  9 10  1  0
 10 11  1  0
 11 12  2  0
 12 13  1  0
 13 14  2  0
 14 15  1  0
 15 16  2  0
  9 17  2  0
 17 18  1  0
 17 19  1  0
  2 20  1  0
 20 21  1  0
 21 22  2  0
 22 23  1  0
 23 24  1  0
 23 25  2  0
 25 26  1  0
 26 27  2  0
 27 28  1  0
 19  5  1  0
 27 21  1  0
 16 11  1  0
  3 29  1  0
  3 30  1  0
 10 31  1  0
 10 32  1  0
 12 33  1  0
 13 34  1  0
 14 35  1  0
 15 36  1  0
 16 37  1  0
 22 38  1  0
 25 39  1  0
 26 40  1  0
M  CHG  4  18  -1  19  -1  20  -1  28  -1
M  END
>  <UniqueID>  (37) 
37

>  <SMILES>  (37) 
O=C(CSc1nc(=O)c(Cc2ccccc2)c([O-])[n-]1)[N-]c1cc(Cl)ccc1[O-]

>  <Energy>  (37) 
41.838412023340986

>  <Genealogy>  (37) 
O=C(CSc1nc(=O)c(Cc2ccccc2)c([O-])[n-]1)[N-]c1cc(Cl)ccc1[O-] (protonated)
O=C(CSc1nc(=O)c(Cc2ccccc2)c([O-])[n-]1)[N-]c1cc(Cl)ccc1[O-] (3D coordinates assigned)
O=C(CSc1nc(=O)c(Cc2ccccc2)c([O-])[n-]1)[N-]c1cc(Cl)ccc1[O-] (optimized conformer: 41.838412023340986 kcal/mol)

>  <smiles>  (37) 
O=C(CSc1nc(=O)c(Cc2ccccc2)c(O)[nH]1)Nc1cc(Cl)ccc1O

>  <score_type>  (37) 
oracle

>  <origin>  (37) 
adg

>  <m_score__min__energy>  (37) 
-16.82

>  <m_primary>  (37) 
energy

$$$$
37:0
     RDKit          3D

 51 54  0  0  0  0  0  0  0  0999 V2000
   56.7200   31.0400   44.2520 C   0  0  0  0  0  0  0  0  0  0  0  0
   57.3590   29.9270   44.6190 C   0  0  0  0  0  0  0  0  0  0  0  0
   56.9720   28.6970   44.2230 N   0  0  0  0  0  0  0  0  0  0  0  0
   57.7900   27.8130   44.8400 C   0  0  0  0  0  0  0  0  0  0  0  0
   57.7380   26.4730   44.7350 C   0  0  0  0  0  0  0  0  0  0  0  0
   57.1370   25.5500   45.7220 C   0  0  0  0  0  0  0  0  0  0  0  0
   57.7350   24.4750   46.2650 N   0  0  0  0  0  0  0  0  0  0  0  0
   56.8130   24.0040   47.1320 C   0  0  0  0  0  0  0  0  0  0  0  0
   57.0080   22.9810   47.8390 O   0  0  0  0  0  0  0  0  0  0  0  0
   55.6680   24.7170   47.1830 N   0  0  0  0  0  0  0  0  0  0  0  0
   55.8920   25.6940   46.2890 C   0  0  0  0  0  0  0  0  0  0  0  0
   54.9770   26.6970   45.9980 O   0  0  0  0  0  0  0  0  0  0  0  0
   58.7020   28.4840   45.6370 C   0  0  0  0  0  0  0  0  0  0  0  0
   58.4450   29.8330   45.4810 C   0  0  0  0  0  0  0  0  0  0  0  0
   59.2140   30.9070   46.1500 C   0  0  0  0  0  0  0  0  0  0  0  0
   60.4440   30.6990   46.3450 O   0  0  0  0  0  0  0  0  0  0  0  0
   58.5950   32.1510   46.5990 N   0  0  0  0  0  0  0  0  0  0  0  0
   58.6140   32.3010   48.0750 C   0  0  0  0  0  0  0  0  0  0  0  0
   60.0320   32.5650   48.6080 C   0  0  0  0  0  0  0  0  0  0  0  0
   60.5990   33.7640   47.9630 N   0  0  0  0  0  0  0  0  0  0  0  0
   61.9070   34.2140   48.5150 C   0  0  0  0  0  0  0  0  0  0  0  0
   62.0650   33.7720   49.9930 C   0  0  0  0  0  0  0  0  0  0  0  0
   63.2390   32.8110   50.1960 C   0  0  0  0  0  0  0  0  0  0  0  0
   63.2710   31.8680   49.1500 O   0  0  0  0  0  0  0  0  0  0  0  0
   63.7690   32.4660   47.9680 C   0  0  0  0  0  0  0  0  0  0  0  0
   63.1390   33.8440   47.6380 C   0  0  0  0  0  0  0  0  0  0  0  0
   60.6230   33.6090   46.4950 C   0  0  0  0  0  0  0  0  0  0  0  0
   59.2010   33.3540   45.9770 C   0  0  0  0  0  0  0  0  0  0  0  0
   57.0763   32.0198   44.6027 H   0  0  0  0  0  0  0  0  0  0  0  0
   55.8371   30.9774   43.5989 H   0  0  0  0  0  0  0  0  0  0  0  0
   56.1600   28.4970   43.6010 H   0  0  0  0  0  0  0  0  0  0  0  0
   58.1822   26.0235   43.8346 H   0  0  0  0  0  0  0  0  0  0  0  0
   59.4792   28.0318   46.2706 H   0  0  0  0  0  0  0  0  0  0  0  0
   57.5890   32.1180   46.3180 H   0  0  0  0  0  0  0  0  0  0  0  0
   57.9664   33.1450   48.3547 H   0  0  0  0  0  0  0  0  0  0  0  0
   58.2540   31.3603   48.5172 H   0  0  0  0  0  0  0  0  0  0  0  0
   59.9886   32.7228   49.6958 H   0  0  0  0  0  0  0  0  0  0  0  0
   60.6698   31.6978   48.3816 H   0  0  0  0  0  0  0  0  0  0  0  0
   61.8871   35.3135   48.4895 H   0  0  0  0  0  0  0  0  0  0  0  0
   62.2298   34.6658   50.6126 H   0  0  0  0  0  0  0  0  0  0  0  0
   61.1457   33.2421   50.2831 H   0  0  0  0  0  0  0  0  0  0  0  0
   64.1800   33.3806   50.2029 H   0  0  0  0  0  0  0  0  0  0  0  0
   63.1163   32.2856   51.1546 H   0  0  0  0  0  0  0  0  0  0  0  0
   64.8548   32.6014   48.0811 H   0  0  0  0  0  0  0  0  0  0  0  0
   63.5073   31.7923   47.1387 H   0  0  0  0  0  0  0  0  0  0  0  0
   63.9081   34.6172   47.7814 H   0  0  0  0  0  0  0  0  0  0  0  0
   62.7793   33.7845   46.6002 H   0  0  0  0  0  0  0  0  0  0  0  0
   61.0195   34.5272   46.0371 H   0  0  0  0  0  0  0  0  0  0  0  0
   61.2651   32.7561   46.2298 H   0  0  0  0  0  0  0  0  0  0  0  0
   58.5753   34.2284   46.2094 H   0  0  0  0  0  0  0  0  0  0  0  0
   59.2578   33.1855   44.8915 H   0  0  0  0  0  0  0  0  0  0  0  0
  1  2  2  0
  2  3  1  0
  3  4  1  0
  4  5  2  3
  5  6  1  0
  6  7  1  0
  7  8  1  0
  8  9  2  0
  8 10  1  0
 10 11  1  0
 11 12  1  0
  4 13  1  0
 13 14  2  0
 14 15  1  0
 15 16  2  0
 15 17  1  0
 17 18  1  0
 18 19  1  0
 19 20  1  0
 20 21  1  0
 21 22  1  0
 22 23  1  0
 23 24  1  0
 24 25  1  0
 25 26  1  0
 20 27  1  0
 27 28  1  0
 14  2  1  0
 28 17  1  0
 11  6  2  0
 26 21  1  0
  1 29  1  0
  1 30  1  0
  3 31  1  0
  5 32  1  0
 13 33  1  0
 17 34  1  0
 18 35  1  0
 18 36  1  0
 19 37  1  0
 19 38  1  0
 21 39  1  0
 22 40  1  0
 22 41  1  0
 23 42  1  0
 23 43  1  0
 25 44  1  0
 25 45  1  0
 26 46  1  0
 26 47  1  0
 27 48  1  0
 27 49  1  0
 28 50  1  0
 28 51  1  0
M  CHG  4   7  -1  10  -1  12  -1  17   1
M  END
>  <UniqueID>  (38) 
38

>  <SMILES>  (38) 
C=c1[nH]c(=Cc2[n-]c(=O)[n-]c2[O-])cc1C(=O)[NH+]1CCN(C2CCOCC2)CC1

>  <Energy>  (38) 
139.70860026078986

>  <Genealogy>  (38) 
C=c1[nH]c(=Cc2[n-]c(=O)[n-]c2[O-])cc1C(=O)[NH+]1CCN(C2CCOCC2)CC1 (protonated)
C=c1[nH]c(=Cc2[n-]c(=O)[n-]c2[O-])cc1C(=O)[NH+]1CCN(C2CCOCC2)CC1 (3D coordinates assigned)
C=c1[nH]c(=Cc2[n-]c(=O)[n-]c2[O-])cc1C(=O)[NH+]1CCN(C2CCOCC2)CC1 (nonaromatic ring conformer: 139.70860026078986 kcal/mol)

>  <smiles>  (38) 
C=c1[nH]c(=Cc2[nH]c(=O)[nH]c2O)cc1C(=O)N1CCN(C2CCOCC2)CC1

>  <score_type>  (38) 
oracle

>  <origin>  (38) 
adg

>  <m_score__min__energy>  (38) 
-16.030000000000001

>  <m_primary>  (38) 
energy

$$$$
38:0
     RDKit          3D

 49 51  0  0  0  0  0  0  0  0999 V2000
   54.7650   26.3400   45.9900 O   0  0  0  0  0  0  0  0  0  0  0  0
   56.0040   26.2790   46.2060 C   0  0  0  0  0  0  0  0  0  0  0  0
   56.6010   24.9690   46.6470 C   0  0  0  0  0  0  0  0  0  0  0  0
   56.7320   24.0300   45.4780 C   0  0  0  0  0  0  0  0  0  0  0  0
   57.7870   23.1000   45.4350 C   0  0  0  0  0  0  0  0  0  0  0  0
   57.9040   22.2160   44.3590 C   0  0  0  0  0  0  0  0  0  0  0  0
   56.9730   22.2520   43.3170 C   0  0  0  0  0  0  0  0  0  0  0  0
   55.9240   23.1730   43.3500 C   0  0  0  0  0  0  0  0  0  0  0  0
   55.8020   24.0610   44.4250 C   0  0  0  0  0  0  0  0  0  0  0  0
   56.7980   27.4510   45.9720 N   0  0  0  0  0  0  0  0  0  0  0  0
   58.2180   27.4730   45.6320 C   0  0  0  0  0  0  0  0  0  0  0  0
   59.0410   26.8260   46.7040 C   0  0  0  0  0  0  0  0  0  0  0  0
   59.5120   25.6690   46.5320 O   0  0  0  0  0  0  0  0  0  0  0  0
   59.3730   27.5790   47.8770 N   0  0  0  0  0  0  0  0  0  0  0  0
   59.5480   29.0020   47.9530 C   0  0  0  0  0  0  0  0  0  0  0  0
   58.9630   29.6970   49.0180 C   0  0  0  0  0  0  0  0  0  0  0  0
   59.1210   31.0800   49.1350 C   0  0  0  0  0  0  0  0  0  0  0  0
   59.8880   31.7830   48.1970 C   0  0  0  0  0  0  0  0  0  0  0  0
   60.0650   33.5310   48.3320 S   0  0  0  0  0  0  0  0  0  0  0  0
   59.7160   33.9570   49.7300 O   0  0  0  0  0  0  0  0  0  0  0  0
   61.4940   33.9170   48.0560 O   0  0  0  0  0  0  0  0  0  0  0  0
   58.9880   34.3090   47.2000 N   0  0  0  0  0  0  0  0  0  0  0  0
   57.8540   33.4480   46.8670 C   0  0  0  0  0  0  0  0  0  0  0  0
   57.3930   33.8580   45.4770 C   0  0  0  0  0  0  0  0  0  0  0  0
   58.5750   34.5900   44.8610 C   0  0  0  0  0  0  0  0  0  0  0  0
   59.6580   34.5800   45.9300 C   0  0  0  0  0  0  0  0  0  0  0  0
   60.4920   31.0900   47.1390 C   0  0  0  0  0  0  0  0  0  0  0  0
   60.3320   29.7060   47.0210 C   0  0  0  0  0  0  0  0  0  0  0  0
   57.5964   25.1516   47.0781 H   0  0  0  0  0  0  0  0  0  0  0  0
   55.9406   24.5119   47.3986 H   0  0  0  0  0  0  0  0  0  0  0  0
   58.5229   23.0686   46.2520 H   0  0  0  0  0  0  0  0  0  0  0  0
   58.7303   21.4904   44.3320 H   0  0  0  0  0  0  0  0  0  0  0  0
   57.0667   21.5550   42.4712 H   0  0  0  0  0  0  0  0  0  0  0  0
   55.1920   23.2007   42.5294 H   0  0  0  0  0  0  0  0  0  0  0  0
   54.9749   24.7859   44.4456 H   0  0  0  0  0  0  0  0  0  0  0  0
   58.3693   26.9309   44.6869 H   0  0  0  0  0  0  0  0  0  0  0  0
   58.5366   28.5212   45.5326 H   0  0  0  0  0  0  0  0  0  0  0  0
   58.3741   29.1497   49.7688 H   0  0  0  0  0  0  0  0  0  0  0  0
   58.6418   31.6185   49.9659 H   0  0  0  0  0  0  0  0  0  0  0  0
   58.1649   32.3929   46.8682 H   0  0  0  0  0  0  0  0  0  0  0  0
   57.0433   33.5562   47.6026 H   0  0  0  0  0  0  0  0  0  0  0  0
   57.1353   32.9711   44.8795 H   0  0  0  0  0  0  0  0  0  0  0  0
   56.4934   34.4900   45.5134 H   0  0  0  0  0  0  0  0  0  0  0  0
   58.9219   34.0684   43.9568 H   0  0  0  0  0  0  0  0  0  0  0  0
   58.3093   35.6133   44.5573 H   0  0  0  0  0  0  0  0  0  0  0  0
   60.3964   33.7935   45.7150 H   0  0  0  0  0  0  0  0  0  0  0  0
   60.1939   35.5401   45.9610 H   0  0  0  0  0  0  0  0  0  0  0  0
   61.0942   31.6370   46.3987 H   0  0  0  0  0  0  0  0  0  0  0  0
   60.8208   29.1659   46.1967 H   0  0  0  0  0  0  0  0  0  0  0  0
  1  2  2  0
  2  3  1  0
  3  4  1  0
  4  5  2  0
  5  6  1  0
  6  7  2  0
  7  8  1  0
  8  9  2  0
  2 10  1  0
 10 11  1  0
 11 12  1  0
 12 13  2  0
 12 14  1  0
 14 15  1  0
 15 16  2  0
 16 17  1  0
 17 18  2  0
 18 19  1  0
 19 20  2  0
 19 21  2  0
 19 22  1  0
 22 23  1  0
 23 24  1  0
 24 25  1  0
 25 26  1  0
 18 27  1  0
 27 28  2  0
  9  4  1  0
 28 15  1  0
 26 22  1  0
  3 29  1  0
  3 30  1  0
  5 31  1  0
  6 32  1  0
  7 33  1  0
  8 34  1  0
  9 35  1  0
 11 36  1  0
 11 37  1  0
 16 38  1  0
 17 39  1  0
 23 40  1  0
 23 41  1  0
 24 42  1  0
 24 43  1  0
 25 44  1  0
 25 45  1  0
 26 46  1  0
 26 47  1  0
 27 48  1  0
 28 49  1  0
M  CHG  2  10  -1  14  -1
M  END
>  <UniqueID>  (39) 
39

>  <SMILES>  (39) 
O=C(Cc1ccccc1)[N-]CC(=O)[N-]c1ccc(S(=O)(=O)N2CCCC2)cc1

>  <Energy>  (39) 
51.52657871295092

>  <Genealogy>  (39) 
O=C(Cc1ccccc1)[N-]CC(=O)[N-]c1ccc(S(=O)(=O)N2CCCC2)cc1 (protonated)
O=C(Cc1ccccc1)[N-]CC(=O)[N-]c1ccc(S(=O)(=O)N2CCCC2)cc1 (3D coordinates assigned)
O=C(Cc1ccccc1)[N-]CC(=O)[N-]c1ccc(S(=O)(=O)N2CCCC2)cc1 (nonaromatic ring conformer: 51.52657871295092 kcal/mol)

>  <smiles>  (39) 
O=C(Cc1ccccc1)NCC(=O)Nc1ccc(S(=O)(=O)N2CCCC2)cc1

>  <score_type>  (39) 
oracle

>  <origin>  (39) 
adg

>  <m_score__min__energy>  (39) 
-12.779999999999999

>  <m_primary>  (39) 
energy

$$$$
39:0
     RDKit          3D

 42 45  0  0  0  0  0  0  0  0999 V2000
   59.3580   34.5820   48.2450 C   0  0  0  0  0  0  0  0  0  0  0  0
   59.0270   33.9910   46.9070 C   0  0  0  0  0  0  0  0  0  0  0  0
   59.2580   34.7240   45.7330 C   0  0  0  0  0  0  0  0  0  0  0  0
   58.9180   34.1920   44.4860 C   0  0  0  0  0  0  0  0  0  0  0  0
   58.3270   32.9200   44.4000 C   0  0  0  0  0  0  0  0  0  0  0  0
   57.9700   32.3400   43.1720 C   0  0  0  0  0  0  0  0  0  0  0  0
   58.1780   32.9440   42.0840 O   0  0  0  0  0  0  0  0  0  0  0  0
   57.3810   31.0750   43.1570 C   0  0  0  0  0  0  0  0  0  0  0  0
   57.1510   30.4070   44.3730 C   0  0  0  0  0  0  0  0  0  0  0  0
   56.5340   29.0600   44.4370 C   0  0  0  0  0  0  0  0  0  0  0  0
   55.2770   28.9990   44.5370 O   0  0  0  0  0  0  0  0  0  0  0  0
   57.3300   27.8420   44.4320 N   0  0  2  0  0  0  0  0  0  0  0  0
   57.0380   26.9400   45.5710 C   0  0  0  0  0  0  0  0  0  0  0  0
   57.5220   27.4690   46.9360 C   0  0  0  0  0  0  0  0  0  0  0  0
   58.8040   28.2570   46.8610 C   0  0  0  0  0  0  0  0  0  0  0  0
   59.4100   28.6820   48.0530 C   0  0  0  0  0  0  0  0  0  0  0  0
   60.5750   29.4540   48.0170 C   0  0  0  0  0  0  0  0  0  0  0  0
   61.1410   29.8090   46.7930 C   0  0  0  0  0  0  0  0  0  0  0  0
   60.5420   29.3970   45.6000 C   0  0  0  0  0  0  0  0  0  0  0  0
   59.3620   28.6350   45.6230 C   0  0  0  0  0  0  0  0  0  0  0  0
   58.7720   28.1390   44.3280 C   0  0  0  0  0  0  0  0  0  0  0  0
   57.5110   30.9860   45.5180 O   0  0  0  0  0  0  0  0  0  0  0  0
   58.0760   32.1880   45.5800 C   0  0  0  0  0  0  0  0  0  0  0  0
   58.4210   32.7280   46.8240 C   0  0  0  0  0  0  0  0  0  0  0  0
   58.9868   33.9192   49.0406 H   0  0  0  0  0  0  0  0  0  0  0  0
   60.4486   34.6913   48.3379 H   0  0  0  0  0  0  0  0  0  0  0  0
   58.8814   35.5690   48.3379 H   0  0  0  0  0  0  0  0  0  0  0  0
   59.7101   35.7249   45.7945 H   0  0  0  0  0  0  0  0  0  0  0  0
   59.1133   34.7699   43.5706 H   0  0  0  0  0  0  0  0  0  0  0  0
   57.0993   30.6049   42.2032 H   0  0  0  0  0  0  0  0  0  0  0  0
   57.0660   27.2900   43.5840 H   0  0  0  0  0  0  0  0  0  0  0  0
   55.9492   26.7930   45.6243 H   0  0  0  0  0  0  0  0  0  0  0  0
   57.5855   26.0048   45.3821 H   0  0  0  0  0  0  0  0  0  0  0  0
   56.7390   28.1189   47.3539 H   0  0  0  0  0  0  0  0  0  0  0  0
   57.7211   26.5912   47.5683 H   0  0  0  0  0  0  0  0  0  0  0  0
   58.9661   28.4063   49.0210 H   0  0  0  0  0  0  0  0  0  0  0  0
   61.0458   29.7819   48.9555 H   0  0  0  0  0  0  0  0  0  0  0  0
   62.0595   30.4137   46.7668 H   0  0  0  0  0  0  0  0  0  0  0  0
   60.9971   29.6709   44.6368 H   0  0  0  0  0  0  0  0  0  0  0  0
   58.9170   28.9107   43.5576 H   0  0  0  0  0  0  0  0  0  0  0  0
   59.2850   27.2012   44.0686 H   0  0  0  0  0  0  0  0  0  0  0  0
   58.2159   32.1588   47.7427 H   0  0  0  0  0  0  0  0  0  0  0  0
  1  2  1  0
  2  3  2  0
  3  4  1  0
  4  5  2  0
  5  6  1  0
  6  7  2  0
  6  8  1  0
  8  9  2  0
  9 10  1  0
 10 11  2  0
 10 12  1  0
 12 13  1  0
 13 14  1  0
 14 15  1  0
 15 16  2  0
 16 17  1  0
 17 18  2  0
 18 19  1  0
 19 20  2  0
 20 21  1  0
  9 22  1  0
 22 23  1  0
 23 24  2  0
 24  2  1  0
 23  5  1  0
 21 12  1  0
 20 15  1  0
  1 25  1  0
  1 26  1  0
  1 27  1  0
  3 28  1  0
  4 29  1  0
  8 30  1  0
 12 31  1  6
 13 32  1  0
 13 33  1  0
 14 34  1  0
 14 35  1  0
 16 36  1  0
 17 37  1  0
 18 38  1  0
 19 39  1  0
 21 40  1  0
 21 41  1  0
 24 42  1  0
M  CHG  1  12   1
M  END
>  <UniqueID>  (40) 
40

>  <SMILES>  (40) 
Cc1ccc2c(=O)cc(C(=O)[N@@H+]3CCc4ccccc4C3)oc2c1

>  <Energy>  (40) 
61.2117573069224

>  <Genealogy>  (40) 
Cc1ccc2c(=O)cc(C(=O)[NH+]3CCc4ccccc4C3)oc2c1 (protonated)
Cc1ccc2c(=O)cc(C(=O)[N@@H+]3CCc4ccccc4C3)oc2c1 (chirality)
Cc1ccc2c(=O)cc(C(=O)[N@@H+]3CCc4ccccc4C3)oc2c1 (3D coordinates assigned)
Cc1ccc2c(=O)cc(C(=O)[N@@H+]3CCc4ccccc4C3)oc2c1 (nonaromatic ring conformer: 61.2117573069224 kcal/mol)

>  <smiles>  (40) 
Cc1ccc2c(=O)cc(C(=O)N3CCc4ccccc4C3)oc2c1

>  <score_type>  (40) 
oracle

>  <origin>  (40) 
adg

>  <m_score__min__energy>  (40) 
-7.4199999999999999

>  <m_primary>  (40) 
energy

$$$$
40:0
     RDKit          3D

 54 57  0  0  0  0  0  0  0  0999 V2000
   62.5590   30.2880   50.9170 C   0  0  0  0  0  0  0  0  0  0  0  0
   61.1800   30.0300   50.7520 O   0  0  0  0  0  0  0  0  0  0  0  0
   60.5860   30.1900   49.5150 C   0  0  0  0  0  0  0  0  0  0  0  0
   60.7460   29.3120   48.4640 C   0  0  0  0  0  0  0  0  0  0  0  0
   60.1380   29.4960   47.2300 C   0  0  0  0  0  0  0  0  0  0  0  0
   59.3420   30.6180   47.0740 C   0  0  0  0  0  0  0  0  0  0  0  0
   59.1500   31.5290   48.0970 C   0  0  0  0  0  0  0  0  0  0  0  0
   58.2880   32.7230   47.8890 C   0  0  0  0  0  0  0  0  0  0  0  0
   58.3860   33.3010   46.6140 N   0  0  0  0  0  0  0  0  0  0  0  0
   57.3090   33.2340   45.7180 C   0  0  0  0  0  0  0  0  0  0  0  0
   57.2230   32.0320   44.8720 C   0  0  0  0  0  0  0  0  0  0  0  0
   58.1450   31.5830   43.9470 C   0  0  0  0  0  0  0  0  0  0  0  0
   57.6960   30.4330   43.3700 N   0  0  0  0  0  0  0  0  0  0  0  0
   56.5020   30.1800   43.9430 C   0  0  0  0  0  0  0  0  0  0  0  0
   56.2150   31.1370   44.8440 N   0  0  0  0  0  0  0  0  0  0  0  0
   59.7010   34.2780   46.2580 S   0  0  0  0  0  0  0  0  0  0  0  0
   59.2830   35.7200   46.4480 O   0  0  0  0  0  0  0  0  0  0  0  0
   60.2230   34.1960   44.8580 O   0  0  0  0  0  0  0  0  0  0  0  0
   61.0310   33.9890   47.3860 C   0  0  0  0  0  0  0  0  0  0  0  0
   62.1560   33.3210   46.9450 C   0  0  0  0  0  0  0  0  0  0  0  0
   63.2120   33.0850   47.8220 C   0  0  0  0  0  0  0  0  0  0  0  0
   63.1190   33.5230   49.1220 C   0  0  0  0  0  0  0  0  0  0  0  0
   64.2360   33.2620   50.0110 C   0  0  0  0  0  0  0  0  0  0  0  0
   65.1960   32.3380   49.6790 C   0  0  0  0  0  0  0  0  0  0  0  0
   66.2680   32.0640   50.4970 C   0  0  0  0  0  0  0  0  0  0  0  0
   66.4010   32.7300   51.6940 C   0  0  0  0  0  0  0  0  0  0  0  0
   65.4440   33.6580   52.0340 C   0  0  0  0  0  0  0  0  0  0  0  0
   64.3650   33.9400   51.2210 C   0  0  0  0  0  0  0  0  0  0  0  0
   62.0160   34.1850   49.5800 C   0  0  0  0  0  0  0  0  0  0  0  0
   60.9650   34.4180   48.7010 C   0  0  0  0  0  0  0  0  0  0  0  0
   59.7850   31.2920   49.3110 C   0  0  0  0  0  0  0  0  0  0  0  0
   62.7979   30.3327   51.9898 H   0  0  0  0  0  0  0  0  0  0  0  0
   63.1417   29.4833   50.4448 H   0  0  0  0  0  0  0  0  0  0  0  0
   62.8113   31.2489   50.4448 H   0  0  0  0  0  0  0  0  0  0  0  0
   61.3832   28.4273   48.6099 H   0  0  0  0  0  0  0  0  0  0  0  0
   60.2828   28.7789   46.4086 H   0  0  0  0  0  0  0  0  0  0  0  0
   58.8471   30.7903   46.1069 H   0  0  0  0  0  0  0  0  0  0  0  0
   57.2420   32.4229   48.0499 H   0  0  0  0  0  0  0  0  0  0  0  0
   58.6339   33.4847   48.6033 H   0  0  0  0  0  0  0  0  0  0  0  0
   56.3819   33.2934   46.3070 H   0  0  0  0  0  0  0  0  0  0  0  0
   57.4647   34.0681   45.0180 H   0  0  0  0  0  0  0  0  0  0  0  0
   59.0982   32.0789   43.7115 H   0  0  0  0  0  0  0  0  0  0  0  0
   58.1910   29.8710   42.6340 H   0  0  0  0  0  0  0  0  0  0  0  0
   55.8584   29.3193   43.7087 H   0  0  0  0  0  0  0  0  0  0  0  0
   62.2182   32.9757   45.9025 H   0  0  0  0  0  0  0  0  0  0  0  0
   64.1115   32.5535   47.4780 H   0  0  0  0  0  0  0  0  0  0  0  0
   65.1048   31.7976   48.7252 H   0  0  0  0  0  0  0  0  0  0  0  0
   67.0157   31.3156   50.1954 H   0  0  0  0  0  0  0  0  0  0  0  0
   67.2508   32.5255   52.3618 H   0  0  0  0  0  0  0  0  0  0  0  0
   65.5424   34.1950   52.9890 H   0  0  0  0  0  0  0  0  0  0  0  0
   63.6182   34.6887   51.5239 H   0  0  0  0  0  0  0  0  0  0  0  0
   61.9604   34.5271   50.6240 H   0  0  0  0  0  0  0  0  0  0  0  0
   60.0694   34.9499   49.0543 H   0  0  0  0  0  0  0  0  0  0  0  0
   59.6433   32.0072   50.1347 H   0  0  0  0  0  0  0  0  0  0  0  0
  1  2  1  0
  2  3  1  0
  3  4  2  0
  4  5  1  0
  5  6  2  0
  6  7  1  0
  7  8  1  0
  8  9  1  0
  9 10  1  0
 10 11  1  0
 11 12  2  0
 12 13  1  0
 13 14  1  0
 14 15  2  0
  9 16  1  0
 16 17  2  0
 16 18  2  0
 16 19  1  0
 19 20  2  0
 20 21  1  0
 21 22  2  0
 22 23  1  0
 23 24  2  0
 24 25  1  0
 25 26  2  0
 26 27  1  0
 27 28  2  0
 22 29  1  0
 29 30  2  0
  7 31  2  0
 31  3  1  0
 15 11  1  0
 30 19  1  0
 28 23  1  0
  1 32  1  0
  1 33  1  0
  1 34  1  0
  4 35  1  0
  5 36  1  0
  6 37  1  0
  8 38  1  0
  8 39  1  0
 10 40  1  0
 10 41  1  0
 12 42  1  0
 13 43  1  0
 14 44  1  0
 20 45  1  0
 21 46  1  0
 24 47  1  0
 25 48  1  0
 26 49  1  0
 27 50  1  0
 28 51  1  0
 29 52  1  0
 30 53  1  0
 31 54  1  0
M  END
>  <smiles>  (41) 
COc1cccc(CN(Cc2c[nH]cn2)S(=O)(=O)c2ccc(-c3ccccc3)cc2)c1

>  <score_type>  (41) 
oracle

>  <origin>  (41) 
adg

>  <m_score__min__energy>  (41) 
-8.8599999999999994

>  <m_primary>  (41) 
energy

$$$$
41:0
     RDKit          3D

 48 49  0  0  0  0  0  0  0  0999 V2000
   57.1370   33.4350   46.3630 C   0  0  0  0  0  0  0  0  0  0  0  0
   58.2750   32.8060   45.5260 C   0  0  0  0  0  0  0  0  0  0  0  0
   59.5080   33.7300   45.6400 C   0  0  0  0  0  0  0  0  0  0  0  0
   57.8050   32.7600   44.0550 C   0  0  0  0  0  0  0  0  0  0  0  0
   58.6550   31.3840   45.9890 C   0  0  0  0  0  0  0  0  0  0  0  0
   58.8310   30.3080   45.0890 C   0  0  0  0  0  0  0  0  0  0  0  0
   59.1720   29.0330   45.5490 C   0  0  0  0  0  0  0  0  0  0  0  0
   59.3470   28.7840   46.9200 C   0  0  0  0  0  0  0  0  0  0  0  0
   59.7020   27.4290   47.4300 C   0  0  0  0  0  0  0  0  0  0  0  0
   60.1900   27.3100   48.5870 O   0  0  0  0  0  0  0  0  0  0  0  0
   59.4790   26.1780   46.6230 C   0  0  0  0  0  0  0  0  0  0  0  0
   58.0940   25.7290   46.7430 N   0  0  0  0  0  0  0  0  0  0  0  0
   57.0890   26.0640   45.7730 C   0  0  0  0  0  0  0  0  0  0  0  0
   57.3780   26.8070   44.7960 O   0  0  0  0  0  0  0  0  0  0  0  0
   55.7180   25.5440   45.9010 C   0  0  0  0  0  0  0  0  0  0  0  0
   54.7510   26.3430   46.0170 O   0  0  0  0  0  0  0  0  0  0  0  0
   55.4930   24.1310   45.8410 N   0  0  0  0  0  0  0  0  0  0  0  0
   56.0910   23.2060   44.9160 C   0  0  0  0  0  0  0  0  0  0  0  0
   55.8000   23.2850   43.5400 C   0  0  0  0  0  0  0  0  0  0  0  0
   56.3510   22.3700   42.6430 C   0  0  0  0  0  0  0  0  0  0  0  0
   57.1850   21.3550   43.1050 C   0  0  0  0  0  0  0  0  0  0  0  0
   57.4650   21.2450   44.4680 C   0  0  0  0  0  0  0  0  0  0  0  0
   56.9220   22.1580   45.3920 C   0  0  0  0  0  0  0  0  0  0  0  0
   57.2530   21.9940   46.8340 C   0  0  0  0  0  0  0  0  0  0  0  0
   57.4250   20.8530   47.3390 O   0  0  0  0  0  0  0  0  0  0  0  0
   57.3700   23.1080   47.6560 O   0  0  0  0  0  0  0  0  0  0  0  0
   59.1800   29.8480   47.8200 C   0  0  0  0  0  0  0  0  0  0  0  0
   58.8390   31.1230   47.3630 C   0  0  0  0  0  0  0  0  0  0  0  0
   57.3585   33.3126   47.4335 H   0  0  0  0  0  0  0  0  0  0  0  0
   57.0560   34.5060   46.1254 H   0  0  0  0  0  0  0  0  0  0  0  0
   56.1870   32.9339   46.1254 H   0  0  0  0  0  0  0  0  0  0  0  0
   59.7394   33.9034   46.7013 H   0  0  0  0  0  0  0  0  0  0  0  0
   60.3698   33.2535   45.1499 H   0  0  0  0  0  0  0  0  0  0  0  0
   59.2926   34.6910   45.1499 H   0  0  0  0  0  0  0  0  0  0  0  0
   56.7107   32.6529   44.0229 H   0  0  0  0  0  0  0  0  0  0  0  0
   58.0973   33.6910   43.5474 H   0  0  0  0  0  0  0  0  0  0  0  0
   58.2723   31.9033   43.5474 H   0  0  0  0  0  0  0  0  0  0  0  0
   58.6975   30.4768   44.0103 H   0  0  0  0  0  0  0  0  0  0  0  0
   59.3051   28.2135   44.8274 H   0  0  0  0  0  0  0  0  0  0  0  0
   59.7016   26.3852   45.5659 H   0  0  0  0  0  0  0  0  0  0  0  0
   60.1424   25.3874   47.0036 H   0  0  0  0  0  0  0  0  0  0  0  0
   57.8300   25.1620   47.5810 H   0  0  0  0  0  0  0  0  0  0  0  0
   55.1316   24.0761   43.1693 H   0  0  0  0  0  0  0  0  0  0  0  0
   56.1265   22.4503   41.5692 H   0  0  0  0  0  0  0  0  0  0  0  0
   57.6238   20.6388   42.3947 H   0  0  0  0  0  0  0  0  0  0  0  0
   58.1181   20.4349   44.8247 H   0  0  0  0  0  0  0  0  0  0  0  0
   59.3193   29.6758   48.8975 H   0  0  0  0  0  0  0  0  0  0  0  0
   58.7114   31.9397   48.0888 H   0  0  0  0  0  0  0  0  0  0  0  0
  1  2  1  0
  2  3  1  0
  2  4  1  0
  2  5  1  0
  5  6  2  0
  6  7  1  0
  7  8  2  0
  8  9  1  0
  9 10  2  0
  9 11  1  0
 11 12  1  0
 12 13  1  0
 13 14  2  0
 13 15  1  0
 15 16  2  0
 15 17  1  0
 17 18  1  0
 18 19  2  0
 19 20  1  0
 20 21  2  0
 21 22  1  0
 22 23  2  0
 23 24  1  0
 24 25  2  0
 24 26  1  0
  8 27  1  0
 27 28  2  0
 28  5  1  0
 23 18  1  0
  1 29  1  0
  1 30  1  0
  1 31  1  0
  3 32  1  0
  3 33  1  0
  3 34  1  0
  4 35  1  0
  4 36  1  0
  4 37  1  0
  6 38  1  0
  7 39  1  0
 11 40  1  0
 11 41  1  0
 12 42  1  0
 19 43  1  0
 20 44  1  0
 21 45  1  0
 22 46  1  0
 27 47  1  0
 28 48  1  0
M  CHG  2  17  -1  26  -1
M  END
>  <UniqueID>  (42) 
41

>  <SMILES>  (42) 
CC(C)(C)c1ccc(C(=O)CNC(=O)C(=O)[N-]c2ccccc2C(=O)[O-])cc1

>  <Energy>  (42) 
53.84089266874928

>  <Genealogy>  (42) 
CC(C)(C)c1ccc(C(=O)CNC(=O)C(=O)[N-]c2ccccc2C(=O)[O-])cc1 (protonated)
CC(C)(C)c1ccc(C(=O)CNC(=O)C(=O)[N-]c2ccccc2C(=O)[O-])cc1 (3D coordinates assigned)
CC(C)(C)c1ccc(C(=O)CNC(=O)C(=O)[N-]c2ccccc2C(=O)[O-])cc1 (optimized conformer: 53.84089266874928 kcal/mol)

>  <smiles>  (42) 
CC(C)(C)c1ccc(C(=O)CNC(=O)C(=O)Nc2ccccc2C(=O)O)cc1

>  <score_type>  (42) 
oracle

>  <origin>  (42) 
adg

>  <m_score__min__energy>  (42) 
-14.289999999999999

>  <m_primary>  (42) 
energy

$$$$
42:0
     RDKit          3D

 58 61  0  0  0  0  0  0  0  0999 V2000
   63.4330   34.0290   51.2400 C   0  0  0  0  0  0  0  0  0  0  0  0
   63.5920   34.2180   49.8360 O   0  0  0  0  0  0  0  0  0  0  0  0
   62.5550   34.0970   48.9000 C   0  0  0  0  0  0  0  0  0  0  0  0
   61.2340   34.2300   49.3480 C   0  0  0  0  0  0  0  0  0  0  0  0
   60.1670   34.1200   48.4530 C   0  0  0  0  0  0  0  0  0  0  0  0
   60.4010   33.8820   47.0870 C   0  0  0  0  0  0  0  0  0  0  0  0
   59.2250   33.7040   46.1470 C   0  0  1  0  0  0  0  0  0  0  0  0
   59.3070   34.6220   44.9230 C   0  0  0  0  0  0  0  0  0  0  0  0
   59.1530   32.3060   45.7220 N   0  0  0  0  0  0  0  0  0  0  0  0
   57.9060   31.6150   45.5820 C   0  0  0  0  0  0  0  0  0  0  0  0
   56.8730   32.2490   45.2320 O   0  0  0  0  0  0  0  0  0  0  0  0
   57.8070   30.1660   45.8210 C   0  0  0  0  0  0  0  0  0  0  0  0
   58.3610   29.5790   46.8670 O   0  0  0  0  0  0  0  0  0  0  0  0
   58.1200   28.2930   46.7820 C   0  0  0  0  0  0  0  0  0  0  0  0
   58.5250   27.2960   47.6660 C   0  0  0  0  0  0  0  0  0  0  0  0
   58.1750   25.9690   47.3660 C   0  0  0  0  0  0  0  0  0  0  0  0
   57.4270   25.6660   46.2010 C   0  0  0  0  0  0  0  0  0  0  0  0
   57.0130   23.9940   45.8220 S   0  0  0  0  0  0  0  0  0  0  0  0
   57.4370   23.1220   46.9700 O   0  0  0  0  0  0  0  0  0  0  0  0
   55.5200   23.8740   45.6840 O   0  0  0  0  0  0  0  0  0  0  0  0
   57.7770   23.4230   44.3530 N   0  0  0  0  0  0  0  0  0  0  0  0
   56.9680   23.6930   43.1450 C   0  0  0  0  0  0  0  0  0  0  0  0
   56.2310   22.4480   42.6280 C   0  0  0  0  0  0  0  0  0  0  0  0
   55.9160   21.5870   43.6970 O   0  0  0  0  0  0  0  0  0  0  0  0
   57.0990   21.0010   44.2040 C   0  0  0  0  0  0  0  0  0  0  0  0
   58.2300   22.0240   44.4590 C   0  0  0  0  0  0  0  0  0  0  0  0
   57.0300   26.7030   45.3300 C   0  0  0  0  0  0  0  0  0  0  0  0
   57.3950   28.0090   45.6580 C   0  0  0  0  0  0  0  0  0  0  0  0
   57.1860   29.2090   45.0070 C   0  0  0  0  0  0  0  0  0  0  0  0
   56.4700   29.4140   43.7050 C   0  0  0  0  0  0  0  0  0  0  0  0
   61.7270   33.7240   46.6430 C   0  0  0  0  0  0  0  0  0  0  0  0
   62.7940   33.8420   47.5370 C   0  0  0  0  0  0  0  0  0  0  0  0
   64.0496   34.7620   51.7808 H   0  0  0  0  0  0  0  0  0  0  0  0
   62.3760   34.1678   51.5113 H   0  0  0  0  0  0  0  0  0  0  0  0
   63.7506   33.0114   51.5113 H   0  0  0  0  0  0  0  0  0  0  0  0
   61.0356   34.4225   50.4127 H   0  0  0  0  0  0  0  0  0  0  0  0
   59.1349   34.2204   48.8200 H   0  0  0  0  0  0  0  0  0  0  0  0
   58.3134   33.9834   46.6955 H   0  0  0  0  0  0  0  0  0  0  0  0
   59.4003   35.6669   45.2539 H   0  0  0  0  0  0  0  0  0  0  0  0
   60.1844   34.3492   44.3182 H   0  0  0  0  0  0  0  0  0  0  0  0
   58.3952   34.5090   44.3182 H   0  0  0  0  0  0  0  0  0  0  0  0
   60.0370   31.8000   45.4920 H   0  0  0  0  0  0  0  0  0  0  0  0
   59.1010   27.5400   48.5709 H   0  0  0  0  0  0  0  0  0  0  0  0
   58.4843   25.1577   48.0414 H   0  0  0  0  0  0  0  0  0  0  0  0
   56.2239   24.4662   43.3866 H   0  0  0  0  0  0  0  0  0  0  0  0
   57.6572   24.0211   42.3529 H   0  0  0  0  0  0  0  0  0  0  0  0
   55.3025   22.7582   42.1263 H   0  0  0  0  0  0  0  0  0  0  0  0
   56.8824   21.9152   41.9196 H   0  0  0  0  0  0  0  0  0  0  0  0
   56.8608   20.5004   45.1541 H   0  0  0  0  0  0  0  0  0  0  0  0
   57.4643   20.2958   43.4429 H   0  0  0  0  0  0  0  0  0  0  0  0
   58.6287   21.8605   45.4711 H   0  0  0  0  0  0  0  0  0  0  0  0
   58.9959   21.8670   43.6852 H   0  0  0  0  0  0  0  0  0  0  0  0
   56.4504   26.4881   44.4201 H   0  0  0  0  0  0  0  0  0  0  0  0
   55.4295   29.7119   43.9017 H   0  0  0  0  0  0  0  0  0  0  0  0
   56.9749   30.2037   43.1293 H   0  0  0  0  0  0  0  0  0  0  0  0
   56.4805   28.4768   43.1293 H   0  0  0  0  0  0  0  0  0  0  0  0
   61.9250   33.5058   45.5832 H   0  0  0  0  0  0  0  0  0  0  0  0
   63.8266   33.7350   47.1734 H   0  0  0  0  0  0  0  0  0  0  0  0
  1  2  1  0
  2  3  1  0
  3  4  2  0
  4  5  1  0
  5  6  2  0
  6  7  1  0
  7  8  1  0
  7  9  1  0
  9 10  1  0
 10 11  2  0
 10 12  1  0
 12 13  1  0
 13 14  1  0
 14 15  2  0
 15 16  1  0
 16 17  2  0
 17 18  1  0
 18 19  2  0
 18 20  2  0
 18 21  1  0
 21 22  1  0
 22 23  1  0
 23 24  1  0
 24 25  1  0
 25 26  1  0
 17 27  1  0
 27 28  2  0
 28 29  1  0
 29 30  1  0
  6 31  1  0
 31 32  2  0
 32  3  1  0
 29 12  2  0
 28 14  1  0
 26 21  1  0
  1 33  1  0
  1 34  1  0
  1 35  1  0
  4 36  1  0
  5 37  1  0
  7 38  1  1
  8 39  1  0
  8 40  1  0
  8 41  1  0
  9 42  1  0
 15 43  1  0
 16 44  1  0
 22 45  1  0
 22 46  1  0
 23 47  1  0
 23 48  1  0
 25 49  1  0
 25 50  1  0
 26 51  1  0
 26 52  1  0
 27 53  1  0
 30 54  1  0
 30 55  1  0
 30 56  1  0
 31 57  1  0
 32 58  1  0
M  END
>  <UniqueID>  (43) 
42

>  <SMILES>  (43) 
COc1ccc([C@@H](C)NC(=O)c2oc3ccc(S(=O)(=O)N4CCOCC4)cc3c2C)cc1

>  <Energy>  (43) 
104.02281585868623

>  <Genealogy>  (43) 
COc1ccc([C@@H](C)NC(=O)c2oc3ccc(S(=O)(=O)N4CCOCC4)cc3c2C)cc1 (chirality)
COc1ccc([C@@H](C)NC(=O)c2oc3ccc(S(=O)(=O)N4CCOCC4)cc3c2C)cc1 (3D coordinates assigned)
COc1ccc([C@@H](C)NC(=O)c2oc3ccc(S(=O)(=O)N4CCOCC4)cc3c2C)cc1 (nonaromatic ring conformer: 104.02281585868623 kcal/mol)

>  <smiles>  (43) 
COc1ccc(C(C)NC(=O)c2oc3ccc(S(=O)(=O)N4CCOCC4)cc3c2C)cc1

>  <score_type>  (43) 
oracle

>  <origin>  (43) 
adg

>  <m_score__min__energy>  (43) 
-9.4399999999999995

>  <m_primary>  (43) 
energy

$$$$
43:0
     RDKit          3D

 44 46  0  0  0  0  0  0  0  0999 V2000
   59.4930   27.9700   47.1610 C   0  0  0  0  0  0  0  0  0  0  0  0
   58.8250   28.7050   46.2580 C   0  0  0  0  0  0  0  0  0  0  0  0
   58.0380   28.2270   45.1950 C   0  0  0  0  0  0  0  0  0  0  0  0
   57.6410   26.9810   44.8700 C   0  0  0  0  0  0  0  0  0  0  0  0
   57.1350   25.9660   45.8050 C   0  0  0  0  0  0  0  0  0  0  0  0
   57.8460   24.8950   46.1970 N   0  0  0  0  0  0  0  0  0  0  0  0
   56.9600   24.1820   46.9250 C   0  0  0  0  0  0  0  0  0  0  0  0
   57.2620   23.0980   47.4880 O   0  0  0  0  0  0  0  0  0  0  0  0
   55.7220   24.7170   46.9950 N   0  0  0  0  0  0  0  0  0  0  0  0
   55.8450   25.8380   46.2670 C   0  0  0  0  0  0  0  0  0  0  0  0
   54.7950   26.7110   46.0100 O   0  0  0  0  0  0  0  0  0  0  0  0
   57.6650   29.3380   44.4610 C   0  0  0  0  0  0  0  0  0  0  0  0
   58.1900   30.4390   45.1000 C   0  0  0  0  0  0  0  0  0  0  0  0
   57.9440   31.8550   44.6730 C   0  0  0  0  0  0  0  0  0  0  0  0
   58.8950   30.0630   46.1930 N   0  0  0  0  0  0  0  0  0  0  0  0
   59.6410   30.9680   47.0870 C   0  0  0  0  0  0  0  0  0  0  0  0
   58.9330   31.1680   48.4360 C   0  0  0  0  0  0  0  0  0  0  0  0
   58.8350   32.6110   48.8230 C   0  0  0  0  0  0  0  0  0  0  0  0
   58.8480   32.9390   50.0410 O   0  0  0  0  0  0  0  0  0  0  0  0
   58.7310   33.6090   47.8010 N   0  0  0  0  0  0  0  0  0  0  0  0
   59.6630   34.7190   47.6530 C   0  0  0  0  0  0  0  0  0  0  0  0
   61.0730   34.2290   47.7800 C   0  0  0  0  0  0  0  0  0  0  0  0
   61.7140   34.1910   49.0280 C   0  0  0  0  0  0  0  0  0  0  0  0
   63.0340   33.7450   49.1050 C   0  0  0  0  0  0  0  0  0  0  0  0
   63.7030   33.3470   47.9470 C   0  0  0  0  0  0  0  0  0  0  0  0
   63.0370   33.4060   46.7190 C   0  0  0  0  0  0  0  0  0  0  0  0
   61.7520   33.8450   46.6640 N   0  0  0  0  0  0  0  0  0  0  0  0
   60.0773   28.4660   47.9501 H   0  0  0  0  0  0  0  0  0  0  0  0
   59.4561   26.8717   47.1119 H   0  0  0  0  0  0  0  0  0  0  0  0
   57.7010   26.6978   43.8088 H   0  0  0  0  0  0  0  0  0  0  0  0
   57.0627   29.3416   43.5406 H   0  0  0  0  0  0  0  0  0  0  0  0
   57.8333   32.4923   45.5627 H   0  0  0  0  0  0  0  0  0  0  0  0
   58.7940   32.2095   44.0715 H   0  0  0  0  0  0  0  0  0  0  0  0
   57.0242   31.9021   44.0715 H   0  0  0  0  0  0  0  0  0  0  0  0
   60.6382   30.5414   47.2705 H   0  0  0  0  0  0  0  0  0  0  0  0
   59.7087   31.9487   46.5934 H   0  0  0  0  0  0  0  0  0  0  0  0
   57.9173   30.7515   48.3666 H   0  0  0  0  0  0  0  0  0  0  0  0
   59.5284   30.6550   49.2056 H   0  0  0  0  0  0  0  0  0  0  0  0
   59.5258   35.1796   46.6635 H   0  0  0  0  0  0  0  0  0  0  0  0
   59.4675   35.4603   48.4418 H   0  0  0  0  0  0  0  0  0  0  0  0
   61.1813   34.5095   49.9362 H   0  0  0  0  0  0  0  0  0  0  0  0
   63.5466   33.7072   50.0775 H   0  0  0  0  0  0  0  0  0  0  0  0
   64.7424   32.9909   47.9996 H   0  0  0  0  0  0  0  0  0  0  0  0
   63.5529   33.0972   45.7979 H   0  0  0  0  0  0  0  0  0  0  0  0
  1  2  2  0
  2  3  1  0
  3  4  2  3
  4  5  1  0
  5  6  1  0
  6  7  1  0
  7  8  2  0
  7  9  1  0
  9 10  1  0
 10 11  1  0
  3 12  1  0
 12 13  2  0
 13 14  1  0
 13 15  1  0
 15 16  1  0
 16 17  1  0
 17 18  1  0
 18 19  2  0
 18 20  1  0
 20 21  1  0
 21 22  1  0
 22 23  2  0
 23 24  1  0
 24 25  2  0
 25 26  1  0
 26 27  2  0
 15  2  1  0
 27 22  1  0
 10  5  2  0
  1 28  1  0
  1 29  1  0
  4 30  1  0
 12 31  1  0
 14 32  1  0
 14 33  1  0
 14 34  1  0
 16 35  1  0
 16 36  1  0
 17 37  1  0
 17 38  1  0
 21 39  1  0
 21 40  1  0
 23 41  1  0
 24 42  1  0
 25 43  1  0
 26 44  1  0
M  CHG  4   6  -1   9  -1  11  -1  20  -1
M  END
>  <UniqueID>  (44) 
43

>  <SMILES>  (44) 
C=c1c(=Cc2[n-]c(=O)[n-]c2[O-])cc(C)n1CCC(=O)[N-]Cc1ccccn1

>  <Energy>  (44) 
106.48261163775875

>  <Genealogy>  (44) 
C=c1c(=Cc2[n-]c(=O)[n-]c2[O-])cc(C)n1CCC(=O)[N-]Cc1ccccn1 (protonated)
C=c1c(=Cc2[n-]c(=O)[n-]c2[O-])cc(C)n1CCC(=O)[N-]Cc1ccccn1 (3D coordinates assigned)
C=c1c(=Cc2[n-]c(=O)[n-]c2[O-])cc(C)n1CCC(=O)[N-]Cc1ccccn1 (optimized conformer: 106.48261163775875 kcal/mol)

>  <smiles>  (44) 
C=c1c(=Cc2[nH]c(=O)[nH]c2O)cc(C)n1CCC(=O)NCc1ccccn1

>  <score_type>  (44) 
oracle

>  <origin>  (44) 
adg

>  <m_score__min__energy>  (44) 
-17.079999999999998

>  <m_primary>  (44) 
energy

$$$$
44:0
     RDKit          3D

 59 62  0  0  0  0  0  0  0  0999 V2000
   59.5480   33.8430   51.4040 C   0  0  0  0  0  0  0  0  0  0  0  0
   60.5350   32.7590   51.4960 N   0  0  0  0  0  0  0  0  0  0  0  0
   61.8030   32.9910   52.2100 C   0  0  0  0  0  0  0  0  0  0  0  0
   62.9770   33.1610   51.2340 C   0  0  0  0  0  0  0  0  0  0  0  0
   63.0640   34.5690   50.6100 C   0  0  0  0  0  0  0  0  0  0  0  0
   62.9180   34.5070   49.1910 O   0  0  0  0  0  0  0  0  0  0  0  0
   61.9980   33.7030   48.4980 C   0  0  0  0  0  0  0  0  0  0  0  0
   62.4150   32.4350   48.0770 C   0  0  0  0  0  0  0  0  0  0  0  0
   61.5370   31.5870   47.3980 C   0  0  0  0  0  0  0  0  0  0  0  0
   60.2310   32.0040   47.1040 C   0  0  0  0  0  0  0  0  0  0  0  0
   59.8100   33.2810   47.5150 C   0  0  0  0  0  0  0  0  0  0  0  0
   60.6880   34.1250   48.2030 C   0  0  0  0  0  0  0  0  0  0  0  0
   58.4920   33.7340   47.2110 N   0  0  0  0  0  0  0  0  0  0  0  0
   57.6390   32.9620   46.3740 C   0  0  0  0  0  0  0  0  0  0  0  0
   56.4980   33.4080   46.0770 O   0  0  0  0  0  0  0  0  0  0  0  0
   58.1000   31.7020   45.8510 N   0  0  0  0  0  0  0  0  0  0  0  0
   57.2820   30.9480   44.8910 C   0  0  0  0  0  0  0  0  0  0  0  0
   57.7430   29.5180   44.8140 C   0  0  0  0  0  0  0  0  0  0  0  0
   58.9800   29.2040   44.2300 C   0  0  0  0  0  0  0  0  0  0  0  0
   59.4290   27.8800   44.1960 C   0  0  0  0  0  0  0  0  0  0  0  0
   58.6490   26.8620   44.7500 C   0  0  0  0  0  0  0  0  0  0  0  0
   57.4140   27.1620   45.3370 C   0  0  0  0  0  0  0  0  0  0  0  0
   56.4400   25.8840   46.0590 S   0  0  0  0  0  0  0  0  0  0  0  0
   54.7730   26.3370   46.0010 N   0  0  0  0  0  0  0  0  0  0  0  0
   56.8530   25.6710   47.4880 O   0  0  0  0  0  0  0  0  0  0  0  0
   56.6410   24.6030   45.3000 O   0  0  0  0  0  0  0  0  0  0  0  0
   56.9670   28.4890   45.3750 C   0  0  0  0  0  0  0  0  0  0  0  0
   59.2670   31.0380   46.4570 C   0  0  0  0  0  0  0  0  0  0  0  0
   60.3120   31.5010   50.8100 C   0  0  0  0  0  0  0  0  0  0  0  0
   59.0620   31.1800   50.2420 C   0  0  0  0  0  0  0  0  0  0  0  0
   58.8960   29.9580   49.5880 C   0  0  0  0  0  0  0  0  0  0  0  0
   59.9600   29.0630   49.4980 C   0  0  0  0  0  0  0  0  0  0  0  0
   61.1860   29.4060   50.0700 C   0  0  0  0  0  0  0  0  0  0  0  0
   61.3310   30.6000   50.7040 N   0  0  0  0  0  0  0  0  0  0  0  0
   59.2579   34.1616   52.4161 H   0  0  0  0  0  0  0  0  0  0  0  0
   59.9876   34.6942   50.8635 H   0  0  0  0  0  0  0  0  0  0  0  0
   58.6594   33.4849   50.8635 H   0  0  0  0  0  0  0  0  0  0  0  0
   61.7090   33.9029   52.8180 H   0  0  0  0  0  0  0  0  0  0  0  0
   62.0063   32.1158   52.8446 H   0  0  0  0  0  0  0  0  0  0  0  0
   63.9125   32.9635   51.7779 H   0  0  0  0  0  0  0  0  0  0  0  0
   62.8147   32.4524   50.4085 H   0  0  0  0  0  0  0  0  0  0  0  0
   62.2639   35.1980   51.0273 H   0  0  0  0  0  0  0  0  0  0  0  0
   64.0501   34.9968   50.8436 H   0  0  0  0  0  0  0  0  0  0  0  0
   63.4434   32.1033   48.2827 H   0  0  0  0  0  0  0  0  0  0  0  0
   61.8725   30.5851   47.0918 H   0  0  0  0  0  0  0  0  0  0  0  0
   60.3526   35.1249   48.5155 H   0  0  0  0  0  0  0  0  0  0  0  0
   56.2307   30.9724   45.2137 H   0  0  0  0  0  0  0  0  0  0  0  0
   57.3848   31.4087   43.8974 H   0  0  0  0  0  0  0  0  0  0  0  0
   59.5994   30.0033   43.7969 H   0  0  0  0  0  0  0  0  0  0  0  0
   60.3973   27.6399   43.7326 H   0  0  0  0  0  0  0  0  0  0  0  0
   59.0062   25.8219   44.7249 H   0  0  0  0  0  0  0  0  0  0  0  0
   54.6350   27.0830   46.7210 H   0  0  0  0  0  0  0  0  0  0  0  0
   56.0024   28.7273   45.8469 H   0  0  0  0  0  0  0  0  0  0  0  0
   58.9100   30.3342   47.2233 H   0  0  0  0  0  0  0  0  0  0  0  0
   59.8095   30.5272   45.6478 H   0  0  0  0  0  0  0  0  0  0  0  0
   58.2231   31.8879   50.3138 H   0  0  0  0  0  0  0  0  0  0  0  0
   57.9234   29.7012   49.1429 H   0  0  0  0  0  0  0  0  0  0  0  0
   59.8354   28.0990   48.9830 H   0  0  0  0  0  0  0  0  0  0  0  0
   62.0355   28.7099   50.0079 H   0  0  0  0  0  0  0  0  0  0  0  0
  1  2  1  0
  2  3  1  0
  3  4  1  0
  4  5  1  0
  5  6  1  0
  6  7  1  0
  7  8  2  0
  8  9  1  0
  9 10  2  0
 10 11  1  0
 11 12  2  0
 11 13  1  0
 13 14  1  0
 14 15  2  0
 14 16  1  0
 16 17  1  0
 17 18  1  0
 18 19  2  0
 19 20  1  0
 20 21  2  0
 21 22  1  0
 22 23  1  0
 23 24  1  0
 23 25  2  0
 23 26  2  0
 22 27  2  0
 16 28  1  0
  2 29  1  0
 29 30  2  0
 30 31  1  0
 31 32  2  0
 32 33  1  0
 33 34  2  0
 12  7  1  0
 27 18  1  0
 34 29  1  0
 28 10  1  0
  1 35  1  0
  1 36  1  0
  1 37  1  0
  3 38  1  0
  3 39  1  0
  4 40  1  0
  4 41  1  0
  5 42  1  0
  5 43  1  0
  8 44  1  0
  9 45  1  0
 12 46  1  0
 17 47  1  0
 17 48  1  0
 19 49  1  0
 20 50  1  0
 21 51  1  0
 24 52  1  0
 27 53  1  0
 28 54  1  0
 28 55  1  0
 30 56  1  0
 31 57  1  0
 32 58  1  0
 33 59  1  0
M  CHG  2  13  -1  24  -1
M  END
>  <UniqueID>  (45) 
44

>  <SMILES>  (45) 
CN(CCCOc1ccc2c(c1)[N-]C(=O)N(Cc1cccc(S([NH-])(=O)=O)c1)C2)c1ccccn1

>  <Energy>  (45) 
63.69866294074576

>  <Genealogy>  (45) 
CN(CCCOc1ccc2c(c1)[N-]C(=O)N(Cc1cccc(S([NH-])(=O)=O)c1)C2)c1ccccn1 (protonated)
CN(CCCOc1ccc2c(c1)[N-]C(=O)N(Cc1cccc(S([NH-])(=O)=O)c1)C2)c1ccccn1 (3D coordinates assigned)
CN(CCCOc1ccc2c(c1)[N-]C(=O)N(Cc1cccc(S([NH-])(=O)=O)c1)C2)c1ccccn1 (nonaromatic ring conformer: 63.69866294074576 kcal/mol)

>  <smiles>  (45) 
CN(CCCOc1ccc2c(c1)NC(=O)N(Cc1cccc(S(N)(=O)=O)c1)C2)c1ccccn1

>  <score_type>  (45) 
oracle

>  <origin>  (45) 
adg

>  <m_score__min__energy>  (45) 
-13.51

>  <m_primary>  (45) 
energy

$$$$
45:0
     RDKit          3D

 50 53  0  0  0  0  0  0  0  0999 V2000
   55.1560   26.7170   45.9910 N   0  0  0  0  0  0  0  0  0  0  0  0
   56.2800   25.9610   46.4410 C   0  0  0  0  0  0  0  0  0  0  0  0
   56.1050   24.7610   46.7830 O   0  0  0  0  0  0  0  0  0  0  0  0
   57.6430   26.5600   46.4950 C   0  0  0  0  0  0  0  0  0  0  0  0
   58.5480   26.1060   47.4750 C   0  0  0  0  0  0  0  0  0  0  0  0
   59.8400   26.6270   47.5530 C   0  0  0  0  0  0  0  0  0  0  0  0
   60.2500   27.6100   46.6570 C   0  0  0  0  0  0  0  0  0  0  0  0
   59.3710   28.0800   45.6820 C   0  0  0  0  0  0  0  0  0  0  0  0
   58.0610   27.5660   45.5860 C   0  0  0  0  0  0  0  0  0  0  0  0
   57.1590   28.0410   44.6170 O   0  0  0  0  0  0  0  0  0  0  0  0
   56.2800   29.1570   44.7720 C   0  0  0  0  0  0  0  0  0  0  0  0
   57.0620   30.4330   44.9360 C   0  0  0  0  0  0  0  0  0  0  0  0
   57.7700   30.6750   46.1230 C   0  0  0  0  0  0  0  0  0  0  0  0
   58.4990   31.8580   46.2820 C   0  0  0  0  0  0  0  0  0  0  0  0
   58.5330   32.8170   45.2550 C   0  0  0  0  0  0  0  0  0  0  0  0
   59.3060   34.0710   45.4170 C   0  0  0  0  0  0  0  0  0  0  0  0
   59.1620   35.0010   44.5770 O   0  0  0  0  0  0  0  0  0  0  0  0
   60.2260   34.2440   46.5100 N   0  0  0  0  0  0  0  0  0  0  0  0
   61.6210   33.8130   46.3920 C   0  0  0  0  0  0  0  0  0  0  0  0
   61.8110   32.5160   47.1760 C   0  0  0  0  0  0  0  0  0  0  0  0
   61.1830   32.5830   48.5500 C   0  0  0  0  0  0  0  0  0  0  0  0
   61.5660   31.6430   49.5200 C   0  0  0  0  0  0  0  0  0  0  0  0
   60.9640   31.6400   50.7800 C   0  0  0  0  0  0  0  0  0  0  0  0
   59.9670   32.5690   51.0820 C   0  0  0  0  0  0  0  0  0  0  0  0
   59.5660   33.5020   50.1230 C   0  0  0  0  0  0  0  0  0  0  0  0
   60.1530   33.5090   48.8480 C   0  0  0  0  0  0  0  0  0  0  0  0
   59.7370   34.5660   47.8540 C   0  0  0  0  0  0  0  0  0  0  0  0
   57.8460   32.5570   44.0550 C   0  0  0  0  0  0  0  0  0  0  0  0
   57.1180   31.3740   43.8970 C   0  0  0  0  0  0  0  0  0  0  0  0
   55.1620   27.1820   45.0570 H   0  0  0  0  0  0  0  0  0  0  0  0
   58.2317   25.3305   48.1881 H   0  0  0  0  0  0  0  0  0  0  0  0
   60.5349   26.2607   48.3230 H   0  0  0  0  0  0  0  0  0  0  0  0
   61.2700   28.0171   46.7182 H   0  0  0  0  0  0  0  0  0  0  0  0
   59.7026   28.8597   44.9805 H   0  0  0  0  0  0  0  0  0  0  0  0
   55.6394   29.2382   43.8815 H   0  0  0  0  0  0  0  0  0  0  0  0
   55.6662   29.0009   45.6714 H   0  0  0  0  0  0  0  0  0  0  0  0
   57.7516   29.9305   46.9326 H   0  0  0  0  0  0  0  0  0  0  0  0
   59.0494   32.0391   47.2170 H   0  0  0  0  0  0  0  0  0  0  0  0
   61.8657   33.6427   45.3332 H   0  0  0  0  0  0  0  0  0  0  0  0
   62.2850   34.5913   46.7963 H   0  0  0  0  0  0  0  0  0  0  0  0
   61.3478   31.6913   46.6144 H   0  0  0  0  0  0  0  0  0  0  0  0
   62.8913   32.3544   47.3055 H   0  0  0  0  0  0  0  0  0  0  0  0
   62.3459   30.9035   49.2857 H   0  0  0  0  0  0  0  0  0  0  0  0
   61.2760   30.9042   51.5358 H   0  0  0  0  0  0  0  0  0  0  0  0
   59.4966   32.5664   52.0763 H   0  0  0  0  0  0  0  0  0  0  0  0
   58.7848   34.2364   50.3686 H   0  0  0  0  0  0  0  0  0  0  0  0
   58.6389   34.6273   47.8323 H   0  0  0  0  0  0  0  0  0  0  0  0
   60.1703   35.5285   48.1636 H   0  0  0  0  0  0  0  0  0  0  0  0
   57.8820   33.2897   43.2353 H   0  0  0  0  0  0  0  0  0  0  0  0
   56.5866   31.1801   42.9536 H   0  0  0  0  0  0  0  0  0  0  0  0
  1  2  1  0
  2  3  2  0
  2  4  1  0
  4  5  2  0
  5  6  1  0
  6  7  2  0
  7  8  1  0
  8  9  2  0
  9 10  1  0
 10 11  1  0
 11 12  1  0
 12 13  2  0
 13 14  1  0
 14 15  2  0
 15 16  1  0
 16 17  2  0
 16 18  1  0
 18 19  1  0
 19 20  1  0
 20 21  1  0
 21 22  2  0
 22 23  1  0
 23 24  2  0
 24 25  1  0
 25 26  2  0
 26 27  1  0
 15 28  1  0
 28 29  2  0
  9  4  1  0
 29 12  1  0
 27 18  1  0
 26 21  1  0
  1 30  1  0
  5 31  1  0
  6 32  1  0
  7 33  1  0
  8 34  1  0
 11 35  1  0
 11 36  1  0
 13 37  1  0
 14 38  1  0
 19 39  1  0
 19 40  1  0
 20 41  1  0
 20 42  1  0
 22 43  1  0
 23 44  1  0
 24 45  1  0
 25 46  1  0
 27 47  1  0
 27 48  1  0
 28 49  1  0
 29 50  1  0
M  CHG  1   1  -1
M  END
>  <UniqueID>  (46) 
45

>  <SMILES>  (46) 
[NH-]C(=O)c1ccccc1OCc1ccc(C(=O)N2CCc3ccccc3C2)cc1

>  <Energy>  (46) 
63.640796826390236

>  <Genealogy>  (46) 
[NH-]C(=O)c1ccccc1OCc1ccc(C(=O)N2CCc3ccccc3C2)cc1 (protonated)
[NH-]C(=O)c1ccccc1OCc1ccc(C(=O)N2CCc3ccccc3C2)cc1 (3D coordinates assigned)
[NH-]C(=O)c1ccccc1OCc1ccc(C(=O)N2CCc3ccccc3C2)cc1 (nonaromatic ring conformer: 63.640796826390236 kcal/mol)

>  <smiles>  (46) 
NC(=O)c1ccccc1OCc1ccc(C(=O)N2CCc3ccccc3C2)cc1

>  <score_type>  (46) 
oracle

>  <origin>  (46) 
adg

>  <m_score__min__energy>  (46) 
-12.84

>  <m_primary>  (46) 
energy

$$$$
46:0
     RDKit          3D

 39 41  0  0  0  0  0  0  0  0999 V2000
   55.1560   28.9990   45.5240 H   0  0  0  0  0  0  0  0  0  0  0  0
   55.1860   29.3230   44.5320 N   0  0  0  0  0  0  0  0  0  0  0  0
   56.8330   29.7060   44.1750 S   0  0  0  0  0  0  0  0  0  0  0  0
   57.5690   28.4500   43.8030 O   0  0  0  0  0  0  0  0  0  0  0  0
   56.8870   30.6600   43.0140 O   0  0  0  0  0  0  0  0  0  0  0  0
   57.5840   30.4420   45.5870 C   0  0  0  0  0  0  0  0  0  0  0  0
   57.8150   31.8350   45.6180 C   0  0  0  0  0  0  0  0  0  0  0  0
   57.5311   32.4537   44.7539 H   0  0  0  0  0  0  0  0  0  0  0  0
   58.4040   32.4380   46.7420 C   0  0  0  0  0  0  0  0  0  0  0  0
   58.5896   33.5220   46.7637 H   0  0  0  0  0  0  0  0  0  0  0  0
   58.7490   31.6360   47.8300 C   0  0  0  0  0  0  0  0  0  0  0  0
   59.3230   32.0980   48.9720 N   0  0  0  0  0  0  0  0  0  0  0  0
   59.5310   31.0890   49.8520 C   0  0  0  0  0  0  0  0  0  0  0  0
   60.1110   31.2960   50.9980 N   0  0  0  0  0  0  0  0  0  0  0  0
   59.4920   31.3620   52.2920 C   0  0  0  0  0  0  0  0  0  0  0  0
   59.9380   32.1870   53.1330 O   0  0  0  0  0  0  0  0  0  0  0  0
   58.2430   30.5920   52.6290 C   0  0  0  0  0  0  0  0  0  0  0  0
   58.3636   29.5511   52.2942 H   0  0  0  0  0  0  0  0  0  0  0  0
   58.0923   30.6384   53.7176 H   0  0  0  0  0  0  0  0  0  0  0  0
   57.0300   31.1850   51.9580 C   0  0  0  0  0  0  0  0  0  0  0  0
   57.0190   32.4090   51.6600 O   0  0  0  0  0  0  0  0  0  0  0  0
   55.8900   30.3840   51.6170 N   0  0  0  0  0  0  0  0  0  0  0  0
   54.5660   30.5120   52.1550 C   0  0  0  0  0  0  0  0  0  0  0  0
   54.2050   29.7250   53.2540 C   0  0  0  0  0  0  0  0  0  0  0  0
   54.9390   29.0377   53.6999 H   0  0  0  0  0  0  0  0  0  0  0  0
   52.9180   29.8080   53.7870 C   0  0  0  0  0  0  0  0  0  0  0  0
   52.6460   29.1973   54.6605 H   0  0  0  0  0  0  0  0  0  0  0  0
   51.9740   30.6640   53.2150 C   0  0  0  0  0  0  0  0  0  0  0  0
   50.9644   30.7313   53.6464 H   0  0  0  0  0  0  0  0  0  0  0  0
   52.3070   31.4400   52.0910 C   0  0  0  0  0  0  0  0  0  0  0  0
   51.2990   32.3310   51.4730 C   0  0  0  0  0  0  0  0  0  0  0  0
   50.3240   32.7590   52.1450 O   0  0  0  0  0  0  0  0  0  0  0  0
   51.4150   32.7060   50.1400 O   0  0  0  0  0  0  0  0  0  0  0  0
   53.6070   31.3500   51.5600 C   0  0  0  0  0  0  0  0  0  0  0  0
   53.8751   31.9406   50.6716 H   0  0  0  0  0  0  0  0  0  0  0  0
   59.0320   29.5850   49.2360 S   0  0  0  0  0  0  0  0  0  0  0  0
   58.5120   30.2710   47.7960 C   0  0  0  0  0  0  0  0  0  0  0  0
   57.9330   29.6480   46.6960 C   0  0  0  0  0  0  0  0  0  0  0  0
   57.7523   28.5629   46.6924 H   0  0  0  0  0  0  0  0  0  0  0  0
  1  2  1  0
  2  3  1  0
  3  4  2  0
  3  5  2  0
  3  6  1  0
  6  7  2  0
  7  8  1  0
  7  9  1  0
  9 10  1  0
  9 11  2  0
 11 12  1  0
 12 13  1  0
 13 14  2  0
 14 15  1  0
 15 16  2  0
 15 17  1  0
 17 18  1  0
 17 19  1  0
 17 20  1  0
 20 21  2  0
 20 22  1  0
 22 23  1  0
 23 24  2  0
 24 25  1  0
 24 26  1  0
 26 27  1  0
 26 28  2  0
 28 29  1  0
 28 30  1  0
 30 31  1  0
 31 32  2  0
 31 33  1  0
 30 34  2  0
 34 35  1  0
 13 36  1  0
 36 37  1  0
 37 38  2  0
 38 39  1  0
 38  6  1  0
 37 11  1  0
 34 23  1  0
M  CHG  4   2  -1  12  -1  22  -1  33  -1
M  END
>  <UniqueID>  (47) 
46

>  <SMILES>  (47) 
[NH-]S(=O)(=O)c1ccc2[n-]/c(=N/C(=O)CC(=O)[N-]c3cccc(C(=O)[O-])c3)sc2c1

>  <Energy>  (47) 
87.45393243217428

>  <Genealogy>  (47) 
[NH-]S(=O)(=O)c1ccc2[n-]c(=NC(=O)CC(=O)[N-]c3cccc(C(=O)[O-])c3)sc2c1 (protonated)
[NH-]S(=O)(=O)c1ccc2[n-]/c(=N/C(=O)CC(=O)[N-]c3cccc(C(=O)[O-])c3)sc2c1 (cis-trans isomerization)
[NH-]S(=O)(=O)c1ccc2[n-]/c(=N/C(=O)CC(=O)[N-]c3cccc(C(=O)[O-])c3)sc2c1 (3D coordinates assigned)
[NH-]S(=O)(=O)c1ccc2[n-]/c(=N/C(=O)CC(=O)[N-]c3cccc(C(=O)[O-])c3)sc2c1 (optimized conformer: 87.45393243217428 kcal/mol)

>  <smiles>  (47) 
NS(=O)(=O)c1ccc2[nH]c(=NC(=O)CC(=O)Nc3cccc(C(=O)O)c3)sc2c1

>  <score_type>  (47) 
oracle

>  <origin>  (47) 
adg

>  <m_score__min__energy>  (47) 
-16.07

>  <m_primary>  (47) 
energy

$$$$
47:0
     RDKit          3D

 63 65  0  0  0  0  0  0  0  0999 V2000
   63.3240   33.8710   46.6400 C   0  0  0  0  0  0  0  0  0  0  0  0
   61.9820   34.2430   46.3480 O   0  0  0  0  0  0  0  0  0  0  0  0
   60.8920   33.7660   47.0820 C   0  0  0  0  0  0  0  0  0  0  0  0
   60.3780   34.4740   47.9910 O   0  0  0  0  0  0  0  0  0  0  0  0
   60.3390   32.4210   46.7860 C   0  0  0  0  0  0  0  0  0  0  0  0
   60.9540   31.2610   47.3190 C   0  0  0  0  0  0  0  0  0  0  0  0
   62.1930   31.3470   48.1750 C   0  0  0  0  0  0  0  0  0  0  0  0
   60.4230   30.0330   47.0590 N   0  0  0  0  0  0  0  0  0  0  0  0
   59.2880   29.8720   46.3310 C   0  0  0  0  0  0  0  0  0  0  0  0
   58.7690   28.5490   46.1260 N   0  0  0  0  0  0  0  0  0  0  0  0
   58.7960   27.9580   44.7840 C   0  0  0  0  0  0  0  0  0  0  0  0
   57.5530   27.0880   44.5860 C   0  0  0  0  0  0  0  0  0  0  0  0
   57.4180   25.9840   45.6660 C   0  0  0  0  0  0  0  0  0  0  0  0
   55.9590   25.7430   46.0030 C   0  0  0  0  0  0  0  0  0  0  0  0
   55.1510   26.7100   45.9940 O   0  0  0  0  0  0  0  0  0  0  0  0
   55.4520   24.4400   46.3290 N   0  0  0  0  0  0  0  0  0  0  0  0
   55.5210   23.7830   47.6320 C   0  0  0  0  0  0  0  0  0  0  0  0
   55.1250   22.3050   47.5200 C   0  0  0  0  0  0  0  0  0  0  0  0
   56.3230   21.3850   47.2400 C   0  0  0  0  0  0  0  0  0  0  0  0
   56.8500   21.5940   45.8910 N   0  0  0  0  0  0  0  0  0  0  0  0
   56.2940   20.9930   44.6920 C   0  0  0  0  0  0  0  0  0  0  0  0
   57.1730   21.4850   43.5260 C   0  0  0  0  0  0  0  0  0  0  0  0
   58.0910   22.5870   44.0810 C   0  0  0  0  0  0  0  0  0  0  0  0
   57.8490   22.5290   45.5350 C   0  0  0  0  0  0  0  0  0  0  0  0
   58.4470   23.2540   46.3740 O   0  0  0  0  0  0  0  0  0  0  0  0
   58.2590   26.2660   46.9410 C   0  0  0  0  0  0  0  0  0  0  0  0
   58.3420   27.7580   47.2860 C   0  0  0  0  0  0  0  0  0  0  0  0
   58.6300   30.9880   45.7930 C   0  0  0  0  0  0  0  0  0  0  0  0
   57.3910   30.7960   45.0680 C   0  0  0  0  0  0  0  0  0  0  0  0
   56.4010   30.6430   44.4900 N   0  0  0  0  0  0  0  0  0  0  0  0
   59.1740   32.2770   45.9890 C   0  0  0  0  0  0  0  0  0  0  0  0
   58.5020   33.4900   45.3760 C   0  0  0  0  0  0  0  0  0  0  0  0
   63.4647   33.8320   47.7303 H   0  0  0  0  0  0  0  0  0  0  0  0
   63.5325   32.8812   46.2077 H   0  0  0  0  0  0  0  0  0  0  0  0
   64.0123   34.6122   46.2077 H   0  0  0  0  0  0  0  0  0  0  0  0
   61.9071   31.3272   49.2370 H   0  0  0  0  0  0  0  0  0  0  0  0
   62.8499   30.4923   47.9561 H   0  0  0  0  0  0  0  0  0  0  0  0
   62.7256   32.2843   47.9561 H   0  0  0  0  0  0  0  0  0  0  0  0
   60.8900   29.1790   47.4400 H   0  0  0  0  0  0  0  0  0  0  0  0
   58.8068   28.7592   44.0304 H   0  0  0  0  0  0  0  0  0  0  0  0
   59.6987   27.3392   44.6734 H   0  0  0  0  0  0  0  0  0  0  0  0
   56.6622   27.7321   44.6277 H   0  0  0  0  0  0  0  0  0  0  0  0
   57.6484   26.5889   43.6104 H   0  0  0  0  0  0  0  0  0  0  0  0
   57.8357   25.0636   45.2320 H   0  0  0  0  0  0  0  0  0  0  0  0
   56.5492   23.8525   48.0166 H   0  0  0  0  0  0  0  0  0  0  0  0
   54.8208   24.2842   48.3165 H   0  0  0  0  0  0  0  0  0  0  0  0
   54.6573   21.9942   48.4659 H   0  0  0  0  0  0  0  0  0  0  0  0
   54.4319   22.2123   46.6709 H   0  0  0  0  0  0  0  0  0  0  0  0
   57.1165   21.5973   47.9716 H   0  0  0  0  0  0  0  0  0  0  0  0
   55.9861   20.3412   47.3233 H   0  0  0  0  0  0  0  0  0  0  0  0
   56.3302   19.8958   44.7619 H   0  0  0  0  0  0  0  0  0  0  0  0
   55.2403   21.2752   44.5503 H   0  0  0  0  0  0  0  0  0  0  0  0
   57.7771   20.6540   43.1329 H   0  0  0  0  0  0  0  0  0  0  0  0
   56.5514   21.8718   42.7050 H   0  0  0  0  0  0  0  0  0  0  0  0
   59.1452   22.3762   43.8482 H   0  0  0  0  0  0  0  0  0  0  0  0
   57.8847   23.5774   43.6492 H   0  0  0  0  0  0  0  0  0  0  0  0
   57.8000   25.7353   47.7882 H   0  0  0  0  0  0  0  0  0  0  0  0
   59.2831   25.9163   46.7437 H   0  0  0  0  0  0  0  0  0  0  0  0
   57.3509   28.1063   47.6124 H   0  0  0  0  0  0  0  0  0  0  0  0
   59.0832   27.8889   48.0882 H   0  0  0  0  0  0  0  0  0  0  0  0
   58.1363   34.1501   46.1763 H   0  0  0  0  0  0  0  0  0  0  0  0
   59.2267   34.0352   44.7535 H   0  0  0  0  0  0  0  0  0  0  0  0
   57.6554   33.1647   44.7535 H   0  0  0  0  0  0  0  0  0  0  0  0
  1  2  1  0
  2  3  1  0
  3  4  2  0
  3  5  1  0
  5  6  2  0
  6  7  1  0
  6  8  1  0
  8  9  2  0
  9 10  1  0
 10 11  1  0
 11 12  1  0
 12 13  1  0
 13 14  1  0
 14 15  2  0
 14 16  1  0
 16 17  1  0
 17 18  1  0
 18 19  1  0
 19 20  1  0
 20 21  1  0
 21 22  1  0
 22 23  1  0
 23 24  1  0
 24 25  2  0
 13 26  1  0
 26 27  1  0
  9 28  1  0
 28 29  1  0
 29 30  3  0
 28 31  2  0
 31 32  1  0
 31  5  1  0
 27 10  1  0
 24 20  1  0
  1 33  1  0
  1 34  1  0
  1 35  1  0
  7 36  1  0
  7 37  1  0
  7 38  1  0
  8 39  1  0
 11 40  1  0
 11 41  1  0
 12 42  1  0
 12 43  1  0
 13 44  1  0
 17 45  1  0
 17 46  1  0
 18 47  1  0
 18 48  1  0
 19 49  1  0
 19 50  1  0
 21 51  1  0
 21 52  1  0
 22 53  1  0
 22 54  1  0
 23 55  1  0
 23 56  1  0
 26 57  1  0
 26 58  1  0
 27 59  1  0
 27 60  1  0
 32 61  1  0
 32 62  1  0
 32 63  1  0
M  CHG  2   8   1  16  -1
M  END
>  <UniqueID>  (48) 
47

>  <SMILES>  (48) 
COC(=O)c1c(C)[nH+]c(N2CCC(C(=O)[N-]CCCN3CCCC3=O)CC2)c(C#N)c1C

>  <Energy>  (48) 
78.14882768717123

>  <Genealogy>  (48) 
COC(=O)c1c(C)[nH+]c(N2CCC(C(=O)[N-]CCCN3CCCC3=O)CC2)c(C#N)c1C (protonated)
COC(=O)c1c(C)[nH+]c(N2CCC(C(=O)[N-]CCCN3CCCC3=O)CC2)c(C#N)c1C (3D coordinates assigned)
COC(=O)c1c(C)[nH+]c(N2CCC(C(=O)[N-]CCCN3CCCC3=O)CC2)c(C#N)c1C (nonaromatic ring conformer: 78.14882768717123 kcal/mol)

>  <smiles>  (48) 
COC(=O)c1c(C)nc(N2CCC(C(=O)NCCCN3CCCC3=O)CC2)c(C#N)c1C

>  <score_type>  (48) 
oracle

>  <origin>  (48) 
adg

>  <m_score__min__energy>  (48) 
-9.7400000000000002

>  <m_primary>  (48) 
energy

$$$$
48:0
     RDKit          3D

 24 25  0  0  0  0  0  0  0  0999 V2000
   56.5190   25.6490   47.1160 O   0  0  0  0  0  0  0  0  0  0  0  0
   55.9300   26.3200   46.2260 C   0  0  0  0  0  0  0  0  0  0  0  0
   54.5950   25.9740   45.8340 N   0  0  0  0  0  0  0  0  0  0  0  0
   54.1560   24.6070   45.5830 C   0  0  0  0  0  0  0  0  0  0  0  0
   55.2300   23.8400   44.8800 C   0  0  0  0  0  0  0  0  0  0  0  0
   55.3850   23.7220   43.5040 C   0  0  0  0  0  0  0  0  0  0  0  0
   56.4540   22.8940   43.1410 C   0  0  0  0  0  0  0  0  0  0  0  0
   57.1360   22.3540   44.2240 C   0  0  0  0  0  0  0  0  0  0  0  0
   56.4050   22.9050   45.6370 S   0  0  0  0  0  0  0  0  0  0  0  0
   56.6220   27.4590   45.5960 C   0  0  0  0  0  0  0  0  0  0  0  0
   58.0010   27.4280   45.3480 C   0  0  0  0  0  0  0  0  0  0  0  0
   58.5990   28.5390   44.7490 C   0  0  0  0  0  0  0  0  0  0  0  0
   59.8370   28.5370   44.5150 O   0  0  0  0  0  0  0  0  0  0  0  0
   57.8450   29.6220   44.4190 N   0  0  0  0  0  0  0  0  0  0  0  0
   56.5060   29.6380   44.6670 C   0  0  0  0  0  0  0  0  0  0  0  0
   55.8160   30.6440   44.3580 O   0  0  0  0  0  0  0  0  0  0  0  0
   55.9090   28.5640   45.2490 N   0  0  0  0  0  0  0  0  0  0  0  0
   53.9275   24.1172   46.5410 H   0  0  0  0  0  0  0  0  0  0  0  0
   53.2575   24.6295   44.9488 H   0  0  0  0  0  0  0  0  0  0  0  0
   54.7345   24.2273   42.7749 H   0  0  0  0  0  0  0  0  0  0  0  0
   56.7283   22.6900   42.0955 H   0  0  0  0  0  0  0  0  0  0  0  0
   58.0048   21.6816   44.1680 H   0  0  0  0  0  0  0  0  0  0  0  0
   58.6003   26.5465   45.6196 H   0  0  0  0  0  0  0  0  0  0  0  0
   58.2970   30.4520   43.9710 H   0  0  0  0  0  0  0  0  0  0  0  0
  1  2  2  0
  2  3  1  0
  3  4  1  0
  4  5  1  0
  5  6  2  0
  6  7  1  0
  7  8  2  0
  8  9  1  0
  2 10  1  0
 10 11  2  0
 11 12  1  0
 12 13  2  0
 12 14  1  0
 14 15  1  0
 15 16  2  0
 15 17  1  0
  9  5  1  0
 17 10  1  0
  4 18  1  0
  4 19  1  0
  6 20  1  0
  7 21  1  0
  8 22  1  0
 11 23  1  0
 14 24  1  0
M  CHG  2   3  -1  17  -1
M  END
>  <UniqueID>  (49) 
48

>  <SMILES>  (49) 
O=C([N-]Cc1cccs1)c1cc(=O)[nH]c(=O)[n-]1

>  <Energy>  (49) 
48.18863765206683

>  <Genealogy>  (49) 
O=C([N-]Cc1cccs1)c1cc(=O)[nH]c(=O)[n-]1 (protonated)
O=C([N-]Cc1cccs1)c1cc(=O)[nH]c(=O)[n-]1 (3D coordinates assigned)
O=C([N-]Cc1cccs1)c1cc(=O)[nH]c(=O)[n-]1 (optimized conformer: 48.18863765206683 kcal/mol)

>  <smiles>  (49) 
O=C(NCc1cccs1)c1cc(=O)[nH]c(=O)[nH]1

>  <score_type>  (49) 
oracle

>  <origin>  (49) 
adg

>  <m_score__min__energy>  (49) 
-10.1

>  <m_primary>  (49) 
energy

$$$$
49:0
     RDKit          3D

 50 53  0  0  0  0  0  0  0  0999 V2000
   55.6160   29.2710   44.7470 O   0  0  0  0  0  0  0  0  0  0  0  0
   56.8380   29.3780   44.4470 C   0  0  0  0  0  0  0  0  0  0  0  0
   57.6430   28.1400   44.1640 C   0  0  0  0  0  0  0  0  0  0  0  0
   57.8570   27.3450   45.4140 C   0  0  0  0  0  0  0  0  0  0  0  0
   59.0610   27.1010   45.9540 N   0  0  0  0  0  0  0  0  0  0  0  0
   58.7640   26.4180   47.0800 C   0  0  0  0  0  0  0  0  0  0  0  0
   59.6460   26.0020   47.8700 O   0  0  0  0  0  0  0  0  0  0  0  0
   57.4460   26.2230   47.2940 N   0  0  0  0  0  0  0  0  0  0  0  0
   56.8850   26.8230   46.2320 C   0  0  0  0  0  0  0  0  0  0  0  0
   55.5130   26.9070   46.0150 O   0  0  0  0  0  0  0  0  0  0  0  0
   57.4250   30.6860   44.3080 N   0  0  0  0  0  0  0  0  0  0  0  0
   57.2640   31.3670   43.0130 C   0  0  0  0  0  0  0  0  0  0  0  0
   58.1010   32.6460   42.9250 C   0  0  0  0  0  0  0  0  0  0  0  0
   57.8200   33.5450   44.1310 C   0  0  0  0  0  0  0  0  0  0  0  0
   58.1100   32.8030   45.4060 C   0  0  0  0  0  0  0  0  0  0  0  0
   58.5680   33.5060   46.5310 C   0  0  0  0  0  0  0  0  0  0  0  0
   58.8810   32.8310   47.7140 C   0  0  0  0  0  0  0  0  0  0  0  0
   59.3990   33.5870   48.8170 N   0  0  0  0  0  0  0  0  0  0  0  0
   59.4720   33.0350   50.4570 S   0  0  0  0  0  0  0  0  0  0  0  0
   58.4240   31.9790   50.6850 O   0  0  0  0  0  0  0  0  0  0  0  0
   59.2510   34.1900   51.3980 O   0  0  0  0  0  0  0  0  0  0  0  0
   61.0830   32.3190   50.7550 C   0  0  0  0  0  0  0  0  0  0  0  0
   61.9400   32.4570   49.5230 C   0  0  0  0  0  0  0  0  0  0  0  0
   62.0220   31.4070   48.5880 C   0  0  0  0  0  0  0  0  0  0  0  0
   62.7470   31.5740   47.3990 C   0  0  0  0  0  0  0  0  0  0  0  0
   63.3850   32.7900   47.1330 C   0  0  0  0  0  0  0  0  0  0  0  0
   63.3140   33.8360   48.0600 C   0  0  0  0  0  0  0  0  0  0  0  0
   62.5960   33.6710   49.2540 C   0  0  0  0  0  0  0  0  0  0  0  0
   58.6990   31.4410   47.7820 C   0  0  0  0  0  0  0  0  0  0  0  0
   58.2190   30.7370   46.6730 C   0  0  0  0  0  0  0  0  0  0  0  0
   57.8990   31.4100   45.4760 C   0  0  0  0  0  0  0  0  0  0  0  0
   57.1055   27.5207   43.4308 H   0  0  0  0  0  0  0  0  0  0  0  0
   58.6235   28.4414   43.7669 H   0  0  0  0  0  0  0  0  0  0  0  0
   55.1380   27.5150   45.2990 H   0  0  0  0  0  0  0  0  0  0  0  0
   57.5776   30.6824   42.2112 H   0  0  0  0  0  0  0  0  0  0  0  0
   56.2056   31.6478   42.9080 H   0  0  0  0  0  0  0  0  0  0  0  0
   59.1686   32.3814   42.9099 H   0  0  0  0  0  0  0  0  0  0  0  0
   57.8352   33.1865   42.0045 H   0  0  0  0  0  0  0  0  0  0  0  0
   58.4597   34.4382   44.0761 H   0  0  0  0  0  0  0  0  0  0  0  0
   56.7610   33.8424   44.1199 H   0  0  0  0  0  0  0  0  0  0  0  0
   58.6817   34.5990   46.4811 H   0  0  0  0  0  0  0  0  0  0  0  0
   61.5647   32.8409   51.5950 H   0  0  0  0  0  0  0  0  0  0  0  0
   60.9666   31.2526   50.9983 H   0  0  0  0  0  0  0  0  0  0  0  0
   61.5154   30.4520   48.7910 H   0  0  0  0  0  0  0  0  0  0  0  0
   62.8139   30.7483   46.6753 H   0  0  0  0  0  0  0  0  0  0  0  0
   63.9429   32.9242   46.1945 H   0  0  0  0  0  0  0  0  0  0  0  0
   63.8220   34.7892   47.8521 H   0  0  0  0  0  0  0  0  0  0  0  0
   62.5462   34.4941   49.9820 H   0  0  0  0  0  0  0  0  0  0  0  0
   58.9350   30.9028   48.7119 H   0  0  0  0  0  0  0  0  0  0  0  0
   58.0897   29.6464   46.7352 H   0  0  0  0  0  0  0  0  0  0  0  0
  1  2  2  0
  2  3  1  0
  3  4  1  0
  4  5  1  0
  5  6  1  0
  6  7  2  0
  6  8  1  0
  8  9  1  0
  9 10  1  0
  2 11  1  0
 11 12  1  0
 12 13  1  0
 13 14  1  0
 14 15  1  0
 15 16  2  0
 16 17  1  0
 17 18  1  0
 18 19  1  0
 19 20  2  0
 19 21  2  0
 19 22  1  0
 22 23  1  0
 23 24  2  0
 24 25  1  0
 25 26  2  0
 26 27  1  0
 27 28  2  0
 17 29  2  0
 29 30  1  0
 30 31  2  0
  9  4  2  0
 31 11  1  0
 31 15  1  0
 28 23  1  0
  3 32  1  0
  3 33  1  0
 10 34  1  0
 12 35  1  0
 12 36  1  0
 13 37  1  0
 13 38  1  0
 14 39  1  0
 14 40  1  0
 16 41  1  0
 22 42  1  0
 22 43  1  0
 24 44  1  0
 25 45  1  0
 26 46  1  0
 27 47  1  0
 28 48  1  0
 29 49  1  0
 30 50  1  0
M  CHG  3   5  -1   8  -1  18  -1
M  END
>  <UniqueID>  (50) 
49

>  <SMILES>  (50) 
O=C(Cc1[n-]c(=O)[n-]c1O)N1CCCc2cc([N-]S(=O)(=O)Cc3ccccc3)ccc21

>  <Energy>  (50) 
85.9479958498876

>  <Genealogy>  (50) 
O=C(Cc1[n-]c(=O)[n-]c1O)N1CCCc2cc([N-]S(=O)(=O)Cc3ccccc3)ccc21 (protonated)
O=C(Cc1[n-]c(=O)[n-]c1O)N1CCCc2cc([N-]S(=O)(=O)Cc3ccccc3)ccc21 (3D coordinates assigned)
O=C(Cc1[n-]c(=O)[n-]c1O)N1CCCc2cc([N-]S(=O)(=O)Cc3ccccc3)ccc21 (nonaromatic ring conformer: 85.9479958498876 kcal/mol)

>  <smiles>  (50) 
O=C(Cc1[nH]c(=O)[nH]c1O)N1CCCc2cc(NS(=O)(=O)Cc3ccccc3)ccc21

>  <score_type>  (50) 
oracle

>  <origin>  (50) 
adg

>  <m_score__min__energy>  (50) 
-14.93

>  <m_primary>  (50) 
energy

$$$$
50:0
     RDKit          3D

 44 46  0  0  0  0  0  0  0  0999 V2000
   63.3830   33.3320   46.4190 O   0  0  0  0  0  0  0  0  0  0  0  0
   62.9950   32.6470   47.4010 C   0  0  0  0  0  0  0  0  0  0  0  0
   63.3910   33.0570   48.7920 C   0  0  0  0  0  0  0  0  0  0  0  0
   62.1820   34.2390   49.4920 S   0  0  0  0  0  0  0  0  0  0  0  0
   60.8920   33.0210   49.7750 C   0  0  0  0  0  0  0  0  0  0  0  0
   61.2200   31.7420   50.2420 C   0  0  0  0  0  0  0  0  0  0  0  0
   60.2140   30.7940   50.4550 C   0  0  0  0  0  0  0  0  0  0  0  0
   58.8790   31.1190   50.1940 C   0  0  0  0  0  0  0  0  0  0  0  0
   58.5500   32.3920   49.7170 C   0  0  0  0  0  0  0  0  0  0  0  0
   59.5550   33.3410   49.5030 C   0  0  0  0  0  0  0  0  0  0  0  0
   62.2110   31.4720   47.1540 N   0  0  0  0  0  0  0  0  0  0  0  0
   60.8080   31.4330   46.8580 C   0  0  0  0  0  0  0  0  0  0  0  0
   60.1240   30.2220   46.9920 C   0  0  0  0  0  0  0  0  0  0  0  0
   58.7580   30.1390   46.7060 C   0  0  0  0  0  0  0  0  0  0  0  0
   58.0920   28.8780   46.8700 N   0  0  0  0  0  0  0  0  0  0  0  0
   57.2180   28.2510   45.9190 C   0  0  0  0  0  0  0  0  0  0  0  0
   56.4900   28.9830   45.1970 O   0  0  0  0  0  0  0  0  0  0  0  0
   57.2010   26.7810   45.7220 C   0  0  0  0  0  0  0  0  0  0  0  0
   58.3990   26.0960   45.4510 C   0  0  0  0  0  0  0  0  0  0  0  0
   58.3970   24.7130   45.2630 C   0  0  0  0  0  0  0  0  0  0  0  0
   57.2010   23.9980   45.3350 C   0  0  0  0  0  0  0  0  0  0  0  0
   55.9990   24.6640   45.5920 C   0  0  0  0  0  0  0  0  0  0  0  0
   54.3730   23.6590   45.6830 Br  0  0  0  0  0  0  0  0  0  0  0  0
   55.9930   26.0540   45.7850 C   0  0  0  0  0  0  0  0  0  0  0  0
   54.7920   26.7020   46.0570 O   0  0  0  0  0  0  0  0  0  0  0  0
   58.0820   31.2710   46.2210 C   0  0  0  0  0  0  0  0  0  0  0  0
   58.7590   32.4920   46.0560 C   0  0  0  0  0  0  0  0  0  0  0  0
   58.0610   33.6480   45.5570 N   0  0  0  0  0  0  0  0  0  0  0  0
   58.6540   34.5000   44.8620 O   0  0  0  0  0  0  0  0  0  0  0  0
   56.7300   33.8420   45.8500 O   0  0  0  0  0  0  0  0  0  0  0  0
   60.1280   32.5610   46.3720 C   0  0  0  0  0  0  0  0  0  0  0  0
   63.4340   32.1637   49.4325 H   0  0  0  0  0  0  0  0  0  0  0  0
   64.3757   33.5453   48.7481 H   0  0  0  0  0  0  0  0  0  0  0  0
   62.2702   31.4827   50.4415 H   0  0  0  0  0  0  0  0  0  0  0  0
   60.4730   29.7921   50.8281 H   0  0  0  0  0  0  0  0  0  0  0  0
   58.0880   30.3737   50.3638 H   0  0  0  0  0  0  0  0  0  0  0  0
   57.5002   32.6470   49.5100 H   0  0  0  0  0  0  0  0  0  0  0  0
   59.2957   34.3394   49.1209 H   0  0  0  0  0  0  0  0  0  0  0  0
   60.6658   29.3248   47.3259 H   0  0  0  0  0  0  0  0  0  0  0  0
   59.3446   26.6543   45.3867 H   0  0  0  0  0  0  0  0  0  0  0  0
   59.3402   24.1856   45.0577 H   0  0  0  0  0  0  0  0  0  0  0  0
   57.2039   22.9077   45.1892 H   0  0  0  0  0  0  0  0  0  0  0  0
   57.0137   31.2014   45.9682 H   0  0  0  0  0  0  0  0  0  0  0  0
   60.6710   33.5080   46.2370 H   0  0  0  0  0  0  0  0  0  0  0  0
  1  2  2  0
  2  3  1  0
  3  4  1  0
  4  5  1  0
  5  6  2  0
  6  7  1  0
  7  8  2  0
  8  9  1  0
  9 10  2  0
  2 11  1  0
 11 12  1  0
 12 13  2  0
 13 14  1  0
 14 15  1  0
 15 16  1  0
 16 17  2  0
 16 18  1  0
 18 19  2  0
 19 20  1  0
 20 21  2  0
 21 22  1  0
 22 23  1  0
 22 24  2  0
 24 25  1  0
 14 26  2  0
 26 27  1  0
 27 28  1  0
 28 29  2  0
 28 30  1  0
 27 31  2  0
 10  5  1  0
 31 12  1  0
 24 18  1  0
  3 32  1  0
  3 33  1  0
  6 34  1  0
  7 35  1  0
  8 36  1  0
  9 37  1  0
 10 38  1  0
 13 39  1  0
 19 40  1  0
 20 41  1  0
 21 42  1  0
 26 43  1  0
 31 44  1  0
M  CHG  5  11  -1  15  -1  25  -1  28   1  30  -1
M  END
>  <UniqueID>  (51) 
50

>  <SMILES>  (51) 
O=C(CSc1ccccc1)[N-]c1cc([N-]C(=O)c2cccc(Br)c2[O-])cc([N+](=O)[O-])c1

>  <Energy>  (51) 
58.01977783535078

>  <Genealogy>  (51) 
O=C(CSc1ccccc1)[N-]c1cc([N-]C(=O)c2cccc(Br)c2[O-])cc([N+](=O)[O-])c1 (protonated)
O=C(CSc1ccccc1)[N-]c1cc([N-]C(=O)c2cccc(Br)c2[O-])cc([N+](=O)[O-])c1 (3D coordinates assigned)
O=C(CSc1ccccc1)[N-]c1cc([N-]C(=O)c2cccc(Br)c2[O-])cc([N+](=O)[O-])c1 (optimized conformer: 58.01977783535078 kcal/mol)

>  <smiles>  (51) 
O=C(CSc1ccccc1)Nc1cc(NC(=O)c2cccc(Br)c2O)cc([N+](=O)[O-])c1

>  <score_type>  (51) 
oracle

>  <origin>  (51) 
adg

>  <m_score__min__energy>  (51) 
-15.699999999999999

>  <m_primary>  (51) 
energy

$$$$
51:0
     RDKit          3D

 71 75  0  0  0  0  0  0  0  0999 V2000
   60.4013   26.4988   47.9557 H   0  0  0  0  0  0  0  0  0  0  0  0
   60.1600   26.2490   46.9120 C   0  0  0  0  0  0  0  0  0  0  0  0
   60.6200   25.3703   46.4363 H   0  0  0  0  0  0  0  0  0  0  0  0
   59.3070   27.0140   46.2210 C   0  0  0  0  0  0  0  0  0  0  0  0
   58.7350   28.2420   46.6020 C   0  0  0  0  0  0  0  0  0  0  0  0
   58.6940   28.8300   47.8190 C   0  0  0  0  0  0  0  0  0  0  0  0
   57.8146   28.6297   48.4488 H   0  0  0  0  0  0  0  0  0  0  0  0
   59.7330   29.7170   48.3680 C   0  0  0  0  0  0  0  0  0  0  0  0
   60.1450   30.8170   47.7780 O   0  0  0  0  0  0  0  0  0  0  0  0
   61.1260   31.3320   48.4850 C   0  0  0  0  0  0  0  0  0  0  0  0
   61.7580   32.5790   48.1560 N   0  0  0  0  0  0  0  0  0  0  0  0
   62.9290   32.5970   47.2700 C   0  0  0  0  0  0  0  0  0  0  0  0
   63.5474   31.7090   47.4676 H   0  0  0  0  0  0  0  0  0  0  0  0
   62.5873   32.5925   46.2244 H   0  0  0  0  0  0  0  0  0  0  0  0
   63.7610   33.8570   47.5170 C   0  0  0  0  0  0  0  0  0  0  0  0
   64.7822   33.7042   47.1377 H   0  0  0  0  0  0  0  0  0  0  0  0
   63.3042   34.7106   46.9948 H   0  0  0  0  0  0  0  0  0  0  0  0
   63.8060   34.1170   48.9030 O   0  0  0  0  0  0  0  0  0  0  0  0
   62.5550   34.6160   49.3490 C   0  0  0  0  0  0  0  0  0  0  0  0
   62.5446   34.5911   50.4487 H   0  0  0  0  0  0  0  0  0  0  0  0
   62.4573   35.6356   48.9480 H   0  0  0  0  0  0  0  0  0  0  0  0
   61.3370   33.8120   48.8320 C   0  0  0  0  0  0  0  0  0  0  0  0
   60.6925   33.5509   49.6843 H   0  0  0  0  0  0  0  0  0  0  0  0
   60.7923   34.4356   48.1078 H   0  0  0  0  0  0  0  0  0  0  0  0
   61.3970   30.5290   49.5840 C   0  0  0  0  0  0  0  0  0  0  0  0
   62.5500   30.6060   50.5010 C   0  0  0  0  0  0  0  0  0  0  0  0
   62.9230   29.5540   51.0910 O   0  0  0  0  0  0  0  0  0  0  0  0
   63.3470   31.8150   50.5650 N   0  0  0  0  0  0  0  0  0  0  0  0
   63.0780   32.4560   49.7810 H   0  0  0  0  0  0  0  0  0  0  0  0
   63.2170   32.5550   51.8270 C   0  0  0  0  0  0  0  0  0  0  0  0
   62.3477   33.2278   51.7863 H   0  0  0  0  0  0  0  0  0  0  0  0
   63.0661   31.8731   52.6768 H   0  0  0  0  0  0  0  0  0  0  0  0
   64.5000   33.3600   51.9840 C   0  0  0  0  0  0  0  0  0  0  0  0
   64.3490   34.3955   51.6449 H   0  0  0  0  0  0  0  0  0  0  0  0
   64.8250   33.4129   53.0336 H   0  0  0  0  0  0  0  0  0  0  0  0
   65.5260   32.6560   51.1070 C   0  0  0  0  0  0  0  0  0  0  0  0
   65.9217   33.3469   50.3480 H   0  0  0  0  0  0  0  0  0  0  0  0
   66.3853   32.2967   51.6922 H   0  0  0  0  0  0  0  0  0  0  0  0
   64.7750   31.5090   50.4430 C   0  0  0  0  0  0  0  0  0  0  0  0
   65.0576   31.4342   49.3825 H   0  0  0  0  0  0  0  0  0  0  0  0
   65.0163   30.5483   50.9212 H   0  0  0  0  0  0  0  0  0  0  0  0
   60.4830   29.4900   49.5130 C   0  0  0  0  0  0  0  0  0  0  0  0
   60.4090   28.3010   50.4260 C   0  0  0  0  0  0  0  0  0  0  0  0
   60.4301   28.6402   51.4722 H   0  0  0  0  0  0  0  0  0  0  0  0
   59.4749   27.7515   50.2375 H   0  0  0  0  0  0  0  0  0  0  0  0
   61.2677   27.6399   50.2375 H   0  0  0  0  0  0  0  0  0  0  0  0
   58.1200   28.7420   45.4470 C   0  0  0  0  0  0  0  0  0  0  0  0
   57.3800   30.0110   45.2820 C   0  0  0  0  0  0  0  0  0  0  0  0
   56.1980   30.0080   44.8450 O   0  0  0  0  0  0  0  0  0  0  0  0
   57.9920   31.2170   45.6420 O   0  0  0  0  0  0  0  0  0  0  0  0
   57.4600   32.5020   45.3150 C   0  0  0  0  0  0  0  0  0  0  0  0
   56.4722   32.3402   44.8589 H   0  0  0  0  0  0  0  0  0  0  0  0
   58.4010   33.2530   44.3810 C   0  0  0  0  0  0  0  0  0  0  0  0
   58.9272   32.5479   43.7208 H   0  0  0  0  0  0  0  0  0  0  0  0
   57.8526   33.9560   43.7368 H   0  0  0  0  0  0  0  0  0  0  0  0
   59.3950   33.9790   45.2800 C   0  0  0  0  0  0  0  0  0  0  0  0
   60.3516   33.4364   45.3027 H   0  0  0  0  0  0  0  0  0  0  0  0
   59.5947   34.9948   44.9081 H   0  0  0  0  0  0  0  0  0  0  0  0
   58.7790   34.0180   46.6780 C   0  0  0  0  0  0  0  0  0  0  0  0
   59.4120   33.4643   47.3871 H   0  0  0  0  0  0  0  0  0  0  0  0
   58.6931   35.0516   47.0445 H   0  0  0  0  0  0  0  0  0  0  0  0
   57.4090   33.3580   46.5700 C   0  0  0  0  0  0  0  0  0  0  0  0
   57.2147   32.7318   47.4532 H   0  0  0  0  0  0  0  0  0  0  0  0
   56.6027   34.1045   46.5186 H   0  0  0  0  0  0  0  0  0  0  0  0
   58.2850   27.7770   44.4640 C   0  0  0  0  0  0  0  0  0  0  0  0
   57.7730   27.8440   43.0570 C   0  0  0  0  0  0  0  0  0  0  0  0
   56.6824   27.9867   43.0701 H   0  0  0  0  0  0  0  0  0  0  0  0
   58.2470   28.6878   42.5341 H   0  0  0  0  0  0  0  0  0  0  0  0
   58.0139   26.9067   42.5341 H   0  0  0  0  0  0  0  0  0  0  0  0
   58.9900   26.7360   44.9410 N   0  0  0  0  0  0  0  0  0  0  0  0
   59.2860   25.8940   44.3960 H   0  0  0  0  0  0  0  0  0  0  0  0
  1  2  1  0
  2  3  1  0
  2  4  2  0
  4  5  1  0
  5  6  2  0
  6  7  1  0
  6  8  1  0
  8  9  1  0
  9 10  1  0
 10 11  1  0
 11 12  1  0
 12 13  1  0
 12 14  1  0
 12 15  1  0
 15 16  1  0
 15 17  1  0
 15 18  1  0
 18 19  1  0
 19 20  1  0
 19 21  1  0
 19 22  1  0
 22 23  1  0
 22 24  1  0
 10 25  2  0
 25 26  1  0
 26 27  2  0
 26 28  1  0
 28 29  1  0
 28 30  1  0
 30 31  1  0
 30 32  1  0
 30 33  1  0
 33 34  1  0
 33 35  1  0
 33 36  1  0
 36 37  1  0
 36 38  1  0
 36 39  1  0
 39 40  1  0
 39 41  1  0
 25 42  1  0
 42 43  1  0
 43 44  1  0
 43 45  1  0
 43 46  1  0
  5 47  1  0
 47 48  1  0
 48 49  2  0
 48 50  1  0
 50 51  1  0
 51 52  1  0
 51 53  1  0
 53 54  1  0
 53 55  1  0
 53 56  1  0
 56 57  1  0
 56 58  1  0
 56 59  1  0
 59 60  1  0
 59 61  1  0
 59 62  1  0
 62 63  1  0
 62 64  1  0
 47 65  2  0
 65 66  1  0
 66 67  1  0
 66 68  1  0
 66 69  1  0
 65 70  1  0
 70 71  1  0
 70  4  1  0
 42  8  2  0
 62 51  1  0
 22 11  1  0
 39 28  1  0
M  CHG  1  28   1
M  END
>  <UniqueID>  (52) 
51

>  <SMILES>  (52) 
C=c1[nH]c(C)c(C(=O)OC2CCCC2)/c1=C/c1oc(N2CCOCC2)c(C(=O)[NH+]2CCCC2)c1C

>  <Energy>  (52) 
156.95778921651865

>  <Genealogy>  (52) 
C=c1[nH]c(C)c(C(=O)OC2CCCC2)c1=Cc1oc(N2CCOCC2)c(C(=O)[NH+]2CCCC2)c1C (protonated)
C=c1[nH]c(C)c(C(=O)OC2CCCC2)/c1=C/c1oc(N2CCOCC2)c(C(=O)[NH+]2CCCC2)c1C (cis-trans isomerization)
C=c1[nH]c(C)c(C(=O)OC2CCCC2)/c1=C/c1oc(N2CCOCC2)c(C(=O)[NH+]2CCCC2)c1C (3D coordinates assigned)
C=c1[nH]c(C)c(C(=O)OC2CCCC2)/c1=C/c1oc(N2CCOCC2)c(C(=O)[NH+]2CCCC2)c1C (nonaromatic ring conformer: 156.95778921651865 kcal/mol)

>  <smiles>  (52) 
C=c1[nH]c(C)c(C(=O)OC2CCCC2)c1=Cc1oc(N2CCOCC2)c(C(=O)N2CCCC2)c1C

>  <score_type>  (52) 
oracle

>  <origin>  (52) 
adg

>  <m_score__min__energy>  (52) 
-8.8900000000000006

>  <m_primary>  (52) 
energy

$$$$
52:0
     RDKit          3D

 56 58  0  0  0  0  0  0  0  0999 V2000
   54.5820   26.2770   45.9950 O   0  0  0  0  0  0  0  0  0  0  0  0
   55.6540   25.6540   45.7750 C   0  0  0  0  0  0  0  0  0  0  0  0
   56.8720   26.3910   45.2950 C   0  0  0  0  0  0  0  0  0  0  0  0
   57.0310   27.7080   45.9320 N   0  0  0  0  0  0  0  0  0  0  0  0
   56.6210   29.0290   44.8640 S   0  0  0  0  0  0  0  0  0  0  0  0
   55.1440   29.3080   44.8570 O   0  0  0  0  0  0  0  0  0  0  0  0
   57.0360   28.6590   43.4670 O   0  0  0  0  0  0  0  0  0  0  0  0
   57.4880   30.4640   45.3150 N   0  0  0  0  0  0  0  0  0  0  0  0
   58.8350   30.0560   46.3340 S   0  0  0  0  0  0  0  0  0  0  0  0
   59.6970   29.0630   45.6020 O   0  0  0  0  0  0  0  0  0  0  0  0
   58.3320   29.4320   47.6080 O   0  0  0  0  0  0  0  0  0  0  0  0
   59.7770   31.4760   46.6900 N   0  0  0  0  0  0  0  0  0  0  0  0
   60.2000   31.5000   48.0910 C   0  0  0  0  0  0  0  0  0  0  0  0
   61.4260   32.3690   48.2130 C   0  0  0  0  0  0  0  0  0  0  0  0
   62.6000   31.9470   47.5650 C   0  0  0  0  0  0  0  0  0  0  0  0
   63.7590   32.7190   47.6170 C   0  0  0  0  0  0  0  0  0  0  0  0
   63.7640   33.9300   48.3080 C   0  0  0  0  0  0  0  0  0  0  0  0
   62.6100   34.3730   48.9500 C   0  0  0  0  0  0  0  0  0  0  0  0
   61.4130   33.6290   48.8800 C   0  0  0  0  0  0  0  0  0  0  0  0
   60.1710   34.1490   49.5840 C   0  0  0  0  0  0  0  0  0  0  0  0
   59.3360   34.9540   48.6890 N   0  0  0  0  0  0  0  0  0  0  0  0
   58.9480   34.5520   47.3630 C   0  0  0  0  0  0  0  0  0  0  0  0
   59.7480   34.9300   46.2720 C   0  0  0  0  0  0  0  0  0  0  0  0
   59.3770   34.5850   44.9700 C   0  0  0  0  0  0  0  0  0  0  0  0
   58.2090   33.8540   44.7430 C   0  0  0  0  0  0  0  0  0  0  0  0
   57.4140   33.4590   45.8210 C   0  0  0  0  0  0  0  0  0  0  0  0
   57.7800   33.8020   47.1250 C   0  0  0  0  0  0  0  0  0  0  0  0
   55.7060   24.2270   45.8890 N   0  0  0  0  0  0  0  0  0  0  0  0
   56.2470   23.3200   44.9210 C   0  0  0  0  0  0  0  0  0  0  0  0
   57.2440   22.4210   45.3260 C   0  0  0  0  0  0  0  0  0  0  0  0
   57.7780   21.5000   44.4180 C   0  0  0  0  0  0  0  0  0  0  0  0
   57.3030   21.4570   43.1050 C   0  0  0  0  0  0  0  0  0  0  0  0
   56.2870   22.3310   42.7020 C   0  0  0  0  0  0  0  0  0  0  0  0
   55.7580   23.2580   43.6050 C   0  0  0  0  0  0  0  0  0  0  0  0
   57.7611   25.7831   45.5185 H   0  0  0  0  0  0  0  0  0  0  0  0
   56.7526   26.5586   44.2144 H   0  0  0  0  0  0  0  0  0  0  0  0
   58.0230   27.8310   46.2440 H   0  0  0  0  0  0  0  0  0  0  0  0
   59.3920   31.9108   48.7142 H   0  0  0  0  0  0  0  0  0  0  0  0
   60.4301   30.4790   48.4297 H   0  0  0  0  0  0  0  0  0  0  0  0
   62.6038   30.9969   47.0107 H   0  0  0  0  0  0  0  0  0  0  0  0
   64.6723   32.3721   47.1116 H   0  0  0  0  0  0  0  0  0  0  0  0
   64.6808   34.5366   48.3462 H   0  0  0  0  0  0  0  0  0  0  0  0
   62.6320   35.3144   49.5186 H   0  0  0  0  0  0  0  0  0  0  0  0
   59.5825   33.2933   49.9465 H   0  0  0  0  0  0  0  0  0  0  0  0
   60.4934   34.7887   50.4188 H   0  0  0  0  0  0  0  0  0  0  0  0
   58.9960   35.8720   49.0520 H   0  0  0  0  0  0  0  0  0  0  0  0
   60.6723   35.5012   46.4438 H   0  0  0  0  0  0  0  0  0  0  0  0
   60.0067   34.8900   44.1212 H   0  0  0  0  0  0  0  0  0  0  0  0
   57.9156   33.5897   43.7163 H   0  0  0  0  0  0  0  0  0  0  0  0
   56.4979   32.8767   45.6431 H   0  0  0  0  0  0  0  0  0  0  0  0
   57.1523   33.4844   47.9706 H   0  0  0  0  0  0  0  0  0  0  0  0
   57.6085   22.4399   46.3637 H   0  0  0  0  0  0  0  0  0  0  0  0
   58.5722   20.8095   44.7382 H   0  0  0  0  0  0  0  0  0  0  0  0
   57.7268   20.7374   42.3891 H   0  0  0  0  0  0  0  0  0  0  0  0
   55.9036   22.2885   41.6719 H   0  0  0  0  0  0  0  0  0  0  0  0
   54.9570   23.9405   43.2846 H   0  0  0  0  0  0  0  0  0  0  0  0
  1  2  2  0
  2  3  1  0
  3  4  1  0
  4  5  1  0
  5  6  2  0
  5  7  2  0
  5  8  1  0
  8  9  1  0
  9 10  2  0
  9 11  2  0
  9 12  1  0
 12 13  1  0
 13 14  1  0
 14 15  2  0
 15 16  1  0
 16 17  2  0
 17 18  1  0
 18 19  2  0
 19 20  1  0
 20 21  1  0
 21 22  1  0
 22 23  2  0
 23 24  1  0
 24 25  2  0
 25 26  1  0
 26 27  2  0
  2 28  1  0
 28 29  1  0
 29 30  2  0
 30 31  1  0
 31 32  2  0
 32 33  1  0
 33 34  2  0
 19 14  1  0
 27 22  1  0
 34 29  1  0
  3 35  1  0
  3 36  1  0
  4 37  1  0
 13 38  1  0
 13 39  1  0
 15 40  1  0
 16 41  1  0
 17 42  1  0
 18 43  1  0
 20 44  1  0
 20 45  1  0
 21 46  1  0
 23 47  1  0
 24 48  1  0
 25 49  1  0
 26 50  1  0
 27 51  1  0
 30 52  1  0
 31 53  1  0
 32 54  1  0
 33 55  1  0
 34 56  1  0
M  CHG  3   8  -1  12  -1  28  -1
M  END
>  <UniqueID>  (53) 
52

>  <SMILES>  (53) 
O=C(CNS(=O)(=O)[N-]S(=O)(=O)[N-]Cc1ccccc1CNc1ccccc1)[N-]c1ccccc1

>  <Energy>  (53) 
50.90040808606028

>  <Genealogy>  (53) 
O=C(CNS(=O)(=O)[N-]S(=O)(=O)[N-]Cc1ccccc1CNc1ccccc1)[N-]c1ccccc1 (protonated)
O=C(CNS(=O)(=O)[N-]S(=O)(=O)[N-]Cc1ccccc1CNc1ccccc1)[N-]c1ccccc1 (3D coordinates assigned)
O=C(CNS(=O)(=O)[N-]S(=O)(=O)[N-]Cc1ccccc1CNc1ccccc1)[N-]c1ccccc1 (optimized conformer: 50.90040808606028 kcal/mol)

>  <smiles>  (53) 
O=C(CNS(=O)(=O)NS(=O)(=O)NCc1ccccc1CNc1ccccc1)Nc1ccccc1

>  <score_type>  (53) 
oracle

>  <origin>  (53) 
adg

>  <m_score__min__energy>  (53) 
-13.92

>  <m_primary>  (53) 
energy

$$$$
53:0
     RDKit          3D

 56 58  0  0  0  0  0  0  0  0999 V2000
   50.6400   32.3410   50.4690 H   0  0  0  0  0  0  0  0  0  0  0  0
   51.4570   32.3020   51.1160 N   0  0  0  0  0  0  0  0  0  0  0  0
   51.7550   30.6330   51.4530 S   0  0  0  0  0  0  0  0  0  0  0  0
   51.7880   29.8690   50.1620 O   0  0  0  0  0  0  0  0  0  0  0  0
   50.6480   30.0870   52.3110 O   0  0  0  0  0  0  0  0  0  0  0  0
   53.2900   30.4690   52.3000 C   0  0  0  0  0  0  0  0  0  0  0  0
   53.3530   29.8460   53.5550 C   0  0  0  0  0  0  0  0  0  0  0  0
   52.4373   29.4499   54.0183 H   0  0  0  0  0  0  0  0  0  0  0  0
   54.5770   29.7280   54.2170 C   0  0  0  0  0  0  0  0  0  0  0  0
   54.6219   29.2440   55.2038 H   0  0  0  0  0  0  0  0  0  0  0  0
   55.7460   30.2230   53.6300 C   0  0  0  0  0  0  0  0  0  0  0  0
   56.7062   30.1280   54.1582 H   0  0  0  0  0  0  0  0  0  0  0  0
   55.7000   30.8410   52.3690 C   0  0  0  0  0  0  0  0  0  0  0  0
   56.9450   31.3700   51.7520 C   0  0  0  0  0  0  0  0  0  0  0  0
   57.3670   32.6120   52.0750 C   0  0  0  0  0  0  0  0  0  0  0  0
   56.7438   33.4574   51.7479 H   0  0  0  0  0  0  0  0  0  0  0  0
   58.5990   32.9300   52.8330 C   0  0  0  0  0  0  0  0  0  0  0  0
   58.7550   32.5150   54.1680 C   0  0  0  0  0  0  0  0  0  0  0  0
   57.9410   31.9740   54.6727 H   0  0  0  0  0  0  0  0  0  0  0  0
   59.9410   32.7880   54.8550 C   0  0  0  0  0  0  0  0  0  0  0  0
   60.0497   32.4774   55.9046 H   0  0  0  0  0  0  0  0  0  0  0  0
   60.9850   33.4510   54.2170 C   0  0  0  0  0  0  0  0  0  0  0  0
   61.9113   33.6730   54.7671 H   0  0  0  0  0  0  0  0  0  0  0  0
   60.8600   33.8350   52.8810 C   0  0  0  0  0  0  0  0  0  0  0  0
   61.6955   34.3427   52.3769 H   0  0  0  0  0  0  0  0  0  0  0  0
   59.6670   33.5750   52.1740 C   0  0  0  0  0  0  0  0  0  0  0  0
   59.5030   33.9370   50.8290 O   0  0  0  0  0  0  0  0  0  0  0  0
   60.5130   33.4380   49.5410 S   0  0  0  0  0  0  0  0  0  0  0  0
   61.3770   34.5930   49.1100 O   0  0  0  0  0  0  0  0  0  0  0  0
   61.3970   32.3190   50.0150 O   0  0  0  0  0  0  0  0  0  0  0  0
   59.5310   32.8620   48.1990 C   0  0  0  0  0  0  0  0  0  0  0  0
   59.2610   31.4960   48.0810 C   0  0  0  0  0  0  0  0  0  0  0  0
   59.6716   30.7910   48.8188 H   0  0  0  0  0  0  0  0  0  0  0  0
   58.4710   31.0210   47.0290 C   0  0  0  0  0  0  0  0  0  0  0  0
   58.2665   29.9438   46.9405 H   0  0  0  0  0  0  0  0  0  0  0  0
   57.9360   31.9170   46.0820 C   0  0  0  0  0  0  0  0  0  0  0  0
   57.1350   31.5010   45.0020 O   0  0  0  0  0  0  0  0  0  0  0  0
   57.2670   30.2740   44.2850 C   0  0  2  0  0  0  0  0  0  0  0  0
   56.9880   30.4301   43.2325 H   0  0  0  0  0  0  0  0  0  0  0  0
   56.3660   29.2570   44.9190 C   0  0  0  0  0  0  0  0  0  0  0  0
   55.1140   29.3660   44.8180 O   0  0  0  0  0  0  0  0  0  0  0  0
   56.9100   28.1880   45.6230 O   0  0  0  0  0  0  0  0  0  0  0  0
   58.7150   29.7800   44.3280 C   0  0  0  0  0  0  0  0  0  0  0  0
   59.0343   29.6711   45.3750 H   0  0  0  0  0  0  0  0  0  0  0  0
   58.7857   28.8069   43.8200 H   0  0  0  0  0  0  0  0  0  0  0  0
   59.3657   30.5070   43.8200 H   0  0  0  0  0  0  0  0  0  0  0  0
   58.2140   33.2860   46.2100 C   0  0  0  0  0  0  0  0  0  0  0  0
   57.8031   33.9959   45.4770 H   0  0  0  0  0  0  0  0  0  0  0  0
   59.0060   33.7560   47.2570 C   0  0  0  0  0  0  0  0  0  0  0  0
   59.2191   34.8317   47.3435 H   0  0  0  0  0  0  0  0  0  0  0  0
   57.6840   30.4910   50.7700 C   0  0  0  0  0  0  0  0  0  0  0  0
   58.2971   29.7618   51.3199 H   0  0  0  0  0  0  0  0  0  0  0  0
   56.9590   29.9577   50.1376 H   0  0  0  0  0  0  0  0  0  0  0  0
   58.3339   31.1136   50.1376 H   0  0  0  0  0  0  0  0  0  0  0  0
   54.4610   30.9660   51.7130 C   0  0  0  0  0  0  0  0  0  0  0  0
   54.4117   31.4584   50.7306 H   0  0  0  0  0  0  0  0  0  0  0  0
  1  2  1  0
  2  3  1  0
  3  4  2  0
  3  5  2  0
  3  6  1  0
  6  7  2  0
  7  8  1  0
  7  9  1  0
  9 10  1  0
  9 11  2  0
 11 12  1  0
 11 13  1  0
 13 14  1  0
 14 15  2  0
 15 16  1  0
 15 17  1  0
 17 18  2  0
 18 19  1  0
 18 20  1  0
 20 21  1  0
 20 22  2  0
 22 23  1  0
 22 24  1  0
 24 25  1  0
 24 26  2  0
 26 27  1  0
 27 28  1  0
 28 29  2  0
 28 30  2  0
 28 31  1  0
 31 32  2  0
 32 33  1  0
 32 34  1  0
 34 35  1  0
 34 36  2  0
 36 37  1  0
 37 38  1  0
 38 39  1  6
 38 40  1  0
 40 41  2  0
 40 42  1  0
 38 43  1  0
 43 44  1  0
 43 45  1  0
 43 46  1  0
 36 47  1  0
 47 48  1  0
 47 49  2  0
 49 50  1  0
 14 51  1  0
 51 52  1  0
 51 53  1  0
 51 54  1  0
 13 55  2  0
 55 56  1  0
 55  6  1  0
 26 17  1  0
 49 31  1  0
M  CHG  2   2  -1  42  -1
M  END
>  <UniqueID>  (54) 
53

>  <SMILES>  (54) 
C/C(=C\c1ccccc1OS(=O)(=O)c1ccc(O[C@@H](C)C(=O)[O-])cc1)c1cccc(S([NH-])(=O)=O)c1

>  <Energy>  (54) 
67.04259139297808

>  <Genealogy>  (54) 
CC(=Cc1ccccc1OS(=O)(=O)c1ccc(OC(C)C(=O)[O-])cc1)c1cccc(S([NH-])(=O)=O)c1 (protonated)
CC(=Cc1ccccc1OS(=O)(=O)c1ccc(O[C@@H](C)C(=O)[O-])cc1)c1cccc(S([NH-])(=O)=O)c1 (chirality)
C/C(=C\c1ccccc1OS(=O)(=O)c1ccc(O[C@@H](C)C(=O)[O-])cc1)c1cccc(S([NH-])(=O)=O)c1 (cis-trans isomerization)
C/C(=C\c1ccccc1OS(=O)(=O)c1ccc(O[C@@H](C)C(=O)[O-])cc1)c1cccc(S([NH-])(=O)=O)c1 (3D coordinates assigned)
C/C(=C\c1ccccc1OS(=O)(=O)c1ccc(O[C@@H](C)C(=O)[O-])cc1)c1cccc(S([NH-])(=O)=O)c1 (optimized conformer: 67.04259139297808 kcal/mol)

>  <smiles>  (54) 
CC(=Cc1ccccc1OS(=O)(=O)c1ccc(OC(C)C(=O)O)cc1)c1cccc(S(N)(=O)=O)c1

>  <score_type>  (54) 
oracle

>  <origin>  (54) 
adg

>  <m_score__min__energy>  (54) 
-15.949999999999999

>  <m_primary>  (54) 
energy

$$$$
54:0
     RDKit          3D

 44 46  0  0  0  0  0  0  0  0999 V2000
   57.5480   26.4340   45.6090 C   0  0  0  0  0  0  0  0  0  0  0  0
   56.1780   27.0310   45.7020 C   0  0  0  0  0  0  0  0  0  0  0  0
   55.2380   26.3530   46.1960 O   0  0  0  0  0  0  0  0  0  0  0  0
   55.9110   28.3610   45.2450 N   0  0  0  0  0  0  0  0  0  0  0  0
   56.8720   29.1760   44.5070 C   0  0  0  0  0  0  0  0  0  0  0  0
   57.9540   29.7280   45.4580 C   0  0  1  0  0  0  0  0  0  0  0  0
   59.2860   28.9600   45.2810 C   0  0  0  0  0  0  0  0  0  0  0  0
   60.4830   29.5870   46.0360 C   0  0  0  0  0  0  0  0  0  0  0  0
   60.1190   30.8150   46.8860 C   0  0  0  0  0  0  0  0  0  0  0  0
   59.2670   31.7870   46.0860 C   0  0  0  0  0  0  0  0  0  0  0  0
   58.2100   31.2280   45.3310 C   0  0  0  0  0  0  0  0  0  0  0  0
   57.4270   32.0770   44.5350 C   0  0  0  0  0  0  0  0  0  0  0  0
   57.6910   33.4380   44.5010 C   0  0  0  0  0  0  0  0  0  0  0  0
   58.7120   33.9690   45.2870 C   0  0  0  0  0  0  0  0  0  0  0  0
   58.9240   35.2120   45.2350 O   0  0  0  0  0  0  0  0  0  0  0  0
   59.4690   33.1570   46.0990 N   0  0  0  0  0  0  0  0  0  0  0  0
   60.5070   33.7770   46.9490 C   0  0  0  0  0  0  0  0  0  0  0  0
   59.8700   34.4950   48.1430 C   0  0  0  0  0  0  0  0  0  0  0  0
   59.5300   33.5330   49.1870 N   0  0  0  0  0  0  0  0  0  0  0  0
   60.0560   33.4580   50.4190 C   0  0  0  0  0  0  0  0  0  0  0  0
   59.3940   32.4610   51.0990 C   0  0  0  0  0  0  0  0  0  0  0  0
   58.4470   31.9220   50.3030 N   0  0  0  0  0  0  0  0  0  0  0  0
   58.5550   32.6050   49.1440 C   0  0  0  0  0  0  0  0  0  0  0  0
   57.9425   26.2621   46.6213 H   0  0  0  0  0  0  0  0  0  0  0  0
   57.4952   25.4773   45.0687 H   0  0  0  0  0  0  0  0  0  0  0  0
   58.2128   27.1240   45.0687 H   0  0  0  0  0  0  0  0  0  0  0  0
   57.3511   28.5588   43.7327 H   0  0  0  0  0  0  0  0  0  0  0  0
   56.3409   30.0204   44.0434 H   0  0  0  0  0  0  0  0  0  0  0  0
   57.5484   29.5688   46.4680 H   0  0  0  0  0  0  0  0  0  0  0  0
   59.1444   27.9335   45.6501 H   0  0  0  0  0  0  0  0  0  0  0  0
   59.5329   28.9965   44.2097 H   0  0  0  0  0  0  0  0  0  0  0  0
   60.9105   28.8219   46.7007 H   0  0  0  0  0  0  0  0  0  0  0  0
   61.1936   29.9320   45.2705 H   0  0  0  0  0  0  0  0  0  0  0  0
   59.5568   30.4869   47.7727 H   0  0  0  0  0  0  0  0  0  0  0  0
   61.0461   31.3233   47.1893 H   0  0  0  0  0  0  0  0  0  0  0  0
   56.6022   31.6626   43.9367 H   0  0  0  0  0  0  0  0  0  0  0  0
   57.0948   34.0981   43.8539 H   0  0  0  0  0  0  0  0  0  0  0  0
   61.1863   32.9946   47.3184 H   0  0  0  0  0  0  0  0  0  0  0  0
   61.0631   34.5125   46.3491 H   0  0  0  0  0  0  0  0  0  0  0  0
   60.5808   35.2318   48.5454 H   0  0  0  0  0  0  0  0  0  0  0  0
   58.9525   35.0017   47.8093 H   0  0  0  0  0  0  0  0  0  0  0  0
   60.8708   34.0819   50.8150 H   0  0  0  0  0  0  0  0  0  0  0  0
   59.6047   32.1510   52.1332 H   0  0  0  0  0  0  0  0  0  0  0  0
   57.9193   32.4243   48.2647 H   0  0  0  0  0  0  0  0  0  0  0  0
  1  2  1  0
  2  3  2  0
  2  4  1  0
  4  5  1  0
  5  6  1  0
  6  7  1  0
  7  8  1  0
  8  9  1  0
  9 10  1  0
 10 11  2  0
 11 12  1  0
 12 13  2  0
 13 14  1  0
 14 15  2  0
 14 16  1  0
 16 17  1  0
 17 18  1  0
 18 19  1  0
 19 20  1  0
 20 21  2  0
 21 22  1  0
 22 23  2  0
 11  6  1  0
 23 19  1  0
 16 10  1  0
  1 24  1  0
  1 25  1  0
  1 26  1  0
  5 27  1  0
  5 28  1  0
  6 29  1  1
  7 30  1  0
  7 31  1  0
  8 32  1  0
  8 33  1  0
  9 34  1  0
  9 35  1  0
 12 36  1  0
 13 37  1  0
 17 38  1  0
 17 39  1  0
 18 40  1  0
 18 41  1  0
 20 42  1  0
 21 43  1  0
 23 44  1  0
M  CHG  1   4  -1
M  END
>  <UniqueID>  (55) 
54

>  <SMILES>  (55) 
CC(=O)[N-]C[C@H]1CCCc2c1ccc(=O)n2CCn1ccnc1

>  <Energy>  (55) 
81.23655305560031

>  <Genealogy>  (55) 
CC(=O)[N-]CC1CCCc2c1ccc(=O)n2CCn1ccnc1 (protonated)
CC(=O)[N-]C[C@H]1CCCc2c1ccc(=O)n2CCn1ccnc1 (chirality)
CC(=O)[N-]C[C@H]1CCCc2c1ccc(=O)n2CCn1ccnc1 (3D coordinates assigned)
CC(=O)[N-]C[C@H]1CCCc2c1ccc(=O)n2CCn1ccnc1 (nonaromatic ring conformer: 81.23655305560031 kcal/mol)

>  <smiles>  (55) 
CC(=O)NCC1CCCc2c1ccc(=O)n2CCn1ccnc1

>  <score_type>  (55) 
oracle

>  <origin>  (55) 
adg

>  <m_score__min__energy>  (55) 
-9.8399999999999999

>  <m_primary>  (55) 
energy

$$$$
55:0
     RDKit          3D

 56 58  0  0  0  0  0  0  0  0999 V2000
   61.5680   32.1400   52.3010 O   0  0  0  0  0  0  0  0  0  0  0  0
   60.8190   32.5660   51.3820 C   0  0  0  0  0  0  0  0  0  0  0  0
   61.0950   33.9030   50.7380 C   0  0  0  0  0  0  0  0  0  0  0  0
   61.3900   33.7810   49.2640 C   0  0  0  0  0  0  0  0  0  0  0  0
   62.5310   33.0900   48.8240 C   0  0  0  0  0  0  0  0  0  0  0  0
   62.7790   32.9450   47.4570 C   0  0  0  0  0  0  0  0  0  0  0  0
   61.8900   33.4770   46.5210 C   0  0  0  0  0  0  0  0  0  0  0  0
   60.7440   34.1600   46.9470 C   0  0  0  0  0  0  0  0  0  0  0  0
   59.6100   34.7850   45.7520 S   0  0  0  0  0  0  0  0  0  0  0  0
   59.9720   34.2160   44.4080 O   0  0  0  0  0  0  0  0  0  0  0  0
   59.7130   36.2850   45.6830 O   0  0  0  0  0  0  0  0  0  0  0  0
   57.9880   34.2990   46.2010 N   0  0  0  0  0  0  0  0  0  0  0  0
   57.1730   33.9410   45.0190 C   0  0  0  0  0  0  0  0  0  0  0  0
   57.0790   32.4210   44.7980 C   0  0  0  0  0  0  0  0  0  0  0  0
   58.2700   31.7920   45.2140 O   0  0  0  0  0  0  0  0  0  0  0  0
   58.3940   31.8580   46.6240 C   0  0  0  0  0  0  0  0  0  0  0  0
   58.0010   33.2320   47.2190 C   0  0  0  0  0  0  0  0  0  0  0  0
   60.4930   34.3070   48.3200 C   0  0  0  0  0  0  0  0  0  0  0  0
   59.6700   31.7860   51.0190 N   0  0  0  0  0  0  0  0  0  0  0  0
   58.5910   31.4100   51.9270 C   0  0  0  0  0  0  0  0  0  0  0  0
   57.6080   30.4700   51.2260 C   0  0  0  0  0  0  0  0  0  0  0  0
   56.2310   30.8190   51.5740 N   0  0  0  0  0  0  0  0  0  0  0  0
   55.3960   29.9690   52.3740 C   0  0  0  0  0  0  0  0  0  0  0  0
   55.8060   28.8350   52.7410 O   0  0  0  0  0  0  0  0  0  0  0  0
   54.0410   30.4420   52.8150 C   0  0  0  0  0  0  0  0  0  0  0  0
   52.9240   29.7930   51.9910 C   0  0  0  0  0  0  0  0  0  0  0  0
   52.2430   30.7870   51.0990 C   0  0  0  0  0  0  0  0  0  0  0  0
   52.1780   32.1450   51.3000 C   0  0  0  0  0  0  0  0  0  0  0  0
   51.4120   32.6900   50.3390 N   0  0  0  0  0  0  0  0  0  0  0  0
   51.0310   31.6360   49.5850 C   0  0  0  0  0  0  0  0  0  0  0  0
   51.5140   30.4540   50.0200 N   0  0  0  0  0  0  0  0  0  0  0  0
   60.2132   34.5473   50.8697 H   0  0  0  0  0  0  0  0  0  0  0  0
   61.9838   34.3322   51.2236 H   0  0  0  0  0  0  0  0  0  0  0  0
   63.2305   32.6623   49.5573 H   0  0  0  0  0  0  0  0  0  0  0  0
   63.6778   32.4098   47.1168 H   0  0  0  0  0  0  0  0  0  0  0  0
   62.0903   33.3593   45.4458 H   0  0  0  0  0  0  0  0  0  0  0  0
   56.1572   34.3394   45.1587 H   0  0  0  0  0  0  0  0  0  0  0  0
   57.6632   34.3746   44.1349 H   0  0  0  0  0  0  0  0  0  0  0  0
   56.2352   32.0212   45.3794 H   0  0  0  0  0  0  0  0  0  0  0  0
   56.9253   32.2238   43.7268 H   0  0  0  0  0  0  0  0  0  0  0  0
   57.7436   31.0890   47.0663 H   0  0  0  0  0  0  0  0  0  0  0  0
   59.4558   31.6964   46.8615 H   0  0  0  0  0  0  0  0  0  0  0  0
   56.9968   33.1521   47.6608 H   0  0  0  0  0  0  0  0  0  0  0  0
   58.7527   33.4984   47.9766 H   0  0  0  0  0  0  0  0  0  0  0  0
   59.5900   34.8364   48.6581 H   0  0  0  0  0  0  0  0  0  0  0  0
   59.0164   30.9010   52.8045 H   0  0  0  0  0  0  0  0  0  0  0  0
   58.0551   32.3181   52.2402 H   0  0  0  0  0  0  0  0  0  0  0  0
   57.7392   30.5551   50.1372 H   0  0  0  0  0  0  0  0  0  0  0  0
   57.8074   29.4384   51.5517 H   0  0  0  0  0  0  0  0  0  0  0  0
   55.8510   31.7320   51.2380 H   0  0  0  0  0  0  0  0  0  0  0  0
   53.8997   30.1835   53.8748 H   0  0  0  0  0  0  0  0  0  0  0  0
   53.9907   31.5309   52.6674 H   0  0  0  0  0  0  0  0  0  0  0  0
   53.3569   28.9949   51.3700 H   0  0  0  0  0  0  0  0  0  0  0  0
   52.1751   29.3884   52.6877 H   0  0  0  0  0  0  0  0  0  0  0  0
   52.6719   32.6959   52.1140 H   0  0  0  0  0  0  0  0  0  0  0  0
   50.3868   31.7326   48.6986 H   0  0  0  0  0  0  0  0  0  0  0  0
  1  2  2  0
  2  3  1  0
  3  4  1  0
  4  5  2  0
  5  6  1  0
  6  7  2  0
  7  8  1  0
  8  9  1  0
  9 10  2  0
  9 11  2  0
  9 12  1  0
 12 13  1  0
 13 14  1  0
 14 15  1  0
 15 16  1  0
 16 17  1  0
  8 18  2  0
  2 19  1  0
 19 20  1  0
 20 21  1  0
 21 22  1  0
 22 23  1  0
 23 24  2  0
 23 25  1  0
 25 26  1  0
 26 27  1  0
 27 28  2  0
 28 29  1  0
 29 30  1  0
 30 31  2  0
 18  4  1  0
 31 27  1  0
 17 12  1  0
  3 32  1  0
  3 33  1  0
  5 34  1  0
  6 35  1  0
  7 36  1  0
 13 37  1  0
 13 38  1  0
 14 39  1  0
 14 40  1  0
 16 41  1  0
 16 42  1  0
 17 43  1  0
 17 44  1  0
 18 45  1  0
 20 46  1  0
 20 47  1  0
 21 48  1  0
 21 49  1  0
 22 50  1  0
 25 51  1  0
 25 52  1  0
 26 53  1  0
 26 54  1  0
 28 55  1  0
 30 56  1  0
M  CHG  2  19  -1  29  -1
M  END
>  <UniqueID>  (56) 
55

>  <SMILES>  (56) 
O=C(Cc1cccc(S(=O)(=O)N2CCOCC2)c1)[N-]CCNC(=O)CCc1c[n-]cn1

>  <Energy>  (56) 
83.67548845996629

>  <Genealogy>  (56) 
O=C(Cc1cccc(S(=O)(=O)N2CCOCC2)c1)[N-]CCNC(=O)CCc1c[n-]cn1 (protonated)
O=C(Cc1cccc(S(=O)(=O)N2CCOCC2)c1)[N-]CCNC(=O)CCc1c[n-]cn1 (3D coordinates assigned)
O=C(Cc1cccc(S(=O)(=O)N2CCOCC2)c1)[N-]CCNC(=O)CCc1c[n-]cn1 (nonaromatic ring conformer: 83.67548845996629 kcal/mol)

>  <smiles>  (56) 
O=C(CCc1c[nH]cn1)NCCNC(=O)Cc1cccc(S(=O)(=O)N2CCOCC2)c1

>  <score_type>  (56) 
oracle

>  <origin>  (56) 
adg

>  <m_score__min__energy>  (56) 
-13.109999999999999

>  <m_primary>  (56) 
energy

$$$$
56:0
     RDKit          3D

 62 65  0  0  0  0  0  0  0  0999 V2000
   58.6680   31.1730   44.9610 C   0  0  0  0  0  0  0  0  0  0  0  0
   57.4230   31.8810   44.4230 C   0  0  2  0  0  0  0  0  0  0  0  0
   57.3570   33.3560   44.8860 C   0  0  0  0  0  0  0  0  0  0  0  0
   58.1490   33.6250   46.1450 C   0  0  0  0  0  0  0  0  0  0  0  0
   59.0930   34.6680   46.1820 C   0  0  0  0  0  0  0  0  0  0  0  0
   59.8030   34.9380   47.3540 C   0  0  0  0  0  0  0  0  0  0  0  0
   59.5900   34.1620   48.4980 C   0  0  0  0  0  0  0  0  0  0  0  0
   58.6600   33.1200   48.4690 C   0  0  0  0  0  0  0  0  0  0  0  0
   57.9400   32.8520   47.2990 C   0  0  0  0  0  0  0  0  0  0  0  0
   56.2350   31.1420   44.8430 N   0  0  0  0  0  0  0  0  0  0  0  0
   55.8550   29.8630   44.3250 C   0  0  0  0  0  0  0  0  0  0  0  0
   54.7700   29.7230   43.6980 O   0  0  0  0  0  0  0  0  0  0  0  0
   56.7160   28.6780   44.6290 C   0  0  0  0  0  0  0  0  0  0  0  0
   56.0130   27.7170   45.4770 N   0  0  0  0  0  0  0  0  0  0  0  0
   56.6100   26.7190   46.3170 C   0  0  0  0  0  0  0  0  0  0  0  0
   55.9210   25.7150   46.6330 O   0  0  0  0  0  0  0  0  0  0  0  0
   58.0140   26.7920   46.7800 C   0  0  0  0  0  0  0  0  0  0  0  0
   59.0350   26.2240   45.9990 C   0  0  0  0  0  0  0  0  0  0  0  0
   60.3770   26.4030   46.3480 C   0  0  0  0  0  0  0  0  0  0  0  0
   60.7120   27.1250   47.4950 C   0  0  0  0  0  0  0  0  0  0  0  0
   59.7080   27.6980   48.2870 C   0  0  0  0  0  0  0  0  0  0  0  0
   60.1520   28.6170   49.7240 S   0  0  0  0  0  0  0  0  0  0  0  0
   58.9230   29.3180   50.2320 O   0  0  0  0  0  0  0  0  0  0  0  0
   60.6530   27.6730   50.7850 O   0  0  0  0  0  0  0  0  0  0  0  0
   61.3880   29.7880   49.3070 N   0  0  0  0  0  0  0  0  0  0  0  0
   61.8300   30.5120   50.5130 C   0  0  0  0  0  0  0  0  0  0  0  0
   63.0890   31.3160   50.1860 C   0  0  0  0  0  0  0  0  0  0  0  0
   62.9340   32.1040   48.9080 C   0  0  0  0  0  0  0  0  0  0  0  0
   63.8580   33.1170   48.6050 C   0  0  0  0  0  0  0  0  0  0  0  0
   63.7580   33.8250   47.4070 C   0  0  0  0  0  0  0  0  0  0  0  0
   62.7430   33.5200   46.4950 C   0  0  0  0  0  0  0  0  0  0  0  0
   61.8270   32.5060   46.7790 C   0  0  0  0  0  0  0  0  0  0  0  0
   61.9240   31.7800   47.9750 C   0  0  0  0  0  0  0  0  0  0  0  0
   60.8770   30.7450   48.3110 C   0  0  0  0  0  0  0  0  0  0  0  0
   58.3640   27.5570   47.9060 C   0  0  0  0  0  0  0  0  0  0  0  0
   58.6494   31.1836   46.0608 H   0  0  0  0  0  0  0  0  0  0  0  0
   58.6809   30.1324   44.6045 H   0  0  0  0  0  0  0  0  0  0  0  0
   59.5689   31.6939   44.6045 H   0  0  0  0  0  0  0  0  0  0  0  0
   57.4724   31.8991   43.3243 H   0  0  0  0  0  0  0  0  0  0  0  0
   57.7541   33.9923   44.0814 H   0  0  0  0  0  0  0  0  0  0  0  0
   56.3036   33.5795   45.1106 H   0  0  0  0  0  0  0  0  0  0  0  0
   59.2728   35.2745   45.2821 H   0  0  0  0  0  0  0  0  0  0  0  0
   60.5310   35.7623   47.3774 H   0  0  0  0  0  0  0  0  0  0  0  0
   60.1538   34.3718   49.4189 H   0  0  0  0  0  0  0  0  0  0  0  0
   58.4931   32.5085   49.3680 H   0  0  0  0  0  0  0  0  0  0  0  0
   57.2069   32.0320   47.2832 H   0  0  0  0  0  0  0  0  0  0  0  0
   56.9959   28.1865   43.6856 H   0  0  0  0  0  0  0  0  0  0  0  0
   57.6109   29.0263   45.1655 H   0  0  0  0  0  0  0  0  0  0  0  0
   58.7765   25.6345   45.1070 H   0  0  0  0  0  0  0  0  0  0  0  0
   61.1702   25.9743   45.7178 H   0  0  0  0  0  0  0  0  0  0  0  0
   61.7682   27.2445   47.7781 H   0  0  0  0  0  0  0  0  0  0  0  0
   61.0337   31.1947   50.8444 H   0  0  0  0  0  0  0  0  0  0  0  0
   62.0501   29.7923   51.3152 H   0  0  0  0  0  0  0  0  0  0  0  0
   63.2907   32.0135   51.0123 H   0  0  0  0  0  0  0  0  0  0  0  0
   63.9215   30.6093   50.0534 H   0  0  0  0  0  0  0  0  0  0  0  0
   64.6641   33.3533   49.3152 H   0  0  0  0  0  0  0  0  0  0  0  0
   64.4787   34.6243   47.1796 H   0  0  0  0  0  0  0  0  0  0  0  0
   62.6663   34.0805   45.5516 H   0  0  0  0  0  0  0  0  0  0  0  0
   61.0256   32.2753   46.0617 H   0  0  0  0  0  0  0  0  0  0  0  0
   59.9887   31.2498   48.7186 H   0  0  0  0  0  0  0  0  0  0  0  0
   60.6181   30.1950   47.3942 H   0  0  0  0  0  0  0  0  0  0  0  0
   57.5767   28.0504   48.4949 H   0  0  0  0  0  0  0  0  0  0  0  0
  1  2  1  0
  2  3  1  0
  3  4  1  0
  4  5  2  0
  5  6  1  0
  6  7  2  0
  7  8  1  0
  8  9  2  0
  2 10  1  0
 10 11  1  0
 11 12  2  0
 11 13  1  0
 13 14  1  0
 14 15  1  0
 15 16  2  0
 15 17  1  0
 17 18  2  0
 18 19  1  0
 19 20  2  0
 20 21  1  0
 21 22  1  0
 22 23  2  0
 22 24  2  0
 22 25  1  0
 25 26  1  0
 26 27  1  0
 27 28  1  0
 28 29  2  0
 29 30  1  0
 30 31  2  0
 31 32  1  0
 32 33  2  0
 33 34  1  0
 21 35  2  0
  9  4  1  0
 35 17  1  0
 34 25  1  0
 33 28  1  0
  1 36  1  0
  1 37  1  0
  1 38  1  0
  2 39  1  6
  3 40  1  0
  3 41  1  0
  5 42  1  0
  6 43  1  0
  7 44  1  0
  8 45  1  0
  9 46  1  0
 13 47  1  0
 13 48  1  0
 18 49  1  0
 19 50  1  0
 20 51  1  0
 26 52  1  0
 26 53  1  0
 27 54  1  0
 27 55  1  0
 29 56  1  0
 30 57  1  0
 31 58  1  0
 32 59  1  0
 34 60  1  0
 34 61  1  0
 35 62  1  0
M  CHG  2  10  -1  14  -1
M  END
>  <UniqueID>  (57) 
56

>  <SMILES>  (57) 
C[C@H](Cc1ccccc1)[N-]C(=O)C[N-]C(=O)c1cccc(S(=O)(=O)N2CCc3ccccc3C2)c1

>  <Energy>  (57) 
64.56063740489854

>  <Genealogy>  (57) 
CC(Cc1ccccc1)[N-]C(=O)C[N-]C(=O)c1cccc(S(=O)(=O)N2CCc3ccccc3C2)c1 (protonated)
C[C@H](Cc1ccccc1)[N-]C(=O)C[N-]C(=O)c1cccc(S(=O)(=O)N2CCc3ccccc3C2)c1 (chirality)
C[C@H](Cc1ccccc1)[N-]C(=O)C[N-]C(=O)c1cccc(S(=O)(=O)N2CCc3ccccc3C2)c1 (3D coordinates assigned)
C[C@H](Cc1ccccc1)[N-]C(=O)C[N-]C(=O)c1cccc(S(=O)(=O)N2CCc3ccccc3C2)c1 (nonaromatic ring conformer: 64.56063740489854 kcal/mol)

>  <smiles>  (57) 
CC(Cc1ccccc1)NC(=O)CNC(=O)c1cccc(S(=O)(=O)N2CCc3ccccc3C2)c1

>  <score_type>  (57) 
oracle

>  <origin>  (57) 
adg

>  <m_score__min__energy>  (57) 
-14.31

>  <m_primary>  (57) 
energy

$$$$
57:0
     RDKit          3D

 74 77  0  0  0  0  0  0  0  0999 V2000
   59.7160   34.2100   50.0400 C   0  0  0  0  0  0  0  0  0  0  0  0
   59.4140   33.9540   48.6020 C   0  0  0  0  0  0  0  0  0  0  0  0
   58.7350   32.8590   48.1080 C   0  0  0  0  0  0  0  0  0  0  0  0
   58.6060   33.1170   46.7580 C   0  0  0  0  0  0  0  0  0  0  0  0
   57.9040   32.2530   45.7840 C   0  0  0  0  0  0  0  0  0  0  0  0
   56.8260   32.6450   45.2660 O   0  0  0  0  0  0  0  0  0  0  0  0
   58.4580   30.9990   45.3620 N   0  0  0  0  0  0  0  0  0  0  0  0
   58.7210   29.8720   46.2120 C   0  0  0  0  0  0  0  0  0  0  0  0
   59.4590   30.0060   47.3990 C   0  0  0  0  0  0  0  0  0  0  0  0
   59.7110   28.8920   48.2120 C   0  0  0  0  0  0  0  0  0  0  0  0
   60.5480   29.0590   49.4140 C   0  0  0  0  0  0  0  0  0  0  0  0
   61.3140   28.1220   49.7590 O   0  0  0  0  0  0  0  0  0  0  0  0
   60.3330   30.1480   50.3200 N   0  0  0  0  0  0  0  0  0  0  0  0
   61.3590   31.0500   50.8540 C   0  0  2  0  0  0  0  0  0  0  0  0
   62.6740   30.8830   50.0630 C   0  0  0  0  0  0  0  0  0  0  0  0
   62.7920   31.8800   48.9350 C   0  0  0  0  0  0  0  0  0  0  0  0
   63.7150   32.9360   49.0160 C   0  0  0  0  0  0  0  0  0  0  0  0
   63.8070   33.8740   47.9840 C   0  0  0  0  0  0  0  0  0  0  0  0
   62.9870   33.7590   46.8590 C   0  0  0  0  0  0  0  0  0  0  0  0
   62.0740   32.7040   46.7650 C   0  0  0  0  0  0  0  0  0  0  0  0
   61.9770   31.7670   47.7960 C   0  0  0  0  0  0  0  0  0  0  0  0
   61.5840   30.7470   52.3600 C   0  0  2  0  0  0  0  0  0  0  0  0
   61.6950   29.3610   52.5650 O   0  0  0  0  0  0  0  0  0  0  0  0
   60.4760   31.3330   53.2600 C   0  0  0  0  0  0  0  0  0  0  0  0
   59.1590   30.7640   52.9490 N   0  0  0  0  0  0  0  0  0  0  0  0
   58.2750   31.8220   52.4310 C   0  0  0  0  0  0  0  0  0  0  0  0
   57.7150   31.5810   51.0350 C   0  0  0  0  0  0  0  0  0  0  0  0
   56.8230   31.3990   52.2530 C   0  0  0  0  0  0  0  0  0  0  0  0
   59.1630   27.6500   47.8640 C   0  0  0  0  0  0  0  0  0  0  0  0
   58.4310   27.4960   46.6740 C   0  0  0  0  0  0  0  0  0  0  0  0
   57.9040   26.1700   46.2720 C   0  0  0  0  0  0  0  0  0  0  0  0
   58.7100   25.2560   45.9480 O   0  0  0  0  0  0  0  0  0  0  0  0
   56.4930   25.9020   46.2790 N   0  0  0  0  0  0  0  0  0  0  0  0
   55.9590   24.6260   45.8090 C   0  0  0  0  0  0  0  0  0  0  0  0
   54.5450   24.7950   45.2560 C   0  0  0  0  0  0  0  0  0  0  0  0
   53.9970   25.9930   45.7310 O   0  0  0  0  0  0  0  0  0  0  0  0
   58.2000   28.6220   45.8640 C   0  0  0  0  0  0  0  0  0  0  0  0
   59.1900   34.3050   46.4890 N   0  0  0  0  0  0  0  0  0  0  0  0
   59.2580   34.9820   45.1990 C   0  0  0  0  0  0  0  0  0  0  0  0
   59.6710   34.8270   47.6080 N   0  0  0  0  0  0  0  0  0  0  0  0
   59.0275   33.6264   50.6688 H   0  0  0  0  0  0  0  0  0  0  0  0
   60.7524   33.9111   50.2559 H   0  0  0  0  0  0  0  0  0  0  0  0
   59.5908   35.2813   50.2559 H   0  0  0  0  0  0  0  0  0  0  0  0
   58.3775   31.9797   48.6640 H   0  0  0  0  0  0  0  0  0  0  0  0
   59.8429   30.9939   47.6936 H   0  0  0  0  0  0  0  0  0  0  0  0
   61.0218   32.0916   50.7479 H   0  0  0  0  0  0  0  0  0  0  0  0
   63.5211   31.0240   50.7504 H   0  0  0  0  0  0  0  0  0  0  0  0
   62.6781   29.8744   49.6239 H   0  0  0  0  0  0  0  0  0  0  0  0
   64.3687   33.0250   49.8962 H   0  0  0  0  0  0  0  0  0  0  0  0
   64.5257   34.7035   48.0577 H   0  0  0  0  0  0  0  0  0  0  0  0
   63.0594   34.4980   46.0474 H   0  0  0  0  0  0  0  0  0  0  0  0
   61.4310   32.6120   45.8773 H   0  0  0  0  0  0  0  0  0  0  0  0
   61.2596   30.9370   47.7161 H   0  0  0  0  0  0  0  0  0  0  0  0
   62.5240   31.2400   52.6488 H   0  0  0  0  0  0  0  0  0  0  0  0
   61.3010   28.9170   51.7690 H   0  0  0  0  0  0  0  0  0  0  0  0
   60.7186   31.1145   54.3104 H   0  0  0  0  0  0  0  0  0  0  0  0
   60.4295   32.4173   53.0806 H   0  0  0  0  0  0  0  0  0  0  0  0
   59.2950   30.0190   52.2270 H   0  0  0  0  0  0  0  0  0  0  0  0
   58.7960   32.6562   52.9236 H   0  0  0  0  0  0  0  0  0  0  0  0
   57.5502   32.4294   50.3546 H   0  0  0  0  0  0  0  0  0  0  0  0
   58.0019   30.9510   50.1802 H   0  0  0  0  0  0  0  0  0  0  0  0
   56.0130   32.1158   52.4533 H   0  0  0  0  0  0  0  0  0  0  0  0
   56.1976   30.5827   52.6436 H   0  0  0  0  0  0  0  0  0  0  0  0
   59.3073   26.7861   48.5295 H   0  0  0  0  0  0  0  0  0  0  0  0
   55.8360   26.6170   46.6690 H   0  0  0  0  0  0  0  0  0  0  0  0
   56.6113   24.2336   45.0150 H   0  0  0  0  0  0  0  0  0  0  0  0
   55.9223   23.9273   46.6578 H   0  0  0  0  0  0  0  0  0  0  0  0
   54.5818   24.8192   44.1569 H   0  0  0  0  0  0  0  0  0  0  0  0
   53.9202   23.9511   45.5839 H   0  0  0  0  0  0  0  0  0  0  0  0
   54.3630   26.7110   45.1520 H   0  0  0  0  0  0  0  0  0  0  0  0
   57.6026   28.5183   44.9462 H   0  0  0  0  0  0  0  0  0  0  0  0
   59.3668   36.0649   45.3585 H   0  0  0  0  0  0  0  0  0  0  0  0
   60.1229   34.6061   44.6328 H   0  0  0  0  0  0  0  0  0  0  0  0
   58.3356   34.7856   44.6328 H   0  0  0  0  0  0  0  0  0  0  0  0
  1  2  1  0
  2  3  1  0
  3  4  2  0
  4  5  1  0
  5  6  2  0
  5  7  1  0
  7  8  1  0
  8  9  2  0
  9 10  1  0
 10 11  1  0
 11 12  2  0
 11 13  1  0
 13 14  1  0
 14 15  1  0
 15 16  1  0
 16 17  2  0
 17 18  1  0
 18 19  2  0
 19 20  1  0
 20 21  2  0
 14 22  1  0
 22 23  1  0
 22 24  1  0
 24 25  1  0
 25 26  1  0
 26 27  1  0
 27 28  1  0
 10 29  2  0
 29 30  1  0
 30 31  1  0
 31 32  2  0
 31 33  1  0
 33 34  1  0
 34 35  1  0
 35 36  1  0
 30 37  2  0
  4 38  1  0
 38 39  1  0
 38 40  1  0
 40  2  2  0
 37  8  1  0
 21 16  1  0
 28 26  1  0
  1 41  1  0
  1 42  1  0
  1 43  1  0
  3 44  1  0
  9 45  1  0
 14 46  1  1
 15 47  1  0
 15 48  1  0
 17 49  1  0
 18 50  1  0
 19 51  1  0
 20 52  1  0
 21 53  1  0
 22 54  1  1
 23 55  1  0
 24 56  1  0
 24 57  1  0
 25 58  1  0
 26 59  1  0
 27 60  1  0
 27 61  1  0
 28 62  1  0
 28 63  1  0
 29 64  1  0
 33 65  1  0
 34 66  1  0
 34 67  1  0
 35 68  1  0
 35 69  1  0
 36 70  1  0
 37 71  1  0
 39 72  1  0
 39 73  1  0
 39 74  1  0
M  CHG  2   7  -1  13  -1
M  END
>  <UniqueID>  (58) 
57

>  <SMILES>  (58) 
Cc1cc(C(=O)[N-]c2cc(C(=O)[N-][C@H](Cc3ccccc3)[C@H](O)CNC3CC3)cc(C(=O)NCCO)c2)n(C)n1

>  <Energy>  (58) 
377.5611425234428

>  <Genealogy>  (58) 
Cc1cc(C(=O)[N-]c2cc(C(=O)[N-]C(Cc3ccccc3)C(O)CNC3CC3)cc(C(=O)NCCO)c2)n(C)n1 (protonated)
Cc1cc(C(=O)[N-]c2cc(C(=O)[N-][C@H](Cc3ccccc3)[C@H](O)CNC3CC3)cc(C(=O)NCCO)c2)n(C)n1 (chirality)
Cc1cc(C(=O)[N-]c2cc(C(=O)[N-][C@H](Cc3ccccc3)[C@H](O)CNC3CC3)cc(C(=O)NCCO)c2)n(C)n1 (3D coordinates assigned)
Cc1cc(C(=O)[N-]c2cc(C(=O)[N-][C@H](Cc3ccccc3)[C@H](O)CNC3CC3)cc(C(=O)NCCO)c2)n(C)n1 (nonaromatic ring conformer: 377.5611425234428 kcal/mol)

>  <smiles>  (58) 
Cc1cc(C(=O)Nc2cc(C(=O)NCCO)cc(C(=O)NC(Cc3ccccc3)C(O)CNC3CC3)c2)n(C)n1

>  <score_type>  (58) 
oracle

>  <origin>  (58) 
adg

>  <m_score__min__energy>  (58) 
-11.210000000000001

>  <m_primary>  (58) 
energy

$$$$
58:0
     RDKit          3D

 51 54  0  0  0  0  0  0  0  0999 V2000
   55.9060   31.9950   52.3580 C   0  0  0  0  0  0  0  0  0  0  0  0
   55.3390   30.8670   52.8150 C   0  0  0  0  0  0  0  0  0  0  0  0
   54.1250   30.3110   52.3780 C   0  0  0  0  0  0  0  0  0  0  0  0
   53.1450   30.8170   51.6030 C   0  0  0  0  0  0  0  0  0  0  0  0
   52.0170   31.6380   52.0720 C   0  0  0  0  0  0  0  0  0  0  0  0
   51.6890   31.8260   53.3640 N   0  0  0  0  0  0  0  0  0  0  0  0
   50.5290   32.5150   53.2940 C   0  0  0  0  0  0  0  0  0  0  0  0
   49.9050   32.8980   54.3180 O   0  0  0  0  0  0  0  0  0  0  0  0
   50.0840   32.7510   52.0410 N   0  0  0  0  0  0  0  0  0  0  0  0
   51.0300   32.1760   51.2820 C   0  0  0  0  0  0  0  0  0  0  0  0
   50.9920   32.1400   49.8930 O   0  0  0  0  0  0  0  0  0  0  0  0
   54.0590   29.0440   52.9280 C   0  0  0  0  0  0  0  0  0  0  0  0
   55.1670   28.8960   53.7320 C   0  0  0  0  0  0  0  0  0  0  0  0
   55.4900   27.6480   54.4980 C   0  0  0  0  0  0  0  0  0  0  0  0
   55.9490   30.0010   53.6730 N   0  0  0  0  0  0  0  0  0  0  0  0
   57.2450   30.1560   54.3570 C   0  0  0  0  0  0  0  0  0  0  0  0
   58.3120   30.6090   53.3920 C   0  0  0  0  0  0  0  0  0  0  0  0
   58.4800   29.9570   52.1600 C   0  0  0  0  0  0  0  0  0  0  0  0
   59.4590   30.3840   51.2600 C   0  0  0  0  0  0  0  0  0  0  0  0
   60.2960   31.4680   51.5770 C   0  0  0  0  0  0  0  0  0  0  0  0
   61.3020   31.9140   50.6430 N   0  0  0  0  0  0  0  0  0  0  0  0
   62.7150   31.9650   51.0690 C   0  0  0  0  0  0  0  0  0  0  0  0
   63.6450   31.4690   49.9620 C   0  0  0  0  0  0  0  0  0  0  0  0
   63.4680   32.5020   48.5230 S   0  0  0  0  0  0  0  0  0  0  0  0
   63.5140   31.6590   47.2790 O   0  0  0  0  0  0  0  0  0  0  0  0
   64.5680   33.5240   48.4820 O   0  0  0  0  0  0  0  0  0  0  0  0
   61.8910   33.3170   48.6500 C   0  0  0  0  0  0  0  0  0  0  0  0
   60.8730   32.3850   49.3110 C   0  0  0  0  0  0  0  0  0  0  0  0
   60.1280   32.1170   52.8120 C   0  0  0  0  0  0  0  0  0  0  0  0
   59.1470   31.6910   53.7110 C   0  0  0  0  0  0  0  0  0  0  0  0
   56.8640   32.3375   52.7762 H   0  0  0  0  0  0  0  0  0  0  0  0
   55.4125   32.5766   51.5654 H   0  0  0  0  0  0  0  0  0  0  0  0
   53.1924   30.5972   50.5262 H   0  0  0  0  0  0  0  0  0  0  0  0
   53.2709   28.2962   52.7559 H   0  0  0  0  0  0  0  0  0  0  0  0
   55.4362   27.8557   55.5769 H   0  0  0  0  0  0  0  0  0  0  0  0
   54.7659   26.8614   54.2395 H   0  0  0  0  0  0  0  0  0  0  0  0
   56.5048   27.3114   54.2395 H   0  0  0  0  0  0  0  0  0  0  0  0
   57.1426   30.9034   55.1576 H   0  0  0  0  0  0  0  0  0  0  0  0
   57.5401   29.1825   54.7757 H   0  0  0  0  0  0  0  0  0  0  0  0
   57.8358   29.1036   51.9017 H   0  0  0  0  0  0  0  0  0  0  0  0
   59.5760   29.8680   50.2956 H   0  0  0  0  0  0  0  0  0  0  0  0
   62.9770   33.0037   51.3190 H   0  0  0  0  0  0  0  0  0  0  0  0
   62.8380   31.3119   51.9455 H   0  0  0  0  0  0  0  0  0  0  0  0
   64.6863   31.5079   50.3143 H   0  0  0  0  0  0  0  0  0  0  0  0
   63.3819   30.4331   49.7017 H   0  0  0  0  0  0  0  0  0  0  0  0
   61.9993   34.2278   49.2572 H   0  0  0  0  0  0  0  0  0  0  0  0
   61.5383   33.5810   47.6421 H   0  0  0  0  0  0  0  0  0  0  0  0
   59.9215   32.9261   49.4202 H   0  0  0  0  0  0  0  0  0  0  0  0
   60.7702   31.4997   48.6663 H   0  0  0  0  0  0  0  0  0  0  0  0
   60.7744   32.9678   53.0732 H   0  0  0  0  0  0  0  0  0  0  0  0
   59.0283   32.2070   54.6752 H   0  0  0  0  0  0  0  0  0  0  0  0
  1  2  2  0
  2  3  1  0
  3  4  2  3
  4  5  1  0
  5  6  1  0
  6  7  1  0
  7  8  2  0
  7  9  1  0
  9 10  1  0
 10 11  1  0
  3 12  1  0
 12 13  2  0
 13 14  1  0
 13 15  1  0
 15 16  1  0
 16 17  1  0
 17 18  2  0
 18 19  1  0
 19 20  2  0
 20 21  1  0
 21 22  1  0
 22 23  1  0
 23 24  1  0
 24 25  2  0
 24 26  2  0
 24 27  1  0
 27 28  1  0
 20 29  1  0
 29 30  2  0
 15  2  1  0
 30 17  1  0
 10  5  2  0
 28 21  1  0
  1 31  1  0
  1 32  1  0
  4 33  1  0
 12 34  1  0
 14 35  1  0
 14 36  1  0
 14 37  1  0
 16 38  1  0
 16 39  1  0
 18 40  1  0
 19 41  1  0
 22 42  1  0
 22 43  1  0
 23 44  1  0
 23 45  1  0
 27 46  1  0
 27 47  1  0
 28 48  1  0
 28 49  1  0
 29 50  1  0
 30 51  1  0
M  CHG  3   6  -1   9  -1  11  -1
M  END
>  <UniqueID>  (59) 
58

>  <SMILES>  (59) 
C=c1c(=Cc2[n-]c(=O)[n-]c2[O-])cc(C)n1Cc1ccc(N2CCS(=O)(=O)CC2)cc1

>  <Energy>  (59) 
121.46488748268668

>  <Genealogy>  (59) 
C=c1c(=Cc2[n-]c(=O)[n-]c2[O-])cc(C)n1Cc1ccc(N2CCS(=O)(=O)CC2)cc1 (protonated)
C=c1c(=Cc2[n-]c(=O)[n-]c2[O-])cc(C)n1Cc1ccc(N2CCS(=O)(=O)CC2)cc1 (3D coordinates assigned)
C=c1c(=Cc2[n-]c(=O)[n-]c2[O-])cc(C)n1Cc1ccc(N2CCS(=O)(=O)CC2)cc1 (nonaromatic ring conformer: 121.46488748268668 kcal/mol)

>  <smiles>  (59) 
C=c1c(=Cc2[nH]c(=O)[nH]c2O)cc(C)n1Cc1ccc(N2CCS(=O)(=O)CC2)cc1

>  <score_type>  (59) 
oracle

>  <origin>  (59) 
adg

>  <m_score__min__energy>  (59) 
-17.32

>  <m_primary>  (59) 
energy

$$$$
59:0
     RDKit          3D

 66 70  0  0  1  0  0  0  0  0999 V2000
   66.9270   32.7320   51.8090 C   0  0  0  0  0  0  0  0  0  0  0  0
   65.8030   32.4370   50.8870 C   0  0  0  0  0  0  0  0  0  0  0  0
   65.5690   33.0870   49.6840 C   0  0  0  0  0  0  0  0  0  0  0  0
   64.4520   32.5330   49.1370 C   0  0  0  0  0  0  0  0  0  0  0  0
   63.8200   32.7720   48.0430 N   0  0  0  0  0  0  0  0  0  0  0  0
   62.4750   32.2650   47.9140 C   0  0  0  0  0  0  0  0  0  0  0  0
   61.4720   33.1020   47.4680 C   0  0  0  0  0  0  0  0  0  0  0  0
   60.2010   32.5970   47.3530 C   0  0  0  0  0  0  0  0  0  0  0  0
   59.1570   33.4410   46.8860 N   0  0  0  0  0  0  0  0  0  0  0  0
   57.7560   33.1020   47.0220 C   0  0  0  0  0  0  0  0  0  0  0  0
   57.2650   32.8840   45.5930 C   0  0  0  0  0  0  0  0  0  0  0  0
   57.3610   34.2000   44.9640 N   0  0  0  0  0  0  0  0  0  0  0  0
   58.6870   34.7170   44.9030 C   0  0  0  0  0  0  0  0  0  0  0  0
   59.4320   34.7240   46.2190 C   0  0  0  0  0  0  0  0  0  0  0  0
   60.0170   31.3090   47.6860 N   0  0  0  0  0  0  0  0  0  0  0  0
   60.9860   30.4880   48.1210 C   0  0  0  0  0  0  0  0  0  0  0  0
   60.7680   28.7930   48.5540 S   0  0  0  0  0  0  0  0  0  0  0  0
   59.6220   27.8940   47.5720 C   0  0  0  0  0  0  0  0  0  0  0  0
   58.4540   28.5600   47.1700 C   0  0  0  0  0  0  0  0  0  0  0  0
   57.5150   27.9120   46.4040 C   0  0  0  0  0  0  0  0  0  0  0  0
   57.6590   26.6030   45.9940 C   0  0  0  0  0  0  0  0  0  0  0  0
   56.6930   25.9240   45.2010 N   0  0  0  0  0  0  0  0  0  0  0  0
   55.6800   25.0920   45.7330 C   0  0  0  0  0  0  0  0  0  0  0  0
   55.5280   24.8660   46.9520 O   0  0  0  0  0  0  0  0  0  0  0  0
   54.7850   24.4780   44.8250 N   0  0  0  0  0  0  0  0  0  0  0  0
   53.7220   23.6200   45.2160 C   0  0  0  0  0  0  0  0  0  0  0  0
   52.4050   23.8590   44.8800 C   0  0  0  0  0  0  0  0  0  0  0  0
   51.4030   22.9960   45.2840 C   0  0  0  0  0  0  0  0  0  0  0  0
   51.7600   21.8800   46.0370 C   0  0  0  0  0  0  0  0  0  0  0  0
   53.0760   21.6380   46.3740 C   0  0  0  0  0  0  0  0  0  0  0  0
   54.0720   22.5050   45.9680 C   0  0  0  0  0  0  0  0  0  0  0  0
   58.8020   25.9430   46.3840 C   0  0  0  0  0  0  0  0  0  0  0  0
   59.0010   24.5410   45.9710 C   0  0  0  0  0  0  0  0  0  0  0  0
   59.7470   26.6010   47.1580 C   0  0  0  0  0  0  0  0  0  0  0  0
   62.2560   30.9840   48.2390 N   0  0  0  0  0  0  0  0  0  0  0  0
   64.0250   31.5650   50.0000 N   0  0  0  0  0  0  0  0  0  0  0  0
   64.8410   31.5200   51.0390 N   0  0  0  0  0  0  0  0  0  0  0  0
   66.5813   32.6413   52.8493 H   0  0  0  0  0  0  0  0  0  0  0  0
   67.7446   32.0180   51.6307 H   0  0  0  0  0  0  0  0  0  0  0  0
   67.2886   33.7555   51.6307 H   0  0  0  0  0  0  0  0  0  0  0  0
   66.1732   33.8986   49.2525 H   0  0  0  0  0  0  0  0  0  0  0  0
   61.6865   34.1497   47.2107 H   0  0  0  0  0  0  0  0  0  0  0  0
   57.6356   32.1846   47.6169 H   0  0  0  0  0  0  0  0  0  0  0  0
   57.1877   33.8885   47.5400 H   0  0  0  0  0  0  0  0  0  0  0  0
   57.9031   32.1564   45.0701 H   0  0  0  0  0  0  0  0  0  0  0  0
   56.2422   32.4805   45.5609 H   0  0  0  0  0  0  0  0  0  0  0  0
   56.7710   34.8730   45.5140 H   0  0  0  0  0  0  0  0  0  0  0  0
   59.2593   34.1050   44.1903 H   0  0  0  0  0  0  0  0  0  0  0  0
   58.5926   35.7696   44.5979 H   0  0  0  0  0  0  0  0  0  0  0  0
   60.5120   34.8307   46.0393 H   0  0  0  0  0  0  0  0  0  0  0  0
   59.1052   35.5664   46.8464 H   0  0  0  0  0  0  0  0  0  0  0  0
   58.2894   29.6056   47.4694 H   0  0  0  0  0  0  0  0  0  0  0  0
   56.6098   28.4608   46.1050 H   0  0  0  0  0  0  0  0  0  0  0  0
   56.7660   26.0710   44.1640 H   0  0  0  0  0  0  0  0  0  0  0  0
   54.8880   24.6490   43.7990 H   0  0  0  0  0  0  0  0  0  0  0  0
   52.1492   24.7470   44.2834 H   0  0  0  0  0  0  0  0  0  0  0  0
   50.3526   23.1857   45.0180 H   0  0  0  0  0  0  0  0  0  0  0  0
   50.9794   21.1795   46.3687 H   0  0  0  0  0  0  0  0  0  0  0  0
   53.3335   20.7496   46.9694 H   0  0  0  0  0  0  0  0  0  0  0  0
   55.1223   22.3163   46.2349 H   0  0  0  0  0  0  0  0  0  0  0  0
   59.0913   23.9050   46.8640 H   0  0  0  0  0  0  0  0  0  0  0  0
   58.1408   24.2100   45.3705 H   0  0  0  0  0  0  0  0  0  0  0  0
   59.9193   24.4625   45.3705 H   0  0  0  0  0  0  0  0  0  0  0  0
   60.6498   26.0471   47.4550 H   0  0  0  0  0  0  0  0  0  0  0  0
   63.1760   30.9410   49.8720 H   0  0  0  0  0  0  0  0  0  0  0  0
   64.7250   30.8510   51.8490 H   0  0  0  0  0  0  0  0  0  0  0  0
  1  2  1  0
  2  3  2  0
  3  4  1  0
  4  5  2  0
  5  6  1  0
  6  7  2  0
  7  8  1  0
  8  9  1  0
  9 10  1  0
 10 11  1  0
 11 12  1  0
 12 13  1  0
 13 14  1  0
  8 15  2  0
 15 16  1  0
 16 17  1  0
 17 18  1  0
 18 19  2  0
 19 20  1  0
 20 21  2  0
 21 22  1  0
 22 23  1  0
 23 24  2  0
 23 25  1  0
 25 26  1  0
 26 27  2  0
 27 28  1  0
 28 29  2  0
 29 30  1  0
 30 31  2  0
 21 32  1  0
 32 33  1  0
 32 34  2  0
 16 35  2  0
  4 36  1  0
 36 37  1  0
 37  2  1  0
 35  6  1  0
 14  9  1  0
 34 18  1  0
 31 26  1  0
  1 38  1  0
  1 39  1  0
  1 40  1  0
  3 41  1  0
  7 42  1  0
 10 43  1  0
 10 44  1  0
 11 45  1  0
 11 46  1  0
 12 47  1  0
 13 48  1  0
 13 49  1  0
 14 50  1  0
 14 51  1  0
 19 52  1  0
 20 53  1  0
 22 54  1  0
 25 55  1  0
 27 56  1  0
 28 57  1  0
 29 58  1  0
 30 59  1  0
 31 60  1  0
 33 61  1  0
 33 62  1  0
 33 63  1  0
 34 64  1  0
 36 65  1  0
 37 66  1  0
M  END
>  <smiles>  (60) 
Cc1cc(=Nc2cc(N3CCNCC3)nc(Sc3ccc(NC(=O)Nc4ccccc4)c(C)c3)n2)[nH][nH]1

>  <score_type>  (60) 
oracle

>  <origin>  (60) 
adg

>  <m_score__min__energy>  (60) 
-9.9499999999999993

>  <m_primary>  (60) 
energy

$$$$
60:0
     RDKit          3D

 32 34  0  0  0  0  0  0  0  0999 V2000
   57.0420   25.2970   46.6890 C   0  0  0  0  0  0  0  0  0  0  0  0
   56.4030   26.4810   46.0420 C   0  0  0  0  0  0  0  0  0  0  0  0
   55.1480   26.5830   46.0110 O   0  0  0  0  0  0  0  0  0  0  0  0
   57.2320   27.5320   45.4500 C   0  0  0  0  0  0  0  0  0  0  0  0
   57.8890   27.6930   44.2320 C   0  0  0  0  0  0  0  0  0  0  0  0
   58.4030   29.0230   44.6790 C   0  0  2  0  0  0  0  0  0  0  0  0
   58.0520   30.2540   43.8200 C   0  0  0  0  0  0  0  0  0  0  0  0
   56.6240   31.2180   44.4610 S   0  0  0  0  0  0  0  0  0  0  0  0
   57.5990   32.5520   45.1690 C   0  0  0  0  0  0  0  0  0  0  0  0
   58.2380   33.4750   44.3300 C   0  0  0  0  0  0  0  0  0  0  0  0
   59.0070   34.5050   44.8810 C   0  0  0  0  0  0  0  0  0  0  0  0
   59.1490   34.6070   46.2680 C   0  0  0  0  0  0  0  0  0  0  0  0
   58.5270   33.6770   47.1050 C   0  0  0  0  0  0  0  0  0  0  0  0
   57.7580   32.6460   46.5570 C   0  0  0  0  0  0  0  0  0  0  0  0
   59.8060   29.0080   45.2740 C   0  0  0  0  0  0  0  0  0  0  0  0
   60.9580   29.0630   44.8770 O   0  0  0  0  0  0  0  0  0  0  0  0
   59.0810   28.8690   46.5970 C   0  0  0  0  0  0  0  0  0  0  0  0
   57.7350   28.8710   45.9180 C   0  0  2  0  0  0  0  0  0  0  0  0
   56.9855   25.4017   47.7825 H   0  0  0  0  0  0  0  0  0  0  0  0
   56.5153   24.3819   46.3806 H   0  0  0  0  0  0  0  0  0  0  0  0
   58.0961   25.2350   46.3806 H   0  0  0  0  0  0  0  0  0  0  0  0
   57.9884   27.0895   43.3177 H   0  0  0  0  0  0  0  0  0  0  0  0
   58.9303   30.9154   43.7854 H   0  0  0  0  0  0  0  0  0  0  0  0
   57.7682   29.8816   42.8246 H   0  0  0  0  0  0  0  0  0  0  0  0
   58.1347   33.3893   43.2382 H   0  0  0  0  0  0  0  0  0  0  0  0
   59.5004   35.2352   44.2227 H   0  0  0  0  0  0  0  0  0  0  0  0
   59.7507   35.4198   46.7007 H   0  0  0  0  0  0  0  0  0  0  0  0
   58.6425   33.7561   48.1961 H   0  0  0  0  0  0  0  0  0  0  0  0
   57.2776   31.9083   47.2166 H   0  0  0  0  0  0  0  0  0  0  0  0
   59.3064   27.9321   47.1275 H   0  0  0  0  0  0  0  0  0  0  0  0
   59.2809   29.5934   47.4003 H   0  0  0  0  0  0  0  0  0  0  0  0
   56.9738   29.4499   46.4615 H   0  0  0  0  0  0  0  0  0  0  0  0
  1  2  1  0
  2  3  2  0
  2  4  1  0
  4  5  2  0
  5  6  1  0
  6  7  1  6
  7  8  1  0
  8  9  1  0
  9 10  2  0
 10 11  1  0
 11 12  2  0
 12 13  1  0
 13 14  2  0
  6 15  1  0
 15 16  2  0
 15 17  1  0
 17 18  1  0
 18  4  1  0
 18  6  1  0
 14  9  1  0
  1 19  1  0
  1 20  1  0
  1 21  1  0
  5 22  1  0
  7 23  1  0
  7 24  1  0
 10 25  1  0
 11 26  1  0
 12 27  1  0
 13 28  1  0
 14 29  1  0
 17 30  1  0
 17 31  1  0
 18 32  1  1
M  END
>  <UniqueID>  (61) 
59

>  <SMILES>  (61) 
CC(=O)C1=C[C@]2(CSc3ccccc3)C(=O)C[C@H]12

>  <Energy>  (61) 
106.95585240886183

>  <Genealogy>  (61) 
CC(=O)C1=C[C@]2(CSc3ccccc3)C(=O)C[C@H]12 (chirality)
CC(=O)C1=C[C@]2(CSc3ccccc3)C(=O)C[C@H]12 (3D coordinates assigned)
CC(=O)C1=C[C@]2(CSc3ccccc3)C(=O)C[C@H]12 (nonaromatic ring conformer: 106.95585240886183 kcal/mol)

>  <smiles>  (61) 
CC(=O)C1=CC2(CSc3ccccc3)C(=O)CC12

>  <score_type>  (61) 
oracle

>  <origin>  (61) 
adg

>  <m_score__min__energy>  (61) 
-7.7599999999999998

>  <m_primary>  (61) 
energy

$$$$
61:0
     RDKit          3D

 54 57  0  0  0  0  0  0  0  0999 V2000
   59.3081   28.6052   47.9036 H   0  0  0  0  0  0  0  0  0  0  0  0
   58.6610   27.7160   47.8790 C   0  0  0  0  0  0  0  0  0  0  0  0
   58.2282   27.3248   48.8115 H   0  0  0  0  0  0  0  0  0  0  0  0
   58.4010   27.1120   46.7180 C   0  0  0  0  0  0  0  0  0  0  0  0
   58.8620   27.4910   45.4640 C   0  0  0  0  0  0  0  0  0  0  0  0
   59.6770   28.7000   45.0980 C   0  0  0  0  0  0  0  0  0  0  0  0
   60.3675   28.9351   45.9214 H   0  0  0  0  0  0  0  0  0  0  0  0
   60.2444   28.4850   44.1805 H   0  0  0  0  0  0  0  0  0  0  0  0
   58.7770   29.8810   44.8520 C   0  0  0  0  0  0  0  0  0  0  0  0
   57.7060   29.7730   43.9510 C   0  0  0  0  0  0  0  0  0  0  0  0
   57.5390   28.8305   43.4090 H   0  0  0  0  0  0  0  0  0  0  0  0
   56.8520   30.8570   43.7400 C   0  0  0  0  0  0  0  0  0  0  0  0
   56.0186   30.7677   43.0276 H   0  0  0  0  0  0  0  0  0  0  0  0
   57.0520   32.0540   44.4300 C   0  0  0  0  0  0  0  0  0  0  0  0
   56.3788   32.9059   44.2537 H   0  0  0  0  0  0  0  0  0  0  0  0
   58.1090   32.1770   45.3490 C   0  0  0  0  0  0  0  0  0  0  0  0
   58.3290   33.4480   46.0790 C   0  0  0  0  0  0  0  0  0  0  0  0
   57.4560   34.3570   46.0200 O   0  0  0  0  0  0  0  0  0  0  0  0
   59.5130   33.6580   46.8680 N   0  0  0  0  0  0  0  0  0  0  0  0
   59.4260   34.4360   48.1070 C   0  0  0  0  0  0  0  0  0  0  0  0
   59.6460   35.4918   47.8904 H   0  0  0  0  0  0  0  0  0  0  0  0
   58.4110   34.3436   48.5208 H   0  0  0  0  0  0  0  0  0  0  0  0
   60.4340   33.9080   49.1280 C   0  0  0  0  0  0  0  0  0  0  0  0
   60.4984   34.6126   49.9703 H   0  0  0  0  0  0  0  0  0  0  0  0
   60.0976   32.9222   49.4818 H   0  0  0  0  0  0  0  0  0  0  0  0
   61.7640   33.7640   48.5150 N   0  0  0  0  0  0  0  0  0  0  0  0
   62.9440   34.0580   49.2970 C   0  0  0  0  0  0  0  0  0  0  0  0
   62.8730   34.8660   50.2620 O   0  0  0  0  0  0  0  0  0  0  0  0
   64.2770   33.4510   48.9790 C   0  0  0  0  0  0  0  0  0  0  0  0
   64.8034   33.2113   49.9147 H   0  0  0  0  0  0  0  0  0  0  0  0
   64.1308   32.5307   48.3945 H   0  0  0  0  0  0  0  0  0  0  0  0
   64.8752   34.1655   48.3945 H   0  0  0  0  0  0  0  0  0  0  0  0
   61.8530   33.0070   47.2560 C   0  0  0  0  0  0  0  0  0  0  0  0
   62.8654   33.1145   46.8395 H   0  0  0  0  0  0  0  0  0  0  0  0
   61.6385   31.9478   47.4612 H   0  0  0  0  0  0  0  0  0  0  0  0
   60.8330   33.5320   46.2430 C   0  0  0  0  0  0  0  0  0  0  0  0
   61.1577   34.5180   45.8790 H   0  0  0  0  0  0  0  0  0  0  0  0
   60.7653   32.8239   45.4040 H   0  0  0  0  0  0  0  0  0  0  0  0
   58.9730   31.0860   45.5470 C   0  0  0  0  0  0  0  0  0  0  0  0
   59.8113   31.1767   46.2535 H   0  0  0  0  0  0  0  0  0  0  0  0
   58.3170   26.5960   44.5600 C   0  0  0  0  0  0  0  0  0  0  0  0
   58.4513   26.5974   43.4682 H   0  0  0  0  0  0  0  0  0  0  0  0
   57.5670   25.6960   45.3050 C   0  0  0  0  0  0  0  0  0  0  0  0
   56.8390   24.6710   44.8360 C   0  0  0  0  0  0  0  0  0  0  0  0
   57.3470   23.9278   44.2039 H   0  0  0  0  0  0  0  0  0  0  0  0
   55.4040   24.4740   45.1110 C   0  0  0  0  0  0  0  0  0  0  0  0
   54.7360   23.3590   44.7700 N   0  0  0  0  0  0  0  0  0  0  0  0
   53.4620   23.6360   45.1230 C   0  0  0  0  0  0  0  0  0  0  0  0
   52.5220   22.8130   44.9700 O   0  0  0  0  0  0  0  0  0  0  0  0
   53.2730   24.8670   45.6410 N   0  0  0  0  0  0  0  0  0  0  0  0
   54.5080   25.3920   45.6160 C   0  0  0  0  0  0  0  0  0  0  0  0
   54.7960   26.6960   45.9980 O   0  0  0  0  0  0  0  0  0  0  0  0
   57.6180   26.0200   46.6130 N   0  0  0  0  0  0  0  0  0  0  0  0
   57.1340   25.5240   47.3970 H   0  0  0  0  0  0  0  0  0  0  0  0
  1  2  1  0
  2  3  1  0
  2  4  2  0
  4  5  1  0
  5  6  1  0
  6  7  1  0
  6  8  1  0
  6  9  1  0
  9 10  2  0
 10 11  1  0
 10 12  1  0
 12 13  1  0
 12 14  2  0
 14 15  1  0
 14 16  1  0
 16 17  1  0
 17 18  2  0
 17 19  1  0
 19 20  1  0
 20 21  1  0
 20 22  1  0
 20 23  1  0
 23 24  1  0
 23 25  1  0
 23 26  1  0
 26 27  1  0
 27 28  2  0
 27 29  1  0
 29 30  1  0
 29 31  1  0
 29 32  1  0
 26 33  1  0
 33 34  1  0
 33 35  1  0
 33 36  1  0
 36 37  1  0
 36 38  1  0
 16 39  2  0
 39 40  1  0
  5 41  2  0
 41 42  1  0
 41 43  1  0
 43 44  2  0
 44 45  1  0
 44 46  1  0
 46 47  1  0
 47 48  1  0
 48 49  2  0
 48 50  1  0
 50 51  1  0
 51 52  1  0
 43 53  1  0
 53 54  1  0
 53  4  1  0
 39  9  1  0
 51 46  2  0
 36 19  1  0
M  CHG  3  47  -1  50  -1  52  -1
M  END
>  <UniqueID>  (62) 
60

>  <SMILES>  (62) 
C=c1[nH]/c(=C/c2[n-]c(=O)[n-]c2[O-])cc1Cc1cccc(C(=O)N2CCN(C(C)=O)CC2)c1

>  <Energy>  (62) 
120.35763628988808

>  <Genealogy>  (62) 
C=c1[nH]c(=Cc2[n-]c(=O)[n-]c2[O-])cc1Cc1cccc(C(=O)N2CCN(C(C)=O)CC2)c1 (protonated)
C=c1[nH]/c(=C/c2[n-]c(=O)[n-]c2[O-])cc1Cc1cccc(C(=O)N2CCN(C(C)=O)CC2)c1 (cis-trans isomerization)
C=c1[nH]/c(=C/c2[n-]c(=O)[n-]c2[O-])cc1Cc1cccc(C(=O)N2CCN(C(C)=O)CC2)c1 (3D coordinates assigned)
C=c1[nH]/c(=C/c2[n-]c(=O)[n-]c2[O-])cc1Cc1cccc(C(=O)N2CCN(C(C)=O)CC2)c1 (nonaromatic ring conformer: 120.35763628988808 kcal/mol)

>  <smiles>  (62) 
C=c1[nH]c(=Cc2[nH]c(=O)[nH]c2O)cc1Cc1cccc(C(=O)N2CCN(C(C)=O)CC2)c1

>  <score_type>  (62) 
oracle

>  <origin>  (62) 
adg

>  <m_score__min__energy>  (62) 
-18.460000000000001

>  <m_primary>  (62) 
energy

$$$$
62:0
     RDKit          3D

 42 44  0  0  0  0  0  0  0  0999 V2000
   62.2860   33.4950   47.6090 C   0  0  0  0  0  0  0  0  0  0  0  0
   61.2730   33.6490   46.4820 C   0  0  0  0  0  0  0  0  0  0  0  0
   59.8120   34.5090   47.0500 S   0  0  0  0  0  0  0  0  0  0  0  0
   59.6190   35.7410   46.2130 O   0  0  0  0  0  0  0  0  0  0  0  0
   59.9600   34.9220   48.4870 O   0  0  0  0  0  0  0  0  0  0  0  0
   58.4170   33.4900   46.8690 N   0  0  0  0  0  0  0  0  0  0  0  0
   58.2490   32.5090   45.8280 C   0  0  0  0  0  0  0  0  0  0  0  0
   57.4640   32.7550   44.6860 C   0  0  0  0  0  0  0  0  0  0  0  0
   57.3350   31.7790   43.6940 C   0  0  0  0  0  0  0  0  0  0  0  0
   57.9850   30.5500   43.8270 C   0  0  0  0  0  0  0  0  0  0  0  0
   58.7670   30.2890   44.9580 C   0  0  0  0  0  0  0  0  0  0  0  0
   59.6060   28.7510   45.1240 S   0  0  0  0  0  0  0  0  0  0  0  0
   61.0580   28.9960   45.4330 O   0  0  0  0  0  0  0  0  0  0  0  0
   59.4990   27.9820   43.8370 O   0  0  0  0  0  0  0  0  0  0  0  0
   58.8750   27.8500   46.4130 N   0  0  0  0  0  0  0  0  0  0  0  0
   58.0470   26.8680   46.2270 C   0  0  0  0  0  0  0  0  0  0  0  0
   56.6710   27.1230   46.2010 C   0  0  0  0  0  0  0  0  0  0  0  0
   55.7720   26.0720   46.0000 C   0  0  0  0  0  0  0  0  0  0  0  0
   54.4070   26.3370   45.9740 O   0  0  0  0  0  0  0  0  0  0  0  0
   56.2580   24.7640   45.8250 C   0  0  0  0  0  0  0  0  0  0  0  0
   55.3960   23.6740   45.6190 C   0  0  0  0  0  0  0  0  0  0  0  0
   55.9200   22.3880   45.4480 C   0  0  0  0  0  0  0  0  0  0  0  0
   57.3010   22.1800   45.4820 C   0  0  0  0  0  0  0  0  0  0  0  0
   58.1680   23.2580   45.6870 C   0  0  0  0  0  0  0  0  0  0  0  0
   57.6550   24.5490   45.8580 C   0  0  0  0  0  0  0  0  0  0  0  0
   58.5000   25.5940   46.0560 N   0  0  0  0  0  0  0  0  0  0  0  0
   58.9020   31.2710   45.9490 C   0  0  0  0  0  0  0  0  0  0  0  0
   61.7712   33.5733   48.5780 H   0  0  0  0  0  0  0  0  0  0  0  0
   62.7742   32.5123   47.5315 H   0  0  0  0  0  0  0  0  0  0  0  0
   63.0442   34.2882   47.5315 H   0  0  0  0  0  0  0  0  0  0  0  0
   61.7312   34.2207   45.6616 H   0  0  0  0  0  0  0  0  0  0  0  0
   60.9786   32.6476   46.1350 H   0  0  0  0  0  0  0  0  0  0  0  0
   57.6390   33.6400   47.5490 H   0  0  0  0  0  0  0  0  0  0  0  0
   56.9493   33.7206   44.5736 H   0  0  0  0  0  0  0  0  0  0  0  0
   56.7191   31.9796   42.8050 H   0  0  0  0  0  0  0  0  0  0  0  0
   57.8822   29.7863   43.0420 H   0  0  0  0  0  0  0  0  0  0  0  0
   56.2979   28.1486   46.3385 H   0  0  0  0  0  0  0  0  0  0  0  0
   54.3077   23.8318   45.5921 H   0  0  0  0  0  0  0  0  0  0  0  0
   55.2418   21.5372   45.2861 H   0  0  0  0  0  0  0  0  0  0  0  0
   57.7071   21.1666   45.3473 H   0  0  0  0  0  0  0  0  0  0  0  0
   59.2549   23.0910   45.7139 H   0  0  0  0  0  0  0  0  0  0  0  0
   59.5266   31.0700   46.8319 H   0  0  0  0  0  0  0  0  0  0  0  0
  1  2  1  0
  2  3  1  0
  3  4  2  0
  3  5  2  0
  3  6  1  0
  6  7  1  0
  7  8  2  0
  8  9  1  0
  9 10  2  0
 10 11  1  0
 11 12  1  0
 12 13  2  0
 12 14  2  0
 12 15  1  0
 15 16  2  3
 16 17  1  0
 17 18  2  0
 18 19  1  0
 18 20  1  0
 20 21  2  0
 21 22  1  0
 22 23  2  0
 23 24  1  0
 24 25  2  0
 25 26  1  0
 11 27  2  0
 27  7  1  0
 26 16  1  0
 25 20  1  0
  1 28  1  0
  1 29  1  0
  1 30  1  0
  2 31  1  0
  2 32  1  0
  6 33  1  0
  8 34  1  0
  9 35  1  0
 10 36  1  0
 17 37  1  0
 21 38  1  0
 22 39  1  0
 23 40  1  0
 24 41  1  0
 27 42  1  0
M  CHG  2  19  -1  26  -1
M  END
>  <UniqueID>  (63) 
61

>  <SMILES>  (63) 
CCS(=O)(=O)Nc1cccc(S(=O)(=O)N=c2cc([O-])c3ccccc3[n-]2)c1

>  <Energy>  (63) 
48.41097393225373

>  <Genealogy>  (63) 
CCS(=O)(=O)Nc1cccc(S(=O)(=O)N=c2cc([O-])c3ccccc3[n-]2)c1 (protonated)
CCS(=O)(=O)Nc1cccc(S(=O)(=O)N=c2cc([O-])c3ccccc3[n-]2)c1 (3D coordinates assigned)
CCS(=O)(=O)Nc1cccc(S(=O)(=O)N=c2cc([O-])c3ccccc3[n-]2)c1 (optimized conformer: 48.41097393225373 kcal/mol)

>  <smiles>  (63) 
CCS(=O)(=O)Nc1cccc(S(=O)(=O)N=c2cc(O)c3ccccc3[nH]2)c1

>  <score_type>  (63) 
oracle

>  <origin>  (63) 
adg

>  <m_score__min__energy>  (63) 
-13.94

>  <m_primary>  (63) 
energy

$$$$
63:0
     RDKit          3D

 48 50  0  0  0  0  0  0  0  0999 V2000
   55.1480   26.5220   46.0230 N   0  0  0  0  0  0  0  0  0  0  0  0
   56.5080   26.8790   45.7870 C   0  0  0  0  0  0  0  0  0  0  0  0
   57.4270   26.0570   46.0490 O   0  0  0  0  0  0  0  0  0  0  0  0
   56.8460   28.2430   45.2730 C   0  0  0  0  0  0  0  0  0  0  0  0
   58.2290   28.6340   45.7130 C   0  0  0  0  0  0  0  0  0  0  0  0
   59.3050   28.5760   44.8120 C   0  0  0  0  0  0  0  0  0  0  0  0
   60.5840   28.9610   45.2190 C   0  0  0  0  0  0  0  0  0  0  0  0
   60.7990   29.4210   46.5210 C   0  0  0  0  0  0  0  0  0  0  0  0
   59.7310   29.4990   47.4240 C   0  0  0  0  0  0  0  0  0  0  0  0
   60.0180   30.0750   49.0640 S   0  0  0  0  0  0  0  0  0  0  0  0
   59.0150   29.4300   49.9780 O   0  0  0  0  0  0  0  0  0  0  0  0
   61.4010   29.7150   49.5250 O   0  0  0  0  0  0  0  0  0  0  0  0
   59.8270   31.7990   49.1280 N   0  0  0  0  0  0  0  0  0  0  0  0
   59.7030   32.6320   47.9590 C   0  0  0  0  0  0  0  0  0  0  0  0
   58.5180   32.6440   47.1970 C   0  0  0  0  0  0  0  0  0  0  0  0
   58.4040   33.4440   46.0480 C   0  0  0  0  0  0  0  0  0  0  0  0
   57.1490   33.4650   45.2630 C   0  0  0  0  0  0  0  0  0  0  0  0
   56.5630   32.3900   44.9630 O   0  0  0  0  0  0  0  0  0  0  0  0
   56.5950   34.6710   44.8500 O   0  0  0  0  0  0  0  0  0  0  0  0
   59.4990   34.2240   45.6470 C   0  0  0  0  0  0  0  0  0  0  0  0
   60.6830   34.2090   46.3850 C   0  0  0  0  0  0  0  0  0  0  0  0
   60.7930   33.4240   47.5410 C   0  0  0  0  0  0  0  0  0  0  0  0
   62.0080   33.4530   48.3030 N   0  0  0  0  0  0  0  0  0  0  0  0
   63.2230   32.8470   47.7570 C   0  0  0  0  0  0  0  0  0  0  0  0
   64.1560   32.4500   48.9060 C   0  0  0  0  0  0  0  0  0  0  0  0
   64.3770   33.5470   49.7740 O   0  0  0  0  0  0  0  0  0  0  0  0
   63.1650   33.9070   50.4110 C   0  0  0  0  0  0  0  0  0  0  0  0
   62.1450   34.4220   49.3920 C   0  0  0  0  0  0  0  0  0  0  0  0
   58.4470   29.1070   47.0190 C   0  0  0  0  0  0  0  0  0  0  0  0
   54.5600   27.0640   46.6940 H   0  0  0  0  0  0  0  0  0  0  0  0
   56.8017   28.2387   44.1739 H   0  0  0  0  0  0  0  0  0  0  0  0
   56.1226   28.9679   45.6744 H   0  0  0  0  0  0  0  0  0  0  0  0
   59.1395   28.2261   43.7823 H   0  0  0  0  0  0  0  0  0  0  0  0
   61.4251   28.9020   44.5125 H   0  0  0  0  0  0  0  0  0  0  0  0
   61.8086   29.7223   46.8372 H   0  0  0  0  0  0  0  0  0  0  0  0
   59.7220   32.2200   50.0780 H   0  0  0  0  0  0  0  0  0  0  0  0
   57.6688   32.0171   47.5067 H   0  0  0  0  0  0  0  0  0  0  0  0
   59.4237   34.8506   44.7461 H   0  0  0  0  0  0  0  0  0  0  0  0
   61.5377   34.8186   46.0567 H   0  0  0  0  0  0  0  0  0  0  0  0
   62.9569   31.9524   47.1748 H   0  0  0  0  0  0  0  0  0  0  0  0
   63.7325   33.5709   47.1041 H   0  0  0  0  0  0  0  0  0  0  0  0
   63.6988   31.6265   49.4742 H   0  0  0  0  0  0  0  0  0  0  0  0
   65.1212   32.1332   48.4841 H   0  0  0  0  0  0  0  0  0  0  0  0
   62.7505   33.0252   50.9215 H   0  0  0  0  0  0  0  0  0  0  0  0
   63.3730   34.7077   51.1359 H   0  0  0  0  0  0  0  0  0  0  0  0
   61.1714   34.5587   49.8853 H   0  0  0  0  0  0  0  0  0  0  0  0
   62.4890   35.3841   48.9844 H   0  0  0  0  0  0  0  0  0  0  0  0
   57.6067   29.1698   47.7261 H   0  0  0  0  0  0  0  0  0  0  0  0
  1  2  1  0
  2  3  2  0
  2  4  1  0
  4  5  1  0
  5  6  2  0
  6  7  1  0
  7  8  2  0
  8  9  1  0
  9 10  1  0
 10 11  2  0
 10 12  2  0
 10 13  1  0
 13 14  1  0
 14 15  2  0
 15 16  1  0
 16 17  1  0
 17 18  2  0
 17 19  1  0
 16 20  2  0
 20 21  1  0
 21 22  2  0
 22 23  1  0
 23 24  1  0
 24 25  1  0
 25 26  1  0
 26 27  1  0
 27 28  1  0
  9 29  2  0
 29  5  1  0
 22 14  1  0
 28 23  1  0
  1 30  1  0
  4 31  1  0
  4 32  1  0
  6 33  1  0
  7 34  1  0
  8 35  1  0
 13 36  1  0
 15 37  1  0
 20 38  1  0
 21 39  1  0
 24 40  1  0
 24 41  1  0
 25 42  1  0
 25 43  1  0
 27 44  1  0
 27 45  1  0
 28 46  1  0
 28 47  1  0
 29 48  1  0
M  CHG  2   1  -1  19  -1
M  END
>  <UniqueID>  (64) 
62

>  <SMILES>  (64) 
[NH-]C(=O)Cc1cccc(S(=O)(=O)Nc2cc(C(=O)[O-])ccc2N2CCOCC2)c1

>  <Energy>  (64) 
55.619308431370136

>  <Genealogy>  (64) 
[NH-]C(=O)Cc1cccc(S(=O)(=O)Nc2cc(C(=O)[O-])ccc2N2CCOCC2)c1 (protonated)
[NH-]C(=O)Cc1cccc(S(=O)(=O)Nc2cc(C(=O)[O-])ccc2N2CCOCC2)c1 (3D coordinates assigned)
[NH-]C(=O)Cc1cccc(S(=O)(=O)Nc2cc(C(=O)[O-])ccc2N2CCOCC2)c1 (nonaromatic ring conformer: 55.619308431370136 kcal/mol)

>  <smiles>  (64) 
NC(=O)Cc1cccc(S(=O)(=O)Nc2cc(C(=O)O)ccc2N2CCOCC2)c1

>  <score_type>  (64) 
oracle

>  <origin>  (64) 
adg

>  <m_score__min__energy>  (64) 
-13.81

>  <m_primary>  (64) 
energy

$$$$
64:0
     RDKit          3D

 43 46  0  0  0  0  0  0  0  0999 V2000
   51.3460   30.4780   48.8550 O   0  0  0  0  0  0  0  0  0  0  0  0
   51.5350   30.8320   50.0490 C   0  0  0  0  0  0  0  0  0  0  0  0
   52.3320   30.0570   50.8930 C   0  0  0  0  0  0  0  0  0  0  0  0
   52.5160   30.4800   52.2160 C   0  0  0  0  0  0  0  0  0  0  0  0
   53.3540   29.7360   53.1180 N   0  0  0  0  0  0  0  0  0  0  0  0
   54.7370   29.9550   52.7760 C   0  0  0  0  0  0  0  0  0  0  0  0
   55.1450   31.1760   52.2120 C   0  0  0  0  0  0  0  0  0  0  0  0
   56.4810   31.3800   51.8570 C   0  0  0  0  0  0  0  0  0  0  0  0
   57.4320   30.3650   52.0670 C   0  0  0  0  0  0  0  0  0  0  0  0
   58.7880   30.5410   51.7490 O   0  0  0  0  0  0  0  0  0  0  0  0
   59.2870   31.5330   50.8930 C   0  0  0  0  0  0  0  0  0  0  0  0
   59.2790   32.8220   51.3260 N   0  0  0  0  0  0  0  0  0  0  0  0
   59.7700   33.8420   50.5760 C   0  0  0  0  0  0  0  0  0  0  0  0
   60.3060   33.5880   49.3150 C   0  0  0  0  0  0  0  0  0  0  0  0
   60.3090   32.2810   48.8260 C   0  0  0  0  0  0  0  0  0  0  0  0
   59.7820   31.2340   49.5980 C   0  0  0  0  0  0  0  0  0  0  0  0
   59.7150   29.8710   49.0230 C   0  0  0  0  0  0  0  0  0  0  0  0
   60.4560   28.8180   49.5920 C   0  0  0  0  0  0  0  0  0  0  0  0
   60.4150   27.5420   49.0260 C   0  0  0  0  0  0  0  0  0  0  0  0
   59.6290   27.3000   47.8960 C   0  0  0  0  0  0  0  0  0  0  0  0
   58.8780   28.3350   47.3340 C   0  0  0  0  0  0  0  0  0  0  0  0
   58.9150   29.6140   47.8960 C   0  0  0  0  0  0  0  0  0  0  0  0
   57.0210   29.1380   52.5950 C   0  0  0  0  0  0  0  0  0  0  0  0
   55.6840   28.9310   52.9500 C   0  0  0  0  0  0  0  0  0  0  0  0
   51.9290   31.6340   52.6360 N   0  0  0  0  0  0  0  0  0  0  0  0
   51.1560   32.3750   51.7980 C   0  0  0  0  0  0  0  0  0  0  0  0
   50.6200   33.4360   52.2110 O   0  0  0  0  0  0  0  0  0  0  0  0
   50.9630   31.9720   50.5150 N   0  0  0  0  0  0  0  0  0  0  0  0
   52.8055   29.1339   50.5273 H   0  0  0  0  0  0  0  0  0  0  0  0
   53.1760   30.0490   54.1000 H   0  0  0  0  0  0  0  0  0  0  0  0
   53.1220   28.7160   53.0710 H   0  0  0  0  0  0  0  0  0  0  0  0
   54.4079   31.9761   52.0490 H   0  0  0  0  0  0  0  0  0  0  0  0
   56.7900   32.3373   51.4119 H   0  0  0  0  0  0  0  0  0  0  0  0
   59.7446   34.8708   50.9646 H   0  0  0  0  0  0  0  0  0  0  0  0
   60.7220   34.4085   48.7119 H   0  0  0  0  0  0  0  0  0  0  0  0
   60.7265   32.0702   47.8304 H   0  0  0  0  0  0  0  0  0  0  0  0
   61.0699   29.0010   50.4862 H   0  0  0  0  0  0  0  0  0  0  0  0
   61.0028   26.7254   49.4706 H   0  0  0  0  0  0  0  0  0  0  0  0
   59.6018   26.2951   47.4495 H   0  0  0  0  0  0  0  0  0  0  0  0
   58.2561   28.1430   46.4472 H   0  0  0  0  0  0  0  0  0  0  0  0
   58.3153   30.4235   47.4544 H   0  0  0  0  0  0  0  0  0  0  0  0
   57.7541   28.3294   52.7323 H   0  0  0  0  0  0  0  0  0  0  0  0
   55.3722   27.9622   53.3674 H   0  0  0  0  0  0  0  0  0  0  0  0
  1  2  2  0
  2  3  1  0
  3  4  2  0
  4  5  1  0
  5  6  1  0
  6  7  2  0
  7  8  1  0
  8  9  2  0
  9 10  1  0
 10 11  1  0
 11 12  2  0
 12 13  1  0
 13 14  2  0
 14 15  1  0
 15 16  2  0
 16 17  1  0
 17 18  2  0
 18 19  1  0
 19 20  2  0
 20 21  1  0
 21 22  2  0
  9 23  1  0
 23 24  2  0
  4 25  1  0
 25 26  1  0
 26 27  2  0
 26 28  1  0
 28  2  1  0
 24  6  1  0
 16 11  1  0
 22 17  1  0
  3 29  1  0
  5 30  1  0
  5 31  1  0
  7 32  1  0
  8 33  1  0
 13 34  1  0
 14 35  1  0
 15 36  1  0
 18 37  1  0
 19 38  1  0
 20 39  1  0
 21 40  1  0
 22 41  1  0
 23 42  1  0
 24 43  1  0
M  CHG  3   5   1  25  -1  28  -1
M  END
>  <UniqueID>  (65) 
63

>  <SMILES>  (65) 
O=c1cc([NH2+]c2ccc(Oc3ncccc3-c3ccccc3)cc2)[n-]c(=O)[n-]1

>  <Energy>  (65) 
63.995240583902735

>  <Genealogy>  (65) 
O=c1cc([NH2+]c2ccc(Oc3ncccc3-c3ccccc3)cc2)[n-]c(=O)[n-]1 (protonated)
O=c1cc([NH2+]c2ccc(Oc3ncccc3-c3ccccc3)cc2)[n-]c(=O)[n-]1 (3D coordinates assigned)
O=c1cc([NH2+]c2ccc(Oc3ncccc3-c3ccccc3)cc2)[n-]c(=O)[n-]1 (optimized conformer: 63.995240583902735 kcal/mol)

>  <smiles>  (65) 
O=c1cc(Nc2ccc(Oc3ncccc3-c3ccccc3)cc2)[nH]c(=O)[nH]1

>  <score_type>  (65) 
oracle

>  <origin>  (65) 
adg

>  <m_score__min__energy>  (65) 
-11.49

>  <m_primary>  (65) 
energy

$$$$
65:0
     RDKit          3D

 30 31  0  0  0  0  0  0  0  0999 V2000
   55.2110   29.1540   44.4870 N   0  0  0  0  0  0  0  0  0  0  0  0
   56.3700   29.9560   44.7160 C   0  0  0  0  0  0  0  0  0  0  0  0
   57.6340   29.3650   44.8160 C   0  0  0  0  0  0  0  0  0  0  0  0
   58.7380   30.1900   45.0390 C   0  0  0  0  0  0  0  0  0  0  0  0
   59.8910   29.6940   45.1330 O   0  0  0  0  0  0  0  0  0  0  0  0
   58.5680   31.5330   45.1550 N   0  0  0  0  0  0  0  0  0  0  0  0
   57.3320   32.0900   45.0570 C   0  0  0  0  0  0  0  0  0  0  0  0
   57.1360   33.8610   45.2160 S   0  0  0  0  0  0  0  0  0  0  0  0
   58.8060   34.2190   44.5870 C   0  0  0  0  0  0  0  0  0  0  0  0
   59.7490   34.3550   45.7400 C   0  0  0  0  0  0  0  0  0  0  0  0
   59.9000   35.4800   46.2880 O   0  0  0  0  0  0  0  0  0  0  0  0
   60.4750   33.2080   46.2100 N   0  0  0  0  0  0  0  0  0  0  0  0
   61.5390   33.2820   47.1750 C   0  0  0  0  0  0  0  0  0  0  0  0
   62.8800   33.3630   46.7540 C   0  0  0  0  0  0  0  0  0  0  0  0
   63.9150   33.4050   47.6920 C   0  0  0  0  0  0  0  0  0  0  0  0
   63.6260   33.3560   49.0570 C   0  0  0  0  0  0  0  0  0  0  0  0
   64.6320   33.3950   49.9640 F   0  0  0  0  0  0  0  0  0  0  0  0
   62.3010   33.2600   49.4870 C   0  0  0  0  0  0  0  0  0  0  0  0
   61.2570   33.2180   48.5550 C   0  0  0  0  0  0  0  0  0  0  0  0
   59.4570   33.1130   49.2060 Br  0  0  0  0  0  0  0  0  0  0  0  0
   56.2460   31.3030   44.8370 N   0  0  0  0  0  0  0  0  0  0  0  0
   54.4190   29.5080   43.9050 H   0  0  0  0  0  0  0  0  0  0  0  0
   55.1440   28.1970   44.8990 H   0  0  0  0  0  0  0  0  0  0  0  0
   57.7552   28.2758   44.7212 H   0  0  0  0  0  0  0  0  0  0  0  0
   59.1377   33.3968   43.9359 H   0  0  0  0  0  0  0  0  0  0  0  0
   58.7902   35.1560   44.0110 H   0  0  0  0  0  0  0  0  0  0  0  0
   60.1820   32.2680   45.8620 H   0  0  0  0  0  0  0  0  0  0  0  0
   63.1146   33.3934   45.6797 H   0  0  0  0  0  0  0  0  0  0  0  0
   64.9594   33.4768   47.3542 H   0  0  0  0  0  0  0  0  0  0  0  0
   62.0764   33.2172   50.5630 H   0  0  0  0  0  0  0  0  0  0  0  0
  1  2  1  0
  2  3  2  0
  3  4  1  0
  4  5  2  0
  4  6  1  0
  6  7  1  0
  7  8  1  0
  8  9  1  0
  9 10  1  0
 10 11  2  0
 10 12  1  0
 12 13  1  0
 13 14  2  0
 14 15  1  0
 15 16  2  0
 16 17  1  0
 16 18  1  0
 18 19  2  0
 19 20  1  0
  7 21  2  0
 21  2  1  0
 19 13  1  0
  1 22  1  0
  1 23  1  0
  3 24  1  0
  9 25  1  0
  9 26  1  0
 12 27  1  0
 14 28  1  0
 15 29  1  0
 18 30  1  0
M  CHG  1   6  -1
M  END
>  <UniqueID>  (66) 
64

>  <SMILES>  (66) 
Nc1cc(=O)[n-]c(SCC(=O)Nc2ccc(F)cc2Br)n1

>  <Energy>  (66) 
29.668106730733136

>  <Genealogy>  (66) 
Nc1cc(=O)[n-]c(SCC(=O)Nc2ccc(F)cc2Br)n1 (protonated)
Nc1cc(=O)[n-]c(SCC(=O)Nc2ccc(F)cc2Br)n1 (3D coordinates assigned)
Nc1cc(=O)[n-]c(SCC(=O)Nc2ccc(F)cc2Br)n1 (optimized conformer: 29.668106730733136 kcal/mol)

>  <smiles>  (66) 
Nc1cc(=O)[nH]c(SCC(=O)Nc2ccc(F)cc2Br)n1

>  <score_type>  (66) 
oracle

>  <origin>  (66) 
adg

>  <m_score__min__energy>  (66) 
-8.9000000000000004

>  <m_primary>  (66) 
energy

$$$$
66:0
     RDKit          3D

 27 28  0  0  0  0  0  0  0  0999 V2000
   59.5080   30.1210   44.9550 O   0  0  0  0  0  0  0  0  0  0  0  0
   58.2890   29.9250   44.6930 C   0  0  0  0  0  0  0  0  0  0  0  0
   57.5580   30.9100   43.9430 N   0  0  0  0  0  0  0  0  0  0  0  0
   58.1560   32.1750   43.5220 C   0  0  0  0  0  0  0  0  0  0  0  0
   58.3870   33.0640   44.7150 C   0  0  0  0  0  0  0  0  0  0  0  0
   57.7580   32.7940   45.9410 C   0  0  0  0  0  0  0  0  0  0  0  0
   57.9950   33.6150   47.0490 C   0  0  0  0  0  0  0  0  0  0  0  0
   58.8620   34.7060   46.9400 C   0  0  0  0  0  0  0  0  0  0  0  0
   59.4950   34.9770   45.7240 C   0  0  0  0  0  0  0  0  0  0  0  0
   59.2610   34.1590   44.6140 C   0  0  0  0  0  0  0  0  0  0  0  0
   57.6310   28.6790   45.1590 C   0  0  0  0  0  0  0  0  0  0  0  0
   58.3950   27.5710   45.5590 C   0  0  0  0  0  0  0  0  0  0  0  0
   57.7850   26.4310   45.9720 N   0  0  0  0  0  0  0  0  0  0  0  0
   56.4330   26.3350   46.0080 C   0  0  0  0  0  0  0  0  0  0  0  0
   55.8870   25.2700   46.3970 O   0  0  0  0  0  0  0  0  0  0  0  0
   55.6660   27.3880   45.6240 N   0  0  0  0  0  0  0  0  0  0  0  0
   56.2280   28.5500   45.2010 C   0  0  0  0  0  0  0  0  0  0  0  0
   55.4800   29.5050   44.8630 O   0  0  0  0  0  0  0  0  0  0  0  0
   56.5820   30.7060   43.6300 H   0  0  0  0  0  0  0  0  0  0  0  0
   59.1174   31.9751   43.0263 H   0  0  0  0  0  0  0  0  0  0  0  0
   57.4718   32.6808   42.8249 H   0  0  0  0  0  0  0  0  0  0  0  0
   57.0771   31.9347   46.0306 H   0  0  0  0  0  0  0  0  0  0  0  0
   57.4984   33.4016   48.0070 H   0  0  0  0  0  0  0  0  0  0  0  0
   59.0460   35.3514   47.8116 H   0  0  0  0  0  0  0  0  0  0  0  0
   60.1783   35.8349   45.6397 H   0  0  0  0  0  0  0  0  0  0  0  0
   59.7629   34.3738   43.6590 H   0  0  0  0  0  0  0  0  0  0  0  0
   59.4934   27.6271   45.5376 H   0  0  0  0  0  0  0  0  0  0  0  0
  1  2  2  0
  2  3  1  0
  3  4  1  0
  4  5  1  0
  5  6  2  0
  6  7  1  0
  7  8  2  0
  8  9  1  0
  9 10  2  0
  2 11  1  0
 11 12  2  0
 12 13  1  0
 13 14  1  0
 14 15  2  0
 14 16  1  0
 16 17  1  0
 17 18  2  0
 10  5  1  0
 17 11  1  0
  3 19  1  0
  4 20  1  0
  4 21  1  0
  6 22  1  0
  7 23  1  0
  8 24  1  0
  9 25  1  0
 10 26  1  0
 12 27  1  0
M  CHG  2  13  -1  16  -1
M  END
>  <UniqueID>  (67) 
65

>  <SMILES>  (67) 
O=C(NCc1ccccc1)c1c[n-]c(=O)[n-]c1=O

>  <Energy>  (67) 
30.604004239055932

>  <Genealogy>  (67) 
O=C(NCc1ccccc1)c1c[n-]c(=O)[n-]c1=O (protonated)
O=C(NCc1ccccc1)c1c[n-]c(=O)[n-]c1=O (3D coordinates assigned)
O=C(NCc1ccccc1)c1c[n-]c(=O)[n-]c1=O (optimized conformer: 30.604004239055932 kcal/mol)

>  <smiles>  (67) 
O=C(NCc1ccccc1)c1c[nH]c(=O)[nH]c1=O

>  <score_type>  (67) 
oracle

>  <origin>  (67) 
adg

>  <m_score__min__energy>  (67) 
-10.210000000000001

>  <m_primary>  (67) 
energy

$$$$
67:0
     RDKit          3D

 68 71  0  0  0  0  0  0  0  0999 V2000
   62.6280   30.1720   51.2880 C   0  0  0  0  0  0  0  0  0  0  0  0
   61.7080   31.2290   51.0460 O   0  0  0  0  0  0  0  0  0  0  0  0
   61.5960   31.9260   49.8300 C   0  0  0  0  0  0  0  0  0  0  0  0
   62.6640   31.9840   48.9130 C   0  0  0  0  0  0  0  0  0  0  0  0
   62.5360   32.6910   47.7180 C   0  0  0  0  0  0  0  0  0  0  0  0
   61.3380   33.3460   47.4100 C   0  0  0  0  0  0  0  0  0  0  0  0
   61.2080   34.1360   46.1350 C   0  0  0  0  0  0  0  0  0  0  0  0
   59.8810   34.8200   46.0280 C   0  0  0  0  0  0  0  0  0  0  0  0
   59.5870   35.7250   46.8590 O   0  0  0  0  0  0  0  0  0  0  0  0
   59.0160   34.5190   44.9650 O   0  0  0  0  0  0  0  0  0  0  0  0
   58.3980   33.2770   44.7740 C   0  0  0  0  0  0  0  0  0  0  0  0
   58.0290   32.9010   43.4790 C   0  0  0  0  0  0  0  0  0  0  0  0
   57.4160   31.6660   43.2480 C   0  0  0  0  0  0  0  0  0  0  0  0
   57.1640   30.7860   44.3140 C   0  0  0  0  0  0  0  0  0  0  0  0
   56.5320   29.4780   44.0440 C   0  0  0  0  0  0  0  0  0  0  0  0
   56.5500   29.0350   42.8660 O   0  0  0  0  0  0  0  0  0  0  0  0
   55.8960   28.6850   45.0570 N   0  0  0  0  0  0  0  0  0  0  0  0
   56.3560   27.4160   45.6260 C   0  0  0  0  0  0  0  0  0  0  0  0
   57.8360   27.1380   45.3150 C   0  0  0  0  0  0  0  0  0  0  0  0
   58.7490   28.1080   46.0300 C   0  0  0  0  0  0  0  0  0  0  0  0
   59.7970   28.7330   45.3350 C   0  0  0  0  0  0  0  0  0  0  0  0
   60.6730   29.5940   46.0060 C   0  0  0  0  0  0  0  0  0  0  0  0
   60.5020   29.8400   47.3710 C   0  0  0  0  0  0  0  0  0  0  0  0
   59.4600   29.2220   48.0690 C   0  0  0  0  0  0  0  0  0  0  0  0
   58.5860   28.3600   47.4040 C   0  0  0  0  0  0  0  0  0  0  0  0
   57.5740   31.1460   45.6080 C   0  0  0  0  0  0  0  0  0  0  0  0
   58.1770   32.3850   45.8390 C   0  0  0  0  0  0  0  0  0  0  0  0
   60.2550   33.2530   48.2950 C   0  0  0  0  0  0  0  0  0  0  0  0
   60.3820   32.5760   49.5180 C   0  0  0  0  0  0  0  0  0  0  0  0
   59.0150   32.5580   50.6550 S   0  0  0  0  0  0  0  0  0  0  0  0
   57.7410   32.2540   49.9110 O   0  0  0  0  0  0  0  0  0  0  0  0
   58.9010   33.9180   51.2840 O   0  0  0  0  0  0  0  0  0  0  0  0
   59.2290   31.3530   51.9040 N   0  0  0  0  0  0  0  0  0  0  0  0
   58.4760   30.1250   51.5680 C   0  0  0  0  0  0  0  0  0  0  0  0
   58.3750   29.1800   52.7870 C   0  0  0  0  0  0  0  0  0  0  0  0
   59.2970   29.5480   53.7920 O   0  0  0  0  0  0  0  0  0  0  0  0
   58.9570   30.8190   54.3130 C   0  0  0  0  0  0  0  0  0  0  0  0
   58.7890   31.8850   53.2050 C   0  0  0  0  0  0  0  0  0  0  0  0
   62.7493   30.0326   52.3724 H   0  0  0  0  0  0  0  0  0  0  0  0
   62.2457   29.2432   50.8394 H   0  0  0  0  0  0  0  0  0  0  0  0
   63.6006   30.4226   50.8394 H   0  0  0  0  0  0  0  0  0  0  0  0
   63.6075   31.4668   49.1418 H   0  0  0  0  0  0  0  0  0  0  0  0
   63.3803   32.7342   47.0142 H   0  0  0  0  0  0  0  0  0  0  0  0
   62.0022   34.8966   46.1067 H   0  0  0  0  0  0  0  0  0  0  0  0
   61.2960   33.4347   45.2921 H   0  0  0  0  0  0  0  0  0  0  0  0
   58.2222   33.5813   42.6365 H   0  0  0  0  0  0  0  0  0  0  0  0
   57.1291   31.3813   42.2250 H   0  0  0  0  0  0  0  0  0  0  0  0
   56.2244   27.4497   46.7176 H   0  0  0  0  0  0  0  0  0  0  0  0
   55.7604   26.6094   45.1736 H   0  0  0  0  0  0  0  0  0  0  0  0
   58.0816   26.1148   45.6355 H   0  0  0  0  0  0  0  0  0  0  0  0
   57.9876   27.2587   44.2322 H   0  0  0  0  0  0  0  0  0  0  0  0
   59.9299   28.5452   44.2593 H   0  0  0  0  0  0  0  0  0  0  0  0
   61.4960   30.0770   45.4589 H   0  0  0  0  0  0  0  0  0  0  0  0
   61.1879   30.5205   47.8968 H   0  0  0  0  0  0  0  0  0  0  0  0
   59.3286   29.4153   49.1439 H   0  0  0  0  0  0  0  0  0  0  0  0
   57.7671   27.8763   47.9566 H   0  0  0  0  0  0  0  0  0  0  0  0
   57.4195   30.4485   46.4445 H   0  0  0  0  0  0  0  0  0  0  0  0
   58.4804   32.6643   46.8588 H   0  0  0  0  0  0  0  0  0  0  0  0
   59.2938   33.7163   48.0278 H   0  0  0  0  0  0  0  0  0  0  0  0
   60.2510   31.1300   51.9650 H   0  0  0  0  0  0  0  0  0  0  0  0
   57.4621   30.4031   51.2446 H   0  0  0  0  0  0  0  0  0  0  0  0
   59.0094   29.5988   50.7626 H   0  0  0  0  0  0  0  0  0  0  0  0
   57.3559   29.2310   53.1979 H   0  0  0  0  0  0  0  0  0  0  0  0
   58.6072   28.1568   52.4567 H   0  0  0  0  0  0  0  0  0  0  0  0
   58.0102   30.7322   54.8661 H   0  0  0  0  0  0  0  0  0  0  0  0
   59.7786   31.1434   54.9685 H   0  0  0  0  0  0  0  0  0  0  0  0
   57.7296   32.1734   53.1382 H   0  0  0  0  0  0  0  0  0  0  0  0
   59.4059   32.7600   53.4577 H   0  0  0  0  0  0  0  0  0  0  0  0
  1  2  1  0
  2  3  1  0
  3  4  2  0
  4  5  1  0
  5  6  2  0
  6  7  1  0
  7  8  1  0
  8  9  2  0
  8 10  1  0
 10 11  1  0
 11 12  2  0
 12 13  1  0
 13 14  2  0
 14 15  1  0
 15 16  2  0
 15 17  1  0
 17 18  1  0
 18 19  1  0
 19 20  1  0
 20 21  2  0
 21 22  1  0
 22 23  2  0
 23 24  1  0
 24 25  2  0
 14 26  1  0
 26 27  2  0
  6 28  1  0
 28 29  2  0
 29 30  1  0
 30 31  2  0
 30 32  2  0
 30 33  1  0
 33 34  1  0
 34 35  1  0
 35 36  1  0
 36 37  1  0
 37 38  1  0
 29  3  1  0
 38 33  1  0
 27 11  1  0
 25 20  1  0
  1 39  1  0
  1 40  1  0
  1 41  1  0
  4 42  1  0
  5 43  1  0
  7 44  1  0
  7 45  1  0
 12 46  1  0
 13 47  1  0
 18 48  1  0
 18 49  1  0
 19 50  1  0
 19 51  1  0
 21 52  1  0
 22 53  1  0
 23 54  1  0
 24 55  1  0
 25 56  1  0
 26 57  1  0
 27 58  1  0
 28 59  1  0
 33 60  1  0
 34 61  1  0
 34 62  1  0
 35 63  1  0
 35 64  1  0
 37 65  1  0
 37 66  1  0
 38 67  1  0
 38 68  1  0
M  CHG  2  17  -1  33   1
M  END
>  <UniqueID>  (68) 
66

>  <SMILES>  (68) 
COc1ccc(CC(=O)Oc2ccc(C(=O)[N-]CCc3ccccc3)cc2)cc1S(=O)(=O)[NH+]1CCOCC1

>  <Energy>  (68) 
84.62425962006158

>  <Genealogy>  (68) 
COc1ccc(CC(=O)Oc2ccc(C(=O)[N-]CCc3ccccc3)cc2)cc1S(=O)(=O)[NH+]1CCOCC1 (protonated)
COc1ccc(CC(=O)Oc2ccc(C(=O)[N-]CCc3ccccc3)cc2)cc1S(=O)(=O)[NH+]1CCOCC1 (3D coordinates assigned)
COc1ccc(CC(=O)Oc2ccc(C(=O)[N-]CCc3ccccc3)cc2)cc1S(=O)(=O)[NH+]1CCOCC1 (nonaromatic ring conformer: 84.62425962006158 kcal/mol)

>  <smiles>  (68) 
COc1ccc(CC(=O)Oc2ccc(C(=O)NCCc3ccccc3)cc2)cc1S(=O)(=O)N1CCOCC1

>  <score_type>  (68) 
oracle

>  <origin>  (68) 
adg

>  <m_score__min__energy>  (68) 
-9.9000000000000004

>  <m_primary>  (68) 
energy

$$$$
68:0
     RDKit          3D

 52 54  0  0  0  0  0  0  0  0999 V2000
   59.8753   26.1190   46.7288 H   0  0  0  0  0  0  0  0  0  0  0  0
   60.3580   27.0410   47.0850 C   0  0  0  0  0  0  0  0  0  0  0  0
   61.1184   26.9926   47.8784 H   0  0  0  0  0  0  0  0  0  0  0  0
   60.0200   28.2220   46.5530 C   0  0  0  0  0  0  0  0  0  0  0  0
   59.0710   28.4630   45.5510 C   0  0  0  0  0  0  0  0  0  0  0  0
   58.3530   27.5200   44.9000 C   0  0  0  0  0  0  0  0  0  0  0  0
   58.6807   27.2436   43.8870 H   0  0  0  0  0  0  0  0  0  0  0  0
   57.1710   26.8360   45.4380 C   0  0  0  0  0  0  0  0  0  0  0  0
   57.2020   25.6210   46.0100 N   0  0  0  0  0  0  0  0  0  0  0  0
   55.9400   25.4620   46.4690 C   0  0  0  0  0  0  0  0  0  0  0  0
   55.5610   24.4190   47.0620 O   0  0  0  0  0  0  0  0  0  0  0  0
   55.1210   26.5150   46.2530 N   0  0  0  0  0  0  0  0  0  0  0  0
   55.9230   27.3830   45.6150 C   0  0  0  0  0  0  0  0  0  0  0  0
   55.5250   28.6520   45.2120 O   0  0  0  0  0  0  0  0  0  0  0  0
   59.0870   29.8540   45.3560 C   0  0  0  0  0  0  0  0  0  0  0  0
   58.4270   30.6830   44.2850 C   0  0  0  0  0  0  0  0  0  0  0  0
   59.1377   31.4440   43.9305 H   0  0  0  0  0  0  0  0  0  0  0  0
   58.1305   30.0177   43.4607 H   0  0  0  0  0  0  0  0  0  0  0  0
   57.1710   31.3820   44.8240 C   0  0  0  0  0  0  0  0  0  0  0  0
   56.4398   31.4793   44.0080 H   0  0  0  0  0  0  0  0  0  0  0  0
   56.7672   30.7731   45.6463 H   0  0  0  0  0  0  0  0  0  0  0  0
   57.4830   32.7560   45.3670 C   0  0  0  0  0  0  0  0  0  0  0  0
   56.7450   33.7240   45.0330 O   0  0  0  0  0  0  0  0  0  0  0  0
   58.5590   32.9690   46.3100 N   0  0  0  0  0  0  0  0  0  0  0  0
   59.7700   33.6950   45.8960 C   0  0  0  0  0  0  0  0  0  0  0  0
   60.6186   32.9952   45.8801 H   0  0  0  0  0  0  0  0  0  0  0  0
   59.5938   34.1190   44.8964 H   0  0  0  0  0  0  0  0  0  0  0  0
   60.0920   34.8500   46.8610 C   0  0  0  0  0  0  0  0  0  0  0  0
   61.1825   34.9926   46.8801 H   0  0  0  0  0  0  0  0  0  0  0  0
   59.5587   35.7373   46.4891 H   0  0  0  0  0  0  0  0  0  0  0  0
   59.6080   34.6060   48.3040 C   0  0  0  0  0  0  0  0  0  0  0  0
   60.3314   35.0595   48.9975 H   0  0  0  0  0  0  0  0  0  0  0  0
   58.6099   35.0589   48.3968 H   0  0  0  0  0  0  0  0  0  0  0  0
   59.4690   33.1140   48.6480 C   0  0  2  0  0  0  0  0  0  0  0  0
   59.0603   33.0019   49.6631 H   0  0  0  0  0  0  0  0  0  0  0  0
   60.8190   32.4340   48.6910 C   0  0  0  0  0  0  0  0  0  0  0  0
   60.9250   31.2170   49.0130 O   0  0  0  0  0  0  0  0  0  0  0  0
   61.9590   33.1830   48.3790 O   0  0  0  0  0  0  0  0  0  0  0  0
   63.0020   32.6880   47.5430 C   0  0  0  0  0  0  0  0  0  0  0  0
   63.7526   32.1720   48.1597 H   0  0  0  0  0  0  0  0  0  0  0  0
   62.5817   31.9828   46.8108 H   0  0  0  0  0  0  0  0  0  0  0  0
   63.6580   33.8480   46.8110 C   0  0  0  0  0  0  0  0  0  0  0  0
   64.0620   34.5623   47.5435 H   0  0  0  0  0  0  0  0  0  0  0  0
   64.4751   33.4683   46.1800 H   0  0  0  0  0  0  0  0  0  0  0  0
   62.9115   34.3526   46.1800 H   0  0  0  0  0  0  0  0  0  0  0  0
   58.4570   32.4480   47.6860 C   0  0  0  0  0  0  0  0  0  0  0  0
   58.6476   31.3648   47.6681 H   0  0  0  0  0  0  0  0  0  0  0  0
   57.4459   32.6746   48.0552 H   0  0  0  0  0  0  0  0  0  0  0  0
   60.0300   30.3650   46.2310 C   0  0  0  0  0  0  0  0  0  0  0  0
   60.2908   31.4298   46.3209 H   0  0  0  0  0  0  0  0  0  0  0  0
   60.5810   29.3780   46.9540 N   0  0  0  0  0  0  0  0  0  0  0  0
   61.3250   29.4970   47.6780 H   0  0  0  0  0  0  0  0  0  0  0  0
  1  2  1  0
  2  3  1  0
  2  4  2  0
  4  5  1  0
  5  6  2  0
  6  7  1  0
  6  8  1  0
  8  9  1  0
  9 10  1  0
 10 11  2  0
 10 12  1  0
 12 13  1  0
 13 14  1  0
  5 15  1  0
 15 16  1  0
 16 17  1  0
 16 18  1  0
 16 19  1  0
 19 20  1  0
 19 21  1  0
 19 22  1  0
 22 23  2  0
 22 24  1  0
 24 25  1  0
 25 26  1  0
 25 27  1  0
 25 28  1  0
 28 29  1  0
 28 30  1  0
 28 31  1  0
 31 32  1  0
 31 33  1  0
 31 34  1  0
 34 35  1  1
 34 36  1  0
 36 37  2  0
 36 38  1  0
 38 39  1  0
 39 40  1  0
 39 41  1  0
 39 42  1  0
 42 43  1  0
 42 44  1  0
 42 45  1  0
 34 46  1  0
 46 47  1  0
 46 48  1  0
 15 49  2  0
 49 50  1  0
 49 51  1  0
 51 52  1  0
 51  4  1  0
 13  8  2  0
 46 24  1  0
M  CHG  3   9  -1  12  -1  14  -1
M  END
>  <UniqueID>  (69) 
67

>  <SMILES>  (69) 
C=c1[nH]cc(CCC(=O)N2CCC[C@H](C(=O)OCC)C2)/c1=C\c1[n-]c(=O)[n-]c1[O-]

>  <Energy>  (69) 
117.43360137888716

>  <Genealogy>  (69) 
C=c1[nH]cc(CCC(=O)N2CCCC(C(=O)OCC)C2)c1=Cc1[n-]c(=O)[n-]c1[O-] (protonated)
C=c1[nH]cc(CCC(=O)N2CCC[C@H](C(=O)OCC)C2)c1=Cc1[n-]c(=O)[n-]c1[O-] (chirality)
C=c1[nH]cc(CCC(=O)N2CCC[C@H](C(=O)OCC)C2)/c1=C\c1[n-]c(=O)[n-]c1[O-] (cis-trans isomerization)
C=c1[nH]cc(CCC(=O)N2CCC[C@H](C(=O)OCC)C2)/c1=C\c1[n-]c(=O)[n-]c1[O-] (3D coordinates assigned)
C=c1[nH]cc(CCC(=O)N2CCC[C@H](C(=O)OCC)C2)/c1=C\c1[n-]c(=O)[n-]c1[O-] (nonaromatic ring conformer: 117.43360137888716 kcal/mol)

>  <smiles>  (69) 
C=c1[nH]cc(CCC(=O)N2CCCC(C(=O)OCC)C2)c1=Cc1[nH]c(=O)[nH]c1O

>  <score_type>  (69) 
oracle

>  <origin>  (69) 
adg

>  <m_score__min__energy>  (69) 
-17.219999999999999

>  <m_primary>  (69) 
energy

$$$$
69:0
     RDKit          3D

 51 53  0  0  0  0  0  0  0  0999 V2000
   60.4320   26.4830   46.8590 C   0  0  0  0  0  0  0  0  0  0  0  0
   59.5550   27.3230   47.6860 N   0  0  0  0  0  0  0  0  0  0  0  0
   60.0360   27.8180   48.9840 C   0  0  0  0  0  0  0  0  0  0  0  0
   60.4380   29.2600   48.8730 C   0  0  0  0  0  0  0  0  0  0  0  0
   60.1280   30.1690   49.8960 C   0  0  0  0  0  0  0  0  0  0  0  0
   60.5390   31.4970   49.7770 C   0  0  0  0  0  0  0  0  0  0  0  0
   61.2490   31.9070   48.6480 C   0  0  0  0  0  0  0  0  0  0  0  0
   61.5400   30.9760   47.6500 C   0  0  0  0  0  0  0  0  0  0  0  0
   61.1350   29.6850   47.7830 N   0  0  0  0  0  0  0  0  0  0  0  0
   58.2340   27.6910   47.2240 C   0  0  0  0  0  0  0  0  0  0  0  0
   57.7890   28.8490   47.4500 O   0  0  0  0  0  0  0  0  0  0  0  0
   57.3890   26.7490   46.4190 C   0  0  0  0  0  0  0  0  0  0  0  0
   56.2430   27.4710   45.8830 N   0  0  0  0  0  0  0  0  0  0  0  0
   56.2800   28.6460   45.0600 C   0  0  0  0  0  0  0  0  0  0  0  0
   55.2040   29.2690   44.8620 O   0  0  0  0  0  0  0  0  0  0  0  0
   57.5350   29.1500   44.3780 C   0  0  2  0  0  0  0  0  0  0  0  0
   58.6100   28.0700   44.2600 C   0  0  0  0  0  0  0  0  0  0  0  0
   59.9320   28.7980   44.4810 C   0  0  0  0  0  0  0  0  0  0  0  0
   59.5890   30.0680   45.2500 C   0  0  0  0  0  0  0  0  0  0  0  0
   58.1540   30.2660   45.0850 N   0  0  0  0  0  0  0  0  0  0  0  0
   57.5030   31.5470   45.2250 C   0  0  0  0  0  0  0  0  0  0  0  0
   56.3000   31.6710   44.8690 O   0  0  0  0  0  0  0  0  0  0  0  0
   58.2120   32.7420   45.7390 C   0  0  0  0  0  0  0  0  0  0  0  0
   58.6400   33.7330   44.8390 C   0  0  0  0  0  0  0  0  0  0  0  0
   59.2970   34.8770   45.3030 C   0  0  0  0  0  0  0  0  0  0  0  0
   59.5180   35.0490   46.6720 C   0  0  0  0  0  0  0  0  0  0  0  0
   59.0800   34.0800   47.5770 C   0  0  0  0  0  0  0  0  0  0  0  0
   59.2830   34.2560   48.9060 F   0  0  0  0  0  0  0  0  0  0  0  0
   58.4270   32.9340   47.1160 C   0  0  0  0  0  0  0  0  0  0  0  0
   61.0724   25.8696   47.5098 H   0  0  0  0  0  0  0  0  0  0  0  0
   59.8188   25.8266   46.2240 H   0  0  0  0  0  0  0  0  0  0  0  0
   61.0613   27.1239   46.2240 H   0  0  0  0  0  0  0  0  0  0  0  0
   59.2333   27.7211   49.7298 H   0  0  0  0  0  0  0  0  0  0  0  0
   60.9095   27.2249   49.2927 H   0  0  0  0  0  0  0  0  0  0  0  0
   59.5669   29.8381   50.7824 H   0  0  0  0  0  0  0  0  0  0  0  0
   60.3036   32.2198   50.5721 H   0  0  0  0  0  0  0  0  0  0  0  0
   61.5757   32.9524   48.5457 H   0  0  0  0  0  0  0  0  0  0  0  0
   62.0979   31.2871   46.7545 H   0  0  0  0  0  0  0  0  0  0  0  0
   57.9844   26.3372   45.5908 H   0  0  0  0  0  0  0  0  0  0  0  0
   57.0400   25.9263   47.0603 H   0  0  0  0  0  0  0  0  0  0  0  0
   57.1883   29.4681   43.3837 H   0  0  0  0  0  0  0  0  0  0  0  0
   58.4637   27.2944   45.0262 H   0  0  0  0  0  0  0  0  0  0  0  0
   58.5778   27.5618   43.2850 H   0  0  0  0  0  0  0  0  0  0  0  0
   60.6204   28.1709   45.0665 H   0  0  0  0  0  0  0  0  0  0  0  0
   60.4302   29.0267   43.5273 H   0  0  0  0  0  0  0  0  0  0  0  0
   59.8379   29.9484   46.3148 H   0  0  0  0  0  0  0  0  0  0  0  0
   60.1592   30.9308   44.8753 H   0  0  0  0  0  0  0  0  0  0  0  0
   58.4568   33.6079   43.7616 H   0  0  0  0  0  0  0  0  0  0  0  0
   59.6398   35.6415   44.5903 H   0  0  0  0  0  0  0  0  0  0  0  0
   60.0370   35.9477   47.0367 H   0  0  0  0  0  0  0  0  0  0  0  0
   58.0788   32.1771   47.8343 H   0  0  0  0  0  0  0  0  0  0  0  0
  1  2  1  0
  2  3  1  0
  3  4  1  0
  4  5  2  0
  5  6  1  0
  6  7  2  0
  7  8  1  0
  8  9  2  0
  2 10  1  0
 10 11  2  0
 10 12  1  0
 12 13  1  0
 13 14  1  0
 14 15  2  0
 14 16  1  0
 16 17  1  0
 17 18  1  0
 18 19  1  0
 19 20  1  0
 20 21  1  0
 21 22  2  0
 21 23  1  0
 23 24  2  0
 24 25  1  0
 25 26  2  0
 26 27  1  0
 27 28  1  0
 27 29  2  0
  9  4  1  0
 20 16  1  0
 29 23  1  0
  1 30  1  0
  1 31  1  0
  1 32  1  0
  3 33  1  0
  3 34  1  0
  5 35  1  0
  6 36  1  0
  7 37  1  0
  8 38  1  0
 12 39  1  0
 12 40  1  0
 16 41  1  6
 17 42  1  0
 17 43  1  0
 18 44  1  0
 18 45  1  0
 19 46  1  0
 19 47  1  0
 24 48  1  0
 25 49  1  0
 26 50  1  0
 29 51  1  0
M  CHG  1  13  -1
M  END
>  <UniqueID>  (70) 
68

>  <SMILES>  (70) 
CN(Cc1ccccn1)C(=O)C[N-]C(=O)[C@@H]1CCCN1C(=O)c1cccc(F)c1

>  <Energy>  (70) 
52.18116818286513

>  <Genealogy>  (70) 
CN(Cc1ccccn1)C(=O)C[N-]C(=O)C1CCCN1C(=O)c1cccc(F)c1 (protonated)
CN(Cc1ccccn1)C(=O)C[N-]C(=O)[C@@H]1CCCN1C(=O)c1cccc(F)c1 (chirality)
CN(Cc1ccccn1)C(=O)C[N-]C(=O)[C@@H]1CCCN1C(=O)c1cccc(F)c1 (3D coordinates assigned)
CN(Cc1ccccn1)C(=O)C[N-]C(=O)[C@@H]1CCCN1C(=O)c1cccc(F)c1 (nonaromatic ring conformer: 52.18116818286513 kcal/mol)

>  <smiles>  (70) 
CN(Cc1ccccn1)C(=O)CNC(=O)C1CCCN1C(=O)c1cccc(F)c1

>  <score_type>  (70) 
oracle

>  <origin>  (70) 
adg

>  <m_score__min__energy>  (70) 
-10.800000000000001

>  <m_primary>  (70) 
energy

$$$$
70:0
     RDKit          3D

 60 63  0  0  0  0  0  0  0  0999 V2000
   54.3531   29.6587   43.5383 H   0  0  0  0  0  0  0  0  0  0  0  0
   55.4000   29.7220   43.8700 C   0  0  0  0  0  0  0  0  0  0  0  0
   55.8310   28.9580   44.9060 N   0  0  0  0  0  0  0  0  0  0  0  0
   57.1120   28.9980   45.3640 C   0  0  0  0  0  0  0  0  0  0  0  0
   57.4300   28.2160   46.3600 N   0  0  0  0  0  0  0  0  0  0  0  0
   58.7300   27.8610   46.8680 C   0  0  0  0  0  0  0  0  0  0  0  0
   59.3890   26.9220   46.3440 O   0  0  0  0  0  0  0  0  0  0  0  0
   59.3340   28.6570   47.9620 C   0  0  0  0  0  0  0  0  0  0  0  0
   60.4030   28.1410   48.7180 C   0  0  0  0  0  0  0  0  0  0  0  0
   60.7910   27.1354   48.4984 H   0  0  0  0  0  0  0  0  0  0  0  0
   60.9760   28.8960   49.7460 C   0  0  0  0  0  0  0  0  0  0  0  0
   61.8089   28.4815   50.3329 H   0  0  0  0  0  0  0  0  0  0  0  0
   60.4930   30.1750   50.0290 C   0  0  0  0  0  0  0  0  0  0  0  0
   60.9481   30.7659   50.8375 H   0  0  0  0  0  0  0  0  0  0  0  0
   59.4290   30.7100   49.2860 C   0  0  0  0  0  0  0  0  0  0  0  0
   58.9550   32.1170   49.5340 C   0  0  0  0  0  0  0  0  0  0  0  0
   57.9297   32.0919   49.9316 H   0  0  0  0  0  0  0  0  0  0  0  0
   59.6233   32.6019   50.2608 H   0  0  0  0  0  0  0  0  0  0  0  0
   58.9720   32.8760   48.2810 N   0  0  0  0  0  0  0  0  0  0  0  0
   60.0580   33.3060   47.5960 C   0  0  0  0  0  0  0  0  0  0  0  0
   61.4570   33.2200   48.0560 C   0  0  0  0  0  0  0  0  0  0  0  0
   62.3930   32.4630   47.3400 C   0  0  0  0  0  0  0  0  0  0  0  0
   62.0796   31.9160   46.4386 H   0  0  0  0  0  0  0  0  0  0  0  0
   63.7210   32.3990   47.7640 C   0  0  0  0  0  0  0  0  0  0  0  0
   64.4491   31.8029   47.1944 H   0  0  0  0  0  0  0  0  0  0  0  0
   64.1340   33.0940   48.9180 C   0  0  0  0  0  0  0  0  0  0  0  0
   65.4650   33.0680   49.3680 O   0  0  0  0  0  0  0  0  0  0  0  0
   65.9690   32.1550   50.3390 C   0  0  0  0  0  0  0  0  0  0  0  0
   65.7572   32.5388   51.3479 H   0  0  0  0  0  0  0  0  0  0  0  0
   65.4832   31.1767   50.2093 H   0  0  0  0  0  0  0  0  0  0  0  0
   67.0558   32.0448   50.2093 H   0  0  0  0  0  0  0  0  0  0  0  0
   63.1980   33.8420   49.6510 C   0  0  0  0  0  0  0  0  0  0  0  0
   63.6400   34.5240   50.7980 O   0  0  0  0  0  0  0  0  0  0  0  0
   63.6280   33.9830   52.1160 C   0  0  0  0  0  0  0  0  0  0  0  0
   63.6462   34.8029   52.8491 H   0  0  0  0  0  0  0  0  0  0  0  0
   62.7163   33.3841   52.2582 H   0  0  0  0  0  0  0  0  0  0  0  0
   64.5122   33.3443   52.2582 H   0  0  0  0  0  0  0  0  0  0  0  0
   61.8570   33.8910   49.2200 C   0  0  0  0  0  0  0  0  0  0  0  0
   61.1178   34.4608   49.8021 H   0  0  0  0  0  0  0  0  0  0  0  0
   59.6590   33.7480   46.3470 C   0  0  0  0  0  0  0  0  0  0  0  0
   60.2907   34.1454   45.5389 H   0  0  0  0  0  0  0  0  0  0  0  0
   58.2840   33.5770   46.3440 C   0  0  0  0  0  0  0  0  0  0  0  0
   57.3760   33.7880   45.1740 C   0  0  0  0  0  0  0  0  0  0  0  0
   56.4760   32.7400   45.0800 F   0  0  0  0  0  0  0  0  0  0  0  0
   58.1270   33.8480   44.0150 F   0  0  0  0  0  0  0  0  0  0  0  0
   56.6730   34.9710   45.3250 F   0  0  0  0  0  0  0  0  0  0  0  0
   57.9030   33.0300   47.5140 N   0  0  0  0  0  0  0  0  0  0  0  0
   56.9390   32.7140   47.7640 H   0  0  0  0  0  0  0  0  0  0  0  0
   58.8560   29.9490   48.2520 C   0  0  0  0  0  0  0  0  0  0  0  0
   58.0259   30.3673   47.6637 H   0  0  0  0  0  0  0  0  0  0  0  0
   58.0390   29.8450   44.7180 C   0  0  0  0  0  0  0  0  0  0  0  0
   59.0867   29.8749   45.0517 H   0  0  0  0  0  0  0  0  0  0  0  0
   57.6140   30.6520   43.6430 C   0  0  0  0  0  0  0  0  0  0  0  0
   58.4800   31.5220   42.9630 O   0  0  0  0  0  0  0  0  0  0  0  0
   58.1320   32.2560   41.7930 C   0  0  0  0  0  0  0  0  0  0  0  0
   57.6775   33.2147   42.0833 H   0  0  0  0  0  0  0  0  0  0  0  0
   59.0364   32.4448   41.1961 H   0  0  0  0  0  0  0  0  0  0  0  0
   57.4133   31.6753   41.1961 H   0  0  0  0  0  0  0  0  0  0  0  0
   56.2830   30.5860   43.2270 C   0  0  0  0  0  0  0  0  0  0  0  0
   55.9330   31.2140   42.3945 H   0  0  0  0  0  0  0  0  0  0  0  0
  1  2  1  0
  2  3  1  0
  3  4  1  0
  4  5  2  0
  5  6  1  0
  6  7  2  0
  6  8  1  0
  8  9  2  0
  9 10  1  0
  9 11  1  0
 11 12  1  0
 11 13  2  0
 13 14  1  0
 13 15  1  0
 15 16  1  0
 16 17  1  0
 16 18  1  0
 16 19  1  0
 19 20  1  0
 20 21  1  0
 21 22  2  0
 22 23  1  0
 22 24  1  0
 24 25  1  0
 24 26  2  0
 26 27  1  0
 27 28  1  0
 28 29  1  0
 28 30  1  0
 28 31  1  0
 26 32  1  0
 32 33  1  0
 33 34  1  0
 34 35  1  0
 34 36  1  0
 34 37  1  0
 32 38  2  0
 38 39  1  0
 20 40  2  0
 40 41  1  0
 40 42  1  0
 42 43  1  0
 43 44  1  0
 43 45  1  0
 43 46  1  0
 42 47  2  0
 47 48  1  0
 15 49  2  0
 49 50  1  0
  4 51  1  0
 51 52  1  0
 51 53  2  0
 53 54  1  0
 54 55  1  0
 55 56  1  0
 55 57  1  0
 55 58  1  0
 53 59  1  0
 59 60  1  0
 59  2  2  0
 49  8  1  0
 47 19  1  0
 38 21  1  0
M  CHG  2   3  -1  47   1
M  END
>  <UniqueID>  (71) 
69

>  <SMILES>  (71) 
COc1cc[n-]/c(=N/C(=O)c2cccc(Cn3[nH+]c(C(F)(F)F)cc3-c3ccc(OC)c(OC)c3)c2)c1

>  <Energy>  (71) 
104.05624765273697

>  <Genealogy>  (71) 
COc1cc[n-]c(=NC(=O)c2cccc(Cn3[nH+]c(C(F)(F)F)cc3-c3ccc(OC)c(OC)c3)c2)c1 (protonated)
COc1cc[n-]/c(=N/C(=O)c2cccc(Cn3[nH+]c(C(F)(F)F)cc3-c3ccc(OC)c(OC)c3)c2)c1 (cis-trans isomerization)
COc1cc[n-]/c(=N/C(=O)c2cccc(Cn3[nH+]c(C(F)(F)F)cc3-c3ccc(OC)c(OC)c3)c2)c1 (3D coordinates assigned)
COc1cc[n-]/c(=N/C(=O)c2cccc(Cn3[nH+]c(C(F)(F)F)cc3-c3ccc(OC)c(OC)c3)c2)c1 (optimized conformer: 104.05624765273697 kcal/mol)

>  <smiles>  (71) 
COc1cc[nH]c(=NC(=O)c2cccc(Cn3nc(C(F)(F)F)cc3-c3ccc(OC)c(OC)c3)c2)c1

>  <score_type>  (71) 
oracle

>  <origin>  (71) 
adg

>  <m_score__min__energy>  (71) 
-9.3699999999999992

>  <m_primary>  (71) 
energy

$$$$
71:0
     RDKit          3D

 45 48  0  0  0  0  0  0  0  0999 V2000
   64.3570   33.0830   48.5940 C   0  0  0  0  0  0  0  0  0  0  0  0
   63.1890   33.8270   47.9380 C   0  0  0  0  0  0  0  0  0  0  0  0
   63.1000   33.4700   46.4490 C   0  0  0  0  0  0  0  0  0  0  0  0
   61.8380   33.6280   48.6780 C   0  0  0  0  0  0  0  0  0  0  0  0
   61.2110   32.3000   48.4250 N   0  0  0  0  0  0  0  0  0  0  0  0
   61.6650   31.2270   49.1610 C   0  0  0  0  0  0  0  0  0  0  0  0
   62.6200   31.3530   49.9760 O   0  0  0  0  0  0  0  0  0  0  0  0
   61.0880   29.9730   49.0280 C   0  0  0  0  0  0  0  0  0  0  0  0
   60.0390   29.7800   48.1520 C   0  0  0  0  0  0  0  0  0  0  0  0
   59.5530   30.8450   47.3700 C   0  0  0  0  0  0  0  0  0  0  0  0
   58.4720   30.6870   46.4520 C   0  0  0  0  0  0  0  0  0  0  0  0
   57.7310   29.4850   46.3240 C   0  0  0  0  0  0  0  0  0  0  0  0
   56.6940   29.3800   45.3730 C   0  0  0  0  0  0  0  0  0  0  0  0
   55.9860   28.2970   45.2080 N   0  0  0  0  0  0  0  0  0  0  0  0
   56.2840   26.9560   45.6270 C   0  0  0  0  0  0  0  0  0  0  0  0
   55.4910   26.3160   46.3700 O   0  0  0  0  0  0  0  0  0  0  0  0
   57.6200   26.3680   45.3050 C   0  0  0  0  0  0  0  0  0  0  0  0
   57.6020   25.3200   44.2030 C   0  0  0  0  0  0  0  0  0  0  0  0
   58.1430   26.7110   43.9180 C   0  0  0  0  0  0  0  0  0  0  0  0
   56.3830   30.4630   44.6190 N   0  0  0  0  0  0  0  0  0  0  0  0
   57.0450   31.6390   44.7230 C   0  0  0  0  0  0  0  0  0  0  0  0
   58.1030   31.7810   45.6380 C   0  0  0  0  0  0  0  0  0  0  0  0
   58.7870   32.9970   45.7600 C   0  0  0  0  0  0  0  0  0  0  0  0
   58.4750   33.9810   45.0330 O   0  0  0  0  0  0  0  0  0  0  0  0
   59.7890   33.1330   46.6640 N   0  0  0  0  0  0  0  0  0  0  0  0
   60.1930   32.1160   47.4920 C   0  0  0  0  0  0  0  0  0  0  0  0
   64.2620   33.1435   49.6882 H   0  0  0  0  0  0  0  0  0  0  0  0
   64.3412   32.0282   48.2823 H   0  0  0  0  0  0  0  0  0  0  0  0
   65.3062   33.5432   48.2823 H   0  0  0  0  0  0  0  0  0  0  0  0
   63.3996   34.9034   48.0223 H   0  0  0  0  0  0  0  0  0  0  0  0
   62.8352   32.4077   46.3418 H   0  0  0  0  0  0  0  0  0  0  0  0
   62.3290   34.0904   45.9686 H   0  0  0  0  0  0  0  0  0  0  0  0
   64.0720   33.6559   45.9686 H   0  0  0  0  0  0  0  0  0  0  0  0
   62.0150   33.7291   49.7589 H   0  0  0  0  0  0  0  0  0  0  0  0
   61.1443   34.3912   48.2954 H   0  0  0  0  0  0  0  0  0  0  0  0
   61.4677   29.1291   49.6228 H   0  0  0  0  0  0  0  0  0  0  0  0
   59.5785   28.7849   48.0641 H   0  0  0  0  0  0  0  0  0  0  0  0
   57.9665   28.6274   46.9713 H   0  0  0  0  0  0  0  0  0  0  0  0
   58.0241   26.4185   46.3268 H   0  0  0  0  0  0  0  0  0  0  0  0
   58.2886   24.4618   44.2491 H   0  0  0  0  0  0  0  0  0  0  0  0
   56.8302   24.6786   43.7526 H   0  0  0  0  0  0  0  0  0  0  0  0
   59.2211   26.8597   43.7580 H   0  0  0  0  0  0  0  0  0  0  0  0
   57.9250   27.4933   43.1761 H   0  0  0  0  0  0  0  0  0  0  0  0
   56.7535   32.4886   44.0880 H   0  0  0  0  0  0  0  0  0  0  0  0
   60.2430   34.0670   46.6790 H   0  0  0  0  0  0  0  0  0  0  0  0
  1  2  1  0
  2  3  1  0
  2  4  1  0
  4  5  1  0
  5  6  1  0
  6  7  2  0
  6  8  1  0
  8  9  2  0
  9 10  1  0
 10 11  1  0
 11 12  2  0
 12 13  1  0
 13 14  2  3
 14 15  1  0
 15 16  2  0
 15 17  1  0
 17 18  1  0
 18 19  1  0
 13 20  1  0
 20 21  1  0
 21 22  2  0
 22 23  1  0
 23 24  2  0
 23 25  1  0
 25 26  1  0
 26  5  1  0
 26 10  2  0
 22 11  1  0
 19 17  1  0
  1 27  1  0
  1 28  1  0
  1 29  1  0
  2 30  1  0
  3 31  1  0
  3 32  1  0
  3 33  1  0
  4 34  1  0
  4 35  1  0
  8 36  1  0
  9 37  1  0
 12 38  1  0
 17 39  1  0
 18 40  1  0
 18 41  1  0
 19 42  1  0
 19 43  1  0
 21 44  1  0
 25 45  1  0
M  CHG  1  20  -1
M  END
>  <UniqueID>  (72) 
70

>  <SMILES>  (72) 
CC(C)Cn1c(=O)ccc2c3cc(=NC(=O)C4CC4)[n-]cc3c(=O)[nH]c21

>  <Energy>  (72) 
337.83432053929073

>  <Genealogy>  (72) 
CC(C)Cn1c(=O)ccc2c3cc(=NC(=O)C4CC4)[n-]cc3c(=O)[nH]c21 (protonated)
CC(C)Cn1c(=O)ccc2c3cc(=NC(=O)C4CC4)[n-]cc3c(=O)[nH]c21 (3D coordinates assigned)
CC(C)Cn1c(=O)ccc2c3cc(=NC(=O)C4CC4)[n-]cc3c(=O)[nH]c21 (nonaromatic ring conformer: 337.83432053929073 kcal/mol)

>  <smiles>  (72) 
CC(C)Cn1c(=O)ccc2c3cc(=NC(=O)C4CC4)[nH]cc3c(=O)[nH]c21

>  <score_type>  (72) 
oracle

>  <origin>  (72) 
adg

>  <m_score__min__energy>  (72) 
-9.6799999999999997

>  <m_primary>  (72) 
energy

$$$$
72:0
     RDKit          3D

 48 50  0  0  0  0  0  0  0  0999 V2000
   64.4840   31.4010   50.9550 C   0  0  0  0  0  0  0  0  0  0  0  0
   63.5300   32.5430   50.6090 C   0  0  1  0  0  0  0  0  0  0  0  0
   64.0620   33.3610   49.4140 C   0  0  0  0  0  0  0  0  0  0  0  0
   62.9950   34.1310   48.7390 N   0  0  0  0  0  0  0  0  0  0  0  0
   62.7610   33.7830   47.3180 C   0  0  0  0  0  0  0  0  0  0  0  0
   61.8600   32.5850   47.1200 C   0  0  0  0  0  0  0  0  0  0  0  0
   60.5970   32.7450   46.5270 C   0  0  0  0  0  0  0  0  0  0  0  0
   59.7480   31.6480   46.3600 C   0  0  0  0  0  0  0  0  0  0  0  0
   60.1500   30.3660   46.7740 C   0  0  0  0  0  0  0  0  0  0  0  0
   59.2430   29.2000   46.6090 C   0  0  0  0  0  0  0  0  0  0  0  0
   59.1110   28.2480   47.6350 C   0  0  0  0  0  0  0  0  0  0  0  0
   58.2570   27.1520   47.4800 C   0  0  0  0  0  0  0  0  0  0  0  0
   57.5270   26.9880   46.2960 C   0  0  0  0  0  0  0  0  0  0  0  0
   56.4410   25.6140   46.1110 S   0  0  0  0  0  0  0  0  0  0  0  0
   54.8130   26.1780   45.9830 N   0  0  0  0  0  0  0  0  0  0  0  0
   56.8010   24.8430   44.8720 O   0  0  0  0  0  0  0  0  0  0  0  0
   56.5660   24.7030   47.2980 O   0  0  0  0  0  0  0  0  0  0  0  0
   57.6480   27.9370   45.2730 C   0  0  0  0  0  0  0  0  0  0  0  0
   58.5000   29.0330   45.4260 C   0  0  0  0  0  0  0  0  0  0  0  0
   61.4230   30.2040   47.3460 C   0  0  0  0  0  0  0  0  0  0  0  0
   62.2720   31.3020   47.5100 C   0  0  0  0  0  0  0  0  0  0  0  0
   61.7810   34.3380   49.5520 C   0  0  0  0  0  0  0  0  0  0  0  0
   61.2720   33.0190   50.2000 C   0  0  2  0  0  0  0  0  0  0  0  0
   60.6100   33.2660   51.5590 C   0  0  0  0  0  0  0  0  0  0  0  0
   62.2610   32.0040   50.3030 O   0  0  0  0  0  0  0  0  0  0  0  0
   64.5624   31.3072   52.0482 H   0  0  0  0  0  0  0  0  0  0  0  0
   64.0990   30.4610   50.5330 H   0  0  0  0  0  0  0  0  0  0  0  0
   65.4775   31.6126   50.5330 H   0  0  0  0  0  0  0  0  0  0  0  0
   63.4501   33.2195   51.4727 H   0  0  0  0  0  0  0  0  0  0  0  0
   64.8272   34.0622   49.7784 H   0  0  0  0  0  0  0  0  0  0  0  0
   64.4796   32.6536   48.6824 H   0  0  0  0  0  0  0  0  0  0  0  0
   62.2996   34.6491   46.8210 H   0  0  0  0  0  0  0  0  0  0  0  0
   63.7392   33.5207   46.8887 H   0  0  0  0  0  0  0  0  0  0  0  0
   60.2738   33.7415   46.1915 H   0  0  0  0  0  0  0  0  0  0  0  0
   58.7581   31.7884   45.9014 H   0  0  0  0  0  0  0  0  0  0  0  0
   59.6839   28.3663   48.5666 H   0  0  0  0  0  0  0  0  0  0  0  0
   58.1580   26.4156   48.2911 H   0  0  0  0  0  0  0  0  0  0  0  0
   54.7520   27.0610   46.5390 H   0  0  0  0  0  0  0  0  0  0  0  0
   57.0694   27.8186   44.3450 H   0  0  0  0  0  0  0  0  0  0  0  0
   58.5908   29.7712   44.6155 H   0  0  0  0  0  0  0  0  0  0  0  0
   61.7540   29.2054   47.6672 H   0  0  0  0  0  0  0  0  0  0  0  0
   63.2708   31.1591   47.9482 H   0  0  0  0  0  0  0  0  0  0  0  0
   62.0089   35.0594   50.3506 H   0  0  0  0  0  0  0  0  0  0  0  0
   60.9899   34.7125   48.8858 H   0  0  0  0  0  0  0  0  0  0  0  0
   60.5117   32.6395   49.5015 H   0  0  0  0  0  0  0  0  0  0  0  0
   61.3136   33.0035   52.3627 H   0  0  0  0  0  0  0  0  0  0  0  0
   60.3344   34.3274   51.6451 H   0  0  0  0  0  0  0  0  0  0  0  0
   59.7065   32.6445   51.6451 H   0  0  0  0  0  0  0  0  0  0  0  0
  1  2  1  0
  2  3  1  0
  3  4  1  0
  4  5  1  0
  5  6  1  0
  6  7  2  0
  7  8  1  0
  8  9  2  0
  9 10  1  0
 10 11  2  0
 11 12  1  0
 12 13  2  0
 13 14  1  0
 14 15  1  0
 14 16  2  0
 14 17  2  0
 13 18  1  0
 18 19  2  0
  9 20  1  0
 20 21  2  0
  4 22  1  0
 22 23  1  0
 23 24  1  0
 23 25  1  0
 25  2  1  0
 21  6  1  0
 19 10  1  0
  1 26  1  0
  1 27  1  0
  1 28  1  0
  2 29  1  1
  3 30  1  0
  3 31  1  0
  5 32  1  0
  5 33  1  0
  7 34  1  0
  8 35  1  0
 11 36  1  0
 12 37  1  0
 15 38  1  0
 18 39  1  0
 19 40  1  0
 20 41  1  0
 21 42  1  0
 22 43  1  0
 22 44  1  0
 23 45  1  6
 24 46  1  0
 24 47  1  0
 24 48  1  0
M  CHG  1  15  -1
M  END
>  <UniqueID>  (73) 
71

>  <SMILES>  (73) 
C[C@H]1CN(Cc2ccc(-c3ccc(S([NH-])(=O)=O)cc3)cc2)C[C@H](C)O1

>  <Energy>  (73) 
66.28378305012522

>  <Genealogy>  (73) 
CC1CN(Cc2ccc(-c3ccc(S([NH-])(=O)=O)cc3)cc2)CC(C)O1 (protonated)
C[C@H]1CN(Cc2ccc(-c3ccc(S([NH-])(=O)=O)cc3)cc2)C[C@H](C)O1 (chirality)
C[C@H]1CN(Cc2ccc(-c3ccc(S([NH-])(=O)=O)cc3)cc2)C[C@H](C)O1 (3D coordinates assigned)
C[C@H]1CN(Cc2ccc(-c3ccc(S([NH-])(=O)=O)cc3)cc2)C[C@H](C)O1 (nonaromatic ring conformer: 66.28378305012522 kcal/mol)

>  <smiles>  (73) 
CC1CN(Cc2ccc(-c3ccc(S(N)(=O)=O)cc3)cc2)CC(C)O1

>  <score_type>  (73) 
oracle

>  <origin>  (73) 
adg

>  <m_score__min__energy>  (73) 
-10.57

>  <m_primary>  (73) 
energy

$$$$
73:0
     RDKit          3D

 45 47  0  0  0  0  0  0  0  0999 V2000
   60.3420   34.1490   49.5130 C   0  0  0  0  0  0  0  0  0  0  0  0
   59.2640   33.2440   49.2970 O   0  0  0  0  0  0  0  0  0  0  0  0
   59.3770   32.0200   48.6200 C   0  0  0  0  0  0  0  0  0  0  0  0
   59.1380   30.7880   49.2580 C   0  0  0  0  0  0  0  0  0  0  0  0
   59.2460   29.5910   48.5480 C   0  0  0  0  0  0  0  0  0  0  0  0
   59.6010   29.6030   47.1940 C   0  0  0  0  0  0  0  0  0  0  0  0
   59.7360   28.3100   46.4330 C   0  0  0  0  0  0  0  0  0  0  0  0
   58.3910   27.6450   46.2870 C   0  0  0  0  0  0  0  0  0  0  0  0
   57.3710   28.2750   45.5610 C   0  0  0  0  0  0  0  0  0  0  0  0
   56.1460   27.6940   45.4550 N   0  0  0  0  0  0  0  0  0  0  0  0
   55.8870   26.5010   46.0540 C   0  0  0  0  0  0  0  0  0  0  0  0
   54.7500   25.9730   45.9480 O   0  0  0  0  0  0  0  0  0  0  0  0
   56.8560   25.8760   46.7710 N   0  0  0  0  0  0  0  0  0  0  0  0
   58.0940   26.4180   46.9040 C   0  0  0  0  0  0  0  0  0  0  0  0
   58.9640   25.8100   47.5830 O   0  0  0  0  0  0  0  0  0  0  0  0
   59.8690   30.8250   46.5620 C   0  0  0  0  0  0  0  0  0  0  0  0
   59.7330   32.0400   47.2620 C   0  0  0  0  0  0  0  0  0  0  0  0
   59.9380   33.2910   46.6520 O   0  0  0  0  0  0  0  0  0  0  0  0
   58.9230   34.1860   46.1920 C   0  0  0  0  0  0  0  0  0  0  0  0
   58.8350   34.1950   44.6590 C   0  0  0  0  0  0  0  0  0  0  0  0
   58.0520   33.0240   44.1250 C   0  0  0  0  0  0  0  0  0  0  0  0
   58.1200   32.6930   42.7610 C   0  0  0  0  0  0  0  0  0  0  0  0
   57.4460   31.5680   42.2760 C   0  0  0  0  0  0  0  0  0  0  0  0
   56.7000   30.7680   43.1460 C   0  0  0  0  0  0  0  0  0  0  0  0
   56.6230   31.0940   44.5020 C   0  0  0  0  0  0  0  0  0  0  0  0
   57.2930   32.2190   44.9920 C   0  0  0  0  0  0  0  0  0  0  0  0
   60.4991   34.2809   50.5937 H   0  0  0  0  0  0  0  0  0  0  0  0
   61.2573   33.7447   49.0561 H   0  0  0  0  0  0  0  0  0  0  0  0
   60.1023   35.1205   49.0561 H   0  0  0  0  0  0  0  0  0  0  0  0
   58.8643   30.7685   50.3232 H   0  0  0  0  0  0  0  0  0  0  0  0
   59.0513   28.6342   49.0547 H   0  0  0  0  0  0  0  0  0  0  0  0
   60.1480   28.5181   45.4345 H   0  0  0  0  0  0  0  0  0  0  0  0
   60.4088   27.6382   46.9862 H   0  0  0  0  0  0  0  0  0  0  0  0
   57.5621   29.2432   45.0751 H   0  0  0  0  0  0  0  0  0  0  0  0
   55.3980   28.1770   44.9070 H   0  0  0  0  0  0  0  0  0  0  0  0
   60.1885   30.8355   45.5095 H   0  0  0  0  0  0  0  0  0  0  0  0
   57.9535   33.8694   46.6041 H   0  0  0  0  0  0  0  0  0  0  0  0
   59.1785   35.2013   46.5295 H   0  0  0  0  0  0  0  0  0  0  0  0
   58.3433   35.1253   44.3382 H   0  0  0  0  0  0  0  0  0  0  0  0
   59.8586   34.1246   44.2625 H   0  0  0  0  0  0  0  0  0  0  0  0
   58.7051   33.3207   42.0728 H   0  0  0  0  0  0  0  0  0  0  0  0
   57.5030   31.3121   41.2077 H   0  0  0  0  0  0  0  0  0  0  0  0
   56.1734   29.8815   42.7628 H   0  0  0  0  0  0  0  0  0  0  0  0
   56.0342   30.4646   45.1855 H   0  0  0  0  0  0  0  0  0  0  0  0
   57.2260   32.4751   46.0597 H   0  0  0  0  0  0  0  0  0  0  0  0
  1  2  1  0
  2  3  1  0
  3  4  2  0
  4  5  1  0
  5  6  2  0
  6  7  1  0
  7  8  1  0
  8  9  2  0
  9 10  1  0
 10 11  1  0
 11 12  2  0
 11 13  1  0
 13 14  1  0
 14 15  2  0
  6 16  1  0
 16 17  2  0
 17 18  1  0
 18 19  1  0
 19 20  1  0
 20 21  1  0
 21 22  2  0
 22 23  1  0
 23 24  2  0
 24 25  1  0
 25 26  2  0
 17  3  1  0
 26 21  1  0
 14  8  1  0
  1 27  1  0
  1 28  1  0
  1 29  1  0
  4 30  1  0
  5 31  1  0
  7 32  1  0
  7 33  1  0
  9 34  1  0
 10 35  1  0
 16 36  1  0
 19 37  1  0
 19 38  1  0
 20 39  1  0
 20 40  1  0
 22 41  1  0
 23 42  1  0
 24 43  1  0
 25 44  1  0
 26 45  1  0
M  CHG  1  13  -1
M  END
>  <UniqueID>  (74) 
72

>  <SMILES>  (74) 
COc1ccc(Cc2c[nH]c(=O)[n-]c2=O)cc1OCCc1ccccc1

>  <Energy>  (74) 
43.5582212634232

>  <Genealogy>  (74) 
COc1ccc(Cc2c[nH]c(=O)[n-]c2=O)cc1OCCc1ccccc1 (protonated)
COc1ccc(Cc2c[nH]c(=O)[n-]c2=O)cc1OCCc1ccccc1 (3D coordinates assigned)
COc1ccc(Cc2c[nH]c(=O)[n-]c2=O)cc1OCCc1ccccc1 (optimized conformer: 43.5582212634232 kcal/mol)

>  <smiles>  (74) 
COc1ccc(Cc2c[nH]c(=O)[nH]c2=O)cc1OCCc1ccccc1

>  <score_type>  (74) 
oracle

>  <origin>  (74) 
adg

>  <m_score__min__energy>  (74) 
-9.6099999999999994

>  <m_primary>  (74) 
energy

$$$$
74:0
     RDKit          3D

 60 64  0  0  0  0  0  0  0  0999 V2000
   54.7450   26.6920   47.0710 H   0  0  0  0  0  0  0  0  0  0  0  0
   54.8360   26.4040   46.1050 O   0  0  0  0  0  0  0  0  0  0  0  0
   54.5360   25.1060   45.7000 C   0  0  0  0  0  0  0  0  0  0  0  0
   53.3630   24.5070   45.9610 N   0  0  0  0  0  0  0  0  0  0  0  0
   53.4860   23.3180   45.3310 C   0  0  0  0  0  0  0  0  0  0  0  0
   52.5710   22.4520   45.3330 O   0  0  0  0  0  0  0  0  0  0  0  0
   54.6590   23.1350   44.6900 N   0  0  0  0  0  0  0  0  0  0  0  0
   55.3350   24.2690   44.9460 C   0  0  0  0  0  0  0  0  0  0  0  0
   56.6680   24.5580   44.3930 C   0  0  0  0  0  0  0  0  0  0  0  0
   57.0174   23.9628   43.5365 H   0  0  0  0  0  0  0  0  0  0  0  0
   57.4820   25.5130   44.8810 C   0  0  0  0  0  0  0  0  0  0  0  0
   57.9120   25.6240   46.1910 C   0  0  0  0  0  0  0  0  0  0  0  0
   57.6268   24.9753   47.0323 H   0  0  0  0  0  0  0  0  0  0  0  0
   58.7690   26.7070   46.2390 C   0  0  0  0  0  0  0  0  0  0  0  0
   59.4640   27.1580   47.4900 C   0  0  0  0  0  0  0  0  0  0  0  0
   58.9085   26.7975   48.3683 H   0  0  0  0  0  0  0  0  0  0  0  0
   60.4854   26.7501   47.5094 H   0  0  0  0  0  0  0  0  0  0  0  0
   59.5076   28.2570   47.5094 H   0  0  0  0  0  0  0  0  0  0  0  0
   58.8710   27.2880   45.0210 N   0  0  0  0  0  0  0  0  0  0  0  0
   59.6080   28.5230   44.6970 C   0  0  0  0  0  0  0  0  0  0  0  0
   60.4410   28.6422   45.4055 H   0  0  0  0  0  0  0  0  0  0  0  0
   59.9884   28.4466   43.6677 H   0  0  0  0  0  0  0  0  0  0  0  0
   58.7030   29.7280   44.7900 C   0  0  0  0  0  0  0  0  0  0  0  0
   57.5010   29.7630   44.0670 C   0  0  0  0  0  0  0  0  0  0  0  0
   57.2109   28.9014   43.4477 H   0  0  0  0  0  0  0  0  0  0  0  0
   56.6710   30.8830   44.1280 C   0  0  0  0  0  0  0  0  0  0  0  0
   55.7324   30.9019   43.5547 H   0  0  0  0  0  0  0  0  0  0  0  0
   57.0280   31.9790   44.9140 C   0  0  0  0  0  0  0  0  0  0  0  0
   56.3741   32.8628   44.9506 H   0  0  0  0  0  0  0  0  0  0  0  0
   58.2190   31.9590   45.6590 C   0  0  0  0  0  0  0  0  0  0  0  0
   58.6280   33.1400   46.4510 C   0  0  0  0  0  0  0  0  0  0  0  0
   57.7760   34.0260   46.7280 O   0  0  0  0  0  0  0  0  0  0  0  0
   59.9740   33.2840   46.9320 N   0  0  0  0  0  0  0  0  0  0  0  0
   60.9250   34.2350   46.3780 C   0  0  0  0  0  0  0  0  0  0  0  0
   60.9371   34.1706   45.2800 H   0  0  0  0  0  0  0  0  0  0  0  0
   60.6619   35.2714   46.6363 H   0  0  0  0  0  0  0  0  0  0  0  0
   62.2780   33.8390   46.9480 C   0  0  0  0  0  0  0  0  0  0  0  0
   62.8595   33.2821   46.1985 H   0  0  0  0  0  0  0  0  0  0  0  0
   62.8685   34.7230   47.2308 H   0  0  0  0  0  0  0  0  0  0  0  0
   61.9870   32.9530   48.1580 C   0  0  0  0  0  0  0  0  0  0  0  0
   62.6840   32.1024   48.1847 H   0  0  0  0  0  0  0  0  0  0  0  0
   62.1101   33.5069   49.1004 H   0  0  0  0  0  0  0  0  0  0  0  0
   60.5480   32.4560   47.9850 C   0  0  1  0  0  0  0  0  0  0  0  0
   60.5220   31.3896   47.7165 H   0  0  0  0  0  0  0  0  0  0  0  0
   59.7600   32.5530   49.2690 C   0  0  0  0  0  0  0  0  0  0  0  0
   59.9280   33.6390   50.0720 N   0  0  0  0  0  0  0  0  0  0  0  0
   59.2530   33.7770   51.2430 C   0  0  0  0  0  0  0  0  0  0  0  0
   59.4123   34.6687   51.8671 H   0  0  0  0  0  0  0  0  0  0  0  0
   58.3580   32.7890   51.6550 C   0  0  0  0  0  0  0  0  0  0  0  0
   57.8124   32.8946   52.6043 H   0  0  0  0  0  0  0  0  0  0  0  0
   58.1620   31.6660   50.8510 C   0  0  0  0  0  0  0  0  0  0  0  0
   57.4597   30.8793   51.1637 H   0  0  0  0  0  0  0  0  0  0  0  0
   58.8590   31.5440   49.6500 C   0  0  0  0  0  0  0  0  0  0  0  0
   58.7051   30.6656   49.0060 H   0  0  0  0  0  0  0  0  0  0  0  0
   59.0510   30.8290   45.5910 C   0  0  0  0  0  0  0  0  0  0  0  0
   59.9852   30.8058   46.1712 H   0  0  0  0  0  0  0  0  0  0  0  0
   58.1020   26.5480   44.1770 C   0  0  0  0  0  0  0  0  0  0  0  0
   57.9730   26.7890   42.8670 C   0  0  0  0  0  0  0  0  0  0  0  0
   58.5069   27.6342   42.4081 H   0  0  0  0  0  0  0  0  0  0  0  0
   57.3330   26.1419   42.2491 H   0  0  0  0  0  0  0  0  0  0  0  0
  1  2  1  0
  2  3  1  0
  3  4  1  0
  4  5  1  0
  5  6  2  0
  5  7  1  0
  7  8  1  0
  8  9  1  0
  9 10  1  0
  9 11  2  0
 11 12  1  0
 12 13  1  0
 12 14  2  0
 14 15  1  0
 15 16  1  0
 15 17  1  0
 15 18  1  0
 14 19  1  0
 19 20  1  0
 20 21  1  0
 20 22  1  0
 20 23  1  0
 23 24  2  0
 24 25  1  0
 24 26  1  0
 26 27  1  0
 26 28  2  0
 28 29  1  0
 28 30  1  0
 30 31  1  0
 31 32  2  0
 31 33  1  0
 33 34  1  0
 34 35  1  0
 34 36  1  0
 34 37  1  0
 37 38  1  0
 37 39  1  0
 37 40  1  0
 40 41  1  0
 40 42  1  0
 40 43  1  0
 43 44  1  6
 43 45  1  0
 45 46  2  0
 46 47  1  0
 47 48  1  0
 47 49  2  0
 49 50  1  0
 49 51  1  0
 51 52  1  0
 51 53  2  0
 53 54  1  0
 30 55  2  0
 55 56  1  0
 19 57  1  0
 57 58  2  0
 58 59  1  0
 58 60  1  0
  8  3  2  0
 57 11  1  0
 55 23  1  0
 43 33  1  0
 53 45  1  0
M  CHG  2   4  -1   7  -1
M  END
>  <UniqueID>  (75) 
73

>  <SMILES>  (75) 
C=c1/c(=C/c2[n-]c(=O)[n-]c2O)cc(C)n1Cc1cccc(C(=O)N2CCC[C@H]2c2ccccn2)c1

>  <Energy>  (75) 
137.87950417459714

>  <Genealogy>  (75) 
C=c1c(=Cc2[n-]c(=O)[n-]c2O)cc(C)n1Cc1cccc(C(=O)N2CCCC2c2ccccn2)c1 (protonated)
C=c1c(=Cc2[n-]c(=O)[n-]c2O)cc(C)n1Cc1cccc(C(=O)N2CCC[C@H]2c2ccccn2)c1 (chirality)
C=c1/c(=C/c2[n-]c(=O)[n-]c2O)cc(C)n1Cc1cccc(C(=O)N2CCC[C@H]2c2ccccn2)c1 (cis-trans isomerization)
C=c1/c(=C/c2[n-]c(=O)[n-]c2O)cc(C)n1Cc1cccc(C(=O)N2CCC[C@H]2c2ccccn2)c1 (3D coordinates assigned)
C=c1/c(=C/c2[n-]c(=O)[n-]c2O)cc(C)n1Cc1cccc(C(=O)N2CCC[C@H]2c2ccccn2)c1 (nonaromatic ring conformer: 137.87950417459714 kcal/mol)

>  <smiles>  (75) 
C=c1c(=Cc2[nH]c(=O)[nH]c2O)cc(C)n1Cc1cccc(C(=O)N2CCCC2c2ccccn2)c1

>  <score_type>  (75) 
oracle

>  <origin>  (75) 
adg

>  <m_score__min__energy>  (75) 
-14.77

>  <m_primary>  (75) 
energy

$$$$
75:0
     RDKit          3D

 54 56  0  0  0  0  0  0  0  0999 V2000
   57.2090   26.6270   47.1820 O   0  0  0  0  0  0  0  0  0  0  0  0
   56.6120   26.7790   46.0820 C   0  0  0  0  0  0  0  0  0  0  0  0
   57.3910   27.2640   44.9250 C   0  0  0  0  0  0  0  0  0  0  0  0
   58.3660   28.1750   45.0400 C   0  0  0  0  0  0  0  0  0  0  0  0
   58.1190   29.6300   45.1830 C   0  0  0  0  0  0  0  0  0  0  0  0
   57.4440   30.3800   44.2010 C   0  0  0  0  0  0  0  0  0  0  0  0
   57.2670   31.7570   44.3610 C   0  0  0  0  0  0  0  0  0  0  0  0
   57.7640   32.4060   45.4980 C   0  0  0  0  0  0  0  0  0  0  0  0
   57.6310   33.8670   45.6410 C   0  0  0  0  0  0  0  0  0  0  0  0
   56.6750   34.4550   45.0710 O   0  0  0  0  0  0  0  0  0  0  0  0
   58.5380   34.6300   46.4500 N   0  0  0  0  0  0  0  0  0  0  0  0
   59.9130   34.9650   46.0830 C   0  0  0  0  0  0  0  0  0  0  0  0
   60.8940   34.2520   46.9780 C   0  0  0  0  0  0  0  0  0  0  0  0
   62.1500   33.8520   46.4900 C   0  0  0  0  0  0  0  0  0  0  0  0
   63.0330   33.1420   47.3110 C   0  0  0  0  0  0  0  0  0  0  0  0
   62.6740   32.8360   48.6280 C   0  0  0  0  0  0  0  0  0  0  0  0
   61.4320   33.2420   49.1260 C   0  0  0  0  0  0  0  0  0  0  0  0
   61.0840   32.9420   50.4010 F   0  0  0  0  0  0  0  0  0  0  0  0
   60.5450   33.9490   48.3040 C   0  0  0  0  0  0  0  0  0  0  0  0
   58.4240   31.6640   46.4830 C   0  0  0  0  0  0  0  0  0  0  0  0
   58.6150   30.2900   46.3190 C   0  0  0  0  0  0  0  0  0  0  0  0
   55.2140   26.4580   46.0120 N   0  0  0  0  0  0  0  0  0  0  0  0
   54.6400   25.1770   45.6090 C   0  0  0  0  0  0  0  0  0  0  0  0
   55.4540   24.0290   46.2360 C   0  0  0  0  0  0  0  0  0  0  0  0
   56.2750   23.2650   45.2730 N   0  0  0  0  0  0  0  0  0  0  0  0
   55.9630   21.8230   45.2470 C   0  0  0  0  0  0  0  0  0  0  0  0
   56.6410   21.1600   44.0380 C   0  0  0  0  0  0  0  0  0  0  0  0
   56.2480   21.6960   42.7790 O   0  0  0  0  0  0  0  0  0  0  0  0
   55.7290   23.0190   42.8490 C   0  0  0  0  0  0  0  0  0  0  0  0
   56.4010   23.8810   43.9330 C   0  0  0  0  0  0  0  0  0  0  0  0
   57.1611   26.8605   43.9278 H   0  0  0  0  0  0  0  0  0  0  0  0
   59.4085   27.8241   45.0277 H   0  0  0  0  0  0  0  0  0  0  0  0
   57.0537   29.8792   43.3027 H   0  0  0  0  0  0  0  0  0  0  0  0
   56.7348   32.3337   43.5902 H   0  0  0  0  0  0  0  0  0  0  0  0
   60.0915   34.6641   45.0401 H   0  0  0  0  0  0  0  0  0  0  0  0
   60.0545   36.0498   46.1978 H   0  0  0  0  0  0  0  0  0  0  0  0
   62.4401   34.0983   45.4579 H   0  0  0  0  0  0  0  0  0  0  0  0
   64.0109   32.8240   46.9203 H   0  0  0  0  0  0  0  0  0  0  0  0
   63.3685   32.2762   49.2716 H   0  0  0  0  0  0  0  0  0  0  0  0
   59.5696   34.2686   48.6995 H   0  0  0  0  0  0  0  0  0  0  0  0
   58.7940   32.1643   47.3901 H   0  0  0  0  0  0  0  0  0  0  0  0
   59.1588   29.7199   47.0866 H   0  0  0  0  0  0  0  0  0  0  0  0
   53.5971   25.1179   45.9539 H   0  0  0  0  0  0  0  0  0  0  0  0
   54.6694   25.0909   44.5128 H   0  0  0  0  0  0  0  0  0  0  0  0
   56.1244   24.4576   46.9955 H   0  0  0  0  0  0  0  0  0  0  0  0
   54.7250   23.3213   46.6575 H   0  0  0  0  0  0  0  0  0  0  0  0
   56.3293   21.3544   46.1723 H   0  0  0  0  0  0  0  0  0  0  0  0
   54.8739   21.6907   45.1675 H   0  0  0  0  0  0  0  0  0  0  0  0
   57.7289   21.2856   44.1414 H   0  0  0  0  0  0  0  0  0  0  0  0
   56.3301   20.1049   44.0420 H   0  0  0  0  0  0  0  0  0  0  0  0
   55.8795   23.5050   41.8737 H   0  0  0  0  0  0  0  0  0  0  0  0
   54.6640   22.9373   43.1120 H   0  0  0  0  0  0  0  0  0  0  0  0
   57.4680   23.9926   43.6901 H   0  0  0  0  0  0  0  0  0  0  0  0
   55.8993   24.8597   43.9551 H   0  0  0  0  0  0  0  0  0  0  0  0
  1  2  2  0
  2  3  1  0
  3  4  2  3
  4  5  1  0
  5  6  2  0
  6  7  1  0
  7  8  2  0
  8  9  1  0
  9 10  2  0
  9 11  1  0
 11 12  1  0
 12 13  1  0
 13 14  2  0
 14 15  1  0
 15 16  2  0
 16 17  1  0
 17 18  1  0
 17 19  2  0
  8 20  1  0
 20 21  2  0
  2 22  1  0
 22 23  1  0
 23 24  1  0
 24 25  1  0
 25 26  1  0
 26 27  1  0
 27 28  1  0
 28 29  1  0
 29 30  1  0
 21  5  1  0
 30 25  1  0
 19 13  1  0
  3 31  1  0
  4 32  1  0
  6 33  1  0
  7 34  1  0
 12 35  1  0
 12 36  1  0
 14 37  1  0
 15 38  1  0
 16 39  1  0
 19 40  1  0
 20 41  1  0
 21 42  1  0
 23 43  1  0
 23 44  1  0
 24 45  1  0
 24 46  1  0
 26 47  1  0
 26 48  1  0
 27 49  1  0
 27 50  1  0
 29 51  1  0
 29 52  1  0
 30 53  1  0
 30 54  1  0
M  CHG  2  11  -1  22  -1
M  END
>  <UniqueID>  (76) 
74

>  <SMILES>  (76) 
O=C(C=Cc1ccc(C(=O)[N-]Cc2cccc(F)c2)cc1)[N-]CCN1CCOCC1

>  <Energy>  (76) 
78.73931334850192

>  <Genealogy>  (76) 
O=C(C=Cc1ccc(C(=O)[N-]Cc2cccc(F)c2)cc1)[N-]CCN1CCOCC1 (protonated)
O=C(C=Cc1ccc(C(=O)[N-]Cc2cccc(F)c2)cc1)[N-]CCN1CCOCC1 (3D coordinates assigned)
O=C(C=Cc1ccc(C(=O)[N-]Cc2cccc(F)c2)cc1)[N-]CCN1CCOCC1 (nonaromatic ring conformer: 78.73931334850192 kcal/mol)

>  <smiles>  (76) 
O=C(C=Cc1ccc(C(=O)NCc2cccc(F)c2)cc1)NCCN1CCOCC1

>  <score_type>  (76) 
oracle

>  <origin>  (76) 
adg

>  <m_score__min__energy>  (76) 
-11.92

>  <m_primary>  (76) 
energy

$$$$
76:0
     RDKit          3D

 41 43  0  0  0  0  0  0  0  0999 V2000
   58.8785   30.9942   48.6952 H   0  0  0  0  0  0  0  0  0  0  0  0
   58.8340   30.1640   47.9750 C   0  0  0  0  0  0  0  0  0  0  0  0
   59.0684   29.1399   48.3010 H   0  0  0  0  0  0  0  0  0  0  0  0
   58.4930   30.4010   46.6960 C   0  0  0  0  0  0  0  0  0  0  0  0
   58.3900   29.4580   45.6580 C   0  0  0  0  0  0  0  0  0  0  0  0
   58.4710   28.1160   45.6730 C   0  0  0  0  0  0  0  0  0  0  0  0
   59.4686   27.6706   45.5446 H   0  0  0  0  0  0  0  0  0  0  0  0
   57.3420   27.1950   45.8460 C   0  0  0  0  0  0  0  0  0  0  0  0
   57.4440   25.9720   46.3970 N   0  0  0  0  0  0  0  0  0  0  0  0
   56.1610   25.5530   46.4460 C   0  0  0  0  0  0  0  0  0  0  0  0
   55.8370   24.4250   46.8900 O   0  0  0  0  0  0  0  0  0  0  0  0
   55.2540   26.4380   45.9820 N   0  0  0  0  0  0  0  0  0  0  0  0
   56.0180   27.4790   45.6200 C   0  0  0  0  0  0  0  0  0  0  0  0
   55.5230   28.6510   45.0710 O   0  0  0  0  0  0  0  0  0  0  0  0
   58.1660   30.1780   44.4990 C   0  0  0  0  0  0  0  0  0  0  0  0
   58.0546   29.7685   43.4842 H   0  0  0  0  0  0  0  0  0  0  0  0
   58.1090   31.5070   44.8590 C   0  0  0  0  0  0  0  0  0  0  0  0
   57.8280   32.6290   43.9090 C   0  0  0  0  0  0  0  0  0  0  0  0
   57.5992   33.5424   44.4777 H   0  0  0  0  0  0  0  0  0  0  0  0
   58.7104   32.8028   43.2756 H   0  0  0  0  0  0  0  0  0  0  0  0
   56.9679   32.3664   43.2756 H   0  0  0  0  0  0  0  0  0  0  0  0
   58.2960   31.6480   46.1940 N   0  0  0  0  0  0  0  0  0  0  0  0
   58.4200   32.9290   46.9100 C   0  0  0  0  0  0  0  0  0  0  0  0
   57.5588   33.5688   46.6670 H   0  0  0  0  0  0  0  0  0  0  0  0
   58.4452   32.7405   47.9934 H   0  0  0  0  0  0  0  0  0  0  0  0
   59.6900   33.6200   46.4940 C   0  0  0  0  0  0  0  0  0  0  0  0
   59.7250   34.2200   45.3860 O   0  0  0  0  0  0  0  0  0  0  0  0
   60.8720   33.5640   47.3100 N   0  0  0  0  0  0  0  0  0  0  0  0
   60.7850   33.7610   48.7590 C   0  0  0  0  0  0  0  0  0  0  0  0
   60.0078   34.5081   48.9775 H   0  0  0  0  0  0  0  0  0  0  0  0
   60.5314   32.8026   49.2356 H   0  0  0  0  0  0  0  0  0  0  0  0
   62.1300   34.2530   49.3120 C   0  0  0  0  0  0  0  0  0  0  0  0
   62.2873   35.2949   48.9964 H   0  0  0  0  0  0  0  0  0  0  0  0
   62.1020   34.1780   50.4091 H   0  0  0  0  0  0  0  0  0  0  0  0
   63.2030   33.4610   48.8380 O   0  0  0  0  0  0  0  0  0  0  0  0
   63.3210   33.6010   47.4330 C   0  0  0  0  0  0  0  0  0  0  0  0
   63.4030   34.6687   47.1813 H   0  0  0  0  0  0  0  0  0  0  0  0
   64.2186   33.0617   47.0960 H   0  0  0  0  0  0  0  0  0  0  0  0
   62.0990   33.0120   46.7320 C   0  0  0  0  0  0  0  0  0  0  0  0
   62.1398   33.2592   45.6609 H   0  0  0  0  0  0  0  0  0  0  0  0
   62.0996   31.9200   46.8646 H   0  0  0  0  0  0  0  0  0  0  0  0
  1  2  1  0
  2  3  1  0
  2  4  2  0
  4  5  1  0
  5  6  2  0
  6  7  1  0
  6  8  1  0
  8  9  1  0
  9 10  1  0
 10 11  2  0
 10 12  1  0
 12 13  1  0
 13 14  1  0
  5 15  1  0
 15 16  1  0
 15 17  2  0
 17 18  1  0
 18 19  1  0
 18 20  1  0
 18 21  1  0
 17 22  1  0
 22 23  1  0
 23 24  1  0
 23 25  1  0
 23 26  1  0
 26 27  2  0
 26 28  1  0
 28 29  1  0
 29 30  1  0
 29 31  1  0
 29 32  1  0
 32 33  1  0
 32 34  1  0
 32 35  1  0
 35 36  1  0
 36 37  1  0
 36 38  1  0
 36 39  1  0
 39 40  1  0
 39 41  1  0
 22  4  1  0
 39 28  1  0
 13  8  2  0
M  CHG  3   9  -1  12  -1  14  -1
M  END
>  <UniqueID>  (77) 
75

>  <SMILES>  (77) 
C=c1/c(=C\c2[n-]c(=O)[n-]c2[O-])cc(C)n1CC(=O)N1CCOCC1

>  <Energy>  (77) 
113.95411174354349

>  <Genealogy>  (77) 
C=c1c(=Cc2[n-]c(=O)[n-]c2[O-])cc(C)n1CC(=O)N1CCOCC1 (protonated)
C=c1/c(=C\c2[n-]c(=O)[n-]c2[O-])cc(C)n1CC(=O)N1CCOCC1 (cis-trans isomerization)
C=c1/c(=C\c2[n-]c(=O)[n-]c2[O-])cc(C)n1CC(=O)N1CCOCC1 (3D coordinates assigned)
C=c1/c(=C\c2[n-]c(=O)[n-]c2[O-])cc(C)n1CC(=O)N1CCOCC1 (nonaromatic ring conformer: 113.95411174354349 kcal/mol)

>  <smiles>  (77) 
C=c1c(=Cc2[nH]c(=O)[nH]c2O)cc(C)n1CC(=O)N1CCOCC1

>  <score_type>  (77) 
oracle

>  <origin>  (77) 
adg

>  <m_score__min__energy>  (77) 
-15.52

>  <m_primary>  (77) 
energy

$$$$
77:0
     RDKit          3D

 57 60  0  0  0  0  0  0  0  0999 V2000
   59.6810   35.7210   46.4210 C   0  0  0  0  0  0  0  0  0  0  0  0
   58.9270   34.5690   45.8260 C   0  0  0  0  0  0  0  0  0  0  0  0
   58.0550   33.8070   46.6210 C   0  0  0  0  0  0  0  0  0  0  0  0
   57.3810   32.7100   46.0750 C   0  0  0  0  0  0  0  0  0  0  0  0
   57.5920   32.3450   44.7370 C   0  0  0  0  0  0  0  0  0  0  0  0
   56.8570   31.1740   44.1390 C   0  0  0  0  0  0  0  0  0  0  0  0
   57.7930   30.1130   43.7570 N   0  0  0  0  0  0  0  0  0  0  0  0
   58.6710   29.4560   44.6980 C   0  0  0  0  0  0  0  0  0  0  0  0
   59.3000   30.1880   45.7280 C   0  0  0  0  0  0  0  0  0  0  0  0
   60.1870   29.5720   46.6280 C   0  0  0  0  0  0  0  0  0  0  0  0
   60.8390   30.3160   47.7450 C   0  0  0  0  0  0  0  0  0  0  0  0
   60.4660   30.0490   48.9210 O   0  0  0  0  0  0  0  0  0  0  0  0
   61.8750   31.3180   47.5600 N   0  0  0  0  0  0  0  0  0  0  0  0
   62.6960   31.4830   48.7810 C   0  0  0  0  0  0  0  0  0  0  0  0
   63.4320   32.8340   48.7880 C   0  0  0  0  0  0  0  0  0  0  0  0
   63.7240   33.2340   47.4660 O   0  0  0  0  0  0  0  0  0  0  0  0
   62.5310   33.5870   46.7840 C   0  0  0  0  0  0  0  0  0  0  0  0
   61.3650   32.6020   47.0390 C   0  0  0  0  0  0  0  0  0  0  0  0
   60.4290   28.1980   46.5000 C   0  0  0  0  0  0  0  0  0  0  0  0
   59.8090   27.4580   45.4940 C   0  0  0  0  0  0  0  0  0  0  0  0
   58.9250   28.0690   44.6000 C   0  0  0  0  0  0  0  0  0  0  0  0
   58.1540   27.0390   43.3390 S   0  0  0  0  0  0  0  0  0  0  0  0
   57.4500   25.9090   44.5440 C   0  0  0  0  0  0  0  0  0  0  0  0
   56.8880   26.4090   45.7270 C   0  0  0  0  0  0  0  0  0  0  0  0
   56.3340   25.5320   46.6640 C   0  0  0  0  0  0  0  0  0  0  0  0
   56.3430   24.1530   46.4250 C   0  0  0  0  0  0  0  0  0  0  0  0
   56.9110   23.6530   45.2500 C   0  0  0  0  0  0  0  0  0  0  0  0
   57.4670   24.5280   44.3110 C   0  0  0  0  0  0  0  0  0  0  0  0
   58.4650   33.1060   43.9440 C   0  0  0  0  0  0  0  0  0  0  0  0
   59.1360   34.2060   44.4880 C   0  0  0  0  0  0  0  0  0  0  0  0
   59.6400   35.6584   47.5185 H   0  0  0  0  0  0  0  0  0  0  0  0
   60.7295   35.6829   46.0905 H   0  0  0  0  0  0  0  0  0  0  0  0
   59.2265   36.6666   46.0905 H   0  0  0  0  0  0  0  0  0  0  0  0
   57.9017   34.0741   47.6770 H   0  0  0  0  0  0  0  0  0  0  0  0
   56.6826   32.1310   46.6972 H   0  0  0  0  0  0  0  0  0  0  0  0
   56.1458   30.7784   44.8790 H   0  0  0  0  0  0  0  0  0  0  0  0
   56.3233   31.5145   43.2394 H   0  0  0  0  0  0  0  0  0  0  0  0
   57.8460   29.8570   42.7440 H   0  0  0  0  0  0  0  0  0  0  0  0
   59.0917   31.2634   45.8286 H   0  0  0  0  0  0  0  0  0  0  0  0
   62.5120   30.9450   46.8150 H   0  0  0  0  0  0  0  0  0  0  0  0
   62.0403   31.4287   49.6625 H   0  0  0  0  0  0  0  0  0  0  0  0
   63.4480   30.6805   48.8020 H   0  0  0  0  0  0  0  0  0  0  0  0
   62.7949   33.5930   49.2655 H   0  0  0  0  0  0  0  0  0  0  0  0
   64.3726   32.7287   49.3485 H   0  0  0  0  0  0  0  0  0  0  0  0
   62.2213   34.5883   47.1179 H   0  0  0  0  0  0  0  0  0  0  0  0
   62.7514   33.5586   45.7067 H   0  0  0  0  0  0  0  0  0  0  0  0
   60.6743   33.0416   47.7736 H   0  0  0  0  0  0  0  0  0  0  0  0
   60.8423   32.4171   46.0890 H   0  0  0  0  0  0  0  0  0  0  0  0
   61.1148   27.6982   47.1999 H   0  0  0  0  0  0  0  0  0  0  0  0
   60.0177   26.3818   45.4029 H   0  0  0  0  0  0  0  0  0  0  0  0
   56.8830   27.4923   45.9180 H   0  0  0  0  0  0  0  0  0  0  0  0
   55.8905   25.9261   47.5902 H   0  0  0  0  0  0  0  0  0  0  0  0
   55.9036   23.4636   47.1610 H   0  0  0  0  0  0  0  0  0  0  0  0
   56.9208   22.5690   45.0632 H   0  0  0  0  0  0  0  0  0  0  0  0
   57.9177   24.1314   43.3893 H   0  0  0  0  0  0  0  0  0  0  0  0
   58.6222   32.8359   42.8893 H   0  0  0  0  0  0  0  0  0  0  0  0
   59.8300   34.7883   43.8640 H   0  0  0  0  0  0  0  0  0  0  0  0
  1  2  1  0
  2  3  2  0
  3  4  1  0
  4  5  2  0
  5  6  1  0
  6  7  1  0
  7  8  1  0
  8  9  2  0
  9 10  1  0
 10 11  1  0
 11 12  2  0
 11 13  1  0
 13 14  1  0
 14 15  1  0
 15 16  1  0
 16 17  1  0
 17 18  1  0
 10 19  2  0
 19 20  1  0
 20 21  2  0
 21 22  1  0
 22 23  1  0
 23 24  2  0
 24 25  1  0
 25 26  2  0
 26 27  1  0
 27 28  2  0
  5 29  1  0
 29 30  2  0
 30  2  1  0
 21  8  1  0
 28 23  1  0
 18 13  1  0
  1 31  1  0
  1 32  1  0
  1 33  1  0
  3 34  1  0
  4 35  1  0
  6 36  1  0
  6 37  1  0
  7 38  1  0
  9 39  1  0
 13 40  1  0
 14 41  1  0
 14 42  1  0
 15 43  1  0
 15 44  1  0
 17 45  1  0
 17 46  1  0
 18 47  1  0
 18 48  1  0
 19 49  1  0
 20 50  1  0
 24 51  1  0
 25 52  1  0
 26 53  1  0
 27 54  1  0
 28 55  1  0
 29 56  1  0
 30 57  1  0
M  CHG  1  13   1
M  END
>  <UniqueID>  (78) 
76

>  <SMILES>  (78) 
Cc1ccc(CNc2cc(C(=O)[NH+]3CCOCC3)ccc2Sc2ccccc2)cc1

>  <Energy>  (78) 
74.31269746342855

>  <Genealogy>  (78) 
Cc1ccc(CNc2cc(C(=O)[NH+]3CCOCC3)ccc2Sc2ccccc2)cc1 (protonated)
Cc1ccc(CNc2cc(C(=O)[NH+]3CCOCC3)ccc2Sc2ccccc2)cc1 (3D coordinates assigned)
Cc1ccc(CNc2cc(C(=O)[NH+]3CCOCC3)ccc2Sc2ccccc2)cc1 (nonaromatic ring conformer: 74.31269746342855 kcal/mol)

>  <smiles>  (78) 
Cc1ccc(CNc2cc(C(=O)N3CCOCC3)ccc2Sc2ccccc2)cc1

>  <score_type>  (78) 
oracle

>  <origin>  (78) 
adg

>  <m_score__min__energy>  (78) 
-7.8399999999999999

>  <m_primary>  (78) 
energy

$$$$
78:0
     RDKit          3D

 53 55  0  0  0  0  0  0  0  0999 V2000
   59.1560   33.1100   48.5470 C   0  0  0  0  0  0  0  0  0  0  0  0
   58.8910   33.8010   47.2760 N   0  0  0  0  0  0  0  0  0  0  0  0
   57.5440   33.7020   46.6860 C   0  0  0  0  0  0  0  0  0  0  0  0
   57.5780   32.8750   45.4320 C   0  0  0  0  0  0  0  0  0  0  0  0
   58.0470   33.4150   44.2240 C   0  0  0  0  0  0  0  0  0  0  0  0
   58.0650   32.6140   43.0840 C   0  0  0  0  0  0  0  0  0  0  0  0
   57.6240   31.2870   43.1560 C   0  0  0  0  0  0  0  0  0  0  0  0
   57.1760   30.7690   44.3840 C   0  0  0  0  0  0  0  0  0  0  0  0
   56.7140   29.3670   44.5050 C   0  0  0  0  0  0  0  0  0  0  0  0
   55.5320   29.1260   44.8690 O   0  0  0  0  0  0  0  0  0  0  0  0
   57.6180   28.2100   44.1640 C   0  0  0  0  0  0  0  0  0  0  0  0
   59.0880   28.5380   44.4620 C   0  0  0  0  0  0  0  0  0  0  0  0
   59.3650   28.6090   45.9430 C   0  0  0  0  0  0  0  0  0  0  0  0
   59.6060   29.8470   46.5650 C   0  0  0  0  0  0  0  0  0  0  0  0
   59.8620   29.9040   47.9380 C   0  0  0  0  0  0  0  0  0  0  0  0
   59.8910   28.7290   48.6970 C   0  0  0  0  0  0  0  0  0  0  0  0
   59.6730   27.4930   48.0810 C   0  0  0  0  0  0  0  0  0  0  0  0
   59.4170   27.4310   46.7070 C   0  0  0  0  0  0  0  0  0  0  0  0
   57.1680   31.5760   45.4770 N   0  0  0  0  0  0  0  0  0  0  0  0
   59.9670   34.5420   46.6490 C   0  0  0  0  0  0  0  0  0  0  0  0
   59.8970   35.8050   46.5870 O   0  0  0  0  0  0  0  0  0  0  0  0
   61.1690   33.8420   46.0530 C   0  0  0  0  0  0  0  0  0  0  0  0
   62.0810   33.2710   47.0970 C   0  0  0  0  0  0  0  0  0  0  0  0
   62.4290   31.9340   47.2260 C   0  0  0  0  0  0  0  0  0  0  0  0
   63.3700   31.7010   48.2370 C   0  0  0  0  0  0  0  0  0  0  0  0
   63.7730   32.8620   48.8970 C   0  0  0  0  0  0  0  0  0  0  0  0
   64.7620   32.9660   49.9860 C   0  0  0  0  0  0  0  0  0  0  0  0
   66.1660   32.8870   49.7310 N   0  0  0  0  0  0  0  0  0  0  0  0
   64.3610   33.1230   51.1720 O   0  0  0  0  0  0  0  0  0  0  0  0
   62.9640   34.1700   48.2130 S   0  0  0  0  0  0  0  0  0  0  0  0
   58.9011   33.7745   49.3857 H   0  0  0  0  0  0  0  0  0  0  0  0
   58.5439   32.1977   48.6029 H   0  0  0  0  0  0  0  0  0  0  0  0
   60.2211   32.8409   48.6029 H   0  0  0  0  0  0  0  0  0  0  0  0
   56.8647   33.2311   47.4118 H   0  0  0  0  0  0  0  0  0  0  0  0
   57.1901   34.7130   46.4358 H   0  0  0  0  0  0  0  0  0  0  0  0
   58.3958   34.4572   44.1780 H   0  0  0  0  0  0  0  0  0  0  0  0
   58.4252   33.0236   42.1287 H   0  0  0  0  0  0  0  0  0  0  0  0
   57.6280   30.6533   42.2569 H   0  0  0  0  0  0  0  0  0  0  0  0
   57.3190   27.3351   44.7599 H   0  0  0  0  0  0  0  0  0  0  0  0
   57.5219   28.0022   43.0881 H   0  0  0  0  0  0  0  0  0  0  0  0
   59.7226   27.7559   44.0197 H   0  0  0  0  0  0  0  0  0  0  0  0
   59.3094   29.5245   44.0285 H   0  0  0  0  0  0  0  0  0  0  0  0
   59.5930   30.7721   45.9700 H   0  0  0  0  0  0  0  0  0  0  0  0
   60.0411   30.8750   48.4229 H   0  0  0  0  0  0  0  0  0  0  0  0
   60.0854   28.7777   49.7786 H   0  0  0  0  0  0  0  0  0  0  0  0
   59.7028   26.5689   48.6769 H   0  0  0  0  0  0  0  0  0  0  0  0
   59.2558   26.4564   46.2230 H   0  0  0  0  0  0  0  0  0  0  0  0
   60.8161   33.0238   45.4081 H   0  0  0  0  0  0  0  0  0  0  0  0
   61.7412   34.5896   45.4841 H   0  0  0  0  0  0  0  0  0  0  0  0
   62.0077   31.1362   46.5967 H   0  0  0  0  0  0  0  0  0  0  0  0
   63.7536   30.7006   48.4861 H   0  0  0  0  0  0  0  0  0  0  0  0
   66.8460   32.9900   50.5190 H   0  0  0  0  0  0  0  0  0  0  0  0
   66.5450   32.6800   48.7820 H   0  0  0  0  0  0  0  0  0  0  0  0
  1  2  1  0
  2  3  1  0
  3  4  1  0
  4  5  2  0
  5  6  1  0
  6  7  2  0
  7  8  1  0
  8  9  1  0
  9 10  2  0
  9 11  1  0
 11 12  1  0
 12 13  1  0
 13 14  2  0
 14 15  1  0
 15 16  2  0
 16 17  1  0
 17 18  2  0
  8 19  2  0
  2 20  1  0
 20 21  2  0
 20 22  1  0
 22 23  1  0
 23 24  2  0
 24 25  1  0
 25 26  2  0
 26 27  1  0
 27 28  1  0
 27 29  2  0
 26 30  1  0
 19  4  1  0
 30 23  1  0
 18 13  1  0
  1 31  1  0
  1 32  1  0
  1 33  1  0
  3 34  1  0
  3 35  1  0
  5 36  1  0
  6 37  1  0
  7 38  1  0
 11 39  1  0
 11 40  1  0
 12 41  1  0
 12 42  1  0
 14 43  1  0
 15 44  1  0
 16 45  1  0
 17 46  1  0
 18 47  1  0
 22 48  1  0
 22 49  1  0
 24 50  1  0
 25 51  1  0
 28 52  1  0
 28 53  1  0
M  END
>  <UniqueID>  (79) 
77

>  <SMILES>  (79) 
CN(Cc1cccc(C(=O)CCc2ccccc2)n1)C(=O)Cc1ccc(C(N)=O)s1

>  <Energy>  (79) 
73.87295034489343

>  <Genealogy>  (79) 
CN(Cc1cccc(C(=O)CCc2ccccc2)n1)C(=O)Cc1ccc(C(N)=O)s1 (3D coordinates assigned)
CN(Cc1cccc(C(=O)CCc2ccccc2)n1)C(=O)Cc1ccc(C(N)=O)s1 (optimized conformer: 73.87295034489343 kcal/mol)

>  <smiles>  (79) 
CN(Cc1cccc(C(=O)CCc2ccccc2)n1)C(=O)Cc1ccc(C(N)=O)s1

>  <score_type>  (79) 
oracle

>  <origin>  (79) 
adg

>  <m_score__min__energy>  (79) 
-10.17

>  <m_primary>  (79) 
energy

$$$$
79:0
     RDKit          3D

 33 34  0  0  0  0  0  0  0  0999 V2000
   55.9760   30.0470   42.6590 C   0  0  0  0  0  0  0  0  0  0  0  0
   56.2270   29.5990   44.0680 C   0  0  0  0  0  0  0  0  0  0  0  0
   55.2550   29.5640   44.8710 O   0  0  0  0  0  0  0  0  0  0  0  0
   57.5430   29.1810   44.5040 N   0  0  0  0  0  0  0  0  0  0  0  0
   58.0130   27.8500   44.0730 C   0  0  0  0  0  0  0  0  0  0  0  0
   59.2590   27.3210   44.8130 C   0  0  0  0  0  0  0  0  0  0  0  0
   59.4930   27.9530   46.1240 N   0  0  2  0  0  0  0  0  0  0  0  0
   58.5330   27.5710   47.1460 C   0  0  0  0  0  0  0  0  0  0  0  0
   58.6730   27.9510   48.3410 O   0  0  0  0  0  0  0  0  0  0  0  0
   57.4020   26.6820   46.8130 C   0  0  0  0  0  0  0  0  0  0  0  0
   57.3430   25.3240   47.0410 C   0  0  0  0  0  0  0  0  0  0  0  0
   56.1620   24.8550   46.6020 N   0  0  0  0  0  0  0  0  0  0  0  0
   55.5460   25.9550   46.1210 C   0  0  0  0  0  0  0  0  0  0  0  0
   54.3960   25.9220   45.6130 O   0  0  0  0  0  0  0  0  0  0  0  0
   56.2620   27.0920   46.2280 N   0  0  0  0  0  0  0  0  0  0  0  0
   59.5850   29.4110   45.9670 C   0  0  0  0  0  0  0  0  0  0  0  0
   58.2670   30.0370   45.4700 C   0  0  1  0  0  0  0  0  0  0  0  0
   58.5610   31.4140   44.8510 C   0  0  0  0  0  0  0  0  0  0  0  0
   55.4384   31.0066   42.6696 H   0  0  0  0  0  0  0  0  0  0  0  0
   56.9363   30.1705   42.1369 H   0  0  0  0  0  0  0  0  0  0  0  0
   55.3692   29.2925   42.1369 H   0  0  0  0  0  0  0  0  0  0  0  0
   57.1940   27.1327   44.2302 H   0  0  0  0  0  0  0  0  0  0  0  0
   58.3074   27.9574   43.0186 H   0  0  0  0  0  0  0  0  0  0  0  0
   59.1354   26.2390   44.9681 H   0  0  0  0  0  0  0  0  0  0  0  0
   60.1284   27.5631   44.1841 H   0  0  0  0  0  0  0  0  0  0  0  0
   60.4350   27.6180   46.4400 H   0  0  0  0  0  0  0  0  0  0  0  0
   58.1355   24.7204   47.5076 H   0  0  0  0  0  0  0  0  0  0  0  0
   59.8410   29.8549   46.9404 H   0  0  0  0  0  0  0  0  0  0  0  0
   60.3578   29.6171   45.2118 H   0  0  0  0  0  0  0  0  0  0  0  0
   57.6045   30.1432   46.3417 H   0  0  0  0  0  0  0  0  0  0  0  0
   58.7182   32.1504   45.6528 H   0  0  0  0  0  0  0  0  0  0  0  0
   59.4659   31.3506   44.2287 H   0  0  0  0  0  0  0  0  0  0  0  0
   57.7092   31.7257   44.2287 H   0  0  0  0  0  0  0  0  0  0  0  0
  1  2  1  0
  2  3  2  0
  2  4  1  0
  4  5  1  0
  5  6  1  0
  6  7  1  0
  7  8  1  0
  8  9  2  0
  8 10  1  0
 10 11  2  0
 11 12  1  0
 12 13  1  0
 13 14  2  0
 13 15  1  0
  7 16  1  0
 16 17  1  0
 17 18  1  0
 17  4  1  0
 15 10  1  0
  1 19  1  0
  1 20  1  0
  1 21  1  0
  5 22  1  0
  5 23  1  0
  6 24  1  0
  6 25  1  0
  7 26  1  1
 11 27  1  0
 16 28  1  0
 16 29  1  0
 17 30  1  1
 18 31  1  0
 18 32  1  0
 18 33  1  0
M  CHG  3   7   1  12  -1  15  -1
M  END
>  <UniqueID>  (80) 
78

>  <SMILES>  (80) 
CC(=O)N1CC[N@H+](C(=O)c2c[n-]c(=O)[n-]2)C[C@H]1C

>  <Energy>  (80) 
68.05945434443449

>  <Genealogy>  (80) 
CC(=O)N1CC[NH+](C(=O)c2c[n-]c(=O)[n-]2)CC1C (protonated)
CC(=O)N1CC[N@H+](C(=O)c2c[n-]c(=O)[n-]2)C[C@H]1C (chirality)
CC(=O)N1CC[N@H+](C(=O)c2c[n-]c(=O)[n-]2)C[C@H]1C (3D coordinates assigned)
CC(=O)N1CC[N@H+](C(=O)c2c[n-]c(=O)[n-]2)C[C@H]1C (nonaromatic ring conformer: 68.05945434443449 kcal/mol)

>  <smiles>  (80) 
CC(=O)N1CCN(C(=O)c2c[nH]c(=O)[nH]2)CC1C

>  <score_type>  (80) 
oracle

>  <origin>  (80) 
adg

>  <m_score__min__energy>  (80) 
-9.2300000000000004

>  <m_primary>  (80) 
energy

$$$$
80:0
     RDKit          3D

 48 50  0  0  0  0  0  0  0  0999 V2000
   59.8720   28.5539   47.9163 H   0  0  0  0  0  0  0  0  0  0  0  0
   60.2310   29.3620   47.2620 C   0  0  0  0  0  0  0  0  0  0  0  0
   60.0620   29.1750   45.7980 C   0  0  0  0  0  0  0  0  0  0  0  0
   60.9790   28.6640   45.0990 O   0  0  0  0  0  0  0  0  0  0  0  0
   58.8180   29.6040   45.1180 C   0  0  0  0  0  0  0  0  0  0  0  0
   58.9050   30.6670   44.2030 C   0  0  0  0  0  0  0  0  0  0  0  0
   59.8845   31.1175   43.9847 H   0  0  0  0  0  0  0  0  0  0  0  0
   57.7650   31.1570   43.5690 C   0  0  0  0  0  0  0  0  0  0  0  0
   57.8498   31.9893   42.8547 H   0  0  0  0  0  0  0  0  0  0  0  0
   56.5180   30.5960   43.8370 C   0  0  0  0  0  0  0  0  0  0  0  0
   55.6183   31.0016   43.3511 H   0  0  0  0  0  0  0  0  0  0  0  0
   56.4070   29.5200   44.7210 C   0  0  0  0  0  0  0  0  0  0  0  0
   55.1510   28.9680   44.9570 O   0  0  0  0  0  0  0  0  0  0  0  0
   57.5520   28.9890   45.3490 C   0  0  0  0  0  0  0  0  0  0  0  0
   57.3720   27.8100   46.2350 C   0  0  0  0  0  0  0  0  0  0  0  0
   56.6304   27.8989   47.0426 H   0  0  0  0  0  0  0  0  0  0  0  0
   58.0340   26.6450   46.1380 C   0  0  0  0  0  0  0  0  0  0  0  0
   59.0208   26.5876   46.6205 H   0  0  0  0  0  0  0  0  0  0  0  0
   57.5530   25.4310   45.4390 C   0  0  0  0  0  0  0  0  0  0  0  0
   57.1710   24.3220   46.2060 C   0  0  0  0  0  0  0  0  0  0  0  0
   57.2006   24.3815   47.3040 H   0  0  0  0  0  0  0  0  0  0  0  0
   56.7530   23.1420   45.5870 C   0  0  0  0  0  0  0  0  0  0  0  0
   56.4781   22.2713   46.2005 H   0  0  0  0  0  0  0  0  0  0  0  0
   56.6810   23.0590   44.1860 C   0  0  0  0  0  0  0  0  0  0  0  0
   56.2530   21.8060   43.5250 C   0  0  0  0  0  0  0  0  0  0  0  0
   56.1070   21.7580   42.2760 O   0  0  0  0  0  0  0  0  0  0  0  0
   56.0030   20.6640   44.2780 O   0  0  0  0  0  0  0  0  0  0  0  0
   57.0190   24.1870   43.4190 C   0  0  0  0  0  0  0  0  0  0  0  0
   56.9527   24.1406   42.3220 H   0  0  0  0  0  0  0  0  0  0  0  0
   57.4390   25.3680   44.0390 C   0  0  0  0  0  0  0  0  0  0  0  0
   57.6811   26.2509   43.4292 H   0  0  0  0  0  0  0  0  0  0  0  0
   60.7840   30.4320   47.8560 C   0  0  0  0  0  0  0  0  0  0  0  0
   61.3919   30.2578   48.7560 H   0  0  0  0  0  0  0  0  0  0  0  0
   60.6360   31.8240   47.3900 C   0  0  0  0  0  0  0  0  0  0  0  0
   61.7800   32.6070   47.1980 C   0  0  0  0  0  0  0  0  0  0  0  0
   62.7747   32.1813   47.3962 H   0  0  0  0  0  0  0  0  0  0  0  0
   61.6640   33.9260   46.7560 C   0  0  0  0  0  0  0  0  0  0  0  0
   62.5679   34.5289   46.5845 H   0  0  0  0  0  0  0  0  0  0  0  0
   60.4020   34.4820   46.5310 C   0  0  0  0  0  0  0  0  0  0  0  0
   60.3165   35.5192   46.1748 H   0  0  0  0  0  0  0  0  0  0  0  0
   59.2390   33.7210   46.7580 C   0  0  0  0  0  0  0  0  0  0  0  0
   57.9520   34.2470   46.5660 O   0  0  0  0  0  0  0  0  0  0  0  0
   57.0330   33.7860   45.5790 C   0  0  0  0  0  0  0  0  0  0  0  0
   56.1546   33.3454   46.0732 H   0  0  0  0  0  0  0  0  0  0  0  0
   56.7148   34.6312   44.9510 H   0  0  0  0  0  0  0  0  0  0  0  0
   57.5203   33.0256   44.9510 H   0  0  0  0  0  0  0  0  0  0  0  0
   59.3630   32.3930   47.1950 C   0  0  0  0  0  0  0  0  0  0  0  0
   58.2160   31.6400   47.4380 O   0  0  0  0  0  0  0  0  0  0  0  0
  1  2  1  0
  2  3  1  0
  3  4  2  0
  3  5  1  0
  5  6  2  0
  6  7  1  0
  6  8  1  0
  8  9  1  0
  8 10  2  0
 10 11  1  0
 10 12  1  0
 12 13  1  0
 12 14  2  0
 14 15  1  0
 15 16  1  0
 15 17  2  0
 17 18  1  0
 17 19  1  0
 19 20  2  0
 20 21  1  0
 20 22  1  0
 22 23  1  0
 22 24  2  0
 24 25  1  0
 25 26  2  0
 25 27  1  0
 24 28  1  0
 28 29  1  0
 28 30  2  0
 30 31  1  0
  2 32  2  3
 32 33  1  0
 32 34  1  0
 34 35  2  0
 35 36  1  0
 35 37  1  0
 37 38  1  0
 37 39  2  0
 39 40  1  0
 39 41  1  0
 41 42  1  0
 42 43  1  0
 43 44  1  0
 43 45  1  0
 43 46  1  0
 41 47  2  0
 47 48  1  0
 14  5  1  0
 30 19  1  0
 47 34  1  0
M  CHG  3  13  -1  27  -1  48  -1
M  END
>  <UniqueID>  (81) 
79

>  <SMILES>  (81) 
COc1cccc(C=CC(=O)c2cccc([O-])c2/C=C\c2ccc(C(=O)[O-])cc2)c1[O-]

>  <Energy>  (81) 
74.5433065166672

>  <Genealogy>  (81) 
COc1cccc(C=CC(=O)c2cccc([O-])c2C=Cc2ccc(C(=O)[O-])cc2)c1[O-] (protonated)
COc1cccc(C=CC(=O)c2cccc([O-])c2/C=C\c2ccc(C(=O)[O-])cc2)c1[O-] (cis-trans isomerization)
COc1cccc(C=CC(=O)c2cccc([O-])c2/C=C\c2ccc(C(=O)[O-])cc2)c1[O-] (3D coordinates assigned)
COc1cccc(C=CC(=O)c2cccc([O-])c2/C=C\c2ccc(C(=O)[O-])cc2)c1[O-] (optimized conformer: 74.5433065166672 kcal/mol)

>  <smiles>  (81) 
COc1cccc(C=CC(=O)c2cccc(O)c2C=Cc2ccc(C(=O)O)cc2)c1O

>  <score_type>  (81) 
oracle

>  <origin>  (81) 
adg

>  <m_score__min__energy>  (81) 
-14.52

>  <m_primary>  (81) 
energy

$$$$
81:0
     RDKit          3D

 72 76  0  0  0  0  0  0  0  0999 V2000
   58.6750   26.0440   47.4720 C   0  0  0  0  0  0  0  0  0  0  0  0
   58.1480   25.2210   46.3250 C   0  0  0  0  0  0  0  0  0  0  0  0
   58.8880   24.1100   45.8770 C   0  0  0  0  0  0  0  0  0  0  0  0
   58.4130   23.3130   44.8290 C   0  0  0  0  0  0  0  0  0  0  0  0
   57.2050   23.6260   44.2030 C   0  0  0  0  0  0  0  0  0  0  0  0
   56.4700   24.7380   44.6210 C   0  0  0  0  0  0  0  0  0  0  0  0
   56.9240   25.5450   45.6820 C   0  0  0  0  0  0  0  0  0  0  0  0
   56.0320   26.6660   46.1750 C   0  0  0  0  0  0  0  0  0  0  0  0
   56.0470   27.7970   45.2490 N   0  0  0  0  0  0  0  0  0  0  0  0
   57.2560   28.2910   44.6640 C   0  0  0  0  0  0  0  0  0  0  0  0
   57.4030   28.2320   43.4150 O   0  0  0  0  0  0  0  0  0  0  0  0
   58.3080   28.8980   45.5000 C   0  0  0  0  0  0  0  0  0  0  0  0
   59.6090   28.3760   45.4940 C   0  0  0  0  0  0  0  0  0  0  0  0
   60.5820   28.8970   46.3480 C   0  0  0  0  0  0  0  0  0  0  0  0
   60.2750   29.9580   47.2160 C   0  0  0  0  0  0  0  0  0  0  0  0
   61.2930   30.4680   48.0940 N   0  0  0  0  0  0  0  0  0  0  0  0
   61.8750   31.7790   47.7620 C   0  0  0  0  0  0  0  0  0  0  0  0
   63.0350   32.1810   48.6990 C   0  0  0  0  0  0  0  0  0  0  0  0
   62.7810   31.8310   50.1140 N   0  0  0  0  0  0  0  0  0  0  0  0
   61.7020   32.6620   50.7360 C   0  0  0  0  0  0  0  0  0  0  0  0
   60.7420   33.3070   49.7010 C   0  0  0  0  0  0  0  0  0  0  0  0
   59.6890   34.2070   50.3830 C   0  0  0  0  0  0  0  0  0  0  0  0
   59.2100   33.6720   51.7480 C   0  0  0  0  0  0  0  0  0  0  0  0
   59.3920   32.1610   51.8510 C   0  0  0  0  0  0  0  0  0  0  0  0
   60.8800   31.7780   51.7260 C   0  0  0  0  0  0  0  0  0  0  0  0
   62.6200   30.3650   50.2000 C   0  0  0  0  0  0  0  0  0  0  0  0
   61.3890   29.8750   49.4340 C   0  0  0  0  0  0  0  0  0  0  0  0
   58.9720   30.4990   47.2120 C   0  0  0  0  0  0  0  0  0  0  0  0
   58.5100   31.8590   48.2930 S   0  0  0  0  0  0  0  0  0  0  0  0
   58.5340   33.0650   46.9630 C   0  0  0  0  0  0  0  0  0  0  0  0
   59.6250   33.9330   46.8130 C   0  0  0  0  0  0  0  0  0  0  0  0
   59.6400   34.8680   45.7730 C   0  0  0  0  0  0  0  0  0  0  0  0
   58.5740   34.9300   44.8710 C   0  0  0  0  0  0  0  0  0  0  0  0
   57.4910   34.0540   45.0100 C   0  0  0  0  0  0  0  0  0  0  0  0
   57.4650   33.1280   46.0590 C   0  0  0  0  0  0  0  0  0  0  0  0
   57.9980   29.9640   46.3560 C   0  0  0  0  0  0  0  0  0  0  0  0
   58.3775   25.5795   48.4237 H   0  0  0  0  0  0  0  0  0  0  0  0
   59.7724   26.0923   47.4148 H   0  0  0  0  0  0  0  0  0  0  0  0
   58.2597   27.0610   47.4148 H   0  0  0  0  0  0  0  0  0  0  0  0
   59.8482   23.8662   46.3550 H   0  0  0  0  0  0  0  0  0  0  0  0
   58.9925   22.4385   44.4981 H   0  0  0  0  0  0  0  0  0  0  0  0
   56.8321   22.9973   43.3810 H   0  0  0  0  0  0  0  0  0  0  0  0
   55.5252   24.9862   44.1153 H   0  0  0  0  0  0  0  0  0  0  0  0
   55.0020   26.2912   46.2675 H   0  0  0  0  0  0  0  0  0  0  0  0
   56.4081   27.0083   47.1504 H   0  0  0  0  0  0  0  0  0  0  0  0
   59.8643   27.5512   44.8124 H   0  0  0  0  0  0  0  0  0  0  0  0
   61.5972   28.4736   46.3414 H   0  0  0  0  0  0  0  0  0  0  0  0
   62.2548   31.7424   46.7303 H   0  0  0  0  0  0  0  0  0  0  0  0
   61.0808   32.5306   47.8818 H   0  0  0  0  0  0  0  0  0  0  0  0
   63.9482   31.6645   48.3683 H   0  0  0  0  0  0  0  0  0  0  0  0
   63.1398   33.2746   48.6435 H   0  0  0  0  0  0  0  0  0  0  0  0
   62.1999   33.4900   51.2618 H   0  0  0  0  0  0  0  0  0  0  0  0
   61.3310   33.9160   48.9995 H   0  0  0  0  0  0  0  0  0  0  0  0
   60.2133   32.4994   49.1736 H   0  0  0  0  0  0  0  0  0  0  0  0
   60.1294   35.2034   50.5352 H   0  0  0  0  0  0  0  0  0  0  0  0
   58.8108   34.2342   49.7212 H   0  0  0  0  0  0  0  0  0  0  0  0
   59.7911   34.1573   52.5460 H   0  0  0  0  0  0  0  0  0  0  0  0
   58.1385   33.8985   51.8509 H   0  0  0  0  0  0  0  0  0  0  0  0
   59.0120   31.8177   52.8245 H   0  0  0  0  0  0  0  0  0  0  0  0
   58.8352   31.6826   51.0318 H   0  0  0  0  0  0  0  0  0  0  0  0
   61.3397   31.8613   52.7219 H   0  0  0  0  0  0  0  0  0  0  0  0
   60.9039   30.7554   51.3214 H   0  0  0  0  0  0  0  0  0  0  0  0
   63.5149   29.8845   49.7778 H   0  0  0  0  0  0  0  0  0  0  0  0
   62.4871   30.1004   51.2594 H   0  0  0  0  0  0  0  0  0  0  0  0
   61.4475   28.7812   49.3333 H   0  0  0  0  0  0  0  0  0  0  0  0
   60.4970   30.1795   50.0011 H   0  0  0  0  0  0  0  0  0  0  0  0
   60.4705   33.8784   47.5145 H   0  0  0  0  0  0  0  0  0  0  0  0
   60.4918   35.5555   45.6647 H   0  0  0  0  0  0  0  0  0  0  0  0
   58.5861   35.6658   44.0534 H   0  0  0  0  0  0  0  0  0  0  0  0
   56.6580   34.0936   44.2926 H   0  0  0  0  0  0  0  0  0  0  0  0
   56.6063   32.4502   46.1738 H   0  0  0  0  0  0  0  0  0  0  0  0
   56.9817   30.3848   46.3564 H   0  0  0  0  0  0  0  0  0  0  0  0
  1  2  1  0
  2  3  2  0
  3  4  1  0
  4  5  2  0
  5  6  1  0
  6  7  2  0
  7  8  1  0
  8  9  1  0
  9 10  1  0
 10 11  2  0
 10 12  1  0
 12 13  2  0
 13 14  1  0
 14 15  2  0
 15 16  1  0
 16 17  1  0
 17 18  1  0
 18 19  1  0
 19 20  1  0
 20 21  1  0
 21 22  1  0
 22 23  1  0
 23 24  1  0
 24 25  1  0
 19 26  1  0
 26 27  1  0
 15 28  1  0
 28 29  1  0
 29 30  1  0
 30 31  2  0
 31 32  1  0
 32 33  2  0
 33 34  1  0
 34 35  2  0
 28 36  2  0
  7  2  1  0
 36 12  1  0
 27 16  1  0
 35 30  1  0
 25 20  1  0
  1 37  1  0
  1 38  1  0
  1 39  1  0
  3 40  1  0
  4 41  1  0
  5 42  1  0
  6 43  1  0
  8 44  1  0
  8 45  1  0
 13 46  1  0
 14 47  1  0
 17 48  1  0
 17 49  1  0
 18 50  1  0
 18 51  1  0
 20 52  1  0
 21 53  1  0
 21 54  1  0
 22 55  1  0
 22 56  1  0
 23 57  1  0
 23 58  1  0
 24 59  1  0
 24 60  1  0
 25 61  1  0
 25 62  1  0
 26 63  1  0
 26 64  1  0
 27 65  1  0
 27 66  1  0
 31 67  1  0
 32 68  1  0
 33 69  1  0
 34 70  1  0
 35 71  1  0
 36 72  1  0
M  CHG  1   9  -1
M  END
>  <UniqueID>  (82) 
80

>  <SMILES>  (82) 
Cc1ccccc1C[N-]C(=O)c1ccc(N2CCN(C3CCCCC3)CC2)c(Sc2ccccc2)c1

>  <Energy>  (82) 
93.83861948610017

>  <Genealogy>  (82) 
Cc1ccccc1C[N-]C(=O)c1ccc(N2CCN(C3CCCCC3)CC2)c(Sc2ccccc2)c1 (protonated)
Cc1ccccc1C[N-]C(=O)c1ccc(N2CCN(C3CCCCC3)CC2)c(Sc2ccccc2)c1 (3D coordinates assigned)
Cc1ccccc1C[N-]C(=O)c1ccc(N2CCN(C3CCCCC3)CC2)c(Sc2ccccc2)c1 (nonaromatic ring conformer: 93.83861948610017 kcal/mol)

>  <smiles>  (82) 
Cc1ccccc1CNC(=O)c1ccc(N2CCN(C3CCCCC3)CC2)c(Sc2ccccc2)c1

>  <score_type>  (82) 
oracle

>  <origin>  (82) 
adg

>  <m_score__min__energy>  (82) 
-10.91

>  <m_primary>  (82) 
energy

$$$$
82:0
     RDKit          3D

 47 49  0  0  0  0  0  0  0  0999 V2000
   58.1220   33.0050   43.7560 C   0  0  0  0  0  0  0  0  0  0  0  0
   57.7450   34.1300   44.6310 N   0  0  0  0  0  0  0  0  0  0  0  0
   57.1120   33.6620   45.8920 C   0  0  0  0  0  0  0  0  0  0  0  0
   58.0320   33.7450   47.1260 C   0  0  0  0  0  0  0  0  0  0  0  0
   59.4310   33.5490   46.7350 N   0  0  0  0  0  0  0  0  0  0  0  0
   60.2500   32.5500   47.3720 C   0  0  0  0  0  0  0  0  0  0  0  0
   61.5280   32.8820   47.8550 C   0  0  0  0  0  0  0  0  0  0  0  0
   62.3190   31.9140   48.4780 C   0  0  0  0  0  0  0  0  0  0  0  0
   61.8450   30.6090   48.6300 C   0  0  0  0  0  0  0  0  0  0  0  0
   60.5690   30.2670   48.1620 C   0  0  0  0  0  0  0  0  0  0  0  0
   59.9610   28.6240   48.3190 S   0  0  0  0  0  0  0  0  0  0  0  0
   58.9260   28.5850   49.4080 O   0  0  0  0  0  0  0  0  0  0  0  0
   61.0860   27.6870   48.6610 O   0  0  0  0  0  0  0  0  0  0  0  0
   59.2540   28.1570   46.8070 N   0  0  0  0  0  0  0  0  0  0  0  0
   58.2510   27.1460   46.6280 C   0  0  0  0  0  0  0  0  0  0  0  0
   58.3960   25.8620   47.1870 C   0  0  0  0  0  0  0  0  0  0  0  0
   57.4070   24.8940   46.9990 C   0  0  0  0  0  0  0  0  0  0  0  0
   56.2640   25.1940   46.2540 C   0  0  0  0  0  0  0  0  0  0  0  0
   54.9170   23.8660   45.9970 Br  0  0  0  0  0  0  0  0  0  0  0  0
   56.1070   26.4660   45.6960 C   0  0  0  0  0  0  0  0  0  0  0  0
   57.0940   27.4470   45.8790 C   0  0  0  0  0  0  0  0  0  0  0  0
   56.8800   29.0510   45.1690 S   0  0  0  0  0  0  0  0  0  0  0  0
   55.2040   29.3280   44.8520 N   0  0  0  0  0  0  0  0  0  0  0  0
   57.6420   29.1560   43.8770 O   0  0  0  0  0  0  0  0  0  0  0  0
   57.3920   30.0920   46.1230 O   0  0  0  0  0  0  0  0  0  0  0  0
   59.7760   31.2380   47.5350 C   0  0  0  0  0  0  0  0  0  0  0  0
   59.9940   34.4070   45.6860 C   0  0  0  0  0  0  0  0  0  0  0  0
   58.8760   35.0570   44.8540 C   0  0  0  0  0  0  0  0  0  0  0  0
   58.4114   32.1416   44.3730 H   0  0  0  0  0  0  0  0  0  0  0  0
   57.2664   32.7316   43.1210 H   0  0  0  0  0  0  0  0  0  0  0  0
   58.9696   33.3024   43.1210 H   0  0  0  0  0  0  0  0  0  0  0  0
   56.2223   34.2802   46.0821 H   0  0  0  0  0  0  0  0  0  0  0  0
   56.8678   32.5990   45.7491 H   0  0  0  0  0  0  0  0  0  0  0  0
   57.9218   34.7342   47.5943 H   0  0  0  0  0  0  0  0  0  0  0  0
   57.7466   32.9559   47.8373 H   0  0  0  0  0  0  0  0  0  0  0  0
   61.9066   33.9086   47.7417 H   0  0  0  0  0  0  0  0  0  0  0  0
   63.3192   32.1805   48.8504 H   0  0  0  0  0  0  0  0  0  0  0  0
   62.4736   29.8492   49.1174 H   0  0  0  0  0  0  0  0  0  0  0  0
   59.2934   25.6198   47.7752 H   0  0  0  0  0  0  0  0  0  0  0  0
   57.5284   23.8930   47.4386 H   0  0  0  0  0  0  0  0  0  0  0  0
   55.2054   26.6993   45.1106 H   0  0  0  0  0  0  0  0  0  0  0  0
   54.7180   29.3410   45.7760 H   0  0  0  0  0  0  0  0  0  0  0  0
   58.7743   30.9703   47.1676 H   0  0  0  0  0  0  0  0  0  0  0  0
   60.6014   35.1963   46.1530 H   0  0  0  0  0  0  0  0  0  0  0  0
   60.6150   33.7892   45.0207 H   0  0  0  0  0  0  0  0  0  0  0  0
   58.5075   35.9462   45.3865 H   0  0  0  0  0  0  0  0  0  0  0  0
   59.2940   35.3274   43.8731 H   0  0  0  0  0  0  0  0  0  0  0  0
  1  2  1  0
  2  3  1  0
  3  4  1  0
  4  5  1  0
  5  6  1  0
  6  7  2  0
  7  8  1  0
  8  9  2  0
  9 10  1  0
 10 11  1  0
 11 12  2  0
 11 13  2  0
 11 14  1  0
 14 15  1  0
 15 16  2  0
 16 17  1  0
 17 18  2  0
 18 19  1  0
 18 20  1  0
 20 21  2  0
 21 22  1  0
 22 23  1  0
 22 24  2  0
 22 25  2  0
 10 26  2  0
  5 27  1  0
 27 28  1  0
 28  2  1  0
 26  6  1  0
 21 15  1  0
  1 29  1  0
  1 30  1  0
  1 31  1  0
  3 32  1  0
  3 33  1  0
  4 34  1  0
  4 35  1  0
  7 36  1  0
  8 37  1  0
  9 38  1  0
 16 39  1  0
 17 40  1  0
 20 41  1  0
 23 42  1  0
 26 43  1  0
 27 44  1  0
 27 45  1  0
 28 46  1  0
 28 47  1  0
M  CHG  2  14  -1  23  -1
M  END
>  <UniqueID>  (83) 
81

>  <SMILES>  (83) 
CN1CCN(c2cccc(S(=O)(=O)[N-]c3ccc(Br)cc3S([NH-])(=O)=O)c2)CC1

>  <Energy>  (83) 
63.74367491534451

>  <Genealogy>  (83) 
CN1CCN(c2cccc(S(=O)(=O)[N-]c3ccc(Br)cc3S([NH-])(=O)=O)c2)CC1 (protonated)
CN1CCN(c2cccc(S(=O)(=O)[N-]c3ccc(Br)cc3S([NH-])(=O)=O)c2)CC1 (3D coordinates assigned)
CN1CCN(c2cccc(S(=O)(=O)[N-]c3ccc(Br)cc3S([NH-])(=O)=O)c2)CC1 (nonaromatic ring conformer: 63.74367491534451 kcal/mol)

>  <smiles>  (83) 
CN1CCN(c2cccc(S(=O)(=O)Nc3ccc(Br)cc3S(N)(=O)=O)c2)CC1

>  <score_type>  (83) 
oracle

>  <origin>  (83) 
adg

>  <m_score__min__energy>  (83) 
-14

>  <m_primary>  (83) 
energy

$$$$
83:0
     RDKit          3D

 38 40  0  0  0  0  0  0  0  0999 V2000
   58.8860   35.4950   48.1750 H   0  0  0  0  0  0  0  0  0  0  0  0
   59.0560   35.5220   47.1760 O   0  0  0  0  0  0  0  0  0  0  0  0
   58.7630   34.4410   46.3430 C   0  0  0  0  0  0  0  0  0  0  0  0
   58.9340   34.5870   44.9610 C   0  0  0  0  0  0  0  0  0  0  0  0
   59.2898   35.5446   44.5531 H   0  0  0  0  0  0  0  0  0  0  0  0
   58.6560   33.5250   44.0960 C   0  0  0  0  0  0  0  0  0  0  0  0
   58.8022   33.6471   43.0126 H   0  0  0  0  0  0  0  0  0  0  0  0
   58.1910   32.3040   44.6060 C   0  0  0  0  0  0  0  0  0  0  0  0
   57.9320   31.1450   43.6780 C   0  0  0  0  0  0  0  0  0  0  0  0
   58.8754   30.8490   43.1959 H   0  0  0  0  0  0  0  0  0  0  0  0
   57.1993   31.4538   42.9179 H   0  0  0  0  0  0  0  0  0  0  0  0
   57.3770   29.9730   44.4430 C   0  0  0  0  0  0  0  0  0  0  0  0
   58.0690   29.2600   45.4090 C   0  0  0  0  0  0  0  0  0  0  0  0
   59.1035   29.4344   45.7398 H   0  0  0  0  0  0  0  0  0  0  0  0
   57.2010   28.2820   45.8780 C   0  0  0  0  0  0  0  0  0  0  0  0
   57.4440   27.3340   46.8020 C   0  0  0  0  0  0  0  0  0  0  0  0
   58.0385   27.6318   47.6783 H   0  0  0  0  0  0  0  0  0  0  0  0
   56.9850   25.9270   46.7480 C   0  0  0  0  0  0  0  0  0  0  0  0
   57.7150   24.8400   47.0580 N   0  0  0  0  0  0  0  0  0  0  0  0
   56.8720   23.8100   46.8290 C   0  0  0  0  0  0  0  0  0  0  0  0
   57.2060   22.6070   46.9970 O   0  0  0  0  0  0  0  0  0  0  0  0
   55.6480   24.1710   46.3910 N   0  0  0  0  0  0  0  0  0  0  0  0
   55.7350   25.5120   46.3500 C   0  0  0  0  0  0  0  0  0  0  0  0
   54.6930   26.3400   45.9520 O   0  0  0  0  0  0  0  0  0  0  0  0
   56.0100   28.3880   45.2480 N   0  0  0  0  0  0  0  0  0  0  0  0
   55.1710   27.7820   45.4010 H   0  0  0  0  0  0  0  0  0  0  0  0
   56.1060   29.4100   44.3760 C   0  0  0  0  0  0  0  0  0  0  0  0
   55.0980   29.7860   43.5820 C   0  0  0  0  0  0  0  0  0  0  0  0
   55.2300   30.6285   42.8872 H   0  0  0  0  0  0  0  0  0  0  0  0
   54.1367   29.2528   43.6236 H   0  0  0  0  0  0  0  0  0  0  0  0
   58.0240   32.1520   45.9940 C   0  0  0  0  0  0  0  0  0  0  0  0
   57.6669   31.1932   46.3979 H   0  0  0  0  0  0  0  0  0  0  0  0
   58.3100   33.2170   46.8730 C   0  0  0  0  0  0  0  0  0  0  0  0
   58.1590   33.0940   48.2640 O   0  0  0  0  0  0  0  0  0  0  0  0
   58.8830   32.1730   49.0770 C   0  0  0  0  0  0  0  0  0  0  0  0
   58.7037   32.4010   50.1381 H   0  0  0  0  0  0  0  0  0  0  0  0
   58.5458   31.1487   48.8600 H   0  0  0  0  0  0  0  0  0  0  0  0
   59.9580   32.2588   48.8600 H   0  0  0  0  0  0  0  0  0  0  0  0
  1  2  1  0
  2  3  1  0
  3  4  2  0
  4  5  1  0
  4  6  1  0
  6  7  1  0
  6  8  2  0
  8  9  1  0
  9 10  1  0
  9 11  1  0
  9 12  1  0
 12 13  2  0
 13 14  1  0
 13 15  1  0
 15 16  2  0
 16 17  1  0
 16 18  1  0
 18 19  1  0
 19 20  1  0
 20 21  2  0
 20 22  1  0
 22 23  1  0
 23 24  1  0
 15 25  1  0
 25 26  1  0
 25 27  1  0
 27 28  2  0
 28 29  1  0
 28 30  1  0
  8 31  1  0
 31 32  1  0
 31 33  2  0
 33 34  1  0
 34 35  1  0
 35 36  1  0
 35 37  1  0
 35 38  1  0
 33  3  1  0
 27 12  1  0
 23 18  2  0
M  CHG  3  19  -1  22  -1  24  -1
M  END
>  <UniqueID>  (84) 
82

>  <SMILES>  (84) 
C=c1[nH]/c(=C/c2[n-]c(=O)[n-]c2[O-])cc1Cc1ccc(O)c(OC)c1

>  <Energy>  (84) 
97.68892931291715

>  <Genealogy>  (84) 
C=c1[nH]c(=Cc2[n-]c(=O)[n-]c2[O-])cc1Cc1ccc(O)c(OC)c1 (protonated)
C=c1[nH]/c(=C/c2[n-]c(=O)[n-]c2[O-])cc1Cc1ccc(O)c(OC)c1 (cis-trans isomerization)
C=c1[nH]/c(=C/c2[n-]c(=O)[n-]c2[O-])cc1Cc1ccc(O)c(OC)c1 (3D coordinates assigned)
C=c1[nH]/c(=C/c2[n-]c(=O)[n-]c2[O-])cc1Cc1ccc(O)c(OC)c1 (optimized conformer: 97.68892931291715 kcal/mol)

>  <smiles>  (84) 
C=c1[nH]c(=Cc2[nH]c(=O)[nH]c2O)cc1Cc1ccc(O)c(OC)c1

>  <score_type>  (84) 
oracle

>  <origin>  (84) 
adg

>  <m_score__min__energy>  (84) 
-15.42

>  <m_primary>  (84) 
energy

$$$$
84:0
     RDKit          3D

 67 71  0  0  0  0  0  0  0  0999 V2000
   57.8810   26.4150   46.5500 C   0  0  0  0  0  0  0  0  0  0  0  0
   58.1090   27.7900   46.0810 N   0  0  0  0  0  0  0  0  0  0  0  0
   59.4390   27.9120   45.4530 C   0  0  0  0  0  0  0  0  0  0  0  0
   59.7560   29.3990   45.2330 C   0  0  0  0  0  0  0  0  0  0  0  0
   58.5430   30.1310   44.8430 N   0  0  0  0  0  0  0  0  0  0  0  0
   58.3720   31.5060   45.2410 C   0  0  0  0  0  0  0  0  0  0  0  0
   57.5030   32.3500   44.5290 C   0  0  0  0  0  0  0  0  0  0  0  0
   57.3870   33.6990   44.8770 C   0  0  0  0  0  0  0  0  0  0  0  0
   58.1440   34.2220   45.9290 C   0  0  0  0  0  0  0  0  0  0  0  0
   59.0130   33.3910   46.6550 C   0  0  0  0  0  0  0  0  0  0  0  0
   59.8530   33.9310   47.7410 C   0  0  0  0  0  0  0  0  0  0  0  0
   61.0660   34.2060   47.5310 O   0  0  0  0  0  0  0  0  0  0  0  0
   59.2950   34.1000   49.0460 N   0  0  0  0  0  0  0  0  0  0  0  0
   59.9680   33.6880   50.2680 C   0  0  0  0  0  0  0  0  0  0  0  0
   59.0910   32.7090   51.0000 C   0  0  0  0  0  0  0  0  0  0  0  0
   58.8770   31.4300   50.4610 C   0  0  0  0  0  0  0  0  0  0  0  0
   58.1240   30.4840   51.1610 C   0  0  0  0  0  0  0  0  0  0  0  0
   57.5660   30.8070   52.4050 C   0  0  0  0  0  0  0  0  0  0  0  0
   56.7920   29.7930   53.1430 C   0  0  0  0  0  0  0  0  0  0  0  0
   57.4260   28.8420   53.6800 O   0  0  0  0  0  0  0  0  0  0  0  0
   55.3480   29.8420   53.2220 N   0  0  0  0  0  0  0  0  0  0  0  0
   54.6930   30.0740   54.5280 C   0  0  0  0  0  0  0  0  0  0  0  0
   53.1580   30.0190   54.4560 C   0  0  0  0  0  0  0  0  0  0  0  0
   52.6560   30.7500   53.2450 C   0  0  0  0  0  0  0  0  0  0  0  0
   51.4960   31.5370   53.2960 C   0  0  0  0  0  0  0  0  0  0  0  0
   51.0260   32.1660   52.1400 C   0  0  0  0  0  0  0  0  0  0  0  0
   51.7010   32.0020   50.9250 C   0  0  0  0  0  0  0  0  0  0  0  0
   51.2200   32.6350   49.7800 O   0  0  0  0  0  0  0  0  0  0  0  0
   52.8500   31.2020   50.8680 C   0  0  0  0  0  0  0  0  0  0  0  0
   53.3340   30.5800   52.0300 C   0  0  0  0  0  0  0  0  0  0  0  0
   54.5460   29.6890   51.9920 C   0  0  0  0  0  0  0  0  0  0  0  0
   57.7940   32.0790   52.9560 C   0  0  0  0  0  0  0  0  0  0  0  0
   58.5520   33.0250   52.2580 C   0  0  0  0  0  0  0  0  0  0  0  0
   59.1200   32.0350   46.3050 C   0  0  0  0  0  0  0  0  0  0  0  0
   57.4440   29.3710   44.2340 C   0  0  0  0  0  0  0  0  0  0  0  0
   57.0220   28.2140   45.1630 C   0  0  0  0  0  0  0  0  0  0  0  0
   57.8783   26.3985   47.6499 H   0  0  0  0  0  0  0  0  0  0  0  0
   56.9111   26.0559   46.1755 H   0  0  0  0  0  0  0  0  0  0  0  0
   58.6831   25.7621   46.1755 H   0  0  0  0  0  0  0  0  0  0  0  0
   60.1995   27.4666   46.1112 H   0  0  0  0  0  0  0  0  0  0  0  0
   59.4428   27.3853   44.4873 H   0  0  0  0  0  0  0  0  0  0  0  0
   60.1528   29.8265   46.1656 H   0  0  0  0  0  0  0  0  0  0  0  0
   60.5004   29.4890   44.4281 H   0  0  0  0  0  0  0  0  0  0  0  0
   56.9111   31.9473   43.6938 H   0  0  0  0  0  0  0  0  0  0  0  0
   56.6975   34.3511   44.3209 H   0  0  0  0  0  0  0  0  0  0  0  0
   58.0590   35.2874   46.1891 H   0  0  0  0  0  0  0  0  0  0  0  0
   60.9269   33.2102   50.0185 H   0  0  0  0  0  0  0  0  0  0  0  0
   60.1583   34.5657   50.9032 H   0  0  0  0  0  0  0  0  0  0  0  0
   59.3050   31.1713   49.4813 H   0  0  0  0  0  0  0  0  0  0  0  0
   57.9687   29.4822   50.7341 H   0  0  0  0  0  0  0  0  0  0  0  0
   55.0374   29.3033   55.2333 H   0  0  0  0  0  0  0  0  0  0  0  0
   54.9680   31.0875   54.8553 H   0  0  0  0  0  0  0  0  0  0  0  0
   52.8367   28.9684   54.4023 H   0  0  0  0  0  0  0  0  0  0  0  0
   52.7448   30.4996   55.3551 H   0  0  0  0  0  0  0  0  0  0  0  0
   50.9560   31.6591   54.2465 H   0  0  0  0  0  0  0  0  0  0  0  0
   50.1226   32.7920   52.1852 H   0  0  0  0  0  0  0  0  0  0  0  0
   51.7230   32.5910   48.9010 H   0  0  0  0  0  0  0  0  0  0  0  0
   53.3738   31.0610   49.9111 H   0  0  0  0  0  0  0  0  0  0  0  0
   54.2212   28.6420   51.9012 H   0  0  0  0  0  0  0  0  0  0  0  0
   55.1660   29.9738   51.1292 H   0  0  0  0  0  0  0  0  0  0  0  0
   57.3745   32.3322   53.9408 H   0  0  0  0  0  0  0  0  0  0  0  0
   58.7264   34.0191   52.6955 H   0  0  0  0  0  0  0  0  0  0  0  0
   59.7980   31.3795   46.8713 H   0  0  0  0  0  0  0  0  0  0  0  0
   56.5854   30.0392   44.0719 H   0  0  0  0  0  0  0  0  0  0  0  0
   57.7819   28.9564   43.2728 H   0  0  0  0  0  0  0  0  0  0  0  0
   56.1614   28.5418   45.7645 H   0  0  0  0  0  0  0  0  0  0  0  0
   56.7697   27.3527   44.5270 H   0  0  0  0  0  0  0  0  0  0  0  0
  1  2  1  0
  2  3  1  0
  3  4  1  0
  4  5  1  0
  5  6  1  0
  6  7  2  0
  7  8  1  0
  8  9  2  0
  9 10  1  0
 10 11  1  0
 11 12  2  0
 11 13  1  0
 13 14  1  0
 14 15  1  0
 15 16  2  0
 16 17  1  0
 17 18  2  0
 18 19  1  0
 19 20  2  0
 19 21  1  0
 21 22  1  0
 22 23  1  0
 23 24  1  0
 24 25  2  0
 25 26  1  0
 26 27  2  0
 27 28  1  0
 27 29  1  0
 29 30  2  0
 30 31  1  0
 18 32  1  0
 32 33  2  0
 10 34  2  0
  5 35  1  0
 35 36  1  0
 36  2  1  0
 34  6  1  0
 33 15  1  0
 31 21  1  0
 30 24  1  0
  1 37  1  0
  1 38  1  0
  1 39  1  0
  3 40  1  0
  3 41  1  0
  4 42  1  0
  4 43  1  0
  7 44  1  0
  8 45  1  0
  9 46  1  0
 14 47  1  0
 14 48  1  0
 16 49  1  0
 17 50  1  0
 22 51  1  0
 22 52  1  0
 23 53  1  0
 23 54  1  0
 25 55  1  0
 26 56  1  0
 28 57  1  0
 29 58  1  0
 31 59  1  0
 31 60  1  0
 32 61  1  0
 33 62  1  0
 34 63  1  0
 35 64  1  0
 35 65  1  0
 36 66  1  0
 36 67  1  0
M  CHG  1  13  -1
M  END
>  <UniqueID>  (85) 
83

>  <SMILES>  (85) 
CN1CCN(c2cccc(C(=O)[N-]Cc3ccc(C(=O)N4CCc5ccc(O)cc5C4)cc3)c2)CC1

>  <Energy>  (85) 
91.1186301306958

>  <Genealogy>  (85) 
CN1CCN(c2cccc(C(=O)[N-]Cc3ccc(C(=O)N4CCc5ccc(O)cc5C4)cc3)c2)CC1 (protonated)
CN1CCN(c2cccc(C(=O)[N-]Cc3ccc(C(=O)N4CCc5ccc(O)cc5C4)cc3)c2)CC1 (3D coordinates assigned)
CN1CCN(c2cccc(C(=O)[N-]Cc3ccc(C(=O)N4CCc5ccc(O)cc5C4)cc3)c2)CC1 (nonaromatic ring conformer: 91.1186301306958 kcal/mol)

>  <smiles>  (85) 
CN1CCN(c2cccc(C(=O)NCc3ccc(C(=O)N4CCc5ccc(O)cc5C4)cc3)c2)CC1

>  <score_type>  (85) 
oracle

>  <origin>  (85) 
adg

>  <m_score__min__energy>  (85) 
-11.67

>  <m_primary>  (85) 
energy

$$$$
85:0
     RDKit          3D

 47 49  0  0  1  0  0  0  0  0999 V2000
   63.3590   33.8370   46.7550 C   0  0  0  0  0  0  0  0  0  0  0  0
   62.0190   33.6360   46.3770 O   0  0  0  0  0  0  0  0  0  0  0  0
   60.9610   33.7360   47.3020 C   0  0  0  0  0  0  0  0  0  0  0  0
   60.3640   34.8590   47.4640 O   0  0  0  0  0  0  0  0  0  0  0  0
   60.5760   32.5290   48.0580 C   0  0  0  0  0  0  0  0  0  0  0  0
   61.6270   31.4520   48.0180 C   0  0  0  0  0  0  0  0  0  0  0  0
   61.4950   30.5550   46.7920 C   0  0  0  0  0  0  0  0  0  0  0  0
   60.2150   29.8480   46.8990 N   0  0  0  0  0  0  0  0  0  0  0  0
   60.0300   28.6420   46.1890 C   0  0  0  0  0  0  0  0  0  0  0  0
   61.0050   28.2490   45.4700 O   0  0  0  0  0  0  0  0  0  0  0  0
   58.8530   27.8220   46.2050 C   0  0  0  0  0  0  0  0  0  0  0  0
   58.7030   26.6700   46.9590 C   0  0  0  0  0  0  0  0  0  0  0  0
   57.5500   25.9870   46.8640 N   0  0  0  0  0  0  0  0  0  0  0  0
   56.5590   26.4110   46.0530 C   0  0  0  0  0  0  0  0  0  0  0  0
   55.5140   25.7200   46.0140 O   0  0  0  0  0  0  0  0  0  0  0  0
   56.6460   27.5190   45.3010 N   0  0  0  0  0  0  0  0  0  0  0  0
   57.7900   28.2160   45.3810 C   0  0  0  0  0  0  0  0  0  0  0  0
   57.8930   29.2680   44.6830 N   0  0  0  0  0  0  0  0  0  0  0  0
   57.0520   30.3790   44.6220 C   0  0  0  0  0  0  0  0  0  0  0  0
   55.8000   30.1370   44.4700 O   0  0  0  0  0  0  0  0  0  0  0  0
   57.4150   31.7700   44.7100 C   0  0  0  0  0  0  0  0  0  0  0  0
   58.4870   32.2510   43.9970 C   0  0  0  0  0  0  0  0  0  0  0  0
   58.8200   33.5930   44.1240 C   0  0  0  0  0  0  0  0  0  0  0  0
   58.0940   34.4520   44.9540 C   0  0  0  0  0  0  0  0  0  0  0  0
   57.0230   33.8740   45.6330 C   0  0  0  0  0  0  0  0  0  0  0  0
   56.7100   32.5690   45.5020 N   0  0  0  0  0  0  0  0  0  0  0  0
   59.2090   30.4750   47.7340 C   0  0  0  0  0  0  0  0  0  0  0  0
   59.3030   31.9820   47.4520 C   0  0  0  0  0  0  0  0  0  0  0  0
   63.4327   33.8481   47.8525 H   0  0  0  0  0  0  0  0  0  0  0  0
   63.9793   33.0219   46.3541 H   0  0  0  0  0  0  0  0  0  0  0  0
   63.7128   34.7983   46.3541 H   0  0  0  0  0  0  0  0  0  0  0  0
   60.4445   32.8192   49.1108 H   0  0  0  0  0  0  0  0  0  0  0  0
   62.6190   31.9271   48.0028 H   0  0  0  0  0  0  0  0  0  0  0  0
   61.4950   30.8219   48.9099 H   0  0  0  0  0  0  0  0  0  0  0  0
   61.5118   31.1650   45.8768 H   0  0  0  0  0  0  0  0  0  0  0  0
   62.3296   29.8401   46.7433 H   0  0  0  0  0  0  0  0  0  0  0  0
   59.5098   26.3221   47.6208 H   0  0  0  0  0  0  0  0  0  0  0  0
   57.4810   25.1200   47.4520 H   0  0  0  0  0  0  0  0  0  0  0  0
   55.8910   27.8610   44.6680 H   0  0  0  0  0  0  0  0  0  0  0  0
   59.0684   31.5874   43.3401 H   0  0  0  0  0  0  0  0  0  0  0  0
   59.6757   33.9897   43.5579 H   0  0  0  0  0  0  0  0  0  0  0  0
   58.3515   35.5158   45.0641 H   0  0  0  0  0  0  0  0  0  0  0  0
   56.4128   34.5031   46.2977 H   0  0  0  0  0  0  0  0  0  0  0  0
   58.2084   30.0993   47.4740 H   0  0  0  0  0  0  0  0  0  0  0  0
   59.3744   30.2535   48.7987 H   0  0  0  0  0  0  0  0  0  0  0  0
   59.3115   32.1520   46.3652 H   0  0  0  0  0  0  0  0  0  0  0  0
   58.4360   32.4932   47.8959 H   0  0  0  0  0  0  0  0  0  0  0  0
  1  2  1  0
  2  3  1  0
  3  4  2  0
  3  5  1  0
  5  6  1  0
  6  7  1  0
  7  8  1  0
  8  9  1  0
  9 10  2  0
  9 11  1  0
 11 12  2  0
 12 13  1  0
 13 14  1  0
 14 15  2  0
 14 16  1  0
 16 17  1  0
 17 18  2  0
 18 19  1  0
 19 20  2  0
 19 21  1  0
 21 22  2  0
 22 23  1  0
 23 24  2  0
 24 25  1  0
 25 26  2  0
  8 27  1  0
 27 28  1  0
 28  5  1  0
 17 11  1  0
 26 21  1  0
  1 29  1  0
  1 30  1  0
  1 31  1  0
  5 32  1  0
  6 33  1  0
  6 34  1  0
  7 35  1  0
  7 36  1  0
 12 37  1  0
 13 38  1  0
 16 39  1  0
 22 40  1  0
 23 41  1  0
 24 42  1  0
 25 43  1  0
 27 44  1  0
 27 45  1  0
 28 46  1  0
 28 47  1  0
M  END
>  <smiles>  (86) 
COC(=O)C1CCN(C(=O)c2c[nH]c(=O)[nH]c2=NC(=O)c2ccccn2)CC1

>  <score_type>  (86) 
oracle

>  <origin>  (86) 
adg

>  <m_score__min__energy>  (86) 
-8.7200000000000006

>  <m_primary>  (86) 
energy

$$$$
86:0
     RDKit          3D

 36 38  0  0  0  0  0  0  0  0999 V2000
   62.0576   34.9454   47.6098 H   0  0  0  0  0  0  0  0  0  0  0  0
   61.9200   33.8580   47.5170 C   0  0  0  0  0  0  0  0  0  0  0  0
   62.6765   33.1712   47.9243 H   0  0  0  0  0  0  0  0  0  0  0  0
   60.8240   33.3670   46.9040 C   0  0  0  0  0  0  0  0  0  0  0  0
   60.7200   31.9670   46.8250 C   0  0  0  0  0  0  0  0  0  0  0  0
   61.5233   31.3270   47.2188 H   0  0  0  0  0  0  0  0  0  0  0  0
   59.5990   31.4040   46.2480 C   0  0  0  0  0  0  0  0  0  0  0  0
   59.4150   30.0770   46.0860 N   0  0  0  0  0  0  0  0  0  0  0  0
   58.2050   29.9810   45.4960 C   0  0  0  0  0  0  0  0  0  0  0  0
   57.6750   28.7960   45.1470 C   0  0  0  0  0  0  0  0  0  0  0  0
   58.3643   28.0317   44.7587 H   0  0  0  0  0  0  0  0  0  0  0  0
   56.2500   28.4330   45.2400 C   0  0  0  0  0  0  0  0  0  0  0  0
   55.3890   29.2440   44.8090 O   0  0  0  0  0  0  0  0  0  0  0  0
   55.8590   27.1210   45.6660 N   0  0  0  0  0  0  0  0  0  0  0  0
   56.6720   25.9390   45.6420 C   0  0  0  0  0  0  0  0  0  0  0  0
   56.2300   24.8340   44.9010 C   0  0  0  0  0  0  0  0  0  0  0  0
   55.2682   24.8824   44.3693 H   0  0  0  0  0  0  0  0  0  0  0  0
   57.0030   23.6710   44.8330 C   0  0  0  0  0  0  0  0  0  0  0  0
   56.6428   22.8040   44.2599 H   0  0  0  0  0  0  0  0  0  0  0  0
   58.2330   23.6100   45.4930 C   0  0  0  0  0  0  0  0  0  0  0  0
   58.8382   22.6927   45.4448 H   0  0  0  0  0  0  0  0  0  0  0  0
   58.6940   24.7140   46.2140 C   0  0  0  0  0  0  0  0  0  0  0  0
   59.6659   24.6675   46.7270 H   0  0  0  0  0  0  0  0  0  0  0  0
   57.9220   25.8790   46.2850 C   0  0  0  0  0  0  0  0  0  0  0  0
   58.2933   26.7500   46.8449 H   0  0  0  0  0  0  0  0  0  0  0  0
   57.7030   31.2610   45.3000 C   0  0  0  0  0  0  0  0  0  0  0  0
   56.6570   31.5510   44.6620 O   0  0  0  0  0  0  0  0  0  0  0  0
   58.5810   32.1630   45.8010 N   0  0  0  0  0  0  0  0  0  0  0  0
   58.5720   33.5370   45.8810 C   0  0  0  0  0  0  0  0  0  0  0  0
   57.4460   34.2280   45.5870 C   0  0  0  0  0  0  0  0  0  0  0  0
   57.4418   35.3261   45.6518 H   0  0  0  0  0  0  0  0  0  0  0  0
   56.5350   33.6915   45.2832 H   0  0  0  0  0  0  0  0  0  0  0  0
   59.7700   34.1890   46.3560 C   0  0  0  0  0  0  0  0  0  0  0  0
   59.9350   35.5310   46.2310 C   0  0  0  0  0  0  0  0  0  0  0  0
   60.8549   36.0087   46.5992 H   0  0  0  0  0  0  0  0  0  0  0  0
   59.1488   36.1404   45.7615 H   0  0  0  0  0  0  0  0  0  0  0  0
  1  2  1  0
  2  3  1  0
  2  4  2  0
  4  5  1  0
  5  6  1  0
  5  7  2  0
  7  8  1  0
  8  9  1  0
  9 10  2  0
 10 11  1  0
 10 12  1  0
 12 13  2  0
 12 14  1  0
 14 15  1  0
 15 16  2  0
 16 17  1  0
 16 18  1  0
 18 19  1  0
 18 20  2  0
 20 21  1  0
 20 22  1  0
 22 23  1  0
 22 24  2  0
 24 25  1  0
  9 26  1  0
 26 27  2  0
 26 28  1  0
 28 29  1  0
 29 30  2  0
 30 31  1  0
 30 32  1  0
 29 33  1  0
 33 34  2  0
 34 35  1  0
 34 36  1  0
 33  4  1  0
 28  7  1  0
 24 15  1  0
M  CHG  2   8  -1  14  -1
M  END
>  <UniqueID>  (87) 
84

>  <SMILES>  (87) 
C=c1cc2[n-]/c(=C/C(=O)[N-]c3ccccc3)c(=O)n2c(=C)c1=C

>  <Energy>  (87) 
106.14516199854273

>  <Genealogy>  (87) 
C=c1cc2[n-]c(=CC(=O)[N-]c3ccccc3)c(=O)n2c(=C)c1=C (protonated)
C=c1cc2[n-]/c(=C/C(=O)[N-]c3ccccc3)c(=O)n2c(=C)c1=C (cis-trans isomerization)
C=c1cc2[n-]/c(=C/C(=O)[N-]c3ccccc3)c(=O)n2c(=C)c1=C (3D coordinates assigned)
C=c1cc2[n-]/c(=C/C(=O)[N-]c3ccccc3)c(=O)n2c(=C)c1=C (optimized conformer: 106.14516199854273 kcal/mol)

>  <smiles>  (87) 
C=c1cc2[nH]c(=CC(=O)Nc3ccccc3)c(=O)n2c(=C)c1=C

>  <score_type>  (87) 
oracle

>  <origin>  (87) 
adg

>  <m_score__min__energy>  (87) 
-10.949999999999999

>  <m_primary>  (87) 
energy

$$$$
87:0
     RDKit          3D

 60 64  0  0  0  0  0  0  0  0999 V2000
   56.6610   31.2190   43.2040 O   0  0  0  0  0  0  0  0  0  0  0  0
   57.0220   31.2210   44.4090 C   0  0  0  0  0  0  0  0  0  0  0  0
   56.7010   30.0830   45.2220 N   0  0  0  0  0  0  0  0  0  0  0  0
   57.6100   29.0490   45.6290 C   0  0  0  0  0  0  0  0  0  0  0  0
   57.9630   27.9940   44.7690 C   0  0  0  0  0  0  0  0  0  0  0  0
   58.8660   27.0150   45.1910 C   0  0  0  0  0  0  0  0  0  0  0  0
   59.4330   27.0870   46.4660 C   0  0  0  0  0  0  0  0  0  0  0  0
   59.1090   28.1410   47.3290 C   0  0  0  0  0  0  0  0  0  0  0  0
   59.7110   28.1720   48.5950 O   0  0  0  0  0  0  0  0  0  0  0  0
   60.5750   29.2100   49.0500 C   0  0  0  0  0  0  0  0  0  0  0  0
   59.8490   30.0430   50.0660 C   0  0  0  0  0  0  0  0  0  0  0  0
   58.5250   29.7540   50.3970 C   0  0  0  0  0  0  0  0  0  0  0  0
   57.8650   30.5630   51.3220 C   0  0  0  0  0  0  0  0  0  0  0  0
   56.6690   30.2880   51.6210 O   0  0  0  0  0  0  0  0  0  0  0  0
   58.5110   31.6350   51.8880 N   0  0  0  0  0  0  0  0  0  0  0  0
   57.8680   32.4320   52.8030 C   0  0  0  0  0  0  0  0  0  0  0  0
   58.5160   33.5260   53.3810 C   0  0  0  0  0  0  0  0  0  0  0  0
   59.8290   33.8130   53.0220 C   0  0  0  0  0  0  0  0  0  0  0  0
   60.4840   33.0080   52.0960 C   0  0  0  0  0  0  0  0  0  0  0  0
   59.8150   31.9100   51.5300 C   0  0  0  0  0  0  0  0  0  0  0  0
   60.4620   31.1200   50.6260 N   0  0  0  0  0  0  0  0  0  0  0  0
   58.1980   29.1260   46.8990 C   0  0  0  0  0  0  0  0  0  0  0  0
   57.8100   32.3630   44.9320 C   0  0  0  0  0  0  0  0  0  0  0  0
   58.1410   33.4370   44.0870 C   0  0  0  0  0  0  0  0  0  0  0  0
   58.8880   34.5140   44.5720 C   0  0  0  0  0  0  0  0  0  0  0  0
   59.3180   34.5280   45.9000 C   0  0  0  0  0  0  0  0  0  0  0  0
   59.0130   33.4560   46.7510 C   0  0  0  0  0  0  0  0  0  0  0  0
   59.5640   33.4650   48.4280 S   0  0  0  0  0  0  0  0  0  0  0  0
   58.5280   32.7970   49.2900 O   0  0  0  0  0  0  0  0  0  0  0  0
   59.7040   34.8880   48.8940 O   0  0  0  0  0  0  0  0  0  0  0  0
   61.0990   32.6460   48.6230 N   0  0  0  0  0  0  0  0  0  0  0  0
   62.1170   33.5520   49.1650 C   0  0  0  0  0  0  0  0  0  0  0  0
   62.9520   34.0820   48.0090 C   0  0  0  0  0  0  0  0  0  0  0  0
   62.6480   33.1750   46.8320 C   0  0  0  0  0  0  0  0  0  0  0  0
   61.6190   32.1730   47.3340 C   0  0  0  0  0  0  0  0  0  0  0  0
   58.2650   32.3770   46.2630 C   0  0  0  0  0  0  0  0  0  0  0  0
   57.5268   27.9393   43.7607 H   0  0  0  0  0  0  0  0  0  0  0  0
   59.1311   26.1860   44.5183 H   0  0  0  0  0  0  0  0  0  0  0  0
   60.1391   26.3100   46.7942 H   0  0  0  0  0  0  0  0  0  0  0  0
   61.4718   28.7682   49.5088 H   0  0  0  0  0  0  0  0  0  0  0  0
   60.8762   29.8406   48.2005 H   0  0  0  0  0  0  0  0  0  0  0  0
   58.0085   28.8998   49.9349 H   0  0  0  0  0  0  0  0  0  0  0  0
   56.8289   32.2058   53.0844 H   0  0  0  0  0  0  0  0  0  0  0  0
   57.9919   34.1561   54.1147 H   0  0  0  0  0  0  0  0  0  0  0  0
   60.3476   34.6739   53.4691 H   0  0  0  0  0  0  0  0  0  0  0  0
   61.5221   33.2303   51.8079 H   0  0  0  0  0  0  0  0  0  0  0  0
   61.4480   31.3420   50.3540 H   0  0  0  0  0  0  0  0  0  0  0  0
   57.9458   29.9634   47.5663 H   0  0  0  0  0  0  0  0  0  0  0  0
   57.8100   33.4295   43.0380 H   0  0  0  0  0  0  0  0  0  0  0  0
   59.1377   35.3528   43.9056 H   0  0  0  0  0  0  0  0  0  0  0  0
   59.8976   35.3822   46.2799 H   0  0  0  0  0  0  0  0  0  0  0  0
   61.6297   34.3894   49.6859 H   0  0  0  0  0  0  0  0  0  0  0  0
   62.7583   33.0158   49.8800 H   0  0  0  0  0  0  0  0  0  0  0  0
   62.6699   35.1194   47.7764 H   0  0  0  0  0  0  0  0  0  0  0  0
   64.0249   34.0855   48.2518 H   0  0  0  0  0  0  0  0  0  0  0  0
   62.2373   33.7587   45.9950 H   0  0  0  0  0  0  0  0  0  0  0  0
   63.5548   32.6731   46.4636 H   0  0  0  0  0  0  0  0  0  0  0  0
   60.7957   32.0917   46.6090 H   0  0  0  0  0  0  0  0  0  0  0  0
   62.0841   31.1836   47.4552 H   0  0  0  0  0  0  0  0  0  0  0  0
   58.0310   31.5320   46.9273 H   0  0  0  0  0  0  0  0  0  0  0  0
  1  2  2  0
  2  3  1  0
  3  4  1  0
  4  5  2  0
  5  6  1  0
  6  7  2  0
  7  8  1  0
  8  9  1  0
  9 10  1  0
 10 11  1  0
 11 12  2  0
 12 13  1  0
 13 14  2  0
 13 15  1  0
 15 16  1  0
 16 17  2  0
 17 18  1  0
 18 19  2  0
 19 20  1  0
 20 21  2  0
  8 22  2  0
  2 23  1  0
 23 24  2  0
 24 25  1  0
 25 26  2  0
 26 27  1  0
 27 28  1  0
 28 29  2  0
 28 30  2  0
 28 31  1  0
 31 32  1  0
 32 33  1  0
 33 34  1  0
 34 35  1  0
 27 36  2  0
 22  4  1  0
 36 23  1  0
 21 11  1  0
 35 31  1  0
 20 15  1  0
  5 37  1  0
  6 38  1  0
  7 39  1  0
 10 40  1  0
 10 41  1  0
 12 42  1  0
 16 43  1  0
 17 44  1  0
 18 45  1  0
 19 46  1  0
 21 47  1  0
 22 48  1  0
 24 49  1  0
 25 50  1  0
 26 51  1  0
 32 52  1  0
 32 53  1  0
 33 54  1  0
 33 55  1  0
 34 56  1  0
 34 57  1  0
 35 58  1  0
 35 59  1  0
 36 60  1  0
M  CHG  2   3  -1  21   1
M  END
>  <UniqueID>  (88) 
85

>  <SMILES>  (88) 
O=C([N-]c1cccc(OCc2cc(=O)n3ccccc3[nH+]2)c1)c1cccc(S(=O)(=O)N2CCCC2)c1

>  <Energy>  (88) 
76.29080317615079

>  <Genealogy>  (88) 
O=C([N-]c1cccc(OCc2cc(=O)n3ccccc3[nH+]2)c1)c1cccc(S(=O)(=O)N2CCCC2)c1 (protonated)
O=C([N-]c1cccc(OCc2cc(=O)n3ccccc3[nH+]2)c1)c1cccc(S(=O)(=O)N2CCCC2)c1 (3D coordinates assigned)
O=C([N-]c1cccc(OCc2cc(=O)n3ccccc3[nH+]2)c1)c1cccc(S(=O)(=O)N2CCCC2)c1 (nonaromatic ring conformer: 76.29080317615079 kcal/mol)

>  <smiles>  (88) 
O=C(Nc1cccc(OCc2cc(=O)n3ccccc3n2)c1)c1cccc(S(=O)(=O)N2CCCC2)c1

>  <score_type>  (88) 
oracle

>  <origin>  (88) 
adg

>  <m_score__min__energy>  (88) 
-10.359999999999999

>  <m_primary>  (88) 
energy

$$$$
88:0
     RDKit          3D

 70 74  0  0  0  0  0  0  0  0999 V2000
   63.2840   28.1380   52.0420 C   0  0  0  0  0  0  0  0  0  0  0  0
   62.4190   29.3310   51.7680 C   0  0  0  0  0  0  0  0  0  0  0  0
   62.9530   30.4720   51.7270 O   0  0  0  0  0  0  0  0  0  0  0  0
   61.0010   29.1960   51.5400 N   0  0  0  0  0  0  0  0  0  0  0  0
   60.1770   28.4750   52.5180 C   0  0  0  0  0  0  0  0  0  0  0  0
   59.0280   29.3780   52.9750 C   0  0  0  0  0  0  0  0  0  0  0  0
   58.3590   30.0300   51.8360 N   0  0  0  0  0  0  0  0  0  0  0  0
   57.1670   30.8210   52.0530 C   0  0  0  0  0  0  0  0  0  0  0  0
   56.0730   30.4600   51.5320 O   0  0  0  0  0  0  0  0  0  0  0  0
   57.1990   32.0530   52.9290 C   0  0  0  0  0  0  0  0  0  0  0  0
   57.8900   33.2470   52.2550 C   0  0  0  0  0  0  0  0  0  0  0  0
   59.3160   32.9100   51.9140 C   0  0  0  0  0  0  0  0  0  0  0  0
   59.9080   33.0430   50.6680 C   0  0  0  0  0  0  0  0  0  0  0  0
   61.2390   32.8060   50.8830 C   0  0  0  0  0  0  0  0  0  0  0  0
   61.4540   32.5280   52.1810 N   0  0  0  0  0  0  0  0  0  0  0  0
   60.2850   32.5860   52.8070 N   0  0  0  0  0  0  0  0  0  0  0  0
   60.1270   32.4280   54.2500 C   0  0  0  0  0  0  0  0  0  0  0  0
   62.2350   32.9910   49.8310 C   0  0  0  0  0  0  0  0  0  0  0  0
   63.5650   32.9290   50.0990 N   0  0  0  0  0  0  0  0  0  0  0  0
   64.4850   33.1400   49.1180 C   0  0  0  0  0  0  0  0  0  0  0  0
   65.7590   33.0860   49.3740 N   0  0  0  0  0  0  0  0  0  0  0  0
   66.3430   32.7060   50.6620 C   0  0  0  0  0  0  0  0  0  0  0  0
   66.2010   31.1870   50.8610 C   0  0  0  0  0  0  0  0  0  0  0  0
   67.2190   30.6480   51.8830 C   0  0  0  0  0  0  0  0  0  0  0  0
   67.6650   31.6770   52.7440 O   0  0  0  0  0  0  0  0  0  0  0  0
   68.4850   32.5890   52.0280 C   0  0  0  0  0  0  0  0  0  0  0  0
   67.8270   33.1070   50.7280 C   0  0  0  0  0  0  0  0  0  0  0  0
   64.0710   33.4060   47.8510 N   0  0  0  0  0  0  0  0  0  0  0  0
   62.7500   33.4730   47.5380 C   0  0  0  0  0  0  0  0  0  0  0  0
   61.7850   33.2830   48.5320 C   0  0  0  0  0  0  0  0  0  0  0  0
   60.2990   33.2530   48.1940 C   0  0  0  0  0  0  0  0  0  0  0  0
   59.3850   33.6300   49.3890 C   0  0  0  0  0  0  0  0  0  0  0  0
   58.8110   29.7350   50.4650 C   0  0  0  0  0  0  0  0  0  0  0  0
   60.3510   29.8160   50.3670 C   0  0  2  0  0  0  0  0  0  0  0  0
   60.8230   29.1370   49.0750 C   0  0  0  0  0  0  0  0  0  0  0  0
   63.3843   27.9996   53.1286 H   0  0  0  0  0  0  0  0  0  0  0  0
   62.8241   27.2422   51.5992 H   0  0  0  0  0  0  0  0  0  0  0  0
   64.2784   28.2966   51.5992 H   0  0  0  0  0  0  0  0  0  0  0  0
   59.7675   27.5656   52.0541 H   0  0  0  0  0  0  0  0  0  0  0  0
   60.7937   28.1959   53.3851 H   0  0  0  0  0  0  0  0  0  0  0  0
   58.2914   28.7690   53.5196 H   0  0  0  0  0  0  0  0  0  0  0  0
   59.4465   30.1636   53.6213 H   0  0  0  0  0  0  0  0  0  0  0  0
   56.1647   32.3376   53.1725 H   0  0  0  0  0  0  0  0  0  0  0  0
   57.7774   31.8024   53.8305 H   0  0  0  0  0  0  0  0  0  0  0  0
   57.3488   33.5044   51.3326 H   0  0  0  0  0  0  0  0  0  0  0  0
   57.8835   34.0993   52.9503 H   0  0  0  0  0  0  0  0  0  0  0  0
   62.3760   32.3500   52.6380 H   0  0  0  0  0  0  0  0  0  0  0  0
   60.8120   33.1130   54.7710 H   0  0  0  0  0  0  0  0  0  0  0  0
   59.0899   32.6611   54.5330 H   0  0  0  0  0  0  0  0  0  0  0  0
   60.3600   31.3909   54.5330 H   0  0  0  0  0  0  0  0  0  0  0  0
   65.8067   33.2353   51.4634 H   0  0  0  0  0  0  0  0  0  0  0  0
   65.1848   30.9682   51.2209 H   0  0  0  0  0  0  0  0  0  0  0  0
   66.3920   30.6957   49.8955 H   0  0  0  0  0  0  0  0  0  0  0  0
   66.7431   29.8581   52.4826 H   0  0  0  0  0  0  0  0  0  0  0  0
   68.0857   30.2474   51.3368 H   0  0  0  0  0  0  0  0  0  0  0  0
   68.7008   33.4499   52.6779 H   0  0  0  0  0  0  0  0  0  0  0  0
   69.3996   32.0501   51.7397 H   0  0  0  0  0  0  0  0  0  0  0  0
   67.9047   34.2038   50.6981 H   0  0  0  0  0  0  0  0  0  0  0  0
   68.3489   32.6595   49.8693 H   0  0  0  0  0  0  0  0  0  0  0  0
   62.4400   33.6767   46.5024 H   0  0  0  0  0  0  0  0  0  0  0  0
   60.1136   33.9645   47.3758 H   0  0  0  0  0  0  0  0  0  0  0  0
   60.0522   32.2189   47.9116 H   0  0  0  0  0  0  0  0  0  0  0  0
   59.3488   34.7253   49.4835 H   0  0  0  0  0  0  0  0  0  0  0  0
   58.3783   33.2276   49.2028 H   0  0  0  0  0  0  0  0  0  0  0  0
   58.4845   28.7219   50.1875 H   0  0  0  0  0  0  0  0  0  0  0  0
   58.3741   30.4780   49.7816 H   0  0  0  0  0  0  0  0  0  0  0  0
   60.6399   30.8773   50.3495 H   0  0  0  0  0  0  0  0  0  0  0  0
   61.4344   28.2575   49.3253 H   0  0  0  0  0  0  0  0  0  0  0  0
   59.9491   28.8207   48.4866 H   0  0  0  0  0  0  0  0  0  0  0  0
   61.4240   29.8460   48.4866 H   0  0  0  0  0  0  0  0  0  0  0  0
  1  2  1  0
  2  3  2  0
  2  4  1  0
  4  5  1  0
  5  6  1  0
  6  7  1  0
  7  8  1  0
  8  9  2  0
  8 10  1  0
 10 11  1  0
 11 12  1  0
 12 13  2  0
 13 14  1  0
 14 15  2  0
 15 16  1  0
 16 17  1  0
 14 18  1  0
 18 19  2  0
 19 20  1  0
 20 21  2  3
 21 22  1  0
 22 23  1  0
 23 24  1  0
 24 25  1  0
 25 26  1  0
 26 27  1  0
 20 28  1  0
 28 29  1  0
 29 30  2  0
 30 31  1  0
 31 32  1  0
  7 33  1  0
 33 34  1  0
 34 35  1  0
 34  4  1  0
 16 12  1  0
 30 18  1  0
 32 13  1  0
 27 22  1  0
  1 36  1  0
  1 37  1  0
  1 38  1  0
  5 39  1  0
  5 40  1  0
  6 41  1  0
  6 42  1  0
 10 43  1  0
 10 44  1  0
 11 45  1  0
 11 46  1  0
 15 47  1  0
 17 48  1  0
 17 49  1  0
 17 50  1  0
 22 51  1  0
 23 52  1  0
 23 53  1  0
 24 54  1  0
 24 55  1  0
 26 56  1  0
 26 57  1  0
 27 58  1  0
 27 59  1  0
 29 60  1  0
 31 61  1  0
 31 62  1  0
 32 63  1  0
 32 64  1  0
 33 65  1  0
 33 66  1  0
 34 67  1  6
 35 68  1  0
 35 69  1  0
 35 70  1  0
M  CHG  2  15   1  28  -1
M  END
>  <UniqueID>  (89) 
86

>  <SMILES>  (89) 
CC(=O)N1CCN(C(=O)CCc2c3c([nH+]n2C)-c2nc(=NC4CCOCC4)[n-]cc2CC3)C[C@@H]1C

>  <Energy>  (89) 
112.41649749322274

>  <Genealogy>  (89) 
CC(=O)N1CCN(C(=O)CCc2c3c([nH+]n2C)-c2nc(=NC4CCOCC4)[n-]cc2CC3)CC1C (protonated)
CC(=O)N1CCN(C(=O)CCc2c3c([nH+]n2C)-c2nc(=NC4CCOCC4)[n-]cc2CC3)C[C@@H]1C (chirality)
CC(=O)N1CCN(C(=O)CCc2c3c([nH+]n2C)-c2nc(=NC4CCOCC4)[n-]cc2CC3)C[C@@H]1C (3D coordinates assigned)
CC(=O)N1CCN(C(=O)CCc2c3c([nH+]n2C)-c2nc(=NC4CCOCC4)[n-]cc2CC3)C[C@@H]1C (nonaromatic ring conformer: 112.41649749322274 kcal/mol)

>  <smiles>  (89) 
CC(=O)N1CCN(C(=O)CCc2c3c(nn2C)-c2nc(=NC4CCOCC4)[nH]cc2CC3)CC1C

>  <score_type>  (89) 
oracle

>  <origin>  (89) 
adg

>  <m_score__min__energy>  (89) 
-10.51

>  <m_primary>  (89) 
energy

$$$$
89:0
     RDKit          3D

 60 63  0  0  0  0  0  0  0  0999 V2000
   64.8880   32.9700   49.4240 C   0  0  0  0  0  0  0  0  0  0  0  0
   63.6390   33.4030   48.7120 C   0  0  0  0  0  0  0  0  0  0  0  0
   62.6580   34.1360   49.3940 C   0  0  0  0  0  0  0  0  0  0  0  0
   61.4710   34.4980   48.7510 C   0  0  0  0  0  0  0  0  0  0  0  0
   61.2420   34.1300   47.4120 C   0  0  0  0  0  0  0  0  0  0  0  0
   59.9760   34.4930   46.7270 C   0  0  0  0  0  0  0  0  0  0  0  0
   59.6310   35.7030   46.6520 O   0  0  0  0  0  0  0  0  0  0  0  0
   59.1250   33.4820   46.0700 C   0  0  0  0  0  0  0  0  0  0  0  0
   58.8130   33.4690   44.4160 S   0  0  0  0  0  0  0  0  0  0  0  0
   57.9420   32.0270   44.4820 C   0  0  0  0  0  0  0  0  0  0  0  0
   57.3410   31.3590   43.3500 N   0  0  0  0  0  0  0  0  0  0  0  0
   57.3910   31.9810   42.0220 C   0  0  0  0  0  0  0  0  0  0  0  0
   56.6380   30.1090   43.5370 C   0  0  0  0  0  0  0  0  0  0  0  0
   55.3850   30.1080   43.7150 O   0  0  0  0  0  0  0  0  0  0  0  0
   57.3490   28.7840   43.4590 C   0  0  0  0  0  0  0  0  0  0  0  0
   58.2680   28.6220   44.6390 C   0  0  0  0  0  0  0  0  0  0  0  0
   59.6260   28.9670   44.5350 C   0  0  0  0  0  0  0  0  0  0  0  0
   60.4790   28.7940   45.6350 C   0  0  0  0  0  0  0  0  0  0  0  0
   59.9850   28.2810   46.8390 C   0  0  0  0  0  0  0  0  0  0  0  0
   58.6380   27.9320   46.9430 C   0  0  0  0  0  0  0  0  0  0  0  0
   57.7820   28.0930   45.8480 C   0  0  0  0  0  0  0  0  0  0  0  0
   57.8630   31.5630   45.7490 N   0  0  0  0  0  0  0  0  0  0  0  0
   58.5140   32.3560   46.6430 C   0  0  0  0  0  0  0  0  0  0  0  0
   58.4960   32.0320   48.0840 C   0  0  0  0  0  0  0  0  0  0  0  0
   57.7620   32.6870   48.8730 O   0  0  0  0  0  0  0  0  0  0  0  0
   59.2940   30.9480   48.5840 N   0  0  0  0  0  0  0  0  0  0  0  0
   59.2740   30.5450   49.9880 C   0  0  0  0  0  0  0  0  0  0  0  0
   59.1250   31.7500   50.8750 C   0  0  0  0  0  0  0  0  0  0  0  0
   60.1700   32.6830   50.9970 C   0  0  0  0  0  0  0  0  0  0  0  0
   60.0290   33.7960   51.8300 C   0  0  0  0  0  0  0  0  0  0  0  0
   58.8390   33.9920   52.5390 C   0  0  0  0  0  0  0  0  0  0  0  0
   57.7880   33.0750   52.4160 C   0  0  0  0  0  0  0  0  0  0  0  0
   57.9310   31.9550   51.5900 C   0  0  0  0  0  0  0  0  0  0  0  0
   62.2190   33.3710   46.7410 C   0  0  0  0  0  0  0  0  0  0  0  0
   63.4060   33.0110   47.3860 C   0  0  0  0  0  0  0  0  0  0  0  0
   64.7284   33.0253   50.5109 H   0  0  0  0  0  0  0  0  0  0  0  0
   65.1312   31.9351   49.1413 H   0  0  0  0  0  0  0  0  0  0  0  0
   65.7195   33.6323   49.1413 H   0  0  0  0  0  0  0  0  0  0  0  0
   62.8233   34.4281   50.4415 H   0  0  0  0  0  0  0  0  0  0  0  0
   60.7095   35.0753   49.2959 H   0  0  0  0  0  0  0  0  0  0  0  0
   57.4787   33.0720   42.1312 H   0  0  0  0  0  0  0  0  0  0  0  0
   58.2611   31.5967   41.4696 H   0  0  0  0  0  0  0  0  0  0  0  0
   56.4706   31.7406   41.4696 H   0  0  0  0  0  0  0  0  0  0  0  0
   56.6070   27.9719   43.4612 H   0  0  0  0  0  0  0  0  0  0  0  0
   57.9412   28.7464   42.5328 H   0  0  0  0  0  0  0  0  0  0  0  0
   60.0201   29.3725   43.5915 H   0  0  0  0  0  0  0  0  0  0  0  0
   61.5422   29.0632   45.5504 H   0  0  0  0  0  0  0  0  0  0  0  0
   60.6563   28.1531   47.7010 H   0  0  0  0  0  0  0  0  0  0  0  0
   58.2477   27.5289   47.8891 H   0  0  0  0  0  0  0  0  0  0  0  0
   56.7239   27.8045   45.9332 H   0  0  0  0  0  0  0  0  0  0  0  0
   59.9290   30.4300   47.9360 H   0  0  0  0  0  0  0  0  0  0  0  0
   58.4280   29.8628   50.1576 H   0  0  0  0  0  0  0  0  0  0  0  0
   60.2205   30.0388   50.2284 H   0  0  0  0  0  0  0  0  0  0  0  0
   61.1033   32.5359   50.4337 H   0  0  0  0  0  0  0  0  0  0  0  0
   60.8533   34.5177   51.9282 H   0  0  0  0  0  0  0  0  0  0  0  0
   58.7287   34.8684   53.1945 H   0  0  0  0  0  0  0  0  0  0  0  0
   56.8504   33.2352   52.9685 H   0  0  0  0  0  0  0  0  0  0  0  0
   57.1069   31.2321   51.4993 H   0  0  0  0  0  0  0  0  0  0  0  0
   62.0472   33.0584   45.7004 H   0  0  0  0  0  0  0  0  0  0  0  0
   64.1612   32.4170   46.8504 H   0  0  0  0  0  0  0  0  0  0  0  0
  1  2  1  0
  2  3  2  0
  3  4  1  0
  4  5  2  0
  5  6  1  0
  6  7  2  0
  6  8  1  0
  8  9  1  0
  9 10  1  0
 10 11  1  0
 11 12  1  0
 11 13  1  0
 13 14  2  0
 13 15  1  0
 15 16  1  0
 16 17  2  0
 17 18  1  0
 18 19  2  0
 19 20  1  0
 20 21  2  0
 10 22  2  0
 22 23  1  0
 23 24  1  0
 24 25  2  0
 24 26  1  0
 26 27  1  0
 27 28  1  0
 28 29  2  0
 29 30  1  0
 30 31  2  0
 31 32  1  0
 32 33  2  0
  5 34  1  0
 34 35  2  0
 35  2  1  0
 23  8  2  0
 33 28  1  0
 21 16  1  0
  1 36  1  0
  1 37  1  0
  1 38  1  0
  3 39  1  0
  4 40  1  0
 12 41  1  0
 12 42  1  0
 12 43  1  0
 15 44  1  0
 15 45  1  0
 17 46  1  0
 18 47  1  0
 19 48  1  0
 20 49  1  0
 21 50  1  0
 26 51  1  0
 27 52  1  0
 27 53  1  0
 29 54  1  0
 30 55  1  0
 31 56  1  0
 32 57  1  0
 33 58  1  0
 34 59  1  0
 35 60  1  0
M  END
>  <UniqueID>  (90) 
87

>  <SMILES>  (90) 
Cc1ccc(C(=O)c2sc(N(C)C(=O)Cc3ccccc3)nc2C(=O)NCc2ccccc2)cc1

>  <Energy>  (90) 
100.07667332499175

>  <Genealogy>  (90) 
Cc1ccc(C(=O)c2sc(N(C)C(=O)Cc3ccccc3)nc2C(=O)NCc2ccccc2)cc1 (3D coordinates assigned)
Cc1ccc(C(=O)c2sc(N(C)C(=O)Cc3ccccc3)nc2C(=O)NCc2ccccc2)cc1 (optimized conformer: 100.07667332499175 kcal/mol)

>  <smiles>  (90) 
Cc1ccc(C(=O)c2sc(N(C)C(=O)Cc3ccccc3)nc2C(=O)NCc2ccccc2)cc1

>  <score_type>  (90) 
oracle

>  <origin>  (90) 
adg

>  <m_score__min__energy>  (90) 
-10.01

>  <m_primary>  (90) 
energy

$$$$
90:0
     RDKit          3D

 46 49  0  0  0  0  0  0  0  0999 V2000
   61.1069   28.9389   47.6239 H   0  0  0  0  0  0  0  0  0  0  0  0
   60.5860   28.6410   46.7020 C   0  0  0  0  0  0  0  0  0  0  0  0
   61.0300   29.0870   45.4970 N   0  0  0  0  0  0  0  0  0  0  0  0
   60.3960   28.7380   44.3480 C   0  0  0  0  0  0  0  0  0  0  0  0
   60.7667   29.1069   43.3803 H   0  0  0  0  0  0  0  0  0  0  0  0
   59.2740   27.9110   44.3970 C   0  0  0  0  0  0  0  0  0  0  0  0
   58.7353   27.6401   43.4770 H   0  0  0  0  0  0  0  0  0  0  0  0
   58.8480   27.4330   45.6420 C   0  0  0  0  0  0  0  0  0  0  0  0
   57.6590   26.5670   45.7500 C   0  0  0  0  0  0  0  0  0  0  0  0
   57.8830   25.2220   46.0820 C   0  0  0  0  0  0  0  0  0  0  0  0
   58.9114   24.8332   46.1167 H   0  0  0  0  0  0  0  0  0  0  0  0
   56.8150   24.3750   46.3680 C   0  0  0  0  0  0  0  0  0  0  0  0
   56.9943   23.3196   46.6210 H   0  0  0  0  0  0  0  0  0  0  0  0
   55.5190   24.8790   46.3300 C   0  0  0  0  0  0  0  0  0  0  0  0
   54.6690   24.2302   46.5878 H   0  0  0  0  0  0  0  0  0  0  0  0
   55.3030   26.1710   45.9750 N   0  0  0  0  0  0  0  0  0  0  0  0
   56.3100   27.0300   45.6550 C   0  0  0  0  0  0  0  0  0  0  0  0
   55.9630   28.2240   45.2470 N   0  0  0  0  0  0  0  0  0  0  0  0
   56.7790   29.3930   45.0970 C   0  0  0  0  0  0  0  0  0  0  0  0
   57.5110   29.8440   46.2020 C   0  0  0  0  0  0  0  0  0  0  0  0
   57.4135   29.3242   47.1666 H   0  0  0  0  0  0  0  0  0  0  0  0
   58.3670   30.9500   46.0950 C   0  0  0  0  0  0  0  0  0  0  0  0
   59.1960   31.3850   47.2470 C   0  0  0  0  0  0  0  0  0  0  0  0
   58.6600   31.5190   48.3810 O   0  0  0  0  0  0  0  0  0  0  0  0
   60.6060   31.6150   47.0970 N   0  0  0  0  0  0  0  0  0  0  0  0
   61.1180   31.0700   46.3670 H   0  0  0  0  0  0  0  0  0  0  0  0
   61.3780   32.4470   47.9800 C   0  0  0  0  0  0  0  0  0  0  0  0
   60.7770   33.4620   48.7420 C   0  0  0  0  0  0  0  0  0  0  0  0
   59.6907   33.6263   48.6867 H   0  0  0  0  0  0  0  0  0  0  0  0
   61.5680   34.2620   49.5710 C   0  0  0  0  0  0  0  0  0  0  0  0
   61.1024   35.0527   50.1777 H   0  0  0  0  0  0  0  0  0  0  0  0
   62.9110   34.0650   49.6290 N   0  0  0  0  0  0  0  0  0  0  0  0
   63.5240   33.1030   48.8890 C   0  0  0  0  0  0  0  0  0  0  0  0
   64.7710   32.9540   48.9640 O   0  0  0  0  0  0  0  0  0  0  0  0
   62.7680   32.2810   48.0460 C   0  0  0  0  0  0  0  0  0  0  0  0
   63.2621   31.5086   47.4383 H   0  0  0  0  0  0  0  0  0  0  0  0
   58.4670   31.6130   44.8610 C   0  0  0  0  0  0  0  0  0  0  0  0
   59.1602   32.4606   44.7554 H   0  0  0  0  0  0  0  0  0  0  0  0
   57.6980   31.2110   43.7650 C   0  0  0  0  0  0  0  0  0  0  0  0
   57.9080   32.1770   42.1200 Br  0  0  0  0  0  0  0  0  0  0  0  0
   56.8130   30.1190   43.8820 C   0  0  0  0  0  0  0  0  0  0  0  0
   55.9480   29.7180   42.7120 C   0  0  0  0  0  0  0  0  0  0  0  0
   55.0085   29.2824   43.0829 H   0  0  0  0  0  0  0  0  0  0  0  0
   55.7248   30.6045   42.1002 H   0  0  0  0  0  0  0  0  0  0  0  0
   56.4803   28.9748   42.1002 H   0  0  0  0  0  0  0  0  0  0  0  0
   59.5000   27.8280   46.7690 N   0  0  0  0  0  0  0  0  0  0  0  0
  1  2  1  0
  2  3  2  0
  3  4  1  0
  4  5  1  0
  4  6  2  0
  6  7  1  0
  6  8  1  0
  8  9  1  0
  9 10  2  0
 10 11  1  0
 10 12  1  0
 12 13  1  0
 12 14  2  0
 14 15  1  0
 14 16  1  0
 16 17  1  0
 17 18  2  0
 18 19  1  0
 19 20  2  0
 20 21  1  0
 20 22  1  0
 22 23  1  0
 23 24  2  0
 23 25  1  0
 25 26  1  0
 25 27  1  0
 27 28  1  0
 28 29  1  0
 28 30  2  0
 30 31  1  0
 30 32  1  0
 32 33  1  0
 33 34  2  0
 33 35  1  0
 35 36  1  0
 22 37  2  0
 37 38  1  0
 37 39  1  0
 39 40  1  0
 39 41  2  0
 41 42  1  0
 42 43  1  0
 42 44  1  0
 42 45  1  0
  8 46  2  0
 46  2  1  0
 17  9  1  0
 41 19  1  0
 35 27  2  0
M  CHG  2  16  -1  32  -1
M  END
>  <UniqueID>  (91) 
88

>  <SMILES>  (91) 
Cc1c(Br)cc(C(=O)Nc2cc[n-]c(=O)c2)cc1/N=c1/[n-]cccc1-c1ccncn1

>  <Energy>  (91) 
81.03007177488168

>  <Genealogy>  (91) 
Cc1c(Br)cc(C(=O)Nc2cc[n-]c(=O)c2)cc1N=c1[n-]cccc1-c1ccncn1 (protonated)
Cc1c(Br)cc(C(=O)Nc2cc[n-]c(=O)c2)cc1/N=c1/[n-]cccc1-c1ccncn1 (cis-trans isomerization)
Cc1c(Br)cc(C(=O)Nc2cc[n-]c(=O)c2)cc1/N=c1/[n-]cccc1-c1ccncn1 (3D coordinates assigned)
Cc1c(Br)cc(C(=O)Nc2cc[n-]c(=O)c2)cc1/N=c1/[n-]cccc1-c1ccncn1 (optimized conformer: 81.03007177488168 kcal/mol)

>  <smiles>  (91) 
Cc1c(Br)cc(C(=O)Nc2cc[nH]c(=O)c2)cc1N=c1[nH]cccc1-c1ccncn1

>  <score_type>  (91) 
oracle

>  <origin>  (91) 
adg

>  <m_score__min__energy>  (91) 
-11.94

>  <m_primary>  (91) 
energy

$$$$
