0:0
     RDKit          3D

 29 30  0  0  0  0  0  0  0  0999 V2000
   60.5620   30.7830   46.3960 C   0  0  0  0  0  0  0  0  0  0  0  0
   59.5890   29.6790   46.4340 N   0  0  0  0  0  0  0  0  0  0  0  0
   58.7480   29.4720   45.3630 C   0  0  0  0  0  0  0  0  0  0  0  0
   58.7810   30.3540   44.2290 N   0  0  0  0  0  0  0  0  0  0  0  0
   57.5430   31.5360   43.9530 S   0  0  0  0  0  0  0  0  0  0  0  0
   57.9740   33.0800   44.7310 C   0  0  0  0  0  0  0  0  0  0  0  0
   56.2560   31.0460   44.5520 O   0  0  0  0  0  0  0  0  0  0  0  0
   57.3550   31.7430   42.4770 O   0  0  0  0  0  0  0  0  0  0  0  0
   57.8230   28.4150   45.3840 C   0  0  0  0  0  0  0  0  0  0  0  0
   56.9450   28.2740   44.3590 F   0  0  0  0  0  0  0  0  0  0  0  0
   57.7540   27.5640   46.4980 C   0  0  0  0  0  0  0  0  0  0  0  0
   56.8030   26.4260   46.5440 C   0  0  0  0  0  0  0  0  0  0  0  0
   57.0040   25.1870   47.1200 C   0  0  0  0  0  0  0  0  0  0  0  0
   55.9110   24.4270   46.9270 N   0  0  0  0  0  0  0  0  0  0  0  0
   55.0230   25.1310   46.2420 N   0  0  0  0  0  0  0  0  0  0  0  0
   55.5380   26.3500   45.9950 C   0  0  0  0  0  0  0  0  0  0  0  0
   58.5960   27.8150   47.5860 C   0  0  0  0  0  0  0  0  0  0  0  0
   59.5000   28.8770   47.5450 C   0  0  0  0  0  0  0  0  0  0  0  0
   60.2350   29.0820   48.5510 O   0  0  0  0  0  0  0  0  0  0  0  0
   60.8221   31.0781   47.4233 H   0  0  0  0  0  0  0  0  0  0  0  0
   61.4693   30.4541   45.8682 H   0  0  0  0  0  0  0  0  0  0  0  0
   60.1217   31.6418   45.8682 H   0  0  0  0  0  0  0  0  0  0  0  0
   59.4310   30.1470   43.4380 H   0  0  0  0  0  0  0  0  0  0  0  0
   57.9409   32.9616   45.8241 H   0  0  0  0  0  0  0  0  0  0  0  0
   58.9886   33.3743   44.4246 H   0  0  0  0  0  0  0  0  0  0  0  0
   57.2585   33.8573   44.4246 H   0  0  0  0  0  0  0  0  0  0  0  0
   57.9136   24.8717   47.6522 H   0  0  0  0  0  0  0  0  0  0  0  0
   55.0322   27.1566   45.4440 H   0  0  0  0  0  0  0  0  0  0  0  0
   58.5454   27.1727   48.4776 H   0  0  0  0  0  0  0  0  0  0  0  0
  1  2  1  0
  2  3  1  0
  3  4  1  0
  4  5  1  0
  5  6  1  0
  5  7  2  0
  5  8  2  0
  3  9  2  0
  9 10  1  0
  9 11  1  0
 11 12  1  0
 12 13  1  0
 13 14  2  0
 14 15  1  0
 15 16  1  0
 11 17  2  0
 17 18  1  0
 18 19  2  0
 18  2  1  0
 16 12  2  0
  1 20  1  0
  1 21  1  0
  1 22  1  0
  4 23  1  0
  6 24  1  0
  6 25  1  0
  6 26  1  0
 13 27  1  0
 16 28  1  0
 17 29  1  0
M  CHG  1  15  -1
M  END
>  <UniqueID>  (1) 
1

>  <SMILES>  (1) 
Cn1c(NS(C)(=O)=O)c(F)c(-c2cn[n-]c2)cc1=O

>  <Energy>  (1) 
68.30511166683824

>  <Genealogy>  (1) 
Cn1c(NS(C)(=O)=O)c(F)c(-c2cn[n-]c2)cc1=O (protonated)
Cn1c(NS(C)(=O)=O)c(F)c(-c2cn[n-]c2)cc1=O (3D coordinates assigned)
Cn1c(NS(C)(=O)=O)c(F)c(-c2cn[n-]c2)cc1=O (optimized conformer: 68.30511166683824 kcal/mol)

>  <smiles>  (1) 
Cn1c(NS(C)(=O)=O)c(F)c(-c2cn[nH]c2)cc1=O

>  <score_type>  (1) 
oracle

>  <origin>  (1) 
adg

>  <m_score__min__energy>  (1) 
-8.4600000000000009

>  <m_primary>  (1) 
energy

$$$$
1:0
     RDKit          3D

 57 60  0  0  0  0  0  0  0  0999 V2000
   58.0160   32.2260   51.7250 C   0  0  0  0  0  0  0  0  0  0  0  0
   58.1780   31.4040   50.5700 O   0  0  0  0  0  0  0  0  0  0  0  0
   59.0920   30.3420   50.4620 C   0  0  0  0  0  0  0  0  0  0  0  0
   59.1560   29.3390   51.4500 C   0  0  0  0  0  0  0  0  0  0  0  0
   60.0190   28.2530   51.3060 C   0  0  0  0  0  0  0  0  0  0  0  0
   60.8280   28.1530   50.1770 C   0  0  0  0  0  0  0  0  0  0  0  0
   60.7940   29.1450   49.1980 C   0  0  0  0  0  0  0  0  0  0  0  0
   59.9470   30.2600   49.3340 C   0  0  0  0  0  0  0  0  0  0  0  0
   59.9780   31.3080   48.2860 C   0  0  0  0  0  0  0  0  0  0  0  0
   61.0530   31.5160   47.6550 O   0  0  0  0  0  0  0  0  0  0  0  0
   58.8240   32.1190   48.0030 N   0  0  0  0  0  0  0  0  0  0  0  0
   58.8050   33.0950   46.9580 C   0  0  0  0  0  0  0  0  0  0  0  0
   59.5590   34.2720   47.1050 C   0  0  0  0  0  0  0  0  0  0  0  0
   59.6130   35.2150   46.0750 C   0  0  0  0  0  0  0  0  0  0  0  0
   58.9220   34.9770   44.8810 C   0  0  0  0  0  0  0  0  0  0  0  0
   58.1920   33.7950   44.7110 C   0  0  0  0  0  0  0  0  0  0  0  0
   58.1330   32.8400   45.7440 C   0  0  0  0  0  0  0  0  0  0  0  0
   57.3440   31.6490   45.5890 N   0  0  0  0  0  0  0  0  0  0  0  0
   57.6590   30.5940   44.6770 C   0  0  0  0  0  0  0  0  0  0  0  0
   57.7910   30.8550   43.4430 O   0  0  0  0  0  0  0  0  0  0  0  0
   57.8840   29.2180   45.1750 C   0  0  0  0  0  0  0  0  0  0  0  0
   58.1450   28.9870   46.5350 C   0  0  0  0  0  0  0  0  0  0  0  0
   58.3070   27.6880   47.0150 C   0  0  0  0  0  0  0  0  0  0  0  0
   58.2020   26.5880   46.1540 C   0  0  0  0  0  0  0  0  0  0  0  0
   58.3190   25.2680   46.7020 N   0  0  0  0  0  0  0  0  0  0  0  0
   57.0530   24.0830   46.7280 S   0  0  0  0  0  0  0  0  0  0  0  0
   55.7480   24.7820   46.9810 O   0  0  0  0  0  0  0  0  0  0  0  0
   57.3110   23.1080   47.8470 O   0  0  0  0  0  0  0  0  0  0  0  0
   56.9330   23.2410   45.1840 C   0  0  0  0  0  0  0  0  0  0  0  0
   57.7630   22.1400   44.9130 C   0  0  0  0  0  0  0  0  0  0  0  0
   57.6680   21.4700   43.6840 C   0  0  0  0  0  0  0  0  0  0  0  0
   56.7480   21.9000   42.7250 C   0  0  0  0  0  0  0  0  0  0  0  0
   55.9180   22.9950   42.9900 C   0  0  0  0  0  0  0  0  0  0  0  0
   56.0100   23.6600   44.2180 C   0  0  0  0  0  0  0  0  0  0  0  0
   57.9810   26.8170   44.7860 C   0  0  0  0  0  0  0  0  0  0  0  0
   57.8130   28.1170   44.3010 C   0  0  0  0  0  0  0  0  0  0  0  0
   58.1367   31.6136   52.6307 H   0  0  0  0  0  0  0  0  0  0  0  0
   58.7744   33.0227   51.7173 H   0  0  0  0  0  0  0  0  0  0  0  0
   57.0120   32.6754   51.7173 H   0  0  0  0  0  0  0  0  0  0  0  0
   58.5189   29.4135   52.3436 H   0  0  0  0  0  0  0  0  0  0  0  0
   60.0606   27.4761   52.0836 H   0  0  0  0  0  0  0  0  0  0  0  0
   61.4966   27.2878   50.0571 H   0  0  0  0  0  0  0  0  0  0  0  0
   61.4364   29.0549   48.3096 H   0  0  0  0  0  0  0  0  0  0  0  0
   57.9270   31.9490   48.5070 H   0  0  0  0  0  0  0  0  0  0  0  0
   60.1114   34.4525   48.0389 H   0  0  0  0  0  0  0  0  0  0  0  0
   60.1955   36.1395   46.2018 H   0  0  0  0  0  0  0  0  0  0  0  0
   58.9529   35.7224   44.0727 H   0  0  0  0  0  0  0  0  0  0  0  0
   57.6614   33.6111   43.7651 H   0  0  0  0  0  0  0  0  0  0  0  0
   58.2223   29.8380   47.2277 H   0  0  0  0  0  0  0  0  0  0  0  0
   58.5197   27.5251   48.0819 H   0  0  0  0  0  0  0  0  0  0  0  0
   58.4895   21.8024   45.6668 H   0  0  0  0  0  0  0  0  0  0  0  0
   58.3174   20.6069   43.4759 H   0  0  0  0  0  0  0  0  0  0  0  0
   56.6758   21.3771   41.7599 H   0  0  0  0  0  0  0  0  0  0  0  0
   55.1940   23.3327   42.2339 H   0  0  0  0  0  0  0  0  0  0  0  0
   55.3529   24.5174   44.4257 H   0  0  0  0  0  0  0  0  0  0  0  0
   57.9398   25.9659   44.0903 H   0  0  0  0  0  0  0  0  0  0  0  0
   57.6241   28.2807   43.2298 H   0  0  0  0  0  0  0  0  0  0  0  0
  1  2  1  0
  2  3  1  0
  3  4  2  0
  4  5  1  0
  5  6  2  0
  6  7  1  0
  7  8  2  0
  8  9  1  0
  9 10  2  0
  9 11  1  0
 11 12  1  0
 12 13  2  0
 13 14  1  0
 14 15  2  0
 15 16  1  0
 16 17  2  0
 17 18  1  0
 18 19  1  0
 19 20  2  0
 19 21  1  0
 21 22  2  0
 22 23  1  0
 23 24  2  0
 24 25  1  0
 25 26  1  0
 26 27  2  0
 26 28  2  0
 26 29  1  0
 29 30  2  0
 30 31  1  0
 31 32  2  0
 32 33  1  0
 33 34  2  0
 24 35  1  0
 35 36  2  0
  8  3  1  0
 17 12  1  0
 36 21  1  0
 34 29  1  0
  1 37  1  0
  1 38  1  0
  1 39  1  0
  4 40  1  0
  5 41  1  0
  6 42  1  0
  7 43  1  0
 11 44  1  0
 13 45  1  0
 14 46  1  0
 15 47  1  0
 16 48  1  0
 22 49  1  0
 23 50  1  0
 30 51  1  0
 31 52  1  0
 32 53  1  0
 33 54  1  0
 34 55  1  0
 35 56  1  0
 36 57  1  0
M  CHG  2  18  -1  25  -1
M  END
>  <UniqueID>  (2) 
2

>  <SMILES>  (2) 
COc1ccccc1C(=O)Nc1ccccc1[N-]C(=O)c1ccc([N-]S(=O)(=O)c2ccccc2)cc1

>  <Energy>  (2) 
82.410822065135

>  <Genealogy>  (2) 
COc1ccccc1C(=O)Nc1ccccc1[N-]C(=O)c1ccc([N-]S(=O)(=O)c2ccccc2)cc1 (protonated)
COc1ccccc1C(=O)Nc1ccccc1[N-]C(=O)c1ccc([N-]S(=O)(=O)c2ccccc2)cc1 (3D coordinates assigned)
COc1ccccc1C(=O)Nc1ccccc1[N-]C(=O)c1ccc([N-]S(=O)(=O)c2ccccc2)cc1 (optimized conformer: 82.410822065135 kcal/mol)

>  <smiles>  (2) 
COc1ccccc1C(=O)Nc1ccccc1NC(=O)c1ccc(NS(=O)(=O)c2ccccc2)cc1

>  <score_type>  (2) 
oracle

>  <origin>  (2) 
adg

>  <m_score__min__energy>  (2) 
-12.109999999999999

>  <m_primary>  (2) 
energy

$$$$
2:0
     RDKit          3D

 58 62  0  0  0  0  0  0  0  0999 V2000
   56.7569   30.5595   52.6532 H   0  0  0  0  0  0  0  0  0  0  0  0
   57.7370   30.7510   52.1920 C   0  0  0  0  0  0  0  0  0  0  0  0
   58.1280   32.0600   51.9090 C   0  0  0  0  0  0  0  0  0  0  0  0
   57.4597   32.8984   52.1549 H   0  0  0  0  0  0  0  0  0  0  0  0
   59.3730   32.3080   51.3110 C   0  0  0  0  0  0  0  0  0  0  0  0
   59.7720   33.6410   50.9650 N   0  0  0  0  0  0  0  0  0  0  0  0
   60.0230   34.0900   49.6330 C   0  0  0  0  0  0  0  0  0  0  0  0
   59.2940   34.9810   49.1200 O   0  0  0  0  0  0  0  0  0  0  0  0
   61.1680   33.5470   48.8750 C   0  0  0  0  0  0  0  0  0  0  0  0
   62.3780   33.3030   49.5500 C   0  0  0  0  0  0  0  0  0  0  0  0
   62.4719   33.5664   50.6139 H   0  0  0  0  0  0  0  0  0  0  0  0
   63.4630   32.7280   48.8790 C   0  0  0  0  0  0  0  0  0  0  0  0
   64.9670   32.4260   49.7380 Cl  0  0  0  0  0  0  0  0  0  0  0  0
   63.3480   32.3950   47.5270 C   0  0  0  0  0  0  0  0  0  0  0  0
   64.1943   31.9263   47.0034 H   0  0  0  0  0  0  0  0  0  0  0  0
   62.1600   32.6560   46.8380 C   0  0  0  0  0  0  0  0  0  0  0  0
   62.0814   32.3999   45.7711 H   0  0  0  0  0  0  0  0  0  0  0  0
   61.0660   33.2420   47.4950 C   0  0  0  0  0  0  0  0  0  0  0  0
   59.9030   33.6260   46.7370 N   0  0  0  0  0  0  0  0  0  0  0  0
   58.6110   33.0210   47.0780 C   0  0  0  0  0  0  0  0  0  0  0  0
   58.7612   31.9628   47.3379 H   0  0  0  0  0  0  0  0  0  0  0  0
   58.1755   33.5564   47.9345 H   0  0  0  0  0  0  0  0  0  0  0  0
   57.6570   33.1200   45.8840 C   0  0  0  0  0  0  0  0  0  0  0  0
   58.0194   32.4649   45.0780 H   0  0  0  0  0  0  0  0  0  0  0  0
   56.6531   32.8092   46.2091 H   0  0  0  0  0  0  0  0  0  0  0  0
   57.5860   34.4500   45.4040 O   0  0  0  0  0  0  0  0  0  0  0  0
   58.8450   34.8430   44.8900 C   0  0  0  0  0  0  0  0  0  0  0  0
   59.1647   34.1184   44.1266 H   0  0  0  0  0  0  0  0  0  0  0  0
   58.7478   35.8463   44.4496 H   0  0  0  0  0  0  0  0  0  0  0  0
   59.8960   34.8960   46.0030 C   0  0  0  0  0  0  0  0  0  0  0  0
   60.8884   35.0683   45.5609 H   0  0  0  0  0  0  0  0  0  0  0  0
   59.6527   35.7156   46.6952 H   0  0  0  0  0  0  0  0  0  0  0  0
   60.2190   31.2370   50.9950 C   0  0  0  0  0  0  0  0  0  0  0  0
   61.1863   31.4323   50.5090 H   0  0  0  0  0  0  0  0  0  0  0  0
   59.8440   29.9140   51.2930 C   0  0  0  0  0  0  0  0  0  0  0  0
   60.7630   28.7740   51.0280 C   0  0  0  0  0  0  0  0  0  0  0  0
   61.3210   28.1770   51.9910 O   0  0  0  0  0  0  0  0  0  0  0  0
   61.0770   28.3570   49.6930 N   0  0  0  0  0  0  0  0  0  0  0  0
   60.2910   28.5350   48.6750 C   0  0  0  0  0  0  0  0  0  0  0  0
   59.6810   27.5230   48.0090 N   0  0  0  0  0  0  0  0  0  0  0  0
   58.9600   28.0090   46.9660 C   0  0  0  0  0  0  0  0  0  0  0  0
   58.2210   27.2210   46.0840 C   0  0  0  0  0  0  0  0  0  0  0  0
   58.1827   26.1284   46.2052 H   0  0  0  0  0  0  0  0  0  0  0  0
   57.5260   27.8510   45.0370 C   0  0  0  0  0  0  0  0  0  0  0  0
   56.9349   27.2462   44.3336 H   0  0  0  0  0  0  0  0  0  0  0  0
   57.5800   29.2550   44.8800 C   0  0  0  0  0  0  0  0  0  0  0  0
   56.6820   30.0410   43.5850 S   0  0  0  0  0  0  0  0  0  0  0  0
   55.3160   30.4280   44.0780 O   0  0  0  0  0  0  0  0  0  0  0  0
   57.4030   31.2850   43.1440 O   0  0  0  0  0  0  0  0  0  0  0  0
   56.5320   28.9590   42.2440 N   0  0  0  0  0  0  0  0  0  0  0  0
   55.5490   29.0350   41.8950 H   0  0  0  0  0  0  0  0  0  0  0  0
   56.6440   27.9950   42.6250 H   0  0  0  0  0  0  0  0  0  0  0  0
   58.3220   30.0350   45.7840 C   0  0  0  0  0  0  0  0  0  0  0  0
   58.3635   31.1296   45.6830 H   0  0  0  0  0  0  0  0  0  0  0  0
   59.0020   29.3870   46.8090 C   0  0  0  0  0  0  0  0  0  0  0  0
   59.9680   30.0550   48.0070 S   0  0  0  0  0  0  0  0  0  0  0  0
   58.5850   29.6830   51.8920 C   0  0  0  0  0  0  0  0  0  0  0  0
   58.2709   28.6546   52.1235 H   0  0  0  0  0  0  0  0  0  0  0  0
  1  2  1  0
  2  3  2  0
  3  4  1  0
  3  5  1  0
  5  6  1  0
  6  7  1  0
  7  8  2  0
  7  9  1  0
  9 10  2  0
 10 11  1  0
 10 12  1  0
 12 13  1  0
 12 14  2  0
 14 15  1  0
 14 16  1  0
 16 17  1  0
 16 18  2  0
 18 19  1  0
 19 20  1  0
 20 21  1  0
 20 22  1  0
 20 23  1  0
 23 24  1  0
 23 25  1  0
 23 26  1  0
 26 27  1  0
 27 28  1  0
 27 29  1  0
 27 30  1  0
 30 31  1  0
 30 32  1  0
  5 33  2  0
 33 34  1  0
 33 35  1  0
 35 36  1  0
 36 37  2  0
 36 38  1  0
 38 39  2  0
 39 40  1  0
 40 41  1  0
 41 42  2  0
 42 43  1  0
 42 44  1  0
 44 45  1  0
 44 46  2  0
 46 47  1  0
 47 48  2  0
 47 49  2  0
 47 50  1  0
 50 51  1  0
 50 52  1  0
 46 53  1  0
 53 54  1  0
 53 55  2  0
 55 56  1  0
 35 57  2  0
 57 58  1  0
 57  2  1  0
 18  9  1  0
 30 19  1  0
 56 39  1  0
 55 41  1  0
M  CHG  2   6  -1  40  -1
M  END
>  <UniqueID>  (3) 
3

>  <SMILES>  (3) 
NS(=O)(=O)c1ccc2[n-]/c(=N\C(=O)c3cccc([N-]C(=O)c4cc(Cl)ccc4N4CCOCC4)c3)sc2c1

>  <Energy>  (3) 
119.26592813575782

>  <Genealogy>  (3) 
NS(=O)(=O)c1ccc2[n-]c(=NC(=O)c3cccc([N-]C(=O)c4cc(Cl)ccc4N4CCOCC4)c3)sc2c1 (protonated)
NS(=O)(=O)c1ccc2[n-]/c(=N\C(=O)c3cccc([N-]C(=O)c4cc(Cl)ccc4N4CCOCC4)c3)sc2c1 (cis-trans isomerization)
NS(=O)(=O)c1ccc2[n-]/c(=N\C(=O)c3cccc([N-]C(=O)c4cc(Cl)ccc4N4CCOCC4)c3)sc2c1 (3D coordinates assigned)
NS(=O)(=O)c1ccc2[n-]/c(=N\C(=O)c3cccc([N-]C(=O)c4cc(Cl)ccc4N4CCOCC4)c3)sc2c1 (nonaromatic ring conformer: 119.26592813575782 kcal/mol)

>  <smiles>  (3) 
NS(=O)(=O)c1ccc2[nH]c(=NC(=O)c3cccc(NC(=O)c4cc(Cl)ccc4N4CCOCC4)c3)sc2c1

>  <score_type>  (3) 
oracle

>  <origin>  (3) 
adg

>  <m_score__min__energy>  (3) 
-13.550000000000001

>  <m_primary>  (3) 
energy

$$$$
3:0
     RDKit          3D

 20 20  0  0  0  0  0  0  0  0999 V2000
   56.1190   29.5190   43.0740 N   0  0  0  0  0  0  0  0  0  0  0  0
   57.2520   30.3190   43.4210 C   0  0  0  0  0  0  0  0  0  0  0  0
   57.5540   31.6900   42.5790 S   0  0  0  0  0  0  0  0  0  0  0  0
   58.0500   30.0100   44.5750 N   0  0  0  0  0  0  0  0  0  0  0  0
   58.1630   28.6910   45.1350 C   0  0  0  0  0  0  0  0  0  0  0  0
   57.0100   27.9640   45.4810 C   0  0  0  0  0  0  0  0  0  0  0  0
   57.1100   26.6610   46.0020 C   0  0  0  0  0  0  0  0  0  0  0  0
   55.8940   25.9010   46.3720 C   0  0  0  0  0  0  0  0  0  0  0  0
   55.9810   24.8520   47.0640 O   0  0  0  0  0  0  0  0  0  0  0  0
   54.6400   26.3340   45.9590 O   0  0  0  0  0  0  0  0  0  0  0  0
   58.3800   26.0860   46.1630 C   0  0  0  0  0  0  0  0  0  0  0  0
   59.5270   26.7960   45.8050 C   0  0  0  0  0  0  0  0  0  0  0  0
   59.4270   28.0900   45.2880 C   0  0  0  0  0  0  0  0  0  0  0  0
   60.9040   28.9500   44.8720 Cl  0  0  0  0  0  0  0  0  0  0  0  0
   55.8040   28.7340   43.6870 H   0  0  0  0  0  0  0  0  0  0  0  0
   55.5480   29.7460   42.2290 H   0  0  0  0  0  0  0  0  0  0  0  0
   58.5890   30.7870   45.0200 H   0  0  0  0  0  0  0  0  0  0  0  0
   56.0183   28.4195   45.3427 H   0  0  0  0  0  0  0  0  0  0  0  0
   58.4720   25.0697   46.5738 H   0  0  0  0  0  0  0  0  0  0  0  0
   60.5170   26.3333   45.9308 H   0  0  0  0  0  0  0  0  0  0  0  0
  1  2  1  0
  2  3  2  0
  2  4  1  0
  4  5  1  0
  5  6  2  0
  6  7  1  0
  7  8  1  0
  8  9  2  0
  8 10  1  0
  7 11  2  0
 11 12  1  0
 12 13  2  0
 13 14  1  0
 13  5  1  0
  1 15  1  0
  1 16  1  0
  4 17  1  0
  6 18  1  0
 11 19  1  0
 12 20  1  0
M  CHG  1  10  -1
M  END
>  <UniqueID>  (4) 
4

>  <SMILES>  (4) 
NC(=S)Nc1cc(C(=O)[O-])ccc1Cl

>  <Energy>  (4) 
22.70949738500876

>  <Genealogy>  (4) 
NC(=S)Nc1cc(C(=O)[O-])ccc1Cl (protonated)
NC(=S)Nc1cc(C(=O)[O-])ccc1Cl (3D coordinates assigned)
NC(=S)Nc1cc(C(=O)[O-])ccc1Cl (optimized conformer: 22.70949738500876 kcal/mol)

>  <smiles>  (4) 
NC(=S)Nc1cc(C(=O)O)ccc1Cl

>  <score_type>  (4) 
oracle

>  <origin>  (4) 
adg

>  <m_score__min__energy>  (4) 
-8.9800000000000004

>  <m_primary>  (4) 
energy

$$$$
4:0
     RDKit          3D

 71 75  0  0  0  0  0  0  0  0999 V2000
   61.1760   34.1880   46.4780 O   0  0  0  0  0  0  0  0  0  0  0  0
   60.0680   34.5610   46.9490 C   0  0  0  0  0  0  0  0  0  0  0  0
   59.9070   34.6760   48.3240 O   0  0  0  0  0  0  0  0  0  0  0  0
   58.9170   34.8380   46.0330 C   0  0  0  0  0  0  0  0  0  0  0  0
   57.7250   33.9380   46.3760 C   0  0  0  0  0  0  0  0  0  0  0  0
   57.9020   32.5730   45.7670 C   0  0  0  0  0  0  0  0  0  0  0  0
   59.0090   31.7820   46.1060 C   0  0  0  0  0  0  0  0  0  0  0  0
   59.1950   30.5320   45.5110 C   0  0  0  0  0  0  0  0  0  0  0  0
   58.2880   30.0660   44.5400 C   0  0  0  0  0  0  0  0  0  0  0  0
   58.4460   28.8340   43.8870 O   0  0  0  0  0  0  0  0  0  0  0  0
   59.2750   27.7720   44.3560 C   0  0  0  0  0  0  0  0  0  0  0  0
   58.4070   26.6440   44.8540 C   0  0  0  0  0  0  0  0  0  0  0  0
   57.7790   25.8140   43.9090 C   0  0  0  0  0  0  0  0  0  0  0  0
   56.9300   24.7840   44.3200 C   0  0  0  0  0  0  0  0  0  0  0  0
   56.7020   24.5650   45.6780 C   0  0  0  0  0  0  0  0  0  0  0  0
   57.3340   25.3660   46.6320 C   0  0  0  0  0  0  0  0  0  0  0  0
   58.2080   26.3930   46.2390 C   0  0  0  0  0  0  0  0  0  0  0  0
   58.8720   27.1890   47.2930 C   0  0  0  0  0  0  0  0  0  0  0  0
   60.0080   26.8300   48.0140 C   0  0  0  0  0  0  0  0  0  0  0  0
   60.4130   27.7440   48.9350 N   0  0  0  0  0  0  0  0  0  0  0  0
   59.6060   28.8290   48.9690 C   0  0  0  0  0  0  0  0  0  0  0  0
   59.8260   29.9450   49.8580 N   0  0  0  0  0  0  0  0  0  0  0  0
   60.8500   29.9180   50.9040 C   0  0  0  0  0  0  0  0  0  0  0  0
   61.8800   31.0150   50.6410 C   0  0  0  0  0  0  0  0  0  0  0  0
   61.2520   32.3760   50.1970 C   0  0  0  0  0  0  0  0  0  0  0  0
   61.8250   32.8800   48.9070 N   0  0  0  0  0  0  0  0  0  0  0  0
   63.1050   33.6180   49.0710 C   0  0  0  0  0  0  0  0  0  0  0  0
   63.6430   34.0850   47.7110 C   0  0  0  0  0  0  0  0  0  0  0  0
   63.8810   32.9040   46.7470 C   0  0  0  0  0  0  0  0  0  0  0  0
   63.2780   31.5870   47.2570 C   0  0  0  0  0  0  0  0  0  0  0  0
   61.8770   31.8140   47.8530 C   0  0  0  0  0  0  0  0  0  0  0  0
   59.6900   32.4040   50.2700 C   0  0  0  0  0  0  0  0  0  0  0  0
   58.9790   31.1370   49.7550 C   0  0  0  0  0  0  0  0  0  0  0  0
   58.3480   28.6870   47.8540 S   0  0  0  0  0  0  0  0  0  0  0  0
   57.1940   30.8630   44.1930 C   0  0  0  0  0  0  0  0  0  0  0  0
   56.9970   32.1060   44.8040 C   0  0  0  0  0  0  0  0  0  0  0  0
   58.6168   35.8910   46.1381 H   0  0  0  0  0  0  0  0  0  0  0  0
   59.2300   34.6326   44.9987 H   0  0  0  0  0  0  0  0  0  0  0  0
   57.6486   33.8395   47.4689 H   0  0  0  0  0  0  0  0  0  0  0  0
   56.8086   34.3919   45.9709 H   0  0  0  0  0  0  0  0  0  0  0  0
   59.7361   32.1484   46.8457 H   0  0  0  0  0  0  0  0  0  0  0  0
   60.0536   29.9091   45.8022 H   0  0  0  0  0  0  0  0  0  0  0  0
   59.9102   27.4112   43.5336 H   0  0  0  0  0  0  0  0  0  0  0  0
   59.9115   28.1363   45.1758 H   0  0  0  0  0  0  0  0  0  0  0  0
   57.9579   25.9773   42.8360 H   0  0  0  0  0  0  0  0  0  0  0  0
   56.4403   24.1444   43.5710 H   0  0  0  0  0  0  0  0  0  0  0  0
   56.0237   23.7605   45.9984 H   0  0  0  0  0  0  0  0  0  0  0  0
   57.1454   25.1908   47.7015 H   0  0  0  0  0  0  0  0  0  0  0  0
   60.5371   25.8795   47.8507 H   0  0  0  0  0  0  0  0  0  0  0  0
   60.3777   30.0863   51.8831 H   0  0  0  0  0  0  0  0  0  0  0  0
   61.3504   28.9384   50.9002 H   0  0  0  0  0  0  0  0  0  0  0  0
   62.4524   31.1822   51.5653 H   0  0  0  0  0  0  0  0  0  0  0  0
   62.5131   30.6681   49.8110 H   0  0  0  0  0  0  0  0  0  0  0  0
   61.5585   33.1133   50.9536 H   0  0  0  0  0  0  0  0  0  0  0  0
   61.1380   33.5860   48.5480 H   0  0  0  0  0  0  0  0  0  0  0  0
   62.9358   34.4954   49.7125 H   0  0  0  0  0  0  0  0  0  0  0  0
   63.8439   32.9448   49.5302 H   0  0  0  0  0  0  0  0  0  0  0  0
   62.9135   34.7721   47.2575 H   0  0  0  0  0  0  0  0  0  0  0  0
   64.6081   34.5847   47.8809 H   0  0  0  0  0  0  0  0  0  0  0  0
   63.4251   33.1461   45.7757 H   0  0  0  0  0  0  0  0  0  0  0  0
   64.9682   32.7593   46.6635 H   0  0  0  0  0  0  0  0  0  0  0  0
   63.2016   30.8784   46.4191 H   0  0  0  0  0  0  0  0  0  0  0  0
   63.9321   31.1847   48.0446 H   0  0  0  0  0  0  0  0  0  0  0  0
   61.1971   32.1012   47.0374 H   0  0  0  0  0  0  0  0  0  0  0  0
   61.5830   30.8723   48.3396 H   0  0  0  0  0  0  0  0  0  0  0  0
   59.4024   32.5503   51.3216 H   0  0  0  0  0  0  0  0  0  0  0  0
   59.3711   33.2206   49.6055 H   0  0  0  0  0  0  0  0  0  0  0  0
   58.0675   30.9761   50.3494 H   0  0  0  0  0  0  0  0  0  0  0  0
   58.7422   31.2916   48.6920 H   0  0  0  0  0  0  0  0  0  0  0  0
   56.4815   30.5100   43.4329 H   0  0  0  0  0  0  0  0  0  0  0  0
   56.1273   32.7200   44.5272 H   0  0  0  0  0  0  0  0  0  0  0  0
  1  2  2  0
  2  3  1  0
  2  4  1  0
  4  5  1  0
  5  6  1  0
  6  7  2  0
  7  8  1  0
  8  9  2  0
  9 10  1  0
 10 11  1  0
 11 12  1  0
 12 13  2  0
 13 14  1  0
 14 15  2  0
 15 16  1  0
 16 17  2  0
 17 18  1  0
 18 19  2  0
 19 20  1  0
 20 21  2  0
 21 22  1  0
 22 23  1  0
 23 24  1  0
 24 25  1  0
 25 26  1  0
 26 27  1  0
 27 28  1  0
 28 29  1  0
 29 30  1  0
 30 31  1  0
 25 32  1  0
 32 33  1  0
 21 34  1  0
  9 35  1  0
 35 36  2  0
 36  6  1  0
 17 12  1  0
 34 18  1  0
 33 22  1  0
 31 26  1  0
  4 37  1  0
  4 38  1  0
  5 39  1  0
  5 40  1  0
  7 41  1  0
  8 42  1  0
 11 43  1  0
 11 44  1  0
 13 45  1  0
 14 46  1  0
 15 47  1  0
 16 48  1  0
 19 49  1  0
 23 50  1  0
 23 51  1  0
 24 52  1  0
 24 53  1  0
 25 54  1  0
 26 55  1  0
 27 56  1  0
 27 57  1  0
 28 58  1  0
 28 59  1  0
 29 60  1  0
 29 61  1  0
 30 62  1  0
 30 63  1  0
 31 64  1  0
 31 65  1  0
 32 66  1  0
 32 67  1  0
 33 68  1  0
 33 69  1  0
 35 70  1  0
 36 71  1  0
M  CHG  2   3  -1  26   1
M  END
>  <UniqueID>  (5) 
5

>  <SMILES>  (5) 
O=C([O-])CCc1ccc(OCc2ccccc2-c2cnc(N3CCC([NH+]4CCCCC4)CC3)s2)cc1

>  <Energy>  (5) 
128.88870694073648

>  <Genealogy>  (5) 
O=C([O-])CCc1ccc(OCc2ccccc2-c2cnc(N3CCC([NH+]4CCCCC4)CC3)s2)cc1 (protonated)
O=C([O-])CCc1ccc(OCc2ccccc2-c2cnc(N3CCC([NH+]4CCCCC4)CC3)s2)cc1 (3D coordinates assigned)
O=C([O-])CCc1ccc(OCc2ccccc2-c2cnc(N3CCC([NH+]4CCCCC4)CC3)s2)cc1 (nonaromatic ring conformer: 128.88870694073648 kcal/mol)

>  <smiles>  (5) 
O=C(O)CCc1ccc(OCc2ccccc2-c2cnc(N3CCC(N4CCCCC4)CC3)s2)cc1

>  <score_type>  (5) 
oracle

>  <origin>  (5) 
adg

>  <m_score__min__energy>  (5) 
-11.960000000000001

>  <m_primary>  (5) 
energy

$$$$
5:0
     RDKit          3D

 96 97  0  0  0  0  0  0  0  0999 V2000
   58.0540   32.3520   42.8190 C   0  0  0  0  0  0  0  0  0  0  0  0
   57.0410   31.2960   42.3740 C   0  0  0  0  0  0  0  0  0  0  0  0
   56.8790   30.1040   43.3590 C   0  0  2  0  0  0  0  0  0  0  0  0
   55.4340   30.0290   43.8880 C   0  0  0  0  0  0  0  0  0  0  0  0
   57.9250   30.0950   44.5170 C   0  0  1  0  0  0  0  0  0  0  0  0
   57.4780   30.9370   45.6290 N   0  0  0  0  0  0  0  0  0  0  0  0
   58.2960   31.8880   46.3140 C   0  0  0  0  0  0  0  0  0  0  0  0
   57.7680   32.8240   46.9690 O   0  0  0  0  0  0  0  0  0  0  0  0
   59.7920   31.7300   46.2750 C   0  0  2  0  0  0  0  0  0  0  0  0
   60.2660   30.8060   47.4050 C   0  0  0  0  0  0  0  0  0  0  0  0
   59.2560   29.8900   47.7350 O   0  0  0  0  0  0  0  0  0  0  0  0
   60.4270   33.0400   46.4030 N   0  0  0  0  0  0  0  0  0  0  0  0
   61.2860   33.4260   47.4770 C   0  0  0  0  0  0  0  0  0  0  0  0
   62.5140   33.1350   47.4530 O   0  0  0  0  0  0  0  0  0  0  0  0
   60.7190   34.2300   48.6210 C   0  0  1  0  0  0  0  0  0  0  0  0
   59.2750   34.3970   48.4510 N   0  0  0  0  0  0  0  0  0  0  0  0
   61.0120   33.5410   49.9680 C   0  0  0  0  0  0  0  0  0  0  0  0
   59.7380   33.1500   50.6690 C   0  0  0  0  0  0  0  0  0  0  0  0
   59.2720   33.8820   51.7710 C   0  0  0  0  0  0  0  0  0  0  0  0
   58.1030   33.4780   52.4230 C   0  0  0  0  0  0  0  0  0  0  0  0
   57.4200   32.3420   51.9780 C   0  0  0  0  0  0  0  0  0  0  0  0
   57.9130   31.6340   50.8810 C   0  0  0  0  0  0  0  0  0  0  0  0
   59.0500   32.0480   50.2580 N   0  0  0  0  0  0  0  0  0  0  0  0
   58.1250   28.7040   45.0460 C   0  0  0  0  0  0  0  0  0  0  0  0
   59.2900   28.2620   45.2350 O   0  0  0  0  0  0  0  0  0  0  0  0
   56.9900   27.8680   45.2800 N   0  0  0  0  0  0  0  0  0  0  0  0
   57.0910   26.5040   45.7900 C   0  0  1  0  0  0  0  0  0  0  0  0
   57.8830   26.4720   47.1040 C   0  0  0  0  0  0  0  0  0  0  0  0
   57.8710   27.7290   47.7220 O   0  0  0  0  0  0  0  0  0  0  0  0
   55.7060   25.9410   45.9720 C   0  0  0  0  0  0  0  0  0  0  0  0
   54.7740   26.7020   46.3580 O   0  0  0  0  0  0  0  0  0  0  0  0
   55.4310   24.5450   45.8020 N   0  0  0  0  0  0  0  0  0  0  0  0
   54.1260   24.0010   45.4340 C   0  0  0  0  0  0  0  0  0  0  0  0
   53.8700   22.6680   46.0700 C   0  0  0  0  0  0  0  0  0  0  0  0
   52.8440   22.0020   45.7700 O   0  0  0  0  0  0  0  0  0  0  0  0
   54.8490   22.1260   46.9630 N   0  0  0  0  0  0  0  0  0  0  0  0
   55.0980   22.6450   48.3070 C   0  0  1  0  0  0  0  0  0  0  0  0
   54.3550   21.7980   49.3550 C   0  0  0  0  0  0  0  0  0  0  0  0
   53.0060   22.3530   49.7290 C   0  0  0  0  0  0  0  0  0  0  0  0
   51.8860   22.1210   48.9070 C   0  0  0  0  0  0  0  0  0  0  0  0
   50.6280   22.6130   49.2810 C   0  0  0  0  0  0  0  0  0  0  0  0
   50.4820   23.3440   50.4610 C   0  0  0  0  0  0  0  0  0  0  0  0
   51.5910   23.5900   51.2740 C   0  0  0  0  0  0  0  0  0  0  0  0
   52.8500   23.0920   50.9140 C   0  0  0  0  0  0  0  0  0  0  0  0
   56.5750   22.6980   48.5830 C   0  0  0  0  0  0  0  0  0  0  0  0
   57.1810   23.8020   48.5880 O   0  0  0  0  0  0  0  0  0  0  0  0
   57.2930   21.4780   48.7910 N   0  0  0  0  0  0  0  0  0  0  0  0
   57.1060   20.2810   47.9810 C   0  0  0  0  0  0  0  0  0  0  0  0
   58.0110   20.2760   46.7420 C   0  0  0  0  0  0  0  0  0  0  0  0
   57.5400   21.2750   45.6760 C   0  0  0  0  0  0  0  0  0  0  0  0
   57.6990   22.6360   46.1720 N   0  0  0  0  0  0  0  0  0  0  0  0
   58.0880   32.3874   43.9179 H   0  0  0  0  0  0  0  0  0  0  0  0
   59.0494   32.0923   42.4296 H   0  0  0  0  0  0  0  0  0  0  0  0
   57.7531   33.3358   42.4296 H   0  0  0  0  0  0  0  0  0  0  0  0
   56.0619   31.7846   42.2617 H   0  0  0  0  0  0  0  0  0  0  0  0
   57.4213   30.8744   41.4319 H   0  0  0  0  0  0  0  0  0  0  0  0
   57.0883   29.1922   42.7804 H   0  0  0  0  0  0  0  0  0  0  0  0
   55.4457   30.0296   44.9879 H   0  0  0  0  0  0  0  0  0  0  0  0
   54.8657   30.8989   43.5269 H   0  0  0  0  0  0  0  0  0  0  0  0
   54.9588   29.1050   43.5269 H   0  0  0  0  0  0  0  0  0  0  0  0
   58.8679   30.4820   44.1034 H   0  0  0  0  0  0  0  0  0  0  0  0
   60.0758   31.2780   45.3132 H   0  0  0  0  0  0  0  0  0  0  0  0
   61.1608   30.2577   47.0753 H   0  0  0  0  0  0  0  0  0  0  0  0
   60.5042   31.4135   48.2906 H   0  0  0  0  0  0  0  0  0  0  0  0
   58.8090   29.6520   46.8840 H   0  0  0  0  0  0  0  0  0  0  0  0
   61.1998   35.2194   48.6213 H   0  0  0  0  0  0  0  0  0  0  0  0
   59.0730   34.4930   47.4280 H   0  0  0  0  0  0  0  0  0  0  0  0
   58.8100   33.5060   48.7500 H   0  0  0  0  0  0  0  0  0  0  0  0
   61.6128   32.6378   49.7857 H   0  0  0  0  0  0  0  0  0  0  0  0
   61.5589   34.2482   50.6089 H   0  0  0  0  0  0  0  0  0  0  0  0
   59.8226   34.7680   52.1200 H   0  0  0  0  0  0  0  0  0  0  0  0
   57.7226   34.0509   53.2816 H   0  0  0  0  0  0  0  0  0  0  0  0
   56.5034   32.0097   52.4874 H   0  0  0  0  0  0  0  0  0  0  0  0
   57.3823   30.7408   50.5197 H   0  0  0  0  0  0  0  0  0  0  0  0
   57.6364   25.8812   45.0657 H   0  0  0  0  0  0  0  0  0  0  0  0
   57.4294   25.7329   47.7807 H   0  0  0  0  0  0  0  0  0  0  0  0
   58.9249   26.1981   46.8815 H   0  0  0  0  0  0  0  0  0  0  0  0
   58.1370   28.3900   47.0330 H   0  0  0  0  0  0  0  0  0  0  0  0
   53.3446   24.7042   45.7579 H   0  0  0  0  0  0  0  0  0  0  0  0
   54.1124   23.8634   44.3427 H   0  0  0  0  0  0  0  0  0  0  0  0
   54.7094   23.6721   48.3714 H   0  0  0  0  0  0  0  0  0  0  0  0
   54.2144   20.7856   48.9484 H   0  0  0  0  0  0  0  0  0  0  0  0
   54.9697   21.7995   50.2672 H   0  0  0  0  0  0  0  0  0  0  0  0
   51.9986   21.5536   47.9714 H   0  0  0  0  0  0  0  0  0  0  0  0
   49.7529   22.4224   48.6424 H   0  0  0  0  0  0  0  0  0  0  0  0
   49.4924   23.7269   50.7511 H   0  0  0  0  0  0  0  0  0  0  0  0
   51.4756   24.1755   52.1981 H   0  0  0  0  0  0  0  0  0  0  0  0
   53.7194   23.2801   51.5611 H   0  0  0  0  0  0  0  0  0  0  0  0
   57.3389   19.3978   48.5940 H   0  0  0  0  0  0  0  0  0  0  0  0
   56.0611   20.2639   47.6376 H   0  0  0  0  0  0  0  0  0  0  0  0
   59.0334   20.5413   47.0490 H   0  0  0  0  0  0  0  0  0  0  0  0
   57.9741   19.2690   46.3009 H   0  0  0  0  0  0  0  0  0  0  0  0
   58.1408   21.1461   44.7636 H   0  0  0  0  0  0  0  0  0  0  0  0
   56.4792   21.0920   45.4495 H   0  0  0  0  0  0  0  0  0  0  0  0
   58.1710   22.5890   47.1100 H   0  0  0  0  0  0  0  0  0  0  0  0
   56.7450   23.0280   46.3510 H   0  0  0  0  0  0  0  0  0  0  0  0
  1  2  1  0
  2  3  1  0
  3  4  1  0
  3  5  1  0
  5  6  1  0
  6  7  1  0
  7  8  2  0
  7  9  1  0
  9 10  1  0
 10 11  1  0
  9 12  1  0
 12 13  1  0
 13 14  2  0
 13 15  1  0
 15 16  1  0
 15 17  1  0
 17 18  1  0
 18 19  2  0
 19 20  1  0
 20 21  2  0
 21 22  1  0
 22 23  2  0
  5 24  1  0
 24 25  2  0
 24 26  1  0
 26 27  1  0
 27 28  1  0
 28 29  1  0
 27 30  1  0
 30 31  2  0
 30 32  1  0
 32 33  1  0
 33 34  1  0
 34 35  2  0
 34 36  1  0
 36 37  1  0
 37 38  1  0
 38 39  1  0
 39 40  2  0
 40 41  1  0
 41 42  2  0
 42 43  1  0
 43 44  2  0
 37 45  1  0
 45 46  2  0
 45 47  1  0
 47 48  1  0
 48 49  1  0
 49 50  1  0
 50 51  1  0
 23 18  1  0
 44 39  1  0
  1 52  1  0
  1 53  1  0
  1 54  1  0
  2 55  1  0
  2 56  1  0
  3 57  1  6
  4 58  1  0
  4 59  1  0
  4 60  1  0
  5 61  1  6
  9 62  1  6
 10 63  1  0
 10 64  1  0
 11 65  1  0
 15 66  1  1
 16 67  1  0
 16 68  1  0
 17 69  1  0
 17 70  1  0
 19 71  1  0
 20 72  1  0
 21 73  1  0
 22 74  1  0
 27 75  1  6
 28 76  1  0
 28 77  1  0
 29 78  1  0
 33 79  1  0
 33 80  1  0
 37 81  1  6
 38 82  1  0
 38 83  1  0
 40 84  1  0
 41 85  1  0
 42 86  1  0
 43 87  1  0
 44 88  1  0
 48 89  1  0
 48 90  1  0
 49 91  1  0
 49 92  1  0
 50 93  1  0
 50 94  1  0
 51 95  1  0
 51 96  1  0
M  CHG  6   6  -1  12  -1  26  -1  32  -1  36  -1  47  -1
M  END
>  <UniqueID>  (6) 
6

>  <SMILES>  (6) 
CC[C@H](C)[C@@H]([N-]C(=O)C(CO)[N-]C(=O)C(N)Cc1ccccn1)C(=O)[N-]C(CO)C(=O)[N-]CC(=O)[N-]C(Cc1ccccc1)C(=O)[N-]CCCN

>  <Energy>  (6) 
69.26790225334453

>  <Genealogy>  (6) 
CCC(C)C([N-]C(=O)C(CO)[N-]C(=O)C(N)Cc1ccccn1)C(=O)[N-]C(CO)C(=O)[N-]CC(=O)[N-]C(Cc1ccccc1)C(=O)[N-]CCCN (protonated)
CC[C@H](C)[C@@H]([N-]C(=O)C(CO)[N-]C(=O)C(N)Cc1ccccn1)C(=O)[N-]C(CO)C(=O)[N-]CC(=O)[N-]C(Cc1ccccc1)C(=O)[N-]CCCN (chirality)
CC[C@H](C)[C@@H]([N-]C(=O)C(CO)[N-]C(=O)C(N)Cc1ccccn1)C(=O)[N-]C(CO)C(=O)[N-]CC(=O)[N-]C(Cc1ccccc1)C(=O)[N-]CCCN (3D coordinates assigned)
CC[C@H](C)[C@@H]([N-]C(=O)C(CO)[N-]C(=O)C(N)Cc1ccccn1)C(=O)[N-]C(CO)C(=O)[N-]CC(=O)[N-]C(Cc1ccccc1)C(=O)[N-]CCCN (optimized conformer: 69.26790225334453 kcal/mol)

>  <smiles>  (6) 
CCC(C)C(NC(=O)C(CO)NC(=O)C(N)Cc1ccccn1)C(=O)NC(CO)C(=O)NCC(=O)NC(Cc1ccccc1)C(=O)NCCCN

>  <score_type>  (6) 
oracle

>  <origin>  (6) 
adg

>  <m_score__min__energy>  (6) 
-16.620000000000001

>  <m_primary>  (6) 
energy

$$$$
6:0
     RDKit          3D

 44 46  0  0  0  0  0  0  0  0999 V2000
   56.5906   30.7735   41.5346 H   0  0  0  0  0  0  0  0  0  0  0  0
   56.7230   30.6850   42.6230 C   0  0  0  0  0  0  0  0  0  0  0  0
   56.2210   29.6060   43.2810 N   0  0  0  0  0  0  0  0  0  0  0  0
   56.3630   29.4860   44.6260 C   0  0  0  0  0  0  0  0  0  0  0  0
   55.9160   28.4270   45.2360 N   0  0  0  0  0  0  0  0  0  0  0  0
   56.7880   27.4450   45.8140 C   0  0  0  0  0  0  0  0  0  0  0  0
   56.2540   26.2440   46.2930 C   0  0  0  0  0  0  0  0  0  0  0  0
   55.1633   26.1038   46.3201 H   0  0  0  0  0  0  0  0  0  0  0  0
   57.1010   25.2150   46.7400 C   0  0  0  0  0  0  0  0  0  0  0  0
   56.5580   23.9160   47.2090 C   0  0  0  0  0  0  0  0  0  0  0  0
   57.3490   22.9680   47.4510 O   0  0  0  0  0  0  0  0  0  0  0  0
   55.1550   23.6940   47.3740 N   0  0  0  0  0  0  0  0  0  0  0  0
   54.4400   24.4220   47.1640 H   0  0  0  0  0  0  0  0  0  0  0  0
   54.8160   22.7690   47.7180 H   0  0  0  0  0  0  0  0  0  0  0  0
   58.4920   25.4350   46.7460 C   0  0  0  0  0  0  0  0  0  0  0  0
   59.1644   24.6428   47.1070 H   0  0  0  0  0  0  0  0  0  0  0  0
   59.0320   26.6480   46.2990 C   0  0  0  0  0  0  0  0  0  0  0  0
   60.5140   26.8770   46.3700 C   0  0  0  0  0  0  0  0  0  0  0  0
   60.8275   26.9254   47.4233 H   0  0  0  0  0  0  0  0  0  0  0  0
   61.0374   26.0491   45.8694 H   0  0  0  0  0  0  0  0  0  0  0  0
   60.7630   27.8243   45.8694 H   0  0  0  0  0  0  0  0  0  0  0  0
   58.1790   27.6480   45.8260 C   0  0  0  0  0  0  0  0  0  0  0  0
   58.5973   28.5979   45.4616 H   0  0  0  0  0  0  0  0  0  0  0  0
   57.0200   30.4540   45.3180 N   0  0  0  0  0  0  0  0  0  0  0  0
   57.5560   31.5410   44.7080 C   0  0  0  0  0  0  0  0  0  0  0  0
   58.2610   32.5240   45.4760 N   0  0  0  0  0  0  0  0  0  0  0  0
   57.8960   33.5050   45.4910 H   0  0  0  0  0  0  0  0  0  0  0  0
   59.3410   32.1780   46.3600 C   0  0  0  0  0  0  0  0  0  0  0  0
   59.7510   30.8400   46.4420 C   0  0  0  0  0  0  0  0  0  0  0  0
   59.2232   30.0696   45.8607 H   0  0  0  0  0  0  0  0  0  0  0  0
   60.8250   30.4800   47.2570 C   0  0  0  0  0  0  0  0  0  0  0  0
   61.1463   29.4293   47.3099 H   0  0  0  0  0  0  0  0  0  0  0  0
   61.4920   31.4510   48.0050 C   0  0  0  0  0  0  0  0  0  0  0  0
   62.3468   31.1664   48.6362 H   0  0  0  0  0  0  0  0  0  0  0  0
   61.0770   32.7820   47.9540 C   0  0  0  0  0  0  0  0  0  0  0  0
   61.6050   33.5430   48.5474 H   0  0  0  0  0  0  0  0  0  0  0  0
   59.9860   33.1560   47.1470 C   0  0  0  0  0  0  0  0  0  0  0  0
   59.5050   34.4730   47.1170 O   0  0  0  0  0  0  0  0  0  0  0  0
   59.6400   35.3640   46.0160 C   0  0  0  0  0  0  0  0  0  0  0  0
   59.7950   36.3871   46.3891 H   0  0  0  0  0  0  0  0  0  0  0  0
   60.5027   35.0623   45.4038 H   0  0  0  0  0  0  0  0  0  0  0  0
   58.7267   35.3314   45.4038 H   0  0  0  0  0  0  0  0  0  0  0  0
   57.4080   31.6840   43.3260 C   0  0  0  0  0  0  0  0  0  0  0  0
   57.8195   32.5598   42.8029 H   0  0  0  0  0  0  0  0  0  0  0  0
  1  2  1  0
  2  3  1  0
  3  4  1  0
  4  5  2  0
  5  6  1  0
  6  7  2  0
  7  8  1  0
  7  9  1  0
  9 10  1  0
 10 11  2  0
 10 12  1  0
 12 13  1  0
 12 14  1  0
  9 15  2  0
 15 16  1  0
 15 17  1  0
 17 18  1  0
 18 19  1  0
 18 20  1  0
 18 21  1  0
 17 22  2  0
 22 23  1  0
  4 24  1  0
 24 25  2  0
 25 26  1  0
 26 27  1  0
 26 28  1  0
 28 29  2  0
 29 30  1  0
 29 31  1  0
 31 32  1  0
 31 33  2  0
 33 34  1  0
 33 35  1  0
 35 36  1  0
 35 37  2  0
 37 38  1  0
 38 39  1  0
 39 40  1  0
 39 41  1  0
 39 42  1  0
 25 43  1  0
 43 44  1  0
 43  2  2  0
 22  6  1  0
 37 28  1  0
M  CHG  1   3  -1
M  END
>  <UniqueID>  (7) 
7

>  <SMILES>  (7) 
COc1ccccc1Nc1cc[n-]/c(=N/c2cc(C)cc(C(N)=O)c2)n1

>  <Energy>  (7) 
57.166358353470294

>  <Genealogy>  (7) 
COc1ccccc1Nc1cc[n-]c(=Nc2cc(C)cc(C(N)=O)c2)n1 (protonated)
COc1ccccc1Nc1cc[n-]/c(=N/c2cc(C)cc(C(N)=O)c2)n1 (cis-trans isomerization)
COc1ccccc1Nc1cc[n-]/c(=N/c2cc(C)cc(C(N)=O)c2)n1 (3D coordinates assigned)
COc1ccccc1Nc1cc[n-]/c(=N/c2cc(C)cc(C(N)=O)c2)n1 (optimized conformer: 57.166358353470294 kcal/mol)

>  <smiles>  (7) 
COc1ccccc1Nc1cc[nH]c(=Nc2cc(C)cc(C(N)=O)c2)n1

>  <score_type>  (7) 
oracle

>  <origin>  (7) 
adg

>  <m_score__min__energy>  (7) 
-11.119999999999999

>  <m_primary>  (7) 
energy

$$$$
7:0
     RDKit          3D

 38 39  0  0  0  0  0  0  0  0999 V2000
   56.3200   29.3030   44.1700 C   0  0  0  0  0  0  0  0  0  0  0  0
   57.2350   29.1830   45.3700 C   0  0  0  0  0  0  0  0  0  0  0  0
   57.9760   30.3140   45.8000 C   0  0  0  0  0  0  0  0  0  0  0  0
   57.8110   31.5740   45.1230 N   0  0  0  0  0  0  0  0  0  0  0  0
   57.8900   33.1360   45.8680 S   0  0  0  0  0  0  0  0  0  0  0  0
   56.6450   33.3590   46.6810 O   0  0  0  0  0  0  0  0  0  0  0  0
   57.9670   34.1950   44.8000 O   0  0  0  0  0  0  0  0  0  0  0  0
   59.2840   33.2070   46.9410 C   0  0  0  0  0  0  0  0  0  0  0  0
   59.0840   33.3200   48.3180 C   0  0  0  0  0  0  0  0  0  0  0  0
   60.1740   33.3840   49.1850 C   0  0  0  0  0  0  0  0  0  0  0  0
   61.4860   33.3320   48.6890 C   0  0  0  0  0  0  0  0  0  0  0  0
   62.8240   33.5290   49.8320 S   0  0  0  0  0  0  0  0  0  0  0  0
   64.2790   32.9040   49.1420 N   0  0  0  0  0  0  0  0  0  0  0  0
   62.5190   32.7840   51.1010 O   0  0  0  0  0  0  0  0  0  0  0  0
   63.0040   34.9840   50.1700 O   0  0  0  0  0  0  0  0  0  0  0  0
   61.6980   33.1760   47.2960 C   0  0  0  0  0  0  0  0  0  0  0  0
   63.0180   33.0500   46.7410 N   0  0  0  0  0  0  0  0  0  0  0  0
   63.6240   31.9590   46.8110 O   0  0  0  0  0  0  0  0  0  0  0  0
   63.7100   34.1670   46.3400 O   0  0  0  0  0  0  0  0  0  0  0  0
   60.5860   33.1350   46.4350 C   0  0  0  0  0  0  0  0  0  0  0  0
   58.8580   30.1930   46.8860 C   0  0  0  0  0  0  0  0  0  0  0  0
   58.9990   28.9790   47.5510 C   0  0  0  0  0  0  0  0  0  0  0  0
   58.2500   27.8750   47.1590 C   0  0  0  0  0  0  0  0  0  0  0  0
   57.3500   27.9570   46.0830 C   0  0  0  0  0  0  0  0  0  0  0  0
   56.5540   26.7450   45.7550 C   0  0  0  0  0  0  0  0  0  0  0  0
   57.0880   25.7380   45.2190 O   0  0  0  0  0  0  0  0  0  0  0  0
   55.1840   26.7270   45.9880 O   0  0  0  0  0  0  0  0  0  0  0  0
   55.2833   29.4390   44.5116 H   0  0  0  0  0  0  0  0  0  0  0  0
   56.6227   30.1691   43.5632 H   0  0  0  0  0  0  0  0  0  0  0  0
   56.3891   28.3881   43.5632 H   0  0  0  0  0  0  0  0  0  0  0  0
   58.0612   33.3587   48.7210 H   0  0  0  0  0  0  0  0  0  0  0  0
   60.0042   33.4761   50.2679 H   0  0  0  0  0  0  0  0  0  0  0  0
   64.1020   31.8990   48.9170 H   0  0  0  0  0  0  0  0  0  0  0  0
   64.4220   33.3970   48.2300 H   0  0  0  0  0  0  0  0  0  0  0  0
   60.7426   33.0452   45.3499 H   0  0  0  0  0  0  0  0  0  0  0  0
   59.4424   31.0654   47.2137 H   0  0  0  0  0  0  0  0  0  0  0  0
   59.7054   28.8923   48.3897 H   0  0  0  0  0  0  0  0  0  0  0  0
   58.3637   26.9235   47.6991 H   0  0  0  0  0  0  0  0  0  0  0  0
  1  2  1  0
  2  3  2  0
  3  4  1  0
  4  5  1  0
  5  6  2  0
  5  7  2  0
  5  8  1  0
  8  9  2  0
  9 10  1  0
 10 11  2  0
 11 12  1  0
 12 13  1  0
 12 14  2  0
 12 15  2  0
 11 16  1  0
 16 17  1  0
 17 18  2  0
 17 19  1  0
 16 20  2  0
  3 21  1  0
 21 22  2  0
 22 23  1  0
 23 24  2  0
 24 25  1  0
 25 26  2  0
 25 27  1  0
 24  2  1  0
 20  8  1  0
  1 28  1  0
  1 29  1  0
  1 30  1  0
  9 31  1  0
 10 32  1  0
 13 33  1  0
 13 34  1  0
 20 35  1  0
 21 36  1  0
 22 37  1  0
 23 38  1  0
M  CHG  4   4  -1  17   1  19  -1  27  -1
M  END
>  <UniqueID>  (8) 
8

>  <SMILES>  (8) 
Cc1c([N-]S(=O)(=O)c2ccc(S(N)(=O)=O)c([N+](=O)[O-])c2)cccc1C(=O)[O-]

>  <Energy>  (8) 
53.3038880257609

>  <Genealogy>  (8) 
Cc1c([N-]S(=O)(=O)c2ccc(S(N)(=O)=O)c([N+](=O)[O-])c2)cccc1C(=O)[O-] (protonated)
Cc1c([N-]S(=O)(=O)c2ccc(S(N)(=O)=O)c([N+](=O)[O-])c2)cccc1C(=O)[O-] (3D coordinates assigned)
Cc1c([N-]S(=O)(=O)c2ccc(S(N)(=O)=O)c([N+](=O)[O-])c2)cccc1C(=O)[O-] (optimized conformer: 53.3038880257609 kcal/mol)

>  <smiles>  (8) 
Cc1c(NS(=O)(=O)c2ccc(S(N)(=O)=O)c([N+](=O)[O-])c2)cccc1C(=O)O

>  <score_type>  (8) 
oracle

>  <origin>  (8) 
adg

>  <m_score__min__energy>  (8) 
-11.76

>  <m_primary>  (8) 
energy

$$$$
8:0
     RDKit          3D

 54 56  0  0  0  0  0  0  0  0999 V2000
   61.8850   33.8780   50.0240 C   0  0  0  0  0  0  0  0  0  0  0  0
   60.6720   33.0680   49.8950 N   0  0  0  0  0  0  0  0  0  0  0  0
   59.6780   33.0710   50.9390 C   0  0  0  0  0  0  0  0  0  0  0  0
   59.8650   33.8370   52.1040 C   0  0  0  0  0  0  0  0  0  0  0  0
   58.9040   33.8300   53.1200 C   0  0  0  0  0  0  0  0  0  0  0  0
   57.7390   33.0730   52.9780 C   0  0  0  0  0  0  0  0  0  0  0  0
   57.5350   32.3200   51.8200 C   0  0  0  0  0  0  0  0  0  0  0  0
   58.4970   32.3170   50.8060 C   0  0  0  0  0  0  0  0  0  0  0  0
   60.4700   32.0970   48.4620 S   0  0  0  0  0  0  0  0  0  0  0  0
   61.5440   32.4670   47.4780 O   0  0  0  0  0  0  0  0  0  0  0  0
   59.1320   32.3750   47.8360 O   0  0  0  0  0  0  0  0  0  0  0  0
   60.5990   30.3790   48.8460 C   0  0  0  0  0  0  0  0  0  0  0  0
   60.1740   29.4070   47.9260 C   0  0  0  0  0  0  0  0  0  0  0  0
   60.1930   28.0440   48.2690 C   0  0  0  0  0  0  0  0  0  0  0  0
   59.7110   27.0270   47.3140 C   0  0  0  0  0  0  0  0  0  0  0  0
   60.4720   26.0870   46.9540 O   0  0  0  0  0  0  0  0  0  0  0  0
   58.4180   27.1300   46.7830 O   0  0  0  0  0  0  0  0  0  0  0  0
   58.0510   28.0670   45.7690 C   0  0  0  0  0  0  0  0  0  0  0  0
   56.5730   28.0230   45.4720 C   0  0  0  0  0  0  0  0  0  0  0  0
   55.9340   26.9660   45.7130 O   0  0  0  0  0  0  0  0  0  0  0  0
   55.8760   29.1350   44.8910 N   0  0  0  0  0  0  0  0  0  0  0  0
   56.5030   30.2420   44.2360 C   0  0  0  0  0  0  0  0  0  0  0  0
   56.5540   30.3140   42.8360 C   0  0  0  0  0  0  0  0  0  0  0  0
   57.1650   31.4050   42.2140 C   0  0  0  0  0  0  0  0  0  0  0  0
   57.7100   32.4350   42.9850 C   0  0  0  0  0  0  0  0  0  0  0  0
   57.6480   32.3800   44.3830 C   0  0  0  0  0  0  0  0  0  0  0  0
   58.2770   33.7180   45.3380 S   0  0  0  0  0  0  0  0  0  0  0  0
   59.9340   33.4170   45.7290 N   0  0  0  0  0  0  0  0  0  0  0  0
   58.1900   35.0000   44.5560 O   0  0  0  0  0  0  0  0  0  0  0  0
   57.4720   33.8540   46.5990 O   0  0  0  0  0  0  0  0  0  0  0  0
   57.0670   31.2650   45.0060 C   0  0  0  0  0  0  0  0  0  0  0  0
   60.6810   27.6610   49.5300 C   0  0  0  0  0  0  0  0  0  0  0  0
   61.1370   28.6250   50.4320 C   0  0  0  0  0  0  0  0  0  0  0  0
   61.0930   29.9790   50.0960 C   0  0  0  0  0  0  0  0  0  0  0  0
   61.5260   30.9000   50.9950 F   0  0  0  0  0  0  0  0  0  0  0  0
   62.1128   34.0301   51.0894 H   0  0  0  0  0  0  0  0  0  0  0  0
   62.7255   33.3593   49.5398 H   0  0  0  0  0  0  0  0  0  0  0  0
   61.7280   34.8531   49.5398 H   0  0  0  0  0  0  0  0  0  0  0  0
   60.7740   34.4461   52.2167 H   0  0  0  0  0  0  0  0  0  0  0  0
   59.0661   34.4220   54.0329 H   0  0  0  0  0  0  0  0  0  0  0  0
   56.9832   33.0700   53.7773 H   0  0  0  0  0  0  0  0  0  0  0  0
   56.6151   31.7278   51.7055 H   0  0  0  0  0  0  0  0  0  0  0  0
   58.3298   31.7207   49.8969 H   0  0  0  0  0  0  0  0  0  0  0  0
   59.8237   29.7145   46.9296 H   0  0  0  0  0  0  0  0  0  0  0  0
   58.3159   29.0795   46.1076 H   0  0  0  0  0  0  0  0  0  0  0  0
   58.5921   27.8029   44.8484 H   0  0  0  0  0  0  0  0  0  0  0  0
   56.1125   29.5108   42.2278 H   0  0  0  0  0  0  0  0  0  0  0  0
   57.2172   31.4535   41.1163 H   0  0  0  0  0  0  0  0  0  0  0  0
   58.1900   33.2930   42.4916 H   0  0  0  0  0  0  0  0  0  0  0  0
   60.1260   33.8910   46.6400 H   0  0  0  0  0  0  0  0  0  0  0  0
   60.0320   32.3900   45.8970 H   0  0  0  0  0  0  0  0  0  0  0  0
   57.0549   31.1950   46.1037 H   0  0  0  0  0  0  0  0  0  0  0  0
   60.7040   26.5969   49.8080 H   0  0  0  0  0  0  0  0  0  0  0  0
   61.5323   28.3159   51.4109 H   0  0  0  0  0  0  0  0  0  0  0  0
  1  2  1  0
  2  3  1  0
  3  4  2  0
  4  5  1  0
  5  6  2  0
  6  7  1  0
  7  8  2  0
  2  9  1  0
  9 10  2  0
  9 11  2  0
  9 12  1  0
 12 13  2  0
 13 14  1  0
 14 15  1  0
 15 16  2  0
 15 17  1  0
 17 18  1  0
 18 19  1  0
 19 20  2  0
 19 21  1  0
 21 22  1  0
 22 23  2  0
 23 24  1  0
 24 25  2  0
 25 26  1  0
 26 27  1  0
 27 28  1  0
 27 29  2  0
 27 30  2  0
 26 31  2  0
 14 32  2  0
 32 33  1  0
 33 34  2  0
 34 35  1  0
  8  3  1  0
 34 12  1  0
 31 22  1  0
  1 36  1  0
  1 37  1  0
  1 38  1  0
  4 39  1  0
  5 40  1  0
  6 41  1  0
  7 42  1  0
  8 43  1  0
 13 44  1  0
 18 45  1  0
 18 46  1  0
 23 47  1  0
 24 48  1  0
 25 49  1  0
 28 50  1  0
 28 51  1  0
 31 52  1  0
 32 53  1  0
 33 54  1  0
M  CHG  1  21  -1
M  END
>  <UniqueID>  (9) 
9

>  <SMILES>  (9) 
CN(c1ccccc1)S(=O)(=O)c1cc(C(=O)OCC(=O)[N-]c2cccc(S(N)(=O)=O)c2)ccc1F

>  <Energy>  (9) 
57.53088796445964

>  <Genealogy>  (9) 
CN(c1ccccc1)S(=O)(=O)c1cc(C(=O)OCC(=O)[N-]c2cccc(S(N)(=O)=O)c2)ccc1F (protonated)
CN(c1ccccc1)S(=O)(=O)c1cc(C(=O)OCC(=O)[N-]c2cccc(S(N)(=O)=O)c2)ccc1F (3D coordinates assigned)
CN(c1ccccc1)S(=O)(=O)c1cc(C(=O)OCC(=O)[N-]c2cccc(S(N)(=O)=O)c2)ccc1F (optimized conformer: 57.53088796445964 kcal/mol)

>  <smiles>  (9) 
CN(c1ccccc1)S(=O)(=O)c1cc(C(=O)OCC(=O)Nc2cccc(S(N)(=O)=O)c2)ccc1F

>  <score_type>  (9) 
oracle

>  <origin>  (9) 
adg

>  <m_score__min__energy>  (9) 
-12.33

>  <m_primary>  (9) 
energy

$$$$
9:0
     RDKit          3D

 40 42  0  0  0  0  0  0  0  0999 V2000
   53.7110   26.3580   46.2470 H   0  0  0  0  0  0  0  0  0  0  0  0
   54.4670   25.8440   45.7410 N   0  0  0  0  0  0  0  0  0  0  0  0
   55.5360   25.4470   46.3500 C   0  0  0  0  0  0  0  0  0  0  0  0
   56.5720   26.3060   46.5270 N   0  0  0  0  0  0  0  0  0  0  0  0
   57.6960   25.9010   47.1710 C   0  0  0  0  0  0  0  0  0  0  0  0
   58.6820   26.7390   47.3110 N   0  0  0  0  0  0  0  0  0  0  0  0
   58.7830   28.0550   46.7380 C   0  0  0  0  0  0  0  0  0  0  0  0
   59.9800   28.7650   46.8930 C   0  0  0  0  0  0  0  0  0  0  0  0
   60.8109   28.3182   47.4587 H   0  0  0  0  0  0  0  0  0  0  0  0
   60.1260   30.0370   46.3340 C   0  0  0  0  0  0  0  0  0  0  0  0
   61.0632   30.5952   46.4755 H   0  0  0  0  0  0  0  0  0  0  0  0
   59.0820   30.6010   45.5950 C   0  0  0  0  0  0  0  0  0  0  0  0
   59.1937   31.6086   45.1680 H   0  0  0  0  0  0  0  0  0  0  0  0
   57.8940   29.8860   45.3970 C   0  0  0  0  0  0  0  0  0  0  0  0
   56.5810   30.5850   44.4550 S   0  0  0  0  0  0  0  0  0  0  0  0
   56.9510   30.5880   42.9980 O   0  0  0  0  0  0  0  0  0  0  0  0
   56.3300   32.0010   44.8920 O   0  0  0  0  0  0  0  0  0  0  0  0
   55.1480   29.6480   44.6870 N   0  0  0  0  0  0  0  0  0  0  0  0
   55.2280   29.1950   45.6250 H   0  0  0  0  0  0  0  0  0  0  0  0
   57.7470   28.6130   45.9650 C   0  0  0  0  0  0  0  0  0  0  0  0
   56.8173   28.0470   45.8060 H   0  0  0  0  0  0  0  0  0  0  0  0
   57.7860   24.6200   47.6200 N   0  0  0  0  0  0  0  0  0  0  0  0
   56.7590   23.7530   47.4420 C   0  0  0  0  0  0  0  0  0  0  0  0
   56.8620   22.5410   47.9030 N   0  0  0  0  0  0  0  0  0  0  0  0
   56.4640   21.3460   47.2120 C   0  0  0  0  0  0  0  0  0  0  0  0
   55.2470   20.7470   47.5580 C   0  0  0  0  0  0  0  0  0  0  0  0
   54.6182   21.1993   48.3390 H   0  0  0  0  0  0  0  0  0  0  0  0
   54.8260   19.5800   46.9190 C   0  0  0  0  0  0  0  0  0  0  0  0
   53.8621   19.1232   47.1879 H   0  0  0  0  0  0  0  0  0  0  0  0
   55.6270   18.9920   45.9390 C   0  0  0  0  0  0  0  0  0  0  0  0
   55.2867   18.0803   45.4262 H   0  0  0  0  0  0  0  0  0  0  0  0
   56.8600   19.5590   45.6080 C   0  0  0  0  0  0  0  0  0  0  0  0
   57.4905   19.0871   44.8400 H   0  0  0  0  0  0  0  0  0  0  0  0
   57.3010   20.7330   46.2530 C   0  0  0  0  0  0  0  0  0  0  0  0
   58.5600   21.2940   45.9870 O   0  0  0  0  0  0  0  0  0  0  0  0
   58.8230   22.2370   44.9520 C   0  0  0  0  0  0  0  0  0  0  0  0
   59.0931   23.2054   45.3983 H   0  0  0  0  0  0  0  0  0  0  0  0
   59.6546   21.8755   44.3293 H   0  0  0  0  0  0  0  0  0  0  0  0
   57.9244   22.3581   44.3293 H   0  0  0  0  0  0  0  0  0  0  0  0
   55.6280   24.1740   46.8140 N   0  0  0  0  0  0  0  0  0  0  0  0
  1  2  1  0
  2  3  2  0
  3  4  1  0
  4  5  1  0
  5  6  2  3
  6  7  1  0
  7  8  2  0
  8  9  1  0
  8 10  1  0
 10 11  1  0
 10 12  2  0
 12 13  1  0
 12 14  1  0
 14 15  1  0
 15 16  2  0
 15 17  2  0
 15 18  1  0
 18 19  1  0
 14 20  2  0
 20 21  1  0
  5 22  1  0
 22 23  1  0
 23 24  2  0
 24 25  1  0
 25 26  2  0
 26 27  1  0
 26 28  1  0
 28 29  1  0
 28 30  2  0
 30 31  1  0
 30 32  1  0
 32 33  1  0
 32 34  2  0
 34 35  1  0
 35 36  1  0
 36 37  1  0
 36 38  1  0
 36 39  1  0
 23 40  1  0
 40  3  1  0
 20  7  1  0
 34 25  1  0
M  CHG  4   4  -1  18  -1  22  -1  40  -1
M  END
>  <UniqueID>  (10) 
10

>  <SMILES>  (10) 
[H]/N=c1/[n-]c(=Nc2cccc(S([NH-])(=O)=O)c2)[n-]/c(=N/c2ccccc2OC)[n-]1

>  <Energy>  (10) 
55.95881508219814

>  <Genealogy>  (10) 
COc1ccccc1N=c1[n-]c(=N)[n-]c(=Nc2cccc(S([NH-])(=O)=O)c2)[n-]1 (protonated)
[H]/N=c1/[n-]c(=Nc2cccc(S([NH-])(=O)=O)c2)[n-]/c(=N/c2ccccc2OC)[n-]1 (cis-trans isomerization)
[H]/N=c1/[n-]c(=Nc2cccc(S([NH-])(=O)=O)c2)[n-]/c(=N/c2ccccc2OC)[n-]1 (3D coordinates assigned)
[H]/N=c1/[n-]c(=Nc2cccc(S([NH-])(=O)=O)c2)[n-]/c(=N/c2ccccc2OC)[n-]1 (optimized conformer: 55.95881508219814 kcal/mol)

>  <smiles>  (10) 
COc1ccccc1N=c1[nH]c(=N)[nH]c(=Nc2cccc(S(N)(=O)=O)c2)[nH]1

>  <score_type>  (10) 
oracle

>  <origin>  (10) 
adg

>  <m_score__min__energy>  (10) 
-14.66

>  <m_primary>  (10) 
energy

$$$$
10:0
     RDKit          3D

 43 45  0  0  0  0  0  0  0  0999 V2000
   55.1490   29.3400   44.8470 N   0  0  0  0  0  0  0  0  0  0  0  0
   56.4100   28.9630   44.2980 C   0  0  0  0  0  0  0  0  0  0  0  0
   56.5800   29.0620   43.0530 O   0  0  0  0  0  0  0  0  0  0  0  0
   57.5120   28.4540   45.1640 C   0  0  0  0  0  0  0  0  0  0  0  0
   57.4280   27.1440   45.6750 C   0  0  0  0  0  0  0  0  0  0  0  0
   58.4320   26.6220   46.5060 C   0  0  0  0  0  0  0  0  0  0  0  0
   58.3320   25.2080   47.0270 C   0  0  0  0  0  0  0  0  0  0  0  0
   57.7700   24.2970   46.0060 N   0  0  0  0  0  0  0  0  0  0  0  0
   58.5850   23.4410   45.2930 C   0  0  0  0  0  0  0  0  0  0  0  0
   60.0050   23.3840   45.5090 N   0  0  0  0  0  0  0  0  0  0  0  0
   58.0320   22.5960   44.3270 C   0  0  0  0  0  0  0  0  0  0  0  0
   56.6640   22.6350   44.0940 C   0  0  0  0  0  0  0  0  0  0  0  0
   56.1500   21.8800   43.2260 O   0  0  0  0  0  0  0  0  0  0  0  0
   55.8850   23.4880   44.8020 N   0  0  0  0  0  0  0  0  0  0  0  0
   56.4170   24.3130   45.7440 C   0  0  0  0  0  0  0  0  0  0  0  0
   55.6490   25.0960   46.3690 O   0  0  0  0  0  0  0  0  0  0  0  0
   59.5570   27.4050   46.7910 C   0  0  0  0  0  0  0  0  0  0  0  0
   59.6580   28.7020   46.2910 C   0  0  0  0  0  0  0  0  0  0  0  0
   58.6370   29.2480   45.4930 C   0  0  0  0  0  0  0  0  0  0  0  0
   58.7520   30.5490   44.9790 O   0  0  0  0  0  0  0  0  0  0  0  0
   57.9350   31.6360   45.3230 C   0  0  0  0  0  0  0  0  0  0  0  0
   56.7230   31.6580   44.9730 O   0  0  0  0  0  0  0  0  0  0  0  0
   58.5170   32.7880   46.0470 C   0  0  0  0  0  0  0  0  0  0  0  0
   58.6800   32.7510   47.4440 C   0  0  0  0  0  0  0  0  0  0  0  0
   59.2330   33.8430   48.1210 C   0  0  0  0  0  0  0  0  0  0  0  0
   59.6280   34.9800   47.4120 C   0  0  0  0  0  0  0  0  0  0  0  0
   59.4710   35.0280   46.0250 C   0  0  0  0  0  0  0  0  0  0  0  0
   58.9200   33.9380   45.3430 C   0  0  0  0  0  0  0  0  0  0  0  0
   54.8870   30.3450   44.9550 H   0  0  0  0  0  0  0  0  0  0  0  0
   56.5601   26.5188   45.4183 H   0  0  0  0  0  0  0  0  0  0  0  0
   59.3365   24.8572   47.3061 H   0  0  0  0  0  0  0  0  0  0  0  0
   57.6625   25.2063   47.8998 H   0  0  0  0  0  0  0  0  0  0  0  0
   60.5710   22.6160   45.0830 H   0  0  0  0  0  0  0  0  0  0  0  0
   60.5270   24.0840   46.0750 H   0  0  0  0  0  0  0  0  0  0  0  0
   58.6736   21.9075   43.7575 H   0  0  0  0  0  0  0  0  0  0  0  0
   54.8560   23.5140   44.6180 H   0  0  0  0  0  0  0  0  0  0  0  0
   60.3658   26.9942   47.4131 H   0  0  0  0  0  0  0  0  0  0  0  0
   60.5474   29.3060   46.5235 H   0  0  0  0  0  0  0  0  0  0  0  0
   58.3708   31.8581   48.0071 H   0  0  0  0  0  0  0  0  0  0  0  0
   59.3570   33.8064   49.2134 H   0  0  0  0  0  0  0  0  0  0  0  0
   60.0628   35.8377   47.9462 H   0  0  0  0  0  0  0  0  0  0  0  0
   59.7811   35.9244   45.4680 H   0  0  0  0  0  0  0  0  0  0  0  0
   58.8010   33.9800   44.2503 H   0  0  0  0  0  0  0  0  0  0  0  0
  1  2  1  0
  2  3  2  0
  2  4  1  0
  4  5  2  0
  5  6  1  0
  6  7  1  0
  7  8  1  0
  8  9  1  0
  9 10  1  0
  9 11  2  0
 11 12  1  0
 12 13  2  0
 12 14  1  0
 14 15  1  0
 15 16  2  0
  6 17  2  0
 17 18  1  0
 18 19  2  0
 19 20  1  0
 20 21  1  0
 21 22  2  0
 21 23  1  0
 23 24  2  0
 24 25  1  0
 25 26  2  0
 26 27  1  0
 27 28  2  0
 19  4  1  0
 28 23  1  0
 15  8  1  0
  1 29  1  0
  5 30  1  0
  7 31  1  0
  7 32  1  0
 10 33  1  0
 10 34  1  0
 11 35  1  0
 14 36  1  0
 17 37  1  0
 18 38  1  0
 24 39  1  0
 25 40  1  0
 26 41  1  0
 27 42  1  0
 28 43  1  0
M  CHG  1   1  -1
M  END
>  <UniqueID>  (11) 
11

>  <SMILES>  (11) 
[NH-]C(=O)c1cc(Cn2c(N)cc(=O)[nH]c2=O)ccc1OC(=O)c1ccccc1

>  <Energy>  (11) 
58.3641550536332

>  <Genealogy>  (11) 
[NH-]C(=O)c1cc(Cn2c(N)cc(=O)[nH]c2=O)ccc1OC(=O)c1ccccc1 (protonated)
[NH-]C(=O)c1cc(Cn2c(N)cc(=O)[nH]c2=O)ccc1OC(=O)c1ccccc1 (3D coordinates assigned)
[NH-]C(=O)c1cc(Cn2c(N)cc(=O)[nH]c2=O)ccc1OC(=O)c1ccccc1 (optimized conformer: 58.3641550536332 kcal/mol)

>  <smiles>  (11) 
NC(=O)c1cc(Cn2c(N)cc(=O)[nH]c2=O)ccc1OC(=O)c1ccccc1

>  <score_type>  (11) 
oracle

>  <origin>  (11) 
adg

>  <m_score__min__energy>  (11) 
-12.1

>  <m_primary>  (11) 
energy

$$$$
11:0
     RDKit          3D

 62 66  0  0  0  0  0  0  0  0999 V2000
   55.4200   26.6740   45.9780 O   0  0  0  0  0  0  0  0  0  0  0  0
   56.6520   26.9500   45.9810 C   0  0  0  0  0  0  0  0  0  0  0  0
   57.6120   25.9150   46.2340 N   0  0  0  0  0  0  0  0  0  0  0  0
   57.2530   24.5470   46.5810 C   0  0  0  0  0  0  0  0  0  0  0  0
   57.0390   23.7240   45.3410 C   0  0  0  0  0  0  0  0  0  0  0  0
   56.0080   24.0500   44.4420 C   0  0  0  0  0  0  0  0  0  0  0  0
   55.8190   23.2920   43.2840 C   0  0  0  0  0  0  0  0  0  0  0  0
   56.6490   22.2000   43.0170 C   0  0  0  0  0  0  0  0  0  0  0  0
   57.6760   21.8690   43.9050 C   0  0  0  0  0  0  0  0  0  0  0  0
   57.8750   22.6280   45.0630 C   0  0  0  0  0  0  0  0  0  0  0  0
   57.1000   28.3340   45.7080 C   0  0  0  0  0  0  0  0  0  0  0  0
   56.8380   28.9400   44.4490 C   0  0  0  0  0  0  0  0  0  0  0  0
   57.2540   30.2550   44.1800 C   0  0  0  0  0  0  0  0  0  0  0  0
   57.9270   30.9430   45.1850 C   0  0  0  0  0  0  0  0  0  0  0  0
   58.3910   32.2380   45.2450 C   0  0  0  0  0  0  0  0  0  0  0  0
   58.3450   33.2780   44.3200 C   0  0  0  0  0  0  0  0  0  0  0  0
   58.8490   34.5280   44.7160 C   0  0  0  0  0  0  0  0  0  0  0  0
   59.3760   34.7110   46.0140 C   0  0  0  0  0  0  0  0  0  0  0  0
   59.4150   33.6430   46.9270 C   0  0  0  0  0  0  0  0  0  0  0  0
   58.9170   32.4040   46.5120 C   0  0  0  0  0  0  0  0  0  0  0  0
   58.8200   31.2580   47.2340 N   0  0  0  0  0  0  0  0  0  0  0  0
   59.2000   31.0600   48.6370 C   0  0  0  0  0  0  0  0  0  0  0  0
   60.4180   30.1330   48.7250 C   0  0  0  0  0  0  0  0  0  0  0  0
   61.4330   30.4530   47.6070 C   0  0  0  0  0  0  0  0  0  0  0  0
   62.4920   31.4040   48.0110 N   0  0  0  0  0  0  0  0  0  0  0  0
   62.5780   32.5910   47.1280 C   0  0  0  0  0  0  0  0  0  0  0  0
   63.4530   33.6850   47.7450 C   0  0  0  0  0  0  0  0  0  0  0  0
   62.8670   34.1740   49.0800 C   0  0  0  0  0  0  0  0  0  0  0  0
   62.0610   33.0880   49.8190 C   0  0  0  0  0  0  0  0  0  0  0  0
   62.5600   31.6800   49.4670 C   0  0  0  0  0  0  0  0  0  0  0  0
   58.1930   30.3750   46.4150 C   0  0  0  0  0  0  0  0  0  0  0  0
   57.7840   29.0670   46.7060 C   0  0  0  0  0  0  0  0  0  0  0  0
   58.0636   24.1005   47.1755 H   0  0  0  0  0  0  0  0  0  0  0  0
   56.3187   24.5624   47.1614 H   0  0  0  0  0  0  0  0  0  0  0  0
   55.3481   24.9048   44.6514 H   0  0  0  0  0  0  0  0  0  0  0  0
   55.0151   23.5553   42.5808 H   0  0  0  0  0  0  0  0  0  0  0  0
   56.4939   21.6008   42.1076 H   0  0  0  0  0  0  0  0  0  0  0  0
   58.3293   21.0098   43.6929 H   0  0  0  0  0  0  0  0  0  0  0  0
   58.6871   22.3670   45.7576 H   0  0  0  0  0  0  0  0  0  0  0  0
   56.3021   28.3716   43.6746 H   0  0  0  0  0  0  0  0  0  0  0  0
   57.0540   30.7255   43.2060 H   0  0  0  0  0  0  0  0  0  0  0  0
   57.9282   33.1258   43.3135 H   0  0  0  0  0  0  0  0  0  0  0  0
   58.8332   35.3712   44.0097 H   0  0  0  0  0  0  0  0  0  0  0  0
   59.7591   35.6979   46.3127 H   0  0  0  0  0  0  0  0  0  0  0  0
   59.8254   33.7779   47.9386 H   0  0  0  0  0  0  0  0  0  0  0  0
   59.4489   32.0321   49.0876 H   0  0  0  0  0  0  0  0  0  0  0  0
   58.3584   30.6025   49.1777 H   0  0  0  0  0  0  0  0  0  0  0  0
   60.9039   30.2680   49.7026 H   0  0  0  0  0  0  0  0  0  0  0  0
   60.0789   29.0934   48.6060 H   0  0  0  0  0  0  0  0  0  0  0  0
   61.9123   29.5132   47.2954 H   0  0  0  0  0  0  0  0  0  0  0  0
   60.8694   30.9310   46.7922 H   0  0  0  0  0  0  0  0  0  0  0  0
   63.0109   32.2884   46.1631 H   0  0  0  0  0  0  0  0  0  0  0  0
   61.5639   32.9950   46.9919 H   0  0  0  0  0  0  0  0  0  0  0  0
   64.4613   33.2821   47.9211 H   0  0  0  0  0  0  0  0  0  0  0  0
   63.4932   34.5353   47.0483 H   0  0  0  0  0  0  0  0  0  0  0  0
   63.6946   34.4979   49.7282 H   0  0  0  0  0  0  0  0  0  0  0  0
   62.1755   34.9988   48.8528 H   0  0  0  0  0  0  0  0  0  0  0  0
   62.1632   33.2428   50.9033 H   0  0  0  0  0  0  0  0  0  0  0  0
   61.0086   33.1686   49.5094 H   0  0  0  0  0  0  0  0  0  0  0  0
   63.6049   31.5828   49.7966 H   0  0  0  0  0  0  0  0  0  0  0  0
   61.9077   30.9556   49.9767 H   0  0  0  0  0  0  0  0  0  0  0  0
   57.9903   28.6196   47.6895 H   0  0  0  0  0  0  0  0  0  0  0  0
  1  2  2  0
  2  3  1  0
  3  4  1  0
  4  5  1  0
  5  6  2  0
  6  7  1  0
  7  8  2  0
  8  9  1  0
  9 10  2  0
  2 11  1  0
 11 12  2  0
 12 13  1  0
 13 14  2  0
 14 15  1  0
 15 16  2  0
 16 17  1  0
 17 18  2  0
 18 19  1  0
 19 20  2  0
 20 21  1  0
 21 22  1  0
 22 23  1  0
 23 24  1  0
 24 25  1  0
 25 26  1  0
 26 27  1  0
 27 28  1  0
 28 29  1  0
 29 30  1  0
 21 31  1  0
 31 32  2  0
 10  5  1  0
 32 11  1  0
 31 14  1  0
 20 15  1  0
 30 25  1  0
  4 33  1  0
  4 34  1  0
  6 35  1  0
  7 36  1  0
  8 37  1  0
  9 38  1  0
 10 39  1  0
 12 40  1  0
 13 41  1  0
 16 42  1  0
 17 43  1  0
 18 44  1  0
 19 45  1  0
 22 46  1  0
 22 47  1  0
 23 48  1  0
 23 49  1  0
 24 50  1  0
 24 51  1  0
 26 52  1  0
 26 53  1  0
 27 54  1  0
 27 55  1  0
 28 56  1  0
 28 57  1  0
 29 58  1  0
 29 59  1  0
 30 60  1  0
 30 61  1  0
 32 62  1  0
M  CHG  1   3  -1
M  END
>  <UniqueID>  (12) 
12

>  <SMILES>  (12) 
O=C([N-]Cc1ccccc1)c1ccc2c3ccccc3n(CCCN3CCCCC3)c2c1

>  <Energy>  (12) 
112.5240099285913

>  <Genealogy>  (12) 
O=C([N-]Cc1ccccc1)c1ccc2c3ccccc3n(CCCN3CCCCC3)c2c1 (protonated)
O=C([N-]Cc1ccccc1)c1ccc2c3ccccc3n(CCCN3CCCCC3)c2c1 (3D coordinates assigned)
O=C([N-]Cc1ccccc1)c1ccc2c3ccccc3n(CCCN3CCCCC3)c2c1 (nonaromatic ring conformer: 112.5240099285913 kcal/mol)

>  <smiles>  (12) 
O=C(NCc1ccccc1)c1ccc2c3ccccc3n(CCCN3CCCCC3)c2c1

>  <score_type>  (12) 
oracle

>  <origin>  (12) 
adg

>  <m_score__min__energy>  (12) 
-11.800000000000001

>  <m_primary>  (12) 
energy

$$$$
12:0
     RDKit          3D

 26 28  0  0  0  0  0  0  0  0999 V2000
   55.1550   29.7190   43.7440 S   0  0  0  0  0  0  0  0  0  0  0  0
   56.4410   29.8540   44.7400 C   0  0  0  0  0  0  0  0  0  0  0  0
   56.9450   28.7510   45.3480 N   0  0  0  0  0  0  0  0  0  0  0  0
   58.0190   28.8350   46.1750 C   0  0  0  0  0  0  0  0  0  0  0  0
   58.5160   27.7080   46.7570 N   0  0  0  0  0  0  0  0  0  0  0  0
   59.6100   27.7490   47.5640 C   0  0  0  0  0  0  0  0  0  0  0  0
   60.2600   28.9590   47.8080 C   0  0  0  0  0  0  0  0  0  0  0  0
   59.7740   30.1310   47.2280 C   0  0  0  0  0  0  0  0  0  0  0  0
   58.6270   30.0880   46.4140 C   0  0  0  0  0  0  0  0  0  0  0  0
   58.0680   31.2280   45.7910 C   0  0  0  0  0  0  0  0  0  0  0  0
   58.5840   32.5960   46.0010 C   0  0  0  0  0  0  0  0  0  0  0  0
   58.7940   33.0930   47.3000 C   0  0  0  0  0  0  0  0  0  0  0  0
   59.2490   34.4010   47.4880 C   0  0  0  0  0  0  0  0  0  0  0  0
   59.4820   35.2270   46.3850 C   0  0  0  0  0  0  0  0  0  0  0  0
   59.2540   34.7480   45.0930 C   0  0  0  0  0  0  0  0  0  0  0  0
   58.7990   33.4390   44.9000 C   0  0  0  0  0  0  0  0  0  0  0  0
   57.0000   31.0700   44.9630 N   0  0  0  0  0  0  0  0  0  0  0  0
   58.0550   26.7870   46.5780 H   0  0  0  0  0  0  0  0  0  0  0  0
   59.9841   26.8237   48.0265 H   0  0  0  0  0  0  0  0  0  0  0  0
   61.1501   28.9888   48.4536 H   0  0  0  0  0  0  0  0  0  0  0  0
   60.2868   31.0876   47.4068 H   0  0  0  0  0  0  0  0  0  0  0  0
   58.5994   32.4499   48.1710 H   0  0  0  0  0  0  0  0  0  0  0  0
   59.4240   34.7808   48.5054 H   0  0  0  0  0  0  0  0  0  0  0  0
   59.8450   36.2546   46.5344 H   0  0  0  0  0  0  0  0  0  0  0  0
   59.4324   35.4008   44.2258 H   0  0  0  0  0  0  0  0  0  0  0  0
   58.6091   33.0694   43.8815 H   0  0  0  0  0  0  0  0  0  0  0  0
  1  2  2  0
  2  3  1  0
  3  4  2  0
  4  5  1  0
  5  6  2  0
  6  7  1  0
  7  8  2  0
  8  9  1  0
  9 10  2  0
 10 11  1  0
 11 12  2  0
 12 13  1  0
 13 14  2  0
 14 15  1  0
 15 16  2  0
 10 17  1  0
 17  2  1  0
  9  4  1  0
 16 11  1  0
  5 18  1  0
  6 19  1  0
  7 20  1  0
  8 21  1  0
 12 22  1  0
 13 23  1  0
 14 24  1  0
 15 25  1  0
 16 26  1  0
M  CHG  2   5   1  17  -1
M  END
>  <UniqueID>  (13) 
13

>  <SMILES>  (13) 
S=c1nc2[nH+]cccc2c(-c2ccccc2)[n-]1

>  <Energy>  (13) 
40.30377450678173

>  <Genealogy>  (13) 
S=c1nc2[nH+]cccc2c(-c2ccccc2)[n-]1 (protonated)
S=c1nc2[nH+]cccc2c(-c2ccccc2)[n-]1 (3D coordinates assigned)
S=c1nc2[nH+]cccc2c(-c2ccccc2)[n-]1 (optimized conformer: 40.30377450678173 kcal/mol)

>  <smiles>  (13) 
S=c1nc2ncccc2c(-c2ccccc2)[nH]1

>  <score_type>  (13) 
oracle

>  <origin>  (13) 
adg

>  <m_score__min__energy>  (13) 
-7.25

>  <m_primary>  (13) 
energy

$$$$
13:0
     RDKit          3D

 17 16  0  0  0  0  0  0  0  0999 V2000
   56.7650   29.4620   52.2270 N   0  0  0  0  0  0  0  0  0  0  0  0
   55.8460   30.5960   52.2610 C   0  0  0  0  0  0  0  0  0  0  0  0
   54.4480   30.1640   51.9240 C   0  0  0  0  0  0  0  0  0  0  0  0
   54.0420   29.0310   52.2990 O   0  0  0  0  0  0  0  0  0  0  0  0
   53.5720   31.0510   51.2140 N   0  0  0  0  0  0  0  0  0  0  0  0
   52.1850   30.7100   50.9080 C   0  0  0  0  0  0  0  0  0  0  0  0
   51.3950   31.9640   50.5380 C   0  0  0  0  0  0  0  0  0  0  0  0
   50.6940   32.7030   51.9990 S   0  0  0  0  0  0  0  0  0  0  0  0
   57.0860   29.3180   51.2410 H   0  0  0  0  0  0  0  0  0  0  0  0
   56.2500   28.6000   52.5210 H   0  0  0  0  0  0  0  0  0  0  0  0
   55.8538   31.0356   53.2693 H   0  0  0  0  0  0  0  0  0  0  0  0
   56.1739   31.3361   51.5163 H   0  0  0  0  0  0  0  0  0  0  0  0
   53.9500   31.9600   50.8630 H   0  0  0  0  0  0  0  0  0  0  0  0
   52.1632   30.0060   50.0631 H   0  0  0  0  0  0  0  0  0  0  0  0
   51.7273   30.2504   51.7964 H   0  0  0  0  0  0  0  0  0  0  0  0
   52.0671   32.6866   50.0521 H   0  0  0  0  0  0  0  0  0  0  0  0
   50.5821   31.6863   49.8510 H   0  0  0  0  0  0  0  0  0  0  0  0
  1  2  1  0
  2  3  1  0
  3  4  2  0
  3  5  1  0
  5  6  1  0
  6  7  1  0
  7  8  1  0
  1  9  1  0
  1 10  1  0
  2 11  1  0
  2 12  1  0
  5 13  1  0
  6 14  1  0
  6 15  1  0
  7 16  1  0
  7 17  1  0
M  CHG  1   8  -1
M  END
>  <UniqueID>  (14) 
14

>  <SMILES>  (14) 
NCC(=O)NCC[S-]

>  <Energy>  (14) 
5.423360721472192

>  <Genealogy>  (14) 
NCC(=O)NCC[S-] (protonated)
NCC(=O)NCC[S-] (3D coordinates assigned)
NCC(=O)NCC[S-] (optimized conformer: 5.423360721472192 kcal/mol)

>  <smiles>  (14) 
NCC(=O)NCCS

>  <score_type>  (14) 
oracle

>  <origin>  (14) 
adg

>  <m_score__min__energy>  (14) 
-6.54

>  <m_primary>  (14) 
energy

$$$$
14:0
     RDKit          3D

 39 40  0  0  0  0  0  0  0  0999 V2000
   57.4400   34.1870   45.1950 C   0  0  0  0  0  0  0  0  0  0  0  0
   58.5970   34.0090   46.0850 N   0  0  0  0  0  0  0  0  0  0  0  0
   59.5540   35.1100   45.8800 C   0  0  0  0  0  0  0  0  0  0  0  0
   59.2350   32.6970   45.8390 C   0  0  0  0  0  0  0  0  0  0  0  0
   59.3920   31.9100   47.1260 C   0  0  0  0  0  0  0  0  0  0  0  0
   59.0140   32.5170   48.3390 C   0  0  0  0  0  0  0  0  0  0  0  0
   59.0650   31.8090   49.5400 C   0  0  0  0  0  0  0  0  0  0  0  0
   59.4610   30.4740   49.5460 C   0  0  0  0  0  0  0  0  0  0  0  0
   59.8090   29.8430   48.3510 C   0  0  0  0  0  0  0  0  0  0  0  0
   59.7920   30.5480   47.1390 C   0  0  0  0  0  0  0  0  0  0  0  0
   60.2210   29.6460   45.6350 S   0  0  0  0  0  0  0  0  0  0  0  0
   58.7070   28.6660   45.6320 C   0  0  0  0  0  0  0  0  0  0  0  0
   58.7570   27.3730   46.1640 C   0  0  0  0  0  0  0  0  0  0  0  0
   57.5990   26.6030   46.2770 C   0  0  0  0  0  0  0  0  0  0  0  0
   56.3650   27.1190   45.8560 C   0  0  0  0  0  0  0  0  0  0  0  0
   55.1510   26.3580   45.9440 N   0  0  0  0  0  0  0  0  0  0  0  0
   54.9930   24.9680   45.6350 C   0  0  0  0  0  0  0  0  0  0  0  0
   54.7410   24.1230   46.5340 O   0  0  0  0  0  0  0  0  0  0  0  0
   56.3200   28.3850   45.2620 C   0  0  0  0  0  0  0  0  0  0  0  0
   57.4830   29.1660   45.1280 C   0  0  0  0  0  0  0  0  0  0  0  0
   57.4020   30.4430   44.4690 N   0  0  0  0  0  0  0  0  0  0  0  0
   56.4120   31.1810   44.6510 O   0  0  0  0  0  0  0  0  0  0  0  0
   58.3180   30.7910   43.5050 O   0  0  0  0  0  0  0  0  0  0  0  0
   56.5311   34.3268   45.7987 H   0  0  0  0  0  0  0  0  0  0  0  0
   57.5983   35.0714   44.5603 H   0  0  0  0  0  0  0  0  0  0  0  0
   57.3251   33.2960   44.5603 H   0  0  0  0  0  0  0  0  0  0  0  0
   59.8869   35.4930   46.8560 H   0  0  0  0  0  0  0  0  0  0  0  0
   60.4227   34.7404   45.3155 H   0  0  0  0  0  0  0  0  0  0  0  0
   59.0670   35.9188   45.3155 H   0  0  0  0  0  0  0  0  0  0  0  0
   58.6108   32.1205   45.1404 H   0  0  0  0  0  0  0  0  0  0  0  0
   60.2348   32.8715   45.4148 H   0  0  0  0  0  0  0  0  0  0  0  0
   58.6740   33.5631   48.3396 H   0  0  0  0  0  0  0  0  0  0  0  0
   58.7922   32.3056   50.4828 H   0  0  0  0  0  0  0  0  0  0  0  0
   59.4995   29.9164   50.4934 H   0  0  0  0  0  0  0  0  0  0  0  0
   60.0995   28.7821   48.3599 H   0  0  0  0  0  0  0  0  0  0  0  0
   59.7201   26.9588   46.4969 H   0  0  0  0  0  0  0  0  0  0  0  0
   57.6542   25.5881   46.6976 H   0  0  0  0  0  0  0  0  0  0  0  0
   55.0938   24.6324   44.5923 H   0  0  0  0  0  0  0  0  0  0  0  0
   55.3601   28.7762   44.8938 H   0  0  0  0  0  0  0  0  0  0  0  0
  1  2  1  0
  2  3  1  0
  2  4  1  0
  4  5  1  0
  5  6  2  0
  6  7  1  0
  7  8  2  0
  8  9  1  0
  9 10  2  0
 10 11  1  0
 11 12  1  0
 12 13  2  0
 13 14  1  0
 14 15  2  0
 15 16  1  0
 16 17  1  0
 17 18  2  0
 15 19  1  0
 19 20  2  0
 20 21  1  0
 21 22  2  0
 21 23  1  0
 10  5  1  0
 20 12  1  0
  1 24  1  0
  1 25  1  0
  1 26  1  0
  3 27  1  0
  3 28  1  0
  3 29  1  0
  4 30  1  0
  4 31  1  0
  6 32  1  0
  7 33  1  0
  8 34  1  0
  9 35  1  0
 13 36  1  0
 14 37  1  0
 17 38  1  0
 19 39  1  0
M  CHG  3  16  -1  21   1  23  -1
M  END
>  <UniqueID>  (15) 
15

>  <SMILES>  (15) 
CN(C)Cc1ccccc1Sc1ccc([N-]C=O)cc1[N+](=O)[O-]

>  <Energy>  (15) 
45.013382390630895

>  <Genealogy>  (15) 
CN(C)Cc1ccccc1Sc1ccc([N-]C=O)cc1[N+](=O)[O-] (protonated)
CN(C)Cc1ccccc1Sc1ccc([N-]C=O)cc1[N+](=O)[O-] (3D coordinates assigned)
CN(C)Cc1ccccc1Sc1ccc([N-]C=O)cc1[N+](=O)[O-] (optimized conformer: 45.013382390630895 kcal/mol)

>  <smiles>  (15) 
CN(C)Cc1ccccc1Sc1ccc(NC=O)cc1[N+](=O)[O-]

>  <score_type>  (15) 
oracle

>  <origin>  (15) 
adg

>  <m_score__min__energy>  (15) 
-9.1600000000000001

>  <m_primary>  (15) 
energy

$$$$
15:0
     RDKit          3D

 40 42  0  0  0  0  0  0  0  0999 V2000
   55.9070   25.7040   46.2320 C   0  0  0  0  0  0  0  0  0  0  0  0
   56.8310   26.7660   45.8370 N   0  0  0  0  0  0  0  0  0  0  0  0
   56.3350   27.8620   45.2560 N   0  0  0  0  0  0  0  0  0  0  0  0
   57.1200   28.9030   44.8710 C   0  0  0  0  0  0  0  0  0  0  0  0
   56.5100   30.0920   44.2330 C   0  0  0  0  0  0  0  0  0  0  0  0
   55.8470   29.9560   43.1710 O   0  0  0  0  0  0  0  0  0  0  0  0
   56.5910   31.3930   44.8310 N   0  0  0  0  0  0  0  0  0  0  0  0
   57.7390   31.9530   45.4840 C   0  0  0  0  0  0  0  0  0  0  0  0
   58.1690   31.3980   46.6940 C   0  0  0  0  0  0  0  0  0  0  0  0
   59.2800   31.9240   47.3580 C   0  0  0  0  0  0  0  0  0  0  0  0
   59.9660   33.0320   46.8300 C   0  0  0  0  0  0  0  0  0  0  0  0
   61.1190   33.5720   47.5030 N   0  0  0  0  0  0  0  0  0  0  0  0
   62.3550   33.8220   46.7540 C   0  0  0  0  0  0  0  0  0  0  0  0
   63.5580   33.7130   47.6960 C   0  0  0  0  0  0  0  0  0  0  0  0
   63.3830   34.5410   48.8310 O   0  0  0  0  0  0  0  0  0  0  0  0
   62.2860   34.0780   49.5970 C   0  0  0  0  0  0  0  0  0  0  0  0
   60.9780   34.2150   48.8120 C   0  0  0  0  0  0  0  0  0  0  0  0
   59.5170   33.6030   45.6280 C   0  0  0  0  0  0  0  0  0  0  0  0
   58.4070   33.0750   44.9650 C   0  0  0  0  0  0  0  0  0  0  0  0
   58.5010   28.8160   45.0700 C   0  0  0  0  0  0  0  0  0  0  0  0
   59.0350   27.6780   45.6700 C   0  0  0  0  0  0  0  0  0  0  0  0
   60.7690   27.5640   45.9310 Cl  0  0  0  0  0  0  0  0  0  0  0  0
   58.1760   26.6430   46.0560 C   0  0  0  0  0  0  0  0  0  0  0  0
   58.6460   25.6080   46.6030 O   0  0  0  0  0  0  0  0  0  0  0  0
   55.8592   25.6490   47.3296 H   0  0  0  0  0  0  0  0  0  0  0  0
   54.9057   25.9215   45.8318 H   0  0  0  0  0  0  0  0  0  0  0  0
   56.2609   24.7424   45.8318 H   0  0  0  0  0  0  0  0  0  0  0  0
   57.6290   30.5422   47.1253 H   0  0  0  0  0  0  0  0  0  0  0  0
   59.6202   31.4685   48.2997 H   0  0  0  0  0  0  0  0  0  0  0  0
   62.4519   33.0786   45.9490 H   0  0  0  0  0  0  0  0  0  0  0  0
   62.3212   34.8323   46.3203 H   0  0  0  0  0  0  0  0  0  0  0  0
   63.6658   32.6687   48.0243 H   0  0  0  0  0  0  0  0  0  0  0  0
   64.4595   34.0391   47.1566 H   0  0  0  0  0  0  0  0  0  0  0  0
   62.4448   33.0196   49.8513 H   0  0  0  0  0  0  0  0  0  0  0  0
   62.2135   34.6848   50.5116 H   0  0  0  0  0  0  0  0  0  0  0  0
   60.1634   33.7315   49.3712 H   0  0  0  0  0  0  0  0  0  0  0  0
   60.7470   35.2813   48.6715 H   0  0  0  0  0  0  0  0  0  0  0  0
   60.0431   34.4719   45.2059 H   0  0  0  0  0  0  0  0  0  0  0  0
   58.0541   33.5395   44.0324 H   0  0  0  0  0  0  0  0  0  0  0  0
   59.1600   29.6388   44.7556 H   0  0  0  0  0  0  0  0  0  0  0  0
  1  2  1  0
  2  3  1  0
  3  4  2  0
  4  5  1  0
  5  6  2  0
  5  7  1  0
  7  8  1  0
  8  9  2  0
  9 10  1  0
 10 11  2  0
 11 12  1  0
 12 13  1  0
 13 14  1  0
 14 15  1  0
 15 16  1  0
 16 17  1  0
 11 18  1  0
 18 19  2  0
  4 20  1  0
 20 21  2  0
 21 22  1  0
 21 23  1  0
 23 24  2  0
 23  2  1  0
 19  8  1  0
 17 12  1  0
  1 25  1  0
  1 26  1  0
  1 27  1  0
  9 28  1  0
 10 29  1  0
 13 30  1  0
 13 31  1  0
 14 32  1  0
 14 33  1  0
 16 34  1  0
 16 35  1  0
 17 36  1  0
 17 37  1  0
 18 38  1  0
 19 39  1  0
 20 40  1  0
M  CHG  1   7  -1
M  END
>  <UniqueID>  (16) 
16

>  <SMILES>  (16) 
Cn1nc(C(=O)[N-]c2ccc(N3CCOCC3)cc2)cc(Cl)c1=O

>  <Energy>  (16) 
53.278516346219845

>  <Genealogy>  (16) 
Cn1nc(C(=O)[N-]c2ccc(N3CCOCC3)cc2)cc(Cl)c1=O (protonated)
Cn1nc(C(=O)[N-]c2ccc(N3CCOCC3)cc2)cc(Cl)c1=O (3D coordinates assigned)
Cn1nc(C(=O)[N-]c2ccc(N3CCOCC3)cc2)cc(Cl)c1=O (nonaromatic ring conformer: 53.278516346219845 kcal/mol)

>  <smiles>  (16) 
Cn1nc(C(=O)Nc2ccc(N3CCOCC3)cc2)cc(Cl)c1=O

>  <score_type>  (16) 
oracle

>  <origin>  (16) 
adg

>  <m_score__min__energy>  (16) 
-8.9900000000000002

>  <m_primary>  (16) 
energy

$$$$
16:0
     RDKit          3D

 35 36  0  0  0  0  0  0  0  0999 V2000
   57.7390   31.8380   42.7550 C   0  0  0  0  0  0  0  0  0  0  0  0
   57.6000   32.0260   44.2710 C   0  0  1  0  0  0  0  0  0  0  0  0
   57.5150   33.5100   44.6800 C   0  0  0  0  0  0  0  0  0  0  0  0
   58.3120   33.7940   45.9280 C   0  0  0  0  0  0  0  0  0  0  0  0
   58.1290   33.0190   47.0830 C   0  0  0  0  0  0  0  0  0  0  0  0
   58.8890   33.2760   48.2250 C   0  0  0  0  0  0  0  0  0  0  0  0
   59.8320   34.3040   48.2000 C   0  0  0  0  0  0  0  0  0  0  0  0
   60.0070   35.0430   47.0720 N   0  0  0  0  0  0  0  0  0  0  0  0
   59.2780   34.8130   45.9480 C   0  0  0  0  0  0  0  0  0  0  0  0
   56.4450   31.2830   44.7800 N   0  0  0  0  0  0  0  0  0  0  0  0
   56.3190   29.8560   44.8440 C   0  0  0  0  0  0  0  0  0  0  0  0
   55.1790   29.3170   44.8570 O   0  0  0  0  0  0  0  0  0  0  0  0
   57.5050   29.0510   44.8500 N   0  0  0  0  0  0  0  0  0  0  0  0
   57.5220   27.6360   45.1070 C   0  0  0  0  0  0  0  0  0  0  0  0
   57.7710   26.7480   44.0490 C   0  0  0  0  0  0  0  0  0  0  0  0
   57.8160   25.3690   44.2770 C   0  0  0  0  0  0  0  0  0  0  0  0
   57.6270   24.8670   45.5670 C   0  0  0  0  0  0  0  0  0  0  0  0
   57.4020   25.7430   46.6330 C   0  0  0  0  0  0  0  0  0  0  0  0
   57.2390   25.2560   47.8870 F   0  0  0  0  0  0  0  0  0  0  0  0
   57.3560   27.1230   46.4070 C   0  0  0  0  0  0  0  0  0  0  0  0
   58.3816   30.9689   42.5507 H   0  0  0  0  0  0  0  0  0  0  0  0
   56.7454   31.6712   42.3136 H   0  0  0  0  0  0  0  0  0  0  0  0
   58.1897   32.7391   42.3136 H   0  0  0  0  0  0  0  0  0  0  0  0
   58.5155   31.6215   44.7274 H   0  0  0  0  0  0  0  0  0  0  0  0
   57.9068   34.1285   43.8590 H   0  0  0  0  0  0  0  0  0  0  0  0
   56.4610   33.7477   44.8863 H   0  0  0  0  0  0  0  0  0  0  0  0
   57.3858   32.2080   47.0885 H   0  0  0  0  0  0  0  0  0  0  0  0
   58.7461   32.6746   49.1349 H   0  0  0  0  0  0  0  0  0  0  0  0
   60.4353   34.5172   49.0948 H   0  0  0  0  0  0  0  0  0  0  0  0
   59.4454   35.4272   45.0510 H   0  0  0  0  0  0  0  0  0  0  0  0
   58.4000   29.5120   44.5660 H   0  0  0  0  0  0  0  0  0  0  0  0
   57.9318   27.1394   43.0336 H   0  0  0  0  0  0  0  0  0  0  0  0
   58.0003   24.6792   43.4402 H   0  0  0  0  0  0  0  0  0  0  0  0
   57.6552   23.7817   45.7440 H   0  0  0  0  0  0  0  0  0  0  0  0
   57.1893   27.8103   47.2495 H   0  0  0  0  0  0  0  0  0  0  0  0
  1  2  1  0
  2  3  1  0
  3  4  1  0
  4  5  2  0
  5  6  1  0
  6  7  2  0
  7  8  1  0
  8  9  2  0
  2 10  1  0
 10 11  1  0
 11 12  2  0
 11 13  1  0
 13 14  1  0
 14 15  2  0
 15 16  1  0
 16 17  2  0
 17 18  1  0
 18 19  1  0
 18 20  2  0
  9  4  1  0
 20 14  1  0
  1 21  1  0
  1 22  1  0
  1 23  1  0
  2 24  1  1
  3 25  1  0
  3 26  1  0
  5 27  1  0
  6 28  1  0
  7 29  1  0
  9 30  1  0
 13 31  1  0
 15 32  1  0
 16 33  1  0
 17 34  1  0
 20 35  1  0
M  CHG  1  10  -1
M  END
>  <UniqueID>  (17) 
17

>  <SMILES>  (17) 
C[C@@H](Cc1cccnc1)[N-]C(=O)Nc1cccc(F)c1

>  <Energy>  (17) 
35.08813249988643

>  <Genealogy>  (17) 
CC(Cc1cccnc1)[N-]C(=O)Nc1cccc(F)c1 (protonated)
C[C@@H](Cc1cccnc1)[N-]C(=O)Nc1cccc(F)c1 (chirality)
C[C@@H](Cc1cccnc1)[N-]C(=O)Nc1cccc(F)c1 (3D coordinates assigned)
C[C@@H](Cc1cccnc1)[N-]C(=O)Nc1cccc(F)c1 (optimized conformer: 35.08813249988643 kcal/mol)

>  <smiles>  (17) 
CC(Cc1cccnc1)NC(=O)Nc1cccc(F)c1

>  <score_type>  (17) 
oracle

>  <origin>  (17) 
adg

>  <m_score__min__energy>  (17) 
-9.0199999999999996

>  <m_primary>  (17) 
energy

$$$$
17:0
     RDKit          3D

 49 52  0  0  0  0  0  0  0  0999 V2000
   55.3300   26.3140   46.0210 N   0  0  0  0  0  0  0  0  0  0  0  0
   55.2380   24.5960   45.8630 S   0  0  0  0  0  0  0  0  0  0  0  0
   54.7370   23.9970   47.1480 O   0  0  0  0  0  0  0  0  0  0  0  0
   54.2550   24.2540   44.7800 O   0  0  0  0  0  0  0  0  0  0  0  0
   56.8450   23.9480   45.4630 C   0  0  0  0  0  0  0  0  0  0  0  0
   58.0320   24.5980   45.8930 C   0  0  0  0  0  0  0  0  0  0  0  0
   57.9770   25.8620   46.5740 N   0  0  0  0  0  0  0  0  0  0  0  0
   59.1530   26.6150   46.9140 C   0  0  0  0  0  0  0  0  0  0  0  0
   60.2810   26.0490   46.8950 O   0  0  0  0  0  0  0  0  0  0  0  0
   59.0580   28.0350   47.3280 C   0  0  0  0  0  0  0  0  0  0  0  0
   58.6490   29.0300   46.4200 C   0  0  0  0  0  0  0  0  0  0  0  0
   58.5660   30.3650   46.8230 C   0  0  0  0  0  0  0  0  0  0  0  0
   58.8990   30.7310   48.1330 C   0  0  0  0  0  0  0  0  0  0  0  0
   58.7680   32.4090   48.6570 S   0  0  0  0  0  0  0  0  0  0  0  0
   57.7430   33.1020   47.8030 O   0  0  0  0  0  0  0  0  0  0  0  0
   58.3130   32.4620   50.0900 O   0  0  0  0  0  0  0  0  0  0  0  0
   60.3120   33.2090   48.4910 N   0  0  0  0  0  0  0  0  0  0  0  0
   60.5800   33.4920   47.0630 C   0  0  0  0  0  0  0  0  0  0  0  0
   62.0680   33.7610   46.8120 C   0  0  0  0  0  0  0  0  0  0  0  0
   62.9190   32.5280   47.1630 C   0  0  0  0  0  0  0  0  0  0  0  0
   62.2520   31.6260   48.2150 C   0  0  0  0  0  0  0  0  0  0  0  0
   61.3840   32.4460   49.1800 C   0  0  0  0  0  0  0  0  0  0  0  0
   59.3100   29.7480   49.0400 C   0  0  0  0  0  0  0  0  0  0  0  0
   59.3960   28.4110   48.6400 C   0  0  0  0  0  0  0  0  0  0  0  0
   59.2910   24.0330   45.5940 C   0  0  0  0  0  0  0  0  0  0  0  0
   59.3970   22.8420   44.8720 C   0  0  0  0  0  0  0  0  0  0  0  0
   58.2430   22.2110   44.4260 C   0  0  0  0  0  0  0  0  0  0  0  0
   58.2720   21.0650   43.7000 N   0  0  0  0  0  0  0  0  0  0  0  0
   56.6540   20.8240   43.4660 S   0  0  0  0  0  0  0  0  0  0  0  0
   55.8940   22.0790   44.2250 N   0  0  0  0  0  0  0  0  0  0  0  0
   56.9610   22.7610   44.7150 C   0  0  0  0  0  0  0  0  0  0  0  0
   54.8560   26.7270   45.1850 H   0  0  0  0  0  0  0  0  0  0  0  0
   57.0470   26.2150   46.8890 H   0  0  0  0  0  0  0  0  0  0  0  0
   58.3931   28.7544   45.3863 H   0  0  0  0  0  0  0  0  0  0  0  0
   58.2373   31.1329   46.1073 H   0  0  0  0  0  0  0  0  0  0  0  0
   60.2674   32.6252   46.4623 H   0  0  0  0  0  0  0  0  0  0  0  0
   60.0144   34.3913   46.7779 H   0  0  0  0  0  0  0  0  0  0  0  0
   62.2145   34.0086   45.7503 H   0  0  0  0  0  0  0  0  0  0  0  0
   62.3850   34.5985   47.4508 H   0  0  0  0  0  0  0  0  0  0  0  0
   63.0811   31.9402   46.2475 H   0  0  0  0  0  0  0  0  0  0  0  0
   63.8671   32.8890   47.5881 H   0  0  0  0  0  0  0  0  0  0  0  0
   61.6188   30.8861   47.7035 H   0  0  0  0  0  0  0  0  0  0  0  0
   63.0412   31.1262   48.7958 H   0  0  0  0  0  0  0  0  0  0  0  0
   60.9171   31.7592   49.9013 H   0  0  0  0  0  0  0  0  0  0  0  0
   62.0416   33.1761   49.6745 H   0  0  0  0  0  0  0  0  0  0  0  0
   59.5666   30.0283   50.0723 H   0  0  0  0  0  0  0  0  0  0  0  0
   59.7307   27.6473   49.3574 H   0  0  0  0  0  0  0  0  0  0  0  0
   60.2052   24.5402   45.9360 H   0  0  0  0  0  0  0  0  0  0  0  0
   60.3850   22.4080   44.6587 H   0  0  0  0  0  0  0  0  0  0  0  0
  1  2  1  0
  2  3  2  0
  2  4  2  0
  2  5  1  0
  5  6  2  0
  6  7  1  0
  7  8  1  0
  8  9  2  0
  8 10  1  0
 10 11  2  0
 11 12  1  0
 12 13  2  0
 13 14  1  0
 14 15  2  0
 14 16  2  0
 14 17  1  0
 17 18  1  0
 18 19  1  0
 19 20  1  0
 20 21  1  0
 21 22  1  0
 13 23  1  0
 23 24  2  0
  6 25  1  0
 25 26  2  0
 26 27  1  0
 27 28  2  0
 28 29  1  0
 29 30  1  0
 30 31  2  0
 31  5  1  0
 24 10  1  0
 31 27  1  0
 22 17  1  0
  1 32  1  0
  7 33  1  0
 11 34  1  0
 12 35  1  0
 18 36  1  0
 18 37  1  0
 19 38  1  0
 19 39  1  0
 20 40  1  0
 20 41  1  0
 21 42  1  0
 21 43  1  0
 22 44  1  0
 22 45  1  0
 23 46  1  0
 24 47  1  0
 25 48  1  0
 26 49  1  0
M  CHG  1   1  -1
M  END
>  <UniqueID>  (18) 
18

>  <SMILES>  (18) 
[NH-]S(=O)(=O)c1c(NC(=O)c2ccc(S(=O)(=O)N3CCCCC3)cc2)ccc2nsnc12

>  <Energy>  (18) 
103.93566983669051

>  <Genealogy>  (18) 
[NH-]S(=O)(=O)c1c(NC(=O)c2ccc(S(=O)(=O)N3CCCCC3)cc2)ccc2nsnc12 (protonated)
[NH-]S(=O)(=O)c1c(NC(=O)c2ccc(S(=O)(=O)N3CCCCC3)cc2)ccc2nsnc12 (3D coordinates assigned)
[NH-]S(=O)(=O)c1c(NC(=O)c2ccc(S(=O)(=O)N3CCCCC3)cc2)ccc2nsnc12 (nonaromatic ring conformer: 103.93566983669051 kcal/mol)

>  <smiles>  (18) 
NS(=O)(=O)c1c(NC(=O)c2ccc(S(=O)(=O)N3CCCCC3)cc2)ccc2nsnc12

>  <score_type>  (18) 
oracle

>  <origin>  (18) 
adg

>  <m_score__min__energy>  (18) 
-11.710000000000001

>  <m_primary>  (18) 
energy

$$$$
18:0
     RDKit          3D

 46 50  0  0  0  0  0  0  0  0999 V2000
   60.1190   34.9580   45.9670 O   0  0  0  0  0  0  0  0  0  0  0  0
   59.6670   33.7850   46.0530 C   0  0  0  0  0  0  0  0  0  0  0  0
   58.8480   33.2330   44.9270 C   0  0  0  0  0  0  0  0  0  0  0  0
   58.4470   31.8640   45.2340 N   0  0  0  0  0  0  0  0  0  0  0  0
   57.2410   31.3600   44.9770 N   0  0  0  0  0  0  0  0  0  0  0  0
   57.3180   30.0590   45.3300 C   0  0  0  0  0  0  0  0  0  0  0  0
   56.3330   29.0780   45.2470 C   0  0  0  0  0  0  0  0  0  0  0  0
   55.1750   29.3340   44.8200 O   0  0  0  0  0  0  0  0  0  0  0  0
   56.6880   27.8220   45.6480 N   0  0  0  0  0  0  0  0  0  0  0  0
   55.8750   26.7680   45.6400 N   0  0  0  0  0  0  0  0  0  0  0  0
   56.4940   25.6420   46.0770 C   0  0  0  0  0  0  0  0  0  0  0  0
   55.7960   24.3290   46.2230 C   0  0  0  0  0  0  0  0  0  0  0  0
   56.2000   23.4030   45.1110 C   0  0  0  0  0  0  0  0  0  0  0  0
   55.9120   23.7310   43.7760 C   0  0  0  0  0  0  0  0  0  0  0  0
   56.3140   22.8830   42.7390 C   0  0  0  0  0  0  0  0  0  0  0  0
   57.0130   21.7070   43.0280 C   0  0  0  0  0  0  0  0  0  0  0  0
   57.3140   21.3810   44.3520 C   0  0  0  0  0  0  0  0  0  0  0  0
   56.9150   22.2270   45.3910 C   0  0  0  0  0  0  0  0  0  0  0  0
   58.1090   25.9320   46.5250 S   0  0  0  0  0  0  0  0  0  0  0  0
   57.9420   27.5470   46.0990 C   0  0  0  0  0  0  0  0  0  0  0  0
   58.8970   28.5120   46.1740 N   0  0  0  0  0  0  0  0  0  0  0  0
   58.5370   29.7350   45.7880 N   0  0  0  0  0  0  0  0  0  0  0  0
   59.2310   30.8720   45.7140 C   0  0  0  0  0  0  0  0  0  0  0  0
   60.4460   30.9960   46.0280 O   0  0  0  0  0  0  0  0  0  0  0  0
   59.8380   33.0200   47.2550 N   0  0  0  0  0  0  0  0  0  0  0  0
   60.7190   33.3890   48.3310 C   0  0  0  0  0  0  0  0  0  0  0  0
   62.0390   33.7670   48.0370 C   0  0  0  0  0  0  0  0  0  0  0  0
   62.9070   34.1580   49.0590 C   0  0  0  0  0  0  0  0  0  0  0  0
   62.4610   34.1910   50.3840 C   0  0  0  0  0  0  0  0  0  0  0  0
   63.3010   34.5790   51.3740 F   0  0  0  0  0  0  0  0  0  0  0  0
   61.1440   33.8370   50.6850 C   0  0  0  0  0  0  0  0  0  0  0  0
   60.2730   33.4420   49.6650 C   0  0  0  0  0  0  0  0  0  0  0  0
   57.9508   33.8543   44.7889 H   0  0  0  0  0  0  0  0  0  0  0  0
   59.4473   33.2383   44.0046 H   0  0  0  0  0  0  0  0  0  0  0  0
   56.0676   23.8780   47.1888 H   0  0  0  0  0  0  0  0  0  0  0  0
   54.7091   24.4922   46.1786 H   0  0  0  0  0  0  0  0  0  0  0  0
   55.3680   24.6588   43.5451 H   0  0  0  0  0  0  0  0  0  0  0  0
   56.0802   23.1413   41.6956 H   0  0  0  0  0  0  0  0  0  0  0  0
   57.3258   21.0386   42.2123 H   0  0  0  0  0  0  0  0  0  0  0  0
   57.8661   20.4568   44.5779 H   0  0  0  0  0  0  0  0  0  0  0  0
   57.1620   21.9706   46.4318 H   0  0  0  0  0  0  0  0  0  0  0  0
   59.2060   32.2020   47.3990 H   0  0  0  0  0  0  0  0  0  0  0  0
   62.3917   33.7551   46.9951 H   0  0  0  0  0  0  0  0  0  0  0  0
   63.9432   34.4405   48.8213 H   0  0  0  0  0  0  0  0  0  0  0  0
   60.7913   33.8690   51.7264 H   0  0  0  0  0  0  0  0  0  0  0  0
   59.2344   33.1714   49.9062 H   0  0  0  0  0  0  0  0  0  0  0  0
  1  2  2  0
  2  3  1  0
  3  4  1  0
  4  5  1  0
  5  6  2  0
  6  7  1  0
  7  8  2  0
  7  9  1  0
  9 10  1  0
 10 11  2  0
 11 12  1  0
 12 13  1  0
 13 14  2  0
 14 15  1  0
 15 16  2  0
 16 17  1  0
 17 18  2  0
 11 19  1  0
 19 20  1  0
 20 21  2  0
 21 22  1  0
 22 23  1  0
 23 24  2  0
  2 25  1  0
 25 26  1  0
 26 27  2  0
 27 28  1  0
 28 29  2  0
 29 30  1  0
 29 31  1  0
 31 32  2  0
 23  4  1  0
 32 26  1  0
 22  6  1  0
 20  9  1  0
 18 13  1  0
  3 33  1  0
  3 34  1  0
 12 35  1  0
 12 36  1  0
 14 37  1  0
 15 38  1  0
 16 39  1  0
 17 40  1  0
 18 41  1  0
 25 42  1  0
 27 43  1  0
 28 44  1  0
 31 45  1  0
 32 46  1  0
M  END
>  <UniqueID>  (19) 
19

>  <SMILES>  (19) 
O=C(Cn1nc2c(=O)n3nc(Cc4ccccc4)sc3nn2c1=O)Nc1ccc(F)cc1

>  <Energy>  (19) 
137.50158784748913

>  <Genealogy>  (19) 
O=C(Cn1nc2c(=O)n3nc(Cc4ccccc4)sc3nn2c1=O)Nc1ccc(F)cc1 (3D coordinates assigned)
O=C(Cn1nc2c(=O)n3nc(Cc4ccccc4)sc3nn2c1=O)Nc1ccc(F)cc1 (optimized conformer: 137.50158784748913 kcal/mol)

>  <smiles>  (19) 
O=C(Cn1nc2c(=O)n3nc(Cc4ccccc4)sc3nn2c1=O)Nc1ccc(F)cc1

>  <score_type>  (19) 
oracle

>  <origin>  (19) 
adg

>  <m_score__min__energy>  (19) 
-8.9000000000000004

>  <m_primary>  (19) 
energy

$$$$
19:0
     RDKit          3D

 44 46  0  0  0  0  0  0  0  0999 V2000
   57.0170   33.8790   44.4940 O   0  0  0  0  0  0  0  0  0  0  0  0
   57.0680   32.9310   45.3180 C   0  0  0  0  0  0  0  0  0  0  0  0
   57.5270   33.1880   46.6520 N   0  0  0  0  0  0  0  0  0  0  0  0
   58.8920   33.4070   47.0330 C   0  0  0  0  0  0  0  0  0  0  0  0
   59.2350   33.3740   48.3910 C   0  0  0  0  0  0  0  0  0  0  0  0
   60.5580   33.5980   48.7900 C   0  0  0  0  0  0  0  0  0  0  0  0
   61.5470   33.8380   47.8330 C   0  0  0  0  0  0  0  0  0  0  0  0
   61.2170   33.8460   46.4740 C   0  0  0  0  0  0  0  0  0  0  0  0
   59.8970   33.6250   46.0730 C   0  0  0  0  0  0  0  0  0  0  0  0
   56.6660   31.6190   44.8990 N   0  0  0  0  0  0  0  0  0  0  0  0
   57.4670   30.4340   45.0130 C   0  0  0  0  0  0  0  0  0  0  0  0
   58.8660   30.5070   45.1090 C   0  0  0  0  0  0  0  0  0  0  0  0
   59.6220   29.3420   45.2440 C   0  0  0  0  0  0  0  0  0  0  0  0
   58.9930   28.0960   45.2660 C   0  0  0  0  0  0  0  0  0  0  0  0
   57.5950   28.0020   45.1340 C   0  0  0  0  0  0  0  0  0  0  0  0
   56.9290   26.7290   45.1970 N   0  0  0  0  0  0  0  0  0  0  0  0
   56.6730   26.0320   46.4250 C   0  0  0  0  0  0  0  0  0  0  0  0
   57.4720   26.1420   47.3920 O   0  0  0  0  0  0  0  0  0  0  0  0
   55.5190   25.1960   46.5680 N   0  0  0  0  0  0  0  0  0  0  0  0
   55.5660   23.7420   46.6960 C   0  0  0  0  0  0  0  0  0  0  0  0
   56.0640   23.1110   45.4210 C   0  0  0  0  0  0  0  0  0  0  0  0
   57.0420   22.1030   45.4680 C   0  0  0  0  0  0  0  0  0  0  0  0
   57.4960   21.5050   44.2870 C   0  0  0  0  0  0  0  0  0  0  0  0
   56.9880   21.9180   43.0530 C   0  0  0  0  0  0  0  0  0  0  0  0
   56.0270   22.9310   42.9970 C   0  0  0  0  0  0  0  0  0  0  0  0
   55.5630   23.5250   44.1740 C   0  0  0  0  0  0  0  0  0  0  0  0
   56.8380   29.1810   45.0110 C   0  0  0  0  0  0  0  0  0  0  0  0
   55.4860   29.1110   44.9060 F   0  0  0  0  0  0  0  0  0  0  0  0
   58.4617   33.1713   49.1466 H   0  0  0  0  0  0  0  0  0  0  0  0
   60.8192   33.5850   49.8585 H   0  0  0  0  0  0  0  0  0  0  0  0
   62.5849   34.0206   48.1482 H   0  0  0  0  0  0  0  0  0  0  0  0
   61.9974   34.0265   45.7201 H   0  0  0  0  0  0  0  0  0  0  0  0
   59.6426   33.6214   45.0028 H   0  0  0  0  0  0  0  0  0  0  0  0
   59.3675   31.4855   45.0777 H   0  0  0  0  0  0  0  0  0  0  0  0
   60.7165   29.4056   45.3333 H   0  0  0  0  0  0  0  0  0  0  0  0
   59.5935   27.1824   45.3872 H   0  0  0  0  0  0  0  0  0  0  0  0
   56.6310   26.2790   44.3030 H   0  0  0  0  0  0  0  0  0  0  0  0
   56.2433   23.4737   47.5202 H   0  0  0  0  0  0  0  0  0  0  0  0
   54.5506   23.3719   46.9007 H   0  0  0  0  0  0  0  0  0  0  0  0
   57.4524   21.7827   46.4370 H   0  0  0  0  0  0  0  0  0  0  0  0
   58.2538   20.7088   44.3305 H   0  0  0  0  0  0  0  0  0  0  0  0
   57.3444   21.4459   42.1256 H   0  0  0  0  0  0  0  0  0  0  0  0
   55.6347   23.2618   42.0240 H   0  0  0  0  0  0  0  0  0  0  0  0
   54.8033   24.3190   44.1247 H   0  0  0  0  0  0  0  0  0  0  0  0
  1  2  2  0
  2  3  1  0
  3  4  1  0
  4  5  2  0
  5  6  1  0
  6  7  2  0
  7  8  1  0
  8  9  2  0
  2 10  1  0
 10 11  1  0
 11 12  2  0
 12 13  1  0
 13 14  2  0
 14 15  1  0
 15 16  1  0
 16 17  1  0
 17 18  2  0
 17 19  1  0
 19 20  1  0
 20 21  1  0
 21 22  2  0
 22 23  1  0
 23 24  2  0
 24 25  1  0
 25 26  2  0
 15 27  2  0
 27 28  1  0
  9  4  1  0
 27 11  1  0
 26 21  1  0
  5 29  1  0
  6 30  1  0
  7 31  1  0
  8 32  1  0
  9 33  1  0
 12 34  1  0
 13 35  1  0
 14 36  1  0
 16 37  1  0
 20 38  1  0
 20 39  1  0
 22 40  1  0
 23 41  1  0
 24 42  1  0
 25 43  1  0
 26 44  1  0
M  CHG  3   3  -1  10  -1  19  -1
M  END
>  <UniqueID>  (20) 
20

>  <SMILES>  (20) 
O=C([N-]c1ccccc1)[N-]c1cccc(NC(=O)[N-]Cc2ccccc2)c1F

>  <Energy>  (20) 
53.54907500406664

>  <Genealogy>  (20) 
O=C([N-]c1ccccc1)[N-]c1cccc(NC(=O)[N-]Cc2ccccc2)c1F (protonated)
O=C([N-]c1ccccc1)[N-]c1cccc(NC(=O)[N-]Cc2ccccc2)c1F (3D coordinates assigned)
O=C([N-]c1ccccc1)[N-]c1cccc(NC(=O)[N-]Cc2ccccc2)c1F (optimized conformer: 53.54907500406664 kcal/mol)

>  <smiles>  (20) 
O=C(NCc1ccccc1)Nc1cccc(NC(=O)Nc2ccccc2)c1F

>  <score_type>  (20) 
oracle

>  <origin>  (20) 
adg

>  <m_score__min__energy>  (20) 
-14.69

>  <m_primary>  (20) 
energy

$$$$
20:0
     RDKit          3D

 27 29  0  0  0  0  0  0  0  0999 V2000
   59.2034   29.6114   43.6595 H   0  0  0  0  0  0  0  0  0  0  0  0
   58.7040   29.6470   44.6390 C   0  0  0  0  0  0  0  0  0  0  0  0
   58.2320   28.4970   45.1350 C   0  0  0  0  0  0  0  0  0  0  0  0
   59.0040   27.4400   45.6250 O   0  0  0  0  0  0  0  0  0  0  0  0
   58.1230   26.4450   46.0420 C   0  0  0  0  0  0  0  0  0  0  0  0
   58.4580   25.2120   46.5990 C   0  0  0  0  0  0  0  0  0  0  0  0
   59.5098   24.9294   46.7532 H   0  0  0  0  0  0  0  0  0  0  0  0
   57.4150   24.3380   46.9590 C   0  0  0  0  0  0  0  0  0  0  0  0
   57.7130   23.1000   47.5160 O   0  0  0  0  0  0  0  0  0  0  0  0
   56.0680   24.7110   46.7570 C   0  0  0  0  0  0  0  0  0  0  0  0
   55.2603   24.0208   47.0421 H   0  0  0  0  0  0  0  0  0  0  0  0
   55.7540   25.9610   46.1930 C   0  0  0  0  0  0  0  0  0  0  0  0
   54.4330   26.3390   45.9910 O   0  0  0  0  0  0  0  0  0  0  0  0
   56.8070   26.8070   45.8460 C   0  0  0  0  0  0  0  0  0  0  0  0
   56.8200   28.1330   45.2590 C   0  0  0  0  0  0  0  0  0  0  0  0
   55.8220   28.8260   44.9250 O   0  0  0  0  0  0  0  0  0  0  0  0
   58.6050   30.9590   45.3070 C   0  0  0  0  0  0  0  0  0  0  0  0
   57.7200   31.8610   44.9480 O   0  0  0  0  0  0  0  0  0  0  0  0
   57.8640   32.9190   45.7110 C   0  0  0  0  0  0  0  0  0  0  0  0
   57.0420   34.1580   45.5900 C   0  0  0  0  0  0  0  0  0  0  0  0
   56.7935   34.5326   46.5939 H   0  0  0  0  0  0  0  0  0  0  0  0
   57.6116   34.9240   45.0434 H   0  0  0  0  0  0  0  0  0  0  0  0
   56.1148   33.9310   45.0434 H   0  0  0  0  0  0  0  0  0  0  0  0
   58.8870   32.7190   46.6130 C   0  0  0  0  0  0  0  0  0  0  0  0
   59.2448   33.4236   47.3782 H   0  0  0  0  0  0  0  0  0  0  0  0
   59.3690   31.4520   46.3570 C   0  0  0  0  0  0  0  0  0  0  0  0
   60.1901   30.9376   46.8777 H   0  0  0  0  0  0  0  0  0  0  0  0
  1  2  1  0
  2  3  2  0
  3  4  1  0
  4  5  1  0
  5  6  2  0
  6  7  1  0
  6  8  1  0
  8  9  1  0
  8 10  2  0
 10 11  1  0
 10 12  1  0
 12 13  1  0
 12 14  2  0
 14 15  1  0
 15 16  2  0
  2 17  1  0
 17 18  1  0
 18 19  1  0
 19 20  1  0
 20 21  1  0
 20 22  1  0
 20 23  1  0
 19 24  2  0
 24 25  1  0
 24 26  1  0
 26 27  1  0
 15  3  1  0
 26 17  2  0
 14  5  1  0
M  CHG  2   9  -1  13  -1
M  END
>  <UniqueID>  (21) 
21

>  <SMILES>  (21) 
Cc1ccc(/C=C2\Oc3cc([O-])cc([O-])c3C2=O)o1

>  <Energy>  (21) 
87.07117537003535

>  <Genealogy>  (21) 
Cc1ccc(C=C2Oc3cc([O-])cc([O-])c3C2=O)o1 (protonated)
Cc1ccc(/C=C2\Oc3cc([O-])cc([O-])c3C2=O)o1 (cis-trans isomerization)
Cc1ccc(/C=C2\Oc3cc([O-])cc([O-])c3C2=O)o1 (3D coordinates assigned)
Cc1ccc(/C=C2\Oc3cc([O-])cc([O-])c3C2=O)o1 (nonaromatic ring conformer: 87.07117537003535 kcal/mol)

>  <smiles>  (21) 
Cc1ccc(C=C2Oc3cc(O)cc(O)c3C2=O)o1

>  <score_type>  (21) 
oracle

>  <origin>  (21) 
adg

>  <m_score__min__energy>  (21) 
-12.51

>  <m_primary>  (21) 
energy

$$$$
21:0
     RDKit          3D

 63 66  0  0  0  0  0  0  0  0999 V2000
   59.2300   29.2760   47.0120 C   0  0  0  0  0  0  0  0  0  0  0  0
   59.2940   30.7790   46.9670 C   0  0  0  0  0  0  0  0  0  0  0  0
   60.3640   31.4180   47.5120 N   0  0  0  0  0  0  0  0  0  0  0  0
   60.5120   32.7680   47.4540 C   0  0  0  0  0  0  0  0  0  0  0  0
   61.6940   33.3570   48.0130 N   0  0  0  0  0  0  0  0  0  0  0  0
   61.5690   34.3660   49.0660 C   0  0  0  0  0  0  0  0  0  0  0  0
   60.8800   33.7810   50.2660 C   0  0  0  0  0  0  0  0  0  0  0  0
   59.4950   33.5500   50.2440 C   0  0  0  0  0  0  0  0  0  0  0  0
   58.8440   33.0720   51.3860 C   0  0  0  0  0  0  0  0  0  0  0  0
   59.5690   32.8270   52.5540 C   0  0  0  0  0  0  0  0  0  0  0  0
   60.9460   33.0610   52.5850 C   0  0  0  0  0  0  0  0  0  0  0  0
   61.6010   33.5400   51.4480 C   0  0  0  0  0  0  0  0  0  0  0  0
   63.2250   32.5920   47.7130 S   0  0  0  0  0  0  0  0  0  0  0  0
   64.0650   33.4740   46.8310 O   0  0  0  0  0  0  0  0  0  0  0  0
   63.0030   31.2870   46.9990 O   0  0  0  0  0  0  0  0  0  0  0  0
   64.0770   32.3300   49.2350 C   0  0  0  0  0  0  0  0  0  0  0  0
   65.2140   33.0970   49.5330 C   0  0  0  0  0  0  0  0  0  0  0  0
   65.8790   32.9290   50.7500 C   0  0  0  0  0  0  0  0  0  0  0  0
   65.4170   31.9930   51.6780 C   0  0  0  0  0  0  0  0  0  0  0  0
   64.2890   31.2200   51.3880 C   0  0  0  0  0  0  0  0  0  0  0  0
   63.6190   31.3830   50.1700 C   0  0  0  0  0  0  0  0  0  0  0  0
   62.5220   30.6270   49.9160 F   0  0  0  0  0  0  0  0  0  0  0  0
   59.5240   33.5640   46.8310 C   0  0  0  0  0  0  0  0  0  0  0  0
   59.6650   35.0680   46.7730 C   0  0  0  0  0  0  0  0  0  0  0  0
   58.3840   32.9290   46.2850 C   0  0  0  0  0  0  0  0  0  0  0  0
   57.2820   33.7430   45.6430 C   0  0  0  0  0  0  0  0  0  0  0  0
   58.3060   31.5210   46.2990 C   0  0  0  0  0  0  0  0  0  0  0  0
   57.2710   30.8370   45.5860 N   0  0  0  0  0  0  0  0  0  0  0  0
   57.6370   29.9210   44.1640 S   0  0  0  0  0  0  0  0  0  0  0  0
   59.0590   30.1660   43.7460 O   0  0  0  0  0  0  0  0  0  0  0  0
   56.7230   30.3530   43.0510 O   0  0  0  0  0  0  0  0  0  0  0  0
   57.3940   28.2040   44.4830 C   0  0  0  0  0  0  0  0  0  0  0  0
   57.9340   27.2450   43.6130 C   0  0  0  0  0  0  0  0  0  0  0  0
   57.7890   25.8830   43.8900 C   0  0  0  0  0  0  0  0  0  0  0  0
   57.1040   25.4710   45.0360 C   0  0  0  0  0  0  0  0  0  0  0  0
   56.5640   26.4210   45.9060 C   0  0  0  0  0  0  0  0  0  0  0  0
   56.7090   27.7840   45.6330 C   0  0  0  0  0  0  0  0  0  0  0  0
   59.2157   28.9408   48.0596 H   0  0  0  0  0  0  0  0  0  0  0  0
   58.3164   28.9325   46.5047 H   0  0  0  0  0  0  0  0  0  0  0  0
   60.1111   28.8561   46.5047 H   0  0  0  0  0  0  0  0  0  0  0  0
   61.1160   30.8550   47.9740 H   0  0  0  0  0  0  0  0  0  0  0  0
   62.5712   34.7143   49.3563 H   0  0  0  0  0  0  0  0  0  0  0  0
   60.9738   35.2094   48.6861 H   0  0  0  0  0  0  0  0  0  0  0  0
   58.9207   33.7454   49.3264 H   0  0  0  0  0  0  0  0  0  0  0  0
   57.7596   32.8889   51.3640 H   0  0  0  0  0  0  0  0  0  0  0  0
   59.0555   32.4494   53.4505 H   0  0  0  0  0  0  0  0  0  0  0  0
   61.5153   32.8677   53.5062 H   0  0  0  0  0  0  0  0  0  0  0  0
   62.6842   33.7291   51.4779 H   0  0  0  0  0  0  0  0  0  0  0  0
   65.5833   33.8340   48.8047 H   0  0  0  0  0  0  0  0  0  0  0  0
   66.7682   33.5351   50.9779 H   0  0  0  0  0  0  0  0  0  0  0  0
   65.9406   31.8642   52.6368 H   0  0  0  0  0  0  0  0  0  0  0  0
   63.9270   30.4818   52.1188 H   0  0  0  0  0  0  0  0  0  0  0  0
   59.7029   35.4724   47.7953 H   0  0  0  0  0  0  0  0  0  0  0  0
   60.5916   35.3292   46.2408 H   0  0  0  0  0  0  0  0  0  0  0  0
   58.8031   35.4968   46.2408 H   0  0  0  0  0  0  0  0  0  0  0  0
   56.6610   34.2017   46.4265 H   0  0  0  0  0  0  0  0  0  0  0  0
   57.7255   34.5320   45.0179 H   0  0  0  0  0  0  0  0  0  0  0  0
   56.6583   33.0871   45.0179 H   0  0  0  0  0  0  0  0  0  0  0  0
   58.4734   27.5663   42.7097 H   0  0  0  0  0  0  0  0  0  0  0  0
   58.2145   25.1346   43.2053 H   0  0  0  0  0  0  0  0  0  0  0  0
   56.9900   24.3987   45.2530 H   0  0  0  0  0  0  0  0  0  0  0  0
   56.0238   26.0959   46.8074 H   0  0  0  0  0  0  0  0  0  0  0  0
   56.2849   28.5295   46.3217 H   0  0  0  0  0  0  0  0  0  0  0  0
  1  2  1  0
  2  3  2  0
  3  4  1  0
  4  5  1  0
  5  6  1  0
  6  7  1  0
  7  8  2  0
  8  9  1  0
  9 10  2  0
 10 11  1  0
 11 12  2  0
  5 13  1  0
 13 14  2  0
 13 15  2  0
 13 16  1  0
 16 17  2  0
 17 18  1  0
 18 19  2  0
 19 20  1  0
 20 21  2  0
 21 22  1  0
  4 23  2  0
 23 24  1  0
 23 25  1  0
 25 26  1  0
 25 27  2  0
 27 28  1  0
 28 29  1  0
 29 30  2  0
 29 31  2  0
 29 32  1  0
 32 33  2  0
 33 34  1  0
 34 35  2  0
 35 36  1  0
 36 37  2  0
 27  2  1  0
 37 32  1  0
 12  7  1  0
 21 16  1  0
  1 38  1  0
  1 39  1  0
  1 40  1  0
  3 41  1  0
  6 42  1  0
  6 43  1  0
  8 44  1  0
  9 45  1  0
 10 46  1  0
 11 47  1  0
 12 48  1  0
 17 49  1  0
 18 50  1  0
 19 51  1  0
 20 52  1  0
 24 53  1  0
 24 54  1  0
 24 55  1  0
 26 56  1  0
 26 57  1  0
 26 58  1  0
 33 59  1  0
 34 60  1  0
 35 61  1  0
 36 62  1  0
 37 63  1  0
M  CHG  2   3   1  28  -1
M  END
>  <UniqueID>  (22) 
22

>  <SMILES>  (22) 
Cc1[nH+]c(N(Cc2ccccc2)S(=O)(=O)c2ccccc2F)c(C)c(C)c1[N-]S(=O)(=O)c1ccccc1

>  <Energy>  (22) 
79.81241826489412

>  <Genealogy>  (22) 
Cc1[nH+]c(N(Cc2ccccc2)S(=O)(=O)c2ccccc2F)c(C)c(C)c1[N-]S(=O)(=O)c1ccccc1 (protonated)
Cc1[nH+]c(N(Cc2ccccc2)S(=O)(=O)c2ccccc2F)c(C)c(C)c1[N-]S(=O)(=O)c1ccccc1 (3D coordinates assigned)
Cc1[nH+]c(N(Cc2ccccc2)S(=O)(=O)c2ccccc2F)c(C)c(C)c1[N-]S(=O)(=O)c1ccccc1 (optimized conformer: 79.81241826489412 kcal/mol)

>  <smiles>  (22) 
Cc1nc(N(Cc2ccccc2)S(=O)(=O)c2ccccc2F)c(C)c(C)c1NS(=O)(=O)c1ccccc1

>  <score_type>  (22) 
oracle

>  <origin>  (22) 
adg

>  <m_score__min__energy>  (22) 
-10.31

>  <m_primary>  (22) 
energy

$$$$
22:0
     RDKit          3D

 51 53  0  0  1  0  0  0  0  0999 V2000
   56.5850   22.0930   42.8680 C   0  0  0  0  0  0  0  0  0  0  0  0
   55.5310   22.5820   43.6630 O   0  0  0  0  0  0  0  0  0  0  0  0
   55.8580   23.2540   44.8520 C   0  0  0  0  0  0  0  0  0  0  0  0
   55.6950   24.6040   44.9450 C   0  0  0  0  0  0  0  0  0  0  0  0
   56.0030   25.3500   46.0890 C   0  0  0  0  0  0  0  0  0  0  0  0
   55.7680   26.7330   45.9830 N   0  0  0  0  0  0  0  0  0  0  0  0
   56.7650   27.7330   45.8550 C   0  0  0  0  0  0  0  0  0  0  0  0
   57.7450   28.0060   46.7520 C   0  0  0  0  0  0  0  0  0  0  0  0
   58.6340   29.0340   46.4780 C   0  0  0  0  0  0  0  0  0  0  0  0
   59.5960   29.3510   47.3160 N   0  0  0  0  0  0  0  0  0  0  0  0
   59.7720   30.7780   47.4850 C   0  0  0  0  0  0  0  0  0  0  0  0
   58.6930   31.5880   47.8250 C   0  0  0  0  0  0  0  0  0  0  0  0
   58.9700   32.9420   47.9920 C   0  0  0  0  0  0  0  0  0  0  0  0
   60.2360   33.4540   47.8300 C   0  0  0  0  0  0  0  0  0  0  0  0
   61.3010   32.6370   47.4920 C   0  0  0  0  0  0  0  0  0  0  0  0
   62.8720   33.3540   47.3430 S   0  0  0  0  0  0  0  0  0  0  0  0
   64.1110   32.2280   46.9810 N   0  0  0  0  0  0  0  0  0  0  0  0
   62.8750   34.4780   46.3340 O   0  0  0  0  0  0  0  0  0  0  0  0
   63.2260   33.9590   48.7070 O   0  0  0  0  0  0  0  0  0  0  0  0
   61.0480   31.3000   47.3220 C   0  0  0  0  0  0  0  0  0  0  0  0
   58.4960   29.7340   45.3230 N   0  0  0  0  0  0  0  0  0  0  0  0
   57.5220   29.4690   44.4200 C   0  0  0  0  0  0  0  0  0  0  0  0
   56.6870   28.4760   44.7170 N   0  0  0  0  0  0  0  0  0  0  0  0
   56.4850   24.6830   47.1650 C   0  0  0  0  0  0  0  0  0  0  0  0
   56.6680   23.3140   47.1270 C   0  0  0  0  0  0  0  0  0  0  0  0
   57.1470   22.5660   48.1730 O   0  0  0  0  0  0  0  0  0  0  0  0
   56.4240   21.8530   49.1240 C   0  0  0  0  0  0  0  0  0  0  0  0
   56.3510   22.5930   45.9570 C   0  0  0  0  0  0  0  0  0  0  0  0
   56.5400   21.2080   45.9240 O   0  0  0  0  0  0  0  0  0  0  0  0
   57.8040   20.6070   45.9750 C   0  0  0  0  0  0  0  0  0  0  0  0
   57.3907   21.7192   43.5169 H   0  0  0  0  0  0  0  0  0  0  0  0
   56.2159   21.2741   42.2330 H   0  0  0  0  0  0  0  0  0  0  0  0
   56.9719   22.9036   42.2330 H   0  0  0  0  0  0  0  0  0  0  0  0
   55.2981   25.1389   44.0696 H   0  0  0  0  0  0  0  0  0  0  0  0
   54.7670   27.0920   45.9970 H   0  0  0  0  0  0  0  0  0  0  0  0
   57.8329   27.4223   47.6802 H   0  0  0  0  0  0  0  0  0  0  0  0
   57.6790   31.1817   47.9544 H   0  0  0  0  0  0  0  0  0  0  0  0
   58.1503   33.6240   48.2621 H   0  0  0  0  0  0  0  0  0  0  0  0
   60.4053   34.5316   47.9715 H   0  0  0  0  0  0  0  0  0  0  0  0
   64.8610   32.6980   46.3970 H   0  0  0  0  0  0  0  0  0  0  0  0
   64.5210   31.7860   47.8380 H   0  0  0  0  0  0  0  0  0  0  0  0
   61.8742   30.6264   47.0505 H   0  0  0  0  0  0  0  0  0  0  0  0
   57.4259   30.0454   43.4881 H   0  0  0  0  0  0  0  0  0  0  0  0
   55.9180   28.2650   44.0080 H   0  0  0  0  0  0  0  0  0  0  0  0
   56.7340   25.2386   48.0811 H   0  0  0  0  0  0  0  0  0  0  0  0
   56.7382   22.1629   50.1316 H   0  0  0  0  0  0  0  0  0  0  0  0
   55.3504   22.0557   48.9962 H   0  0  0  0  0  0  0  0  0  0  0  0
   56.6117   20.7767   48.9962 H   0  0  0  0  0  0  0  0  0  0  0  0
   58.1008   20.4659   47.0248 H   0  0  0  0  0  0  0  0  0  0  0  0
   57.7663   19.6304   45.4701 H   0  0  0  0  0  0  0  0  0  0  0  0
   58.5376   21.2527   45.4701 H   0  0  0  0  0  0  0  0  0  0  0  0
  1  2  1  0
  2  3  1  0
  3  4  2  0
  4  5  1  0
  5  6  1  0
  6  7  1  0
  7  8  2  0
  8  9  1  0
  9 10  2  0
 10 11  1  0
 11 12  2  0
 12 13  1  0
 13 14  2  0
 14 15  1  0
 15 16  1  0
 16 17  1  0
 16 18  2  0
 16 19  2  0
 15 20  2  0
  9 21  1  0
 21 22  2  0
 22 23  1  0
  5 24  2  0
 24 25  1  0
 25 26  1  0
 26 27  1  0
 25 28  2  0
 28 29  1  0
 29 30  1  0
 28  3  1  0
 23  7  1  0
 20 11  1  0
  1 31  1  0
  1 32  1  0
  1 33  1  0
  4 34  1  0
  6 35  1  0
  8 36  1  0
 12 37  1  0
 13 38  1  0
 14 39  1  0
 17 40  1  0
 17 41  1  0
 20 42  1  0
 22 43  1  0
 23 44  1  0
 24 45  1  0
 27 46  1  0
 27 47  1  0
 27 48  1  0
 30 49  1  0
 30 50  1  0
 30 51  1  0
M  END
>  <smiles>  (23) 
COc1cc(Nc2cc(=Nc3cccc(S(N)(=O)=O)c3)nc[nH]2)cc(OC)c1OC

>  <score_type>  (23) 
oracle

>  <origin>  (23) 
adg

>  <m_score__min__energy>  (23) 
-8.6999999999999993

>  <m_primary>  (23) 
energy

$$$$
23:0
     RDKit          3D

 38 40  0  0  0  0  0  0  0  0999 V2000
   53.6480   24.7990   45.6820 O   0  0  0  0  0  0  0  0  0  0  0  0
   54.8570   25.1450   45.6120 C   0  0  0  0  0  0  0  0  0  0  0  0
   55.2170   26.4650   46.0410 N   0  0  0  0  0  0  0  0  0  0  0  0
   56.4430   27.1500   45.7390 C   0  0  0  0  0  0  0  0  0  0  0  0
   57.6910   26.5540   45.9800 C   0  0  0  0  0  0  0  0  0  0  0  0
   58.8730   27.2360   45.6700 C   0  0  0  0  0  0  0  0  0  0  0  0
   60.1150   26.6570   45.9250 O   0  0  0  0  0  0  0  0  0  0  0  0
   58.8120   28.5090   45.1000 C   0  0  0  0  0  0  0  0  0  0  0  0
   57.5720   29.1080   44.8170 C   0  0  0  0  0  0  0  0  0  0  0  0
   57.5240   30.4670   44.2220 C   0  0  0  0  0  0  0  0  0  0  0  0
   57.2680   30.5840   42.9920 O   0  0  0  0  0  0  0  0  0  0  0  0
   57.7560   31.6910   45.0290 C   0  0  0  0  0  0  0  0  0  0  0  0
   57.5200   32.9700   44.4920 C   0  0  0  0  0  0  0  0  0  0  0  0
   57.7300   34.1140   45.2680 C   0  0  0  0  0  0  0  0  0  0  0  0
   58.1670   33.9940   46.5890 C   0  0  0  0  0  0  0  0  0  0  0  0
   58.3900   32.7280   47.1380 C   0  0  0  0  0  0  0  0  0  0  0  0
   58.1820   31.5820   46.3650 C   0  0  0  0  0  0  0  0  0  0  0  0
   56.3860   28.4190   45.1420 C   0  0  0  0  0  0  0  0  0  0  0  0
   55.1450   28.9870   44.8670 O   0  0  0  0  0  0  0  0  0  0  0  0
   55.8670   24.1670   45.1430 C   0  0  0  0  0  0  0  0  0  0  0  0
   55.9270   23.8130   43.7840 C   0  0  0  0  0  0  0  0  0  0  0  0
   56.8770   22.8890   43.3350 C   0  0  0  0  0  0  0  0  0  0  0  0
   57.7660   22.3030   44.2390 C   0  0  0  0  0  0  0  0  0  0  0  0
   57.7040   22.6360   45.5940 C   0  0  0  0  0  0  0  0  0  0  0  0
   56.7560   23.5580   46.0480 C   0  0  0  0  0  0  0  0  0  0  0  0
   57.7401   25.5449   46.4151 H   0  0  0  0  0  0  0  0  0  0  0  0
   60.2780   25.6680   45.7730 H   0  0  0  0  0  0  0  0  0  0  0  0
   59.7428   29.0483   44.8702 H   0  0  0  0  0  0  0  0  0  0  0  0
   57.1679   33.0705   43.4547 H   0  0  0  0  0  0  0  0  0  0  0  0
   57.5507   35.1102   44.8373 H   0  0  0  0  0  0  0  0  0  0  0  0
   58.3356   34.8951   47.1970 H   0  0  0  0  0  0  0  0  0  0  0  0
   58.7297   32.6334   48.1799 H   0  0  0  0  0  0  0  0  0  0  0  0
   58.3527   30.5882   46.8046 H   0  0  0  0  0  0  0  0  0  0  0  0
   55.2232   24.2649   43.0695 H   0  0  0  0  0  0  0  0  0  0  0  0
   56.9238   22.6237   42.2685 H   0  0  0  0  0  0  0  0  0  0  0  0
   58.5147   21.5795   43.8839 H   0  0  0  0  0  0  0  0  0  0  0  0
   58.4026   22.1718   46.3056 H   0  0  0  0  0  0  0  0  0  0  0  0
   56.7048   23.8086   47.1179 H   0  0  0  0  0  0  0  0  0  0  0  0
  1  2  2  0
  2  3  1  0
  3  4  1  0
  4  5  2  0
  5  6  1  0
  6  7  1  0
  6  8  2  0
  8  9  1  0
  9 10  1  0
 10 11  2  0
 10 12  1  0
 12 13  2  0
 13 14  1  0
 14 15  2  0
 15 16  1  0
 16 17  2  0
  9 18  2  0
 18 19  1  0
  2 20  1  0
 20 21  2  0
 21 22  1  0
 22 23  2  0
 23 24  1  0
 24 25  2  0
 18  4  1  0
 25 20  1  0
 17 12  1  0
  5 26  1  0
  7 27  1  0
  8 28  1  0
 13 29  1  0
 14 30  1  0
 15 31  1  0
 16 32  1  0
 17 33  1  0
 21 34  1  0
 22 35  1  0
 23 36  1  0
 24 37  1  0
 25 38  1  0
M  CHG  2   3  -1  19  -1
M  END
>  <UniqueID>  (24) 
23

>  <SMILES>  (24) 
O=C([N-]c1cc(O)cc(C(=O)c2ccccc2)c1[O-])c1ccccc1

>  <Energy>  (24) 
55.274301245024134

>  <Genealogy>  (24) 
O=C([N-]c1cc(O)cc(C(=O)c2ccccc2)c1[O-])c1ccccc1 (protonated)
O=C([N-]c1cc(O)cc(C(=O)c2ccccc2)c1[O-])c1ccccc1 (3D coordinates assigned)
O=C([N-]c1cc(O)cc(C(=O)c2ccccc2)c1[O-])c1ccccc1 (optimized conformer: 55.274301245024134 kcal/mol)

>  <smiles>  (24) 
O=C(Nc1cc(O)cc(C(=O)c2ccccc2)c1O)c1ccccc1

>  <score_type>  (24) 
oracle

>  <origin>  (24) 
adg

>  <m_score__min__energy>  (24) 
-14.449999999999999

>  <m_primary>  (24) 
energy

$$$$
24:0
     RDKit          3D

 45 47  0  0  0  0  0  0  0  0999 V2000
   55.2710   26.7110   45.9620 N   0  0  0  0  0  0  0  0  0  0  0  0
   56.2810   25.8840   46.5410 C   0  0  0  0  0  0  0  0  0  0  0  0
   55.9370   24.8210   47.1250 O   0  0  0  0  0  0  0  0  0  0  0  0
   57.7210   26.2420   46.4340 C   0  0  0  0  0  0  0  0  0  0  0  0
   58.6840   25.2230   46.5540 C   0  0  0  0  0  0  0  0  0  0  0  0
   60.0440   25.5070   46.4250 C   0  0  0  0  0  0  0  0  0  0  0  0
   60.4650   26.8120   46.1800 C   0  0  0  0  0  0  0  0  0  0  0  0
   59.5290   27.8410   46.0740 C   0  0  0  0  0  0  0  0  0  0  0  0
   58.1530   27.5740   46.2110 C   0  0  0  0  0  0  0  0  0  0  0  0
   57.1890   28.6360   46.1620 N   0  0  0  0  0  0  0  0  0  0  0  0
   56.6290   29.4470   44.7370 S   0  0  0  0  0  0  0  0  0  0  0  0
   55.1360   29.6120   44.7960 O   0  0  0  0  0  0  0  0  0  0  0  0
   56.9980   28.6610   43.5100 O   0  0  0  0  0  0  0  0  0  0  0  0
   57.4160   31.0170   44.6710 C   0  0  0  0  0  0  0  0  0  0  0  0
   57.6260   31.6650   43.4460 C   0  0  0  0  0  0  0  0  0  0  0  0
   58.2070   32.9350   43.4190 C   0  0  0  0  0  0  0  0  0  0  0  0
   58.5480   33.5760   44.6130 C   0  0  0  0  0  0  0  0  0  0  0  0
   58.2990   32.9590   45.8460 C   0  0  0  0  0  0  0  0  0  0  0  0
   58.6560   33.6580   47.0510 N   0  0  0  0  0  0  0  0  0  0  0  0
   59.8040   34.1460   47.3360 N   0  0  0  0  0  0  0  0  0  0  0  0
   61.0220   33.3970   47.4630 C   0  0  0  0  0  0  0  0  0  0  0  0
   62.1560   33.8530   46.7750 C   0  0  0  0  0  0  0  0  0  0  0  0
   63.3540   33.1400   46.8300 C   0  0  0  0  0  0  0  0  0  0  0  0
   63.4400   31.9790   47.5960 C   0  0  0  0  0  0  0  0  0  0  0  0
   62.3330   31.5380   48.3250 C   0  0  0  0  0  0  0  0  0  0  0  0
   61.1190   32.2420   48.2790 C   0  0  0  0  0  0  0  0  0  0  0  0
   59.7800   31.6610   49.2780 S   0  0  0  0  0  0  0  0  0  0  0  0
   58.8760   32.9770   49.9410 N   0  0  0  0  0  0  0  0  0  0  0  0
   58.8770   30.7910   48.4500 O   0  0  0  0  0  0  0  0  0  0  0  0
   60.3290   30.8510   50.4200 O   0  0  0  0  0  0  0  0  0  0  0  0
   57.7760   31.6550   45.8640 C   0  0  0  0  0  0  0  0  0  0  0  0
   55.5220   27.5100   45.3390 H   0  0  0  0  0  0  0  0  0  0  0  0
   58.3608   24.1903   46.7518 H   0  0  0  0  0  0  0  0  0  0  0  0
   60.7848   24.6991   46.5169 H   0  0  0  0  0  0  0  0  0  0  0  0
   61.5372   27.0315   46.0699 H   0  0  0  0  0  0  0  0  0  0  0  0
   59.8685   28.8695   45.8818 H   0  0  0  0  0  0  0  0  0  0  0  0
   57.3334   31.1737   42.5063 H   0  0  0  0  0  0  0  0  0  0  0  0
   58.3965   33.4315   42.4559 H   0  0  0  0  0  0  0  0  0  0  0  0
   59.0150   34.5715   44.5846 H   0  0  0  0  0  0  0  0  0  0  0  0
   62.1003   34.7809   46.1869 H   0  0  0  0  0  0  0  0  0  0  0  0
   64.2310   33.4944   46.2685 H   0  0  0  0  0  0  0  0  0  0  0  0
   64.3805   31.4093   47.6266 H   0  0  0  0  0  0  0  0  0  0  0  0
   62.4131   30.6303   48.9411 H   0  0  0  0  0  0  0  0  0  0  0  0
   58.8060   33.7060   49.1970 H   0  0  0  0  0  0  0  0  0  0  0  0
   57.6484   31.1314   46.8229 H   0  0  0  0  0  0  0  0  0  0  0  0
  1  2  1  0
  2  3  2  0
  2  4  1  0
  4  5  2  0
  5  6  1  0
  6  7  2  0
  7  8  1  0
  8  9  2  0
  9 10  1  0
 10 11  1  0
 11 12  2  0
 11 13  2  0
 11 14  1  0
 14 15  2  0
 15 16  1  0
 16 17  2  0
 17 18  1  0
 18 19  1  0
 19 20  2  3
 20 21  1  0
 21 22  2  0
 22 23  1  0
 23 24  2  0
 24 25  1  0
 25 26  2  0
 26 27  1  0
 27 28  1  0
 27 29  2  0
 27 30  2  0
 18 31  2  0
  9  4  1  0
 31 14  1  0
 26 21  1  0
  1 32  1  0
  5 33  1  0
  6 34  1  0
  7 35  1  0
  8 36  1  0
 15 37  1  0
 16 38  1  0
 17 39  1  0
 22 40  1  0
 23 41  1  0
 24 42  1  0
 25 43  1  0
 28 44  1  0
 31 45  1  0
M  CHG  3   1  -1  10  -1  28  -1
M  END
>  <UniqueID>  (25) 
24

>  <SMILES>  (25) 
[NH-]C(=O)c1ccccc1[N-]S(=O)(=O)c1cccc(N=Nc2ccccc2S([NH-])(=O)=O)c1

>  <Energy>  (25) 
68.15457149942773

>  <Genealogy>  (25) 
[NH-]C(=O)c1ccccc1[N-]S(=O)(=O)c1cccc(N=Nc2ccccc2S([NH-])(=O)=O)c1 (protonated)
[NH-]C(=O)c1ccccc1[N-]S(=O)(=O)c1cccc(N=Nc2ccccc2S([NH-])(=O)=O)c1 (3D coordinates assigned)
[NH-]C(=O)c1ccccc1[N-]S(=O)(=O)c1cccc(N=Nc2ccccc2S([NH-])(=O)=O)c1 (optimized conformer: 68.15457149942773 kcal/mol)

>  <smiles>  (25) 
NC(=O)c1ccccc1NS(=O)(=O)c1cccc(N=Nc2ccccc2S(N)(=O)=O)c1

>  <score_type>  (25) 
oracle

>  <origin>  (25) 
adg

>  <m_score__min__energy>  (25) 
-15.279999999999999

>  <m_primary>  (25) 
energy

$$$$
25:0
     RDKit          3D

 64 67  0  0  0  0  0  0  0  0999 V2000
   60.4230   33.5590   51.6990 C   0  0  0  0  0  0  0  0  0  0  0  0
   61.1710   33.7840   50.4580 N   0  0  0  0  0  0  0  0  0  0  0  0
   60.4830   34.3550   49.2940 C   0  0  0  0  0  0  0  0  0  0  0  0
   59.2460   33.5270   48.9330 C   0  0  0  0  0  0  0  0  0  0  0  0
   58.8130   33.8190   47.5210 C   0  0  0  0  0  0  0  0  0  0  0  0
   57.6080   33.2950   47.0280 C   0  0  0  0  0  0  0  0  0  0  0  0
   57.2280   33.5290   45.7030 C   0  0  0  0  0  0  0  0  0  0  0  0
   58.0510   34.2850   44.8600 C   0  0  0  0  0  0  0  0  0  0  0  0
   59.2570   34.8000   45.3410 C   0  0  0  0  0  0  0  0  0  0  0  0
   59.6440   34.5600   46.6630 C   0  0  0  0  0  0  0  0  0  0  0  0
   62.5640   33.4210   50.3800 C   0  0  0  0  0  0  0  0  0  0  0  0
   63.5260   34.2090   51.0220 C   0  0  0  0  0  0  0  0  0  0  0  0
   64.8780   33.8700   50.9320 C   0  0  0  0  0  0  0  0  0  0  0  0
   65.7290   34.5870   51.5290 O   0  0  0  0  0  0  0  0  0  0  0  0
   65.2720   32.7750   50.2080 N   0  0  0  0  0  0  0  0  0  0  0  0
   66.6910   32.4050   50.1390 C   0  0  0  0  0  0  0  0  0  0  0  0
   64.3430   31.9800   49.5950 C   0  0  0  0  0  0  0  0  0  0  0  0
   62.9750   32.2900   49.6540 C   0  0  0  0  0  0  0  0  0  0  0  0
   62.0040   31.4210   49.0460 N   0  0  0  0  0  0  0  0  0  0  0  0
   61.5660   31.5750   47.6860 C   0  0  0  0  0  0  0  0  0  0  0  0
   61.9970   32.5350   46.9900 O   0  0  0  0  0  0  0  0  0  0  0  0
   60.5870   30.6480   47.0850 C   0  0  0  0  0  0  0  0  0  0  0  0
   59.6680   30.9210   46.0730 C   0  0  0  0  0  0  0  0  0  0  0  0
   58.8820   29.8150   45.7210 C   0  0  0  0  0  0  0  0  0  0  0  0
   57.8960   29.9090   44.7930 F   0  0  0  0  0  0  0  0  0  0  0  0
   59.1760   28.6530   46.4400 C   0  0  0  0  0  0  0  0  0  0  0  0
   58.4770   27.3430   46.3760 C   0  0  0  0  0  0  0  0  0  0  0  0
   59.1850   26.1290   46.4760 C   0  0  0  0  0  0  0  0  0  0  0  0
   58.5160   24.9100   46.3520 C   0  0  0  0  0  0  0  0  0  0  0  0
   57.1340   24.8820   46.1490 C   0  0  0  0  0  0  0  0  0  0  0  0
   56.4020   26.0720   46.0990 C   0  0  0  0  0  0  0  0  0  0  0  0
   54.9810   25.9980   45.9250 N   0  0  0  0  0  0  0  0  0  0  0  0
   54.0940   24.5530   45.5580 S   0  0  0  0  0  0  0  0  0  0  0  0
   54.8300   23.6910   44.1820 C   0  0  0  0  0  0  0  0  0  0  0  0
   54.1240   23.6580   46.7630 O   0  0  0  0  0  0  0  0  0  0  0  0
   52.6650   24.9020   45.2500 O   0  0  0  0  0  0  0  0  0  0  0  0
   57.0780   27.2990   46.2070 C   0  0  0  0  0  0  0  0  0  0  0  0
   60.4110   29.0370   47.5280 S   0  0  0  0  0  0  0  0  0  0  0  0
   61.0765   33.7556   52.5618 H   0  0  0  0  0  0  0  0  0  0  0  0
   59.5570   34.2364   51.7331 H   0  0  0  0  0  0  0  0  0  0  0  0
   60.0744   32.5162   51.7331 H   0  0  0  0  0  0  0  0  0  0  0  0
   60.1725   35.3841   49.5276 H   0  0  0  0  0  0  0  0  0  0  0  0
   61.1738   34.3484   48.4380 H   0  0  0  0  0  0  0  0  0  0  0  0
   59.4863   32.4575   49.0246 H   0  0  0  0  0  0  0  0  0  0  0  0
   58.4275   33.7905   49.6190 H   0  0  0  0  0  0  0  0  0  0  0  0
   56.9601   32.6979   47.6865 H   0  0  0  0  0  0  0  0  0  0  0  0
   56.2811   33.1185   45.3225 H   0  0  0  0  0  0  0  0  0  0  0  0
   57.7482   34.4734   43.8194 H   0  0  0  0  0  0  0  0  0  0  0  0
   59.9031   35.3951   44.6789 H   0  0  0  0  0  0  0  0  0  0  0  0
   60.6026   34.9526   47.0331 H   0  0  0  0  0  0  0  0  0  0  0  0
   63.2176   35.0946   51.5970 H   0  0  0  0  0  0  0  0  0  0  0  0
   67.0926   32.3003   51.1577 H   0  0  0  0  0  0  0  0  0  0  0  0
   66.7952   31.4496   49.6038 H   0  0  0  0  0  0  0  0  0  0  0  0
   67.2484   33.1878   49.6038 H   0  0  0  0  0  0  0  0  0  0  0  0
   64.6726   31.0845   49.0477 H   0  0  0  0  0  0  0  0  0  0  0  0
   61.5420   30.7150   49.6550 H   0  0  0  0  0  0  0  0  0  0  0  0
   59.5693   31.9078   45.5972 H   0  0  0  0  0  0  0  0  0  0  0  0
   60.2706   26.1418   46.6527 H   0  0  0  0  0  0  0  0  0  0  0  0
   59.0795   23.9673   46.4144 H   0  0  0  0  0  0  0  0  0  0  0  0
   56.6187   23.9177   46.0278 H   0  0  0  0  0  0  0  0  0  0  0  0
   55.5012   22.9049   44.5584 H   0  0  0  0  0  0  0  0  0  0  0  0
   54.0385   23.2349   43.5693 H   0  0  0  0  0  0  0  0  0  0  0  0
   55.4045   24.4013   43.5693 H   0  0  0  0  0  0  0  0  0  0  0  0
   56.5077   28.2384   46.1590 H   0  0  0  0  0  0  0  0  0  0  0  0
  1  2  1  0
  2  3  1  0
  3  4  1  0
  4  5  1  0
  5  6  2  0
  6  7  1  0
  7  8  2  0
  8  9  1  0
  9 10  2  0
  2 11  1  0
 11 12  2  0
 12 13  1  0
 13 14  2  0
 13 15  1  0
 15 16  1  0
 15 17  1  0
 17 18  2  0
 18 19  1  0
 19 20  1  0
 20 21  2  0
 20 22  1  0
 22 23  2  0
 23 24  1  0
 24 25  1  0
 24 26  2  0
 26 27  1  0
 27 28  2  0
 28 29  1  0
 29 30  2  0
 30 31  1  0
 31 32  1  0
 32 33  1  0
 33 34  1  0
 33 35  2  0
 33 36  2  0
 31 37  2  0
 26 38  1  0
 10  5  1  0
 18 11  1  0
 38 22  1  0
 37 27  1  0
  1 39  1  0
  1 40  1  0
  1 41  1  0
  3 42  1  0
  3 43  1  0
  4 44  1  0
  4 45  1  0
  6 46  1  0
  7 47  1  0
  8 48  1  0
  9 49  1  0
 10 50  1  0
 12 51  1  0
 16 52  1  0
 16 53  1  0
 16 54  1  0
 17 55  1  0
 19 56  1  0
 23 57  1  0
 28 58  1  0
 29 59  1  0
 30 60  1  0
 34 61  1  0
 34 62  1  0
 34 63  1  0
 37 64  1  0
M  CHG  1  32  -1
M  END
>  <UniqueID>  (26) 
25

>  <SMILES>  (26) 
CN(CCc1ccccc1)c1cc(=O)n(C)cc1NC(=O)c1cc(F)c(-c2cccc([N-]S(C)(=O)=O)c2)s1

>  <Energy>  (26) 
103.91360403868086

>  <Genealogy>  (26) 
CN(CCc1ccccc1)c1cc(=O)n(C)cc1NC(=O)c1cc(F)c(-c2cccc([N-]S(C)(=O)=O)c2)s1 (protonated)
CN(CCc1ccccc1)c1cc(=O)n(C)cc1NC(=O)c1cc(F)c(-c2cccc([N-]S(C)(=O)=O)c2)s1 (3D coordinates assigned)
CN(CCc1ccccc1)c1cc(=O)n(C)cc1NC(=O)c1cc(F)c(-c2cccc([N-]S(C)(=O)=O)c2)s1 (optimized conformer: 103.91360403868086 kcal/mol)

>  <smiles>  (26) 
CN(CCc1ccccc1)c1cc(=O)n(C)cc1NC(=O)c1cc(F)c(-c2cccc(NS(C)(=O)=O)c2)s1

>  <score_type>  (26) 
oracle

>  <origin>  (26) 
adg

>  <m_score__min__energy>  (26) 
-11.68

>  <m_primary>  (26) 
energy

$$$$
26:0
     RDKit          3D

 57 60  0  0  0  0  0  0  0  0999 V2000
   63.5190   33.7780   46.6690 C   0  0  0  0  0  0  0  0  0  0  0  0
   62.5360   32.6030   47.5770 S   0  0  0  0  0  0  0  0  0  0  0  0
   61.0730   32.8400   47.3300 O   0  0  0  0  0  0  0  0  0  0  0  0
   62.8860   31.2190   47.1110 O   0  0  0  0  0  0  0  0  0  0  0  0
   62.8800   32.7210   49.2740 N   0  0  0  0  0  0  0  0  0  0  0  0
   64.1320   32.4080   49.9060 C   0  0  0  0  0  0  0  0  0  0  0  0
   65.2360   33.2750   49.8340 C   0  0  0  0  0  0  0  0  0  0  0  0
   66.4390   32.9390   50.4600 C   0  0  0  0  0  0  0  0  0  0  0  0
   66.5560   31.7370   51.1660 C   0  0  0  0  0  0  0  0  0  0  0  0
   67.7890   31.3960   51.8060 N   0  0  0  0  0  0  0  0  0  0  0  0
   65.4590   30.8700   51.2420 C   0  0  0  0  0  0  0  0  0  0  0  0
   64.2410   31.2000   50.6140 C   0  0  0  0  0  0  0  0  0  0  0  0
   63.1220   30.3550   50.6720 O   0  0  0  0  0  0  0  0  0  0  0  0
   61.9190   30.6520   51.3750 C   0  0  0  0  0  0  0  0  0  0  0  0
   60.7510   30.2840   50.5240 C   0  0  0  0  0  0  0  0  0  0  0  0
   60.5770   30.5850   49.1920 C   0  0  0  0  0  0  0  0  0  0  0  0
   59.4260   29.9940   48.8280 N   0  0  0  0  0  0  0  0  0  0  0  0
   58.8400   29.9730   47.4930 C   0  0  0  0  0  0  0  0  0  0  0  0
   59.9550   30.0690   46.4340 C   0  0  0  0  0  0  0  0  0  0  0  0
   59.9350   29.0040   45.4030 N   0  0  0  0  0  0  0  0  0  0  0  0
   60.7510   27.8080   45.6870 C   0  0  0  0  0  0  0  0  0  0  0  0
   60.0630   26.8330   46.6490 C   0  0  0  0  0  0  0  0  0  0  0  0
   58.5820   26.6990   46.3940 C   0  0  0  0  0  0  0  0  0  0  0  0
   57.8680   25.6910   47.0620 C   0  0  0  0  0  0  0  0  0  0  0  0
   56.4830   25.5680   46.8910 C   0  0  0  0  0  0  0  0  0  0  0  0
   55.7760   24.5650   47.5520 O   0  0  0  0  0  0  0  0  0  0  0  0
   55.8040   26.4580   46.0530 C   0  0  0  0  0  0  0  0  0  0  0  0
   54.4300   26.3400   45.8750 O   0  0  0  0  0  0  0  0  0  0  0  0
   56.5040   27.4700   45.3910 C   0  0  0  0  0  0  0  0  0  0  0  0
   57.8890   27.6110   45.5700 C   0  0  0  0  0  0  0  0  0  0  0  0
   58.6250   28.6860   44.8080 C   0  0  0  0  0  0  0  0  0  0  0  0
   58.9370   29.3420   49.8710 N   0  0  0  0  0  0  0  0  0  0  0  0
   59.7280   29.5000   50.9240 N   0  0  0  0  0  0  0  0  0  0  0  0
   64.0607   34.4255   47.3742 H   0  0  0  0  0  0  0  0  0  0  0  0
   64.2406   33.2408   46.0360 H   0  0  0  0  0  0  0  0  0  0  0  0
   62.8629   34.3934   46.0360 H   0  0  0  0  0  0  0  0  0  0  0  0
   65.1524   34.2228   49.2820 H   0  0  0  0  0  0  0  0  0  0  0  0
   67.2983   33.6229   50.3974 H   0  0  0  0  0  0  0  0  0  0  0  0
   68.6280   32.0100   51.7110 H   0  0  0  0  0  0  0  0  0  0  0  0
   67.8700   30.5310   52.3870 H   0  0  0  0  0  0  0  0  0  0  0  0
   65.5485   29.9240   51.7961 H   0  0  0  0  0  0  0  0  0  0  0  0
   61.8881   30.0758   52.3115 H   0  0  0  0  0  0  0  0  0  0  0  0
   61.8826   31.7263   51.6085 H   0  0  0  0  0  0  0  0  0  0  0  0
   61.2434   31.1860   48.5559 H   0  0  0  0  0  0  0  0  0  0  0  0
   58.2828   29.0349   47.3531 H   0  0  0  0  0  0  0  0  0  0  0  0
   58.1576   30.8285   47.3816 H   0  0  0  0  0  0  0  0  0  0  0  0
   59.8585   31.0389   45.9242 H   0  0  0  0  0  0  0  0  0  0  0  0
   60.9046   29.9527   46.9769 H   0  0  0  0  0  0  0  0  0  0  0  0
   60.9497   27.2853   44.7397 H   0  0  0  0  0  0  0  0  0  0  0  0
   61.6796   28.1480   46.1687 H   0  0  0  0  0  0  0  0  0  0  0  0
   60.5289   25.8428   46.5370 H   0  0  0  0  0  0  0  0  0  0  0  0
   60.1867   27.2326   47.6664 H   0  0  0  0  0  0  0  0  0  0  0  0
   58.4003   24.9927   47.7246 H   0  0  0  0  0  0  0  0  0  0  0  0
   54.7720   24.4670   47.4470 H   0  0  0  0  0  0  0  0  0  0  0  0
   55.9661   28.1608   44.7251 H   0  0  0  0  0  0  0  0  0  0  0  0
   58.7811   28.3419   43.7749 H   0  0  0  0  0  0  0  0  0  0  0  0
   58.0122   29.5988   44.8424 H   0  0  0  0  0  0  0  0  0  0  0  0
  1  2  1  0
  2  3  2  0
  2  4  2  0
  2  5  1  0
  5  6  1  0
  6  7  2  0
  7  8  1  0
  8  9  2  0
  9 10  1  0
  9 11  1  0
 11 12  2  0
 12 13  1  0
 13 14  1  0
 14 15  1  0
 15 16  2  0
 16 17  1  0
 17 18  1  0
 18 19  1  0
 19 20  1  0
 20 21  1  0
 21 22  1  0
 22 23  1  0
 23 24  2  0
 24 25  1  0
 25 26  1  0
 25 27  2  0
 27 28  1  0
 27 29  1  0
 29 30  2  0
 30 31  1  0
 17 32  1  0
 32 33  2  0
 12  6  1  0
 33 15  1  0
 31 20  1  0
 30 23  1  0
  1 34  1  0
  1 35  1  0
  1 36  1  0
  7 37  1  0
  8 38  1  0
 10 39  1  0
 10 40  1  0
 11 41  1  0
 14 42  1  0
 14 43  1  0
 16 44  1  0
 18 45  1  0
 18 46  1  0
 19 47  1  0
 19 48  1  0
 21 49  1  0
 21 50  1  0
 22 51  1  0
 22 52  1  0
 24 53  1  0
 26 54  1  0
 29 55  1  0
 31 56  1  0
 31 57  1  0
M  CHG  2   5  -1  28  -1
M  END
>  <UniqueID>  (27) 
26

>  <SMILES>  (27) 
CS(=O)(=O)[N-]c1ccc(N)cc1OCc1cn(CCN2CCc3cc(O)c([O-])cc3C2)nn1

>  <Energy>  (27) 
100.82633853172332

>  <Genealogy>  (27) 
CS(=O)(=O)[N-]c1ccc(N)cc1OCc1cn(CCN2CCc3cc(O)c([O-])cc3C2)nn1 (protonated)
CS(=O)(=O)[N-]c1ccc(N)cc1OCc1cn(CCN2CCc3cc(O)c([O-])cc3C2)nn1 (3D coordinates assigned)
CS(=O)(=O)[N-]c1ccc(N)cc1OCc1cn(CCN2CCc3cc(O)c([O-])cc3C2)nn1 (nonaromatic ring conformer: 100.82633853172332 kcal/mol)

>  <smiles>  (27) 
CS(=O)(=O)Nc1ccc(N)cc1OCc1cn(CCN2CCc3cc(O)c(O)cc3C2)nn1

>  <score_type>  (27) 
oracle

>  <origin>  (27) 
adg

>  <m_score__min__energy>  (27) 
-14.48

>  <m_primary>  (27) 
energy

$$$$
27:0
     RDKit          3D

 39 41  0  0  0  0  0  0  0  0999 V2000
   55.7050   24.7950   47.1310 O   0  0  0  0  0  0  0  0  0  0  0  0
   55.3350   25.1710   45.9890 C   0  0  0  0  0  0  0  0  0  0  0  0
   54.5800   26.3300   45.8570 O   0  0  0  0  0  0  0  0  0  0  0  0
   55.6830   24.3650   44.7780 C   0  0  0  0  0  0  0  0  0  0  0  0
   56.9690   23.6990   44.9610 N   0  0  0  0  0  0  0  0  0  0  0  0
   58.1870   24.3300   45.3820 C   0  0  0  0  0  0  0  0  0  0  0  0
   59.0630   23.6320   45.9560 O   0  0  0  0  0  0  0  0  0  0  0  0
   58.4320   25.7730   45.1910 C   0  0  0  0  0  0  0  0  0  0  0  0
   59.0850   26.5080   46.1910 C   0  0  0  0  0  0  0  0  0  0  0  0
   59.3300   27.8730   46.0180 C   0  0  0  0  0  0  0  0  0  0  0  0
   58.9370   28.5190   44.8310 C   0  0  0  0  0  0  0  0  0  0  0  0
   59.1750   29.9150   44.6050 N   0  0  0  0  0  0  0  0  0  0  0  0
   57.9460   31.1340   44.4970 S   0  0  0  0  0  0  0  0  0  0  0  0
   56.6960   30.6190   45.1550 O   0  0  0  0  0  0  0  0  0  0  0  0
   57.6620   31.4100   43.0490 O   0  0  0  0  0  0  0  0  0  0  0  0
   58.4840   32.6330   45.2670 C   0  0  0  0  0  0  0  0  0  0  0  0
   58.6150   33.7980   44.4950 C   0  0  0  0  0  0  0  0  0  0  0  0
   59.0440   34.9930   45.0800 C   0  0  0  0  0  0  0  0  0  0  0  0
   59.3400   35.0440   46.4430 C   0  0  0  0  0  0  0  0  0  0  0  0
   59.2000   33.8960   47.2340 C   0  0  0  0  0  0  0  0  0  0  0  0
   59.4810   33.9260   48.6060 C   0  0  0  0  0  0  0  0  0  0  0  0
   59.3270   32.7710   49.3730 C   0  0  0  0  0  0  0  0  0  0  0  0
   58.8950   31.5930   48.7600 C   0  0  0  0  0  0  0  0  0  0  0  0
   58.6280   31.5740   47.4270 N   0  0  0  0  0  0  0  0  0  0  0  0
   58.7680   32.6830   46.6460 C   0  0  0  0  0  0  0  0  0  0  0  0
   58.3060   27.7770   43.8260 C   0  0  0  0  0  0  0  0  0  0  0  0
   58.0600   26.4120   43.9990 C   0  0  0  0  0  0  0  0  0  0  0  0
   54.9032   23.6074   44.6108 H   0  0  0  0  0  0  0  0  0  0  0  0
   55.7501   25.0371   43.9098 H   0  0  0  0  0  0  0  0  0  0  0  0
   59.4061   26.0075   47.1164 H   0  0  0  0  0  0  0  0  0  0  0  0
   59.8319   28.4446   46.8126 H   0  0  0  0  0  0  0  0  0  0  0  0
   58.3782   33.7704   43.4211 H   0  0  0  0  0  0  0  0  0  0  0  0
   59.1488   35.8976   44.4630 H   0  0  0  0  0  0  0  0  0  0  0  0
   59.6833   35.9856   46.8963 H   0  0  0  0  0  0  0  0  0  0  0  0
   59.8226   34.8590   49.0779 H   0  0  0  0  0  0  0  0  0  0  0  0
   59.5440   32.7880   50.4513 H   0  0  0  0  0  0  0  0  0  0  0  0
   58.7704   30.6778   49.3573 H   0  0  0  0  0  0  0  0  0  0  0  0
   58.0011   28.2721   42.8922 H   0  0  0  0  0  0  0  0  0  0  0  0
   57.5730   25.8369   43.1977 H   0  0  0  0  0  0  0  0  0  0  0  0
  1  2  2  0
  2  3  1  0
  2  4  1  0
  4  5  1  0
  5  6  1  0
  6  7  2  0
  6  8  1  0
  8  9  2  0
  9 10  1  0
 10 11  2  0
 11 12  1  0
 12 13  1  0
 13 14  2  0
 13 15  2  0
 13 16  1  0
 16 17  2  0
 17 18  1  0
 18 19  2  0
 19 20  1  0
 20 21  2  0
 21 22  1  0
 22 23  2  0
 23 24  1  0
 24 25  2  0
 11 26  1  0
 26 27  2  0
 27  8  1  0
 25 16  1  0
 25 20  1  0
  4 28  1  0
  4 29  1  0
  9 30  1  0
 10 31  1  0
 17 32  1  0
 18 33  1  0
 19 34  1  0
 21 35  1  0
 22 36  1  0
 23 37  1  0
 26 38  1  0
 27 39  1  0
M  CHG  3   3  -1   5  -1  12  -1
M  END
>  <UniqueID>  (28) 
27

>  <SMILES>  (28) 
O=C([O-])C[N-]C(=O)c1ccc([N-]S(=O)(=O)c2cccc3cccnc23)cc1

>  <Energy>  (28) 
52.07877348918846

>  <Genealogy>  (28) 
O=C([O-])C[N-]C(=O)c1ccc([N-]S(=O)(=O)c2cccc3cccnc23)cc1 (protonated)
O=C([O-])C[N-]C(=O)c1ccc([N-]S(=O)(=O)c2cccc3cccnc23)cc1 (3D coordinates assigned)
O=C([O-])C[N-]C(=O)c1ccc([N-]S(=O)(=O)c2cccc3cccnc23)cc1 (optimized conformer: 52.07877348918846 kcal/mol)

>  <smiles>  (28) 
O=C(O)CNC(=O)c1ccc(NS(=O)(=O)c2cccc3cccnc23)cc1

>  <score_type>  (28) 
oracle

>  <origin>  (28) 
adg

>  <m_score__min__energy>  (28) 
-13.74

>  <m_primary>  (28) 
energy

$$$$
28:0
     RDKit          3D

 43 45  0  0  0  0  0  0  0  0999 V2000
   57.5078   32.9009   52.2177 H   0  0  0  0  0  0  0  0  0  0  0  0
   58.2920   32.7110   51.4700 C   0  0  0  0  0  0  0  0  0  0  0  0
   58.3430   31.4770   50.7870 C   0  0  0  0  0  0  0  0  0  0  0  0
   57.3860   30.4690   50.9990 O   0  0  0  0  0  0  0  0  0  0  0  0
   56.3850   30.5120   52.0130 C   0  0  0  0  0  0  0  0  0  0  0  0
   56.8646   30.4914   53.0027 H   0  0  0  0  0  0  0  0  0  0  0  0
   55.7975   31.4362   51.9094 H   0  0  0  0  0  0  0  0  0  0  0  0
   55.7205   29.6416   51.9094 H   0  0  0  0  0  0  0  0  0  0  0  0
   59.3320   31.2580   49.8760 N   0  0  0  0  0  0  0  0  0  0  0  0
   60.2740   32.2020   49.5850 C   0  0  0  0  0  0  0  0  0  0  0  0
   61.1820   31.9830   48.6810 N   0  0  0  0  0  0  0  0  0  0  0  0
   61.1900   32.5300   47.3520 C   0  0  0  0  0  0  0  0  0  0  0  0
   62.2700   32.9110   46.8200 O   0  0  0  0  0  0  0  0  0  0  0  0
   59.9170   32.6730   46.6180 C   0  0  0  0  0  0  0  0  0  0  0  0
   59.4870   33.9580   46.2570 C   0  0  0  0  0  0  0  0  0  0  0  0
   60.1299   34.8266   46.4623 H   0  0  0  0  0  0  0  0  0  0  0  0
   58.2490   34.1430   45.6390 C   0  0  0  0  0  0  0  0  0  0  0  0
   57.9225   35.1553   45.3585 H   0  0  0  0  0  0  0  0  0  0  0  0
   57.4250   33.0500   45.3760 C   0  0  0  0  0  0  0  0  0  0  0  0
   56.4450   33.2058   44.9012 H   0  0  0  0  0  0  0  0  0  0  0  0
   57.8390   31.7490   45.7140 C   0  0  0  0  0  0  0  0  0  0  0  0
   57.0240   30.5980   45.4290 N   0  0  0  0  0  0  0  0  0  0  0  0
   56.6090   30.0100   43.8510 S   0  0  0  0  0  0  0  0  0  0  0  0
   55.1390   29.7000   43.7870 O   0  0  0  0  0  0  0  0  0  0  0  0
   57.3820   28.7470   43.5890 O   0  0  0  0  0  0  0  0  0  0  0  0
   57.0470   31.2130   42.6080 C   0  0  0  0  0  0  0  0  0  0  0  0
   57.3842   32.1390   43.0967 H   0  0  0  0  0  0  0  0  0  0  0  0
   57.8574   30.8135   41.9805 H   0  0  0  0  0  0  0  0  0  0  0  0
   56.1695   31.4281   41.9805 H   0  0  0  0  0  0  0  0  0  0  0  0
   59.0960   31.5550   46.3350 C   0  0  0  0  0  0  0  0  0  0  0  0
   59.5750   30.2170   46.5740 N   0  0  0  0  0  0  0  0  0  0  0  0
   59.7650   29.2620   45.6360 C   0  0  0  0  0  0  0  0  0  0  0  0
   59.5897   29.3766   44.5561 H   0  0  0  0  0  0  0  0  0  0  0  0
   60.2170   28.1170   46.2650 C   0  0  0  0  0  0  0  0  0  0  0  0
   60.4698   27.1525   45.8005 H   0  0  0  0  0  0  0  0  0  0  0  0
   60.2820   28.4500   47.6090 C   0  0  0  0  0  0  0  0  0  0  0  0
   60.6046   27.7790   48.4187 H   0  0  0  0  0  0  0  0  0  0  0  0
   59.8860   29.7290   47.7630 N   0  0  0  0  0  0  0  0  0  0  0  0
   59.8390   30.2590   48.6660 H   0  0  0  0  0  0  0  0  0  0  0  0
   60.2370   33.4420   50.2340 C   0  0  0  0  0  0  0  0  0  0  0  0
   60.9816   34.2156   49.9951 H   0  0  0  0  0  0  0  0  0  0  0  0
   59.2480   33.6880   51.1860 C   0  0  0  0  0  0  0  0  0  0  0  0
   59.2211   34.6528   51.7137 H   0  0  0  0  0  0  0  0  0  0  0  0
  1  2  1  0
  2  3  2  0
  3  4  1  0
  4  5  1  0
  5  6  1  0
  5  7  1  0
  5  8  1  0
  3  9  1  0
  9 10  1  0
 10 11  2  0
 11 12  1  0
 12 13  2  0
 12 14  1  0
 14 15  2  0
 15 16  1  0
 15 17  1  0
 17 18  1  0
 17 19  2  0
 19 20  1  0
 19 21  1  0
 21 22  1  0
 22 23  1  0
 23 24  2  0
 23 25  2  0
 23 26  1  0
 26 27  1  0
 26 28  1  0
 26 29  1  0
 21 30  2  0
 30 31  1  0
 31 32  1  0
 32 33  1  0
 32 34  2  0
 34 35  1  0
 34 36  1  0
 36 37  1  0
 36 38  2  0
 38 39  1  0
 10 40  1  0
 40 41  1  0
 40 42  2  0
 42 43  1  0
 42  2  1  0
 30 14  1  0
 38 31  1  0
M  CHG  3   9  -1  22  -1  38   1
M  END
>  <UniqueID>  (29) 
28

>  <SMILES>  (29) 
COc1ccc/c(=N/C(=O)c2cccc([N-]S(C)(=O)=O)c2-n2ccc[nH+]2)[n-]1

>  <Energy>  (29) 
90.42848161221185

>  <Genealogy>  (29) 
COc1cccc(=NC(=O)c2cccc([N-]S(C)(=O)=O)c2-n2ccc[nH+]2)[n-]1 (protonated)
COc1ccc/c(=N/C(=O)c2cccc([N-]S(C)(=O)=O)c2-n2ccc[nH+]2)[n-]1 (cis-trans isomerization)
COc1ccc/c(=N/C(=O)c2cccc([N-]S(C)(=O)=O)c2-n2ccc[nH+]2)[n-]1 (3D coordinates assigned)
COc1ccc/c(=N/C(=O)c2cccc([N-]S(C)(=O)=O)c2-n2ccc[nH+]2)[n-]1 (optimized conformer: 90.42848161221185 kcal/mol)

>  <smiles>  (29) 
COc1cccc(=NC(=O)c2cccc(NS(C)(=O)=O)c2-n2cccn2)[nH]1

>  <score_type>  (29) 
oracle

>  <origin>  (29) 
adg

>  <m_score__min__energy>  (29) 
-9.5399999999999991

>  <m_primary>  (29) 
energy

$$$$
29:0
     RDKit          3D

 45 48  0  0  0  0  0  0  0  0999 V2000
   58.5790   33.7850   47.7260 O   0  0  0  0  0  0  0  0  0  0  0  0
   59.5250   33.2350   48.7570 S   0  0  0  0  0  0  0  0  0  0  0  0
   59.5390   34.1620   49.9400 O   0  0  0  0  0  0  0  0  0  0  0  0
   61.1440   33.1330   48.0630 C   0  0  0  0  0  0  0  0  0  0  0  0
   61.4600   33.8880   46.9240 C   0  0  0  0  0  0  0  0  0  0  0  0
   62.7460   33.8350   46.3780 C   0  0  0  0  0  0  0  0  0  0  0  0
   63.7250   33.0330   46.9690 C   0  0  0  0  0  0  0  0  0  0  0  0
   63.4190   32.2810   48.1070 C   0  0  0  0  0  0  0  0  0  0  0  0
   62.1320   32.3290   48.6540 C   0  0  0  0  0  0  0  0  0  0  0  0
   58.9390   31.6610   49.2730 C   0  0  0  0  0  0  0  0  0  0  0  0
   58.9440   30.4840   48.5630 C   0  0  0  0  0  0  0  0  0  0  0  0
   59.3660   30.3250   47.2370 O   0  0  0  0  0  0  0  0  0  0  0  0
   58.5410   30.5360   46.1240 C   0  0  0  0  0  0  0  0  0  0  0  0
   58.1740   31.8360   45.7290 C   0  0  0  0  0  0  0  0  0  0  0  0
   57.3860   32.0340   44.5920 C   0  0  0  0  0  0  0  0  0  0  0  0
   56.9600   30.9390   43.8390 C   0  0  0  0  0  0  0  0  0  0  0  0
   57.3010   29.6430   44.2340 C   0  0  0  0  0  0  0  0  0  0  0  0
   58.0580   29.4310   45.3930 C   0  0  0  0  0  0  0  0  0  0  0  0
   58.3970   28.0840   45.7560 N   0  0  0  0  0  0  0  0  0  0  0  0
   57.6670   27.2290   46.4200 C   0  0  0  0  0  0  0  0  0  0  0  0
   57.1920   25.9180   45.9020 C   0  0  0  0  0  0  0  0  0  0  0  0
   58.0750   24.8420   45.6700 C   0  0  0  0  0  0  0  0  0  0  0  0
   57.5940   23.6190   45.1950 C   0  0  0  0  0  0  0  0  0  0  0  0
   58.8090   22.1850   44.8500 Br  0  0  0  0  0  0  0  0  0  0  0  0
   56.2240   23.4380   44.9870 C   0  0  0  0  0  0  0  0  0  0  0  0
   55.3340   24.4740   45.2710 C   0  0  0  0  0  0  0  0  0  0  0  0
   55.8080   25.7060   45.7350 C   0  0  0  0  0  0  0  0  0  0  0  0
   54.8950   26.7130   46.0290 O   0  0  0  0  0  0  0  0  0  0  0  0
   58.4170   29.5120   49.3400 N   0  0  0  0  0  0  0  0  0  0  0  0
   58.1180   30.0950   50.4690 O   0  0  0  0  0  0  0  0  0  0  0  0
   58.4110   31.3610   50.4680 N   0  0  0  0  0  0  0  0  0  0  0  0
   58.1950   32.2200   51.5200 O   0  0  0  0  0  0  0  0  0  0  0  0
   60.6930   34.5244   46.4584 H   0  0  0  0  0  0  0  0  0  0  0  0
   62.9871   34.4256   45.4819 H   0  0  0  0  0  0  0  0  0  0  0  0
   64.7367   32.9931   46.5390 H   0  0  0  0  0  0  0  0  0  0  0  0
   64.1908   31.6508   48.5730 H   0  0  0  0  0  0  0  0  0  0  0  0
   61.8937   31.7356   49.5490 H   0  0  0  0  0  0  0  0  0  0  0  0
   58.5095   32.7017   46.3190 H   0  0  0  0  0  0  0  0  0  0  0  0
   57.1015   33.0529   44.2906 H   0  0  0  0  0  0  0  0  0  0  0  0
   56.3552   31.0964   42.9337 H   0  0  0  0  0  0  0  0  0  0  0  0
   56.9728   28.7837   43.6308 H   0  0  0  0  0  0  0  0  0  0  0  0
   57.3797   27.5004   47.4466 H   0  0  0  0  0  0  0  0  0  0  0  0
   59.1504   24.9669   45.8646 H   0  0  0  0  0  0  0  0  0  0  0  0
   55.8478   22.4796   44.5997 H   0  0  0  0  0  0  0  0  0  0  0  0
   54.2539   24.3216   45.1294 H   0  0  0  0  0  0  0  0  0  0  0  0
  1  2  2  0
  2  3  2  0
  2  4  1  0
  4  5  2  0
  5  6  1  0
  6  7  2  0
  7  8  1  0
  8  9  2  0
  2 10  1  0
 10 11  1  0
 11 12  1  0
 12 13  1  0
 13 14  2  0
 14 15  1  0
 15 16  2  0
 16 17  1  0
 17 18  2  0
 18 19  1  0
 19 20  2  3
 20 21  1  0
 21 22  2  0
 22 23  1  0
 23 24  1  0
 23 25  2  0
 25 26  1  0
 26 27  2  0
 27 28  1  0
 11 29  2  0
 29 30  1  0
 30 31  1  0
 31 32  1  0
  9  4  1  0
 31 10  2  0
 18 13  1  0
 27 21  1  0
  5 33  1  0
  6 34  1  0
  7 35  1  0
  8 36  1  0
  9 37  1  0
 14 38  1  0
 15 39  1  0
 16 40  1  0
 17 41  1  0
 20 42  1  0
 22 43  1  0
 25 44  1  0
 26 45  1  0
M  CHG  3  28  -1  31   1  32  -1
M  END
>  <UniqueID>  (30) 
29

>  <SMILES>  (30) 
O=S(=O)(c1ccccc1)c1c(Oc2ccccc2N=Cc2cc(Br)ccc2[O-])no[n+]1[O-]

>  <Energy>  (30) 
104.94473312161114

>  <Genealogy>  (30) 
O=S(=O)(c1ccccc1)c1c(Oc2ccccc2N=Cc2cc(Br)ccc2[O-])no[n+]1[O-] (protonated)
O=S(=O)(c1ccccc1)c1c(Oc2ccccc2N=Cc2cc(Br)ccc2[O-])no[n+]1[O-] (3D coordinates assigned)
O=S(=O)(c1ccccc1)c1c(Oc2ccccc2N=Cc2cc(Br)ccc2[O-])no[n+]1[O-] (optimized conformer: 104.94473312161114 kcal/mol)

>  <smiles>  (30) 
O=S(=O)(c1ccccc1)c1c(Oc2ccccc2N=Cc2cc(Br)ccc2O)no[n+]1[O-]

>  <score_type>  (30) 
oracle

>  <origin>  (30) 
adg

>  <m_score__min__energy>  (30) 
-13.449999999999999

>  <m_primary>  (30) 
energy

$$$$
30:0
     RDKit          3D

 29 30  0  0  0  0  0  0  0  0999 V2000
   55.1430   27.4880   45.5620 H   0  0  0  0  0  0  0  0  0  0  0  0
   55.9600   26.9720   45.9500 N   0  0  0  0  0  0  0  0  0  0  0  0
   57.2130   27.2520   45.7310 C   0  0  0  0  0  0  0  0  0  0  0  0
   57.5520   28.5470   45.2490 C   0  0  0  0  0  0  0  0  0  0  0  0
   56.5330   29.6080   44.9910 C   0  0  0  0  0  0  0  0  0  0  0  0
   56.8640   30.8210   44.9100 O   0  0  0  0  0  0  0  0  0  0  0  0
   55.1580   29.2630   44.8290 N   0  0  0  0  0  0  0  0  0  0  0  0
   54.4870   29.3450   45.6260 H   0  0  0  0  0  0  0  0  0  0  0  0
   58.9040   28.8340   45.0050 C   0  0  0  0  0  0  0  0  0  0  0  0
   59.1914   29.8275   44.6302 H   0  0  0  0  0  0  0  0  0  0  0  0
   59.8800   27.8770   45.2320 C   0  0  0  0  0  0  0  0  0  0  0  0
   60.9377   28.1095   45.0393 H   0  0  0  0  0  0  0  0  0  0  0  0
   59.5160   26.6230   45.7040 C   0  0  0  0  0  0  0  0  0  0  0  0
   60.2937   25.8653   45.8802 H   0  0  0  0  0  0  0  0  0  0  0  0
   58.2060   26.3130   45.9540 N   0  0  0  0  0  0  0  0  0  0  0  0
   57.9120   24.9490   46.4420 C   0  0  0  0  0  0  0  0  0  0  0  0
   58.7902   24.5633   46.9805 H   0  0  0  0  0  0  0  0  0  0  0  0
   57.0391   24.9980   47.1095 H   0  0  0  0  0  0  0  0  0  0  0  0
   57.5880   24.0190   45.2980 C   0  0  0  0  0  0  0  0  0  0  0  0
   56.7370   24.4360   44.2590 C   0  0  0  0  0  0  0  0  0  0  0  0
   56.3158   25.4521   44.2709 H   0  0  0  0  0  0  0  0  0  0  0  0
   56.4240   23.5660   43.2120 C   0  0  0  0  0  0  0  0  0  0  0  0
   55.7652   23.9018   42.3976 H   0  0  0  0  0  0  0  0  0  0  0  0
   56.9460   22.2700   43.1970 C   0  0  0  0  0  0  0  0  0  0  0  0
   56.7006   21.5881   42.3695 H   0  0  0  0  0  0  0  0  0  0  0  0
   57.7790   21.8400   44.2320 C   0  0  0  0  0  0  0  0  0  0  0  0
   58.1870   20.8185   44.2207 H   0  0  0  0  0  0  0  0  0  0  0  0
   58.0950   22.7070   45.2830 C   0  0  0  0  0  0  0  0  0  0  0  0
   58.7431   22.3612   46.1018 H   0  0  0  0  0  0  0  0  0  0  0  0
  1  2  1  0
  2  3  2  0
  3  4  1  0
  4  5  1  0
  5  6  2  0
  5  7  1  0
  7  8  1  0
  4  9  2  0
  9 10  1  0
  9 11  1  0
 11 12  1  0
 11 13  2  0
 13 14  1  0
 13 15  1  0
 15 16  1  0
 16 17  1  0
 16 18  1  0
 16 19  1  0
 19 20  2  0
 20 21  1  0
 20 22  1  0
 22 23  1  0
 22 24  2  0
 24 25  1  0
 24 26  1  0
 26 27  1  0
 26 28  2  0
 28 29  1  0
 15  3  1  0
 28 19  1  0
M  CHG  1   7  -1
M  END
>  <UniqueID>  (31) 
30

>  <SMILES>  (31) 
[H]/N=c1/c(C([NH-])=O)cccn1Cc1ccccc1

>  <Energy>  (31) 
38.01974036875423

>  <Genealogy>  (31) 
N=c1c(C([NH-])=O)cccn1Cc1ccccc1 (protonated)
[H]/N=c1/c(C([NH-])=O)cccn1Cc1ccccc1 (cis-trans isomerization)
[H]/N=c1/c(C([NH-])=O)cccn1Cc1ccccc1 (3D coordinates assigned)
[H]/N=c1/c(C([NH-])=O)cccn1Cc1ccccc1 (optimized conformer: 38.01974036875423 kcal/mol)

>  <smiles>  (31) 
N=c1c(C(N)=O)cccn1Cc1ccccc1

>  <score_type>  (31) 
oracle

>  <origin>  (31) 
adg

>  <m_score__min__energy>  (31) 
-10.69

>  <m_primary>  (31) 
energy

$$$$
31:0
     RDKit          3D

 66 69  0  0  0  0  0  0  0  0999 V2000
   60.0910   29.3570   45.8740 N   0  0  0  0  0  0  0  0  0  0  0  0
   59.6010   29.5990   47.2370 C   0  0  2  0  0  0  0  0  0  0  0  0
   60.7750   29.7830   48.2290 C   0  0  0  0  0  0  0  0  0  0  0  0
   61.5810   31.0430   48.0220 C   0  0  0  0  0  0  0  0  0  0  0  0
   62.6380   31.3640   48.8900 C   0  0  0  0  0  0  0  0  0  0  0  0
   63.3820   32.5310   48.6990 C   0  0  0  0  0  0  0  0  0  0  0  0
   63.0600   33.4050   47.6540 C   0  0  0  0  0  0  0  0  0  0  0  0
   63.7860   34.5780   47.4760 O   0  0  0  0  0  0  0  0  0  0  0  0
   62.0010   33.1020   46.7940 C   0  0  0  0  0  0  0  0  0  0  0  0
   61.2650   31.9250   46.9730 C   0  0  0  0  0  0  0  0  0  0  0  0
   58.5300   28.5690   47.7120 C   0  0  0  0  0  0  0  0  0  0  0  0
   58.3570   27.4440   46.7610 N   0  0  0  0  0  0  0  0  0  0  0  0
   58.5210   26.1290   47.3900 C   0  0  0  0  0  0  0  0  0  0  0  0
   57.7980   25.1370   46.5010 C   0  0  0  0  0  0  0  0  0  0  0  0
   56.6890   25.9430   45.8460 C   0  0  0  0  0  0  0  0  0  0  0  0
   57.0180   27.4120   46.1500 C   0  0  2  0  0  0  0  0  0  0  0  0
   56.9740   28.2920   44.8930 C   0  0  0  0  0  0  0  0  0  0  0  0
   56.6270   29.6720   45.2370 N   0  0  0  0  0  0  0  0  0  0  0  0
   57.5100   30.7700   44.2220 S   0  0  0  0  0  0  0  0  0  0  0  0
   56.6780   31.1070   43.0170 O   0  0  0  0  0  0  0  0  0  0  0  0
   58.7830   30.1220   43.7570 O   0  0  0  0  0  0  0  0  0  0  0  0
   57.8670   32.2440   45.1190 C   0  0  0  0  0  0  0  0  0  0  0  0
   58.1370   33.4380   44.4440 C   0  0  0  0  0  0  0  0  0  0  0  0
   58.5060   34.5790   45.1600 C   0  0  0  0  0  0  0  0  0  0  0  0
   58.6230   34.5280   46.5530 C   0  0  0  0  0  0  0  0  0  0  0  0
   58.3780   33.3320   47.2430 C   0  0  0  0  0  0  0  0  0  0  0  0
   58.5210   33.3030   48.6790 N   0  0  0  0  0  0  0  0  0  0  0  0
   59.6970   33.7380   49.3810 C   0  0  0  0  0  0  0  0  0  0  0  0
   60.3820   34.6860   48.9120 O   0  0  0  0  0  0  0  0  0  0  0  0
   60.1020   33.1200   50.6720 C   0  0  0  0  0  0  0  0  0  0  0  0
   61.2930   33.4970   51.3260 C   0  0  0  0  0  0  0  0  0  0  0  0
   61.6230   32.9580   52.5740 C   0  0  0  0  0  0  0  0  0  0  0  0
   60.7650   32.0490   53.1910 C   0  0  0  0  0  0  0  0  0  0  0  0
   59.5860   31.6600   52.5530 C   0  0  0  0  0  0  0  0  0  0  0  0
   59.2540   32.1900   51.3050 C   0  0  0  0  0  0  0  0  0  0  0  0
   57.9680   32.1980   46.5160 C   0  0  0  0  0  0  0  0  0  0  0  0
   60.1820   30.2720   45.3740 H   0  0  0  0  0  0  0  0  0  0  0  0
   59.4050   28.7690   45.3440 H   0  0  0  0  0  0  0  0  0  0  0  0
   59.0533   30.5527   47.2138 H   0  0  0  0  0  0  0  0  0  0  0  0
   60.3627   29.8030   49.2486 H   0  0  0  0  0  0  0  0  0  0  0  0
   61.4625   28.9415   48.0581 H   0  0  0  0  0  0  0  0  0  0  0  0
   62.8816   30.6918   49.7259 H   0  0  0  0  0  0  0  0  0  0  0  0
   64.2217   32.7633   49.3705 H   0  0  0  0  0  0  0  0  0  0  0  0
   61.7453   33.7900   45.9746 H   0  0  0  0  0  0  0  0  0  0  0  0
   60.4356   31.6887   46.2901 H   0  0  0  0  0  0  0  0  0  0  0  0
   58.8404   28.1622   48.6857 H   0  0  0  0  0  0  0  0  0  0  0  0
   57.5677   29.0976   47.7803 H   0  0  0  0  0  0  0  0  0  0  0  0
   59.5880   25.8707   47.4593 H   0  0  0  0  0  0  0  0  0  0  0  0
   58.1123   26.1214   48.4112 H   0  0  0  0  0  0  0  0  0  0  0  0
   58.4804   24.7275   45.7416 H   0  0  0  0  0  0  0  0  0  0  0  0
   57.4093   24.2774   47.0667 H   0  0  0  0  0  0  0  0  0  0  0  0
   56.6762   25.7683   44.7600 H   0  0  0  0  0  0  0  0  0  0  0  0
   55.6970   25.6587   46.2270 H   0  0  0  0  0  0  0  0  0  0  0  0
   56.2605   27.8228   46.8338 H   0  0  0  0  0  0  0  0  0  0  0  0
   57.9614   28.2784   44.4084 H   0  0  0  0  0  0  0  0  0  0  0  0
   56.2076   27.8950   44.2111 H   0  0  0  0  0  0  0  0  0  0  0  0
   58.0587   33.4790   43.3476 H   0  0  0  0  0  0  0  0  0  0  0  0
   58.7052   35.5204   44.6270 H   0  0  0  0  0  0  0  0  0  0  0  0
   58.9090   35.4319   47.1108 H   0  0  0  0  0  0  0  0  0  0  0  0
   57.6900   33.0220   49.2470 H   0  0  0  0  0  0  0  0  0  0  0  0
   61.9694   34.2222   50.8501 H   0  0  0  0  0  0  0  0  0  0  0  0
   62.5604   33.2517   53.0689 H   0  0  0  0  0  0  0  0  0  0  0  0
   61.0169   31.6385   54.1800 H   0  0  0  0  0  0  0  0  0  0  0  0
   58.9160   30.9331   53.0354 H   0  0  0  0  0  0  0  0  0  0  0  0
   58.3217   31.8786   50.8113 H   0  0  0  0  0  0  0  0  0  0  0  0
   57.7247   31.2673   47.0496 H   0  0  0  0  0  0  0  0  0  0  0  0
  1  2  1  0
  2  3  1  0
  3  4  1  0
  4  5  2  0
  5  6  1  0
  6  7  2  0
  7  8  1  0
  7  9  1  0
  9 10  2  0
  2 11  1  0
 11 12  1  0
 12 13  1  0
 13 14  1  0
 14 15  1  0
 15 16  1  0
 16 17  1  0
 17 18  1  0
 18 19  1  0
 19 20  2  0
 19 21  2  0
 19 22  1  0
 22 23  2  0
 23 24  1  0
 24 25  2  0
 25 26  1  0
 26 27  1  0
 27 28  1  0
 28 29  2  0
 28 30  1  0
 30 31  2  0
 31 32  1  0
 32 33  2  0
 33 34  1  0
 34 35  2  0
 26 36  2  0
 10  4  1  0
 16 12  1  0
 36 22  1  0
 35 30  1  0
  1 37  1  0
  1 38  1  0
  2 39  1  6
  3 40  1  0
  3 41  1  0
  5 42  1  0
  6 43  1  0
  9 44  1  0
 10 45  1  0
 11 46  1  0
 11 47  1  0
 13 48  1  0
 13 49  1  0
 14 50  1  0
 14 51  1  0
 15 52  1  0
 15 53  1  0
 16 54  1  1
 17 55  1  0
 17 56  1  0
 23 57  1  0
 24 58  1  0
 25 59  1  0
 27 60  1  0
 31 61  1  0
 32 62  1  0
 33 63  1  0
 34 64  1  0
 35 65  1  0
 36 66  1  0
M  CHG  2   8  -1  18  -1
M  END
>  <UniqueID>  (32) 
31

>  <SMILES>  (32) 
N[C@H](Cc1ccc([O-])cc1)CN1CCC[C@@H]1C[N-]S(=O)(=O)c1cccc(NC(=O)c2ccccc2)c1

>  <Energy>  (32) 
78.2985161194336

>  <Genealogy>  (32) 
NC(Cc1ccc([O-])cc1)CN1CCCC1C[N-]S(=O)(=O)c1cccc(NC(=O)c2ccccc2)c1 (protonated)
N[C@H](Cc1ccc([O-])cc1)CN1CCC[C@@H]1C[N-]S(=O)(=O)c1cccc(NC(=O)c2ccccc2)c1 (chirality)
N[C@H](Cc1ccc([O-])cc1)CN1CCC[C@@H]1C[N-]S(=O)(=O)c1cccc(NC(=O)c2ccccc2)c1 (3D coordinates assigned)
N[C@H](Cc1ccc([O-])cc1)CN1CCC[C@@H]1C[N-]S(=O)(=O)c1cccc(NC(=O)c2ccccc2)c1 (nonaromatic ring conformer: 78.2985161194336 kcal/mol)

>  <smiles>  (32) 
NC(Cc1ccc(O)cc1)CN1CCCC1CNS(=O)(=O)c1cccc(NC(=O)c2ccccc2)c1

>  <score_type>  (32) 
oracle

>  <origin>  (32) 
adg

>  <m_score__min__energy>  (32) 
-13.91

>  <m_primary>  (32) 
energy

$$$$
32:0
     RDKit          3D

 45 47  0  0  0  0  0  0  0  0999 V2000
   63.7650   33.8450   47.1270 C   0  0  0  0  0  0  0  0  0  0  0  0
   63.6400   32.9140   48.3030 C   0  0  0  0  0  0  0  0  0  0  0  0
   64.6710   32.8570   49.2550 C   0  0  0  0  0  0  0  0  0  0  0  0
   64.5780   31.9960   50.3500 C   0  0  0  0  0  0  0  0  0  0  0  0
   63.4620   31.1720   50.4990 C   0  0  0  0  0  0  0  0  0  0  0  0
   63.3480   29.9790   51.9870 Br  0  0  0  0  0  0  0  0  0  0  0  0
   62.4330   31.2090   49.5530 C   0  0  0  0  0  0  0  0  0  0  0  0
   62.5050   32.0840   48.4540 C   0  0  0  0  0  0  0  0  0  0  0  0
   61.4620   32.0890   47.4640 N   0  0  0  0  0  0  0  0  0  0  0  0
   60.4580   33.1170   47.3800 C   0  0  0  0  0  0  0  0  0  0  0  0
   60.4710   34.0760   48.2000 O   0  0  0  0  0  0  0  0  0  0  0  0
   59.4040   33.0760   46.3390 C   0  0  0  0  0  0  0  0  0  0  0  0
   58.8170   34.2570   45.8480 C   0  0  0  0  0  0  0  0  0  0  0  0
   57.8150   34.1960   44.8770 C   0  0  0  0  0  0  0  0  0  0  0  0
   57.3800   32.9620   44.3920 C   0  0  0  0  0  0  0  0  0  0  0  0
   57.9400   31.7760   44.8830 C   0  0  0  0  0  0  0  0  0  0  0  0
   57.3670   30.2160   44.2920 S   0  0  0  0  0  0  0  0  0  0  0  0
   57.0140   30.3410   42.8350 O   0  0  0  0  0  0  0  0  0  0  0  0
   56.1130   29.8470   45.0350 O   0  0  0  0  0  0  0  0  0  0  0  0
   58.5520   28.9420   44.4960 N   0  0  0  0  0  0  0  0  0  0  0  0
   58.1900   27.7040   43.7720 C   0  0  0  0  0  0  0  0  0  0  0  0
   57.6110   26.6190   44.6930 C   0  0  0  0  0  0  0  0  0  0  0  0
   56.9490   27.2060   45.7890 O   0  0  0  0  0  0  0  0  0  0  0  0
   57.8950   27.8080   46.6500 C   0  0  0  0  0  0  0  0  0  0  0  0
   58.9050   28.7170   45.9090 C   0  0  0  0  0  0  0  0  0  0  0  0
   58.9520   31.8370   45.8510 C   0  0  0  0  0  0  0  0  0  0  0  0
   63.9033   34.8749   47.4878 H   0  0  0  0  0  0  0  0  0  0  0  0
   64.6317   33.5507   46.5169 H   0  0  0  0  0  0  0  0  0  0  0  0
   62.8514   33.7898   46.5169 H   0  0  0  0  0  0  0  0  0  0  0  0
   65.5587   33.4958   49.1369 H   0  0  0  0  0  0  0  0  0  0  0  0
   65.3856   31.9672   51.0963 H   0  0  0  0  0  0  0  0  0  0  0  0
   61.5607   30.5490   49.6691 H   0  0  0  0  0  0  0  0  0  0  0  0
   61.4610   31.3150   46.7630 H   0  0  0  0  0  0  0  0  0  0  0  0
   59.1491   35.2332   46.2310 H   0  0  0  0  0  0  0  0  0  0  0  0
   57.3670   35.1244   44.4930 H   0  0  0  0  0  0  0  0  0  0  0  0
   56.5954   32.9207   43.6222 H   0  0  0  0  0  0  0  0  0  0  0  0
   57.4395   27.9518   43.0069 H   0  0  0  0  0  0  0  0  0  0  0  0
   59.1116   27.3010   43.3268 H   0  0  0  0  0  0  0  0  0  0  0  0
   56.8967   26.0049   44.1249 H   0  0  0  0  0  0  0  0  0  0  0  0
   58.4342   25.9929   45.0675 H   0  0  0  0  0  0  0  0  0  0  0  0
   57.3555   28.4166   47.3907 H   0  0  0  0  0  0  0  0  0  0  0  0
   58.4703   26.9970   47.1203 H   0  0  0  0  0  0  0  0  0  0  0  0
   58.9405   29.6903   46.4202 H   0  0  0  0  0  0  0  0  0  0  0  0
   59.8794   28.2068   45.9263 H   0  0  0  0  0  0  0  0  0  0  0  0
   59.3971   30.9063   46.2328 H   0  0  0  0  0  0  0  0  0  0  0  0
  1  2  1  0
  2  3  2  0
  3  4  1  0
  4  5  2  0
  5  6  1  0
  5  7  1  0
  7  8  2  0
  8  9  1  0
  9 10  1  0
 10 11  2  0
 10 12  1  0
 12 13  2  0
 13 14  1  0
 14 15  2  0
 15 16  1  0
 16 17  1  0
 17 18  2  0
 17 19  2  0
 17 20  1  0
 20 21  1  0
 21 22  1  0
 22 23  1  0
 23 24  1  0
 24 25  1  0
 16 26  2  0
  8  2  1  0
 26 12  1  0
 25 20  1  0
  1 27  1  0
  1 28  1  0
  1 29  1  0
  3 30  1  0
  4 31  1  0
  7 32  1  0
  9 33  1  0
 13 34  1  0
 14 35  1  0
 15 36  1  0
 21 37  1  0
 21 38  1  0
 22 39  1  0
 22 40  1  0
 24 41  1  0
 24 42  1  0
 25 43  1  0
 25 44  1  0
 26 45  1  0
M  END
>  <UniqueID>  (33) 
32

>  <SMILES>  (33) 
Cc1ccc(Br)cc1NC(=O)c1cccc(S(=O)(=O)N2CCOCC2)c1

>  <Energy>  (33) 
63.867481796119115

>  <Genealogy>  (33) 
Cc1ccc(Br)cc1NC(=O)c1cccc(S(=O)(=O)N2CCOCC2)c1 (3D coordinates assigned)
Cc1ccc(Br)cc1NC(=O)c1cccc(S(=O)(=O)N2CCOCC2)c1 (nonaromatic ring conformer: 63.867481796119115 kcal/mol)

>  <smiles>  (33) 
Cc1ccc(Br)cc1NC(=O)c1cccc(S(=O)(=O)N2CCOCC2)c1

>  <score_type>  (33) 
oracle

>  <origin>  (33) 
adg

>  <m_score__min__energy>  (33) 
-9.0099999999999998

>  <m_primary>  (33) 
energy

$$$$
33:0
     RDKit          3D

 65 68  0  0  0  0  0  0  0  0999 V2000
   66.8750   33.4700   50.5090 C   0  0  0  0  0  0  0  0  0  0  0  0
   65.4980   33.8100   50.3840 O   0  0  0  0  0  0  0  0  0  0  0  0
   64.4700   32.8880   50.1230 C   0  0  0  0  0  0  0  0  0  0  0  0
   63.6800   32.9620   48.9610 C   0  0  0  0  0  0  0  0  0  0  0  0
   62.6700   32.0190   48.7260 C   0  0  0  0  0  0  0  0  0  0  0  0
   62.4310   31.0000   49.6610 C   0  0  0  0  0  0  0  0  0  0  0  0
   63.2080   30.9340   50.8260 C   0  0  0  0  0  0  0  0  0  0  0  0
   64.2340   31.8700   51.0590 C   0  0  0  0  0  0  0  0  0  0  0  0
   65.0360   31.8250   52.2110 O   0  0  0  0  0  0  0  0  0  0  0  0
   65.8360   30.7130   52.5960 C   0  0  0  0  0  0  0  0  0  0  0  0
   61.2870   30.0330   49.4620 C   0  0  0  0  0  0  0  0  0  0  0  0
   60.9030   29.8720   48.0440 N   0  0  0  0  0  0  0  0  0  0  0  0
   60.0170   28.7940   47.6750 C   0  0  0  0  0  0  0  0  0  0  0  0
   60.2300   27.4950   48.1650 C   0  0  0  0  0  0  0  0  0  0  0  0
   59.3830   26.4480   47.8000 C   0  0  0  0  0  0  0  0  0  0  0  0
   58.3030   26.6750   46.9270 C   0  0  0  0  0  0  0  0  0  0  0  0
   57.4200   25.6460   46.5560 O   0  0  0  0  0  0  0  0  0  0  0  0
   57.4910   24.9270   45.3300 C   0  0  0  0  0  0  0  0  0  0  0  0
   58.0930   27.9700   46.4180 C   0  0  0  0  0  0  0  0  0  0  0  0
   56.9910   28.2370   45.4750 C   0  0  0  0  0  0  0  0  0  0  0  0
   55.8960   27.6310   45.6200 O   0  0  0  0  0  0  0  0  0  0  0  0
   57.1290   29.1800   44.4050 N   0  0  0  0  0  0  0  0  0  0  0  0
   56.3320   30.3950   44.2850 C   0  0  0  0  0  0  0  0  0  0  0  0
   57.1980   31.5920   44.5740 C   0  0  0  0  0  0  0  0  0  0  0  0
   57.4290   31.9880   45.8960 C   0  0  0  0  0  0  0  0  0  0  0  0
   58.2300   33.1030   46.1780 C   0  0  0  0  0  0  0  0  0  0  0  0
   58.4630   33.5100   47.6110 C   0  0  0  0  0  0  0  0  0  0  0  0
   58.7730   33.8400   45.1020 C   0  0  0  0  0  0  0  0  0  0  0  0
   59.6390   35.0480   45.3460 C   0  0  0  0  0  0  0  0  0  0  0  0
   58.5230   33.4420   43.8170 N   0  0  0  0  0  0  0  0  0  0  0  0
   57.7540   32.3550   43.5330 C   0  0  0  0  0  0  0  0  0  0  0  0
   57.5440   32.0390   42.3290 O   0  0  0  0  0  0  0  0  0  0  0  0
   58.9330   29.0220   46.8100 C   0  0  0  0  0  0  0  0  0  0  0  0
   61.4940   30.7100   46.9860 C   0  0  0  0  0  0  0  0  0  0  0  0
   61.8070   32.1130   47.5040 C   0  0  0  0  0  0  0  0  0  0  0  0
   67.1412   33.4043   51.5743 H   0  0  0  0  0  0  0  0  0  0  0  0
   67.0585   32.4996   50.0246 H   0  0  0  0  0  0  0  0  0  0  0  0
   67.4891   34.2435   50.0246 H   0  0  0  0  0  0  0  0  0  0  0  0
   63.8564   33.7661   48.2314 H   0  0  0  0  0  0  0  0  0  0  0  0
   63.0143   30.1431   51.5656 H   0  0  0  0  0  0  0  0  0  0  0  0
   65.8783   30.6542   53.6936 H   0  0  0  0  0  0  0  0  0  0  0  0
   65.3950   29.7881   52.1960 H   0  0  0  0  0  0  0  0  0  0  0  0
   66.8532   30.8371   52.1960 H   0  0  0  0  0  0  0  0  0  0  0  0
   61.5861   29.0510   49.8572 H   0  0  0  0  0  0  0  0  0  0  0  0
   60.4153   30.4430   49.9930 H   0  0  0  0  0  0  0  0  0  0  0  0
   61.0736   27.3010   48.8438 H   0  0  0  0  0  0  0  0  0  0  0  0
   59.5608   25.4379   48.1975 H   0  0  0  0  0  0  0  0  0  0  0  0
   57.5971   23.8526   45.5407 H   0  0  0  0  0  0  0  0  0  0  0  0
   56.5716   25.0981   44.7508 H   0  0  0  0  0  0  0  0  0  0  0  0
   58.3592   25.2746   44.7508 H   0  0  0  0  0  0  0  0  0  0  0  0
   55.9301   30.4708   43.2639 H   0  0  0  0  0  0  0  0  0  0  0  0
   55.5003   30.3612   45.0041 H   0  0  0  0  0  0  0  0  0  0  0  0
   56.9776   31.4187   46.7219 H   0  0  0  0  0  0  0  0  0  0  0  0
   58.0300   32.7536   48.2820 H   0  0  0  0  0  0  0  0  0  0  0  0
   59.5440   33.5904   47.7982 H   0  0  0  0  0  0  0  0  0  0  0  0
   57.9851   34.4829   47.7982 H   0  0  0  0  0  0  0  0  0  0  0  0
   59.7519   35.2055   46.4288 H   0  0  0  0  0  0  0  0  0  0  0  0
   60.6287   34.8870   44.8937 H   0  0  0  0  0  0  0  0  0  0  0  0
   59.1688   35.9336   44.8937 H   0  0  0  0  0  0  0  0  0  0  0  0
   58.9320   33.9830   43.0210 H   0  0  0  0  0  0  0  0  0  0  0  0
   58.7412   30.0385   46.4358 H   0  0  0  0  0  0  0  0  0  0  0  0
   62.4249   30.2411   46.6347 H   0  0  0  0  0  0  0  0  0  0  0  0
   60.7690   30.7957   46.1632 H   0  0  0  0  0  0  0  0  0  0  0  0
   62.3368   32.6808   46.7249 H   0  0  0  0  0  0  0  0  0  0  0  0
   60.8677   32.6251   47.7597 H   0  0  0  0  0  0  0  0  0  0  0  0
  1  2  1  0
  2  3  1  0
  3  4  2  0
  4  5  1  0
  5  6  2  0
  6  7  1  0
  7  8  2  0
  8  9  1  0
  9 10  1  0
  6 11  1  0
 11 12  1  0
 12 13  1  0
 13 14  2  0
 14 15  1  0
 15 16  2  0
 16 17  1  0
 17 18  1  0
 16 19  1  0
 19 20  1  0
 20 21  2  0
 20 22  1  0
 22 23  1  0
 23 24  1  0
 24 25  2  0
 25 26  1  0
 26 27  1  0
 26 28  2  0
 28 29  1  0
 28 30  1  0
 30 31  1  0
 31 32  2  0
 19 33  2  0
 12 34  1  0
 34 35  1  0
  8  3  1  0
 33 13  1  0
 35  5  1  0
 31 24  1  0
  1 36  1  0
  1 37  1  0
  1 38  1  0
  4 39  1  0
  7 40  1  0
 10 41  1  0
 10 42  1  0
 10 43  1  0
 11 44  1  0
 11 45  1  0
 14 46  1  0
 15 47  1  0
 18 48  1  0
 18 49  1  0
 18 50  1  0
 23 51  1  0
 23 52  1  0
 25 53  1  0
 27 54  1  0
 27 55  1  0
 27 56  1  0
 29 57  1  0
 29 58  1  0
 29 59  1  0
 30 60  1  0
 33 61  1  0
 34 62  1  0
 34 63  1  0
 35 64  1  0
 35 65  1  0
M  CHG  1  22  -1
M  END
>  <UniqueID>  (34) 
33

>  <SMILES>  (34) 
COc1cc2c(cc1OC)CN(c1ccc(OC)c(C(=O)[N-]Cc3cc(C)c(C)[nH]c3=O)c1)CC2

>  <Energy>  (34) 
77.85067906453598

>  <Genealogy>  (34) 
COc1cc2c(cc1OC)CN(c1ccc(OC)c(C(=O)[N-]Cc3cc(C)c(C)[nH]c3=O)c1)CC2 (protonated)
COc1cc2c(cc1OC)CN(c1ccc(OC)c(C(=O)[N-]Cc3cc(C)c(C)[nH]c3=O)c1)CC2 (3D coordinates assigned)
COc1cc2c(cc1OC)CN(c1ccc(OC)c(C(=O)[N-]Cc3cc(C)c(C)[nH]c3=O)c1)CC2 (nonaromatic ring conformer: 77.85067906453598 kcal/mol)

>  <smiles>  (34) 
COc1cc2c(cc1OC)CN(c1ccc(OC)c(C(=O)NCc3cc(C)c(C)[nH]c3=O)c1)CC2

>  <score_type>  (34) 
oracle

>  <origin>  (34) 
adg

>  <m_score__min__energy>  (34) 
-10.19

>  <m_primary>  (34) 
energy

$$$$
34:0
     RDKit          3D

 69 72  0  0  0  0  0  0  0  0999 V2000
   57.5772   33.6775   43.6791 H   0  0  0  0  0  0  0  0  0  0  0  0
   58.0830   33.8740   44.6360 C   0  0  0  0  0  0  0  0  0  0  0  0
   59.4180   34.1180   44.7190 N   0  0  0  0  0  0  0  0  0  0  0  0
   59.8030   34.3260   45.9990 C   0  0  0  0  0  0  0  0  0  0  0  0
   61.0190   34.6000   46.3660 N   0  0  0  0  0  0  0  0  0  0  0  0
   62.0340   33.6470   46.7240 C   0  0  0  0  0  0  0  0  0  0  0  0
   63.2350   33.8350   46.3890 O   0  0  0  0  0  0  0  0  0  0  0  0
   61.6690   32.4380   47.5000 C   0  0  0  0  0  0  0  0  0  0  0  0
   62.5320   31.9420   48.4920 C   0  0  0  0  0  0  0  0  0  0  0  0
   63.4721   32.4691   48.7118 H   0  0  0  0  0  0  0  0  0  0  0  0
   62.2040   30.7850   49.2000 C   0  0  0  0  0  0  0  0  0  0  0  0
   62.8911   30.4024   49.9691 H   0  0  0  0  0  0  0  0  0  0  0  0
   61.0040   30.1060   48.9380 C   0  0  0  0  0  0  0  0  0  0  0  0
   60.6870   28.8710   49.5990 N   0  0  0  0  0  0  0  0  0  0  0  0
   60.2960   27.6520   48.9610 C   0  0  0  0  0  0  0  0  0  0  0  0
   60.4010   26.5700   49.5990 O   0  0  0  0  0  0  0  0  0  0  0  0
   59.8830   27.6420   47.5860 N   0  0  0  0  0  0  0  0  0  0  0  0
   60.1440   28.4560   46.9830 H   0  0  0  0  0  0  0  0  0  0  0  0
   59.2640   26.5040   46.9670 C   0  0  0  0  0  0  0  0  0  0  0  0
   60.0450   25.6100   46.2270 C   0  0  0  0  0  0  0  0  0  0  0  0
   61.1231   25.7935   46.1086 H   0  0  0  0  0  0  0  0  0  0  0  0
   59.4630   24.4860   45.6380 C   0  0  0  0  0  0  0  0  0  0  0  0
   60.0911   23.7794   45.0757 H   0  0  0  0  0  0  0  0  0  0  0  0
   58.0830   24.2480   45.7560 C   0  0  0  0  0  0  0  0  0  0  0  0
   57.4960   23.0290   45.1420 C   0  0  0  0  0  0  0  0  0  0  0  0
   57.2110   22.9870   43.7660 C   0  0  0  0  0  0  0  0  0  0  0  0
   57.4201   23.8650   43.1371 H   0  0  0  0  0  0  0  0  0  0  0  0
   56.6640   21.8370   43.1930 C   0  0  0  0  0  0  0  0  0  0  0  0
   56.4507   21.8103   42.1142 H   0  0  0  0  0  0  0  0  0  0  0  0
   56.3870   20.7210   43.9850 C   0  0  0  0  0  0  0  0  0  0  0  0
   55.9611   19.8160   43.5271 H   0  0  0  0  0  0  0  0  0  0  0  0
   56.6510   20.7500   45.3680 C   0  0  0  0  0  0  0  0  0  0  0  0
   56.3830   19.6570   46.2070 O   0  0  0  0  0  0  0  0  0  0  0  0
   55.2190   18.8430   46.1210 C   0  0  0  0  0  0  0  0  0  0  0  0
   54.8677   18.5973   47.1340 H   0  0  0  0  0  0  0  0  0  0  0  0
   54.4300   19.3872   45.5812 H   0  0  0  0  0  0  0  0  0  0  0  0
   55.4595   17.9152   45.5812 H   0  0  0  0  0  0  0  0  0  0  0  0
   57.2030   21.9040   45.9350 C   0  0  0  0  0  0  0  0  0  0  0  0
   57.4107   21.9322   47.0149 H   0  0  0  0  0  0  0  0  0  0  0  0
   57.2750   25.1770   46.4510 C   0  0  0  0  0  0  0  0  0  0  0  0
   55.8840   24.9770   46.4980 O   0  0  0  0  0  0  0  0  0  0  0  0
   55.0460   24.8390   45.3570 C   0  0  0  0  0  0  0  0  0  0  0  0
   54.0091   24.6682   45.6821 H   0  0  0  0  0  0  0  0  0  0  0  0
   55.0945   25.7572   44.7532 H   0  0  0  0  0  0  0  0  0  0  0  0
   55.3864   23.9848   44.7532 H   0  0  0  0  0  0  0  0  0  0  0  0
   57.8790   26.2950   47.0610 C   0  0  0  0  0  0  0  0  0  0  0  0
   57.2577   27.0123   47.6173 H   0  0  0  0  0  0  0  0  0  0  0  0
   60.1360   30.5850   47.9460 C   0  0  0  0  0  0  0  0  0  0  0  0
   58.9530   29.8700   47.6970 O   0  0  0  0  0  0  0  0  0  0  0  0
   58.0800   30.0950   46.5930 C   0  0  0  0  0  0  0  0  0  0  0  0
   57.0831   29.6951   46.8300 H   0  0  0  0  0  0  0  0  0  0  0  0
   58.0134   31.1761   46.4009 H   0  0  0  0  0  0  0  0  0  0  0  0
   58.6230   29.3950   45.3410 C   0  0  0  0  0  0  0  0  0  0  0  0
   59.0706   30.1494   44.6773 H   0  0  0  0  0  0  0  0  0  0  0  0
   59.3717   28.6552   45.6606 H   0  0  0  0  0  0  0  0  0  0  0  0
   57.5550   28.6800   44.6030 N   0  0  0  0  0  0  0  0  0  0  0  0
   58.1490   27.6290   43.7610 C   0  0  0  0  0  0  0  0  0  0  0  0
   58.5889   26.8507   44.4019 H   0  0  0  0  0  0  0  0  0  0  0  0
   57.3691   27.1835   43.1259 H   0  0  0  0  0  0  0  0  0  0  0  0
   58.9329   28.0673   43.1259 H   0  0  0  0  0  0  0  0  0  0  0  0
   56.7790   29.6030   43.7550 C   0  0  0  0  0  0  0  0  0  0  0  0
   56.2021   30.2892   44.3924 H   0  0  0  0  0  0  0  0  0  0  0  0
   57.4654   30.1822   43.1199 H   0  0  0  0  0  0  0  0  0  0  0  0
   56.0905   29.0263   43.1199 H   0  0  0  0  0  0  0  0  0  0  0  0
   60.4670   31.7560   47.2370 C   0  0  0  0  0  0  0  0  0  0  0  0
   59.7789   32.1411   46.4701 H   0  0  0  0  0  0  0  0  0  0  0  0
   58.5150   34.2250   47.0680 S   0  0  0  0  0  0  0  0  0  0  0  0
   57.4040   33.8910   45.8490 C   0  0  0  0  0  0  0  0  0  0  0  0
   56.3269   33.7163   45.9879 H   0  0  0  0  0  0  0  0  0  0  0  0
  1  2  1  0
  2  3  1  0
  3  4  1  0
  4  5  2  0
  5  6  1  0
  6  7  2  0
  6  8  1  0
  8  9  2  0
  9 10  1  0
  9 11  1  0
 11 12  1  0
 11 13  2  0
 13 14  1  0
 14 15  1  0
 15 16  2  0
 15 17  1  0
 17 18  1  0
 17 19  1  0
 19 20  2  0
 20 21  1  0
 20 22  1  0
 22 23  1  0
 22 24  2  0
 24 25  1  0
 25 26  2  0
 26 27  1  0
 26 28  1  0
 28 29  1  0
 28 30  2  0
 30 31  1  0
 30 32  1  0
 32 33  1  0
 33 34  1  0
 34 35  1  0
 34 36  1  0
 34 37  1  0
 32 38  2  0
 38 39  1  0
 24 40  1  0
 40 41  1  0
 41 42  1  0
 42 43  1  0
 42 44  1  0
 42 45  1  0
 40 46  2  0
 46 47  1  0
 13 48  1  0
 48 49  1  0
 49 50  1  0
 50 51  1  0
 50 52  1  0
 50 53  1  0
 53 54  1  0
 53 55  1  0
 53 56  1  0
 56 57  1  0
 57 58  1  0
 57 59  1  0
 57 60  1  0
 56 61  1  0
 61 62  1  0
 61 63  1  0
 61 64  1  0
 48 65  2  0
 65 66  1  0
  4 67  1  0
 67 68  1  0
 68 69  1  0
 68  2  2  0
 65  8  1  0
 46 19  1  0
 38 25  1  0
M  CHG  2   3  -1  14  -1
M  END
>  <UniqueID>  (35) 
34

>  <SMILES>  (35) 
COc1cccc(-c2ccc(NC(=O)[N-]c3ccc(C(=O)/N=c4\[n-]ccs4)cc3OCCN(C)C)cc2OC)c1

>  <Energy>  (35) 
117.77011383660422

>  <Genealogy>  (35) 
COc1cccc(-c2ccc(NC(=O)[N-]c3ccc(C(=O)N=c4[n-]ccs4)cc3OCCN(C)C)cc2OC)c1 (protonated)
COc1cccc(-c2ccc(NC(=O)[N-]c3ccc(C(=O)/N=c4\[n-]ccs4)cc3OCCN(C)C)cc2OC)c1 (cis-trans isomerization)
COc1cccc(-c2ccc(NC(=O)[N-]c3ccc(C(=O)/N=c4\[n-]ccs4)cc3OCCN(C)C)cc2OC)c1 (3D coordinates assigned)
COc1cccc(-c2ccc(NC(=O)[N-]c3ccc(C(=O)/N=c4\[n-]ccs4)cc3OCCN(C)C)cc2OC)c1 (optimized conformer: 117.77011383660422 kcal/mol)

>  <smiles>  (35) 
COc1cccc(-c2ccc(NC(=O)Nc3ccc(C(=O)N=c4[nH]ccs4)cc3OCCN(C)C)cc2OC)c1

>  <score_type>  (35) 
oracle

>  <origin>  (35) 
adg

>  <m_score__min__energy>  (35) 
-11.31

>  <m_primary>  (35) 
energy

$$$$
35:0
     RDKit          3D

 36 36  0  0  0  0  0  0  0  0999 V2000
   61.0480   33.7420   46.7950 C   0  0  0  0  0  0  0  0  0  0  0  0
   59.7940   34.5160   47.1990 C   0  0  0  0  0  0  0  0  0  0  0  0
   58.5220   33.6550   47.1460 C   0  0  0  0  0  0  0  0  0  0  0  0
   57.6340   33.9900   45.9400 C   0  0  0  0  0  0  0  0  0  0  0  0
   58.2560   33.4840   44.6700 C   0  0  0  0  0  0  0  0  0  0  0  0
   59.2190   34.1250   44.1720 O   0  0  0  0  0  0  0  0  0  0  0  0
   57.6960   32.3020   43.9710 C   0  0  0  0  0  0  0  0  0  0  0  0
   58.1590   31.9890   42.8420 O   0  0  0  0  0  0  0  0  0  0  0  0
   56.6540   31.4860   44.5220 N   0  0  0  0  0  0  0  0  0  0  0  0
   56.4090   29.7940   44.2270 S   0  0  0  0  0  0  0  0  0  0  0  0
   55.1470   29.3270   44.8960 O   0  0  0  0  0  0  0  0  0  0  0  0
   56.3140   29.5530   42.7460 O   0  0  0  0  0  0  0  0  0  0  0  0
   57.7790   28.9010   44.8920 C   0  0  0  0  0  0  0  0  0  0  0  0
   59.0840   29.3970   44.7360 C   0  0  0  0  0  0  0  0  0  0  0  0
   60.1720   28.6950   45.2600 C   0  0  0  0  0  0  0  0  0  0  0  0
   59.9670   27.4950   45.9420 C   0  0  0  0  0  0  0  0  0  0  0  0
   58.6740   26.9920   46.1020 C   0  0  0  0  0  0  0  0  0  0  0  0
   57.5670   27.6890   45.5780 C   0  0  0  0  0  0  0  0  0  0  0  0
   56.2540   27.2090   45.7200 O   0  0  0  0  0  0  0  0  0  0  0  0
   55.9140   25.8540   45.9920 C   0  0  0  0  0  0  0  0  0  0  0  0
   61.5822   33.4122   47.6982 H   0  0  0  0  0  0  0  0  0  0  0  0
   60.7605   32.8640   46.1980 H   0  0  0  0  0  0  0  0  0  0  0  0
   61.7040   34.3926   46.1980 H   0  0  0  0  0  0  0  0  0  0  0  0
   59.9252   34.8869   48.2262 H   0  0  0  0  0  0  0  0  0  0  0  0
   59.6671   35.3402   46.4817 H   0  0  0  0  0  0  0  0  0  0  0  0
   58.8151   32.5965   47.0848 H   0  0  0  0  0  0  0  0  0  0  0  0
   57.9405   33.8623   48.0564 H   0  0  0  0  0  0  0  0  0  0  0  0
   56.6494   33.5180   46.0736 H   0  0  0  0  0  0  0  0  0  0  0  0
   57.5256   35.0825   45.8715 H   0  0  0  0  0  0  0  0  0  0  0  0
   59.2498   30.3425   44.1988 H   0  0  0  0  0  0  0  0  0  0  0  0
   61.1915   29.0886   45.1349 H   0  0  0  0  0  0  0  0  0  0  0  0
   60.8253   26.9443   46.3543 H   0  0  0  0  0  0  0  0  0  0  0  0
   58.5187   26.0455   46.6406 H   0  0  0  0  0  0  0  0  0  0  0  0
   55.8746   25.6972   47.0801 H   0  0  0  0  0  0  0  0  0  0  0  0
   54.9311   25.6274   45.5531 H   0  0  0  0  0  0  0  0  0  0  0  0
   56.6734   25.1902   45.5531 H   0  0  0  0  0  0  0  0  0  0  0  0
  1  2  1  0
  2  3  1  0
  3  4  1  0
  4  5  1  0
  5  6  2  0
  5  7  1  0
  7  8  2  0
  7  9  1  0
  9 10  1  0
 10 11  2  0
 10 12  2  0
 10 13  1  0
 13 14  2  0
 14 15  1  0
 15 16  2  0
 16 17  1  0
 17 18  2  0
 18 19  1  0
 19 20  1  0
 18 13  1  0
  1 21  1  0
  1 22  1  0
  1 23  1  0
  2 24  1  0
  2 25  1  0
  3 26  1  0
  3 27  1  0
  4 28  1  0
  4 29  1  0
 14 30  1  0
 15 31  1  0
 16 32  1  0
 17 33  1  0
 20 34  1  0
 20 35  1  0
 20 36  1  0
M  CHG  1   9  -1
M  END
>  <UniqueID>  (36) 
35

>  <SMILES>  (36) 
CCCCC(=O)C(=O)[N-]S(=O)(=O)c1ccccc1OC

>  <Energy>  (36) 
32.35839037057378

>  <Genealogy>  (36) 
CCCCC(=O)C(=O)[N-]S(=O)(=O)c1ccccc1OC (protonated)
CCCCC(=O)C(=O)[N-]S(=O)(=O)c1ccccc1OC (3D coordinates assigned)
CCCCC(=O)C(=O)[N-]S(=O)(=O)c1ccccc1OC (optimized conformer: 32.35839037057378 kcal/mol)

>  <smiles>  (36) 
CCCCC(=O)C(=O)NS(=O)(=O)c1ccccc1OC

>  <score_type>  (36) 
oracle

>  <origin>  (36) 
adg

>  <m_score__min__energy>  (36) 
-8.7400000000000002

>  <m_primary>  (36) 
energy

$$$$
36:0
     RDKit          3D

 55 58  0  0  0  0  0  0  0  0999 V2000
   57.3400   24.4320   43.9240 C   0  0  0  0  0  0  0  0  0  0  0  0
   57.0760   23.8520   45.2880 C   0  0  0  0  0  0  0  0  0  0  0  0
   57.2020   22.4670   45.4900 C   0  0  0  0  0  0  0  0  0  0  0  0
   56.9680   21.9110   46.7500 C   0  0  0  0  0  0  0  0  0  0  0  0
   56.6060   22.7290   47.8210 C   0  0  0  0  0  0  0  0  0  0  0  0
   56.4710   24.1070   47.6340 C   0  0  0  0  0  0  0  0  0  0  0  0
   56.6940   24.6760   46.3720 C   0  0  0  0  0  0  0  0  0  0  0  0
   56.5290   26.1320   46.2100 C   0  0  0  0  0  0  0  0  0  0  0  0
   55.3710   26.5770   45.9900 O   0  0  0  0  0  0  0  0  0  0  0  0
   57.6490   27.0420   46.2950 N   0  0  0  0  0  0  0  0  0  0  0  0
   59.0370   26.5540   46.3400 C   0  0  0  0  0  0  0  0  0  0  0  0
   59.8650   27.4120   47.3010 C   0  0  0  0  0  0  0  0  0  0  0  0
   59.7010   28.8490   47.0260 N   0  0  0  0  0  0  0  0  0  0  0  0
   60.6450   29.7900   47.5830 C   0  0  0  0  0  0  0  0  0  0  0  0
   60.7260   29.9840   48.9740 C   0  0  0  0  0  0  0  0  0  0  0  0
   61.6470   30.8870   49.5130 C   0  0  0  0  0  0  0  0  0  0  0  0
   62.4950   31.6230   48.6760 C   0  0  0  0  0  0  0  0  0  0  0  0
   63.4540   32.5220   49.2600 N   0  0  0  0  0  0  0  0  0  0  0  0
   64.4260   32.1270   50.2480 C   0  0  0  0  0  0  0  0  0  0  0  0
   64.5520   30.9090   50.5530 O   0  0  0  0  0  0  0  0  0  0  0  0
   65.2940   33.1250   50.9160 C   0  0  0  0  0  0  0  0  0  0  0  0
   64.7970   33.9760   51.9210 C   0  0  0  0  0  0  0  0  0  0  0  0
   65.6360   34.9100   52.5370 C   0  0  0  0  0  0  0  0  0  0  0  0
   66.9750   35.0110   52.1530 C   0  0  0  0  0  0  0  0  0  0  0  0
   67.4790   34.1820   51.1470 C   0  0  0  0  0  0  0  0  0  0  0  0
   69.1590   34.3130   50.6630 Cl  0  0  0  0  0  0  0  0  0  0  0  0
   66.6420   33.2460   50.5290 C   0  0  0  0  0  0  0  0  0  0  0  0
   62.4370   31.4140   47.2880 C   0  0  0  0  0  0  0  0  0  0  0  0
   61.5170   30.5110   46.7470 C   0  0  0  0  0  0  0  0  0  0  0  0
   58.6860   29.2990   46.0630 C   0  0  0  0  0  0  0  0  0  0  0  0
   57.3920   28.4890   46.2160 C   0  0  0  0  0  0  0  0  0  0  0  0
   57.7936   25.4284   44.0308 H   0  0  0  0  0  0  0  0  0  0  0  0
   58.0271   23.7736   43.3723 H   0  0  0  0  0  0  0  0  0  0  0  0
   56.3922   24.5177   43.3723 H   0  0  0  0  0  0  0  0  0  0  0  0
   57.4869   21.8162   44.6502 H   0  0  0  0  0  0  0  0  0  0  0  0
   57.0693   20.8258   46.8983 H   0  0  0  0  0  0  0  0  0  0  0  0
   56.4268   22.2887   48.8130 H   0  0  0  0  0  0  0  0  0  0  0  0
   56.1883   24.7490   48.4813 H   0  0  0  0  0  0  0  0  0  0  0  0
   59.0446   25.5098   46.6858 H   0  0  0  0  0  0  0  0  0  0  0  0
   59.4741   26.6176   45.3326 H   0  0  0  0  0  0  0  0  0  0  0  0
   59.5406   27.2069   48.3319 H   0  0  0  0  0  0  0  0  0  0  0  0
   60.9257   27.1551   47.1634 H   0  0  0  0  0  0  0  0  0  0  0  0
   60.0591   29.4205   49.6431 H   0  0  0  0  0  0  0  0  0  0  0  0
   61.7061   31.0205   50.6033 H   0  0  0  0  0  0  0  0  0  0  0  0
   63.4590   33.5020   48.9030 H   0  0  0  0  0  0  0  0  0  0  0  0
   63.7418   33.9059   52.2238 H   0  0  0  0  0  0  0  0  0  0  0  0
   65.2404   35.5667   53.3258 H   0  0  0  0  0  0  0  0  0  0  0  0
   67.6334   35.7436   52.6427 H   0  0  0  0  0  0  0  0  0  0  0  0
   67.0410   32.5991   49.7338 H   0  0  0  0  0  0  0  0  0  0  0  0
   63.1193   31.9639   46.6231 H   0  0  0  0  0  0  0  0  0  0  0  0
   61.4746   30.3629   45.6578 H   0  0  0  0  0  0  0  0  0  0  0  0
   58.4684   30.3628   46.2392 H   0  0  0  0  0  0  0  0  0  0  0  0
   59.0760   29.1511   45.0451 H   0  0  0  0  0  0  0  0  0  0  0  0
   56.8803   28.8088   47.1357 H   0  0  0  0  0  0  0  0  0  0  0  0
   56.7703   28.6740   45.3276 H   0  0  0  0  0  0  0  0  0  0  0  0
  1  2  1  0
  2  3  2  0
  3  4  1  0
  4  5  2  0
  5  6  1  0
  6  7  2  0
  7  8  1  0
  8  9  2  0
  8 10  1  0
 10 11  1  0
 11 12  1  0
 12 13  1  0
 13 14  1  0
 14 15  2  0
 15 16  1  0
 16 17  2  0
 17 18  1  0
 18 19  1  0
 19 20  2  0
 19 21  1  0
 21 22  2  0
 22 23  1  0
 23 24  2  0
 24 25  1  0
 25 26  1  0
 25 27  2  0
 17 28  1  0
 28 29  2  0
 13 30  1  0
 30 31  1  0
  7  2  1  0
 31 10  1  0
 29 14  1  0
 27 21  1  0
  1 32  1  0
  1 33  1  0
  1 34  1  0
  3 35  1  0
  4 36  1  0
  5 37  1  0
  6 38  1  0
 11 39  1  0
 11 40  1  0
 12 41  1  0
 12 42  1  0
 15 43  1  0
 16 44  1  0
 18 45  1  0
 22 46  1  0
 23 47  1  0
 24 48  1  0
 27 49  1  0
 28 50  1  0
 29 51  1  0
 30 52  1  0
 30 53  1  0
 31 54  1  0
 31 55  1  0
M  END
>  <UniqueID>  (37) 
36

>  <SMILES>  (37) 
Cc1ccccc1C(=O)N1CCN(c2ccc(NC(=O)c3cccc(Cl)c3)cc2)CC1

>  <Energy>  (37) 
76.65012954842953

>  <Genealogy>  (37) 
Cc1ccccc1C(=O)N1CCN(c2ccc(NC(=O)c3cccc(Cl)c3)cc2)CC1 (3D coordinates assigned)
Cc1ccccc1C(=O)N1CCN(c2ccc(NC(=O)c3cccc(Cl)c3)cc2)CC1 (nonaromatic ring conformer: 76.65012954842953 kcal/mol)

>  <smiles>  (37) 
Cc1ccccc1C(=O)N1CCN(c2ccc(NC(=O)c3cccc(Cl)c3)cc2)CC1

>  <score_type>  (37) 
oracle

>  <origin>  (37) 
adg

>  <m_score__min__energy>  (37) 
-7.5899999999999999

>  <m_primary>  (37) 
energy

$$$$
37:0
     RDKit          3D

 46 49  0  0  0  0  0  0  0  0999 V2000
   59.6780   33.6500   49.6000 C   0  0  0  0  0  0  0  0  0  0  0  0
   58.7170   32.6920   49.2670 C   0  0  0  0  0  0  0  0  0  0  0  0
   58.1570   32.6760   47.9860 C   0  0  0  0  0  0  0  0  0  0  0  0
   58.5500   33.6260   47.0290 C   0  0  0  0  0  0  0  0  0  0  0  0
   57.9470   33.6010   45.6500 C   0  0  0  0  0  0  0  0  0  0  0  0
   58.6000   32.6340   44.8280 O   0  0  0  0  0  0  0  0  0  0  0  0
   58.0380   31.4270   44.3740 C   0  0  0  0  0  0  0  0  0  0  0  0
   57.1320   31.3920   43.2930 C   0  0  0  0  0  0  0  0  0  0  0  0
   56.6170   30.1760   42.8400 C   0  0  0  0  0  0  0  0  0  0  0  0
   57.0000   28.9820   43.4480 C   0  0  0  0  0  0  0  0  0  0  0  0
   57.8950   29.0000   44.5180 C   0  0  0  0  0  0  0  0  0  0  0  0
   58.4150   30.2150   44.9970 C   0  0  0  0  0  0  0  0  0  0  0  0
   59.3550   30.1940   46.1420 C   0  0  0  0  0  0  0  0  0  0  0  0
   59.3700   29.1860   47.1070 C   0  0  0  0  0  0  0  0  0  0  0  0
   60.6000   29.5290   48.2000 S   0  0  0  0  0  0  0  0  0  0  0  0
   61.0770   30.9370   47.4080 C   0  0  0  0  0  0  0  0  0  0  0  0
   62.1560   31.8000   47.8260 N   0  0  0  0  0  0  0  0  0  0  0  0
   62.6690   31.7030   49.2000 C   0  0  0  0  0  0  0  0  0  0  0  0
   64.0860   32.2780   49.2900 C   0  0  0  0  0  0  0  0  0  0  0  0
   64.1420   33.5650   48.7110 O   0  0  0  0  0  0  0  0  0  0  0  0
   63.9090   33.4640   47.3220 C   0  0  0  0  0  0  0  0  0  0  0  0
   62.4780   32.9990   47.0410 C   0  0  0  0  0  0  0  0  0  0  0  0
   60.3080   31.1540   46.3140 N   0  0  0  0  0  0  0  0  0  0  0  0
   59.5270   34.5780   47.3660 C   0  0  0  0  0  0  0  0  0  0  0  0
   60.0840   34.5910   48.6490 C   0  0  0  0  0  0  0  0  0  0  0  0
   60.1148   33.6639   50.6095 H   0  0  0  0  0  0  0  0  0  0  0  0
   58.4005   31.9491   50.0139 H   0  0  0  0  0  0  0  0  0  0  0  0
   57.4053   31.9160   47.7265 H   0  0  0  0  0  0  0  0  0  0  0  0
   56.8797   33.3463   45.7278 H   0  0  0  0  0  0  0  0  0  0  0  0
   58.0717   34.5937   45.1929 H   0  0  0  0  0  0  0  0  0  0  0  0
   56.8293   32.3295   42.8036 H   0  0  0  0  0  0  0  0  0  0  0  0
   55.9065   30.1603   42.0004 H   0  0  0  0  0  0  0  0  0  0  0  0
   56.5967   28.0254   43.0843 H   0  0  0  0  0  0  0  0  0  0  0  0
   58.1968   28.0541   44.9915 H   0  0  0  0  0  0  0  0  0  0  0  0
   58.6948   28.3185   47.1456 H   0  0  0  0  0  0  0  0  0  0  0  0
   62.0069   32.2670   49.8734 H   0  0  0  0  0  0  0  0  0  0  0  0
   62.6978   30.6432   49.4931 H   0  0  0  0  0  0  0  0  0  0  0  0
   64.3817   32.3449   50.3474 H   0  0  0  0  0  0  0  0  0  0  0  0
   64.7715   31.6145   48.7424 H   0  0  0  0  0  0  0  0  0  0  0  0
   64.0654   34.4490   46.8580 H   0  0  0  0  0  0  0  0  0  0  0  0
   64.6076   32.7259   46.9010 H   0  0  0  0  0  0  0  0  0  0  0  0
   61.7780   33.8042   47.3087 H   0  0  0  0  0  0  0  0  0  0  0  0
   62.3899   32.7550   45.9720 H   0  0  0  0  0  0  0  0  0  0  0  0
   60.4040   31.9810   45.6860 H   0  0  0  0  0  0  0  0  0  0  0  0
   59.8548   35.3154   46.6185 H   0  0  0  0  0  0  0  0  0  0  0  0
   60.8430   35.3431   48.9103 H   0  0  0  0  0  0  0  0  0  0  0  0
  1  2  2  0
  2  3  1  0
  3  4  2  0
  4  5  1  0
  5  6  1  0
  6  7  1  0
  7  8  2  0
  8  9  1  0
  9 10  2  0
 10 11  1  0
 11 12  2  0
 12 13  1  0
 13 14  2  0
 14 15  1  0
 15 16  1  0
 16 17  1  0
 17 18  1  0
 18 19  1  0
 19 20  1  0
 20 21  1  0
 21 22  1  0
 16 23  2  0
  4 24  1  0
 24 25  2  0
 25  1  1  0
 12  7  1  0
 23 13  1  0
 22 17  1  0
  1 26  1  0
  2 27  1  0
  3 28  1  0
  5 29  1  0
  5 30  1  0
  8 31  1  0
  9 32  1  0
 10 33  1  0
 11 34  1  0
 14 35  1  0
 18 36  1  0
 18 37  1  0
 19 38  1  0
 19 39  1  0
 21 40  1  0
 21 41  1  0
 22 42  1  0
 22 43  1  0
 23 44  1  0
 24 45  1  0
 25 46  1  0
M  CHG  1  23   1
M  END
>  <UniqueID>  (38) 
37

>  <SMILES>  (38) 
c1ccc(COc2ccccc2-c2csc(N3CCOCC3)[nH+]2)cc1

>  <Energy>  (38) 
85.87514942464992

>  <Genealogy>  (38) 
c1ccc(COc2ccccc2-c2csc(N3CCOCC3)[nH+]2)cc1 (protonated)
c1ccc(COc2ccccc2-c2csc(N3CCOCC3)[nH+]2)cc1 (3D coordinates assigned)
c1ccc(COc2ccccc2-c2csc(N3CCOCC3)[nH+]2)cc1 (nonaromatic ring conformer: 85.87514942464992 kcal/mol)

>  <smiles>  (38) 
c1ccc(COc2ccccc2-c2csc(N3CCOCC3)n2)cc1

>  <score_type>  (38) 
oracle

>  <origin>  (38) 
adg

>  <m_score__min__energy>  (38) 
-6.8899999999999997

>  <m_primary>  (38) 
energy

$$$$
38:0
     RDKit          3D

 44 47  0  0  0  0  0  0  0  0999 V2000
   60.0370   28.5950   50.7490 C   0  0  0  0  0  0  0  0  0  0  0  0
   60.1660   28.9890   49.3500 N   0  0  0  0  0  0  0  0  0  0  0  0
   59.8100   28.2470   48.2760 C   0  0  0  0  0  0  0  0  0  0  0  0
   60.1640   28.9010   47.0990 C   0  0  0  0  0  0  0  0  0  0  0  0
   60.0760   28.3340   45.7110 C   0  0  0  0  0  0  0  0  0  0  0  0
   58.9150   28.9580   44.9740 C   0  0  0  0  0  0  0  0  0  0  0  0
   58.6160   30.3090   45.1860 C   0  0  0  0  0  0  0  0  0  0  0  0
   57.4800   30.8870   44.6060 C   0  0  0  0  0  0  0  0  0  0  0  0
   57.1280   32.2590   44.8570 N   0  0  0  0  0  0  0  0  0  0  0  0
   57.9650   33.1870   45.5710 C   0  0  0  0  0  0  0  0  0  0  0  0
   58.7260   34.1600   44.8940 C   0  0  0  0  0  0  0  0  0  0  0  0
   59.5370   35.0440   45.6090 C   0  0  0  0  0  0  0  0  0  0  0  0
   59.6140   34.9550   47.0010 C   0  0  0  0  0  0  0  0  0  0  0  0
   58.8830   33.9760   47.6790 C   0  0  0  0  0  0  0  0  0  0  0  0
   58.0670   33.0910   46.9670 C   0  0  0  0  0  0  0  0  0  0  0  0
   56.7020   30.1130   43.7410 C   0  0  0  0  0  0  0  0  0  0  0  0
   57.0130   28.8080   43.5170 N   0  0  0  0  0  0  0  0  0  0  0  0
   58.0820   28.2110   44.1170 C   0  0  0  0  0  0  0  0  0  0  0  0
   58.3150   26.9920   43.8960 O   0  0  0  0  0  0  0  0  0  0  0  0
   60.7830   30.0730   47.4930 C   0  0  0  0  0  0  0  0  0  0  0  0
   61.3850   31.0880   46.7490 C   0  0  0  0  0  0  0  0  0  0  0  0
   61.9760   32.1550   47.4490 C   0  0  0  0  0  0  0  0  0  0  0  0
   61.9610   32.1800   48.8600 C   0  0  0  0  0  0  0  0  0  0  0  0
   61.3550   31.1390   49.5860 C   0  0  0  0  0  0  0  0  0  0  0  0
   60.7670   30.0950   48.8660 C   0  0  0  0  0  0  0  0  0  0  0  0
   60.3140   29.4410   51.3952 H   0  0  0  0  0  0  0  0  0  0  0  0
   58.9963   28.3030   50.9532 H   0  0  0  0  0  0  0  0  0  0  0  0
   60.7034   27.7440   50.9532 H   0  0  0  0  0  0  0  0  0  0  0  0
   59.3122   27.2674   48.3257 H   0  0  0  0  0  0  0  0  0  0  0  0
   61.0093   28.5481   45.1696 H   0  0  0  0  0  0  0  0  0  0  0  0
   59.9234   27.2464   45.7729 H   0  0  0  0  0  0  0  0  0  0  0  0
   59.2793   30.9221   45.8138 H   0  0  0  0  0  0  0  0  0  0  0  0
   56.2030   32.5990   44.5080 H   0  0  0  0  0  0  0  0  0  0  0  0
   58.6813   34.2239   43.7968 H   0  0  0  0  0  0  0  0  0  0  0  0
   60.1162   35.8118   45.0751 H   0  0  0  0  0  0  0  0  0  0  0  0
   60.2496   35.6551   47.5630 H   0  0  0  0  0  0  0  0  0  0  0  0
   58.9494   33.9013   48.7744 H   0  0  0  0  0  0  0  0  0  0  0  0
   57.5020   32.3153   47.5046 H   0  0  0  0  0  0  0  0  0  0  0  0
   55.8327   30.5619   43.2382 H   0  0  0  0  0  0  0  0  0  0  0  0
   56.4050   28.2490   42.8770 H   0  0  0  0  0  0  0  0  0  0  0  0
   61.3970   31.0548   45.6496 H   0  0  0  0  0  0  0  0  0  0  0  0
   62.4531   32.9755   46.8931 H   0  0  0  0  0  0  0  0  0  0  0  0
   62.4268   33.0201   49.3960 H   0  0  0  0  0  0  0  0  0  0  0  0
   61.3441   31.1461   50.6859 H   0  0  0  0  0  0  0  0  0  0  0  0
  1  2  1  0
  2  3  1  0
  3  4  2  0
  4  5  1  0
  5  6  1  0
  6  7  2  0
  7  8  1  0
  8  9  1  0
  9 10  1  0
 10 11  2  0
 11 12  1  0
 12 13  2  0
 13 14  1  0
 14 15  2  0
  8 16  2  0
 16 17  1  0
 17 18  1  0
 18 19  2  0
  4 20  1  0
 20 21  2  0
 21 22  1  0
 22 23  2  0
 23 24  1  0
 24 25  2  0
 25  2  1  0
 18  6  1  0
 25 20  1  0
 15 10  1  0
  1 26  1  0
  1 27  1  0
  1 28  1  0
  3 29  1  0
  5 30  1  0
  5 31  1  0
  7 32  1  0
  9 33  1  0
 11 34  1  0
 12 35  1  0
 13 36  1  0
 14 37  1  0
 15 38  1  0
 16 39  1  0
 17 40  1  0
 21 41  1  0
 22 42  1  0
 23 43  1  0
 24 44  1  0
M  END
>  <UniqueID>  (39) 
38

>  <SMILES>  (39) 
Cn1cc(Cc2cc(Nc3ccccc3)c[nH]c2=O)c2ccccc21

>  <Energy>  (39) 
85.01176156949477

>  <Genealogy>  (39) 
Cn1cc(Cc2cc(Nc3ccccc3)c[nH]c2=O)c2ccccc21 (3D coordinates assigned)
Cn1cc(Cc2cc(Nc3ccccc3)c[nH]c2=O)c2ccccc21 (optimized conformer: 85.01176156949477 kcal/mol)

>  <smiles>  (39) 
Cn1cc(Cc2cc(Nc3ccccc3)c[nH]c2=O)c2ccccc21

>  <score_type>  (39) 
oracle

>  <origin>  (39) 
adg

>  <m_score__min__energy>  (39) 
-8.0299999999999994

>  <m_primary>  (39) 
energy

$$$$
39:0
     RDKit          3D

 38 40  0  0  0  0  0  0  0  0999 V2000
   56.3040   31.2660   44.6620 O   0  0  0  0  0  0  0  0  0  0  0  0
   57.5240   31.2910   44.9770 C   0  0  0  0  0  0  0  0  0  0  0  0
   58.3080   30.0930   44.8770 N   0  0  0  0  0  0  0  0  0  0  0  0
   57.9520   28.7930   45.3660 C   0  0  0  0  0  0  0  0  0  0  0  0
   58.9670   27.9530   45.8450 C   0  0  0  0  0  0  0  0  0  0  0  0
   58.6610   26.6860   46.3490 C   0  0  0  0  0  0  0  0  0  0  0  0
   57.3320   26.2530   46.3920 C   0  0  0  0  0  0  0  0  0  0  0  0
   56.3090   27.0920   45.9430 C   0  0  0  0  0  0  0  0  0  0  0  0
   54.9870   26.6680   46.0040 O   0  0  0  0  0  0  0  0  0  0  0  0
   56.6140   28.3610   45.4350 C   0  0  0  0  0  0  0  0  0  0  0  0
   58.1680   32.5660   45.4010 C   0  0  0  0  0  0  0  0  0  0  0  0
   58.1950   33.6540   44.5150 C   0  0  0  0  0  0  0  0  0  0  0  0
   58.7880   34.8530   44.8910 C   0  0  0  0  0  0  0  0  0  0  0  0
   59.3580   34.9710   46.1530 C   0  0  0  0  0  0  0  0  0  0  0  0
   59.3470   33.9220   47.0290 N   0  0  0  0  0  0  0  0  0  0  0  0
   59.9420   34.1200   48.3630 C   0  0  0  0  0  0  0  0  0  0  0  0
   61.4180   33.7870   48.3400 C   0  0  0  0  0  0  0  0  0  0  0  0
   62.0890   33.7850   47.1040 C   0  0  0  0  0  0  0  0  0  0  0  0
   63.4440   33.4560   47.0300 C   0  0  0  0  0  0  0  0  0  0  0  0
   64.1470   33.1210   48.1870 C   0  0  0  0  0  0  0  0  0  0  0  0
   63.4960   33.1190   49.4220 C   0  0  0  0  0  0  0  0  0  0  0  0
   62.1380   33.4470   49.5110 C   0  0  0  0  0  0  0  0  0  0  0  0
   61.3420   33.4300   51.2590 Br  0  0  0  0  0  0  0  0  0  0  0  0
   58.7640   32.7260   46.6770 C   0  0  0  0  0  0  0  0  0  0  0  0
   58.7640   31.7630   47.4920 O   0  0  0  0  0  0  0  0  0  0  0  0
   60.0126   28.2939   45.8240 H   0  0  0  0  0  0  0  0  0  0  0  0
   59.4655   26.0294   46.7119 H   0  0  0  0  0  0  0  0  0  0  0  0
   57.0920   25.2518   46.7793 H   0  0  0  0  0  0  0  0  0  0  0  0
   55.8057   29.0220   45.0889 H   0  0  0  0  0  0  0  0  0  0  0  0
   57.7438   33.5570   43.5165 H   0  0  0  0  0  0  0  0  0  0  0  0
   58.8062   35.7038   44.1939 H   0  0  0  0  0  0  0  0  0  0  0  0
   59.8244   35.9217   46.4509 H   0  0  0  0  0  0  0  0  0  0  0  0
   59.8125   35.1698   48.6649 H   0  0  0  0  0  0  0  0  0  0  0  0
   59.4384   33.4543   49.0794 H   0  0  0  0  0  0  0  0  0  0  0  0
   61.5409   34.0452   46.1864 H   0  0  0  0  0  0  0  0  0  0  0  0
   63.9579   33.4611   46.0574 H   0  0  0  0  0  0  0  0  0  0  0  0
   65.2135   32.8586   48.1265 H   0  0  0  0  0  0  0  0  0  0  0  0
   64.0548   32.8575   50.3327 H   0  0  0  0  0  0  0  0  0  0  0  0
  1  2  2  0
  2  3  1  0
  3  4  1  0
  4  5  2  0
  5  6  1  0
  6  7  2  0
  7  8  1  0
  8  9  1  0
  8 10  2  0
  2 11  1  0
 11 12  2  0
 12 13  1  0
 13 14  2  0
 14 15  1  0
 15 16  1  0
 16 17  1  0
 17 18  2  0
 18 19  1  0
 19 20  2  0
 20 21  1  0
 21 22  2  0
 22 23  1  0
 15 24  1  0
 24 25  2  0
 10  4  1  0
 24 11  1  0
 22 17  1  0
  5 26  1  0
  6 27  1  0
  7 28  1  0
 10 29  1  0
 12 30  1  0
 13 31  1  0
 14 32  1  0
 16 33  1  0
 16 34  1  0
 18 35  1  0
 19 36  1  0
 20 37  1  0
 21 38  1  0
M  CHG  2   3  -1   9  -1
M  END
>  <UniqueID>  (40) 
39

>  <SMILES>  (40) 
O=C([N-]c1cccc([O-])c1)c1cccn(Cc2ccccc2Br)c1=O

>  <Energy>  (40) 
51.570808346738595

>  <Genealogy>  (40) 
O=C([N-]c1cccc([O-])c1)c1cccn(Cc2ccccc2Br)c1=O (protonated)
O=C([N-]c1cccc([O-])c1)c1cccn(Cc2ccccc2Br)c1=O (3D coordinates assigned)
O=C([N-]c1cccc([O-])c1)c1cccn(Cc2ccccc2Br)c1=O (optimized conformer: 51.570808346738595 kcal/mol)

>  <smiles>  (40) 
O=C(Nc1cccc(O)c1)c1cccn(Cc2ccccc2Br)c1=O

>  <score_type>  (40) 
oracle

>  <origin>  (40) 
adg

>  <m_score__min__energy>  (40) 
-13.800000000000001

>  <m_primary>  (40) 
energy

$$$$
40:0
     RDKit          3D

 54 57  0  0  0  0  0  0  0  0999 V2000
   61.4420   30.8530   49.9420 C   0  0  0  0  0  0  0  0  0  0  0  0
   61.0870   29.4340   49.6340 C   0  0  0  0  0  0  0  0  0  0  0  0
   60.4310   28.9810   48.5090 C   0  0  0  0  0  0  0  0  0  0  0  0
   60.2400   27.6230   48.7150 C   0  0  0  0  0  0  0  0  0  0  0  0
   59.5630   26.6780   47.8110 C   0  0  0  0  0  0  0  0  0  0  0  0
   60.2590   26.0340   46.9830 O   0  0  0  0  0  0  0  0  0  0  0  0
   58.1430   26.4700   47.8790 N   0  0  0  0  0  0  0  0  0  0  0  0
   57.4700   25.4080   47.1940 C   0  0  0  0  0  0  0  0  0  0  0  0
   57.0490   25.2200   45.8880 C   0  0  0  0  0  0  0  0  0  0  0  0
   57.0810   25.9840   44.6810 N   0  0  0  0  0  0  0  0  0  0  0  0
   57.7490   27.2550   44.6500 C   0  0  0  0  0  0  0  0  0  0  0  0
   59.1320   27.2990   44.4240 C   0  0  0  0  0  0  0  0  0  0  0  0
   59.7980   28.5220   44.3520 C   0  0  0  0  0  0  0  0  0  0  0  0
   59.0900   29.7160   44.4990 C   0  0  0  0  0  0  0  0  0  0  0  0
   57.7050   29.6980   44.7310 C   0  0  0  0  0  0  0  0  0  0  0  0
   56.9730   30.9770   44.8890 C   0  0  0  0  0  0  0  0  0  0  0  0
   55.7760   31.0550   44.5020 O   0  0  0  0  0  0  0  0  0  0  0  0
   57.6030   32.1350   45.4690 N   0  0  0  0  0  0  0  0  0  0  0  0
   57.2980   33.4610   44.9120 C   0  0  0  0  0  0  0  0  0  0  0  0
   58.1550   34.5590   45.5560 C   0  0  0  0  0  0  0  0  0  0  0  0
   59.5870   34.0580   45.7460 C   0  0  0  0  0  0  0  0  0  0  0  0
   59.6480   32.8530   46.7040 C   0  0  0  0  0  0  0  0  0  0  0  0
   58.3490   32.0210   46.7330 C   0  0  0  0  0  0  0  0  0  0  0  0
   57.0430   28.4590   44.8450 C   0  0  0  0  0  0  0  0  0  0  0  0
   55.7010   28.4200   45.1980 O   0  0  0  0  0  0  0  0  0  0  0  0
   56.5820   23.9640   46.2180 C   0  0  0  0  0  0  0  0  0  0  0  0
   56.0180   23.0330   45.5870 O   0  0  0  0  0  0  0  0  0  0  0  0
   56.9740   24.1580   47.5250 C   0  0  0  0  0  0  0  0  0  0  0  0
   56.9140   23.4650   48.5750 O   0  0  0  0  0  0  0  0  0  0  0  0
   60.7340   27.2730   49.8820 O   0  0  0  0  0  0  0  0  0  0  0  0
   61.2390   28.3370   50.4610 C   0  0  0  0  0  0  0  0  0  0  0  0
   61.8770   28.3270   51.8110 C   0  0  0  0  0  0  0  0  0  0  0  0
   61.4772   30.9938   51.0324 H   0  0  0  0  0  0  0  0  0  0  0  0
   62.4263   31.0867   49.5101 H   0  0  0  0  0  0  0  0  0  0  0  0
   60.6837   31.5227   49.5101 H   0  0  0  0  0  0  0  0  0  0  0  0
   60.1241   29.5718   47.6334 H   0  0  0  0  0  0  0  0  0  0  0  0
   57.5660   27.0660   48.5110 H   0  0  0  0  0  0  0  0  0  0  0  0
   56.2500   25.8670   44.0570 H   0  0  0  0  0  0  0  0  0  0  0  0
   59.6956   26.3622   44.3026 H   0  0  0  0  0  0  0  0  0  0  0  0
   60.8840   28.5459   44.1789 H   0  0  0  0  0  0  0  0  0  0  0  0
   59.6204   30.6774   44.4327 H   0  0  0  0  0  0  0  0  0  0  0  0
   57.4926   33.4461   43.8295 H   0  0  0  0  0  0  0  0  0  0  0  0
   56.2413   33.6851   45.1200 H   0  0  0  0  0  0  0  0  0  0  0  0
   58.1622   35.4452   44.9044 H   0  0  0  0  0  0  0  0  0  0  0  0
   57.7303   34.8213   46.5362 H   0  0  0  0  0  0  0  0  0  0  0  0
   59.9917   33.7568   44.7685 H   0  0  0  0  0  0  0  0  0  0  0  0
   60.1800   34.8742   46.1843 H   0  0  0  0  0  0  0  0  0  0  0  0
   60.4733   32.1984   46.3874 H   0  0  0  0  0  0  0  0  0  0  0  0
   59.7973   33.2537   47.7175 H   0  0  0  0  0  0  0  0  0  0  0  0
   58.6055   30.9647   46.9019 H   0  0  0  0  0  0  0  0  0  0  0  0
   57.7126   32.4057   47.5435 H   0  0  0  0  0  0  0  0  0  0  0  0
   61.0961   28.3392   52.5857 H   0  0  0  0  0  0  0  0  0  0  0  0
   62.4883   27.4192   51.9209 H   0  0  0  0  0  0  0  0  0  0  0  0
   62.5165   29.2152   51.9209 H   0  0  0  0  0  0  0  0  0  0  0  0
  1  2  1  0
  2  3  1  0
  3  4  2  0
  4  5  1  0
  5  6  2  0
  5  7  1  0
  7  8  1  0
  8  9  2  0
  9 10  1  0
 10 11  1  0
 11 12  2  0
 12 13  1  0
 13 14  2  0
 14 15  1  0
 15 16  1  0
 16 17  2  0
 16 18  1  0
 18 19  1  0
 19 20  1  0
 20 21  1  0
 21 22  1  0
 22 23  1  0
 15 24  2  0
 24 25  1  0
  9 26  1  0
 26 27  2  0
 26 28  1  0
 28 29  2  0
  4 30  1  0
 30 31  1  0
 31 32  1  0
 31  2  2  0
 28  8  1  0
 24 11  1  0
 23 18  1  0
  1 33  1  0
  1 34  1  0
  1 35  1  0
  3 36  1  0
  7 37  1  0
 10 38  1  0
 12 39  1  0
 13 40  1  0
 14 41  1  0
 19 42  1  0
 19 43  1  0
 20 44  1  0
 20 45  1  0
 21 46  1  0
 21 47  1  0
 22 48  1  0
 22 49  1  0
 23 50  1  0
 23 51  1  0
 32 52  1  0
 32 53  1  0
 32 54  1  0
M  CHG  1  25  -1
M  END
>  <UniqueID>  (41) 
40

>  <SMILES>  (41) 
Cc1cc(C(=O)Nc2c(Nc3cccc(C(=O)N4CCCCC4)c3[O-])c(=O)c2=O)oc1C

>  <Energy>  (41) 
87.20730651713603

>  <Genealogy>  (41) 
Cc1cc(C(=O)Nc2c(Nc3cccc(C(=O)N4CCCCC4)c3[O-])c(=O)c2=O)oc1C (protonated)
Cc1cc(C(=O)Nc2c(Nc3cccc(C(=O)N4CCCCC4)c3[O-])c(=O)c2=O)oc1C (3D coordinates assigned)
Cc1cc(C(=O)Nc2c(Nc3cccc(C(=O)N4CCCCC4)c3[O-])c(=O)c2=O)oc1C (nonaromatic ring conformer: 87.20730651713603 kcal/mol)

>  <smiles>  (41) 
Cc1cc(C(=O)Nc2c(Nc3cccc(C(=O)N4CCCCC4)c3O)c(=O)c2=O)oc1C

>  <score_type>  (41) 
oracle

>  <origin>  (41) 
adg

>  <m_score__min__energy>  (41) 
-13.220000000000001

>  <m_primary>  (41) 
energy

$$$$
41:0
     RDKit          3D

 47 49  0  0  0  0  0  0  0  0999 V2000
   63.2500   33.8430   46.3480 C   0  0  0  0  0  0  0  0  0  0  0  0
   63.2230   34.1080   47.7450 O   0  0  0  0  0  0  0  0  0  0  0  0
   63.4940   33.1590   48.7430 C   0  0  0  0  0  0  0  0  0  0  0  0
   64.7350   33.1120   49.4100 C   0  0  0  0  0  0  0  0  0  0  0  0
   64.9770   32.1380   50.3810 C   0  0  0  0  0  0  0  0  0  0  0  0
   63.9910   31.2030   50.6970 C   0  0  0  0  0  0  0  0  0  0  0  0
   62.7570   31.2400   50.0460 C   0  0  0  0  0  0  0  0  0  0  0  0
   62.4980   32.2170   49.0720 C   0  0  0  0  0  0  0  0  0  0  0  0
   61.2230   32.2430   48.4090 N   0  0  0  0  0  0  0  0  0  0  0  0
   60.7950   31.1130   47.5780 C   0  0  0  0  0  0  0  0  0  0  0  0
   59.7260   30.3180   48.2640 C   0  0  0  0  0  0  0  0  0  0  0  0
   59.8620   30.0140   49.4790 O   0  0  0  0  0  0  0  0  0  0  0  0
   58.5380   29.9470   47.5540 N   0  0  0  0  0  0  0  0  0  0  0  0
   58.5100   28.9820   46.4630 C   0  0  0  0  0  0  0  0  0  0  0  0
   57.8800   29.6010   45.2470 C   0  0  0  0  0  0  0  0  0  0  0  0
   56.6240   29.1680   44.7920 C   0  0  0  0  0  0  0  0  0  0  0  0
   56.0260   29.7830   43.6870 C   0  0  0  0  0  0  0  0  0  0  0  0
   56.6740   30.8360   43.0350 C   0  0  0  0  0  0  0  0  0  0  0  0
   57.9210   31.2760   43.4870 C   0  0  0  0  0  0  0  0  0  0  0  0
   58.5230   30.6630   44.5900 C   0  0  0  0  0  0  0  0  0  0  0  0
   60.1460   33.5840   48.6530 S   0  0  0  0  0  0  0  0  0  0  0  0
   60.9370   34.8360   48.9170 O   0  0  0  0  0  0  0  0  0  0  0  0
   59.2670   33.3170   49.8420 O   0  0  0  0  0  0  0  0  0  0  0  0
   59.1520   33.8180   47.2260 C   0  0  0  0  0  0  0  0  0  0  0  0
   57.8530   33.3670   47.0560 C   0  0  0  0  0  0  0  0  0  0  0  0
   57.3170   33.7060   45.8080 C   0  0  0  0  0  0  0  0  0  0  0  0
   58.1940   34.4180   45.0000 C   0  0  0  0  0  0  0  0  0  0  0  0
   59.6350   34.6350   45.8400 S   0  0  0  0  0  0  0  0  0  0  0  0
   63.3602   32.7612   46.1821 H   0  0  0  0  0  0  0  0  0  0  0  0
   62.3118   34.1904   45.8907 H   0  0  0  0  0  0  0  0  0  0  0  0
   64.0988   34.3725   45.8907 H   0  0  0  0  0  0  0  0  0  0  0  0
   65.5165   33.8461   49.1644 H   0  0  0  0  0  0  0  0  0  0  0  0
   65.9475   32.1079   50.8980 H   0  0  0  0  0  0  0  0  0  0  0  0
   64.1864   30.4355   51.4604 H   0  0  0  0  0  0  0  0  0  0  0  0
   61.9833   30.4996   50.2975 H   0  0  0  0  0  0  0  0  0  0  0  0
   60.4028   31.4958   46.6243 H   0  0  0  0  0  0  0  0  0  0  0  0
   61.6614   30.4583   47.4027 H   0  0  0  0  0  0  0  0  0  0  0  0
   59.5381   28.6727   46.2234 H   0  0  0  0  0  0  0  0  0  0  0  0
   57.9196   28.1061   46.7700 H   0  0  0  0  0  0  0  0  0  0  0  0
   56.1090   28.3430   45.3059 H   0  0  0  0  0  0  0  0  0  0  0  0
   55.0444   29.4374   43.3307 H   0  0  0  0  0  0  0  0  0  0  0  0
   56.2024   31.3183   42.1661 H   0  0  0  0  0  0  0  0  0  0  0  0
   58.4296   32.1057   42.9743 H   0  0  0  0  0  0  0  0  0  0  0  0
   59.5035   31.0136   44.9445 H   0  0  0  0  0  0  0  0  0  0  0  0
   57.3008   32.8019   47.8213 H   0  0  0  0  0  0  0  0  0  0  0  0
   56.2976   33.4342   45.4967 H   0  0  0  0  0  0  0  0  0  0  0  0
   57.9821   34.7790   43.9828 H   0  0  0  0  0  0  0  0  0  0  0  0
  1  2  1  0
  2  3  1  0
  3  4  2  0
  4  5  1  0
  5  6  2  0
  6  7  1  0
  7  8  2  0
  8  9  1  0
  9 10  1  0
 10 11  1  0
 11 12  2  0
 11 13  1  0
 13 14  1  0
 14 15  1  0
 15 16  2  0
 16 17  1  0
 17 18  2  0
 18 19  1  0
 19 20  2  0
  9 21  1  0
 21 22  2  0
 21 23  2  0
 21 24  1  0
 24 25  2  0
 25 26  1  0
 26 27  2  0
 27 28  1  0
  8  3  1  0
 20 15  1  0
 28 24  1  0
  1 29  1  0
  1 30  1  0
  1 31  1  0
  4 32  1  0
  5 33  1  0
  6 34  1  0
  7 35  1  0
 10 36  1  0
 10 37  1  0
 14 38  1  0
 14 39  1  0
 16 40  1  0
 17 41  1  0
 18 42  1  0
 19 43  1  0
 20 44  1  0
 25 45  1  0
 26 46  1  0
 27 47  1  0
M  CHG  1  13  -1
M  END
>  <UniqueID>  (42) 
41

>  <SMILES>  (42) 
COc1ccccc1N(CC(=O)[N-]Cc1ccccc1)S(=O)(=O)c1cccs1

>  <Energy>  (42) 
72.65126056289091

>  <Genealogy>  (42) 
COc1ccccc1N(CC(=O)[N-]Cc1ccccc1)S(=O)(=O)c1cccs1 (protonated)
COc1ccccc1N(CC(=O)[N-]Cc1ccccc1)S(=O)(=O)c1cccs1 (3D coordinates assigned)
COc1ccccc1N(CC(=O)[N-]Cc1ccccc1)S(=O)(=O)c1cccs1 (optimized conformer: 72.65126056289091 kcal/mol)

>  <smiles>  (42) 
COc1ccccc1N(CC(=O)NCc1ccccc1)S(=O)(=O)c1cccs1

>  <score_type>  (42) 
oracle

>  <origin>  (42) 
adg

>  <m_score__min__energy>  (42) 
-9.4199999999999999

>  <m_primary>  (42) 
energy

$$$$
42:0
     RDKit          3D

 47 50  0  0  0  0  0  0  0  0999 V2000
   56.2140   29.8010   43.3100 O   0  0  0  0  0  0  0  0  0  0  0  0
   56.5440   29.6340   44.5140 C   0  0  0  0  0  0  0  0  0  0  0  0
   55.9360   28.5630   45.2500 N   0  0  0  0  0  0  0  0  0  0  0  0
   56.5730   27.3350   45.6380 C   0  0  0  0  0  0  0  0  0  0  0  0
   57.9730   27.1970   45.6250 C   0  0  0  0  0  0  0  0  0  0  0  0
   58.5640   25.9850   45.9940 C   0  0  0  0  0  0  0  0  0  0  0  0
   57.7660   24.8990   46.3630 C   0  0  0  0  0  0  0  0  0  0  0  0
   56.3740   25.0220   46.3540 C   0  0  0  0  0  0  0  0  0  0  0  0
   55.7770   26.2330   45.9880 C   0  0  0  0  0  0  0  0  0  0  0  0
   54.3900   26.3400   45.9790 O   0  0  0  0  0  0  0  0  0  0  0  0
   57.5020   30.5740   45.1420 C   0  0  0  0  0  0  0  0  0  0  0  0
   58.2110   30.2110   46.3010 C   0  0  0  0  0  0  0  0  0  0  0  0
   59.1220   31.0990   46.8780 C   0  0  0  0  0  0  0  0  0  0  0  0
   59.3300   32.3670   46.3170 C   0  0  0  0  0  0  0  0  0  0  0  0
   60.3410   33.3040   46.9250 C   0  0  0  0  0  0  0  0  0  0  0  0
   61.7220   32.8380   46.6640 N   0  0  0  0  0  0  0  0  0  0  0  0
   62.7570   33.8630   46.9220 C   0  0  0  0  0  0  0  0  0  0  0  0
   62.8420   34.2640   48.4040 C   0  0  0  0  0  0  0  0  0  0  0  0
   62.7330   33.0810   49.3300 C   0  0  0  0  0  0  0  0  0  0  0  0
   63.0060   33.2540   50.6960 C   0  0  0  0  0  0  0  0  0  0  0  0
   62.8640   32.1880   51.5870 C   0  0  0  0  0  0  0  0  0  0  0  0
   62.4410   30.9400   51.1240 C   0  0  0  0  0  0  0  0  0  0  0  0
   62.3070   29.8790   52.0100 O   0  0  0  0  0  0  0  0  0  0  0  0
   62.1550   30.7570   49.7670 C   0  0  0  0  0  0  0  0  0  0  0  0
   62.2800   31.8270   48.8650 C   0  0  0  0  0  0  0  0  0  0  0  0
   62.0300   31.5920   47.3950 C   0  0  0  0  0  0  0  0  0  0  0  0
   58.6100   32.7390   45.1710 C   0  0  0  0  0  0  0  0  0  0  0  0
   57.6990   31.8510   44.5930 C   0  0  0  0  0  0  0  0  0  0  0  0
   58.6047   28.0456   45.3235 H   0  0  0  0  0  0  0  0  0  0  0  0
   59.6595   25.8861   45.9938 H   0  0  0  0  0  0  0  0  0  0  0  0
   58.2329   23.9484   46.6602 H   0  0  0  0  0  0  0  0  0  0  0  0
   55.7459   24.1640   46.6356 H   0  0  0  0  0  0  0  0  0  0  0  0
   58.0474   29.2228   46.7555 H   0  0  0  0  0  0  0  0  0  0  0  0
   59.6797   30.8015   47.7782 H   0  0  0  0  0  0  0  0  0  0  0  0
   60.2110   34.3054   46.4888 H   0  0  0  0  0  0  0  0  0  0  0  0
   60.1812   33.3333   48.0129 H   0  0  0  0  0  0  0  0  0  0  0  0
   63.7330   33.4634   46.6095 H   0  0  0  0  0  0  0  0  0  0  0  0
   62.4824   34.7621   46.3508 H   0  0  0  0  0  0  0  0  0  0  0  0
   63.8072   34.7616   48.5798 H   0  0  0  0  0  0  0  0  0  0  0  0
   61.9961   34.9340   48.6175 H   0  0  0  0  0  0  0  0  0  0  0  0
   63.3341   34.2361   51.0673 H   0  0  0  0  0  0  0  0  0  0  0  0
   63.0856   32.3314   52.6549 H   0  0  0  0  0  0  0  0  0  0  0  0
   61.8306   29.7705   49.4043 H   0  0  0  0  0  0  0  0  0  0  0  0
   62.9290   31.1376   46.9532 H   0  0  0  0  0  0  0  0  0  0  0  0
   61.1557   30.9302   47.3078 H   0  0  0  0  0  0  0  0  0  0  0  0
   58.7635   33.7333   44.7262 H   0  0  0  0  0  0  0  0  0  0  0  0
   57.1318   32.1549   43.7009 H   0  0  0  0  0  0  0  0  0  0  0  0
  1  2  2  0
  2  3  1  0
  3  4  1  0
  4  5  2  0
  5  6  1  0
  6  7  2  0
  7  8  1  0
  8  9  2  0
  9 10  1  0
  2 11  1  0
 11 12  2  0
 12 13  1  0
 13 14  2  0
 14 15  1  0
 15 16  1  0
 16 17  1  0
 17 18  1  0
 18 19  1  0
 19 20  2  0
 20 21  1  0
 21 22  2  0
 22 23  1  0
 22 24  1  0
 24 25  2  0
 25 26  1  0
 14 27  1  0
 27 28  2  0
  9  4  1  0
 28 11  1  0
 26 16  1  0
 25 19  1  0
  5 29  1  0
  6 30  1  0
  7 31  1  0
  8 32  1  0
 12 33  1  0
 13 34  1  0
 15 35  1  0
 15 36  1  0
 17 37  1  0
 17 38  1  0
 18 39  1  0
 18 40  1  0
 20 41  1  0
 21 42  1  0
 24 43  1  0
 26 44  1  0
 26 45  1  0
 27 46  1  0
 28 47  1  0
M  CHG  3   3  -1  10  -1  23  -1
M  END
>  <UniqueID>  (43) 
42

>  <SMILES>  (43) 
O=C([N-]c1ccccc1[O-])c1ccc(CN2CCc3ccc([O-])cc3C2)cc1

>  <Energy>  (43) 
64.09227849411236

>  <Genealogy>  (43) 
O=C([N-]c1ccccc1[O-])c1ccc(CN2CCc3ccc([O-])cc3C2)cc1 (protonated)
O=C([N-]c1ccccc1[O-])c1ccc(CN2CCc3ccc([O-])cc3C2)cc1 (3D coordinates assigned)
O=C([N-]c1ccccc1[O-])c1ccc(CN2CCc3ccc([O-])cc3C2)cc1 (nonaromatic ring conformer: 64.09227849411236 kcal/mol)

>  <smiles>  (43) 
O=C(Nc1ccccc1O)c1ccc(CN2CCc3ccc(O)cc3C2)cc1

>  <score_type>  (43) 
oracle

>  <origin>  (43) 
adg

>  <m_score__min__energy>  (43) 
-15.220000000000001

>  <m_primary>  (43) 
energy

$$$$
43:0
     RDKit          3D

 37 38  0  0  0  0  0  0  0  0999 V2000
   56.3290   24.8370   47.6850 O   0  0  0  0  0  0  0  0  0  0  0  0
   56.8370   24.7500   46.5350 C   0  0  0  0  0  0  0  0  0  0  0  0
   56.3140   23.7270   45.5600 C   0  0  0  0  0  0  0  0  0  0  0  0
   54.8270   23.8390   45.3840 C   0  0  0  0  0  0  0  0  0  0  0  0
   54.0350   22.8070   45.0450 N   0  0  0  0  0  0  0  0  0  0  0  0
   52.7970   23.3470   45.0520 C   0  0  0  0  0  0  0  0  0  0  0  0
   51.7660   22.6820   44.7730 O   0  0  0  0  0  0  0  0  0  0  0  0
   52.7510   24.6540   45.3850 N   0  0  0  0  0  0  0  0  0  0  0  0
   54.0420   24.9540   45.6000 C   0  0  0  0  0  0  0  0  0  0  0  0
   54.4810   26.2150   45.9910 O   0  0  0  0  0  0  0  0  0  0  0  0
   57.8460   25.6940   46.1610 N   0  0  0  0  0  0  0  0  0  0  0  0
   57.8610   26.4470   44.9110 C   0  0  0  0  0  0  0  0  0  0  0  0
   57.9680   27.9510   45.1970 C   0  0  0  0  0  0  0  0  0  0  0  0
   57.3890   28.8250   44.0720 C   0  0  0  0  0  0  0  0  0  0  0  0
   56.3500   29.7780   44.5740 C   0  0  0  0  0  0  0  0  0  0  0  0
   55.2010   29.3480   44.8660 O   0  0  0  0  0  0  0  0  0  0  0  0
   56.6450   31.1800   44.6110 N   0  0  0  0  0  0  0  0  0  0  0  0
   57.6670   31.8290   45.3800 C   0  0  0  0  0  0  0  0  0  0  0  0
   58.7110   31.1110   45.9950 C   0  0  0  0  0  0  0  0  0  0  0  0
   59.6940   31.7870   46.7260 C   0  0  0  0  0  0  0  0  0  0  0  0
   59.6510   33.1790   46.8380 C   0  0  0  0  0  0  0  0  0  0  0  0
   58.6320   33.9000   46.2110 C   0  0  0  0  0  0  0  0  0  0  0  0
   57.6490   33.2280   45.4770 C   0  0  0  0  0  0  0  0  0  0  0  0
   56.6680   33.9410   44.8660 F   0  0  0  0  0  0  0  0  0  0  0  0
   56.8011   23.8809   44.5858 H   0  0  0  0  0  0  0  0  0  0  0  0
   56.5384   22.7265   45.9584 H   0  0  0  0  0  0  0  0  0  0  0  0
   55.0990   26.3390   46.7830 H   0  0  0  0  0  0  0  0  0  0  0  0
   58.7238   26.1302   44.3067 H   0  0  0  0  0  0  0  0  0  0  0  0
   56.9265   26.2521   44.3644 H   0  0  0  0  0  0  0  0  0  0  0  0
   57.4213   28.1698   46.1261 H   0  0  0  0  0  0  0  0  0  0  0  0
   59.0380   28.1923   45.2802 H   0  0  0  0  0  0  0  0  0  0  0  0
   58.2068   29.4013   43.6147 H   0  0  0  0  0  0  0  0  0  0  0  0
   56.9101   28.1587   43.3394 H   0  0  0  0  0  0  0  0  0  0  0  0
   58.7537   30.0159   45.9004 H   0  0  0  0  0  0  0  0  0  0  0  0
   60.5020   31.2216   47.2133 H   0  0  0  0  0  0  0  0  0  0  0  0
   60.4201   33.7076   47.4203 H   0  0  0  0  0  0  0  0  0  0  0  0
   58.6026   34.9964   46.2945 H   0  0  0  0  0  0  0  0  0  0  0  0
  1  2  2  0
  2  3  1  0
  3  4  1  0
  4  5  1  0
  5  6  1  0
  6  7  2  0
  6  8  1  0
  8  9  1  0
  9 10  1  0
  2 11  1  0
 11 12  1  0
 12 13  1  0
 13 14  1  0
 14 15  1  0
 15 16  2  0
 15 17  1  0
 17 18  1  0
 18 19  2  0
 19 20  1  0
 20 21  2  0
 21 22  1  0
 22 23  2  0
 23 24  1  0
  9  4  2  0
 23 18  1  0
  3 25  1  0
  3 26  1  0
 10 27  1  0
 12 28  1  0
 12 29  1  0
 13 30  1  0
 13 31  1  0
 14 32  1  0
 14 33  1  0
 19 34  1  0
 20 35  1  0
 21 36  1  0
 22 37  1  0
M  CHG  4   5  -1   8  -1  11  -1  17  -1
M  END
>  <UniqueID>  (44) 
43

>  <SMILES>  (44) 
O=C(Cc1[n-]c(=O)[n-]c1O)[N-]CCCC(=O)[N-]c1ccccc1F

>  <Energy>  (44) 
61.447788826508805

>  <Genealogy>  (44) 
O=C(Cc1[n-]c(=O)[n-]c1O)[N-]CCCC(=O)[N-]c1ccccc1F (protonated)
O=C(Cc1[n-]c(=O)[n-]c1O)[N-]CCCC(=O)[N-]c1ccccc1F (3D coordinates assigned)
O=C(Cc1[n-]c(=O)[n-]c1O)[N-]CCCC(=O)[N-]c1ccccc1F (optimized conformer: 61.447788826508805 kcal/mol)

>  <smiles>  (44) 
O=C(Cc1[nH]c(=O)[nH]c1O)NCCCC(=O)Nc1ccccc1F

>  <score_type>  (44) 
oracle

>  <origin>  (44) 
adg

>  <m_score__min__energy>  (44) 
-14.77

>  <m_primary>  (44) 
energy

$$$$
44:0
     RDKit          3D

 74 77  0  0  0  0  0  0  0  0999 V2000
   67.9450   26.3670   53.1550 C   0  0  0  0  0  0  0  0  0  0  0  0
   67.2410   27.7220   53.2720 C   0  0  0  0  0  0  0  0  0  0  0  0
   67.1550   28.3700   51.9520 N   0  0  0  0  0  0  0  0  0  0  0  0
   68.2070   28.0650   50.9650 C   0  0  0  0  0  0  0  0  0  0  0  0
   67.6980   27.1200   49.8840 C   0  0  0  0  0  0  0  0  0  0  0  0
   66.0650   29.2860   51.6650 C   0  0  0  0  0  0  0  0  0  0  0  0
   64.7180   28.9370   51.8890 C   0  0  0  0  0  0  0  0  0  0  0  0
   63.6870   29.8120   51.5170 C   0  0  0  0  0  0  0  0  0  0  0  0
   62.2590   29.4140   51.7870 C   0  0  0  0  0  0  0  0  0  0  0  0
   64.0100   31.0440   50.9070 C   0  0  0  0  0  0  0  0  0  0  0  0
   63.0250   31.9560   50.4740 C   0  0  0  0  0  0  0  0  0  0  0  0
   63.3870   33.1550   49.8460 C   0  0  0  0  0  0  0  0  0  0  0  0
   62.3480   34.0420   49.4160 N   0  0  0  0  0  0  0  0  0  0  0  0
   60.9420   33.7770   49.4680 C   0  0  0  0  0  0  0  0  0  0  0  0
   60.4290   33.4710   50.5800 O   0  0  0  0  0  0  0  0  0  0  0  0
   60.1060   33.7390   48.2370 C   0  0  0  0  0  0  0  0  0  0  0  0
   60.3930   34.6050   47.1660 C   0  0  0  0  0  0  0  0  0  0  0  0
   59.5790   34.6310   46.0280 C   0  0  0  0  0  0  0  0  0  0  0  0
   58.4570   33.7920   45.9370 C   0  0  0  0  0  0  0  0  0  0  0  0
   57.5690   33.8480   44.7130 C   0  0  0  0  0  0  0  0  0  0  0  0
   57.8410   32.7080   43.7090 C   0  0  0  0  0  0  0  0  0  0  0  0
   57.3600   31.3800   44.2170 C   0  0  0  0  0  0  0  0  0  0  0  0
   56.2450   31.3000   44.8000 O   0  0  0  0  0  0  0  0  0  0  0  0
   58.1800   30.2160   44.0550 N   0  0  0  0  0  0  0  0  0  0  0  0
   58.0650   29.0450   44.8830 C   0  0  0  0  0  0  0  0  0  0  0  0
   59.2010   28.4470   45.4650 C   0  0  0  0  0  0  0  0  0  0  0  0
   59.0750   27.2790   46.2180 C   0  0  0  0  0  0  0  0  0  0  0  0
   57.8200   26.6860   46.3820 C   0  0  0  0  0  0  0  0  0  0  0  0
   56.6780   27.2670   45.8150 C   0  0  0  0  0  0  0  0  0  0  0  0
   55.4120   26.6280   46.0170 N   0  0  0  0  0  0  0  0  0  0  0  0
   55.1580   24.9120   45.9010 S   0  0  0  0  0  0  0  0  0  0  0  0
   56.0970   24.1970   44.5580 C   0  0  0  0  0  0  0  0  0  0  0  0
   55.5970   24.2790   47.1910 O   0  0  0  0  0  0  0  0  0  0  0  0
   53.6870   24.6400   45.7160 O   0  0  0  0  0  0  0  0  0  0  0  0
   56.8070   28.4420   45.0490 C   0  0  0  0  0  0  0  0  0  0  0  0
   58.1840   32.9010   46.9910 C   0  0  0  0  0  0  0  0  0  0  0  0
   58.9910   32.8860   48.1330 C   0  0  0  0  0  0  0  0  0  0  0  0
   64.7470   33.4760   49.6920 C   0  0  0  0  0  0  0  0  0  0  0  0
   65.7290   32.5870   50.1320 C   0  0  0  0  0  0  0  0  0  0  0  0
   65.3710   31.3710   50.7260 C   0  0  0  0  0  0  0  0  0  0  0  0
   66.3360   30.4960   51.1020 N   0  0  0  0  0  0  0  0  0  0  0  0
   68.1501   25.9723   54.1610 H   0  0  0  0  0  0  0  0  0  0  0  0
   67.2983   25.6636   52.6100 H   0  0  0  0  0  0  0  0  0  0  0  0
   68.8923   26.4918   52.6100 H   0  0  0  0  0  0  0  0  0  0  0  0
   66.2262   27.5705   53.6685 H   0  0  0  0  0  0  0  0  0  0  0  0
   67.8185   28.3675   53.9501 H   0  0  0  0  0  0  0  0  0  0  0  0
   68.5384   29.0022   50.4940 H   0  0  0  0  0  0  0  0  0  0  0  0
   69.0411   27.5749   51.4885 H   0  0  0  0  0  0  0  0  0  0  0  0
   67.2265   26.2446   50.3545 H   0  0  0  0  0  0  0  0  0  0  0  0
   66.9592   27.6424   49.2584 H   0  0  0  0  0  0  0  0  0  0  0  0
   68.5407   26.7906   49.2584 H   0  0  0  0  0  0  0  0  0  0  0  0
   64.4739   27.9726   52.3584 H   0  0  0  0  0  0  0  0  0  0  0  0
   62.0905   29.3670   52.8730 H   0  0  0  0  0  0  0  0  0  0  0  0
   61.5809   30.1574   51.3425 H   0  0  0  0  0  0  0  0  0  0  0  0
   62.0631   28.4270   51.3425 H   0  0  0  0  0  0  0  0  0  0  0  0
   61.9614   31.7234   50.6310 H   0  0  0  0  0  0  0  0  0  0  0  0
   61.2677   35.2696   47.2238 H   0  0  0  0  0  0  0  0  0  0  0  0
   59.8198   35.3132   45.1994 H   0  0  0  0  0  0  0  0  0  0  0  0
   56.5204   33.7833   45.0391 H   0  0  0  0  0  0  0  0  0  0  0  0
   57.7848   34.7951   44.1969 H   0  0  0  0  0  0  0  0  0  0  0  0
   57.3230   32.9354   42.7656 H   0  0  0  0  0  0  0  0  0  0  0  0
   58.9289   32.6398   43.5613 H   0  0  0  0  0  0  0  0  0  0  0  0
   58.8780   30.2100   43.2750 H   0  0  0  0  0  0  0  0  0  0  0  0
   60.1920   28.9034   45.3249 H   0  0  0  0  0  0  0  0  0  0  0  0
   59.9629   26.8252   46.6823 H   0  0  0  0  0  0  0  0  0  0  0  0
   57.7281   25.7553   46.9611 H   0  0  0  0  0  0  0  0  0  0  0  0
   56.9094   23.5784   44.9672 H   0  0  0  0  0  0  0  0  0  0  0  0
   55.4356   23.5718   43.9403 H   0  0  0  0  0  0  0  0  0  0  0  0
   56.5238   25.0009   43.9403 H   0  0  0  0  0  0  0  0  0  0  0  0
   55.9189   28.8894   44.5787 H   0  0  0  0  0  0  0  0  0  0  0  0
   57.3301   32.2116   46.9163 H   0  0  0  0  0  0  0  0  0  0  0  0
   58.7519   32.2001   48.9591 H   0  0  0  0  0  0  0  0  0  0  0  0
   65.0374   34.4284   49.2244 H   0  0  0  0  0  0  0  0  0  0  0  0
   66.7918   32.8437   50.0111 H   0  0  0  0  0  0  0  0  0  0  0  0
  1  2  1  0
  2  3  1  0
  3  4  1  0
  4  5  1  0
  3  6  1  0
  6  7  2  0
  7  8  1  0
  8  9  1  0
  8 10  2  0
 10 11  1  0
 11 12  2  0
 12 13  1  0
 13 14  1  0
 14 15  2  0
 14 16  1  0
 16 17  2  0
 17 18  1  0
 18 19  2  0
 19 20  1  0
 20 21  1  0
 21 22  1  0
 22 23  2  0
 22 24  1  0
 24 25  1  0
 25 26  2  0
 26 27  1  0
 27 28  2  0
 28 29  1  0
 29 30  1  0
 30 31  1  0
 31 32  1  0
 31 33  2  0
 31 34  2  0
 29 35  2  0
 19 36  1  0
 36 37  2  0
 12 38  1  0
 38 39  2  0
 39 40  1  0
 40 41  2  0
 41  6  1  0
 40 10  1  0
 37 16  1  0
 35 25  1  0
  1 42  1  0
  1 43  1  0
  1 44  1  0
  2 45  1  0
  2 46  1  0
  4 47  1  0
  4 48  1  0
  5 49  1  0
  5 50  1  0
  5 51  1  0
  7 52  1  0
  9 53  1  0
  9 54  1  0
  9 55  1  0
 11 56  1  0
 17 57  1  0
 18 58  1  0
 20 59  1  0
 20 60  1  0
 21 61  1  0
 21 62  1  0
 24 63  1  0
 26 64  1  0
 27 65  1  0
 28 66  1  0
 32 67  1  0
 32 68  1  0
 32 69  1  0
 35 70  1  0
 36 71  1  0
 37 72  1  0
 38 73  1  0
 39 74  1  0
M  CHG  2  13  -1  30  -1
M  END
>  <UniqueID>  (45) 
44

>  <SMILES>  (45) 
CCN(CC)c1cc(C)c2cc([N-]C(=O)c3ccc(CCC(=O)Nc4cccc([N-]S(C)(=O)=O)c4)cc3)ccc2n1

>  <Energy>  (45) 
88.87934132744171

>  <Genealogy>  (45) 
CCN(CC)c1cc(C)c2cc([N-]C(=O)c3ccc(CCC(=O)Nc4cccc([N-]S(C)(=O)=O)c4)cc3)ccc2n1 (protonated)
CCN(CC)c1cc(C)c2cc([N-]C(=O)c3ccc(CCC(=O)Nc4cccc([N-]S(C)(=O)=O)c4)cc3)ccc2n1 (3D coordinates assigned)
CCN(CC)c1cc(C)c2cc([N-]C(=O)c3ccc(CCC(=O)Nc4cccc([N-]S(C)(=O)=O)c4)cc3)ccc2n1 (optimized conformer: 88.87934132744171 kcal/mol)

>  <smiles>  (45) 
CCN(CC)c1cc(C)c2cc(NC(=O)c3ccc(CCC(=O)Nc4cccc(NS(C)(=O)=O)c4)cc3)ccc2n1

>  <score_type>  (45) 
oracle

>  <origin>  (45) 
adg

>  <m_score__min__energy>  (45) 
-14.949999999999999

>  <m_primary>  (45) 
energy

$$$$
45:0
     RDKit          3D

 50 52  0  0  0  0  0  0  0  0999 V2000
   53.3851   22.1549   46.6409 H   0  0  0  0  0  0  0  0  0  0  0  0
   54.2090   22.8800   46.7150 C   0  0  0  0  0  0  0  0  0  0  0  0
   54.1660   24.0740   45.9880 C   0  0  0  0  0  0  0  0  0  0  0  0
   52.9940   24.3930   45.1070 C   0  0  0  0  0  0  0  0  0  0  0  0
   52.1201   24.6309   45.7312 H   0  0  0  0  0  0  0  0  0  0  0  0
   53.2373   25.2576   44.4720 H   0  0  0  0  0  0  0  0  0  0  0  0
   52.7655   23.5244   44.4720 H   0  0  0  0  0  0  0  0  0  0  0  0
   55.1800   24.9710   46.1130 N   0  0  0  0  0  0  0  0  0  0  0  0
   56.2640   24.7540   46.9140 C   0  0  0  0  0  0  0  0  0  0  0  0
   57.1940   25.6700   46.9400 N   0  0  0  0  0  0  0  0  0  0  0  0
   58.5000   25.6740   46.3360 C   0  0  0  0  0  0  0  0  0  0  0  0
   59.0890   24.6070   46.0200 O   0  0  0  0  0  0  0  0  0  0  0  0
   59.1780   26.9850   46.1030 C   0  0  0  0  0  0  0  0  0  0  0  0
   59.9882   27.1167   46.8353 H   0  0  0  0  0  0  0  0  0  0  0  0
   59.6017   27.0096   45.0882 H   0  0  0  0  0  0  0  0  0  0  0  0
   58.1880   28.0720   46.2580 N   0  0  0  0  0  0  0  0  0  0  0  0
   57.1020   28.0070   45.2590 C   0  0  0  0  0  0  0  0  0  0  0  0
   56.8060   26.9552   45.1317 H   0  0  0  0  0  0  0  0  0  0  0  0
   56.2736   28.6256   45.6346 H   0  0  0  0  0  0  0  0  0  0  0  0
   57.5120   28.5740   43.8780 C   0  0  0  0  0  0  0  0  0  0  0  0
   58.1950   27.8578   43.3979 H   0  0  0  0  0  0  0  0  0  0  0  0
   56.5852   28.7214   43.3042 H   0  0  0  0  0  0  0  0  0  0  0  0
   58.1900   29.8910   43.9490 N   0  0  0  0  0  0  0  0  0  0  0  0
   58.6450   30.0190   43.0140 H   0  0  0  0  0  0  0  0  0  0  0  0
   57.3290   31.0590   44.1220 C   0  0  0  0  0  0  0  0  0  0  0  0
   56.1760   30.8770   44.4950 O   0  0  0  0  0  0  0  0  0  0  0  0
   57.7590   32.4810   43.7940 C   0  0  0  0  0  0  0  0  0  0  0  0
   58.5486   32.4442   43.0290 H   0  0  0  0  0  0  0  0  0  0  0  0
   56.8741   33.0251   43.4323 H   0  0  0  0  0  0  0  0  0  0  0  0
   58.2880   33.2120   45.0020 C   0  0  0  0  0  0  0  0  0  0  0  0
   59.1620   34.3020   44.8480 C   0  0  0  0  0  0  0  0  0  0  0  0
   59.4687   34.6205   43.8408 H   0  0  0  0  0  0  0  0  0  0  0  0
   59.6430   34.9830   45.9710 C   0  0  0  0  0  0  0  0  0  0  0  0
   60.3308   35.8322   45.8454 H   0  0  0  0  0  0  0  0  0  0  0  0
   59.2510   34.5860   47.2530 C   0  0  0  0  0  0  0  0  0  0  0  0
   59.6342   35.1194   48.1354 H   0  0  0  0  0  0  0  0  0  0  0  0
   58.3720   33.5110   47.4130 C   0  0  0  0  0  0  0  0  0  0  0  0
   58.0597   33.2026   48.4216 H   0  0  0  0  0  0  0  0  0  0  0  0
   57.8890   32.8270   46.2930 C   0  0  0  0  0  0  0  0  0  0  0  0
   57.1940   31.9843   46.4232 H   0  0  0  0  0  0  0  0  0  0  0  0
   59.2830   29.8770   44.9440 C   0  0  0  0  0  0  0  0  0  0  0  0
   60.0711   29.1918   44.5984 H   0  0  0  0  0  0  0  0  0  0  0  0
   59.6688   30.9022   45.0445 H   0  0  0  0  0  0  0  0  0  0  0  0
   58.7900   29.4140   46.3210 C   0  0  0  0  0  0  0  0  0  0  0  0
   59.6423   29.3906   47.0160 H   0  0  0  0  0  0  0  0  0  0  0  0
   58.0207   30.1203   46.6664 H   0  0  0  0  0  0  0  0  0  0  0  0
   56.3460   23.5450   47.6370 C   0  0  0  0  0  0  0  0  0  0  0  0
   57.2185   23.3360   48.2734 H   0  0  0  0  0  0  0  0  0  0  0  0
   55.3080   22.6170   47.5360 C   0  0  0  0  0  0  0  0  0  0  0  0
   55.3557   21.6764   48.1043 H   0  0  0  0  0  0  0  0  0  0  0  0
  1  2  1  0
  2  3  2  0
  3  4  1  0
  4  5  1  0
  4  6  1  0
  4  7  1  0
  3  8  1  0
  8  9  1  0
  9 10  2  0
 10 11  1  0
 11 12  2  0
 11 13  1  0
 13 14  1  0
 13 15  1  0
 13 16  1  0
 16 17  1  0
 17 18  1  0
 17 19  1  0
 17 20  1  0
 20 21  1  0
 20 22  1  0
 20 23  1  0
 23 24  1  0
 23 25  1  0
 25 26  2  0
 25 27  1  0
 27 28  1  0
 27 29  1  0
 27 30  1  0
 30 31  2  0
 31 32  1  0
 31 33  1  0
 33 34  1  0
 33 35  2  0
 35 36  1  0
 35 37  1  0
 37 38  1  0
 37 39  2  0
 39 40  1  0
 23 41  1  0
 41 42  1  0
 41 43  1  0
 41 44  1  0
 44 45  1  0
 44 46  1  0
  9 47  1  0
 47 48  1  0
 47 49  2  0
 49 50  1  0
 49  2  1  0
 44 16  1  0
 39 30  1  0
M  CHG  2   8  -1  23   1
M  END
>  <UniqueID>  (46) 
45

>  <SMILES>  (46) 
Cc1ccc/c(=N\C(=O)CN2CC[NH+](C(=O)Cc3ccccc3)CC2)[n-]1

>  <Energy>  (46) 
71.33365683273944

>  <Genealogy>  (46) 
Cc1cccc(=NC(=O)CN2CC[NH+](C(=O)Cc3ccccc3)CC2)[n-]1 (protonated)
Cc1ccc/c(=N\C(=O)CN2CC[NH+](C(=O)Cc3ccccc3)CC2)[n-]1 (cis-trans isomerization)
Cc1ccc/c(=N\C(=O)CN2CC[NH+](C(=O)Cc3ccccc3)CC2)[n-]1 (3D coordinates assigned)
Cc1ccc/c(=N\C(=O)CN2CC[NH+](C(=O)Cc3ccccc3)CC2)[n-]1 (nonaromatic ring conformer: 71.33365683273944 kcal/mol)

>  <smiles>  (46) 
Cc1cccc(=NC(=O)CN2CCN(C(=O)Cc3ccccc3)CC2)[nH]1

>  <score_type>  (46) 
oracle

>  <origin>  (46) 
adg

>  <m_score__min__energy>  (46) 
-9.1099999999999994

>  <m_primary>  (46) 
energy

$$$$
46:0
     RDKit          3D

 77 81  0  0  0  0  0  0  0  0999 V2000
   55.7530   26.5880   46.2330 N   0  0  0  0  0  0  0  0  0  0  0  0
   56.2950   25.3020   46.5410 C   0  0  0  0  0  0  0  0  0  0  0  0
   56.5920   25.0260   47.7350 O   0  0  0  0  0  0  0  0  0  0  0  0
   56.5210   24.3000   45.4710 C   0  0  0  0  0  0  0  0  0  0  0  0
   57.8270   23.7980   45.2440 C   0  0  0  0  0  0  0  0  0  0  0  0
   58.8870   24.2460   46.1180 N   0  0  0  0  0  0  0  0  0  0  0  0
   59.6930   25.4320   46.2310 C   0  0  0  0  0  0  0  0  0  0  0  0
   60.9250   25.3220   45.9900 O   0  0  0  0  0  0  0  0  0  0  0  0
   59.1810   26.7980   46.6090 C   0  0  0  0  0  0  0  0  0  0  0  0
   58.5560   27.5880   45.4730 C   0  0  0  0  0  0  0  0  0  0  0  0
   58.4520   27.0920   44.1560 C   0  0  0  0  0  0  0  0  0  0  0  0
   57.7890   27.8280   43.1730 C   0  0  0  0  0  0  0  0  0  0  0  0
   57.2560   29.0810   43.4730 C   0  0  0  0  0  0  0  0  0  0  0  0
   57.4140   29.6250   44.7570 C   0  0  0  0  0  0  0  0  0  0  0  0
   56.9400   30.9410   45.0720 N   0  0  0  0  0  0  0  0  0  0  0  0
   57.6670   32.1680   44.9030 C   0  0  0  0  0  0  0  0  0  0  0  0
   57.3960   32.8960   43.9110 O   0  0  0  0  0  0  0  0  0  0  0  0
   58.6660   32.6590   45.9280 C   0  0  0  0  0  0  0  0  0  0  0  0
   59.5470   31.5010   46.4600 C   0  0  0  0  0  0  0  0  0  0  0  0
   60.7670   32.0120   47.2590 C   0  0  0  0  0  0  0  0  0  0  0  0
   60.5900   33.4330   47.5900 N   0  0  0  0  0  0  0  0  0  0  0  0
   59.9910   33.8420   48.8440 C   0  0  0  0  0  0  0  0  0  0  0  0
   59.2800   34.8850   48.8820 O   0  0  0  0  0  0  0  0  0  0  0  0
   60.1160   32.9970   50.0980 C   0  0  0  0  0  0  0  0  0  0  0  0
   59.9030   33.8040   51.3900 C   0  0  0  0  0  0  0  0  0  0  0  0
   58.5410   33.3950   51.9250 C   0  0  0  0  0  0  0  0  0  0  0  0
   58.3420   31.9690   51.4500 C   0  0  0  0  0  0  0  0  0  0  0  0
   59.0600   31.8790   50.1130 C   0  0  0  0  0  0  0  0  0  0  0  0
   60.5400   34.3290   46.4210 C   0  0  0  0  0  0  0  0  0  0  0  0
   59.5390   33.7980   45.3630 C   0  0  0  0  0  0  0  0  0  0  0  0
   58.0140   28.8550   45.7590 C   0  0  0  0  0  0  0  0  0  0  0  0
   58.0370   22.8990   44.1810 C   0  0  0  0  0  0  0  0  0  0  0  0
   56.9790   22.4990   43.3670 C   0  0  0  0  0  0  0  0  0  0  0  0
   55.6900   22.9630   43.6100 C   0  0  0  0  0  0  0  0  0  0  0  0
   55.4400   23.8390   44.6740 C   0  0  0  0  0  0  0  0  0  0  0  0
   54.0320   24.2020   44.9600 C   0  0  0  0  0  0  0  0  0  0  0  0
   53.7910   25.3060   45.5150 O   0  0  0  0  0  0  0  0  0  0  0  0
   52.9280   23.3330   44.6490 N   0  0  0  0  0  0  0  0  0  0  0  0
   52.1660   22.6940   45.4930 C   0  0  0  0  0  0  0  0  0  0  0  0
   50.9830   23.2980   45.9380 C   0  0  0  0  0  0  0  0  0  0  0  0
   50.1640   22.6190   46.8460 C   0  0  0  0  0  0  0  0  0  0  0  0
   50.5280   21.3490   47.2950 C   0  0  0  0  0  0  0  0  0  0  0  0
   51.7060   20.7700   46.8220 C   0  0  0  0  0  0  0  0  0  0  0  0
   52.4880   21.4460   45.9380 N   0  0  0  0  0  0  0  0  0  0  0  0
   55.5780   26.8700   45.2430 H   0  0  0  0  0  0  0  0  0  0  0  0
   55.5730   27.2790   46.9930 H   0  0  0  0  0  0  0  0  0  0  0  0
   58.4216   26.6720   47.3948 H   0  0  0  0  0  0  0  0  0  0  0  0
   60.0586   27.3745   46.9368 H   0  0  0  0  0  0  0  0  0  0  0  0
   58.8967   26.1184   43.9024 H   0  0  0  0  0  0  0  0  0  0  0  0
   57.6865   27.4180   42.1574 H   0  0  0  0  0  0  0  0  0  0  0  0
   56.7105   29.6443   42.7016 H   0  0  0  0  0  0  0  0  0  0  0  0
   58.0920   33.0624   46.7752 H   0  0  0  0  0  0  0  0  0  0  0  0
   58.9357   30.8642   47.1164 H   0  0  0  0  0  0  0  0  0  0  0  0
   59.9240   30.9390   45.5928 H   0  0  0  0  0  0  0  0  0  0  0  0
   60.8639   31.4307   48.1878 H   0  0  0  0  0  0  0  0  0  0  0  0
   61.6745   31.8931   46.6489 H   0  0  0  0  0  0  0  0  0  0  0  0
   61.1403   32.5967   50.0718 H   0  0  0  0  0  0  0  0  0  0  0  0
   60.6880   33.5652   52.1226 H   0  0  0  0  0  0  0  0  0  0  0  0
   59.9504   34.8863   51.1992 H   0  0  0  0  0  0  0  0  0  0  0  0
   58.5280   33.4413   53.0239 H   0  0  0  0  0  0  0  0  0  0  0  0
   57.7417   34.0627   51.5710 H   0  0  0  0  0  0  0  0  0  0  0  0
   58.7790   31.2604   52.1689 H   0  0  0  0  0  0  0  0  0  0  0  0
   57.2755   31.7163   51.3569 H   0  0  0  0  0  0  0  0  0  0  0  0
   59.5463   30.8977   50.0099 H   0  0  0  0  0  0  0  0  0  0  0  0
   58.3534   31.9930   49.2777 H   0  0  0  0  0  0  0  0  0  0  0  0
   60.2224   35.3303   46.7474 H   0  0  0  0  0  0  0  0  0  0  0  0
   61.5413   34.3737   45.9679 H   0  0  0  0  0  0  0  0  0  0  0  0
   58.8858   34.6235   45.0437 H   0  0  0  0  0  0  0  0  0  0  0  0
   60.1146   33.4012   44.5138 H   0  0  0  0  0  0  0  0  0  0  0  0
   58.0629   29.2457   46.7861 H   0  0  0  0  0  0  0  0  0  0  0  0
   59.0474   22.5080   43.9909 H   0  0  0  0  0  0  0  0  0  0  0  0
   57.1640   21.8126   42.5276 H   0  0  0  0  0  0  0  0  0  0  0  0
   54.8618   22.6398   42.9623 H   0  0  0  0  0  0  0  0  0  0  0  0
   50.7006   24.2977   45.5764 H   0  0  0  0  0  0  0  0  0  0  0  0
   49.2348   23.0852   47.2054 H   0  0  0  0  0  0  0  0  0  0  0  0
   49.8932   20.8103   48.0139 H   0  0  0  0  0  0  0  0  0  0  0  0
   52.0022   19.7673   47.1639 H   0  0  0  0  0  0  0  0  0  0  0  0
  1  2  1  0
  2  3  2  0
  2  4  1  0
  4  5  2  0
  5  6  1  0
  6  7  1  0
  7  8  2  0
  7  9  1  0
  9 10  1  0
 10 11  2  0
 11 12  1  0
 12 13  2  0
 13 14  1  0
 14 15  1  0
 15 16  1  0
 16 17  2  0
 16 18  1  0
 18 19  1  0
 19 20  1  0
 20 21  1  0
 21 22  1  0
 22 23  2  0
 22 24  1  0
 24 25  1  0
 25 26  1  0
 26 27  1  0
 27 28  1  0
 21 29  1  0
 29 30  1  0
 14 31  2  0
  5 32  1  0
 32 33  2  0
 33 34  1  0
 34 35  2  0
 35 36  1  0
 36 37  2  0
 36 38  1  0
 38 39  2  3
 39 40  1  0
 40 41  2  0
 41 42  1  0
 42 43  2  0
 43 44  1  0
 35  4  1  0
 44 39  1  0
 31 10  1  0
 30 18  1  0
 28 24  1  0
  1 45  1  0
  1 46  1  0
  9 47  1  0
  9 48  1  0
 11 49  1  0
 12 50  1  0
 13 51  1  0
 18 52  1  0
 19 53  1  0
 19 54  1  0
 20 55  1  0
 20 56  1  0
 24 57  1  0
 25 58  1  0
 25 59  1  0
 26 60  1  0
 26 61  1  0
 27 62  1  0
 27 63  1  0
 28 64  1  0
 28 65  1  0
 29 66  1  0
 29 67  1  0
 30 68  1  0
 30 69  1  0
 31 70  1  0
 32 71  1  0
 33 72  1  0
 34 73  1  0
 40 74  1  0
 41 75  1  0
 42 76  1  0
 43 77  1  0
M  CHG  3   6  -1  15  -1  44  -1
M  END
>  <UniqueID>  (47) 
46

>  <SMILES>  (47) 
NC(=O)c1c([N-]C(=O)Cc2cccc([N-]C(=O)C3CCN(C(=O)C4CCCC4)CC3)c2)cccc1C(=O)N=c1cccc[n-]1

>  <Energy>  (47) 
118.98720854166841

>  <Genealogy>  (47) 
NC(=O)c1c([N-]C(=O)Cc2cccc([N-]C(=O)C3CCN(C(=O)C4CCCC4)CC3)c2)cccc1C(=O)N=c1cccc[n-]1 (protonated)
NC(=O)c1c([N-]C(=O)Cc2cccc([N-]C(=O)C3CCN(C(=O)C4CCCC4)CC3)c2)cccc1C(=O)N=c1cccc[n-]1 (3D coordinates assigned)
NC(=O)c1c([N-]C(=O)Cc2cccc([N-]C(=O)C3CCN(C(=O)C4CCCC4)CC3)c2)cccc1C(=O)N=c1cccc[n-]1 (nonaromatic ring conformer: 118.98720854166841 kcal/mol)

>  <smiles>  (47) 
NC(=O)c1c(NC(=O)Cc2cccc(NC(=O)C3CCN(C(=O)C4CCCC4)CC3)c2)cccc1C(=O)N=c1cccc[nH]1

>  <score_type>  (47) 
oracle

>  <origin>  (47) 
adg

>  <m_score__min__energy>  (47) 
-15.67

>  <m_primary>  (47) 
energy

$$$$
47:0
     RDKit          3D

 62 66  0  0  0  0  0  0  0  0999 V2000
   60.0490   28.6730   49.6000 O   0  0  0  0  0  0  0  0  0  0  0  0
   60.0340   29.9220   49.4220 C   0  0  0  0  0  0  0  0  0  0  0  0
   58.8500   30.6880   49.6980 N   0  0  0  0  0  0  0  0  0  0  0  0
   58.1030   30.6130   50.7620 C   0  0  0  0  0  0  0  0  0  0  0  0
   57.4760   31.7710   51.2400 C   0  0  0  0  0  0  0  0  0  0  0  0
   56.6640   31.6940   52.3740 C   0  0  0  0  0  0  0  0  0  0  0  0
   56.4700   30.4660   53.0110 C   0  0  0  0  0  0  0  0  0  0  0  0
   55.4410   30.3520   54.4240 Cl  0  0  0  0  0  0  0  0  0  0  0  0
   57.1150   29.3300   52.5120 C   0  0  0  0  0  0  0  0  0  0  0  0
   57.9030   29.4260   51.4090 N   0  0  0  0  0  0  0  0  0  0  0  0
   61.2440   30.6080   48.9180 C   0  0  0  0  0  0  0  0  0  0  0  0
   62.2880   30.9020   49.8140 C   0  0  0  0  0  0  0  0  0  0  0  0
   63.4280   31.5810   49.3790 C   0  0  0  0  0  0  0  0  0  0  0  0
   64.4210   31.8720   50.2540 F   0  0  0  0  0  0  0  0  0  0  0  0
   63.5490   31.9560   48.0400 C   0  0  0  0  0  0  0  0  0  0  0  0
   62.5320   31.6530   47.1340 C   0  0  0  0  0  0  0  0  0  0  0  0
   61.3640   30.9950   47.5630 C   0  0  0  0  0  0  0  0  0  0  0  0
   60.3580   30.5930   46.6200 N   0  0  0  0  0  0  0  0  0  0  0  0
   60.3470   29.3970   45.8360 C   0  0  0  0  0  0  0  0  0  0  0  0
   61.3080   29.1440   45.0610 O   0  0  0  0  0  0  0  0  0  0  0  0
   59.2180   28.4380   45.9570 C   0  0  0  0  0  0  0  0  0  0  0  0
   59.2950   27.4160   46.9220 C   0  0  0  0  0  0  0  0  0  0  0  0
   58.2100   26.5680   47.1500 C   0  0  0  0  0  0  0  0  0  0  0  0
   57.0290   26.7360   46.4260 C   0  0  0  0  0  0  0  0  0  0  0  0
   56.9410   27.7300   45.4510 C   0  0  0  0  0  0  0  0  0  0  0  0
   58.0360   28.5730   45.1890 C   0  0  0  0  0  0  0  0  0  0  0  0
   57.9910   29.5150   44.1070 N   0  0  0  0  0  0  0  0  0  0  0  0
   57.1300   31.0180   44.1270 S   0  0  0  0  0  0  0  0  0  0  0  0
   55.7010   30.8000   44.5370 O   0  0  0  0  0  0  0  0  0  0  0  0
   57.1430   31.6110   42.7470 O   0  0  0  0  0  0  0  0  0  0  0  0
   57.9570   32.1200   45.2200 C   0  0  0  0  0  0  0  0  0  0  0  0
   57.7860   31.9720   46.6040 C   0  0  0  0  0  0  0  0  0  0  0  0
   58.4140   32.8530   47.4880 C   0  0  0  0  0  0  0  0  0  0  0  0
   59.2310   33.8820   47.0030 C   0  0  0  0  0  0  0  0  0  0  0  0
   59.8340   34.7530   47.9240 O   0  0  0  0  0  0  0  0  0  0  0  0
   60.4380   34.3790   49.1330 C   0  0  0  0  0  0  0  0  0  0  0  0
   59.7020   33.8460   50.2070 C   0  0  0  0  0  0  0  0  0  0  0  0
   60.3480   33.5040   51.4010 C   0  0  0  0  0  0  0  0  0  0  0  0
   61.7240   33.6950   51.5310 C   0  0  0  0  0  0  0  0  0  0  0  0
   62.4570   34.2430   50.4760 C   0  0  0  0  0  0  0  0  0  0  0  0
   61.8150   34.5920   49.2860 C   0  0  0  0  0  0  0  0  0  0  0  0
   59.3770   34.0480   45.6120 C   0  0  0  0  0  0  0  0  0  0  0  0
   58.7420   33.1710   44.7270 C   0  0  0  0  0  0  0  0  0  0  0  0
   57.6219   32.7328   50.7266 H   0  0  0  0  0  0  0  0  0  0  0  0
   56.1776   32.5998   52.7652 H   0  0  0  0  0  0  0  0  0  0  0  0
   56.9846   28.3590   53.0121 H   0  0  0  0  0  0  0  0  0  0  0  0
   62.2055   30.5942   50.8668 H   0  0  0  0  0  0  0  0  0  0  0  0
   64.4473   32.4911   47.6985 H   0  0  0  0  0  0  0  0  0  0  0  0
   62.6440   31.9307   46.0755 H   0  0  0  0  0  0  0  0  0  0  0  0
   60.2200   27.2843   47.5025 H   0  0  0  0  0  0  0  0  0  0  0  0
   58.2859   25.7673   47.9004 H   0  0  0  0  0  0  0  0  0  0  0  0
   56.1659   26.0836   46.6244 H   0  0  0  0  0  0  0  0  0  0  0  0
   56.0077   27.8555   44.8825 H   0  0  0  0  0  0  0  0  0  0  0  0
   57.1555   31.1598   46.9948 H   0  0  0  0  0  0  0  0  0  0  0  0
   58.2658   32.7377   48.5719 H   0  0  0  0  0  0  0  0  0  0  0  0
   58.6165   33.6976   50.1084 H   0  0  0  0  0  0  0  0  0  0  0  0
   59.7701   33.0842   52.2376 H   0  0  0  0  0  0  0  0  0  0  0  0
   62.2320   33.4137   52.4653 H   0  0  0  0  0  0  0  0  0  0  0  0
   63.5405   34.3998   50.5825 H   0  0  0  0  0  0  0  0  0  0  0  0
   62.3937   35.0370   48.4632 H   0  0  0  0  0  0  0  0  0  0  0  0
   59.9930   34.8708   45.2202 H   0  0  0  0  0  0  0  0  0  0  0  0
   58.8589   33.3064   43.6416 H   0  0  0  0  0  0  0  0  0  0  0  0
  1  2  2  0
  2  3  1  0
  3  4  2  3
  4  5  1  0
  5  6  2  0
  6  7  1  0
  7  8  1  0
  7  9  2  0
  9 10  1  0
  2 11  1  0
 11 12  2  0
 12 13  1  0
 13 14  1  0
 13 15  2  0
 15 16  1  0
 16 17  2  0
 17 18  1  0
 18 19  1  0
 19 20  2  0
 19 21  1  0
 21 22  2  0
 22 23  1  0
 23 24  2  0
 24 25  1  0
 25 26  2  0
 26 27  1  0
 27 28  1  0
 28 29  2  0
 28 30  2  0
 28 31  1  0
 31 32  2  0
 32 33  1  0
 33 34  2  0
 34 35  1  0
 35 36  1  0
 36 37  2  0
 37 38  1  0
 38 39  2  0
 39 40  1  0
 40 41  2  0
 34 42  1  0
 42 43  2  0
 10  4  1  0
 17 11  1  0
 26 21  1  0
 43 31  1  0
 41 36  1  0
  5 44  1  0
  6 45  1  0
  9 46  1  0
 12 47  1  0
 15 48  1  0
 16 49  1  0
 22 50  1  0
 23 51  1  0
 24 52  1  0
 25 53  1  0
 32 54  1  0
 33 55  1  0
 37 56  1  0
 38 57  1  0
 39 58  1  0
 40 59  1  0
 41 60  1  0
 42 61  1  0
 43 62  1  0
M  CHG  3  10  -1  18  -1  27  -1
M  END
>  <UniqueID>  (48) 
47

>  <SMILES>  (48) 
O=C(N=c1ccc(Cl)c[n-]1)c1cc(F)ccc1[N-]C(=O)c1ccccc1[N-]S(=O)(=O)c1ccc(Oc2ccccc2)cc1

>  <Energy>  (48) 
92.86201557510705

>  <Genealogy>  (48) 
O=C(N=c1ccc(Cl)c[n-]1)c1cc(F)ccc1[N-]C(=O)c1ccccc1[N-]S(=O)(=O)c1ccc(Oc2ccccc2)cc1 (protonated)
O=C(N=c1ccc(Cl)c[n-]1)c1cc(F)ccc1[N-]C(=O)c1ccccc1[N-]S(=O)(=O)c1ccc(Oc2ccccc2)cc1 (3D coordinates assigned)
O=C(N=c1ccc(Cl)c[n-]1)c1cc(F)ccc1[N-]C(=O)c1ccccc1[N-]S(=O)(=O)c1ccc(Oc2ccccc2)cc1 (optimized conformer: 92.86201557510705 kcal/mol)

>  <smiles>  (48) 
O=C(N=c1ccc(Cl)c[nH]1)c1cc(F)ccc1NC(=O)c1ccccc1NS(=O)(=O)c1ccc(Oc2ccccc2)cc1

>  <score_type>  (48) 
oracle

>  <origin>  (48) 
adg

>  <m_score__min__energy>  (48) 
-16.010000000000002

>  <m_primary>  (48) 
energy

$$$$
48:0
     RDKit          3D

 64 69  0  0  0  0  0  0  0  0999 V2000
   56.6470   29.1820   42.3630 O   0  0  0  0  0  0  0  0  0  0  0  0
   56.5870   29.5540   43.8190 S   0  0  0  0  0  0  0  0  0  0  0  0
   55.1470   29.6240   44.2440 O   0  0  0  0  0  0  0  0  0  0  0  0
   57.3990   28.3320   44.7490 N   0  0  0  0  0  0  0  0  0  0  0  0
   58.2080   28.6040   45.9070 C   0  0  0  0  0  0  0  0  0  0  0  0
   57.9660   27.9920   47.1500 C   0  0  0  0  0  0  0  0  0  0  0  0
   58.7730   28.2810   48.2520 C   0  0  0  0  0  0  0  0  0  0  0  0
   59.8270   29.2020   48.1480 C   0  0  0  0  0  0  0  0  0  0  0  0
   60.6860   29.4730   49.3640 C   0  0  0  0  0  0  0  0  0  0  0  0
   60.2460   30.6580   50.1160 N   0  0  0  0  0  0  0  0  0  0  0  0
   60.8050   31.9070   50.1940 C   0  0  0  0  0  0  0  0  0  0  0  0
   62.0050   32.4120   49.4220 C   0  0  0  0  0  0  0  0  0  0  0  0
   63.3340   31.7510   49.8250 C   0  0  0  0  0  0  0  0  0  0  0  0
   64.5220   32.4490   49.1250 C   0  0  0  0  0  0  0  0  0  0  0  0
   64.1430   33.1030   47.8550 N   0  0  0  0  0  0  0  0  0  0  0  0
   63.1220   32.3390   47.1280 C   0  0  0  0  0  0  0  0  0  0  0  0
   61.7870   32.3660   47.8930 C   0  0  0  0  0  0  0  0  0  0  0  0
   60.1140   32.7440   51.0120 N   0  0  0  0  0  0  0  0  0  0  0  0
   59.1030   31.9850   51.4630 C   0  0  0  0  0  0  0  0  0  0  0  0
   58.0980   32.3550   52.3530 C   0  0  0  0  0  0  0  0  0  0  0  0
   57.1390   31.3850   52.6980 C   0  0  0  0  0  0  0  0  0  0  0  0
   57.2100   30.0850   52.1520 C   0  0  0  0  0  0  0  0  0  0  0  0
   58.2390   29.7440   51.2540 C   0  0  0  0  0  0  0  0  0  0  0  0
   59.1730   30.7330   50.9270 C   0  0  0  0  0  0  0  0  0  0  0  0
   60.0860   29.7950   46.8990 C   0  0  0  0  0  0  0  0  0  0  0  0
   59.2810   29.5010   45.7950 C   0  0  0  0  0  0  0  0  0  0  0  0
   57.3380   31.1210   44.0970 C   0  0  0  0  0  0  0  0  0  0  0  0
   57.8330   31.8700   43.0210 C   0  0  0  0  0  0  0  0  0  0  0  0
   58.4430   33.1080   43.2430 C   0  0  0  0  0  0  0  0  0  0  0  0
   58.5600   33.6130   44.5470 C   0  0  0  0  0  0  0  0  0  0  0  0
   59.1710   34.8540   44.7820 C   0  0  0  0  0  0  0  0  0  0  0  0
   59.2760   35.3490   46.0850 C   0  0  0  0  0  0  0  0  0  0  0  0
   58.7750   34.6090   47.1600 C   0  0  0  0  0  0  0  0  0  0  0  0
   58.1680   33.3700   46.9400 C   0  0  0  0  0  0  0  0  0  0  0  0
   58.0540   32.8620   45.6370 C   0  0  0  0  0  0  0  0  0  0  0  0
   57.4450   31.6200   45.4020 C   0  0  0  0  0  0  0  0  0  0  0  0
   57.2890   27.3450   44.4300 H   0  0  0  0  0  0  0  0  0  0  0  0
   57.1342   27.2799   47.2547 H   0  0  0  0  0  0  0  0  0  0  0  0
   58.5806   27.7812   49.2128 H   0  0  0  0  0  0  0  0  0  0  0  0
   60.6415   28.5977   50.0287 H   0  0  0  0  0  0  0  0  0  0  0  0
   61.7104   29.6640   49.0117 H   0  0  0  0  0  0  0  0  0  0  0  0
   62.0980   33.4690   49.7118 H   0  0  0  0  0  0  0  0  0  0  0  0
   63.4604   31.8282   50.9150 H   0  0  0  0  0  0  0  0  0  0  0  0
   63.3123   30.6947   49.5187 H   0  0  0  0  0  0  0  0  0  0  0  0
   64.9292   33.2125   49.8042 H   0  0  0  0  0  0  0  0  0  0  0  0
   65.2641   31.6730   48.8859 H   0  0  0  0  0  0  0  0  0  0  0  0
   64.9970   33.1690   47.2520 H   0  0  0  0  0  0  0  0  0  0  0  0
   62.9781   32.7827   46.1318 H   0  0  0  0  0  0  0  0  0  0  0  0
   63.4575   31.2958   47.0319 H   0  0  0  0  0  0  0  0  0  0  0  0
   61.2188   33.2568   47.5870 H   0  0  0  0  0  0  0  0  0  0  0  0
   61.2357   31.4449   47.6529 H   0  0  0  0  0  0  0  0  0  0  0  0
   58.0553   33.3711   52.7721 H   0  0  0  0  0  0  0  0  0  0  0  0
   56.3293   31.6410   53.3972 H   0  0  0  0  0  0  0  0  0  0  0  0
   56.4563   29.3336   52.4301 H   0  0  0  0  0  0  0  0  0  0  0  0
   58.3065   28.7339   50.8238 H   0  0  0  0  0  0  0  0  0  0  0  0
   60.9277   30.4948   46.7905 H   0  0  0  0  0  0  0  0  0  0  0  0
   59.4912   29.9786   44.8266 H   0  0  0  0  0  0  0  0  0  0  0  0
   57.7410   31.4816   41.9960 H   0  0  0  0  0  0  0  0  0  0  0  0
   58.8323   33.6879   42.3932 H   0  0  0  0  0  0  0  0  0  0  0  0
   59.5682   35.4386   43.9391 H   0  0  0  0  0  0  0  0  0  0  0  0
   59.7540   36.3232   46.2649 H   0  0  0  0  0  0  0  0  0  0  0  0
   58.8590   35.0038   48.1833 H   0  0  0  0  0  0  0  0  0  0  0  0
   57.7784   32.7912   47.7905 H   0  0  0  0  0  0  0  0  0  0  0  0
   57.0498   31.0355   46.2459 H   0  0  0  0  0  0  0  0  0  0  0  0
  1  2  2  0
  2  3  2  0
  2  4  1  0
  4  5  1  0
  5  6  2  0
  6  7  1  0
  7  8  2  0
  8  9  1  0
  9 10  1  0
 10 11  1  0
 11 12  1  0
 12 13  1  0
 13 14  1  0
 14 15  1  0
 15 16  1  0
 16 17  1  0
 11 18  2  0
 18 19  1  0
 19 20  2  0
 20 21  1  0
 21 22  2  0
 22 23  1  0
 23 24  2  0
  8 25  1  0
 25 26  2  0
  2 27  1  0
 27 28  2  0
 28 29  1  0
 29 30  2  0
 30 31  1  0
 31 32  2  0
 32 33  1  0
 33 34  2  0
 34 35  1  0
 35 36  2  0
 26  5  1  0
 36 27  1  0
 24 10  1  0
 35 30  1  0
 17 12  1  0
 24 19  1  0
  4 37  1  0
  6 38  1  0
  7 39  1  0
  9 40  1  0
  9 41  1  0
 12 42  1  0
 13 43  1  0
 13 44  1  0
 14 45  1  0
 14 46  1  0
 15 47  1  0
 16 48  1  0
 16 49  1  0
 17 50  1  0
 17 51  1  0
 20 52  1  0
 21 53  1  0
 22 54  1  0
 23 55  1  0
 25 56  1  0
 26 57  1  0
 28 58  1  0
 29 59  1  0
 31 60  1  0
 32 61  1  0
 33 62  1  0
 34 63  1  0
 36 64  1  0
M  END
>  <UniqueID>  (49) 
48

>  <SMILES>  (49) 
O=S(=O)(Nc1ccc(Cn2c(C3CCNCC3)nc3ccccc32)cc1)c1ccc2ccccc2c1

>  <Energy>  (49) 
120.50102676931519

>  <Genealogy>  (49) 
O=S(=O)(Nc1ccc(Cn2c(C3CCNCC3)nc3ccccc32)cc1)c1ccc2ccccc2c1 (3D coordinates assigned)
O=S(=O)(Nc1ccc(Cn2c(C3CCNCC3)nc3ccccc32)cc1)c1ccc2ccccc2c1 (nonaromatic ring conformer: 120.50102676931519 kcal/mol)

>  <smiles>  (49) 
O=S(=O)(Nc1ccc(Cn2c(C3CCNCC3)nc3ccccc32)cc1)c1ccc2ccccc2c1

>  <score_type>  (49) 
oracle

>  <origin>  (49) 
adg

>  <m_score__min__energy>  (49) 
-11.48

>  <m_primary>  (49) 
energy

$$$$
49:0
     RDKit          3D

 43 45  0  0  0  0  0  0  0  0999 V2000
   54.7830   26.1230   45.9870 N   0  0  0  0  0  0  0  0  0  0  0  0
   56.3450   25.4650   46.3260 S   0  0  0  0  0  0  0  0  0  0  0  0
   56.7570   24.5480   45.2100 O   0  0  0  0  0  0  0  0  0  0  0  0
   56.2730   24.6870   47.6100 O   0  0  0  0  0  0  0  0  0  0  0  0
   57.5160   26.7700   46.4760 C   0  0  0  0  0  0  0  0  0  0  0  0
   58.6680   26.6060   47.2560 C   0  0  0  0  0  0  0  0  0  0  0  0
   59.5760   27.6590   47.4000 C   0  0  0  0  0  0  0  0  0  0  0  0
   59.3340   28.8980   46.7810 C   0  0  0  0  0  0  0  0  0  0  0  0
   60.2300   30.0620   46.9950 C   0  0  0  0  0  0  0  0  0  0  0  0
   60.9660   30.0860   48.0160 O   0  0  0  0  0  0  0  0  0  0  0  0
   60.2830   31.1810   46.0940 N   0  0  0  0  0  0  0  0  0  0  0  0
   59.2750   32.1820   45.8780 C   0  0  0  0  0  0  0  0  0  0  0  0
   58.1770   31.8380   45.0780 C   0  0  0  0  0  0  0  0  0  0  0  0
   57.1980   32.7840   44.7700 C   0  0  0  0  0  0  0  0  0  0  0  0
   57.3000   34.0820   45.2690 C   0  0  0  0  0  0  0  0  0  0  0  0
   56.3470   35.0000   44.9670 F   0  0  0  0  0  0  0  0  0  0  0  0
   58.3680   34.4320   46.0970 C   0  0  0  0  0  0  0  0  0  0  0  0
   59.3560   33.4870   46.4270 C   0  0  0  0  0  0  0  0  0  0  0  0
   60.4060   33.8720   47.3900 C   0  0  0  0  0  0  0  0  0  0  0  0
   60.3910   35.0320   47.8820 O   0  0  0  0  0  0  0  0  0  0  0  0
   61.4540   32.9410   47.7190 N   0  0  0  0  0  0  0  0  0  0  0  0
   62.4900   33.1460   48.6990 C   0  0  0  0  0  0  0  0  0  0  0  0
   63.7710   32.6300   48.4460 C   0  0  0  0  0  0  0  0  0  0  0  0
   64.7930   32.7610   49.3910 C   0  0  0  0  0  0  0  0  0  0  0  0
   64.5420   33.4010   50.6090 C   0  0  0  0  0  0  0  0  0  0  0  0
   65.8210   33.5570   51.7980 Cl  0  0  0  0  0  0  0  0  0  0  0  0
   63.2670   33.9030   50.8810 C   0  0  0  0  0  0  0  0  0  0  0  0
   62.2440   33.7740   49.9360 C   0  0  0  0  0  0  0  0  0  0  0  0
   58.2100   29.0310   45.9460 C   0  0  0  0  0  0  0  0  0  0  0  0
   57.3030   27.9780   45.8040 C   0  0  0  0  0  0  0  0  0  0  0  0
   54.7600   27.0820   46.3990 H   0  0  0  0  0  0  0  0  0  0  0  0
   58.8587   25.6454   47.7568 H   0  0  0  0  0  0  0  0  0  0  0  0
   60.4859   27.5173   48.0016 H   0  0  0  0  0  0  0  0  0  0  0  0
   58.0858   30.8130   44.6892 H   0  0  0  0  0  0  0  0  0  0  0  0
   56.3455   32.5054   44.1332 H   0  0  0  0  0  0  0  0  0  0  0  0
   58.4374   35.4553   46.4946 H   0  0  0  0  0  0  0  0  0  0  0  0
   61.4810   32.0440   47.1820 H   0  0  0  0  0  0  0  0  0  0  0  0
   63.9727   32.1171   47.4940 H   0  0  0  0  0  0  0  0  0  0  0  0
   65.7948   32.3606   49.1765 H   0  0  0  0  0  0  0  0  0  0  0  0
   63.0671   34.4012   51.8411 H   0  0  0  0  0  0  0  0  0  0  0  0
   61.2407   34.1654   50.1600 H   0  0  0  0  0  0  0  0  0  0  0  0
   58.0438   29.9716   45.4004 H   0  0  0  0  0  0  0  0  0  0  0  0
   56.4184   28.0993   45.1616 H   0  0  0  0  0  0  0  0  0  0  0  0
  1  2  1  0
  2  3  2  0
  2  4  2  0
  2  5  1  0
  5  6  2  0
  6  7  1  0
  7  8  2  0
  8  9  1  0
  9 10  2  0
  9 11  1  0
 11 12  1  0
 12 13  2  0
 13 14  1  0
 14 15  2  0
 15 16  1  0
 15 17  1  0
 17 18  2  0
 18 19  1  0
 19 20  2  0
 19 21  1  0
 21 22  1  0
 22 23  2  0
 23 24  1  0
 24 25  2  0
 25 26  1  0
 25 27  1  0
 27 28  2  0
  8 29  1  0
 29 30  2  0
 30  5  1  0
 18 12  1  0
 28 22  1  0
  1 31  1  0
  6 32  1  0
  7 33  1  0
 13 34  1  0
 14 35  1  0
 17 36  1  0
 21 37  1  0
 23 38  1  0
 24 39  1  0
 27 40  1  0
 28 41  1  0
 29 42  1  0
 30 43  1  0
M  CHG  2   1  -1  11  -1
M  END
>  <UniqueID>  (50) 
49

>  <SMILES>  (50) 
[NH-]S(=O)(=O)c1ccc(C(=O)[N-]c2ccc(F)cc2C(=O)Nc2ccc(Cl)cc2)cc1

>  <Energy>  (50) 
59.786480859919244

>  <Genealogy>  (50) 
[NH-]S(=O)(=O)c1ccc(C(=O)[N-]c2ccc(F)cc2C(=O)Nc2ccc(Cl)cc2)cc1 (protonated)
[NH-]S(=O)(=O)c1ccc(C(=O)[N-]c2ccc(F)cc2C(=O)Nc2ccc(Cl)cc2)cc1 (3D coordinates assigned)
[NH-]S(=O)(=O)c1ccc(C(=O)[N-]c2ccc(F)cc2C(=O)Nc2ccc(Cl)cc2)cc1 (optimized conformer: 59.786480859919244 kcal/mol)

>  <smiles>  (50) 
NS(=O)(=O)c1ccc(C(=O)Nc2ccc(F)cc2C(=O)Nc2ccc(Cl)cc2)cc1

>  <score_type>  (50) 
oracle

>  <origin>  (50) 
adg

>  <m_score__min__energy>  (50) 
-12.43

>  <m_primary>  (50) 
energy

$$$$
50:0
     RDKit          3D

 60 64  0  0  0  0  0  0  0  0999 V2000
   64.3128   33.6046   46.6737 H   0  0  0  0  0  0  0  0  0  0  0  0
   63.2530   33.3600   46.8380 C   0  0  0  0  0  0  0  0  0  0  0  0
   62.2850   34.1990   46.3880 N   0  0  0  0  0  0  0  0  0  0  0  0
   60.9700   33.9230   46.5880 C   0  0  0  0  0  0  0  0  0  0  0  0
   60.0730   34.7470   46.1340 N   0  0  0  0  0  0  0  0  0  0  0  0
   59.3880   34.6340   44.8440 C   0  0  0  0  0  0  0  0  0  0  0  0
   60.1468   34.6345   44.0476 H   0  0  0  0  0  0  0  0  0  0  0  0
   58.6997   35.4890   44.7717 H   0  0  0  0  0  0  0  0  0  0  0  0
   58.5500   33.3820   44.7030 C   0  0  0  0  0  0  0  0  0  0  0  0
   58.2050   32.5690   45.7980 C   0  0  0  0  0  0  0  0  0  0  0  0
   58.5558   32.8327   46.8067 H   0  0  0  0  0  0  0  0  0  0  0  0
   57.4190   31.4280   45.6120 C   0  0  0  0  0  0  0  0  0  0  0  0
   57.1298   30.8187   46.4810 H   0  0  0  0  0  0  0  0  0  0  0  0
   56.9940   31.0510   44.3250 C   0  0  0  0  0  0  0  0  0  0  0  0
   56.1650   29.8330   44.1430 C   0  0  0  0  0  0  0  0  0  0  0  0
   55.4810   29.7080   43.0930 O   0  0  0  0  0  0  0  0  0  0  0  0
   56.0610   28.8090   45.1450 N   0  0  0  0  0  0  0  0  0  0  0  0
   57.0440   27.8200   45.4820 C   0  0  0  0  0  0  0  0  0  0  0  0
   58.3820   27.9340   45.0670 C   0  0  0  0  0  0  0  0  0  0  0  0
   58.6963   28.7936   44.4568 H   0  0  0  0  0  0  0  0  0  0  0  0
   59.3130   26.9580   45.4280 C   0  0  0  0  0  0  0  0  0  0  0  0
   60.3644   27.0646   45.1228 H   0  0  0  0  0  0  0  0  0  0  0  0
   58.9150   25.8470   46.1750 C   0  0  0  0  0  0  0  0  0  0  0  0
   59.6555   25.0837   46.4561 H   0  0  0  0  0  0  0  0  0  0  0  0
   57.5740   25.6980   46.5700 C   0  0  0  0  0  0  0  0  0  0  0  0
   57.1460   24.5160   47.3550 C   0  0  0  0  0  0  0  0  0  0  0  0
   57.3950   24.4580   48.5900 O   0  0  0  0  0  0  0  0  0  0  0  0
   56.4040   23.4650   46.7210 N   0  0  0  0  0  0  0  0  0  0  0  0
   56.4750   23.0720   45.3430 C   0  0  0  0  0  0  0  0  0  0  0  0
   57.2790   21.9780   44.9970 C   0  0  0  0  0  0  0  0  0  0  0  0
   57.8544   21.4553   45.7752 H   0  0  0  0  0  0  0  0  0  0  0  0
   57.3550   21.5460   43.6690 C   0  0  0  0  0  0  0  0  0  0  0  0
   57.9958   20.6920   43.4044 H   0  0  0  0  0  0  0  0  0  0  0  0
   56.6170   22.1990   42.6780 C   0  0  0  0  0  0  0  0  0  0  0  0
   56.6842   21.8650   41.6321 H   0  0  0  0  0  0  0  0  0  0  0  0
   55.7940   23.2760   43.0160 C   0  0  0  0  0  0  0  0  0  0  0  0
   55.2069   23.7839   42.2367 H   0  0  0  0  0  0  0  0  0  0  0  0
   55.7150   23.7100   44.3440 C   0  0  0  0  0  0  0  0  0  0  0  0
   55.0577   24.5515   44.6081 H   0  0  0  0  0  0  0  0  0  0  0  0
   56.6450   26.6940   46.2120 C   0  0  0  0  0  0  0  0  0  0  0  0
   55.5917   26.5858   46.5100 H   0  0  0  0  0  0  0  0  0  0  0  0
   57.4110   31.8200   43.2250 C   0  0  0  0  0  0  0  0  0  0  0  0
   57.1424   31.5052   42.2058 H   0  0  0  0  0  0  0  0  0  0  0  0
   58.1640   32.9810   43.4160 C   0  0  0  0  0  0  0  0  0  0  0  0
   58.4576   33.5877   42.5467 H   0  0  0  0  0  0  0  0  0  0  0  0
   60.6120   32.7820   47.2410 N   0  0  0  0  0  0  0  0  0  0  0  0
   61.5440   31.9040   47.7010 C   0  0  0  0  0  0  0  0  0  0  0  0
   61.1080   30.6390   48.3350 C   0  0  0  0  0  0  0  0  0  0  0  0
   61.5290   30.2950   49.6340 C   0  0  0  0  0  0  0  0  0  0  0  0
   62.1689   30.9858   50.2026 H   0  0  0  0  0  0  0  0  0  0  0  0
   61.1380   29.0800   50.2050 C   0  0  0  0  0  0  0  0  0  0  0  0
   61.4656   28.8207   51.2226 H   0  0  0  0  0  0  0  0  0  0  0  0
   60.3320   28.1950   49.4850 C   0  0  0  0  0  0  0  0  0  0  0  0
   60.0321   27.2359   49.9324 H   0  0  0  0  0  0  0  0  0  0  0  0
   59.9070   28.5280   48.1970 C   0  0  0  0  0  0  0  0  0  0  0  0
   59.2772   27.8275   47.6291 H   0  0  0  0  0  0  0  0  0  0  0  0
   60.2800   29.7500   47.6270 C   0  0  0  0  0  0  0  0  0  0  0  0
   59.9241   30.0164   46.6209 H   0  0  0  0  0  0  0  0  0  0  0  0
   62.9040   32.1890   47.5080 C   0  0  0  0  0  0  0  0  0  0  0  0
   63.6793   31.5020   47.8781 H   0  0  0  0  0  0  0  0  0  0  0  0
  1  2  1  0
  2  3  1  0
  3  4  1  0
  4  5  2  0
  5  6  1  0
  6  7  1  0
  6  8  1  0
  6  9  1  0
  9 10  2  0
 10 11  1  0
 10 12  1  0
 12 13  1  0
 12 14  2  0
 14 15  1  0
 15 16  2  0
 15 17  1  0
 17 18  1  0
 18 19  2  0
 19 20  1  0
 19 21  1  0
 21 22  1  0
 21 23  2  0
 23 24  1  0
 23 25  1  0
 25 26  1  0
 26 27  2  0
 26 28  1  0
 28 29  1  0
 29 30  2  0
 30 31  1  0
 30 32  1  0
 32 33  1  0
 32 34  2  0
 34 35  1  0
 34 36  1  0
 36 37  1  0
 36 38  2  0
 38 39  1  0
 25 40  2  0
 40 41  1  0
 14 42  1  0
 42 43  1  0
 42 44  2  0
 44 45  1  0
  4 46  1  0
 46 47  2  0
 47 48  1  0
 48 49  2  0
 49 50  1  0
 49 51  1  0
 51 52  1  0
 51 53  2  0
 53 54  1  0
 53 55  1  0
 55 56  1  0
 55 57  2  0
 57 58  1  0
 47 59  1  0
 59 60  1  0
 59  2  2  0
 44  9  1  0
 57 48  1  0
 40 18  1  0
 38 29  1  0
M  CHG  3   3  -1  17  -1  28  -1
M  END
>  <UniqueID>  (51) 
50

>  <SMILES>  (51) 
O=C([N-]c1cccc(C(=O)[N-]c2ccccc2)c1)c1ccc(C/N=c2\nc(-c3ccccc3)cc[n-]2)cc1

>  <Energy>  (51) 
83.05292930087512

>  <Genealogy>  (51) 
O=C([N-]c1cccc(C(=O)[N-]c2ccccc2)c1)c1ccc(CN=c2nc(-c3ccccc3)cc[n-]2)cc1 (protonated)
O=C([N-]c1cccc(C(=O)[N-]c2ccccc2)c1)c1ccc(C/N=c2\nc(-c3ccccc3)cc[n-]2)cc1 (cis-trans isomerization)
O=C([N-]c1cccc(C(=O)[N-]c2ccccc2)c1)c1ccc(C/N=c2\nc(-c3ccccc3)cc[n-]2)cc1 (3D coordinates assigned)
O=C([N-]c1cccc(C(=O)[N-]c2ccccc2)c1)c1ccc(C/N=c2\nc(-c3ccccc3)cc[n-]2)cc1 (optimized conformer: 83.05292930087512 kcal/mol)

>  <smiles>  (51) 
O=C(Nc1cccc(C(=O)Nc2ccccc2)c1)c1ccc(CN=c2nc(-c3ccccc3)cc[nH]2)cc1

>  <score_type>  (51) 
oracle

>  <origin>  (51) 
adg

>  <m_score__min__energy>  (51) 
-14.210000000000001

>  <m_primary>  (51) 
energy

$$$$
51:0
     RDKit          3D

 43 45  0  0  0  0  0  0  0  0999 V2000
   60.9850   34.5300   48.5070 O   0  0  0  0  0  0  0  0  0  0  0  0
   61.1590   33.6560   47.6150 C   0  0  0  0  0  0  0  0  0  0  0  0
   62.4860   33.1770   47.3390 N   0  0  0  0  0  0  0  0  0  0  0  0
   63.6740   33.7650   47.9550 C   0  0  0  0  0  0  0  0  0  0  0  0
   64.1610   32.9030   49.0880 C   0  0  0  0  0  0  0  0  0  0  0  0
   65.4540   33.0870   49.6050 C   0  0  0  0  0  0  0  0  0  0  0  0
   65.9140   32.2810   50.6500 C   0  0  0  0  0  0  0  0  0  0  0  0
   65.0880   31.2870   51.1850 C   0  0  0  0  0  0  0  0  0  0  0  0
   63.8010   31.0960   50.6740 C   0  0  0  0  0  0  0  0  0  0  0  0
   63.3370   31.8990   49.6290 C   0  0  0  0  0  0  0  0  0  0  0  0
   59.9870   33.1270   46.8790 C   0  0  0  0  0  0  0  0  0  0  0  0
   59.5740   33.7380   45.6830 C   0  0  0  0  0  0  0  0  0  0  0  0
   58.4740   33.2450   44.9750 C   0  0  0  0  0  0  0  0  0  0  0  0
   57.7740   32.1210   45.4470 C   0  0  0  0  0  0  0  0  0  0  0  0
   56.6430   31.5780   44.7510 N   0  0  0  0  0  0  0  0  0  0  0  0
   56.4600   29.9190   44.2830 S   0  0  0  0  0  0  0  0  0  0  0  0
   55.1890   29.3770   44.8740 O   0  0  0  0  0  0  0  0  0  0  0  0
   56.3700   29.8340   42.7840 O   0  0  0  0  0  0  0  0  0  0  0  0
   57.8170   28.9750   44.8910 C   0  0  0  0  0  0  0  0  0  0  0  0
   59.1280   29.2630   44.4830 C   0  0  0  0  0  0  0  0  0  0  0  0
   60.1970   28.5100   44.9850 C   0  0  0  0  0  0  0  0  0  0  0  0
   59.9610   27.4720   45.8900 C   0  0  0  0  0  0  0  0  0  0  0  0
   60.9990   26.7440   46.3740 F   0  0  0  0  0  0  0  0  0  0  0  0
   58.6560   27.1840   46.2990 C   0  0  0  0  0  0  0  0  0  0  0  0
   57.5850   27.9340   45.8000 C   0  0  0  0  0  0  0  0  0  0  0  0
   58.1910   31.5050   46.6320 C   0  0  0  0  0  0  0  0  0  0  0  0
   59.2880   31.9990   47.3420 C   0  0  0  0  0  0  0  0  0  0  0  0
   62.6200   32.3540   46.7100 H   0  0  0  0  0  0  0  0  0  0  0  0
   64.4683   33.8522   47.1991 H   0  0  0  0  0  0  0  0  0  0  0  0
   63.4155   34.7588   48.3495 H   0  0  0  0  0  0  0  0  0  0  0  0
   66.1063   33.8675   49.1863 H   0  0  0  0  0  0  0  0  0  0  0  0
   66.9271   32.4285   51.0523 H   0  0  0  0  0  0  0  0  0  0  0  0
   65.4515   30.6550   52.0087 H   0  0  0  0  0  0  0  0  0  0  0  0
   63.1531   30.3130   51.0949 H   0  0  0  0  0  0  0  0  0  0  0  0
   62.3242   31.7458   49.2279 H   0  0  0  0  0  0  0  0  0  0  0  0
   60.1212   34.6122   45.3003 H   0  0  0  0  0  0  0  0  0  0  0  0
   58.1550   33.7385   44.0451 H   0  0  0  0  0  0  0  0  0  0  0  0
   59.3161   30.0791   43.7698 H   0  0  0  0  0  0  0  0  0  0  0  0
   61.2251   28.7364   44.6659 H   0  0  0  0  0  0  0  0  0  0  0  0
   58.4707   26.3680   47.0130 H   0  0  0  0  0  0  0  0  0  0  0  0
   56.5583   27.7057   46.1222 H   0  0  0  0  0  0  0  0  0  0  0  0
   57.6503   30.6239   47.0079 H   0  0  0  0  0  0  0  0  0  0  0  0
   59.6069   31.5017   48.2699 H   0  0  0  0  0  0  0  0  0  0  0  0
  1  2  2  0
  2  3  1  0
  3  4  1  0
  4  5  1  0
  5  6  2  0
  6  7  1  0
  7  8  2  0
  8  9  1  0
  9 10  2  0
  2 11  1  0
 11 12  2  0
 12 13  1  0
 13 14  2  0
 14 15  1  0
 15 16  1  0
 16 17  2  0
 16 18  2  0
 16 19  1  0
 19 20  2  0
 20 21  1  0
 21 22  2  0
 22 23  1  0
 22 24  1  0
 24 25  2  0
 14 26  1  0
 26 27  2  0
 10  5  1  0
 27 11  1  0
 25 19  1  0
  3 28  1  0
  4 29  1  0
  4 30  1  0
  6 31  1  0
  7 32  1  0
  8 33  1  0
  9 34  1  0
 10 35  1  0
 12 36  1  0
 13 37  1  0
 20 38  1  0
 21 39  1  0
 24 40  1  0
 25 41  1  0
 26 42  1  0
 27 43  1  0
M  CHG  1  15  -1
M  END
>  <UniqueID>  (52) 
51

>  <SMILES>  (52) 
O=C(NCc1ccccc1)c1ccc([N-]S(=O)(=O)c2ccc(F)cc2)cc1

>  <Energy>  (52) 
49.16824932431167

>  <Genealogy>  (52) 
O=C(NCc1ccccc1)c1ccc([N-]S(=O)(=O)c2ccc(F)cc2)cc1 (protonated)
O=C(NCc1ccccc1)c1ccc([N-]S(=O)(=O)c2ccc(F)cc2)cc1 (3D coordinates assigned)
O=C(NCc1ccccc1)c1ccc([N-]S(=O)(=O)c2ccc(F)cc2)cc1 (optimized conformer: 49.16824932431167 kcal/mol)

>  <smiles>  (52) 
O=C(NCc1ccccc1)c1ccc(NS(=O)(=O)c2ccc(F)cc2)cc1

>  <score_type>  (52) 
oracle

>  <origin>  (52) 
adg

>  <m_score__min__energy>  (52) 
-9.9399999999999995

>  <m_primary>  (52) 
energy

$$$$
52:0
     RDKit          3D

 45 46  0  0  0  0  0  0  0  0999 V2000
   56.8450   29.4710   52.6430 C   0  0  0  0  0  0  0  0  0  0  0  0
   57.0450   30.4700   51.5860 N   0  0  0  0  0  0  0  0  0  0  0  0
   56.7050   31.8100   52.0840 C   0  0  0  0  0  0  0  0  0  0  0  0
   58.7070   30.4400   51.0490 S   0  0  0  0  0  0  0  0  0  0  0  0
   59.6190   30.4730   52.2440 O   0  0  0  0  0  0  0  0  0  0  0  0
   58.9680   29.1630   50.3000 O   0  0  0  0  0  0  0  0  0  0  0  0
   59.0750   31.8130   50.0010 C   0  0  0  0  0  0  0  0  0  0  0  0
   59.4900   33.0310   50.5540 C   0  0  0  0  0  0  0  0  0  0  0  0
   59.7590   34.1220   49.7260 C   0  0  0  0  0  0  0  0  0  0  0  0
   59.6230   34.0030   48.3410 C   0  0  0  0  0  0  0  0  0  0  0  0
   59.2280   32.7800   47.7690 C   0  0  0  0  0  0  0  0  0  0  0  0
   59.0470   32.6400   46.3500 N   0  0  0  0  0  0  0  0  0  0  0  0
   58.3070   33.5670   45.5430 C   0  0  0  0  0  0  0  0  0  0  0  0
   58.1450   34.7590   45.9220 O   0  0  0  0  0  0  0  0  0  0  0  0
   57.7780   33.1440   44.2060 C   0  0  0  0  0  0  0  0  0  0  0  0
   58.3440   31.8930   43.8110 O   0  0  0  0  0  0  0  0  0  0  0  0
   57.9370   30.6350   44.2860 C   0  0  0  0  0  0  0  0  0  0  0  0
   56.5840   30.2490   44.3530 C   0  0  0  0  0  0  0  0  0  0  0  0
   56.2340   28.9900   44.8510 C   0  0  0  0  0  0  0  0  0  0  0  0
   57.2260   28.1010   45.2830 C   0  0  0  0  0  0  0  0  0  0  0  0
   56.7820   26.5120   45.8960 S   0  0  0  0  0  0  0  0  0  0  0  0
   55.0610   26.3870   45.9840 N   0  0  0  0  0  0  0  0  0  0  0  0
   57.3710   26.3100   47.2640 O   0  0  0  0  0  0  0  0  0  0  0  0
   57.3130   25.4440   44.9810 O   0  0  0  0  0  0  0  0  0  0  0  0
   58.5730   28.4760   45.2020 C   0  0  0  0  0  0  0  0  0  0  0  0
   58.9240   29.7350   44.7070 C   0  0  0  0  0  0  0  0  0  0  0  0
   58.9390   31.6950   48.6100 C   0  0  0  0  0  0  0  0  0  0  0  0
   56.9416   29.9537   53.6267 H   0  0  0  0  0  0  0  0  0  0  0  0
   55.8411   29.0317   52.5471 H   0  0  0  0  0  0  0  0  0  0  0  0
   57.6024   28.6791   52.5471 H   0  0  0  0  0  0  0  0  0  0  0  0
   56.7066   31.8037   53.1840 H   0  0  0  0  0  0  0  0  0  0  0  0
   57.4475   32.5356   51.7204 H   0  0  0  0  0  0  0  0  0  0  0  0
   55.7064   32.0938   51.7204 H   0  0  0  0  0  0  0  0  0  0  0  0
   59.6043   33.1281   51.6437 H   0  0  0  0  0  0  0  0  0  0  0  0
   60.0790   35.0783   50.1655 H   0  0  0  0  0  0  0  0  0  0  0  0
   59.8257   34.8696   47.6945 H   0  0  0  0  0  0  0  0  0  0  0  0
   59.4960   31.8270   45.8710 H   0  0  0  0  0  0  0  0  0  0  0  0
   56.6844   33.0424   44.2662 H   0  0  0  0  0  0  0  0  0  0  0  0
   58.0504   33.9061   43.4610 H   0  0  0  0  0  0  0  0  0  0  0  0
   55.7995   30.9407   44.0122 H   0  0  0  0  0  0  0  0  0  0  0  0
   55.1751   28.6968   44.9036 H   0  0  0  0  0  0  0  0  0  0  0  0
   54.7390   27.0980   46.6780 H   0  0  0  0  0  0  0  0  0  0  0  0
   59.3572   27.7774   45.5290 H   0  0  0  0  0  0  0  0  0  0  0  0
   59.9844   30.0214   44.6476 H   0  0  0  0  0  0  0  0  0  0  0  0
   58.6025   30.7426   48.1744 H   0  0  0  0  0  0  0  0  0  0  0  0
  1  2  1  0
  2  3  1  0
  2  4  1  0
  4  5  2  0
  4  6  2  0
  4  7  1  0
  7  8  2  0
  8  9  1  0
  9 10  2  0
 10 11  1  0
 11 12  1  0
 12 13  1  0
 13 14  2  0
 13 15  1  0
 15 16  1  0
 16 17  1  0
 17 18  2  0
 18 19  1  0
 19 20  2  0
 20 21  1  0
 21 22  1  0
 21 23  2  0
 21 24  2  0
 20 25  1  0
 25 26  2  0
 11 27  2  0
 27  7  1  0
 26 17  1  0
  1 28  1  0
  1 29  1  0
  1 30  1  0
  3 31  1  0
  3 32  1  0
  3 33  1  0
  8 34  1  0
  9 35  1  0
 10 36  1  0
 12 37  1  0
 15 38  1  0
 15 39  1  0
 18 40  1  0
 19 41  1  0
 22 42  1  0
 25 43  1  0
 26 44  1  0
 27 45  1  0
M  CHG  1  22  -1
M  END
>  <UniqueID>  (53) 
52

>  <SMILES>  (53) 
CN(C)S(=O)(=O)c1cccc(NC(=O)COc2ccc(S([NH-])(=O)=O)cc2)c1

>  <Energy>  (53) 
44.02701866618654

>  <Genealogy>  (53) 
CN(C)S(=O)(=O)c1cccc(NC(=O)COc2ccc(S([NH-])(=O)=O)cc2)c1 (protonated)
CN(C)S(=O)(=O)c1cccc(NC(=O)COc2ccc(S([NH-])(=O)=O)cc2)c1 (3D coordinates assigned)
CN(C)S(=O)(=O)c1cccc(NC(=O)COc2ccc(S([NH-])(=O)=O)cc2)c1 (optimized conformer: 44.02701866618654 kcal/mol)

>  <smiles>  (53) 
CN(C)S(=O)(=O)c1cccc(NC(=O)COc2ccc(S(N)(=O)=O)cc2)c1

>  <score_type>  (53) 
oracle

>  <origin>  (53) 
adg

>  <m_score__min__energy>  (53) 
-11.09

>  <m_primary>  (53) 
energy

$$$$
53:0
     RDKit          3D

 33 35  0  0  0  0  0  0  0  0999 V2000
   59.9130   35.4040   45.9020 O   0  0  0  0  0  0  0  0  0  0  0  0
   60.0620   34.3000   46.4940 C   0  0  0  0  0  0  0  0  0  0  0  0
   61.3420   34.0160   47.1860 C   0  0  0  0  0  0  0  0  0  0  0  0
   62.4690   33.6090   46.4490 C   0  0  0  0  0  0  0  0  0  0  0  0
   63.6770   33.3330   47.0990 C   0  0  0  0  0  0  0  0  0  0  0  0
   63.7740   33.4700   48.4850 C   0  0  0  0  0  0  0  0  0  0  0  0
   62.6650   33.8880   49.2250 C   0  0  0  0  0  0  0  0  0  0  0  0
   61.4550   34.1640   48.5810 C   0  0  0  0  0  0  0  0  0  0  0  0
   58.9810   33.3430   46.4830 N   0  0  0  0  0  0  0  0  0  0  0  0
   57.8830   33.4770   45.5570 C   0  0  0  0  0  0  0  0  0  0  0  0
   57.3010   34.5900   45.4450 O   0  0  0  0  0  0  0  0  0  0  0  0
   57.4280   32.3420   44.7280 C   0  0  0  0  0  0  0  0  0  0  0  0
   57.7500   32.2120   43.3750 C   0  0  0  0  0  0  0  0  0  0  0  0
   57.0180   30.7880   42.9110 S   0  0  0  0  0  0  0  0  0  0  0  0
   56.3440   30.3730   44.3680 N   0  0  0  0  0  0  0  0  0  0  0  0
   56.6670   31.3230   45.2390 N   0  0  0  0  0  0  0  0  0  0  0  0
   59.0040   32.2390   47.4130 C   0  0  0  0  0  0  0  0  0  0  0  0
   59.4580   30.9710   47.0070 C   0  0  0  0  0  0  0  0  0  0  0  0
   59.4780   29.9030   47.9100 C   0  0  0  0  0  0  0  0  0  0  0  0
   59.0450   30.0910   49.2250 C   0  0  0  0  0  0  0  0  0  0  0  0
   58.5910   31.3450   49.6390 C   0  0  0  0  0  0  0  0  0  0  0  0
   58.5690   32.4160   48.7400 C   0  0  0  0  0  0  0  0  0  0  0  0
   62.4002   33.5072   45.3559 H   0  0  0  0  0  0  0  0  0  0  0  0
   64.5518   33.0075   46.5169 H   0  0  0  0  0  0  0  0  0  0  0  0
   64.7235   33.2489   48.9944 H   0  0  0  0  0  0  0  0  0  0  0  0
   62.7440   34.0002   50.3164 H   0  0  0  0  0  0  0  0  0  0  0  0
   60.5868   34.4986   49.1678 H   0  0  0  0  0  0  0  0  0  0  0  0
   58.3506   32.8947   42.7559 H   0  0  0  0  0  0  0  0  0  0  0  0
   59.7995   30.8184   45.9726 H   0  0  0  0  0  0  0  0  0  0  0  0
   59.8348   28.9146   47.5847 H   0  0  0  0  0  0  0  0  0  0  0  0
   59.0617   29.2507   49.9346 H   0  0  0  0  0  0  0  0  0  0  0  0
   58.2499   31.4907   50.6746 H   0  0  0  0  0  0  0  0  0  0  0  0
   58.2100   33.4015   49.0715 H   0  0  0  0  0  0  0  0  0  0  0  0
  1  2  2  0
  2  3  1  0
  3  4  2  0
  4  5  1  0
  5  6  2  0
  6  7  1  0
  7  8  2  0
  2  9  1  0
  9 10  1  0
 10 11  2  0
 10 12  1  0
 12 13  2  0
 13 14  1  0
 14 15  1  0
 15 16  2  0
  9 17  1  0
 17 18  2  0
 18 19  1  0
 19 20  2  0
 20 21  1  0
 21 22  2  0
  8  3  1  0
 16 12  1  0
 22 17  1  0
  4 23  1  0
  5 24  1  0
  6 25  1  0
  7 26  1  0
  8 27  1  0
 13 28  1  0
 18 29  1  0
 19 30  1  0
 20 31  1  0
 21 32  1  0
 22 33  1  0
M  END
>  <UniqueID>  (54) 
53

>  <SMILES>  (54) 
O=C(c1ccccc1)N(C(=O)c1csnn1)c1ccccc1

>  <Energy>  (54) 
84.69296006893998

>  <Genealogy>  (54) 
O=C(c1ccccc1)N(C(=O)c1csnn1)c1ccccc1 (3D coordinates assigned)
O=C(c1ccccc1)N(C(=O)c1csnn1)c1ccccc1 (optimized conformer: 84.69296006893998 kcal/mol)

>  <smiles>  (54) 
O=C(c1ccccc1)N(C(=O)c1csnn1)c1ccccc1

>  <score_type>  (54) 
oracle

>  <origin>  (54) 
adg

>  <m_score__min__energy>  (54) 
-8.2899999999999991

>  <m_primary>  (54) 
energy

$$$$
54:0
     RDKit          3D

 15 15  0  0  0  0  0  0  0  0999 V2000
   58.2300   32.7100   47.5320 C   0  0  0  0  0  0  0  0  0  0  0  0
   58.1190   32.6080   46.0720 N   0  0  0  0  0  0  0  0  0  0  0  0
   57.4550   31.5770   45.5280 N   0  0  0  0  0  0  0  0  0  0  0  0
   57.3240   31.4380   44.1790 C   0  0  0  0  0  0  0  0  0  0  0  0
   56.4400   30.0600   43.5350 Cl  0  0  0  0  0  0  0  0  0  0  0  0
   57.8940   32.3920   43.3310 C   0  0  0  0  0  0  0  0  0  0  0  0
   57.7590   32.2680   41.5810 Cl  0  0  0  0  0  0  0  0  0  0  0  0
   58.5830   33.4630   43.8890 C   0  0  0  0  0  0  0  0  0  0  0  0
   58.6910   33.5630   45.2750 C   0  0  0  0  0  0  0  0  0  0  0  0
   59.3160   34.5360   45.7790 O   0  0  0  0  0  0  0  0  0  0  0  0
   57.4981   32.0375   48.0032 H   0  0  0  0  0  0  0  0  0  0  0  0
   59.2452   32.4231   47.8435 H   0  0  0  0  0  0  0  0  0  0  0  0
   58.0298   33.7458   47.8435 H   0  0  0  0  0  0  0  0  0  0  0  0
   57.0200   30.8510   46.1410 H   0  0  0  0  0  0  0  0  0  0  0  0
   59.0396   34.2259   43.2413 H   0  0  0  0  0  0  0  0  0  0  0  0
  1  2  1  0
  2  3  1  0
  3  4  2  0
  4  5  1  0
  4  6  1  0
  6  7  1  0
  6  8  2  0
  8  9  1  0
  9 10  2  0
  9  2  1  0
  1 11  1  0
  1 12  1  0
  1 13  1  0
  3 14  1  0
  8 15  1  0
M  CHG  1   3   1
M  END
>  <UniqueID>  (55) 
54

>  <SMILES>  (55) 
Cn1[nH+]c(Cl)c(Cl)cc1=O

>  <Energy>  (55) 
15.731924080440423

>  <Genealogy>  (55) 
Cn1[nH+]c(Cl)c(Cl)cc1=O (protonated)
Cn1[nH+]c(Cl)c(Cl)cc1=O (3D coordinates assigned)
Cn1[nH+]c(Cl)c(Cl)cc1=O (optimized conformer: 15.731924080440423 kcal/mol)

>  <smiles>  (55) 
Cn1nc(Cl)c(Cl)cc1=O

>  <score_type>  (55) 
oracle

>  <origin>  (55) 
adg

>  <m_score__min__energy>  (55) 
-3.5299999999999998

>  <m_primary>  (55) 
energy

$$$$
55:0
     RDKit          3D

 44 47  0  0  0  0  0  0  0  0999 V2000
   57.0680   30.4190   45.2570 O   0  0  0  0  0  0  0  0  0  0  0  0
   58.2560   30.7290   45.5460 C   0  0  0  0  0  0  0  0  0  0  0  0
   59.2740   29.7140   45.5520 N   0  0  0  0  0  0  0  0  0  0  0  0
   59.0000   28.3090   45.6970 C   0  0  0  0  0  0  0  0  0  0  0  0
   60.0690   27.4100   45.8320 C   0  0  0  0  0  0  0  0  0  0  0  0
   59.8290   26.0450   45.9960 C   0  0  0  0  0  0  0  0  0  0  0  0
   58.5170   25.5640   46.0390 C   0  0  0  0  0  0  0  0  0  0  0  0
   58.2870   24.2440   46.2090 N   0  0  0  0  0  0  0  0  0  0  0  0
   57.0330   23.7220   46.2710 C   0  0  0  0  0  0  0  0  0  0  0  0
   55.9300   24.5530   46.1160 N   0  0  0  0  0  0  0  0  0  0  0  0
   56.1360   25.9130   45.9820 C   0  0  0  0  0  0  0  0  0  0  0  0
   55.1530   26.7040   45.9150 O   0  0  0  0  0  0  0  0  0  0  0  0
   57.4360   26.4450   45.9240 C   0  0  0  0  0  0  0  0  0  0  0  0
   57.6810   27.8230   45.7620 C   0  0  0  0  0  0  0  0  0  0  0  0
   54.5230   24.0780   46.2150 C   0  0  0  0  0  0  0  0  0  0  0  0
   54.2120   22.8530   45.3470 C   0  0  0  0  0  0  0  0  0  0  0  0
   54.5580   21.5360   46.0600 C   0  0  0  0  0  0  0  0  0  0  0  0
   55.6980   21.6860   47.0720 C   0  0  0  0  0  0  0  0  0  0  0  0
   56.9730   22.2140   46.4160 C   0  0  0  0  0  0  0  0  0  0  0  0
   58.5930   32.1460   45.8250 C   0  0  0  0  0  0  0  0  0  0  0  0
   58.3810   33.1440   44.8560 C   0  0  0  0  0  0  0  0  0  0  0  0
   58.7100   34.4750   45.1270 C   0  0  0  0  0  0  0  0  0  0  0  0
   59.2580   34.8270   46.3630 C   0  0  0  0  0  0  0  0  0  0  0  0
   59.5740   36.1220   46.6130 F   0  0  0  0  0  0  0  0  0  0  0  0
   59.4830   33.8430   47.3320 C   0  0  0  0  0  0  0  0  0  0  0  0
   60.1750   34.2730   48.8870 Cl  0  0  0  0  0  0  0  0  0  0  0  0
   59.1560   32.5080   47.0640 C   0  0  0  0  0  0  0  0  0  0  0  0
   60.2530   29.9990   45.3220 H   0  0  0  0  0  0  0  0  0  0  0  0
   61.1033   27.7838   45.8084 H   0  0  0  0  0  0  0  0  0  0  0  0
   60.6734   25.3465   46.0916 H   0  0  0  0  0  0  0  0  0  0  0  0
   56.8361   28.5232   45.6859 H   0  0  0  0  0  0  0  0  0  0  0  0
   54.3194   23.8182   47.2643 H   0  0  0  0  0  0  0  0  0  0  0  0
   53.8860   24.8962   45.8478 H   0  0  0  0  0  0  0  0  0  0  0  0
   53.1391   22.8536   45.1041 H   0  0  0  0  0  0  0  0  0  0  0  0
   54.8273   22.9174   44.4374 H   0  0  0  0  0  0  0  0  0  0  0  0
   53.6630   21.1787   46.5904 H   0  0  0  0  0  0  0  0  0  0  0  0
   54.8913   20.8230   45.2915 H   0  0  0  0  0  0  0  0  0  0  0  0
   55.3854   22.3881   47.8590 H   0  0  0  0  0  0  0  0  0  0  0  0
   55.9155   20.6928   47.4919 H   0  0  0  0  0  0  0  0  0  0  0  0
   57.8303   21.8941   47.0265 H   0  0  0  0  0  0  0  0  0  0  0  0
   56.9908   21.8028   45.3959 H   0  0  0  0  0  0  0  0  0  0  0  0
   57.9535   32.8749   43.8788 H   0  0  0  0  0  0  0  0  0  0  0  0
   58.5368   35.2484   44.3642 H   0  0  0  0  0  0  0  0  0  0  0  0
   59.3402   31.7368   47.8265 H   0  0  0  0  0  0  0  0  0  0  0  0
  1  2  2  0
  2  3  1  0
  3  4  1  0
  4  5  2  0
  5  6  1  0
  6  7  2  0
  7  8  1  0
  8  9  2  0
  9 10  1  0
 10 11  1  0
 11 12  2  0
 11 13  1  0
 13 14  2  0
 10 15  1  0
 15 16  1  0
 16 17  1  0
 17 18  1  0
 18 19  1  0
  2 20  1  0
 20 21  2  0
 21 22  1  0
 22 23  2  0
 23 24  1  0
 23 25  1  0
 25 26  1  0
 25 27  2  0
 14  4  1  0
 27 20  1  0
 13  7  1  0
 19  9  1  0
  3 28  1  0
  5 29  1  0
  6 30  1  0
 14 31  1  0
 15 32  1  0
 15 33  1  0
 16 34  1  0
 16 35  1  0
 17 36  1  0
 17 37  1  0
 18 38  1  0
 18 39  1  0
 19 40  1  0
 19 41  1  0
 21 42  1  0
 22 43  1  0
 27 44  1  0
M  END
>  <UniqueID>  (56) 
55

>  <SMILES>  (56) 
O=C(Nc1ccc2nc3n(c(=O)c2c1)CCCCC3)c1ccc(F)c(Cl)c1

>  <Energy>  (56) 
69.52318944680277

>  <Genealogy>  (56) 
O=C(Nc1ccc2nc3n(c(=O)c2c1)CCCCC3)c1ccc(F)c(Cl)c1 (3D coordinates assigned)
O=C(Nc1ccc2nc3n(c(=O)c2c1)CCCCC3)c1ccc(F)c(Cl)c1 (nonaromatic ring conformer: 69.52318944680277 kcal/mol)

>  <smiles>  (56) 
O=C(Nc1ccc2nc3n(c(=O)c2c1)CCCCC3)c1ccc(F)c(Cl)c1

>  <score_type>  (56) 
oracle

>  <origin>  (56) 
adg

>  <m_score__min__energy>  (56) 
-6.96

>  <m_primary>  (56) 
energy

$$$$
56:0
     RDKit          3D

 38 39  0  0  0  0  0  0  0  0999 V2000
   56.3590   24.4150   45.0500 C   0  0  0  0  0  0  0  0  0  0  0  0
   56.2730   25.7380   45.7520 C   0  0  0  0  0  0  0  0  0  0  0  0
   55.2000   26.0320   46.3460 O   0  0  0  0  0  0  0  0  0  0  0  0
   57.4100   26.6990   45.7620 C   0  0  0  0  0  0  0  0  0  0  0  0
   58.5130   26.4730   46.6050 C   0  0  0  0  0  0  0  0  0  0  0  0
   59.5800   27.3730   46.6370 C   0  0  0  0  0  0  0  0  0  0  0  0
   59.5670   28.5060   45.8230 C   0  0  0  0  0  0  0  0  0  0  0  0
   58.4920   28.7450   44.9570 C   0  0  0  0  0  0  0  0  0  0  0  0
   58.4920   29.9290   44.1430 N   0  0  0  0  0  0  0  0  0  0  0  0
   57.4070   30.8760   44.1110 C   0  0  0  0  0  0  0  0  0  0  0  0
   56.2620   30.5190   44.5040 O   0  0  0  0  0  0  0  0  0  0  0  0
   57.6000   32.2140   43.6030 N   0  0  0  0  0  0  0  0  0  0  0  0
   57.9540   32.3950   42.1920 C   0  0  0  0  0  0  0  0  0  0  0  0
   57.4310   33.3920   44.4640 C   0  0  0  0  0  0  0  0  0  0  0  0
   58.3300   33.3060   45.6580 C   0  0  0  0  0  0  0  0  0  0  0  0
   58.1360   32.4370   46.6750 N   0  0  0  0  0  0  0  0  0  0  0  0
   59.0740   32.5750   47.6480 C   0  0  0  0  0  0  0  0  0  0  0  0
   60.0090   33.5770   47.4160 C   0  0  0  0  0  0  0  0  0  0  0  0
   61.1850   33.8940   48.2760 C   0  0  0  0  0  0  0  0  0  0  0  0
   59.6680   34.2920   45.9320 S   0  0  0  0  0  0  0  0  0  0  0  0
   57.4070   27.8480   44.9440 C   0  0  0  0  0  0  0  0  0  0  0  0
   56.4115   23.6074   45.7950 H   0  0  0  0  0  0  0  0  0  0  0  0
   55.4680   24.2755   44.4201 H   0  0  0  0  0  0  0  0  0  0  0  0
   57.2605   24.3920   44.4201 H   0  0  0  0  0  0  0  0  0  0  0  0
   58.5352   25.5787   47.2451 H   0  0  0  0  0  0  0  0  0  0  0  0
   60.4334   27.1882   47.3060 H   0  0  0  0  0  0  0  0  0  0  0  0
   60.4062   29.2162   45.8614 H   0  0  0  0  0  0  0  0  0  0  0  0
   59.2730   30.0440   43.4600 H   0  0  0  0  0  0  0  0  0  0  0  0
   58.9313   32.8947   42.1204 H   0  0  0  0  0  0  0  0  0  0  0  0
   58.0070   31.4134   41.6984 H   0  0  0  0  0  0  0  0  0  0  0  0
   57.1893   33.0127   41.6984 H   0  0  0  0  0  0  0  0  0  0  0  0
   57.6779   34.2974   43.8902 H   0  0  0  0  0  0  0  0  0  0  0  0
   56.3871   33.4323   44.8085 H   0  0  0  0  0  0  0  0  0  0  0  0
   59.0921   31.9435   48.5485 H   0  0  0  0  0  0  0  0  0  0  0  0
   60.8966   33.8163   49.3347 H   0  0  0  0  0  0  0  0  0  0  0  0
   61.9968   33.1826   48.0639 H   0  0  0  0  0  0  0  0  0  0  0  0
   61.5292   34.9170   48.0639 H   0  0  0  0  0  0  0  0  0  0  0  0
   56.5465   28.0456   44.2879 H   0  0  0  0  0  0  0  0  0  0  0  0
  1  2  1  0
  2  3  2  0
  2  4  1  0
  4  5  2  0
  5  6  1  0
  6  7  2  0
  7  8  1  0
  8  9  1  0
  9 10  1  0
 10 11  2  0
 10 12  1  0
 12 13  1  0
 12 14  1  0
 14 15  1  0
 15 16  2  0
 16 17  1  0
 17 18  2  0
 18 19  1  0
 18 20  1  0
  8 21  2  0
 21  4  1  0
 20 15  1  0
  1 22  1  0
  1 23  1  0
  1 24  1  0
  5 25  1  0
  6 26  1  0
  7 27  1  0
  9 28  1  0
 13 29  1  0
 13 30  1  0
 13 31  1  0
 14 32  1  0
 14 33  1  0
 17 34  1  0
 19 35  1  0
 19 36  1  0
 19 37  1  0
 21 38  1  0
M  END
>  <UniqueID>  (57) 
56

>  <SMILES>  (57) 
CC(=O)c1cccc(NC(=O)N(C)Cc2ncc(C)s2)c1

>  <Energy>  (57) 
67.20631728962807

>  <Genealogy>  (57) 
CC(=O)c1cccc(NC(=O)N(C)Cc2ncc(C)s2)c1 (3D coordinates assigned)
CC(=O)c1cccc(NC(=O)N(C)Cc2ncc(C)s2)c1 (optimized conformer: 67.20631728962807 kcal/mol)

>  <smiles>  (57) 
CC(=O)c1cccc(NC(=O)N(C)Cc2ncc(C)s2)c1

>  <score_type>  (57) 
oracle

>  <origin>  (57) 
adg

>  <m_score__min__energy>  (57) 
-8.4700000000000006

>  <m_primary>  (57) 
energy

$$$$
57:0
     RDKit          3D

 30 31  0  0  0  0  0  0  0  0999 V2000
   55.1660   30.2450   44.8720 N   0  0  0  0  0  0  0  0  0  0  0  0
   56.6070   29.8730   43.9960 S   0  0  0  0  0  0  0  0  0  0  0  0
   57.4180   31.1270   43.8050 O   0  0  0  0  0  0  0  0  0  0  0  0
   56.2380   29.3270   42.6440 O   0  0  0  0  0  0  0  0  0  0  0  0
   57.5490   28.6840   44.8980 C   0  0  0  0  0  0  0  0  0  0  0  0
   58.9480   28.7420   44.8740 C   0  0  0  0  0  0  0  0  0  0  0  0
   59.7010   27.8080   45.5800 C   0  0  0  0  0  0  0  0  0  0  0  0
   59.0700   26.8030   46.3140 C   0  0  0  0  0  0  0  0  0  0  0  0
   57.6650   26.7110   46.3420 C   0  0  0  0  0  0  0  0  0  0  0  0
   56.9860   25.6750   47.0890 N   0  0  0  0  0  0  0  0  0  0  0  0
   56.3000   24.5170   46.5100 C   0  0  2  0  0  0  0  0  0  0  0  0
   55.0180   24.8910   46.0740 O   0  0  0  0  0  0  0  0  0  0  0  0
   56.2420   23.3900   47.5060 C   0  0  0  0  0  0  0  0  0  0  0  0
   55.0860   22.9480   48.1240 C   0  0  0  0  0  0  0  0  0  0  0  0
   55.4570   21.8910   48.9290 C   0  0  0  0  0  0  0  0  0  0  0  0
   56.8160   21.7510   48.7540 C   0  0  0  0  0  0  0  0  0  0  0  0
   57.5930   20.7800   49.3830 O   0  0  0  0  0  0  0  0  0  0  0  0
   57.3110   22.6590   47.8890 N   0  0  0  0  0  0  0  0  0  0  0  0
   56.9090   27.6600   45.6210 C   0  0  0  0  0  0  0  0  0  0  0  0
   55.5190   27.5780   45.6160 O   0  0  0  0  0  0  0  0  0  0  0  0
   54.5830   29.3750   44.8880 H   0  0  0  0  0  0  0  0  0  0  0  0
   59.4539   29.5287   44.2950 H   0  0  0  0  0  0  0  0  0  0  0  0
   60.7994   27.8625   45.5591 H   0  0  0  0  0  0  0  0  0  0  0  0
   59.6753   26.0762   46.8757 H   0  0  0  0  0  0  0  0  0  0  0  0
   56.9260   25.7690   48.1290 H   0  0  0  0  0  0  0  0  0  0  0  0
   56.8646   24.1571   45.6372 H   0  0  0  0  0  0  0  0  0  0  0  0
   55.1380   25.6640   45.4620 H   0  0  0  0  0  0  0  0  0  0  0  0
   54.0729   23.3577   47.9985 H   0  0  0  0  0  0  0  0  0  0  0  0
   54.8040   21.2863   49.5755 H   0  0  0  0  0  0  0  0  0  0  0  0
   57.1580   20.0420   49.9270 H   0  0  0  0  0  0  0  0  0  0  0  0
  1  2  1  0
  2  3  2  0
  2  4  2  0
  2  5  1  0
  5  6  2  0
  6  7  1  0
  7  8  2  0
  8  9  1  0
  9 10  1  0
 10 11  1  0
 11 12  1  0
 11 13  1  0
 13 14  2  0
 14 15  1  0
 15 16  2  0
 16 17  1  0
 16 18  1  0
  9 19  2  0
 19 20  1  0
 19  5  1  0
 18 13  1  0
  1 21  1  0
  6 22  1  0
  7 23  1  0
  8 24  1  0
 10 25  1  0
 11 26  1  6
 12 27  1  0
 14 28  1  0
 15 29  1  0
 17 30  1  0
M  CHG  3   1  -1  18  -1  20  -1
M  END
>  <UniqueID>  (58) 
57

>  <SMILES>  (58) 
[NH-]S(=O)(=O)c1cccc(N[C@H](O)c2ccc(O)[n-]2)c1[O-]

>  <Energy>  (58) 
57.00744612694877

>  <Genealogy>  (58) 
[NH-]S(=O)(=O)c1cccc(NC(O)c2ccc(O)[n-]2)c1[O-] (protonated)
[NH-]S(=O)(=O)c1cccc(N[C@H](O)c2ccc(O)[n-]2)c1[O-] (chirality)
[NH-]S(=O)(=O)c1cccc(N[C@H](O)c2ccc(O)[n-]2)c1[O-] (3D coordinates assigned)
[NH-]S(=O)(=O)c1cccc(N[C@H](O)c2ccc(O)[n-]2)c1[O-] (optimized conformer: 57.00744612694877 kcal/mol)

>  <smiles>  (58) 
NS(=O)(=O)c1cccc(NC(O)c2ccc(O)[nH]2)c1O

>  <score_type>  (58) 
oracle

>  <origin>  (58) 
adg

>  <m_score__min__energy>  (58) 
-15.529999999999999

>  <m_primary>  (58) 
energy

$$$$
58:0
     RDKit          3D

 39 40  0  0  0  0  0  0  0  0999 V2000
   57.3100   30.9530   42.9450 C   0  0  0  0  0  0  0  0  0  0  0  0
   56.6380   30.0230   44.3060 S   0  0  0  0  0  0  0  0  0  0  0  0
   57.0920   30.6590   45.5880 O   0  0  0  0  0  0  0  0  0  0  0  0
   55.1360   30.0400   44.2620 O   0  0  0  0  0  0  0  0  0  0  0  0
   57.2180   28.3880   44.2550 N   0  0  0  0  0  0  0  0  0  0  0  0
   57.8310   27.7010   45.3620 C   0  0  0  0  0  0  0  0  0  0  0  0
   57.5520   26.3400   45.5570 C   0  0  0  0  0  0  0  0  0  0  0  0
   58.1280   25.6410   46.6200 C   0  0  0  0  0  0  0  0  0  0  0  0
   58.9960   26.2900   47.4960 C   0  0  0  0  0  0  0  0  0  0  0  0
   59.3060   27.6460   47.3110 C   0  0  0  0  0  0  0  0  0  0  0  0
   60.2240   28.3420   48.2780 C   0  0  0  0  0  0  0  0  0  0  0  0
   59.6860   29.6600   48.6140 N   0  0  0  0  0  0  0  0  0  0  0  0
   60.1430   30.8790   48.0050 C   0  0  0  0  0  0  0  0  0  0  0  0
   61.6950   31.0130   47.4780 S   0  0  0  0  0  0  0  0  0  0  0  0
   59.3110   32.0460   48.0740 N   0  0  0  0  0  0  0  0  0  0  0  0
   59.3050   33.0860   47.0820 C   0  0  0  0  0  0  0  0  0  0  0  0
   59.9310   34.3100   47.3620 C   0  0  0  0  0  0  0  0  0  0  0  0
   59.9180   35.3430   46.4190 C   0  0  0  0  0  0  0  0  0  0  0  0
   59.2670   35.1650   45.1950 C   0  0  0  0  0  0  0  0  0  0  0  0
   58.6220   33.9570   44.9160 C   0  0  0  0  0  0  0  0  0  0  0  0
   58.6330   32.9240   45.8570 C   0  0  0  0  0  0  0  0  0  0  0  0
   58.7150   28.3500   46.2480 C   0  0  0  0  0  0  0  0  0  0  0  0
   57.9128   31.7872   43.3331 H   0  0  0  0  0  0  0  0  0  0  0  0
   57.9442   30.2972   42.3304 H   0  0  0  0  0  0  0  0  0  0  0  0
   56.4882   31.3492   42.3304 H   0  0  0  0  0  0  0  0  0  0  0  0
   57.0240   27.8510   43.3790 H   0  0  0  0  0  0  0  0  0  0  0  0
   56.8732   25.8185   44.8661 H   0  0  0  0  0  0  0  0  0  0  0  0
   57.8960   24.5757   46.7661 H   0  0  0  0  0  0  0  0  0  0  0  0
   59.4403   25.7367   48.3365 H   0  0  0  0  0  0  0  0  0  0  0  0
   60.3130   27.7399   49.1943 H   0  0  0  0  0  0  0  0  0  0  0  0
   61.2144   28.4623   47.8147 H   0  0  0  0  0  0  0  0  0  0  0  0
   58.8020   29.6920   49.1690 H   0  0  0  0  0  0  0  0  0  0  0  0
   58.6550   32.1310   48.8830 H   0  0  0  0  0  0  0  0  0  0  0  0
   60.4348   34.4581   48.3285 H   0  0  0  0  0  0  0  0  0  0  0  0
   60.4204   36.2961   46.6408 H   0  0  0  0  0  0  0  0  0  0  0  0
   59.2623   35.9756   44.4514 H   0  0  0  0  0  0  0  0  0  0  0  0
   58.1052   33.8192   43.9548 H   0  0  0  0  0  0  0  0  0  0  0  0
   58.1135   31.9793   45.6386 H   0  0  0  0  0  0  0  0  0  0  0  0
   58.9441   29.4165   46.1060 H   0  0  0  0  0  0  0  0  0  0  0  0
  1  2  1  0
  2  3  2  0
  2  4  2  0
  2  5  1  0
  5  6  1  0
  6  7  2  0
  7  8  1  0
  8  9  2  0
  9 10  1  0
 10 11  1  0
 11 12  1  0
 12 13  1  0
 13 14  2  0
 13 15  1  0
 15 16  1  0
 16 17  2  0
 17 18  1  0
 18 19  2  0
 19 20  1  0
 20 21  2  0
 10 22  2  0
 22  6  1  0
 21 16  1  0
  1 23  1  0
  1 24  1  0
  1 25  1  0
  5 26  1  0
  7 27  1  0
  8 28  1  0
  9 29  1  0
 11 30  1  0
 11 31  1  0
 12 32  1  0
 15 33  1  0
 17 34  1  0
 18 35  1  0
 19 36  1  0
 20 37  1  0
 21 38  1  0
 22 39  1  0
M  END
>  <UniqueID>  (59) 
58

>  <SMILES>  (59) 
CS(=O)(=O)Nc1cccc(CNC(=S)Nc2ccccc2)c1

>  <Energy>  (59) 
40.252202802879495

>  <Genealogy>  (59) 
CS(=O)(=O)Nc1cccc(CNC(=S)Nc2ccccc2)c1 (3D coordinates assigned)
CS(=O)(=O)Nc1cccc(CNC(=S)Nc2ccccc2)c1 (optimized conformer: 40.252202802879495 kcal/mol)

>  <smiles>  (59) 
CS(=O)(=O)Nc1cccc(CNC(=S)Nc2ccccc2)c1

>  <score_type>  (59) 
oracle

>  <origin>  (59) 
adg

>  <m_score__min__energy>  (59) 
-8.2300000000000004

>  <m_primary>  (59) 
energy

$$$$
59:0
     RDKit          3D

 40 41  0  0  0  0  0  0  0  0999 V2000
   55.3850   26.3380   45.9910 N   0  0  0  0  0  0  0  0  0  0  0  0
   57.0880   26.0520   46.0450 S   0  0  0  0  0  0  0  0  0  0  0  0
   57.4520   24.9900   45.0450 O   0  0  0  0  0  0  0  0  0  0  0  0
   57.4700   25.5730   47.4170 O   0  0  0  0  0  0  0  0  0  0  0  0
   57.9470   27.5430   45.6700 C   0  0  0  0  0  0  0  0  0  0  0  0
   59.3460   27.5470   45.5760 C   0  0  0  0  0  0  0  0  0  0  0  0
   60.0240   28.7310   45.2750 C   0  0  0  0  0  0  0  0  0  0  0  0
   59.3120   29.9180   45.0840 C   0  0  0  0  0  0  0  0  0  0  0  0
   57.9140   29.9320   45.2150 C   0  0  0  0  0  0  0  0  0  0  0  0
   57.1570   31.1280   44.9940 N   0  0  0  0  0  0  0  0  0  0  0  0
   57.6030   32.4690   45.2330 C   0  0  0  0  0  0  0  0  0  0  0  0
   57.9580   33.1710   44.2490 O   0  0  0  0  0  0  0  0  0  0  0  0
   57.4830   33.1160   46.5900 C   0  0  0  0  0  0  0  0  0  0  0  0
   58.8150   33.3480   47.1910 N   0  0  0  0  0  0  0  0  0  0  0  0
   59.8720   32.6910   46.3860 C   0  0  0  0  0  0  0  0  0  0  0  0
   61.1410   33.5480   46.2150 C   0  0  0  0  0  0  0  0  0  0  0  0
   61.8760   33.8600   47.5310 C   0  0  0  0  0  0  0  0  0  0  0  0
   61.4330   33.0290   48.7570 C   0  0  0  0  0  0  0  0  0  0  0  0
   60.0830   33.4680   49.3580 C   0  0  0  0  0  0  0  0  0  0  0  0
   58.8460   32.9120   48.6080 C   0  0  0  0  0  0  0  0  0  0  0  0
   57.2360   28.7360   45.4840 C   0  0  0  0  0  0  0  0  0  0  0  0
   55.2180   27.0360   45.2320 H   0  0  0  0  0  0  0  0  0  0  0  0
   59.9103   26.6170   45.7394 H   0  0  0  0  0  0  0  0  0  0  0  0
   61.1206   28.7287   45.1882 H   0  0  0  0  0  0  0  0  0  0  0  0
   59.8483   30.8443   44.8302 H   0  0  0  0  0  0  0  0  0  0  0  0
   56.9645   34.0802   46.4833 H   0  0  0  0  0  0  0  0  0  0  0  0
   56.9159   32.4419   47.2487 H   0  0  0  0  0  0  0  0  0  0  0  0
   60.1523   31.7501   46.8821 H   0  0  0  0  0  0  0  0  0  0  0  0
   59.4562   32.5270   45.3809 H   0  0  0  0  0  0  0  0  0  0  0  0
   61.8342   33.0089   45.5526 H   0  0  0  0  0  0  0  0  0  0  0  0
   60.8160   34.5130   45.7990 H   0  0  0  0  0  0  0  0  0  0  0  0
   62.9492   33.6800   47.3701 H   0  0  0  0  0  0  0  0  0  0  0  0
   61.6314   34.9051   47.7717 H   0  0  0  0  0  0  0  0  0  0  0  0
   61.3485   31.9764   48.4490 H   0  0  0  0  0  0  0  0  0  0  0  0
   62.1933   33.1827   49.5369 H   0  0  0  0  0  0  0  0  0  0  0  0
   60.0398   33.1206   50.4008 H   0  0  0  0  0  0  0  0  0  0  0  0
   60.0393   34.5639   49.2733 H   0  0  0  0  0  0  0  0  0  0  0  0
   58.8747   31.8129   48.6411 H   0  0  0  0  0  0  0  0  0  0  0  0
   57.9442   33.3009   49.1036 H   0  0  0  0  0  0  0  0  0  0  0  0
   56.1380   28.7334   45.5497 H   0  0  0  0  0  0  0  0  0  0  0  0
  1  2  1  0
  2  3  2  0
  2  4  2  0
  2  5  1  0
  5  6  2  0
  6  7  1  0
  7  8  2  0
  8  9  1  0
  9 10  1  0
 10 11  1  0
 11 12  2  0
 11 13  1  0
 13 14  1  0
 14 15  1  0
 15 16  1  0
 16 17  1  0
 17 18  1  0
 18 19  1  0
 19 20  1  0
  9 21  2  0
 21  5  1  0
 20 14  1  0
  1 22  1  0
  6 23  1  0
  7 24  1  0
  8 25  1  0
 13 26  1  0
 13 27  1  0
 15 28  1  0
 15 29  1  0
 16 30  1  0
 16 31  1  0
 17 32  1  0
 17 33  1  0
 18 34  1  0
 18 35  1  0
 19 36  1  0
 19 37  1  0
 20 38  1  0
 20 39  1  0
 21 40  1  0
M  CHG  2   1  -1  10  -1
M  END
>  <UniqueID>  (60) 
59

>  <SMILES>  (60) 
[NH-]S(=O)(=O)c1cccc([N-]C(=O)CN2CCCCCC2)c1

>  <Energy>  (60) 
53.90253507995283

>  <Genealogy>  (60) 
[NH-]S(=O)(=O)c1cccc([N-]C(=O)CN2CCCCCC2)c1 (protonated)
[NH-]S(=O)(=O)c1cccc([N-]C(=O)CN2CCCCCC2)c1 (3D coordinates assigned)
[NH-]S(=O)(=O)c1cccc([N-]C(=O)CN2CCCCCC2)c1 (nonaromatic ring conformer: 53.90253507995283 kcal/mol)

>  <smiles>  (60) 
NS(=O)(=O)c1cccc(NC(=O)CN2CCCCCC2)c1

>  <score_type>  (60) 
oracle

>  <origin>  (60) 
adg

>  <m_score__min__energy>  (60) 
-9.4600000000000009

>  <m_primary>  (60) 
energy

$$$$
60:0
     RDKit          3D

 32 34  0  0  0  0  0  0  0  0999 V2000
   58.2390   31.7260   43.2050 N   0  0  0  0  0  0  0  0  0  0  0  0
   57.6410   31.4990   44.4820 C   0  0  0  0  0  0  0  0  0  0  0  0
   57.2880   32.4840   45.1840 O   0  0  0  0  0  0  0  0  0  0  0  0
   57.3950   30.1220   44.9710 C   0  0  0  0  0  0  0  0  0  0  0  0
   58.4210   29.3530   45.5760 C   0  0  0  0  0  0  0  0  0  0  0  0
   60.0350   30.0970   45.9250 S   0  0  0  0  0  0  0  0  0  0  0  0
   59.5120   30.7710   47.5060 C   0  0  0  0  0  0  0  0  0  0  0  0
   59.3760   29.9340   48.6220 C   0  0  0  0  0  0  0  0  0  0  0  0
   58.9630   30.4620   49.8490 C   0  0  0  0  0  0  0  0  0  0  0  0
   58.6940   31.8300   49.9680 C   0  0  0  0  0  0  0  0  0  0  0  0
   58.1760   32.4910   51.5080 Cl  0  0  0  0  0  0  0  0  0  0  0  0
   58.8450   32.6700   48.8600 C   0  0  0  0  0  0  0  0  0  0  0  0
   59.2580   32.1430   47.6330 C   0  0  0  0  0  0  0  0  0  0  0  0
   58.1510   28.0160   45.9560 C   0  0  0  0  0  0  0  0  0  0  0  0
   59.1390   27.1670   46.4980 C   0  0  0  0  0  0  0  0  0  0  0  0
   58.8200   25.8600   46.8790 C   0  0  0  0  0  0  0  0  0  0  0  0
   57.5200   25.3770   46.7190 C   0  0  0  0  0  0  0  0  0  0  0  0
   57.1280   23.7350   47.1990 Cl  0  0  0  0  0  0  0  0  0  0  0  0
   56.5330   26.1980   46.1710 C   0  0  0  0  0  0  0  0  0  0  0  0
   56.8410   27.5080   45.7850 C   0  0  0  0  0  0  0  0  0  0  0  0
   55.8740   28.2890   45.2420 N   0  0  0  0  0  0  0  0  0  0  0  0
   56.1120   29.5590   44.8340 C   0  0  0  0  0  0  0  0  0  0  0  0
   55.1710   30.2200   44.3190 O   0  0  0  0  0  0  0  0  0  0  0  0
   58.4380   32.7000   42.8840 H   0  0  0  0  0  0  0  0  0  0  0  0
   58.4340   30.9330   42.5550 H   0  0  0  0  0  0  0  0  0  0  0  0
   59.5946   28.8597   48.5323 H   0  0  0  0  0  0  0  0  0  0  0  0
   58.8495   29.8016   50.7213 H   0  0  0  0  0  0  0  0  0  0  0  0
   58.6386   33.7463   48.9542 H   0  0  0  0  0  0  0  0  0  0  0  0
   59.3839   32.8070   46.7651 H   0  0  0  0  0  0  0  0  0  0  0  0
   60.1678   27.5360   46.6217 H   0  0  0  0  0  0  0  0  0  0  0  0
   59.5970   25.2094   47.3068 H   0  0  0  0  0  0  0  0  0  0  0  0
   55.5101   25.8145   46.0421 H   0  0  0  0  0  0  0  0  0  0  0  0
  1  2  1  0
  2  3  2  0
  2  4  1  0
  4  5  2  0
  5  6  1  0
  6  7  1  0
  7  8  2  0
  8  9  1  0
  9 10  2  0
 10 11  1  0
 10 12  1  0
 12 13  2  0
  5 14  1  0
 14 15  2  0
 15 16  1  0
 16 17  2  0
 17 18  1  0
 17 19  1  0
 19 20  2  0
 20 21  1  0
 21 22  1  0
 22 23  2  0
 22  4  1  0
 13  7  1  0
 20 14  1  0
  1 24  1  0
  1 25  1  0
  8 26  1  0
  9 27  1  0
 12 28  1  0
 13 29  1  0
 15 30  1  0
 16 31  1  0
 19 32  1  0
M  CHG  1  21  -1
M  END
>  <UniqueID>  (61) 
60

>  <SMILES>  (61) 
NC(=O)c1c(Sc2ccc(Cl)cc2)c2ccc(Cl)cc2[n-]c1=O

>  <Energy>  (61) 
41.64913900802668

>  <Genealogy>  (61) 
NC(=O)c1c(Sc2ccc(Cl)cc2)c2ccc(Cl)cc2[n-]c1=O (protonated)
NC(=O)c1c(Sc2ccc(Cl)cc2)c2ccc(Cl)cc2[n-]c1=O (3D coordinates assigned)
NC(=O)c1c(Sc2ccc(Cl)cc2)c2ccc(Cl)cc2[n-]c1=O (optimized conformer: 41.64913900802668 kcal/mol)

>  <smiles>  (61) 
NC(=O)c1c(Sc2ccc(Cl)cc2)c2ccc(Cl)cc2[nH]c1=O

>  <score_type>  (61) 
oracle

>  <origin>  (61) 
adg

>  <m_score__min__energy>  (61) 
-9.75

>  <m_primary>  (61) 
energy

$$$$
61:0
     RDKit          3D

 24 25  0  0  0  0  0  0  0  0999 V2000
   59.2300   34.6230   45.2390 C   0  0  0  0  0  0  0  0  0  0  0  0
   57.7950   34.2320   44.9040 C   0  0  0  0  0  0  0  0  0  0  0  0
   57.7700   33.1260   44.0020 O   0  0  0  0  0  0  0  0  0  0  0  0
   57.5850   31.7810   44.3610 C   0  0  0  0  0  0  0  0  0  0  0  0
   58.1870   31.3240   45.5380 C   0  0  0  0  0  0  0  0  0  0  0  0
   58.0390   29.9960   45.9460 C   0  0  0  0  0  0  0  0  0  0  0  0
   57.2840   29.0930   45.1780 C   0  0  0  0  0  0  0  0  0  0  0  0
   57.1260   27.6840   45.6100 C   0  0  0  0  0  0  0  0  0  0  0  0
   55.8990   27.0720   45.6260 N   0  0  0  0  0  0  0  0  0  0  0  0
   55.9970   25.7980   46.0510 C   0  0  0  0  0  0  0  0  0  0  0  0
   55.0200   25.0130   46.1610 O   0  0  0  0  0  0  0  0  0  0  0  0
   57.5750   25.4420   46.4000 S   0  0  0  0  0  0  0  0  0  0  0  0
   58.1960   26.9350   46.0100 N   0  0  0  0  0  0  0  0  0  0  0  0
   56.6820   29.5500   43.9920 C   0  0  0  0  0  0  0  0  0  0  0  0
   56.8310   30.8790   43.5850 C   0  0  0  0  0  0  0  0  0  0  0  0
   59.3553   34.6571   46.3313 H   0  0  0  0  0  0  0  0  0  0  0  0
   59.9212   33.8804   44.8137 H   0  0  0  0  0  0  0  0  0  0  0  0
   59.4489   35.6135   44.8137 H   0  0  0  0  0  0  0  0  0  0  0  0
   57.2710   33.9541   45.8304 H   0  0  0  0  0  0  0  0  0  0  0  0
   57.2978   35.0889   44.4261 H   0  0  0  0  0  0  0  0  0  0  0  0
   58.7833   32.0176   46.1489 H   0  0  0  0  0  0  0  0  0  0  0  0
   58.5173   29.6544   46.8758 H   0  0  0  0  0  0  0  0  0  0  0  0
   56.0886   28.8555   43.3792 H   0  0  0  0  0  0  0  0  0  0  0  0
   56.3569   31.2223   42.6537 H   0  0  0  0  0  0  0  0  0  0  0  0
  1  2  1  0
  2  3  1  0
  3  4  1  0
  4  5  2  0
  5  6  1  0
  6  7  2  0
  7  8  1  0
  8  9  2  0
  9 10  1  0
 10 11  2  0
 10 12  1  0
 12 13  1  0
  7 14  1  0
 14 15  2  0
 15  4  1  0
 13  8  1  0
  1 16  1  0
  1 17  1  0
  1 18  1  0
  2 19  1  0
  2 20  1  0
  5 21  1  0
  6 22  1  0
 14 23  1  0
 15 24  1  0
M  CHG  1  13  -1
M  END
>  <UniqueID>  (62) 
61

>  <SMILES>  (62) 
CCOc1ccc(-c2nc(=O)s[n-]2)cc1

>  <Energy>  (62) 
61.52851470130742

>  <Genealogy>  (62) 
CCOc1ccc(-c2nc(=O)s[n-]2)cc1 (protonated)
CCOc1ccc(-c2nc(=O)s[n-]2)cc1 (3D coordinates assigned)
CCOc1ccc(-c2nc(=O)s[n-]2)cc1 (optimized conformer: 61.52851470130742 kcal/mol)

>  <smiles>  (62) 
CCOc1ccc(-c2nc(=O)s[nH]2)cc1

>  <score_type>  (62) 
oracle

>  <origin>  (62) 
adg

>  <m_score__min__energy>  (62) 
-7.2000000000000002

>  <m_primary>  (62) 
energy

$$$$
62:0
     RDKit          3D

 51 54  0  0  1  0  0  0  0  0999 V2000
   63.8540   32.0310   47.1340 N   0  0  0  0  0  0  0  0  0  0  0  0
   62.8850   33.4470   47.3290 S   0  0  0  0  0  0  0  0  0  0  0  0
   62.1960   33.7940   46.0290 O   0  0  0  0  0  0  0  0  0  0  0  0
   63.7750   34.5570   47.8160 O   0  0  0  0  0  0  0  0  0  0  0  0
   61.7150   33.1300   48.5620 C   0  0  0  0  0  0  0  0  0  0  0  0
   60.9770   34.1470   49.1300 C   0  0  0  0  0  0  0  0  0  0  0  0
   60.0330   33.9430   50.1160 C   0  0  0  0  0  0  0  0  0  0  0  0
   59.8150   32.6730   50.5530 C   0  0  0  0  0  0  0  0  0  0  0  0
   60.5410   31.6310   50.0020 C   0  0  0  0  0  0  0  0  0  0  0  0
   60.2590   30.3230   50.5100 N   0  0  0  0  0  0  0  0  0  0  0  0
   60.1450   29.3220   49.7020 C   0  0  0  0  0  0  0  0  0  0  0  0
   59.3760   29.2360   48.5460 C   0  0  0  0  0  0  0  0  0  0  0  0
   59.6130   27.9640   48.0650 C   0  0  0  0  0  0  0  0  0  0  0  0
   59.0340   27.3780   46.8590 C   0  0  0  0  0  0  0  0  0  0  0  0
   58.8470   26.0080   46.7180 C   0  0  0  0  0  0  0  0  0  0  0  0
   58.2970   25.4980   45.5590 C   0  0  0  0  0  0  0  0  0  0  0  0
   57.9230   26.3560   44.5200 C   0  0  0  0  0  0  0  0  0  0  0  0
   58.1030   27.7380   44.6440 C   0  0  0  0  0  0  0  0  0  0  0  0
   57.7270   28.6210   43.5960 N   0  0  0  0  0  0  0  0  0  0  0  0
   56.7200   29.9820   43.8970 S   0  0  0  0  0  0  0  0  0  0  0  0
   55.6090   29.5860   44.8240 O   0  0  0  0  0  0  0  0  0  0  0  0
   56.1010   30.4770   42.6150 O   0  0  0  0  0  0  0  0  0  0  0  0
   57.5960   31.3020   44.6300 C   0  0  0  0  0  0  0  0  0  0  0  0
   58.0720   31.2250   45.9070 C   0  0  0  0  0  0  0  0  0  0  0  0
   58.7610   32.3160   46.4250 C   0  0  0  0  0  0  0  0  0  0  0  0
   58.9650   33.4660   45.6610 C   0  0  0  0  0  0  0  0  0  0  0  0
   58.4830   33.5470   44.3640 C   0  0  0  0  0  0  0  0  0  0  0  0
   57.7990   32.4510   43.8620 C   0  0  0  0  0  0  0  0  0  0  0  0
   58.6560   28.2010   45.8190 C   0  0  0  0  0  0  0  0  0  0  0  0
   60.4810   27.3540   48.9130 N   0  0  0  0  0  0  0  0  0  0  0  0
   60.8030   28.1640   49.8940 N   0  0  0  0  0  0  0  0  0  0  0  0
   61.4880   31.8380   49.0120 C   0  0  0  0  0  0  0  0  0  0  0  0
   64.4290   31.9320   48.0190 H   0  0  0  0  0  0  0  0  0  0  0  0
   64.4960   32.2150   46.3300 H   0  0  0  0  0  0  0  0  0  0  0  0
   61.1498   35.1750   48.7788 H   0  0  0  0  0  0  0  0  0  0  0  0
   59.4697   34.7879   50.5389 H   0  0  0  0  0  0  0  0  0  0  0  0
   59.0688   32.4761   51.3368 H   0  0  0  0  0  0  0  0  0  0  0  0
   58.7246   30.0089   48.1121 H   0  0  0  0  0  0  0  0  0  0  0  0
   59.1381   25.3281   47.5323 H   0  0  0  0  0  0  0  0  0  0  0  0
   58.1524   24.4128   45.4524 H   0  0  0  0  0  0  0  0  0  0  0  0
   57.4848   25.9420   43.5999 H   0  0  0  0  0  0  0  0  0  0  0  0
   58.0900   28.4100   42.6290 H   0  0  0  0  0  0  0  0  0  0  0  0
   57.9141   30.3204   46.5126 H   0  0  0  0  0  0  0  0  0  0  0  0
   59.1512   32.2721   47.4525 H   0  0  0  0  0  0  0  0  0  0  0  0
   59.5136   34.3163   46.0923 H   0  0  0  0  0  0  0  0  0  0  0  0
   58.6379   34.4495   43.7544 H   0  0  0  0  0  0  0  0  0  0  0  0
   57.4069   32.4868   42.8349 H   0  0  0  0  0  0  0  0  0  0  0  0
   58.8036   29.2851   45.9331 H   0  0  0  0  0  0  0  0  0  0  0  0
   60.8570   26.3890   48.8280 H   0  0  0  0  0  0  0  0  0  0  0  0
   61.4580   27.9380   50.6870 H   0  0  0  0  0  0  0  0  0  0  0  0
   62.0502   30.9919   48.5901 H   0  0  0  0  0  0  0  0  0  0  0  0
  1  2  1  0
  2  3  2  0
  2  4  2  0
  2  5  1  0
  5  6  2  0
  6  7  1  0
  7  8  2  0
  8  9  1  0
  9 10  1  0
 10 11  2  0
 11 12  1  0
 12 13  2  0
 13 14  1  0
 14 15  2  0
 15 16  1  0
 16 17  2  0
 17 18  1  0
 18 19  1  0
 19 20  1  0
 20 21  2  0
 20 22  2  0
 20 23  1  0
 23 24  2  0
 24 25  1  0
 25 26  2  0
 26 27  1  0
 27 28  2  0
 18 29  2  0
 13 30  1  0
 30 31  1  0
  9 32  2  0
 32  5  1  0
 31 11  1  0
 29 14  1  0
 28 23  1  0
  1 33  1  0
  1 34  1  0
  6 35  1  0
  7 36  1  0
  8 37  1  0
 12 38  1  0
 15 39  1  0
 16 40  1  0
 17 41  1  0
 19 42  1  0
 24 43  1  0
 25 44  1  0
 26 45  1  0
 27 46  1  0
 28 47  1  0
 29 48  1  0
 30 49  1  0
 31 50  1  0
 32 51  1  0
M  END
>  <smiles>  (63) 
NS(=O)(=O)c1cccc(N=c2cc(-c3cccc(NS(=O)(=O)c4ccccc4)c3)[nH][nH]2)c1

>  <score_type>  (63) 
oracle

>  <origin>  (63) 
adg

>  <m_score__min__energy>  (63) 
-10.67

>  <m_primary>  (63) 
energy

$$$$
63:0
     RDKit          3D

 53 57  0  0  0  0  0  0  0  0999 V2000
   67.2470   28.5950   51.3980 C   0  0  0  0  0  0  0  0  0  0  0  0
   66.8780   29.7950   52.0690 O   0  0  0  0  0  0  0  0  0  0  0  0
   66.5540   31.0010   51.4260 C   0  0  0  0  0  0  0  0  0  0  0  0
   65.3150   31.1950   50.7840 C   0  0  0  0  0  0  0  0  0  0  0  0
   65.0170   32.4120   50.1470 C   0  0  0  0  0  0  0  0  0  0  0  0
   63.6780   32.6120   49.4630 C   0  0  1  0  0  0  0  0  0  0  0  0
   62.8350   31.2960   49.4950 C   0  0  0  0  0  0  0  0  0  0  0  0
   61.4290   31.5090   48.9650 C   0  0  0  0  0  0  0  0  0  0  0  0
   60.7350   30.5540   48.6490 O   0  0  0  0  0  0  0  0  0  0  0  0
   60.9230   32.9200   48.8420 C   0  0  2  0  0  0  0  0  0  0  0  0
   61.4420   33.6570   50.0380 C   0  0  0  0  0  0  0  0  0  0  0  0
   60.8900   33.6080   51.2120 N   0  0  0  0  0  0  0  0  0  0  0  0
   59.6680   33.0130   51.6640 C   0  0  0  0  0  0  0  0  0  0  0  0
   59.5610   32.8020   53.0470 C   0  0  0  0  0  0  0  0  0  0  0  0
   58.4270   32.2090   53.6020 C   0  0  0  0  0  0  0  0  0  0  0  0
   57.3720   31.8290   52.7780 C   0  0  0  0  0  0  0  0  0  0  0  0
   57.4520   32.0470   51.4040 C   0  0  0  0  0  0  0  0  0  0  0  0
   58.5930   32.6270   50.8270 C   0  0  0  0  0  0  0  0  0  0  0  0
   58.5180   32.9080   49.4270 N   0  0  0  0  0  0  0  0  0  0  0  0
   59.4490   33.0810   48.5420 C   0  0  0  0  0  0  0  0  0  0  0  0
   59.0110   33.3570   47.1470 C   0  0  0  0  0  0  0  0  0  0  0  0
   59.4670   34.5110   46.4820 C   0  0  0  0  0  0  0  0  0  0  0  0
   59.0550   34.7870   45.1750 C   0  0  0  0  0  0  0  0  0  0  0  0
   58.1790   33.9200   44.5190 C   0  0  0  0  0  0  0  0  0  0  0  0
   57.7100   32.7780   45.1700 C   0  0  0  0  0  0  0  0  0  0  0  0
   58.1180   32.4960   46.4770 C   0  0  0  0  0  0  0  0  0  0  0  0
   62.9340   33.8770   50.0170 C   0  0  0  0  0  0  0  0  0  0  0  0
   65.9760   33.4400   50.1580 C   0  0  0  0  0  0  0  0  0  0  0  0
   67.2050   33.2540   50.7920 C   0  0  0  0  0  0  0  0  0  0  0  0
   67.4990   32.0430   51.4250 C   0  0  0  0  0  0  0  0  0  0  0  0
   68.7390   31.8940   52.0480 O   0  0  0  0  0  0  0  0  0  0  0  0
   67.4857   27.8187   52.1398 H   0  0  0  0  0  0  0  0  0  0  0  0
   66.4117   28.2556   50.7678 H   0  0  0  0  0  0  0  0  0  0  0  0
   68.1287   28.7835   50.7678 H   0  0  0  0  0  0  0  0  0  0  0  0
   64.5717   30.3841   50.7812 H   0  0  0  0  0  0  0  0  0  0  0  0
   63.8470   32.8281   48.3978 H   0  0  0  0  0  0  0  0  0  0  0  0
   63.3368   30.5376   48.8761 H   0  0  0  0  0  0  0  0  0  0  0  0
   62.7575   30.9673   50.5419 H   0  0  0  0  0  0  0  0  0  0  0  0
   61.3159   33.3780   47.9223 H   0  0  0  0  0  0  0  0  0  0  0  0
   60.3865   33.1099   53.7056 H   0  0  0  0  0  0  0  0  0  0  0  0
   58.3669   32.0423   54.6876 H   0  0  0  0  0  0  0  0  0  0  0  0
   56.4770   31.3576   53.2102 H   0  0  0  0  0  0  0  0  0  0  0  0
   56.6071   31.7599   50.7607 H   0  0  0  0  0  0  0  0  0  0  0  0
   60.1530   35.2011   46.9950 H   0  0  0  0  0  0  0  0  0  0  0  0
   59.4215   35.6887   44.6625 H   0  0  0  0  0  0  0  0  0  0  0  0
   57.8586   34.1369   43.4893 H   0  0  0  0  0  0  0  0  0  0  0  0
   57.0172   32.0977   44.6530 H   0  0  0  0  0  0  0  0  0  0  0  0
   57.7400   31.5969   46.9857 H   0  0  0  0  0  0  0  0  0  0  0  0
   63.1619   34.7396   49.3736 H   0  0  0  0  0  0  0  0  0  0  0  0
   63.2764   34.0641   51.0455 H   0  0  0  0  0  0  0  0  0  0  0  0
   65.7559   34.3976   49.6634 H   0  0  0  0  0  0  0  0  0  0  0  0
   67.9474   34.0657   50.7936 H   0  0  0  0  0  0  0  0  0  0  0  0
   68.9970   31.0470   52.5400 H   0  0  0  0  0  0  0  0  0  0  0  0
  1  2  1  0
  2  3  1  0
  3  4  2  0
  4  5  1  0
  5  6  1  0
  6  7  1  0
  7  8  1  0
  8  9  2  0
  8 10  1  0
 10 11  1  0
 11 12  2  0
 12 13  1  0
 13 14  2  0
 14 15  1  0
 15 16  2  0
 16 17  1  0
 17 18  2  0
 18 19  1  0
 19 20  2  0
 20 21  1  0
 21 22  2  0
 22 23  1  0
 23 24  2  0
 24 25  1  0
 25 26  2  0
 11 27  1  0
  5 28  2  0
 28 29  1  0
 29 30  2  0
 30 31  1  0
 30  3  1  0
 27  6  1  0
 20 10  1  0
 26 21  1  0
 18 13  1  0
  1 32  1  0
  1 33  1  0
  1 34  1  0
  4 35  1  0
  6 36  1  6
  7 37  1  0
  7 38  1  0
 10 39  1  6
 14 40  1  0
 15 41  1  0
 16 42  1  0
 17 43  1  0
 22 44  1  0
 23 45  1  0
 24 46  1  0
 25 47  1  0
 26 48  1  0
 27 49  1  0
 27 50  1  0
 28 51  1  0
 29 52  1  0
 31 53  1  0
M  END
>  <UniqueID>  (64) 
62

>  <SMILES>  (64) 
COc1cc([C@H]2CC(=O)[C@@H]3C(=Nc4ccccc4N=C3c3ccccc3)C2)ccc1O

>  <Energy>  (64) 
93.28243862199292

>  <Genealogy>  (64) 
COc1cc([C@H]2CC(=O)[C@@H]3C(=Nc4ccccc4N=C3c3ccccc3)C2)ccc1O (chirality)
COc1cc([C@H]2CC(=O)[C@@H]3C(=Nc4ccccc4N=C3c3ccccc3)C2)ccc1O (3D coordinates assigned)
COc1cc([C@H]2CC(=O)[C@@H]3C(=Nc4ccccc4N=C3c3ccccc3)C2)ccc1O (nonaromatic ring conformer: 93.28243862199292 kcal/mol)

>  <smiles>  (64) 
COc1cc(C2CC(=O)C3C(=Nc4ccccc4N=C3c3ccccc3)C2)ccc1O

>  <score_type>  (64) 
oracle

>  <origin>  (64) 
adg

>  <m_score__min__energy>  (64) 
-7.2400000000000002

>  <m_primary>  (64) 
energy

$$$$
64:0
     RDKit          3D

 67 70  0  0  0  0  0  0  0  0999 V2000
   62.2480   32.3090   51.7820 C   0  0  0  0  0  0  0  0  0  0  0  0
   63.2640   31.6300   50.8620 C   0  0  0  0  0  0  0  0  0  0  0  0
   64.0460   32.6150   50.0750 N   0  0  0  0  0  0  0  0  0  0  0  0
   64.0100   32.3780   48.6140 C   0  0  0  0  0  0  0  0  0  0  0  0
   62.5970   32.5690   48.0380 C   0  0  0  0  0  0  0  0  0  0  0  0
   61.9020   33.6660   48.7250 N   0  0  0  0  0  0  0  0  0  0  0  0
   60.4650   33.6800   48.8050 C   0  0  0  0  0  0  0  0  0  0  0  0
   59.9020   34.0200   49.8820 O   0  0  0  0  0  0  0  0  0  0  0  0
   59.6310   33.2860   47.6470 C   0  0  0  0  0  0  0  0  0  0  0  0
   58.8700   32.1070   47.6900 C   0  0  0  0  0  0  0  0  0  0  0  0
   58.1070   31.7170   46.5860 C   0  0  0  0  0  0  0  0  0  0  0  0
   58.0970   32.5000   45.4200 C   0  0  0  0  0  0  0  0  0  0  0  0
   57.3260   32.1230   44.2710 N   0  0  0  0  0  0  0  0  0  0  0  0
   56.7570   30.5100   43.9690 S   0  0  0  0  0  0  0  0  0  0  0  0
   56.6610   30.3040   42.4830 O   0  0  0  0  0  0  0  0  0  0  0  0
   55.3930   30.2900   44.5600 O   0  0  0  0  0  0  0  0  0  0  0  0
   57.9060   29.3690   44.6650 C   0  0  0  0  0  0  0  0  0  0  0  0
   59.2790   29.5980   44.5190 C   0  0  0  0  0  0  0  0  0  0  0  0
   60.2010   28.6930   45.0470 C   0  0  0  0  0  0  0  0  0  0  0  0
   59.7580   27.5480   45.7110 C   0  0  0  0  0  0  0  0  0  0  0  0
   58.3900   27.2880   45.8380 C   0  0  0  0  0  0  0  0  0  0  0  0
   57.9770   26.1130   46.5510 N   0  0  0  0  0  0  0  0  0  0  0  0
   56.6380   25.6310   46.7520 C   0  0  0  0  0  0  0  0  0  0  0  0
   56.4050   24.9020   47.7520 O   0  0  0  0  0  0  0  0  0  0  0  0
   55.5120   25.9210   45.7970 C   0  0  0  0  0  0  0  0  0  0  0  0
   54.4320   24.9540   45.9690 N   0  0  0  0  0  0  0  0  0  0  0  0
   54.3790   23.6910   45.2880 C   0  0  0  0  0  0  0  0  0  0  0  0
   53.2580   23.1600   45.0670 O   0  0  0  0  0  0  0  0  0  0  0  0
   55.6000   23.0150   44.8130 C   0  0  0  0  0  0  0  0  0  0  0  0
   56.5500   22.5540   45.7390 C   0  0  0  0  0  0  0  0  0  0  0  0
   57.7030   21.8970   45.2950 C   0  0  0  0  0  0  0  0  0  0  0  0
   57.9170   21.7040   43.9250 C   0  0  0  0  0  0  0  0  0  0  0  0
   56.9860   22.1780   42.9970 C   0  0  0  0  0  0  0  0  0  0  0  0
   55.8350   22.8420   43.4380 C   0  0  0  0  0  0  0  0  0  0  0  0
   54.9720   23.3540   42.5280 F   0  0  0  0  0  0  0  0  0  0  0  0
   57.4620   28.2170   45.3360 C   0  0  0  0  0  0  0  0  0  0  0  0
   58.8420   33.6850   45.3810 C   0  0  0  0  0  0  0  0  0  0  0  0
   59.6200   34.0680   46.4800 C   0  0  0  0  0  0  0  0  0  0  0  0
   62.7010   34.6750   49.4270 C   0  0  0  0  0  0  0  0  0  0  0  0
   63.6840   34.0160   50.4190 C   0  0  0  0  0  0  0  0  0  0  0  0
   62.5231   32.1252   52.8311 H   0  0  0  0  0  0  0  0  0  0  0  0
   62.2442   33.3918   51.5883 H   0  0  0  0  0  0  0  0  0  0  0  0
   61.2461   31.8983   51.5883 H   0  0  0  0  0  0  0  0  0  0  0  0
   63.9567   31.0352   51.4755 H   0  0  0  0  0  0  0  0  0  0  0  0
   62.7108   30.9932   50.1560 H   0  0  0  0  0  0  0  0  0  0  0  0
   64.6936   33.0854   48.1218 H   0  0  0  0  0  0  0  0  0  0  0  0
   64.3163   31.3378   48.4292 H   0  0  0  0  0  0  0  0  0  0  0  0
   62.6724   32.8040   46.9661 H   0  0  0  0  0  0  0  0  0  0  0  0
   62.0258   31.6405   48.1849 H   0  0  0  0  0  0  0  0  0  0  0  0
   58.8743   31.4864   48.5982 H   0  0  0  0  0  0  0  0  0  0  0  0
   57.5118   30.7930   46.6304 H   0  0  0  0  0  0  0  0  0  0  0  0
   59.6323   30.4935   43.9868 H   0  0  0  0  0  0  0  0  0  0  0  0
   61.2792   28.8825   44.9396 H   0  0  0  0  0  0  0  0  0  0  0  0
   60.4897   26.8458   46.1371 H   0  0  0  0  0  0  0  0  0  0  0  0
   55.1257   26.9328   45.9897 H   0  0  0  0  0  0  0  0  0  0  0  0
   55.8923   25.8493   44.7673 H   0  0  0  0  0  0  0  0  0  0  0  0
   56.3873   22.7097   46.8157 H   0  0  0  0  0  0  0  0  0  0  0  0
   58.4421   21.5318   46.0233 H   0  0  0  0  0  0  0  0  0  0  0  0
   58.8192   21.1786   43.5786 H   0  0  0  0  0  0  0  0  0  0  0  0
   57.1573   22.0295   41.9206 H   0  0  0  0  0  0  0  0  0  0  0  0
   56.3843   28.0415   45.4690 H   0  0  0  0  0  0  0  0  0  0  0  0
   58.8158   34.3183   44.4820 H   0  0  0  0  0  0  0  0  0  0  0  0
   60.2253   34.9851   46.4296 H   0  0  0  0  0  0  0  0  0  0  0  0
   63.2721   35.2577   48.6892 H   0  0  0  0  0  0  0  0  0  0  0  0
   62.0198   35.3278   49.9926 H   0  0  0  0  0  0  0  0  0  0  0  0
   64.6060   34.6155   50.4413 H   0  0  0  0  0  0  0  0  0  0  0  0
   63.1756   33.9820   51.3939 H   0  0  0  0  0  0  0  0  0  0  0  0
  1  2  1  0
  2  3  1  0
  3  4  1  0
  4  5  1  0
  5  6  1  0
  6  7  1  0
  7  8  2  0
  7  9  1  0
  9 10  2  0
 10 11  1  0
 11 12  2  0
 12 13  1  0
 13 14  1  0
 14 15  2  0
 14 16  2  0
 14 17  1  0
 17 18  2  0
 18 19  1  0
 19 20  2  0
 20 21  1  0
 21 22  1  0
 22 23  1  0
 23 24  2  0
 23 25  1  0
 25 26  1  0
 26 27  1  0
 27 28  2  0
 27 29  1  0
 29 30  2  0
 30 31  1  0
 31 32  2  0
 32 33  1  0
 33 34  2  0
 34 35  1  0
 21 36  2  0
 12 37  1  0
 37 38  2  0
  6 39  1  0
 39 40  1  0
 40  3  1  0
 38  9  1  0
 36 17  1  0
 34 29  1  0
  1 41  1  0
  1 42  1  0
  1 43  1  0
  2 44  1  0
  2 45  1  0
  4 46  1  0
  4 47  1  0
  5 48  1  0
  5 49  1  0
 10 50  1  0
 11 51  1  0
 18 52  1  0
 19 53  1  0
 20 54  1  0
 25 55  1  0
 25 56  1  0
 30 57  1  0
 31 58  1  0
 32 59  1  0
 33 60  1  0
 36 61  1  0
 37 62  1  0
 38 63  1  0
 39 64  1  0
 39 65  1  0
 40 66  1  0
 40 67  1  0
M  CHG  3  13  -1  22  -1  26  -1
M  END
>  <UniqueID>  (65) 
63

>  <SMILES>  (65) 
CCN1CCN(C(=O)c2ccc([N-]S(=O)(=O)c3cccc([N-]C(=O)C[N-]C(=O)c4ccccc4F)c3)cc2)CC1

>  <Energy>  (65) 
99.18224143234809

>  <Genealogy>  (65) 
CCN1CCN(C(=O)c2ccc([N-]S(=O)(=O)c3cccc([N-]C(=O)C[N-]C(=O)c4ccccc4F)c3)cc2)CC1 (protonated)
CCN1CCN(C(=O)c2ccc([N-]S(=O)(=O)c3cccc([N-]C(=O)C[N-]C(=O)c4ccccc4F)c3)cc2)CC1 (3D coordinates assigned)
CCN1CCN(C(=O)c2ccc([N-]S(=O)(=O)c3cccc([N-]C(=O)C[N-]C(=O)c4ccccc4F)c3)cc2)CC1 (nonaromatic ring conformer: 99.18224143234809 kcal/mol)

>  <smiles>  (65) 
CCN1CCN(C(=O)c2ccc(NS(=O)(=O)c3cccc(NC(=O)CNC(=O)c4ccccc4F)c3)cc2)CC1

>  <score_type>  (65) 
oracle

>  <origin>  (65) 
adg

>  <m_score__min__energy>  (65) 
-14.869999999999999

>  <m_primary>  (65) 
energy

$$$$
65:0
     RDKit          3D

 43 44  0  0  0  0  0  0  0  0999 V2000
   58.6870   31.8280   48.9670 C   0  0  0  0  0  0  0  0  0  0  0  0
   58.3580   31.4220   47.6420 O   0  0  0  0  0  0  0  0  0  0  0  0
   58.5150   30.1190   47.1430 C   0  0  0  0  0  0  0  0  0  0  0  0
   59.3030   29.1600   47.8100 C   0  0  0  0  0  0  0  0  0  0  0  0
   59.4000   27.8560   47.3210 C   0  0  0  0  0  0  0  0  0  0  0  0
   58.6950   27.4780   46.1710 C   0  0  0  0  0  0  0  0  0  0  0  0
   58.8250   26.0870   45.6210 C   0  0  0  0  0  0  0  0  0  0  0  0
   57.9260   28.4320   45.4930 C   0  0  0  0  0  0  0  0  0  0  0  0
   57.8460   29.7510   45.9570 C   0  0  0  0  0  0  0  0  0  0  0  0
   57.0270   30.6750   45.2270 N   0  0  0  0  0  0  0  0  0  0  0  0
   57.4160   31.3930   44.0500 C   0  0  0  0  0  0  0  0  0  0  0  0
   57.0620   30.9930   42.9080 O   0  0  0  0  0  0  0  0  0  0  0  0
   58.1780   32.6840   44.1910 C   0  0  0  0  0  0  0  0  0  0  0  0
   58.3650   33.1100   45.5980 N   0  0  2  0  0  0  0  0  0  0  0  0
   57.1900   33.8170   46.1400 C   0  0  0  0  0  0  0  0  0  0  0  0
   59.5790   33.8910   45.7530 C   0  0  0  0  0  0  0  0  0  0  0  0
   59.6290   35.0740   45.3110 O   0  0  0  0  0  0  0  0  0  0  0  0
   60.7870   33.2890   46.3690 C   0  0  0  0  0  0  0  0  0  0  0  0
   61.9190   33.9920   46.5320 C   0  0  0  0  0  0  0  0  0  0  0  0
   63.0230   33.4000   47.1580 O   0  0  0  0  0  0  0  0  0  0  0  0
   62.9070   32.1720   47.8800 C   0  0  0  0  0  0  0  0  0  0  0  0
   61.9420   31.2390   47.1470 C   0  0  0  0  0  0  0  0  0  0  0  0
   60.7540   31.9530   46.7970 O   0  0  0  0  0  0  0  0  0  0  0  0
   58.1643   31.1830   49.6886 H   0  0  0  0  0  0  0  0  0  0  0  0
   59.7732   31.7418   49.1179 H   0  0  0  0  0  0  0  0  0  0  0  0
   58.3776   32.8728   49.1179 H   0  0  0  0  0  0  0  0  0  0  0  0
   59.8465   29.4413   48.7240 H   0  0  0  0  0  0  0  0  0  0  0  0
   60.0330   27.1219   47.8411 H   0  0  0  0  0  0  0  0  0  0  0  0
   58.8921   25.3690   46.4517 H   0  0  0  0  0  0  0  0  0  0  0  0
   57.9448   25.8529   45.0042 H   0  0  0  0  0  0  0  0  0  0  0  0
   59.7333   26.0200   45.0042 H   0  0  0  0  0  0  0  0  0  0  0  0
   57.3779   28.1417   44.5845 H   0  0  0  0  0  0  0  0  0  0  0  0
   59.1692   32.5551   43.7317 H   0  0  0  0  0  0  0  0  0  0  0  0
   57.5854   33.4653   43.6927 H   0  0  0  0  0  0  0  0  0  0  0  0
   58.4570   32.2370   46.1700 H   0  0  0  0  0  0  0  0  0  0  0  0
   57.2245   33.7963   47.2393 H   0  0  0  0  0  0  0  0  0  0  0  0
   57.1975   34.8607   45.7925 H   0  0  0  0  0  0  0  0  0  0  0  0
   56.2714   33.3215   45.7925 H   0  0  0  0  0  0  0  0  0  0  0  0
   61.9792   35.0306   46.1747 H   0  0  0  0  0  0  0  0  0  0  0  0
   63.8952   31.6943   47.9521 H   0  0  0  0  0  0  0  0  0  0  0  0
   62.5236   32.3756   48.8907 H   0  0  0  0  0  0  0  0  0  0  0  0
   62.4232   30.8597   46.2334 H   0  0  0  0  0  0  0  0  0  0  0  0
   61.6804   30.3963   47.8039 H   0  0  0  0  0  0  0  0  0  0  0  0
  1  2  1  0
  2  3  1  0
  3  4  2  0
  4  5  1  0
  5  6  2  0
  6  7  1  0
  6  8  1  0
  8  9  2  0
  9 10  1  0
 10 11  1  0
 11 12  2  0
 11 13  1  0
 13 14  1  0
 14 15  1  0
 14 16  1  0
 16 17  2  0
 16 18  1  0
 18 19  2  0
 19 20  1  0
 20 21  1  0
 21 22  1  0
 22 23  1  0
  9  3  1  0
 23 18  1  0
  1 24  1  0
  1 25  1  0
  1 26  1  0
  4 27  1  0
  5 28  1  0
  7 29  1  0
  7 30  1  0
  7 31  1  0
  8 32  1  0
 13 33  1  0
 13 34  1  0
 14 35  1  1
 15 36  1  0
 15 37  1  0
 15 38  1  0
 19 39  1  0
 21 40  1  0
 21 41  1  0
 22 42  1  0
 22 43  1  0
M  CHG  2  10  -1  14   1
M  END
>  <UniqueID>  (66) 
64

>  <SMILES>  (66) 
COc1ccc(C)cc1[N-]C(=O)C[N@H+](C)C(=O)C1=COCCO1

>  <Energy>  (66) 
49.8908054830679

>  <Genealogy>  (66) 
COc1ccc(C)cc1[N-]C(=O)C[NH+](C)C(=O)C1=COCCO1 (protonated)
COc1ccc(C)cc1[N-]C(=O)C[N@H+](C)C(=O)C1=COCCO1 (chirality)
COc1ccc(C)cc1[N-]C(=O)C[N@H+](C)C(=O)C1=COCCO1 (3D coordinates assigned)
COc1ccc(C)cc1[N-]C(=O)C[N@H+](C)C(=O)C1=COCCO1 (nonaromatic ring conformer: 49.8908054830679 kcal/mol)

>  <smiles>  (66) 
COc1ccc(C)cc1NC(=O)CN(C)C(=O)C1=COCCO1

>  <score_type>  (66) 
oracle

>  <origin>  (66) 
adg

>  <m_score__min__energy>  (66) 
-6.6600000000000001

>  <m_primary>  (66) 
energy

$$$$
66:0
     RDKit          3D

 42 43  0  0  0  0  0  0  0  0999 V2000
   63.5690   33.0190   47.1550 C   0  0  0  0  0  0  0  0  0  0  0  0
   62.2210   33.6310   46.7900 C   0  0  0  0  0  0  0  0  0  0  0  0
   61.1850   33.3220   47.8440 C   0  0  0  0  0  0  0  0  0  0  0  0
   61.1630   34.0940   49.0200 C   0  0  0  0  0  0  0  0  0  0  0  0
   60.2190   33.8420   50.0180 C   0  0  0  0  0  0  0  0  0  0  0  0
   59.2790   32.8250   49.8530 C   0  0  0  0  0  0  0  0  0  0  0  0
   59.2790   32.0560   48.6880 C   0  0  0  0  0  0  0  0  0  0  0  0
   60.2300   32.2880   47.6760 C   0  0  0  0  0  0  0  0  0  0  0  0
   60.1900   31.5090   46.4670 N   0  0  0  0  0  0  0  0  0  0  0  0
   59.6130   30.1970   46.3980 C   0  0  0  0  0  0  0  0  0  0  0  0
   59.2780   29.5880   47.4500 O   0  0  0  0  0  0  0  0  0  0  0  0
   59.3760   29.5520   45.0670 C   0  0  0  0  0  0  0  0  0  0  0  0
   57.9380   29.3280   44.8670 N   0  0  0  0  0  0  0  0  0  0  0  0
   57.3990   27.9720   45.0200 C   0  0  0  0  0  0  0  0  0  0  0  0
   57.0950   30.4190   44.4250 C   0  0  0  0  0  0  0  0  0  0  0  0
   55.8810   30.4490   44.7760 O   0  0  0  0  0  0  0  0  0  0  0  0
   57.6400   31.5720   43.6180 C   0  0  0  0  0  0  0  0  0  0  0  0
   57.9500   32.7490   44.4930 C   0  0  0  0  0  0  0  0  0  0  0  0
   58.8990   33.7300   44.2360 C   0  0  0  0  0  0  0  0  0  0  0  0
   59.0060   34.6730   45.2640 C   0  0  0  0  0  0  0  0  0  0  0  0
   58.1530   34.4310   46.3330 C   0  0  0  0  0  0  0  0  0  0  0  0
   57.2670   33.0400   46.0010 S   0  0  0  0  0  0  0  0  0  0  0  0
   63.6671   32.9745   48.2497 H   0  0  0  0  0  0  0  0  0  0  0  0
   63.6349   32.0027   46.7393 H   0  0  0  0  0  0  0  0  0  0  0  0
   64.3775   33.6383   46.7393 H   0  0  0  0  0  0  0  0  0  0  0  0
   62.3325   34.7219   46.7037 H   0  0  0  0  0  0  0  0  0  0  0  0
   61.8878   33.2016   45.8337 H   0  0  0  0  0  0  0  0  0  0  0  0
   61.8958   34.9033   49.1546 H   0  0  0  0  0  0  0  0  0  0  0  0
   60.2169   34.4472   50.9365 H   0  0  0  0  0  0  0  0  0  0  0  0
   58.5373   32.6288   50.6412 H   0  0  0  0  0  0  0  0  0  0  0  0
   58.5292   31.2615   48.5594 H   0  0  0  0  0  0  0  0  0  0  0  0
   60.6400   31.8930   45.6070 H   0  0  0  0  0  0  0  0  0  0  0  0
   59.7567   30.2087   44.2709 H   0  0  0  0  0  0  0  0  0  0  0  0
   59.9002   28.5854   45.0353 H   0  0  0  0  0  0  0  0  0  0  0  0
   57.3042   27.7336   46.0897 H   0  0  0  0  0  0  0  0  0  0  0  0
   56.4097   27.9146   44.5425 H   0  0  0  0  0  0  0  0  0  0  0  0
   58.0789   27.2511   44.5425 H   0  0  0  0  0  0  0  0  0  0  0  0
   58.5611   31.2504   43.1100 H   0  0  0  0  0  0  0  0  0  0  0  0
   56.8776   31.8747   42.8851 H   0  0  0  0  0  0  0  0  0  0  0  0
   59.5045   33.7622   43.3182 H   0  0  0  0  0  0  0  0  0  0  0  0
   59.7002   35.5256   45.2289 H   0  0  0  0  0  0  0  0  0  0  0  0
   58.0707   35.0446   47.2422 H   0  0  0  0  0  0  0  0  0  0  0  0
  1  2  1  0
  2  3  1  0
  3  4  2  0
  4  5  1  0
  5  6  2  0
  6  7  1  0
  7  8  2  0
  8  9  1  0
  9 10  1  0
 10 11  2  0
 10 12  1  0
 12 13  1  0
 13 14  1  0
 13 15  1  0
 15 16  2  0
 15 17  1  0
 17 18  1  0
 18 19  2  0
 19 20  1  0
 20 21  2  0
 21 22  1  0
  8  3  1  0
 22 18  1  0
  1 23  1  0
  1 24  1  0
  1 25  1  0
  2 26  1  0
  2 27  1  0
  4 28  1  0
  5 29  1  0
  6 30  1  0
  7 31  1  0
  9 32  1  0
 12 33  1  0
 12 34  1  0
 14 35  1  0
 14 36  1  0
 14 37  1  0
 17 38  1  0
 17 39  1  0
 19 40  1  0
 20 41  1  0
 21 42  1  0
M  END
>  <UniqueID>  (67) 
65

>  <SMILES>  (67) 
CCc1ccccc1NC(=O)CN(C)C(=O)Cc1cccs1

>  <Energy>  (67) 
65.48605054131397

>  <Genealogy>  (67) 
CCc1ccccc1NC(=O)CN(C)C(=O)Cc1cccs1 (3D coordinates assigned)
CCc1ccccc1NC(=O)CN(C)C(=O)Cc1cccs1 (optimized conformer: 65.48605054131397 kcal/mol)

>  <smiles>  (67) 
CCc1ccccc1NC(=O)CN(C)C(=O)Cc1cccs1

>  <score_type>  (67) 
oracle

>  <origin>  (67) 
adg

>  <m_score__min__energy>  (67) 
-8.0700000000000003

>  <m_primary>  (67) 
energy

$$$$
67:0
     RDKit          3D

 45 46  0  0  0  0  0  0  0  0999 V2000
   58.8277   27.4943   48.2797 H   0  0  0  0  0  0  0  0  0  0  0  0
   58.8240   28.3520   47.5910 C   0  0  0  0  0  0  0  0  0  0  0  0
   57.9850   28.3470   46.6000 N   0  0  0  0  0  0  0  0  0  0  0  0
   58.3460   28.6980   45.3180 O   0  0  0  0  0  0  0  0  0  0  0  0
   57.4100   28.5920   44.2590 C   0  0  0  0  0  0  0  0  0  0  0  0
   57.9190   28.7926   43.3047 H   0  0  0  0  0  0  0  0  0  0  0  0
   56.9881   27.5761   44.2580 H   0  0  0  0  0  0  0  0  0  0  0  0
   56.2950   29.5800   44.4410 C   0  0  0  0  0  0  0  0  0  0  0  0
   55.1850   29.1840   44.8810 O   0  0  0  0  0  0  0  0  0  0  0  0
   56.4410   30.9490   44.0450 N   0  0  0  0  0  0  0  0  0  0  0  0
   57.3130   31.8840   44.6870 C   0  0  0  0  0  0  0  0  0  0  0  0
   57.7680   31.6280   45.9860 C   0  0  0  0  0  0  0  0  0  0  0  0
   57.4441   30.7176   46.5116 H   0  0  0  0  0  0  0  0  0  0  0  0
   58.6340   32.5280   46.6170 C   0  0  0  0  0  0  0  0  0  0  0  0
   58.9756   32.3316   47.6440 H   0  0  0  0  0  0  0  0  0  0  0  0
   59.0680   33.6800   45.9440 C   0  0  0  0  0  0  0  0  0  0  0  0
   60.1680   34.8060   46.7300 S   0  0  0  0  0  0  0  0  0  0  0  0
   61.5860   34.3320   46.5660 O   0  0  0  0  0  0  0  0  0  0  0  0
   59.8540   34.8830   48.1980 O   0  0  0  0  0  0  0  0  0  0  0  0
   59.9910   36.3730   46.0220 N   0  0  0  0  0  0  0  0  0  0  0  0
   59.5670   36.9920   46.7490 H   0  0  0  0  0  0  0  0  0  0  0  0
   59.2880   36.2870   45.2520 H   0  0  0  0  0  0  0  0  0  0  0  0
   58.6490   33.9090   44.6270 C   0  0  0  0  0  0  0  0  0  0  0  0
   59.0046   34.7975   44.0847 H   0  0  0  0  0  0  0  0  0  0  0  0
   57.7810   33.0120   44.0010 C   0  0  0  0  0  0  0  0  0  0  0  0
   57.4630   33.1922   42.9635 H   0  0  0  0  0  0  0  0  0  0  0  0
   59.7740   29.4570   47.8360 C   0  0  0  0  0  0  0  0  0  0  0  0
   59.6930   30.1740   49.0360 C   0  0  0  0  0  0  0  0  0  0  0  0
   58.9184   29.9186   49.7740 H   0  0  0  0  0  0  0  0  0  0  0  0
   60.5900   31.2120   49.3020 C   0  0  0  0  0  0  0  0  0  0  0  0
   60.5213   31.7576   50.2547 H   0  0  0  0  0  0  0  0  0  0  0  0
   61.5830   31.5700   48.3650 C   0  0  0  0  0  0  0  0  0  0  0  0
   62.5350   32.6300   48.6530 N   0  0  0  0  0  0  0  0  0  0  0  0
   63.7860   32.7420   47.8920 C   0  0  0  0  0  0  0  0  0  0  0  0
   64.6336   32.8179   48.5890 H   0  0  0  0  0  0  0  0  0  0  0  0
   63.9108   31.8514   47.2585 H   0  0  0  0  0  0  0  0  0  0  0  0
   63.7506   33.6406   47.2585 H   0  0  0  0  0  0  0  0  0  0  0  0
   62.2600   33.6140   49.7090 C   0  0  0  0  0  0  0  0  0  0  0  0
   62.3920   33.1417   50.6936 H   0  0  0  0  0  0  0  0  0  0  0  0
   62.9561   34.4602   49.6120 H   0  0  0  0  0  0  0  0  0  0  0  0
   61.2261   33.9767   49.6120 H   0  0  0  0  0  0  0  0  0  0  0  0
   61.6280   30.8670   47.1430 C   0  0  0  0  0  0  0  0  0  0  0  0
   62.3804   31.1384   46.3879 H   0  0  0  0  0  0  0  0  0  0  0  0
   60.7280   29.8290   46.8790 C   0  0  0  0  0  0  0  0  0  0  0  0
   60.7693   29.3016   45.9145 H   0  0  0  0  0  0  0  0  0  0  0  0
  1  2  1  0
  2  3  2  0
  3  4  1  0
  4  5  1  0
  5  6  1  0
  5  7  1  0
  5  8  1  0
  8  9  2  0
  8 10  1  0
 10 11  1  0
 11 12  2  0
 12 13  1  0
 12 14  1  0
 14 15  1  0
 14 16  2  0
 16 17  1  0
 17 18  2  0
 17 19  2  0
 17 20  1  0
 20 21  1  0
 20 22  1  0
 16 23  1  0
 23 24  1  0
 23 25  2  0
 25 26  1  0
  2 27  1  0
 27 28  2  0
 28 29  1  0
 28 30  1  0
 30 31  1  0
 30 32  2  0
 32 33  1  0
 33 34  1  0
 34 35  1  0
 34 36  1  0
 34 37  1  0
 33 38  1  0
 38 39  1  0
 38 40  1  0
 38 41  1  0
 32 42  1  0
 42 43  1  0
 42 44  2  0
 44 45  1  0
 25 11  1  0
 44 27  1  0
M  CHG  1  10  -1
M  END
>  <UniqueID>  (68) 
66

>  <SMILES>  (68) 
CN(C)c1ccc(/C=N\OCC(=O)[N-]c2ccc(S(N)(=O)=O)cc2)cc1

>  <Energy>  (68) 
48.59287978075973

>  <Genealogy>  (68) 
CN(C)c1ccc(C=NOCC(=O)[N-]c2ccc(S(N)(=O)=O)cc2)cc1 (protonated)
CN(C)c1ccc(/C=N\OCC(=O)[N-]c2ccc(S(N)(=O)=O)cc2)cc1 (cis-trans isomerization)
CN(C)c1ccc(/C=N\OCC(=O)[N-]c2ccc(S(N)(=O)=O)cc2)cc1 (3D coordinates assigned)
CN(C)c1ccc(/C=N\OCC(=O)[N-]c2ccc(S(N)(=O)=O)cc2)cc1 (optimized conformer: 48.59287978075973 kcal/mol)

>  <smiles>  (68) 
CN(C)c1ccc(C=NOCC(=O)Nc2ccc(S(N)(=O)=O)cc2)cc1

>  <score_type>  (68) 
oracle

>  <origin>  (68) 
adg

>  <m_score__min__energy>  (68) 
-10.23

>  <m_primary>  (68) 
energy

$$$$
68:0
     RDKit          3D

 35 38  0  0  0  0  0  0  0  0999 V2000
   61.2930   33.3960   47.2280 C   0  0  0  0  0  0  0  0  0  0  0  0
   60.0580   33.4060   46.3680 C   0  0  0  0  0  0  0  0  0  0  0  0
   59.6510   34.5870   45.7390 C   0  0  0  0  0  0  0  0  0  0  0  0
   58.5110   34.5950   44.9460 C   0  0  0  0  0  0  0  0  0  0  0  0
   57.7770   33.4220   44.7780 C   0  0  0  0  0  0  0  0  0  0  0  0
   58.1630   32.2550   45.3890 N   0  0  0  0  0  0  0  0  0  0  0  0
   57.4290   31.1040   45.2160 C   0  0  0  0  0  0  0  0  0  0  0  0
   56.3910   31.1090   44.4930 O   0  0  0  0  0  0  0  0  0  0  0  0
   57.8270   29.9090   45.8420 C   0  0  0  0  0  0  0  0  0  0  0  0
   57.1060   28.6990   45.6950 C   0  0  0  0  0  0  0  0  0  0  0  0
   57.5300   27.5180   46.3390 C   0  0  0  0  0  0  0  0  0  0  0  0
   56.6090   26.0240   46.1250 S   0  0  0  0  0  0  0  0  0  0  0  0
   57.1500   25.1910   44.6500 C   0  0  0  0  0  0  0  0  0  0  0  0
   55.1440   26.3370   45.9920 O   0  0  0  0  0  0  0  0  0  0  0  0
   56.7970   25.1330   47.3200 O   0  0  0  0  0  0  0  0  0  0  0  0
   58.6960   27.5670   47.1280 C   0  0  0  0  0  0  0  0  0  0  0  0
   59.2880   26.5070   47.8360 C   0  0  0  0  0  0  0  0  0  0  0  0
   60.4410   26.8820   48.5200 C   0  0  0  0  0  0  0  0  0  0  0  0
   60.7340   28.5200   48.2510 S   0  0  0  0  0  0  0  0  0  0  0  0
   59.3950   28.7590   47.2640 C   0  0  0  0  0  0  0  0  0  0  0  0
   58.9860   29.9340   46.6400 C   0  0  0  0  0  0  0  0  0  0  0  0
   59.6840   31.0830   46.7880 N   0  0  0  0  0  0  0  0  0  0  0  0
   59.2960   32.2360   46.1810 C   0  0  0  0  0  0  0  0  0  0  0  0
   61.0013   33.3984   48.2886 H   0  0  0  0  0  0  0  0  0  0  0  0
   61.8829   32.4930   47.0120 H   0  0  0  0  0  0  0  0  0  0  0  0
   61.8975   34.2893   47.0120 H   0  0  0  0  0  0  0  0  0  0  0  0
   60.2342   35.5101   45.8725 H   0  0  0  0  0  0  0  0  0  0  0  0
   58.1885   35.5236   44.4523 H   0  0  0  0  0  0  0  0  0  0  0  0
   56.8760   33.4316   44.1471 H   0  0  0  0  0  0  0  0  0  0  0  0
   56.2016   28.6799   45.0691 H   0  0  0  0  0  0  0  0  0  0  0  0
   57.7301   24.2978   44.9251 H   0  0  0  0  0  0  0  0  0  0  0  0
   56.2741   24.8908   44.0562 H   0  0  0  0  0  0  0  0  0  0  0  0
   57.7805   25.8691   44.0562 H   0  0  0  0  0  0  0  0  0  0  0  0
   58.8816   25.4849   47.8484 H   0  0  0  0  0  0  0  0  0  0  0  0
   61.0616   26.2159   49.1373 H   0  0  0  0  0  0  0  0  0  0  0  0
  1  2  1  0
  2  3  2  0
  3  4  1  0
  4  5  2  0
  5  6  1  0
  6  7  1  0
  7  8  2  0
  7  9  1  0
  9 10  2  0
 10 11  1  0
 11 12  1  0
 12 13  1  0
 12 14  2  0
 12 15  2  0
 11 16  2  0
 16 17  1  0
 17 18  2  0
 18 19  1  0
 19 20  1  0
 20 21  2  0
 21 22  1  0
 22 23  2  0
 23  2  1  0
 23  6  1  0
 21  9  1  0
 20 16  1  0
  1 24  1  0
  1 25  1  0
  1 26  1  0
  3 27  1  0
  4 28  1  0
  5 29  1  0
 10 30  1  0
 13 31  1  0
 13 32  1  0
 13 33  1  0
 17 34  1  0
 18 35  1  0
M  END
>  <UniqueID>  (69) 
67

>  <SMILES>  (69) 
Cc1cccn2c(=O)c3cc(S(C)(=O)=O)c4ccsc4c3nc12

>  <Energy>  (69) 
78.13476683533698

>  <Genealogy>  (69) 
Cc1cccn2c(=O)c3cc(S(C)(=O)=O)c4ccsc4c3nc12 (3D coordinates assigned)
Cc1cccn2c(=O)c3cc(S(C)(=O)=O)c4ccsc4c3nc12 (optimized conformer: 78.13476683533698 kcal/mol)

>  <smiles>  (69) 
Cc1cccn2c(=O)c3cc(S(C)(=O)=O)c4ccsc4c3nc12

>  <score_type>  (69) 
oracle

>  <origin>  (69) 
adg

>  <m_score__min__energy>  (69) 
-9.0099999999999998

>  <m_primary>  (69) 
energy

$$$$
69:0
     RDKit          3D

 52 54  0  0  0  0  0  0  0  0999 V2000
   56.4070   24.1540   46.7550 C   0  0  0  0  0  0  0  0  0  0  0  0
   57.0810   25.3080   47.4880 C   0  0  0  0  0  0  0  0  0  0  0  0
   57.5180   26.3310   46.5360 N   0  0  0  0  0  0  0  0  0  0  0  0
   56.7270   27.0670   45.7330 C   0  0  0  0  0  0  0  0  0  0  0  0
   55.3380   27.0050   45.7260 O   0  0  0  0  0  0  0  0  0  0  0  0
   57.5060   27.8620   44.9180 C   0  0  0  0  0  0  0  0  0  0  0  0
   56.9980   28.7650   43.8300 C   0  0  0  0  0  0  0  0  0  0  0  0
   56.9920   30.1870   44.3030 C   0  0  0  0  0  0  0  0  0  0  0  0
   55.9510   30.6600   44.8330 O   0  0  0  0  0  0  0  0  0  0  0  0
   58.1540   31.0100   44.1190 N   0  0  0  0  0  0  0  0  0  0  0  0
   58.3980   32.2200   44.8540 C   0  0  0  0  0  0  0  0  0  0  0  0
   57.7030   33.3880   44.5060 C   0  0  0  0  0  0  0  0  0  0  0  0
   57.9420   34.5830   45.1910 C   0  0  0  0  0  0  0  0  0  0  0  0
   58.8860   34.6240   46.2200 C   0  0  0  0  0  0  0  0  0  0  0  0
   59.6010   33.4700   46.5660 C   0  0  0  0  0  0  0  0  0  0  0  0
   60.8180   33.5180   47.8400 S   0  0  0  0  0  0  0  0  0  0  0  0
   60.8920   31.9860   48.6380 N   0  0  0  0  0  0  0  0  0  0  0  0
   62.1570   33.8430   47.2390 O   0  0  0  0  0  0  0  0  0  0  0  0
   60.4640   34.5700   48.8530 O   0  0  0  0  0  0  0  0  0  0  0  0
   59.3640   32.2740   45.8740 C   0  0  0  0  0  0  0  0  0  0  0  0
   58.8070   27.5990   45.1950 N   0  0  0  0  0  0  0  0  0  0  0  0
   59.9940   28.2140   44.5850 C   0  0  0  0  0  0  0  0  0  0  0  0
   60.4470   29.4500   45.3720 C   0  0  0  0  0  0  0  0  0  0  0  0
   60.0930   29.3380   46.8270 C   0  0  0  0  0  0  0  0  0  0  0  0
   58.7930   29.6210   47.2730 C   0  0  0  0  0  0  0  0  0  0  0  0
   58.5110   29.5640   48.6390 C   0  0  0  0  0  0  0  0  0  0  0  0
   59.5200   29.2270   49.5440 C   0  0  0  0  0  0  0  0  0  0  0  0
   60.8030   28.9540   49.0650 C   0  0  0  0  0  0  0  0  0  0  0  0
   61.0620   29.0200   47.7310 N   0  0  0  0  0  0  0  0  0  0  0  0
   58.7820   26.6650   46.1800 C   0  0  0  0  0  0  0  0  0  0  0  0
   60.1270   25.9870   46.8400 S   0  0  0  0  0  0  0  0  0  0  0  0
   55.9933   23.4457   47.4880 H   0  0  0  0  0  0  0  0  0  0  0  0
   55.5951   24.5447   46.1240 H   0  0  0  0  0  0  0  0  0  0  0  0
   57.1462   23.6388   46.1240 H   0  0  0  0  0  0  0  0  0  0  0  0
   56.3674   25.7535   48.1967 H   0  0  0  0  0  0  0  0  0  0  0  0
   57.9593   24.9239   48.0275 H   0  0  0  0  0  0  0  0  0  0  0  0
   57.6513   28.6771   42.9494 H   0  0  0  0  0  0  0  0  0  0  0  0
   55.9722   28.4688   43.5655 H   0  0  0  0  0  0  0  0  0  0  0  0
   58.8380   30.7320   43.3790 H   0  0  0  0  0  0  0  0  0  0  0  0
   56.9660   33.3634   43.6897 H   0  0  0  0  0  0  0  0  0  0  0  0
   57.3859   35.4924   44.9194 H   0  0  0  0  0  0  0  0  0  0  0  0
   59.0684   35.5648   46.7600 H   0  0  0  0  0  0  0  0  0  0  0  0
   60.9930   31.2560   47.8990 H   0  0  0  0  0  0  0  0  0  0  0  0
   59.9379   31.3715   46.1309 H   0  0  0  0  0  0  0  0  0  0  0  0
   60.8117   27.4784   44.5711 H   0  0  0  0  0  0  0  0  0  0  0  0
   59.7361   28.5281   43.5628 H   0  0  0  0  0  0  0  0  0  0  0  0
   61.5379   29.5540   45.2768 H   0  0  0  0  0  0  0  0  0  0  0  0
   59.9315   30.3295   44.9588 H   0  0  0  0  0  0  0  0  0  0  0  0
   58.0040   29.8851   46.5534 H   0  0  0  0  0  0  0  0  0  0  0  0
   57.4962   29.7841   49.0019 H   0  0  0  0  0  0  0  0  0  0  0  0
   59.3065   29.1772   50.6219 H   0  0  0  0  0  0  0  0  0  0  0  0
   61.6056   28.6851   49.7675 H   0  0  0  0  0  0  0  0  0  0  0  0
  1  2  1  0
  2  3  1  0
  3  4  1  0
  4  5  1  0
  4  6  2  0
  6  7  1  0
  7  8  1  0
  8  9  2  0
  8 10  1  0
 10 11  1  0
 11 12  2  0
 12 13  1  0
 13 14  2  0
 14 15  1  0
 15 16  1  0
 16 17  1  0
 16 18  2  0
 16 19  2  0
 15 20  2  0
  6 21  1  0
 21 22  1  0
 22 23  1  0
 23 24  1  0
 24 25  2  0
 25 26  1  0
 26 27  2  0
 27 28  1  0
 28 29  2  0
 21 30  1  0
 30 31  2  0
 30  3  1  0
 20 11  1  0
 29 24  1  0
  1 32  1  0
  1 33  1  0
  1 34  1  0
  2 35  1  0
  2 36  1  0
  7 37  1  0
  7 38  1  0
 10 39  1  0
 12 40  1  0
 13 41  1  0
 14 42  1  0
 17 43  1  0
 20 44  1  0
 22 45  1  0
 22 46  1  0
 23 47  1  0
 23 48  1  0
 25 49  1  0
 26 50  1  0
 27 51  1  0
 28 52  1  0
M  CHG  2   5  -1  17  -1
M  END
>  <UniqueID>  (70) 
68

>  <SMILES>  (70) 
CCn1c([O-])c(CC(=O)Nc2cccc(S([NH-])(=O)=O)c2)n(CCc2ccccn2)c1=S

>  <Energy>  (70) 
81.37361064352035

>  <Genealogy>  (70) 
CCn1c([O-])c(CC(=O)Nc2cccc(S([NH-])(=O)=O)c2)n(CCc2ccccn2)c1=S (protonated)
CCn1c([O-])c(CC(=O)Nc2cccc(S([NH-])(=O)=O)c2)n(CCc2ccccn2)c1=S (3D coordinates assigned)
CCn1c([O-])c(CC(=O)Nc2cccc(S([NH-])(=O)=O)c2)n(CCc2ccccn2)c1=S (optimized conformer: 81.37361064352035 kcal/mol)

>  <smiles>  (70) 
CCn1c(O)c(CC(=O)Nc2cccc(S(N)(=O)=O)c2)n(CCc2ccccn2)c1=S

>  <score_type>  (70) 
oracle

>  <origin>  (70) 
adg

>  <m_score__min__energy>  (70) 
-12.800000000000001

>  <m_primary>  (70) 
energy

$$$$
70:0
     RDKit          3D

 44 48  0  0  0  0  0  0  0  0999 V2000
   56.7375   27.3584   46.1259 H   0  0  0  0  0  0  0  0  0  0  0  0
   57.7600   27.7390   46.2660 C   0  0  0  0  0  0  0  0  0  0  0  0
   58.4240   27.5230   47.4760 C   0  0  0  0  0  0  0  0  0  0  0  0
   57.9229   26.9689   48.2834 H   0  0  0  0  0  0  0  0  0  0  0  0
   59.7300   28.0100   47.6680 C   0  0  0  0  0  0  0  0  0  0  0  0
   60.4330   27.8070   48.9570 C   0  0  0  0  0  0  0  0  0  0  0  0
   60.7430   26.6390   49.3170 O   0  0  0  0  0  0  0  0  0  0  0  0
   60.7160   28.8960   49.8480 N   0  0  0  0  0  0  0  0  0  0  0  0
   61.1850   30.0600   49.5010 C   0  0  0  0  0  0  0  0  0  0  0  0
   61.8780   30.2410   48.3900 O   0  0  0  0  0  0  0  0  0  0  0  0
   62.1750   31.5170   48.3630 C   0  0  0  0  0  0  0  0  0  0  0  0
   62.8980   32.2250   47.4080 C   0  0  0  0  0  0  0  0  0  0  0  0
   63.3158   31.7245   46.5221 H   0  0  0  0  0  0  0  0  0  0  0  0
   63.0750   33.6070   47.6180 C   0  0  0  0  0  0  0  0  0  0  0  0
   63.6413   34.2028   46.8870 H   0  0  0  0  0  0  0  0  0  0  0  0
   62.5290   34.2330   48.7630 C   0  0  0  0  0  0  0  0  0  0  0  0
   62.6738   35.3126   48.9161 H   0  0  0  0  0  0  0  0  0  0  0  0
   61.8010   33.4840   49.7090 C   0  0  0  0  0  0  0  0  0  0  0  0
   61.3691   33.9573   50.6032 H   0  0  0  0  0  0  0  0  0  0  0  0
   61.6500   32.1210   49.4670 C   0  0  0  0  0  0  0  0  0  0  0  0
   61.0070   31.2070   50.2090 N   0  0  0  0  0  0  0  0  0  0  0  0
   60.4770   31.3690   51.0950 H   0  0  0  0  0  0  0  0  0  0  0  0
   60.3680   28.6860   46.6130 C   0  0  0  0  0  0  0  0  0  0  0  0
   61.3989   29.0480   46.7402 H   0  0  0  0  0  0  0  0  0  0  0  0
   59.7010   28.9010   45.4040 C   0  0  0  0  0  0  0  0  0  0  0  0
   60.2062   29.4353   44.5859 H   0  0  0  0  0  0  0  0  0  0  0  0
   58.3920   28.4380   45.2320 C   0  0  0  0  0  0  0  0  0  0  0  0
   57.5230   28.7440   43.6940 S   0  0  0  0  0  0  0  0  0  0  0  0
   56.6500   30.1580   44.3710 C   0  0  0  0  0  0  0  0  0  0  0  0
   55.3970   30.1060   44.4810 O   0  0  0  0  0  0  0  0  0  0  0  0
   57.3720   31.3630   44.8060 C   0  0  0  0  0  0  0  0  0  0  0  0
   57.8190   32.6370   43.7830 S   0  0  0  0  0  0  0  0  0  0  0  0
   58.5300   33.5570   44.9930 C   0  0  0  0  0  0  0  0  0  0  0  0
   59.1430   34.8020   44.8840 C   0  0  0  0  0  0  0  0  0  0  0  0
   59.2117   35.3154   43.9136 H   0  0  0  0  0  0  0  0  0  0  0  0
   59.6710   35.3840   46.0470 C   0  0  0  0  0  0  0  0  0  0  0  0
   60.1617   36.3670   45.9925 H   0  0  0  0  0  0  0  0  0  0  0  0
   59.5760   34.7160   47.2840 C   0  0  0  0  0  0  0  0  0  0  0  0
   59.9925   35.1807   48.1899 H   0  0  0  0  0  0  0  0  0  0  0  0
   58.9520   33.4590   47.3670 C   0  0  0  0  0  0  0  0  0  0  0  0
   58.8753   32.9345   48.3308 H   0  0  0  0  0  0  0  0  0  0  0  0
   58.4310   32.8880   46.2030 C   0  0  0  0  0  0  0  0  0  0  0  0
   57.7830   31.6520   46.1100 C   0  0  0  0  0  0  0  0  0  0  0  0
   57.6157   30.9828   46.9668 H   0  0  0  0  0  0  0  0  0  0  0  0
  1  2  1  0
  2  3  2  0
  3  4  1  0
  3  5  1  0
  5  6  1  0
  6  7  2  0
  6  8  1  0
  8  9  2  0
  9 10  1  0
 10 11  1  0
 11 12  2  0
 12 13  1  0
 12 14  1  0
 14 15  1  0
 14 16  2  0
 16 17  1  0
 16 18  1  0
 18 19  1  0
 18 20  2  0
 20 21  1  0
 21 22  1  0
  5 23  2  0
 23 24  1  0
 23 25  1  0
 25 26  1  0
 25 27  2  0
 27 28  1  0
 28 29  1  0
 29 30  2  0
 29 31  1  0
 31 32  1  0
 32 33  1  0
 33 34  2  0
 34 35  1  0
 34 36  1  0
 36 37  1  0
 36 38  2  0
 38 39  1  0
 38 40  1  0
 40 41  1  0
 40 42  2  0
 42 43  1  0
 43 44  1  0
 27  2  1  0
 43 31  2  0
 21  9  1  0
 42 33  1  0
 20 11  1  0
M  END
>  <UniqueID>  (71) 
69

>  <SMILES>  (71) 
O=C(/N=c1\[nH]c2ccccc2o1)c1ccc(SC(=O)c2cc3ccccc3s2)cc1

>  <Energy>  (71) 
124.17132305146795

>  <Genealogy>  (71) 
O=C(/N=c1\[nH]c2ccccc2o1)c1ccc(SC(=O)c2cc3ccccc3s2)cc1 (cis-trans isomerization)
O=C(/N=c1\[nH]c2ccccc2o1)c1ccc(SC(=O)c2cc3ccccc3s2)cc1 (3D coordinates assigned)
O=C(/N=c1\[nH]c2ccccc2o1)c1ccc(SC(=O)c2cc3ccccc3s2)cc1 (optimized conformer: 124.17132305146795 kcal/mol)

>  <smiles>  (71) 
O=C(N=c1[nH]c2ccccc2o1)c1ccc(SC(=O)c2cc3ccccc3s2)cc1

>  <score_type>  (71) 
oracle

>  <origin>  (71) 
adg

>  <m_score__min__energy>  (71) 
-9.7200000000000006

>  <m_primary>  (71) 
energy

$$$$
71:0
     RDKit          3D

 39 41  0  0  0  0  0  0  0  0999 V2000
   55.5140   28.9950   44.9660 O   0  0  0  0  0  0  0  0  0  0  0  0
   56.4030   29.7260   44.4540 C   0  0  0  0  0  0  0  0  0  0  0  0
   57.5840   29.0930   43.7850 C   0  0  0  0  0  0  0  0  0  0  0  0
   58.3700   28.3580   44.7240 O   0  0  0  0  0  0  0  0  0  0  0  0
   59.0770   28.9160   45.8030 C   0  0  0  0  0  0  0  0  0  0  0  0
   60.2500   29.6790   45.6290 C   0  0  0  0  0  0  0  0  0  0  0  0
   60.9100   30.2160   46.7390 C   0  0  0  0  0  0  0  0  0  0  0  0
   60.4110   29.9970   48.0260 C   0  0  0  0  0  0  0  0  0  0  0  0
   59.2510   29.2390   48.2050 C   0  0  0  0  0  0  0  0  0  0  0  0
   58.5880   28.7010   47.0980 C   0  0  0  0  0  0  0  0  0  0  0  0
   56.2910   31.1550   44.4920 N   0  0  0  0  0  0  0  0  0  0  0  0
   57.3010   32.0860   44.9060 C   0  0  0  0  0  0  0  0  0  0  0  0
   57.8230   33.0570   44.0340 C   0  0  0  0  0  0  0  0  0  0  0  0
   58.7980   33.9530   44.4840 C   0  0  0  0  0  0  0  0  0  0  0  0
   59.2400   33.9030   45.8090 C   0  0  0  0  0  0  0  0  0  0  0  0
   58.6960   32.9720   46.6990 C   0  0  0  0  0  0  0  0  0  0  0  0
   59.1770   32.9380   48.0510 N   0  0  0  0  0  0  0  0  0  0  0  0
   60.2340   33.7430   48.5880 C   0  0  0  0  0  0  0  0  0  0  0  0
   59.9440   34.6680   49.3920 O   0  0  0  0  0  0  0  0  0  0  0  0
   61.6510   33.4760   48.2760 C   0  0  0  0  0  0  0  0  0  0  0  0
   62.2100   33.4580   47.0030 C   0  0  0  0  0  0  0  0  0  0  0  0
   63.5910   33.2270   47.0070 C   0  0  0  0  0  0  0  0  0  0  0  0
   64.1300   33.0750   48.2770 C   0  0  0  0  0  0  0  0  0  0  0  0
   62.8860   33.2320   49.3970 S   0  0  0  0  0  0  0  0  0  0  0  0
   57.7340   32.0540   46.2370 C   0  0  0  0  0  0  0  0  0  0  0  0
   57.2291   28.4094   42.9996 H   0  0  0  0  0  0  0  0  0  0  0  0
   58.2085   29.8874   43.3505 H   0  0  0  0  0  0  0  0  0  0  0  0
   60.6469   29.8523   44.6178 H   0  0  0  0  0  0  0  0  0  0  0  0
   61.8238   30.8120   46.5988 H   0  0  0  0  0  0  0  0  0  0  0  0
   60.9312   30.4211   48.8975 H   0  0  0  0  0  0  0  0  0  0  0  0
   58.8590   29.0654   49.2180 H   0  0  0  0  0  0  0  0  0  0  0  0
   57.6756   28.1044   47.2450 H   0  0  0  0  0  0  0  0  0  0  0  0
   57.4640   33.1123   42.9957 H   0  0  0  0  0  0  0  0  0  0  0  0
   59.2181   34.6990   43.7934 H   0  0  0  0  0  0  0  0  0  0  0  0
   60.0192   34.5991   46.1530 H   0  0  0  0  0  0  0  0  0  0  0  0
   61.6252   33.6102   46.0838 H   0  0  0  0  0  0  0  0  0  0  0  0
   64.1933   33.1711   46.0882 H   0  0  0  0  0  0  0  0  0  0  0  0
   65.1880   32.8847   48.5103 H   0  0  0  0  0  0  0  0  0  0  0  0
   57.3190   31.3051   46.9276 H   0  0  0  0  0  0  0  0  0  0  0  0
  1  2  2  0
  2  3  1  0
  3  4  1  0
  4  5  1  0
  5  6  2  0
  6  7  1  0
  7  8  2  0
  8  9  1  0
  9 10  2  0
  2 11  1  0
 11 12  1  0
 12 13  2  0
 13 14  1  0
 14 15  2  0
 15 16  1  0
 16 17  1  0
 17 18  1  0
 18 19  2  0
 18 20  1  0
 20 21  2  0
 21 22  1  0
 22 23  2  0
 23 24  1  0
 16 25  2  0
 10  5  1  0
 25 12  1  0
 24 20  1  0
  3 26  1  0
  3 27  1  0
  6 28  1  0
  7 29  1  0
  8 30  1  0
  9 31  1  0
 10 32  1  0
 13 33  1  0
 14 34  1  0
 15 35  1  0
 21 36  1  0
 22 37  1  0
 23 38  1  0
 25 39  1  0
M  CHG  2  11  -1  17  -1
M  END
>  <UniqueID>  (72) 
70

>  <SMILES>  (72) 
O=C(COc1ccccc1)[N-]c1cccc([N-]C(=O)c2cccs2)c1

>  <Energy>  (72) 
75.40689830699515

>  <Genealogy>  (72) 
O=C(COc1ccccc1)[N-]c1cccc([N-]C(=O)c2cccs2)c1 (protonated)
O=C(COc1ccccc1)[N-]c1cccc([N-]C(=O)c2cccs2)c1 (3D coordinates assigned)
O=C(COc1ccccc1)[N-]c1cccc([N-]C(=O)c2cccs2)c1 (optimized conformer: 75.40689830699515 kcal/mol)

>  <smiles>  (72) 
O=C(COc1ccccc1)Nc1cccc(NC(=O)c2cccs2)c1

>  <score_type>  (72) 
oracle

>  <origin>  (72) 
adg

>  <m_score__min__energy>  (72) 
-11.85

>  <m_primary>  (72) 
energy

$$$$
72:0
     RDKit          3D

 56 59  0  0  0  0  0  0  0  0999 V2000
   66.7310   32.7520   50.1180 C   0  0  0  0  0  0  0  0  0  0  0  0
   65.3820   32.7670   50.8780 C   0  0  0  0  0  0  0  0  0  0  0  0
   65.0540   34.2240   51.2840 C   0  0  0  0  0  0  0  0  0  0  0  0
   65.5590   31.9050   52.1610 C   0  0  0  0  0  0  0  0  0  0  0  0
   64.2230   31.4790   52.7710 C   0  0  0  0  0  0  0  0  0  0  0  0
   63.4650   30.6040   51.7820 C   0  0  0  0  0  0  0  0  0  0  0  0
   63.3170   31.2730   50.4410 C   0  0  0  0  0  0  0  0  0  0  0  0
   62.2680   30.8550   49.6070 C   0  0  0  0  0  0  0  0  0  0  0  0
   62.1020   31.4080   48.3300 C   0  0  0  0  0  0  0  0  0  0  0  0
   61.0390   30.9740   47.4680 N   0  0  0  0  0  0  0  0  0  0  0  0
   60.6370   29.6010   47.3510 C   0  0  0  0  0  0  0  0  0  0  0  0
   61.0580   28.7530   48.1830 O   0  0  0  0  0  0  0  0  0  0  0  0
   59.7430   29.1520   46.2620 C   0  0  0  0  0  0  0  0  0  0  0  0
   59.9900   27.9270   45.6250 C   0  0  0  0  0  0  0  0  0  0  0  0
   59.1850   27.5060   44.5650 C   0  0  0  0  0  0  0  0  0  0  0  0
   58.1160   28.2940   44.1380 C   0  0  0  0  0  0  0  0  0  0  0  0
   57.8270   29.5010   44.7900 C   0  0  0  0  0  0  0  0  0  0  0  0
   56.4530   30.4830   44.2820 S   0  0  0  0  0  0  0  0  0  0  0  0
   56.5870   30.7770   42.8160 O   0  0  0  0  0  0  0  0  0  0  0  0
   55.1680   29.7390   44.4950 O   0  0  0  0  0  0  0  0  0  0  0  0
   56.3830   31.9790   45.1490 N   0  0  0  0  0  0  0  0  0  0  0  0
   57.5040   32.8390   45.3840 C   0  0  0  0  0  0  0  0  0  0  0  0
   58.1740   33.4770   44.3290 C   0  0  0  0  0  0  0  0  0  0  0  0
   59.2760   34.2910   44.5940 C   0  0  0  0  0  0  0  0  0  0  0  0
   59.7290   34.4620   45.9090 C   0  0  0  0  0  0  0  0  0  0  0  0
   59.0620   33.8430   46.9670 C   0  0  0  0  0  0  0  0  0  0  0  0
   59.7090   34.0490   48.7540 Br  0  0  0  0  0  0  0  0  0  0  0  0
   57.9400   33.0480   46.7020 C   0  0  0  0  0  0  0  0  0  0  0  0
   58.6410   29.9270   45.8490 C   0  0  0  0  0  0  0  0  0  0  0  0
   63.0170   32.3580   47.8720 C   0  0  0  0  0  0  0  0  0  0  0  0
   64.0660   32.7810   48.6890 C   0  0  0  0  0  0  0  0  0  0  0  0
   64.2500   32.2380   49.9780 C   0  0  0  0  0  0  0  0  0  0  0  0
   67.5594   32.7428   50.8416 H   0  0  0  0  0  0  0  0  0  0  0  0
   66.7860   31.8532   49.4862 H   0  0  0  0  0  0  0  0  0  0  0  0
   66.8059   33.6494   49.4862 H   0  0  0  0  0  0  0  0  0  0  0  0
   65.0360   34.3038   52.3810 H   0  0  0  0  0  0  0  0  0  0  0  0
   65.8226   34.8992   50.8798 H   0  0  0  0  0  0  0  0  0  0  0  0
   64.0702   34.5046   50.8798 H   0  0  0  0  0  0  0  0  0  0  0  0
   66.1324   31.0025   51.9029 H   0  0  0  0  0  0  0  0  0  0  0  0
   66.0850   32.5200   52.9061 H   0  0  0  0  0  0  0  0  0  0  0  0
   64.4070   30.9117   53.6953 H   0  0  0  0  0  0  0  0  0  0  0  0
   63.6248   32.3732   53.0003 H   0  0  0  0  0  0  0  0  0  0  0  0
   64.0130   29.6594   51.6499 H   0  0  0  0  0  0  0  0  0  0  0  0
   62.4582   30.4243   52.1869 H   0  0  0  0  0  0  0  0  0  0  0  0
   61.5676   30.0838   49.9602 H   0  0  0  0  0  0  0  0  0  0  0  0
   60.5170   31.7090   46.9430 H   0  0  0  0  0  0  0  0  0  0  0  0
   60.8236   27.2938   45.9629 H   0  0  0  0  0  0  0  0  0  0  0  0
   59.3945   26.5491   44.0645 H   0  0  0  0  0  0  0  0  0  0  0  0
   57.4986   27.9677   43.2881 H   0  0  0  0  0  0  0  0  0  0  0  0
   57.8307   33.3355   43.2936 H   0  0  0  0  0  0  0  0  0  0  0  0
   59.7915   34.8008   43.7668 H   0  0  0  0  0  0  0  0  0  0  0  0
   60.6128   35.0859   46.1078 H   0  0  0  0  0  0  0  0  0  0  0  0
   57.3943   32.5822   47.5358 H   0  0  0  0  0  0  0  0  0  0  0  0
   58.4175   30.8742   46.3618 H   0  0  0  0  0  0  0  0  0  0  0  0
   62.9101   32.7759   46.8601 H   0  0  0  0  0  0  0  0  0  0  0  0
   64.7610   33.5506   48.3220 H   0  0  0  0  0  0  0  0  0  0  0  0
  1  2  1  0
  2  3  1  0
  2  4  1  0
  4  5  1  0
  5  6  1  0
  6  7  1  0
  7  8  2  0
  8  9  1  0
  9 10  1  0
 10 11  1  0
 11 12  2  0
 11 13  1  0
 13 14  2  0
 14 15  1  0
 15 16  2  0
 16 17  1  0
 17 18  1  0
 18 19  2  0
 18 20  2  0
 18 21  1  0
 21 22  1  0
 22 23  2  0
 23 24  1  0
 24 25  2  0
 25 26  1  0
 26 27  1  0
 26 28  2  0
 17 29  2  0
  9 30  2  0
 30 31  1  0
 31 32  2  0
 32  2  1  0
 32  7  1  0
 29 13  1  0
 28 22  1  0
  1 33  1  0
  1 34  1  0
  1 35  1  0
  3 36  1  0
  3 37  1  0
  3 38  1  0
  4 39  1  0
  4 40  1  0
  5 41  1  0
  5 42  1  0
  6 43  1  0
  6 44  1  0
  8 45  1  0
 10 46  1  0
 14 47  1  0
 15 48  1  0
 16 49  1  0
 23 50  1  0
 24 51  1  0
 25 52  1  0
 28 53  1  0
 29 54  1  0
 30 55  1  0
 31 56  1  0
M  CHG  1  21  -1
M  END
>  <UniqueID>  (73) 
71

>  <SMILES>  (73) 
CC1(C)CCCc2cc(NC(=O)c3cccc(S(=O)(=O)[N-]c4cccc(Br)c4)c3)ccc21

>  <Energy>  (73) 
73.01654561204927

>  <Genealogy>  (73) 
CC1(C)CCCc2cc(NC(=O)c3cccc(S(=O)(=O)[N-]c4cccc(Br)c4)c3)ccc21 (protonated)
CC1(C)CCCc2cc(NC(=O)c3cccc(S(=O)(=O)[N-]c4cccc(Br)c4)c3)ccc21 (3D coordinates assigned)
CC1(C)CCCc2cc(NC(=O)c3cccc(S(=O)(=O)[N-]c4cccc(Br)c4)c3)ccc21 (nonaromatic ring conformer: 73.01654561204927 kcal/mol)

>  <smiles>  (73) 
CC1(C)CCCc2cc(NC(=O)c3cccc(S(=O)(=O)Nc4cccc(Br)c4)c3)ccc21

>  <score_type>  (73) 
oracle

>  <origin>  (73) 
adg

>  <m_score__min__energy>  (73) 
-11.949999999999999

>  <m_primary>  (73) 
energy

$$$$
73:0
     RDKit          3D

 50 53  0  0  0  0  0  0  0  0999 V2000
   57.0190   28.7470   42.8820 N   0  0  0  0  0  0  0  0  0  0  0  0
   57.6720   28.6950   44.4840 S   0  0  0  0  0  0  0  0  0  0  0  0
   56.7030   29.3500   45.4290 O   0  0  0  0  0  0  0  0  0  0  0  0
   58.9620   29.4660   44.4810 O   0  0  0  0  0  0  0  0  0  0  0  0
   57.9670   27.0240   45.0060 C   0  0  0  0  0  0  0  0  0  0  0  0
   57.4730   25.9670   44.2210 C   0  0  0  0  0  0  0  0  0  0  0  0
   57.7280   24.6400   44.5720 C   0  0  0  0  0  0  0  0  0  0  0  0
   58.4770   24.3490   45.7110 C   0  0  0  0  0  0  0  0  0  0  0  0
   58.9620   25.3830   46.5130 C   0  0  0  0  0  0  0  0  0  0  0  0
   58.7020   26.7240   46.1820 C   0  0  0  0  0  0  0  0  0  0  0  0
   59.2040   27.7770   47.0870 C   0  0  0  0  0  0  0  0  0  0  0  0
   58.3100   28.5850   47.7990 C   0  0  0  0  0  0  0  0  0  0  0  0
   58.7920   29.5800   48.6490 C   0  0  0  0  0  0  0  0  0  0  0  0
   60.1830   29.7710   48.7790 C   0  0  0  0  0  0  0  0  0  0  0  0
   60.6960   30.6750   49.5640 N   0  0  0  0  0  0  0  0  0  0  0  0
   60.5770   32.1300   49.4310 C   0  0  0  0  0  0  0  0  0  0  0  0
   61.6650   32.6860   48.5340 C   0  0  0  0  0  0  0  0  0  0  0  0
   62.9950   32.6630   48.9960 C   0  0  0  0  0  0  0  0  0  0  0  0
   64.0280   33.2050   48.2290 C   0  0  0  0  0  0  0  0  0  0  0  0
   63.7510   33.7680   46.9840 C   0  0  0  0  0  0  0  0  0  0  0  0
   62.4460   33.7750   46.4940 C   0  0  0  0  0  0  0  0  0  0  0  0
   61.3940   33.2220   47.2470 C   0  0  0  0  0  0  0  0  0  0  0  0
   60.0400   33.2100   46.6530 C   0  0  0  0  0  0  0  0  0  0  0  0
   59.3980   31.9930   46.3710 C   0  0  0  0  0  0  0  0  0  0  0  0
   58.1230   31.9860   45.7970 C   0  0  0  0  0  0  0  0  0  0  0  0
   57.4860   33.1920   45.4920 C   0  0  0  0  0  0  0  0  0  0  0  0
   58.1240   34.4070   45.7570 C   0  0  0  0  0  0  0  0  0  0  0  0
   59.3990   34.4180   46.3310 C   0  0  0  0  0  0  0  0  0  0  0  0
   61.0270   28.9830   48.0580 N   0  0  0  0  0  0  0  0  0  0  0  0
   60.5780   28.0080   47.2240 C   0  0  0  0  0  0  0  0  0  0  0  0
   57.7260   29.2140   42.2700 H   0  0  0  0  0  0  0  0  0  0  0  0
   56.9170   27.7620   42.5500 H   0  0  0  0  0  0  0  0  0  0  0  0
   56.8797   26.1879   43.3214 H   0  0  0  0  0  0  0  0  0  0  0  0
   57.3371   23.8225   43.9485 H   0  0  0  0  0  0  0  0  0  0  0  0
   58.6861   23.3026   45.9781 H   0  0  0  0  0  0  0  0  0  0  0  0
   59.5521   25.1468   47.4108 H   0  0  0  0  0  0  0  0  0  0  0  0
   57.2259   28.4350   47.6880 H   0  0  0  0  0  0  0  0  0  0  0  0
   58.0914   30.2119   49.2145 H   0  0  0  0  0  0  0  0  0  0  0  0
   59.5953   32.3722   48.9978 H   0  0  0  0  0  0  0  0  0  0  0  0
   60.6811   32.5820   50.4284 H   0  0  0  0  0  0  0  0  0  0  0  0
   63.2229   32.2124   49.9733 H   0  0  0  0  0  0  0  0  0  0  0  0
   65.0608   33.1878   48.6071 H   0  0  0  0  0  0  0  0  0  0  0  0
   64.5638   34.2075   46.3872 H   0  0  0  0  0  0  0  0  0  0  0  0
   62.2366   34.2173   45.5088 H   0  0  0  0  0  0  0  0  0  0  0  0
   59.9000   31.0420   46.6025 H   0  0  0  0  0  0  0  0  0  0  0  0
   57.6209   31.0304   45.5853 H   0  0  0  0  0  0  0  0  0  0  0  0
   56.4818   33.1850   45.0431 H   0  0  0  0  0  0  0  0  0  0  0  0
   57.6227   35.3554   45.5138 H   0  0  0  0  0  0  0  0  0  0  0  0
   59.9018   35.3757   46.5311 H   0  0  0  0  0  0  0  0  0  0  0  0
   61.2961   27.3989   46.6553 H   0  0  0  0  0  0  0  0  0  0  0  0
  1  2  1  0
  2  3  2  0
  2  4  2  0
  2  5  1  0
  5  6  2  0
  6  7  1  0
  7  8  2  0
  8  9  1  0
  9 10  2  0
 10 11  1  0
 11 12  1  0
 12 13  2  0
 13 14  1  0
 14 15  2  3
 15 16  1  0
 16 17  1  0
 17 18  2  0
 18 19  1  0
 19 20  2  0
 20 21  1  0
 21 22  2  0
 22 23  1  0
 23 24  2  0
 24 25  1  0
 25 26  2  0
 26 27  1  0
 27 28  2  0
 14 29  1  0
 29 30  1  0
 10  5  1  0
 30 11  2  0
 22 17  1  0
 28 23  1  0
  1 31  1  0
  1 32  1  0
  6 33  1  0
  7 34  1  0
  8 35  1  0
  9 36  1  0
 12 37  1  0
 13 38  1  0
 16 39  1  0
 16 40  1  0
 18 41  1  0
 19 42  1  0
 20 43  1  0
 21 44  1  0
 24 45  1  0
 25 46  1  0
 26 47  1  0
 27 48  1  0
 28 49  1  0
 30 50  1  0
M  CHG  1  29  -1
M  END
>  <UniqueID>  (74) 
72

>  <SMILES>  (74) 
NS(=O)(=O)c1ccccc1-c1ccc(=NCc2ccccc2-c2ccccc2)[n-]c1

>  <Energy>  (74) 
72.78799599717303

>  <Genealogy>  (74) 
NS(=O)(=O)c1ccccc1-c1ccc(=NCc2ccccc2-c2ccccc2)[n-]c1 (protonated)
NS(=O)(=O)c1ccccc1-c1ccc(=NCc2ccccc2-c2ccccc2)[n-]c1 (3D coordinates assigned)
NS(=O)(=O)c1ccccc1-c1ccc(=NCc2ccccc2-c2ccccc2)[n-]c1 (optimized conformer: 72.78799599717303 kcal/mol)

>  <smiles>  (74) 
NS(=O)(=O)c1ccccc1-c1ccc(=NCc2ccccc2-c2ccccc2)[nH]c1

>  <score_type>  (74) 
oracle

>  <origin>  (74) 
adg

>  <m_score__min__energy>  (74) 
-11.890000000000001

>  <m_primary>  (74) 
energy

$$$$
74:0
     RDKit          3D

 36 38  0  0  0  0  0  0  0  0999 V2000
   56.9892   25.4287   43.1386 H   0  0  0  0  0  0  0  0  0  0  0  0
   56.6500   24.5180   43.6540 C   0  0  0  0  0  0  0  0  0  0  0  0
   56.1480   24.5890   44.9570 C   0  0  0  0  0  0  0  0  0  0  0  0
   56.0490   25.8810   45.6730 C   0  0  0  0  0  0  0  0  0  0  0  0
   54.9190   26.3290   46.0000 O   0  0  0  0  0  0  0  0  0  0  0  0
   57.2200   26.6010   46.0830 N   0  0  0  0  0  0  0  0  0  0  0  0
   57.4330   27.8710   45.9050 C   0  0  0  0  0  0  0  0  0  0  0  0
   56.9000   28.5450   44.8580 N   0  0  0  0  0  0  0  0  0  0  0  0
   57.2940   29.8440   44.8680 C   0  0  0  0  0  0  0  0  0  0  0  0
   56.9050   30.7910   43.9210 C   0  0  0  0  0  0  0  0  0  0  0  0
   56.2352   30.5139   43.0936 H   0  0  0  0  0  0  0  0  0  0  0  0
   57.3850   32.1060   44.0440 C   0  0  0  0  0  0  0  0  0  0  0  0
   57.0862   32.8632   43.3041 H   0  0  0  0  0  0  0  0  0  0  0  0
   58.2450   32.4700   45.1030 C   0  0  0  0  0  0  0  0  0  0  0  0
   58.6860   33.8020   45.1640 O   0  0  0  0  0  0  0  0  0  0  0  0
   59.7580   34.2840   45.9740 C   0  0  0  0  0  0  0  0  0  0  0  0
   60.2004   35.1707   45.4965 H   0  0  0  0  0  0  0  0  0  0  0  0
   60.5102   33.4877   46.0739 H   0  0  0  0  0  0  0  0  0  0  0  0
   59.2580   34.6620   47.3650 C   0  0  0  0  0  0  0  0  0  0  0  0
   59.8921   34.1826   48.1254 H   0  0  0  0  0  0  0  0  0  0  0  0
   59.3023   35.7544   47.4863 H   0  0  0  0  0  0  0  0  0  0  0  0
   58.2191   34.3215   47.4863 H   0  0  0  0  0  0  0  0  0  0  0  0
   58.6330   31.4930   46.0500 C   0  0  0  0  0  0  0  0  0  0  0  0
   59.3075   31.7494   46.8803 H   0  0  0  0  0  0  0  0  0  0  0  0
   58.1400   30.1990   45.9050 C   0  0  0  0  0  0  0  0  0  0  0  0
   58.4330   28.8560   46.8670 S   0  0  0  0  0  0  0  0  0  0  0  0
   55.7210   23.4470   45.5600 N   0  0  0  0  0  0  0  0  0  0  0  0
   55.7810   22.2550   44.9590 N   0  0  0  0  0  0  0  0  0  0  0  0
   55.3120   21.0770   45.6880 C   0  0  0  0  0  0  0  0  0  0  0  0
   55.3856   21.2619   46.7698 H   0  0  0  0  0  0  0  0  0  0  0  0
   54.2644   20.8738   45.4212 H   0  0  0  0  0  0  0  0  0  0  0  0
   55.9333   20.2093   45.4212 H   0  0  0  0  0  0  0  0  0  0  0  0
   56.2740   22.1420   43.6880 C   0  0  0  0  0  0  0  0  0  0  0  0
   56.3340   21.0200   43.1140 O   0  0  0  0  0  0  0  0  0  0  0  0
   56.7160   23.2830   43.0160 C   0  0  0  0  0  0  0  0  0  0  0  0
   57.1124   23.2067   41.9927 H   0  0  0  0  0  0  0  0  0  0  0  0
  1  2  1  0
  2  3  1  0
  3  4  1  0
  4  5  2  0
  4  6  1  0
  6  7  2  0
  7  8  1  0
  8  9  1  0
  9 10  2  0
 10 11  1  0
 10 12  1  0
 12 13  1  0
 12 14  2  0
 14 15  1  0
 15 16  1  0
 16 17  1  0
 16 18  1  0
 16 19  1  0
 19 20  1  0
 19 21  1  0
 19 22  1  0
 14 23  1  0
 23 24  1  0
 23 25  2  0
 25 26  1  0
  3 27  2  0
 27 28  1  0
 28 29  1  0
 29 30  1  0
 29 31  1  0
 29 32  1  0
 28 33  1  0
 33 34  2  0
 33 35  1  0
 35 36  1  0
 35  2  2  0
 26  7  1  0
 25  9  1  0
M  CHG  1   8  -1
M  END
>  <UniqueID>  (75) 
73

>  <SMILES>  (75) 
CCOc1ccc2[n-]/c(=N/C(=O)c3ccc(=O)n(C)n3)sc2c1

>  <Energy>  (75) 
79.05074972159338

>  <Genealogy>  (75) 
CCOc1ccc2[n-]c(=NC(=O)c3ccc(=O)n(C)n3)sc2c1 (protonated)
CCOc1ccc2[n-]/c(=N/C(=O)c3ccc(=O)n(C)n3)sc2c1 (cis-trans isomerization)
CCOc1ccc2[n-]/c(=N/C(=O)c3ccc(=O)n(C)n3)sc2c1 (3D coordinates assigned)
CCOc1ccc2[n-]/c(=N/C(=O)c3ccc(=O)n(C)n3)sc2c1 (optimized conformer: 79.05074972159338 kcal/mol)

>  <smiles>  (75) 
CCOc1ccc2[nH]c(=NC(=O)c3ccc(=O)n(C)n3)sc2c1

>  <score_type>  (75) 
oracle

>  <origin>  (75) 
adg

>  <m_score__min__energy>  (75) 
-9.1899999999999995

>  <m_primary>  (75) 
energy

$$$$
75:0
     RDKit          3D

 37 39  0  0  0  0  0  0  0  0999 V2000
   58.4050   28.2650   47.3660 H   0  0  0  0  0  0  0  0  0  0  0  0
   57.6410   28.3750   46.7100 O   0  0  0  0  0  0  0  0  0  0  0  0
   57.4720   29.5370   45.9570 C   0  0  0  0  0  0  0  0  0  0  0  0
   56.4120   29.6590   45.0440 C   0  0  0  0  0  0  0  0  0  0  0  0
   55.5060   28.6200   44.8720 O   0  0  0  0  0  0  0  0  0  0  0  0
   56.2610   30.8330   44.2990 C   0  0  0  0  0  0  0  0  0  0  0  0
   55.4337   30.9229   43.5797 H   0  0  0  0  0  0  0  0  0  0  0  0
   57.1570   31.8920   44.4650 C   0  0  0  0  0  0  0  0  0  0  0  0
   57.0309   32.8143   43.8789 H   0  0  0  0  0  0  0  0  0  0  0  0
   58.2180   31.7820   45.3780 C   0  0  0  0  0  0  0  0  0  0  0  0
   58.3810   30.5940   46.1150 C   0  0  0  0  0  0  0  0  0  0  0  0
   59.4420   30.4670   47.0210 O   0  0  0  0  0  0  0  0  0  0  0  0
   60.5870   31.3220   47.0010 C   0  0  0  0  0  0  0  0  0  0  0  0
   61.3010   30.9478   46.2525 H   0  0  0  0  0  0  0  0  0  0  0  0
   61.0393   31.3212   48.0037 H   0  0  0  0  0  0  0  0  0  0  0  0
   60.2050   32.7390   46.6510 C   0  0  0  0  0  0  0  0  0  0  0  0
   60.9030   33.7620   47.1850 C   0  0  0  0  0  0  0  0  0  0  0  0
   60.5745   34.7823   46.9377 H   0  0  0  0  0  0  0  0  0  0  0  0
   62.0740   33.6220   48.0760 C   0  0  0  0  0  0  0  0  0  0  0  0
   63.3160   33.1850   47.5820 C   0  0  0  0  0  0  0  0  0  0  0  0
   63.4170   32.9073   46.5224 H   0  0  0  0  0  0  0  0  0  0  0  0
   64.4230   33.1020   48.4320 C   0  0  0  0  0  0  0  0  0  0  0  0
   65.3849   32.7351   48.0445 H   0  0  0  0  0  0  0  0  0  0  0  0
   64.3120   33.4850   49.7780 C   0  0  0  0  0  0  0  0  0  0  0  0
   65.4950   33.3640   50.7010 C   0  0  0  0  0  0  0  0  0  0  0  0
   65.1458   33.4068   51.7432 H   0  0  0  0  0  0  0  0  0  0  0  0
   66.1892   34.1925   50.4970 H   0  0  0  0  0  0  0  0  0  0  0  0
   66.2250   32.0440   50.4710 C   0  0  0  0  0  0  0  0  0  0  0  0
   66.4761   31.5900   51.4410 H   0  0  0  0  0  0  0  0  0  0  0  0
   65.5766   31.3605   49.9031 H   0  0  0  0  0  0  0  0  0  0  0  0
   67.1486   32.2299   49.9031 H   0  0  0  0  0  0  0  0  0  0  0  0
   63.0770   33.9380   50.2650 C   0  0  0  0  0  0  0  0  0  0  0  0
   62.9789   34.2287   51.3213 H   0  0  0  0  0  0  0  0  0  0  0  0
   61.9700   34.0220   49.4150 C   0  0  0  0  0  0  0  0  0  0  0  0
   61.0127   34.4040   49.7993 H   0  0  0  0  0  0  0  0  0  0  0  0
   59.1530   32.9000   45.6160 C   0  0  0  0  0  0  0  0  0  0  0  0
   59.0830   33.9450   44.9140 O   0  0  0  0  0  0  0  0  0  0  0  0
  1  2  1  0
  2  3  1  0
  3  4  2  0
  4  5  1  0
  4  6  1  0
  6  7  1  0
  6  8  2  0
  8  9  1  0
  8 10  1  0
 10 11  2  0
 11 12  1  0
 12 13  1  0
 13 14  1  0
 13 15  1  0
 13 16  1  0
 16 17  2  0
 17 18  1  0
 17 19  1  0
 19 20  2  0
 20 21  1  0
 20 22  1  0
 22 23  1  0
 22 24  2  0
 24 25  1  0
 25 26  1  0
 25 27  1  0
 25 28  1  0
 28 29  1  0
 28 30  1  0
 28 31  1  0
 24 32  1  0
 32 33  1  0
 32 34  2  0
 34 35  1  0
 16 36  1  0
 36 37  2  0
 11  3  1  0
 34 19  1  0
 36 10  1  0
M  CHG  1   5  -1
M  END
>  <UniqueID>  (76) 
74

>  <SMILES>  (76) 
CCc1ccc(/C=C2/COc3c(ccc([O-])c3O)C2=O)cc1

>  <Energy>  (76) 
47.95847459878043

>  <Genealogy>  (76) 
CCc1ccc(C=C2COc3c(ccc([O-])c3O)C2=O)cc1 (protonated)
CCc1ccc(/C=C2/COc3c(ccc([O-])c3O)C2=O)cc1 (cis-trans isomerization)
CCc1ccc(/C=C2/COc3c(ccc([O-])c3O)C2=O)cc1 (3D coordinates assigned)
CCc1ccc(/C=C2/COc3c(ccc([O-])c3O)C2=O)cc1 (nonaromatic ring conformer: 47.95847459878043 kcal/mol)

>  <smiles>  (76) 
CCc1ccc(C=C2COc3c(ccc(O)c3O)C2=O)cc1

>  <score_type>  (76) 
oracle

>  <origin>  (76) 
adg

>  <m_score__min__energy>  (76) 
-10.41

>  <m_primary>  (76) 
energy

$$$$
76:0
     RDKit          3D

 34 35  0  0  0  0  0  0  0  0999 V2000
   54.4333   29.7691   43.6997 H   0  0  0  0  0  0  0  0  0  0  0  0
   55.4340   29.8060   44.1550 C   0  0  0  0  0  0  0  0  0  0  0  0
   55.8150   28.8400   45.0290 N   0  0  0  0  0  0  0  0  0  0  0  0
   57.0380   28.8550   45.6180 C   0  0  0  0  0  0  0  0  0  0  0  0
   57.3173   28.0525   46.3166 H   0  0  0  0  0  0  0  0  0  0  0  0
   57.9500   29.8880   45.3420 C   0  0  0  0  0  0  0  0  0  0  0  0
   59.2610   29.8860   45.9390 N   0  0  0  0  0  0  0  0  0  0  0  0
   59.9590   30.5820   45.5940 H   0  0  0  0  0  0  0  0  0  0  0  0
   59.6760   28.9730   46.9700 C   0  0  0  0  0  0  0  0  0  0  0  0
   60.0840   27.6620   46.6670 C   0  0  0  0  0  0  0  0  0  0  0  0
   60.1084   27.3256   45.6200 H   0  0  0  0  0  0  0  0  0  0  0  0
   60.4590   26.7830   47.6880 C   0  0  0  0  0  0  0  0  0  0  0  0
   60.7872   25.7629   47.4397 H   0  0  0  0  0  0  0  0  0  0  0  0
   60.4180   27.1990   49.0330 C   0  0  0  0  0  0  0  0  0  0  0  0
   60.7850   26.3560   50.0920 O   0  0  0  0  0  0  0  0  0  0  0  0
   61.5250   26.7740   51.2340 C   0  0  0  0  0  0  0  0  0  0  0  0
   60.9912   26.4725   52.1473 H   0  0  0  0  0  0  0  0  0  0  0  0
   62.5195   26.3042   51.2186 H   0  0  0  0  0  0  0  0  0  0  0  0
   61.6361   27.8683   51.2186 H   0  0  0  0  0  0  0  0  0  0  0  0
   59.9910   28.4970   49.3330 C   0  0  0  0  0  0  0  0  0  0  0  0
   59.9502   28.8297   50.3807 H   0  0  0  0  0  0  0  0  0  0  0  0
   59.6160   29.3740   48.3120 C   0  0  0  0  0  0  0  0  0  0  0  0
   59.2708   30.3877   48.5633 H   0  0  0  0  0  0  0  0  0  0  0  0
   57.5850   30.8930   44.4220 C   0  0  0  0  0  0  0  0  0  0  0  0
   58.4370   31.8440   44.1560 N   0  0  0  0  0  0  0  0  0  0  0  0
   59.0320   33.0450   45.2600 S   0  0  0  0  0  0  0  0  0  0  0  0
   59.4680   34.2680   44.5020 O   0  0  0  0  0  0  0  0  0  0  0  0
   60.1880   32.4900   46.0480 O   0  0  0  0  0  0  0  0  0  0  0  0
   57.7260   33.4910   46.3830 C   0  0  0  0  0  0  0  0  0  0  0  0
   57.4500   32.4280   47.2210 F   0  0  0  0  0  0  0  0  0  0  0  0
   56.5900   33.8160   45.6650 F   0  0  0  0  0  0  0  0  0  0  0  0
   58.1180   34.5810   47.1370 F   0  0  0  0  0  0  0  0  0  0  0  0
   56.3060   30.8450   43.8320 C   0  0  0  0  0  0  0  0  0  0  0  0
   55.9969   31.6240   43.1196 H   0  0  0  0  0  0  0  0  0  0  0  0
  1  2  1  0
  2  3  1  0
  3  4  1  0
  4  5  1  0
  4  6  2  0
  6  7  1  0
  7  8  1  0
  7  9  1  0
  9 10  2  0
 10 11  1  0
 10 12  1  0
 12 13  1  0
 12 14  2  0
 14 15  1  0
 15 16  1  0
 16 17  1  0
 16 18  1  0
 16 19  1  0
 14 20  1  0
 20 21  1  0
 20 22  2  0
 22 23  1  0
  6 24  1  0
 24 25  2  0
 25 26  1  0
 26 27  2  0
 26 28  2  0
 26 29  1  0
 29 30  1  0
 29 31  1  0
 29 32  1  0
 24 33  1  0
 33 34  1  0
 33  2  2  0
 22  9  1  0
M  CHG  1   3  -1
M  END
>  <UniqueID>  (77) 
75

>  <SMILES>  (77) 
COc1ccc(Nc2c[n-]cc/c2=N\S(=O)(=O)C(F)(F)F)cc1

>  <Energy>  (77) 
42.058997949014866

>  <Genealogy>  (77) 
COc1ccc(Nc2c[n-]ccc2=NS(=O)(=O)C(F)(F)F)cc1 (protonated)
COc1ccc(Nc2c[n-]cc/c2=N\S(=O)(=O)C(F)(F)F)cc1 (cis-trans isomerization)
COc1ccc(Nc2c[n-]cc/c2=N\S(=O)(=O)C(F)(F)F)cc1 (3D coordinates assigned)
COc1ccc(Nc2c[n-]cc/c2=N\S(=O)(=O)C(F)(F)F)cc1 (optimized conformer: 42.058997949014866 kcal/mol)

>  <smiles>  (77) 
COc1ccc(Nc2c[nH]ccc2=NS(=O)(=O)C(F)(F)F)cc1

>  <score_type>  (77) 
oracle

>  <origin>  (77) 
adg

>  <m_score__min__energy>  (77) 
-7.8799999999999999

>  <m_primary>  (77) 
energy

$$$$
77:0
     RDKit          3D

 38 40  0  0  0  0  0  0  0  0999 V2000
   55.4670   26.7180   45.9950 N   0  0  0  0  0  0  0  0  0  0  0  0
   56.1920   25.5420   46.3660 C   0  0  0  0  0  0  0  0  0  0  0  0
   55.6280   24.6680   47.2420 N   0  0  0  0  0  0  0  0  0  0  0  0
   56.2430   23.5050   47.5750 C   0  0  0  0  0  0  0  0  0  0  0  0
   55.7000   22.7190   48.3920 O   0  0  0  0  0  0  0  0  0  0  0  0
   57.4390   23.1860   47.0190 N   0  0  0  0  0  0  0  0  0  0  0  0
   58.0490   24.0230   46.1420 C   0  0  0  0  0  0  0  0  0  0  0  0
   59.1600   23.6990   45.6430 O   0  0  0  0  0  0  0  0  0  0  0  0
   57.4530   25.2460   45.8100 C   0  0  0  0  0  0  0  0  0  0  0  0
   58.1160   26.1380   44.8970 N   0  0  0  0  0  0  0  0  0  0  0  0
   58.0090   27.4130   44.9050 N   0  0  0  0  0  0  0  0  0  0  0  0
   58.7360   28.3070   45.7630 C   0  0  0  0  0  0  0  0  0  0  0  0
   58.6740   28.1980   47.1630 C   0  0  0  0  0  0  0  0  0  0  0  0
   59.4120   29.0690   47.9700 C   0  0  0  0  0  0  0  0  0  0  0  0
   60.2380   30.0430   47.3960 C   0  0  0  0  0  0  0  0  0  0  0  0
   60.9800   30.9110   48.2630 N   0  0  0  0  0  0  0  0  0  0  0  0
   61.1230   32.6290   48.0720 S   0  0  0  0  0  0  0  0  0  0  0  0
   62.4200   32.9390   47.3800 O   0  0  0  0  0  0  0  0  0  0  0  0
   61.1240   33.2750   49.4300 O   0  0  0  0  0  0  0  0  0  0  0  0
   59.7940   33.2430   47.0930 C   0  0  0  0  0  0  0  0  0  0  0  0
   60.0510   34.0810   45.9980 C   0  0  0  0  0  0  0  0  0  0  0  0
   58.9920   34.5730   45.2280 C   0  0  0  0  0  0  0  0  0  0  0  0
   57.6740   34.2300   45.5470 C   0  0  0  0  0  0  0  0  0  0  0  0
   56.6490   34.7080   44.8010 F   0  0  0  0  0  0  0  0  0  0  0  0
   57.4150   33.3910   46.6360 C   0  0  0  0  0  0  0  0  0  0  0  0
   58.4720   32.8970   47.4060 C   0  0  0  0  0  0  0  0  0  0  0  0
   60.3250   30.1300   45.9940 C   0  0  0  0  0  0  0  0  0  0  0  0
   59.5870   29.2580   45.1870 C   0  0  0  0  0  0  0  0  0  0  0  0
   55.8150   27.3180   45.2140 H   0  0  0  0  0  0  0  0  0  0  0  0
   54.6290   27.0400   46.5260 H   0  0  0  0  0  0  0  0  0  0  0  0
   58.0427   27.4248   47.6252 H   0  0  0  0  0  0  0  0  0  0  0  0
   59.3432   28.9885   49.0649 H   0  0  0  0  0  0  0  0  0  0  0  0
   61.0866   34.3516   45.7445 H   0  0  0  0  0  0  0  0  0  0  0  0
   59.1960   35.2307   44.3702 H   0  0  0  0  0  0  0  0  0  0  0  0
   56.3788   33.1198   46.8866 H   0  0  0  0  0  0  0  0  0  0  0  0
   58.2659   32.2349   48.2599 H   0  0  0  0  0  0  0  0  0  0  0  0
   60.9758   30.8865   45.5312 H   0  0  0  0  0  0  0  0  0  0  0  0
   59.6758   29.3198   44.0923 H   0  0  0  0  0  0  0  0  0  0  0  0
  1  2  1  0
  2  3  1  0
  3  4  1  0
  4  5  2  0
  4  6  1  0
  6  7  1  0
  7  8  2  0
  7  9  1  0
  9 10  1  0
 10 11  2  3
 11 12  1  0
 12 13  2  0
 13 14  1  0
 14 15  2  0
 15 16  1  0
 16 17  1  0
 17 18  2  0
 17 19  2  0
 17 20  1  0
 20 21  2  0
 21 22  1  0
 22 23  2  0
 23 24  1  0
 23 25  1  0
 25 26  2  0
 15 27  1  0
 27 28  2  0
  9  2  2  0
 28 12  1  0
 26 20  1  0
  1 29  1  0
  1 30  1  0
 13 31  1  0
 14 32  1  0
 21 33  1  0
 22 34  1  0
 25 35  1  0
 26 36  1  0
 27 37  1  0
 28 38  1  0
M  CHG  3   3  -1   6  -1  16  -1
M  END
>  <UniqueID>  (78) 
76

>  <SMILES>  (78) 
Nc1[n-]c(=O)[n-]c(=O)c1N=Nc1ccc([N-]S(=O)(=O)c2ccc(F)cc2)cc1

>  <Energy>  (78) 
59.65780487021747

>  <Genealogy>  (78) 
Nc1[n-]c(=O)[n-]c(=O)c1N=Nc1ccc([N-]S(=O)(=O)c2ccc(F)cc2)cc1 (protonated)
Nc1[n-]c(=O)[n-]c(=O)c1N=Nc1ccc([N-]S(=O)(=O)c2ccc(F)cc2)cc1 (3D coordinates assigned)
Nc1[n-]c(=O)[n-]c(=O)c1N=Nc1ccc([N-]S(=O)(=O)c2ccc(F)cc2)cc1 (optimized conformer: 59.65780487021747 kcal/mol)

>  <smiles>  (78) 
Nc1[nH]c(=O)[nH]c(=O)c1N=Nc1ccc(NS(=O)(=O)c2ccc(F)cc2)cc1

>  <score_type>  (78) 
oracle

>  <origin>  (78) 
adg

>  <m_score__min__energy>  (78) 
-14.15

>  <m_primary>  (78) 
energy

$$$$
78:0
     RDKit          3D

 59 62  0  0  0  0  0  0  0  0999 V2000
   59.3900   32.8960   50.7520 C   0  0  0  0  0  0  0  0  0  0  0  0
   59.2960   33.2370   49.2940 C   0  0  0  0  0  0  0  0  0  0  0  0
   59.7520   34.4800   48.8280 C   0  0  0  0  0  0  0  0  0  0  0  0
   59.6300   34.8180   47.4770 C   0  0  0  0  0  0  0  0  0  0  0  0
   59.0300   33.9210   46.5780 C   0  0  0  0  0  0  0  0  0  0  0  0
   58.8670   34.2210   45.2160 C   0  0  0  0  0  0  0  0  0  0  0  0
   59.2780   35.3130   44.7350 O   0  0  0  0  0  0  0  0  0  0  0  0
   58.2290   33.3000   44.3850 C   0  0  0  0  0  0  0  0  0  0  0  0
   57.7700   32.0900   44.9280 C   0  0  0  0  0  0  0  0  0  0  0  0
   57.0520   31.0850   44.0650 C   0  0  0  0  0  0  0  0  0  0  0  0
   57.8410   29.8570   43.8270 N   0  0  0  0  0  0  0  0  0  0  0  0
   59.1650   29.8120   44.4870 C   0  0  0  0  0  0  0  0  0  0  0  0
   59.1890   28.9570   45.7740 C   0  0  0  0  0  0  0  0  0  0  0  0
   58.4200   27.6860   45.6980 N   0  0  0  0  0  0  0  0  0  0  0  0
   57.3790   27.5920   46.7490 C   0  0  0  0  0  0  0  0  0  0  0  0
   56.4270   26.4560   46.4610 C   0  0  0  0  0  0  0  0  0  0  0  0
   55.3210   26.6970   45.9110 O   0  0  0  0  0  0  0  0  0  0  0  0
   56.7470   25.0970   46.7890 N   0  0  0  0  0  0  0  0  0  0  0  0
   57.2640   24.1260   45.8720 C   0  0  0  0  0  0  0  0  0  0  0  0
   58.5860   23.6990   46.0410 C   0  0  0  0  0  0  0  0  0  0  0  0
   59.1540   22.7900   45.1520 C   0  0  0  0  0  0  0  0  0  0  0  0
   58.4100   22.2990   44.0810 C   0  0  0  0  0  0  0  0  0  0  0  0
   57.0750   22.6960   43.8970 C   0  0  0  0  0  0  0  0  0  0  0  0
   56.3050   22.1330   42.7290 C   0  0  0  0  0  0  0  0  0  0  0  0
   56.4730   23.5820   44.8280 C   0  0  0  0  0  0  0  0  0  0  0  0
   55.0130   23.9440   44.6960 C   0  0  0  0  0  0  0  0  0  0  0  0
   57.8780   27.4160   44.3510 C   0  0  0  0  0  0  0  0  0  0  0  0
   57.0550   28.6050   43.8440 C   0  0  0  0  0  0  0  0  0  0  0  0
   57.9630   31.8250   46.2160 O   0  0  0  0  0  0  0  0  0  0  0  0
   58.5540   32.6770   47.0490 C   0  0  0  0  0  0  0  0  0  0  0  0
   58.6870   32.3450   48.4000 C   0  0  0  0  0  0  0  0  0  0  0  0
   59.1451   33.7843   51.3528 H   0  0  0  0  0  0  0  0  0  0  0  0
   58.6810   32.0882   50.9861 H   0  0  0  0  0  0  0  0  0  0  0  0
   60.4127   32.5655   50.9861 H   0  0  0  0  0  0  0  0  0  0  0  0
   60.2084   35.1929   49.5305 H   0  0  0  0  0  0  0  0  0  0  0  0
   60.0044   35.7878   47.1175 H   0  0  0  0  0  0  0  0  0  0  0  0
   58.0873   33.5196   43.3165 H   0  0  0  0  0  0  0  0  0  0  0  0
   56.1109   30.8059   44.5615 H   0  0  0  0  0  0  0  0  0  0  0  0
   56.8770   31.5575   43.0872 H   0  0  0  0  0  0  0  0  0  0  0  0
   59.8927   29.3916   43.7772 H   0  0  0  0  0  0  0  0  0  0  0  0
   59.4127   30.8426   44.7812 H   0  0  0  0  0  0  0  0  0  0  0  0
   60.2367   28.7091   45.9997 H   0  0  0  0  0  0  0  0  0  0  0  0
   58.7059   29.5627   46.5549 H   0  0  0  0  0  0  0  0  0  0  0  0
   57.8630   27.4191   47.7215 H   0  0  0  0  0  0  0  0  0  0  0  0
   56.8098   28.5331   46.7664 H   0  0  0  0  0  0  0  0  0  0  0  0
   59.1808   24.0843   46.8823 H   0  0  0  0  0  0  0  0  0  0  0  0
   60.1930   22.4586   45.2957 H   0  0  0  0  0  0  0  0  0  0  0  0
   58.8719   21.5946   43.3736 H   0  0  0  0  0  0  0  0  0  0  0  0
   55.4694   21.5220   43.1010 H   0  0  0  0  0  0  0  0  0  0  0  0
   55.9119   22.9582   42.1170 H   0  0  0  0  0  0  0  0  0  0  0  0
   56.9721   21.5081   42.1170 H   0  0  0  0  0  0  0  0  0  0  0  0
   54.5705   24.0537   45.6971 H   0  0  0  0  0  0  0  0  0  0  0  0
   54.9186   24.8927   44.1474 H   0  0  0  0  0  0  0  0  0  0  0  0
   54.4863   23.1492   44.1474 H   0  0  0  0  0  0  0  0  0  0  0  0
   58.7119   27.2333   43.6573 H   0  0  0  0  0  0  0  0  0  0  0  0
   57.2235   26.5336   44.4060 H   0  0  0  0  0  0  0  0  0  0  0  0
   56.7106   28.3882   42.8220 H   0  0  0  0  0  0  0  0  0  0  0  0
   56.2060   28.7467   44.5290 H   0  0  0  0  0  0  0  0  0  0  0  0
   58.3114   31.3775   48.7644 H   0  0  0  0  0  0  0  0  0  0  0  0
  1  2  1  0
  2  3  2  0
  3  4  1  0
  4  5  2  0
  5  6  1  0
  6  7  2  0
  6  8  1  0
  8  9  2  0
  9 10  1  0
 10 11  1  0
 11 12  1  0
 12 13  1  0
 13 14  1  0
 14 15  1  0
 15 16  1  0
 16 17  2  0
 16 18  1  0
 18 19  1  0
 19 20  2  0
 20 21  1  0
 21 22  2  0
 22 23  1  0
 23 24  1  0
 23 25  2  0
 25 26  1  0
 14 27  1  0
 27 28  1  0
  9 29  1  0
 29 30  1  0
 30 31  2  0
 31  2  1  0
 30  5  1  0
 28 11  1  0
 25 19  1  0
  1 32  1  0
  1 33  1  0
  1 34  1  0
  3 35  1  0
  4 36  1  0
  8 37  1  0
 10 38  1  0
 10 39  1  0
 12 40  1  0
 12 41  1  0
 13 42  1  0
 13 43  1  0
 15 44  1  0
 15 45  1  0
 20 46  1  0
 21 47  1  0
 22 48  1  0
 24 49  1  0
 24 50  1  0
 24 51  1  0
 26 52  1  0
 26 53  1  0
 26 54  1  0
 27 55  1  0
 27 56  1  0
 28 57  1  0
 28 58  1  0
 31 59  1  0
M  CHG  1  18  -1
M  END
>  <UniqueID>  (79) 
77

>  <SMILES>  (79) 
Cc1ccc2c(=O)cc(CN3CCN(CC(=O)[N-]c4cccc(C)c4C)CC3)oc2c1

>  <Energy>  (79) 
89.07634365729393

>  <Genealogy>  (79) 
Cc1ccc2c(=O)cc(CN3CCN(CC(=O)[N-]c4cccc(C)c4C)CC3)oc2c1 (protonated)
Cc1ccc2c(=O)cc(CN3CCN(CC(=O)[N-]c4cccc(C)c4C)CC3)oc2c1 (3D coordinates assigned)
Cc1ccc2c(=O)cc(CN3CCN(CC(=O)[N-]c4cccc(C)c4C)CC3)oc2c1 (nonaromatic ring conformer: 89.07634365729393 kcal/mol)

>  <smiles>  (79) 
Cc1ccc2c(=O)cc(CN3CCN(CC(=O)Nc4cccc(C)c4C)CC3)oc2c1

>  <score_type>  (79) 
oracle

>  <origin>  (79) 
adg

>  <m_score__min__energy>  (79) 
-10.65

>  <m_primary>  (79) 
energy

$$$$
79:0
     RDKit          3D

 51 54  0  0  0  0  0  0  0  0999 V2000
   55.1970   29.8340   44.2280 O   0  0  0  0  0  0  0  0  0  0  0  0
   56.2110   29.1770   44.5820 C   0  0  0  0  0  0  0  0  0  0  0  0
   57.5340   29.4700   43.9540 C   0  0  0  0  0  0  0  0  0  0  0  0
   57.6490   31.2190   43.4410 S   0  0  0  0  0  0  0  0  0  0  0  0
   57.7980   31.8710   45.1090 C   0  0  0  0  0  0  0  0  0  0  0  0
   56.9890   32.8270   45.6020 N   0  0  0  0  0  0  0  0  0  0  0  0
   57.4230   33.1080   46.8220 N   0  0  0  0  0  0  0  0  0  0  0  0
   58.4910   32.3180   47.0570 C   0  0  0  0  0  0  0  0  0  0  0  0
   59.3490   32.4370   48.2890 C   0  0  0  0  0  0  0  0  0  0  0  0
   60.8000   32.6060   47.9250 C   0  0  0  0  0  0  0  0  0  0  0  0
   61.1980   33.6200   47.0370 C   0  0  0  0  0  0  0  0  0  0  0  0
   62.5520   33.7960   46.7320 C   0  0  0  0  0  0  0  0  0  0  0  0
   63.5150   32.9700   47.3150 C   0  0  0  0  0  0  0  0  0  0  0  0
   63.1270   31.9660   48.2060 C   0  0  0  0  0  0  0  0  0  0  0  0
   61.7770   31.7860   48.5160 C   0  0  0  0  0  0  0  0  0  0  0  0
   58.7650   31.5370   45.9880 N   0  0  0  0  0  0  0  0  0  0  0  0
   59.9370   30.6880   45.7460 C   0  0  0  0  0  0  0  0  0  0  0  0
   59.8100   29.3590   46.4470 C   0  0  0  0  0  0  0  0  0  0  0  0
   60.4180   28.2090   45.9150 C   0  0  0  0  0  0  0  0  0  0  0  0
   60.2310   26.9650   46.5270 C   0  0  0  0  0  0  0  0  0  0  0  0
   59.4270   26.8570   47.6640 C   0  0  0  0  0  0  0  0  0  0  0  0
   58.8170   27.9940   48.1970 C   0  0  0  0  0  0  0  0  0  0  0  0
   59.0100   29.2420   47.5970 C   0  0  0  0  0  0  0  0  0  0  0  0
   56.1300   28.1920   45.6210 N   0  0  0  0  0  0  0  0  0  0  0  0
   56.6690   26.8620   45.5950 C   0  0  0  0  0  0  0  0  0  0  0  0
   57.5550   26.5220   44.5640 C   0  0  0  0  0  0  0  0  0  0  0  0
   58.1160   25.2430   44.5040 C   0  0  0  0  0  0  0  0  0  0  0  0
   57.7810   24.2860   45.4670 C   0  0  0  0  0  0  0  0  0  0  0  0
   58.4880   22.6830   45.3970 Cl  0  0  0  0  0  0  0  0  0  0  0  0
   56.8730   24.6060   46.4810 C   0  0  0  0  0  0  0  0  0  0  0  0
   56.3110   25.8850   46.5430 C   0  0  0  0  0  0  0  0  0  0  0  0
   58.3314   29.2562   44.6809 H   0  0  0  0  0  0  0  0  0  0  0  0
   57.6433   28.8372   43.0609 H   0  0  0  0  0  0  0  0  0  0  0  0
   59.0209   33.3100   48.8723 H   0  0  0  0  0  0  0  0  0  0  0  0
   59.2421   31.5151   48.8794 H   0  0  0  0  0  0  0  0  0  0  0  0
   60.4430   34.2770   46.5806 H   0  0  0  0  0  0  0  0  0  0  0  0
   62.8585   34.5867   46.0315 H   0  0  0  0  0  0  0  0  0  0  0  0
   64.5789   33.1096   47.0729 H   0  0  0  0  0  0  0  0  0  0  0  0
   63.8866   31.3157   48.6644 H   0  0  0  0  0  0  0  0  0  0  0  0
   61.4774   31.0001   49.2249 H   0  0  0  0  0  0  0  0  0  0  0  0
   60.0351   30.5138   44.6643 H   0  0  0  0  0  0  0  0  0  0  0  0
   60.8246   31.2036   46.1413 H   0  0  0  0  0  0  0  0  0  0  0  0
   61.0436   28.2874   45.0136 H   0  0  0  0  0  0  0  0  0  0  0  0
   60.7180   26.0703   46.1120 H   0  0  0  0  0  0  0  0  0  0  0  0
   59.2745   25.8767   48.1392 H   0  0  0  0  0  0  0  0  0  0  0  0
   58.1827   27.9078   49.0916 H   0  0  0  0  0  0  0  0  0  0  0  0
   58.5340   30.1358   48.0265 H   0  0  0  0  0  0  0  0  0  0  0  0
   57.8109   27.2670   43.7962 H   0  0  0  0  0  0  0  0  0  0  0  0
   58.8213   24.9893   43.6989 H   0  0  0  0  0  0  0  0  0  0  0  0
   56.6001   23.8498   47.2318 H   0  0  0  0  0  0  0  0  0  0  0  0
   55.5872   26.1283   47.3348 H   0  0  0  0  0  0  0  0  0  0  0  0
  1  2  2  0
  2  3  1  0
  3  4  1  0
  4  5  1  0
  5  6  2  0
  6  7  1  0
  7  8  2  0
  8  9  1  0
  9 10  1  0
 10 11  2  0
 11 12  1  0
 12 13  2  0
 13 14  1  0
 14 15  2  0
  8 16  1  0
 16 17  1  0
 17 18  1  0
 18 19  2  0
 19 20  1  0
 20 21  2  0
 21 22  1  0
 22 23  2  0
  2 24  1  0
 24 25  1  0
 25 26  2  0
 26 27  1  0
 27 28  2  0
 28 29  1  0
 28 30  1  0
 30 31  2  0
 16  5  1  0
 23 18  1  0
 31 25  1  0
 15 10  1  0
  3 32  1  0
  3 33  1  0
  9 34  1  0
  9 35  1  0
 11 36  1  0
 12 37  1  0
 13 38  1  0
 14 39  1  0
 15 40  1  0
 17 41  1  0
 17 42  1  0
 19 43  1  0
 20 44  1  0
 21 45  1  0
 22 46  1  0
 23 47  1  0
 26 48  1  0
 27 49  1  0
 30 50  1  0
 31 51  1  0
M  CHG  1  24  -1
M  END
>  <UniqueID>  (80) 
78

>  <SMILES>  (80) 
O=C(CSc1nnc(Cc2ccccc2)n1Cc1ccccc1)[N-]c1ccc(Cl)cc1

>  <Energy>  (80) 
84.10047360229674

>  <Genealogy>  (80) 
O=C(CSc1nnc(Cc2ccccc2)n1Cc1ccccc1)[N-]c1ccc(Cl)cc1 (protonated)
O=C(CSc1nnc(Cc2ccccc2)n1Cc1ccccc1)[N-]c1ccc(Cl)cc1 (3D coordinates assigned)
O=C(CSc1nnc(Cc2ccccc2)n1Cc1ccccc1)[N-]c1ccc(Cl)cc1 (optimized conformer: 84.10047360229674 kcal/mol)

>  <smiles>  (80) 
O=C(CSc1nnc(Cc2ccccc2)n1Cc1ccccc1)Nc1ccc(Cl)cc1

>  <score_type>  (80) 
oracle

>  <origin>  (80) 
adg

>  <m_score__min__energy>  (80) 
-10.779999999999999

>  <m_primary>  (80) 
energy

$$$$
80:0
     RDKit          3D

 46 48  0  0  0  0  0  0  0  0999 V2000
   55.1080   26.2670   46.0050 N   0  0  0  0  0  0  0  0  0  0  0  0
   56.7370   25.7080   45.8680 S   0  0  0  0  0  0  0  0  0  0  0  0
   57.0860   24.8700   47.0650 O   0  0  0  0  0  0  0  0  0  0  0  0
   56.8700   24.8640   44.6300 O   0  0  0  0  0  0  0  0  0  0  0  0
   57.8240   27.0890   45.7830 C   0  0  0  0  0  0  0  0  0  0  0  0
   59.1650   26.9690   46.1660 C   0  0  0  0  0  0  0  0  0  0  0  0
   60.0070   28.0830   46.1290 C   0  0  0  0  0  0  0  0  0  0  0  0
   59.5170   29.3250   45.7090 C   0  0  0  0  0  0  0  0  0  0  0  0
   60.3680   30.4240   45.7220 O   0  0  0  0  0  0  0  0  0  0  0  0
   58.1780   29.4480   45.2960 C   0  0  0  0  0  0  0  0  0  0  0  0
   57.4840   31.0060   44.8310 S   0  0  0  0  0  0  0  0  0  0  0  0
   56.0570   30.8110   44.4040 O   0  0  0  0  0  0  0  0  0  0  0  0
   58.2520   31.6040   43.6860 O   0  0  0  0  0  0  0  0  0  0  0  0
   57.5440   32.0870   46.1800 N   0  0  0  0  0  0  0  0  0  0  0  0
   58.3300   33.2790   46.1230 C   0  0  0  0  0  0  0  0  0  0  0  0
   58.1200   34.1830   45.0730 C   0  0  0  0  0  0  0  0  0  0  0  0
   58.9510   35.2950   44.9230 C   0  0  0  0  0  0  0  0  0  0  0  0
   59.9990   35.5090   45.8190 C   0  0  0  0  0  0  0  0  0  0  0  0
   60.2120   34.6180   46.8740 C   0  0  0  0  0  0  0  0  0  0  0  0
   59.3720   33.5060   47.0500 C   0  0  0  0  0  0  0  0  0  0  0  0
   59.6290   32.5730   48.1720 C   0  0  0  0  0  0  0  0  0  0  0  0
   58.6480   32.1340   48.8340 O   0  0  0  0  0  0  0  0  0  0  0  0
   60.9650   32.1700   48.5320 N   0  0  0  0  0  0  0  0  0  0  0  0
   61.2440   31.7770   49.9180 C   0  0  0  0  0  0  0  0  0  0  0  0
   62.7500   31.5700   50.1360 C   0  0  0  0  0  0  0  0  0  0  0  0
   63.5170   32.5760   49.3920 N   0  0  0  0  0  0  0  0  0  0  0  0
   63.3660   32.4170   47.9330 C   0  0  0  0  0  0  0  0  0  0  0  0
   61.9770   31.8960   47.5020 C   0  0  0  0  0  0  0  0  0  0  0  0
   57.3390   28.3250   45.3360 C   0  0  0  0  0  0  0  0  0  0  0  0
   55.1460   27.3100   46.0350 H   0  0  0  0  0  0  0  0  0  0  0  0
   59.5565   25.9957   46.4967 H   0  0  0  0  0  0  0  0  0  0  0  0
   61.0600   27.9837   46.4313 H   0  0  0  0  0  0  0  0  0  0  0  0
   57.2963   34.0157   44.3634 H   0  0  0  0  0  0  0  0  0  0  0  0
   58.7794   36.0024   44.0983 H   0  0  0  0  0  0  0  0  0  0  0  0
   60.6585   36.3805   45.6946 H   0  0  0  0  0  0  0  0  0  0  0  0
   61.0444   34.7888   47.5725 H   0  0  0  0  0  0  0  0  0  0  0  0
   60.8873   32.5670   50.5952 H   0  0  0  0  0  0  0  0  0  0  0  0
   60.7251   30.8296   50.1261 H   0  0  0  0  0  0  0  0  0  0  0  0
   62.9770   31.6611   51.2085 H   0  0  0  0  0  0  0  0  0  0  0  0
   63.0289   30.5692   49.7747 H   0  0  0  0  0  0  0  0  0  0  0  0
   63.1750   33.5290   49.6650 H   0  0  0  0  0  0  0  0  0  0  0  0
   63.5316   33.3956   47.4587 H   0  0  0  0  0  0  0  0  0  0  0  0
   64.1027   31.6644   47.6153 H   0  0  0  0  0  0  0  0  0  0  0  0
   61.6812   32.3936   46.5667 H   0  0  0  0  0  0  0  0  0  0  0  0
   62.0420   30.8075   47.3576 H   0  0  0  0  0  0  0  0  0  0  0  0
   56.2912   28.4154   45.0137 H   0  0  0  0  0  0  0  0  0  0  0  0
  1  2  1  0
  2  3  2  0
  2  4  2  0
  2  5  1  0
  5  6  2  0
  6  7  1  0
  7  8  2  0
  8  9  1  0
  8 10  1  0
 10 11  1  0
 11 12  2  0
 11 13  2  0
 11 14  1  0
 14 15  1  0
 15 16  2  0
 16 17  1  0
 17 18  2  0
 18 19  1  0
 19 20  2  0
 20 21  1  0
 21 22  2  0
 21 23  1  0
 23 24  1  0
 24 25  1  0
 25 26  1  0
 26 27  1  0
 27 28  1  0
 10 29  2  0
 29  5  1  0
 20 15  1  0
 28 23  1  0
  1 30  1  0
  6 31  1  0
  7 32  1  0
 16 33  1  0
 17 34  1  0
 18 35  1  0
 19 36  1  0
 24 37  1  0
 24 38  1  0
 25 39  1  0
 25 40  1  0
 26 41  1  0
 27 42  1  0
 27 43  1  0
 28 44  1  0
 28 45  1  0
 29 46  1  0
M  CHG  3   1  -1   9  -1  14  -1
M  END
>  <UniqueID>  (81) 
79

>  <SMILES>  (81) 
[NH-]S(=O)(=O)c1ccc([O-])c(S(=O)(=O)[N-]c2ccccc2C(=O)N2CCNCC2)c1

>  <Energy>  (81) 
65.42368744317399

>  <Genealogy>  (81) 
[NH-]S(=O)(=O)c1ccc([O-])c(S(=O)(=O)[N-]c2ccccc2C(=O)N2CCNCC2)c1 (protonated)
[NH-]S(=O)(=O)c1ccc([O-])c(S(=O)(=O)[N-]c2ccccc2C(=O)N2CCNCC2)c1 (3D coordinates assigned)
[NH-]S(=O)(=O)c1ccc([O-])c(S(=O)(=O)[N-]c2ccccc2C(=O)N2CCNCC2)c1 (nonaromatic ring conformer: 65.42368744317399 kcal/mol)

>  <smiles>  (81) 
NS(=O)(=O)c1ccc(O)c(S(=O)(=O)Nc2ccccc2C(=O)N2CCNCC2)c1

>  <score_type>  (81) 
oracle

>  <origin>  (81) 
adg

>  <m_score__min__energy>  (81) 
-14.83

>  <m_primary>  (81) 
energy

$$$$
81:0
     RDKit          3D

 57 61  0  0  0  0  0  0  0  0999 V2000
   62.2820   33.6330   47.0710 C   0  0  0  0  0  0  0  0  0  0  0  0
   61.3030   32.5180   47.5410 C   0  0  1  0  0  0  0  0  0  0  0  0
   62.1840   31.2660   47.8700 C   0  0  0  0  0  0  0  0  0  0  0  0
   62.8720   31.3820   49.2350 C   0  0  0  0  0  0  0  0  0  0  0  0
   61.8470   31.5880   50.3590 C   0  0  2  0  0  0  0  0  0  0  0  0
   61.1400   30.3170   50.6250 N   0  0  0  0  0  0  0  0  0  0  0  0
   60.4730   30.2810   52.2330 S   0  0  0  0  0  0  0  0  0  0  0  0
   61.0140   31.4430   53.0160 O   0  0  0  0  0  0  0  0  0  0  0  0
   60.8850   29.0110   52.9250 O   0  0  0  0  0  0  0  0  0  0  0  0
   58.7160   30.3940   52.1830 C   0  0  0  0  0  0  0  0  0  0  0  0
   57.9330   29.3650   52.7260 C   0  0  0  0  0  0  0  0  0  0  0  0
   56.5390   29.4640   52.7200 C   0  0  0  0  0  0  0  0  0  0  0  0
   55.9180   30.5920   52.1730 C   0  0  0  0  0  0  0  0  0  0  0  0
   54.1690   30.7170   52.1690 Cl  0  0  0  0  0  0  0  0  0  0  0  0
   56.6960   31.6230   51.6350 C   0  0  0  0  0  0  0  0  0  0  0  0
   58.0910   31.5260   51.6400 C   0  0  0  0  0  0  0  0  0  0  0  0
   60.8560   32.6820   50.0150 C   0  0  0  0  0  0  0  0  0  0  0  0
   60.5330   33.0350   48.7520 C   0  0  0  0  0  0  0  0  0  0  0  0
   59.2710   33.8540   48.5390 C   0  0  0  0  0  0  0  0  0  0  0  0
   59.0830   34.4090   47.1080 C   0  0  0  0  0  0  0  0  0  0  0  0
   59.4840   33.4630   45.9220 C   0  0  2  0  0  0  0  0  0  0  0  0
   60.3480   34.1890   45.0730 O   0  0  0  0  0  0  0  0  0  0  0  0
   58.2400   33.1370   45.0950 C   0  0  0  0  0  0  0  0  0  0  0  0
   57.7300   34.0530   44.3920 O   0  0  0  0  0  0  0  0  0  0  0  0
   57.6080   31.7990   45.1080 C   0  0  0  0  0  0  0  0  0  0  0  0
   56.5130   31.5100   44.2710 C   0  0  0  0  0  0  0  0  0  0  0  0
   55.8940   30.2590   44.3220 C   0  0  0  0  0  0  0  0  0  0  0  0
   56.3540   29.2860   45.2120 C   0  0  0  0  0  0  0  0  0  0  0  0
   55.7340   28.0450   45.2660 O   0  0  0  0  0  0  0  0  0  0  0  0
   57.4390   29.5630   46.0490 C   0  0  0  0  0  0  0  0  0  0  0  0
   58.0760   30.8160   45.9900 C   0  0  0  0  0  0  0  0  0  0  0  0
   59.2090   31.1240   46.8720 C   0  0  0  0  0  0  0  0  0  0  0  0
   59.2890   30.5360   47.9850 O   0  0  0  0  0  0  0  0  0  0  0  0
   60.2350   32.1730   46.4320 C   0  0  2  0  0  0  0  0  0  0  0  0
   62.7193   34.1310   47.9490 H   0  0  0  0  0  0  0  0  0  0  0  0
   63.0842   33.1854   46.4659 H   0  0  0  0  0  0  0  0  0  0  0  0
   61.7344   34.3706   46.4659 H   0  0  0  0  0  0  0  0  0  0  0  0
   61.5424   30.3725   47.8719 H   0  0  0  0  0  0  0  0  0  0  0  0
   62.9686   31.1952   47.1023 H   0  0  0  0  0  0  0  0  0  0  0  0
   63.4382   30.4594   49.4307 H   0  0  0  0  0  0  0  0  0  0  0  0
   63.5437   32.2528   49.2130 H   0  0  0  0  0  0  0  0  0  0  0  0
   62.3863   31.9040   51.2642 H   0  0  0  0  0  0  0  0  0  0  0  0
   60.3240   30.2040   49.9770 H   0  0  0  0  0  0  0  0  0  0  0  0
   58.4177   28.4771   53.1581 H   0  0  0  0  0  0  0  0  0  0  0  0
   55.9291   28.6537   53.1460 H   0  0  0  0  0  0  0  0  0  0  0  0
   56.2092   32.5118   51.2072 H   0  0  0  0  0  0  0  0  0  0  0  0
   58.6993   32.3391   51.2172 H   0  0  0  0  0  0  0  0  0  0  0  0
   60.3712   33.2202   50.8428 H   0  0  0  0  0  0  0  0  0  0  0  0
   58.4066   33.2152   48.7730 H   0  0  0  0  0  0  0  0  0  0  0  0
   59.3595   34.7301   49.1982 H   0  0  0  0  0  0  0  0  0  0  0  0
   58.0194   34.6618   46.9866 H   0  0  0  0  0  0  0  0  0  0  0  0
   59.7718   35.2638   47.0389 H   0  0  0  0  0  0  0  0  0  0  0  0
   59.8270   34.5010   44.2860 H   0  0  0  0  0  0  0  0  0  0  0  0
   56.1427   32.2747   43.5723 H   0  0  0  0  0  0  0  0  0  0  0  0
   55.0431   30.0398   43.6603 H   0  0  0  0  0  0  0  0  0  0  0  0
   57.7956   28.7991   46.7556 H   0  0  0  0  0  0  0  0  0  0  0  0
   60.8161   31.7373   45.6059 H   0  0  0  0  0  0  0  0  0  0  0  0
  2  1  1  6
  2  3  1  0
  3  4  1  0
  4  5  1  0
  5  6  1  0
  6  7  1  0
  7  8  2  0
  7  9  2  0
  7 10  1  0
 10 11  2  0
 11 12  1  0
 12 13  2  0
 13 14  1  0
 13 15  1  0
 15 16  2  0
  5 17  1  0
 17 18  2  0
 18 19  1  0
 19 20  1  0
 20 21  1  0
 21 22  1  6
 21 23  1  0
 23 24  2  0
 23 25  1  0
 25 26  2  0
 26 27  1  0
 27 28  2  0
 28 29  1  0
 28 30  1  0
 30 31  2  0
 31 32  1  0
 32 33  2  0
 32 34  1  0
 18  2  1  0
 34 21  1  0
 34  2  1  0
 16 10  1  0
 31 25  1  0
  1 35  1  0
  1 36  1  0
  1 37  1  0
  3 38  1  0
  3 39  1  0
  4 40  1  0
  4 41  1  0
  5 42  1  1
  6 43  1  0
 11 44  1  0
 12 45  1  0
 15 46  1  0
 16 47  1  0
 17 48  1  0
 19 49  1  0
 19 50  1  0
 20 51  1  0
 20 52  1  0
 22 53  1  0
 26 54  1  0
 27 55  1  0
 30 56  1  0
 34 57  1  6
M  CHG  1  29  -1
M  END
>  <UniqueID>  (82) 
80

>  <SMILES>  (82) 
C[C@@]12CC[C@H](NS(=O)(=O)c3ccc(Cl)cc3)C=C1CCC1(O)C(=O)c3ccc([O-])cc3C(=O)C12

>  <Energy>  (82) 
88.99876685916925

>  <Genealogy>  (82) 
CC12CCC(NS(=O)(=O)c3ccc(Cl)cc3)C=C1CCC1(O)C(=O)c3ccc([O-])cc3C(=O)C21 (protonated)
C[C@@]12CC[C@H](NS(=O)(=O)c3ccc(Cl)cc3)C=C1CCC1(O)C(=O)c3ccc([O-])cc3C(=O)C12 (chirality)
C[C@@]12CC[C@H](NS(=O)(=O)c3ccc(Cl)cc3)C=C1CCC1(O)C(=O)c3ccc([O-])cc3C(=O)C12 (3D coordinates assigned)
C[C@@]12CC[C@H](NS(=O)(=O)c3ccc(Cl)cc3)C=C1CCC1(O)C(=O)c3ccc([O-])cc3C(=O)C12 (nonaromatic ring conformer: 88.99876685916925 kcal/mol)

>  <smiles>  (82) 
CC12CCC(NS(=O)(=O)c3ccc(Cl)cc3)C=C1CCC1(O)C(=O)c3ccc(O)cc3C(=O)C21

>  <score_type>  (82) 
oracle

>  <origin>  (82) 
adg

>  <m_score__min__energy>  (82) 
-11.949999999999999

>  <m_primary>  (82) 
energy

$$$$
82:0
     RDKit          3D

 67 71  0  0  0  0  0  0  0  0999 V2000
   57.3660   33.8350   44.8820 C   0  0  0  0  0  0  0  0  0  0  0  0
   58.5240   33.8610   45.8340 C   0  0  0  0  0  0  0  0  0  0  0  0
   59.8390   33.8720   45.3480 C   0  0  0  0  0  0  0  0  0  0  0  0
   60.9200   33.8760   46.2340 C   0  0  0  0  0  0  0  0  0  0  0  0
   60.7000   33.8440   47.6240 C   0  0  0  0  0  0  0  0  0  0  0  0
   61.7790   33.8410   48.5660 N   0  0  0  0  0  0  0  0  0  0  0  0
   63.2360   32.9150   48.3970 S   0  0  0  0  0  0  0  0  0  0  0  0
   64.4020   33.8560   48.5050 O   0  0  0  0  0  0  0  0  0  0  0  0
   63.2450   32.2360   47.0530 O   0  0  0  0  0  0  0  0  0  0  0  0
   63.3400   31.6920   49.6760 C   0  0  0  0  0  0  0  0  0  0  0  0
   64.4320   31.7170   50.5570 C   0  0  0  0  0  0  0  0  0  0  0  0
   64.5750   30.7320   51.5360 C   0  0  0  0  0  0  0  0  0  0  0  0
   63.6360   29.7060   51.6410 C   0  0  0  0  0  0  0  0  0  0  0  0
   62.5390   29.6740   50.7810 C   0  0  0  0  0  0  0  0  0  0  0  0
   62.3720   30.6670   49.8050 C   0  0  0  0  0  0  0  0  0  0  0  0
   61.1810   30.6040   48.9400 C   0  0  0  0  0  0  0  0  0  0  0  0
   61.3270   30.4710   47.5500 C   0  0  0  0  0  0  0  0  0  0  0  0
   60.1970   30.3930   46.7310 C   0  0  0  0  0  0  0  0  0  0  0  0
   58.9160   30.4070   47.2960 C   0  0  0  0  0  0  0  0  0  0  0  0
   57.7760   30.2330   46.4550 N   0  0  0  0  0  0  0  0  0  0  0  0
   57.8980   29.3310   44.9810 S   0  0  0  0  0  0  0  0  0  0  0  0
   56.5820   29.3420   44.2540 O   0  0  0  0  0  0  0  0  0  0  0  0
   58.9400   29.9580   44.1020 O   0  0  0  0  0  0  0  0  0  0  0  0
   58.3760   27.6800   45.3810 C   0  0  0  0  0  0  0  0  0  0  0  0
   59.4900   27.4560   46.1950 C   0  0  0  0  0  0  0  0  0  0  0  0
   59.9160   26.1560   46.4530 C   0  0  0  0  0  0  0  0  0  0  0  0
   59.2400   25.0680   45.8970 C   0  0  0  0  0  0  0  0  0  0  0  0
   58.1150   25.2590   45.0570 C   0  0  0  0  0  0  0  0  0  0  0  0
   57.4140   24.1220   44.4600 N   0  0  0  0  0  0  0  0  0  0  0  0
   58.1690   22.8770   44.1850 C   0  0  0  0  0  0  0  0  0  0  0  0
   57.3400   21.7330   43.5780 C   0  0  0  0  0  0  0  0  0  0  0  0
   56.2700   22.2180   42.7150 N   0  0  0  0  0  0  0  0  0  0  0  0
   55.3500   23.0200   43.5140 C   0  0  0  0  0  0  0  0  0  0  0  0
   56.0180   24.3040   44.0030 C   0  0  0  0  0  0  0  0  0  0  0  0
   57.6980   26.5920   44.8130 C   0  0  0  0  0  0  0  0  0  0  0  0
   58.7680   30.5400   48.6870 C   0  0  0  0  0  0  0  0  0  0  0  0
   59.8960   30.6460   49.5040 C   0  0  0  0  0  0  0  0  0  0  0  0
   59.3860   33.8070   48.1060 C   0  0  0  0  0  0  0  0  0  0  0  0
   58.3050   33.8160   47.2180 C   0  0  0  0  0  0  0  0  0  0  0  0
   56.4245   33.8139   45.4504 H   0  0  0  0  0  0  0  0  0  0  0  0
   57.3918   34.7340   44.2486 H   0  0  0  0  0  0  0  0  0  0  0  0
   57.4321   32.9381   44.2486 H   0  0  0  0  0  0  0  0  0  0  0  0
   60.0210   33.8775   44.2632 H   0  0  0  0  0  0  0  0  0  0  0  0
   61.9478   33.9043   45.8431 H   0  0  0  0  0  0  0  0  0  0  0  0
   65.1809   32.5186   50.4756 H   0  0  0  0  0  0  0  0  0  0  0  0
   65.4306   30.7652   52.2265 H   0  0  0  0  0  0  0  0  0  0  0  0
   63.7609   28.9220   52.4024 H   0  0  0  0  0  0  0  0  0  0  0  0
   61.7995   28.8644   50.8687 H   0  0  0  0  0  0  0  0  0  0  0  0
   62.3320   30.4281   47.1049 H   0  0  0  0  0  0  0  0  0  0  0  0
   60.3144   30.3204   45.6397 H   0  0  0  0  0  0  0  0  0  0  0  0
   60.0309   28.3082   46.6324 H   0  0  0  0  0  0  0  0  0  0  0  0
   60.7901   25.9849   47.0985 H   0  0  0  0  0  0  0  0  0  0  0  0
   59.5862   24.0468   46.1145 H   0  0  0  0  0  0  0  0  0  0  0  0
   58.9813   23.1187   43.4837 H   0  0  0  0  0  0  0  0  0  0  0  0
   58.5261   22.5132   45.1597 H   0  0  0  0  0  0  0  0  0  0  0  0
   58.0070   21.0894   42.9857 H   0  0  0  0  0  0  0  0  0  0  0  0
   56.8762   21.1789   44.4074 H   0  0  0  0  0  0  0  0  0  0  0  0
   56.6790   22.8110   41.9560 H   0  0  0  0  0  0  0  0  0  0  0  0
   54.4758   23.2818   42.8998 H   0  0  0  0  0  0  0  0  0  0  0  0
   55.0452   22.4301   44.3910 H   0  0  0  0  0  0  0  0  0  0  0  0
   56.0167   25.0304   43.1770 H   0  0  0  0  0  0  0  0  0  0  0  0
   55.4415   24.6501   44.8736 H   0  0  0  0  0  0  0  0  0  0  0  0
   56.8271   26.7759   44.1666 H   0  0  0  0  0  0  0  0  0  0  0  0
   57.7627   30.5607   49.1330 H   0  0  0  0  0  0  0  0  0  0  0  0
   59.7773   30.7626   50.5913 H   0  0  0  0  0  0  0  0  0  0  0  0
   59.2024   33.7706   49.1900 H   0  0  0  0  0  0  0  0  0  0  0  0
   57.2769   33.7876   47.6081 H   0  0  0  0  0  0  0  0  0  0  0  0
  1  2  1  0
  2  3  2  0
  3  4  1  0
  4  5  2  0
  5  6  1  0
  6  7  1  0
  7  8  2  0
  7  9  2  0
  7 10  1  0
 10 11  2  0
 11 12  1  0
 12 13  2  0
 13 14  1  0
 14 15  2  0
 15 16  1  0
 16 17  2  0
 17 18  1  0
 18 19  2  0
 19 20  1  0
 20 21  1  0
 21 22  2  0
 21 23  2  0
 21 24  1  0
 24 25  2  0
 25 26  1  0
 26 27  2  0
 27 28  1  0
 28 29  1  0
 29 30  1  0
 30 31  1  0
 31 32  1  0
 32 33  1  0
 33 34  1  0
 28 35  2  0
 19 36  1  0
 36 37  2  0
  5 38  1  0
 38 39  2  0
 39  2  1  0
 15 10  1  0
 37 16  1  0
 35 24  1  0
 34 29  1  0
  1 40  1  0
  1 41  1  0
  1 42  1  0
  3 43  1  0
  4 44  1  0
 11 45  1  0
 12 46  1  0
 13 47  1  0
 14 48  1  0
 17 49  1  0
 18 50  1  0
 25 51  1  0
 26 52  1  0
 27 53  1  0
 30 54  1  0
 30 55  1  0
 31 56  1  0
 31 57  1  0
 32 58  1  0
 33 59  1  0
 33 60  1  0
 34 61  1  0
 34 62  1  0
 35 63  1  0
 36 64  1  0
 37 65  1  0
 38 66  1  0
 39 67  1  0
M  CHG  2   6  -1  20  -1
M  END
>  <UniqueID>  (83) 
81

>  <SMILES>  (83) 
Cc1ccc([N-]S(=O)(=O)c2ccccc2-c2ccc([N-]S(=O)(=O)c3cccc(N4CCNCC4)c3)cc2)cc1

>  <Energy>  (83) 
99.07454842103098

>  <Genealogy>  (83) 
Cc1ccc([N-]S(=O)(=O)c2ccccc2-c2ccc([N-]S(=O)(=O)c3cccc(N4CCNCC4)c3)cc2)cc1 (protonated)
Cc1ccc([N-]S(=O)(=O)c2ccccc2-c2ccc([N-]S(=O)(=O)c3cccc(N4CCNCC4)c3)cc2)cc1 (3D coordinates assigned)
Cc1ccc([N-]S(=O)(=O)c2ccccc2-c2ccc([N-]S(=O)(=O)c3cccc(N4CCNCC4)c3)cc2)cc1 (nonaromatic ring conformer: 99.07454842103098 kcal/mol)

>  <smiles>  (83) 
Cc1ccc(NS(=O)(=O)c2ccccc2-c2ccc(NS(=O)(=O)c3cccc(N4CCNCC4)c3)cc2)cc1

>  <score_type>  (83) 
oracle

>  <origin>  (83) 
adg

>  <m_score__min__energy>  (83) 
-13.19

>  <m_primary>  (83) 
energy

$$$$
83:0
     RDKit          3D

 51 53  0  0  1  0  0  0  0  0999 V2000
   59.6480   33.8310   50.3990 C   0  0  0  0  0  0  0  0  0  0  0  0
   60.3020   33.7010   49.0540 C   0  0  0  0  0  0  0  0  0  0  0  0
   61.6260   33.3890   48.9610 N   0  0  0  0  0  0  0  0  0  0  0  0
   62.2240   33.2700   47.7610 C   0  0  0  0  0  0  0  0  0  0  0  0
   63.6800   32.9280   47.6610 C   0  0  0  0  0  0  0  0  0  0  0  0
   63.8270   31.6110   47.9800 F   0  0  0  0  0  0  0  0  0  0  0  0
   64.4250   33.7150   48.5400 F   0  0  0  0  0  0  0  0  0  0  0  0
   64.1250   33.2370   46.3980 F   0  0  0  0  0  0  0  0  0  0  0  0
   61.4960   33.4630   46.5830 C   0  0  0  0  0  0  0  0  0  0  0  0
   60.1470   33.7790   46.7090 C   0  0  0  0  0  0  0  0  0  0  0  0
   59.4140   33.9720   45.6790 N   0  0  0  0  0  0  0  0  0  0  0  0
   57.7560   33.4840   45.5680 S   0  0  0  0  0  0  0  0  0  0  0  0
   57.0300   33.6740   46.8830 O   0  0  0  0  0  0  0  0  0  0  0  0
   57.0240   34.1940   44.4840 O   0  0  0  0  0  0  0  0  0  0  0  0
   57.7780   31.7340   45.3130 C   0  0  0  0  0  0  0  0  0  0  0  0
   57.0660   31.2130   44.2510 C   0  0  0  0  0  0  0  0  0  0  0  0
   57.0990   29.8330   44.0710 C   0  0  0  0  0  0  0  0  0  0  0  0
   57.8060   28.9960   44.9070 C   0  0  0  0  0  0  0  0  0  0  0  0
   57.7610   27.5670   44.6130 C   0  0  0  0  0  0  0  0  0  0  0  0
   58.1930   27.1740   43.5010 O   0  0  0  0  0  0  0  0  0  0  0  0
   57.2520   26.6000   45.5240 N   0  0  0  0  0  0  0  0  0  0  0  0
   57.2750   25.2410   45.0910 C   0  0  0  0  0  0  0  0  0  0  0  0
   56.2110   24.6240   44.4770 C   0  0  0  0  0  0  0  0  0  0  0  0
   56.2470   23.3000   44.0610 C   0  0  0  0  0  0  0  0  0  0  0  0
   57.4230   22.5840   44.2870 C   0  0  0  0  0  0  0  0  0  0  0  0
   58.4960   23.2020   44.9050 C   0  0  0  0  0  0  0  0  0  0  0  0
   59.7280   22.3720   45.1150 C   0  0  0  0  0  0  0  0  0  0  0  0
   58.4490   24.5200   45.3140 C   0  0  0  0  0  0  0  0  0  0  0  0
   59.6240   25.1490   45.9760 C   0  0  0  0  0  0  0  0  0  0  0  0
   58.5130   29.5150   45.9630 C   0  0  0  0  0  0  0  0  0  0  0  0
   58.4860   30.8960   46.1500 C   0  0  0  0  0  0  0  0  0  0  0  0
   59.5900   33.8900   47.9300 N   0  0  0  0  0  0  0  0  0  0  0  0
   60.3996   33.6816   51.1882 H   0  0  0  0  0  0  0  0  0  0  0  0
   59.2077   34.8342   50.4972 H   0  0  0  0  0  0  0  0  0  0  0  0
   58.8575   33.0724   50.4972 H   0  0  0  0  0  0  0  0  0  0  0  0
   61.9712   33.3687   45.5954 H   0  0  0  0  0  0  0  0  0  0  0  0
   56.4944   31.8637   43.5729 H   0  0  0  0  0  0  0  0  0  0  0  0
   56.5404   29.3946   43.2309 H   0  0  0  0  0  0  0  0  0  0  0  0
   56.8890   26.9040   46.4530 H   0  0  0  0  0  0  0  0  0  0  0  0
   55.2918   25.2041   44.3081 H   0  0  0  0  0  0  0  0  0  0  0  0
   55.3801   22.8325   43.5711 H   0  0  0  0  0  0  0  0  0  0  0  0
   57.4970   21.5318   43.9750 H   0  0  0  0  0  0  0  0  0  0  0  0
   59.9087   22.2503   46.1932 H   0  0  0  0  0  0  0  0  0  0  0  0
   59.5875   21.3837   44.6529 H   0  0  0  0  0  0  0  0  0  0  0  0
   60.5911   22.8735   44.6529 H   0  0  0  0  0  0  0  0  0  0  0  0
   59.5068   25.0862   47.0679 H   0  0  0  0  0  0  0  0  0  0  0  0
   60.5408   24.6210   45.6747 H   0  0  0  0  0  0  0  0  0  0  0  0
   59.6930   26.2047   45.6747 H   0  0  0  0  0  0  0  0  0  0  0  0
   59.0828   28.8617   46.6402 H   0  0  0  0  0  0  0  0  0  0  0  0
   59.0463   31.3312   46.9906 H   0  0  0  0  0  0  0  0  0  0  0  0
   58.5720   34.1280   48.0450 H   0  0  0  0  0  0  0  0  0  0  0  0
  1  2  1  0
  2  3  2  0
  3  4  1  0
  4  5  1  0
  5  6  1  0
  5  7  1  0
  5  8  1  0
  4  9  2  0
  9 10  1  0
 10 11  2  0
 11 12  1  0
 12 13  2  0
 12 14  2  0
 12 15  1  0
 15 16  2  0
 16 17  1  0
 17 18  2  0
 18 19  1  0
 19 20  2  0
 19 21  1  0
 21 22  1  0
 22 23  2  0
 23 24  1  0
 24 25  2  0
 25 26  1  0
 26 27  1  0
 26 28  2  0
 28 29  1  0
 18 30  1  0
 30 31  2  0
 10 32  1  0
 32  2  1  0
 31 15  1  0
 28 22  1  0
  1 33  1  0
  1 34  1  0
  1 35  1  0
  9 36  1  0
 16 37  1  0
 17 38  1  0
 21 39  1  0
 23 40  1  0
 24 41  1  0
 25 42  1  0
 27 43  1  0
 27 44  1  0
 27 45  1  0
 29 46  1  0
 29 47  1  0
 29 48  1  0
 30 49  1  0
 31 50  1  0
 32 51  1  0
M  END
>  <smiles>  (84) 
Cc1nc(C(F)(F)F)cc(=NS(=O)(=O)c2ccc(C(=O)Nc3cccc(C)c3C)cc2)[nH]1

>  <score_type>  (84) 
oracle

>  <origin>  (84) 
adg

>  <m_score__min__energy>  (84) 
-8.75

>  <m_primary>  (84) 
energy

$$$$
84:0
     RDKit          3D

 43 47  0  0  0  0  0  0  0  0999 V2000
   56.2350   29.7950   42.4950 N   0  0  0  0  0  0  0  0  0  0  0  0
   56.3420   29.5840   43.7670 C   0  0  0  0  0  0  0  0  0  0  0  0
   55.2220   29.1730   44.5620 N   0  0  0  0  0  0  0  0  0  0  0  0
   57.6190   29.7550   44.4510 C   0  0  0  0  0  0  0  0  0  0  0  0
   58.6070   28.8070   44.2140 C   0  0  0  0  0  0  0  0  0  0  0  0
   59.8270   28.9480   44.8510 C   0  0  0  0  0  0  0  0  0  0  0  0
   60.0610   30.0230   45.7180 C   0  0  0  0  0  0  0  0  0  0  0  0
   61.1450   30.3660   46.4410 N   0  0  0  0  0  0  0  0  0  0  0  0
   60.8780   31.4950   47.1240 C   0  0  0  0  0  0  0  0  0  0  0  0
   61.8300   32.1530   48.0110 C   0  0  0  0  0  0  0  0  0  0  0  0
   61.4240   33.3030   48.6540 C   0  0  0  0  0  0  0  0  0  0  0  0
   62.3040   33.9510   49.5010 C   0  0  0  0  0  0  0  0  0  0  0  0
   63.5720   33.4290   49.6840 C   0  0  0  0  0  0  0  0  0  0  0  0
   64.5620   33.9070   50.4590 N   0  0  0  0  0  0  0  0  0  0  0  0
   65.6210   33.0660   50.3230 C   0  0  0  0  0  0  0  0  0  0  0  0
   66.9210   33.1820   50.9760 C   0  0  0  0  0  0  0  0  0  0  0  0
   67.9050   34.0540   50.5270 C   0  0  0  0  0  0  0  0  0  0  0  0
   69.1200   34.1210   51.1860 C   0  0  0  0  0  0  0  0  0  0  0  0
   69.3430   33.3160   52.2900 C   0  0  0  0  0  0  0  0  0  0  0  0
   68.3850   32.4380   52.7620 C   0  0  0  0  0  0  0  0  0  0  0  0
   67.1810   32.3950   52.0800 C   0  0  0  0  0  0  0  0  0  0  0  0
   65.2530   32.0840   49.4610 N   0  0  0  0  0  0  0  0  0  0  0  0
   64.0030   32.2750   49.0510 C   0  0  0  0  0  0  0  0  0  0  0  0
   63.0990   31.6530   48.2110 C   0  0  0  0  0  0  0  0  0  0  0  0
   59.6160   31.8440   46.8160 N   0  0  0  0  0  0  0  0  0  0  0  0
   59.0870   30.9600   45.9550 C   0  0  0  0  0  0  0  0  0  0  0  0
   57.8670   30.8110   45.3110 C   0  0  0  0  0  0  0  0  0  0  0  0
   55.7670   29.1550   41.8220 H   0  0  0  0  0  0  0  0  0  0  0  0
   55.1260   28.1900   44.8740 H   0  0  0  0  0  0  0  0  0  0  0  0
   54.4900   29.8540   44.8370 H   0  0  0  0  0  0  0  0  0  0  0  0
   58.4229   27.9621   43.5341 H   0  0  0  0  0  0  0  0  0  0  0  0
   60.6216   28.2081   44.6748 H   0  0  0  0  0  0  0  0  0  0  0  0
   62.0260   29.7890   46.4190 H   0  0  0  0  0  0  0  0  0  0  0  0
   60.4108   33.7007   48.4949 H   0  0  0  0  0  0  0  0  0  0  0  0
   61.9996   34.8702   50.0229 H   0  0  0  0  0  0  0  0  0  0  0  0
   64.5260   34.7770   51.0640 H   0  0  0  0  0  0  0  0  0  0  0  0
   67.7186   34.6901   49.6491 H   0  0  0  0  0  0  0  0  0  0  0  0
   69.9032   34.8091   50.8351 H   0  0  0  0  0  0  0  0  0  0  0  0
   70.3118   33.3768   52.8074 H   0  0  0  0  0  0  0  0  0  0  0  0
   68.5711   31.8021   53.6401 H   0  0  0  0  0  0  0  0  0  0  0  0
   66.3996   31.7056   52.4322 H   0  0  0  0  0  0  0  0  0  0  0  0
   63.4003   30.7336   47.6876 H   0  0  0  0  0  0  0  0  0  0  0  0
   57.0746   31.5529   45.4889 H   0  0  0  0  0  0  0  0  0  0  0  0
  1  2  2  3
  2  3  1  0
  2  4  1  0
  4  5  2  0
  5  6  1  0
  6  7  2  0
  7  8  1  0
  8  9  1  0
  9 10  1  0
 10 11  2  0
 11 12  1  0
 12 13  2  0
 13 14  1  0
 14 15  1  0
 15 16  1  0
 16 17  2  0
 17 18  1  0
 18 19  2  0
 19 20  1  0
 20 21  2  0
 15 22  2  0
 22 23  1  0
 23 24  2  0
  9 25  2  0
 25 26  1  0
 26 27  2  0
 27  4  1  0
 26  7  1  0
 24 10  1  0
 23 13  1  0
 21 16  1  0
  1 28  1  0
  3 29  1  0
  3 30  1  0
  5 31  1  0
  6 32  1  0
  8 33  1  0
 11 34  1  0
 12 35  1  0
 14 36  1  0
 17 37  1  0
 18 38  1  0
 19 39  1  0
 20 40  1  0
 21 41  1  0
 24 42  1  0
 27 43  1  0
M  END
>  <smiles>  (85) 
N=C(N)c1ccc2[nH]c(-c3ccc4[nH]c(-c5ccccc5)nc4c3)nc2c1

>  <score_type>  (85) 
oracle

>  <origin>  (85) 
adg

>  <m_score__min__energy>  (85) 
-8.1799999999999997

>  <m_primary>  (85) 
energy

$$$$
85:0
     RDKit          3D

 43 45  0  0  0  0  0  0  0  0999 V2000
   60.3510   28.8130   47.4780 C   0  0  0  0  0  0  0  0  0  0  0  0
   59.9060   27.7230   46.6780 O   0  0  0  0  0  0  0  0  0  0  0  0
   58.5600   27.3590   46.5060 C   0  0  0  0  0  0  0  0  0  0  0  0
   58.0420   26.1520   47.0130 C   0  0  0  0  0  0  0  0  0  0  0  0
   56.6950   25.8200   46.8360 C   0  0  0  0  0  0  0  0  0  0  0  0
   56.2230   24.5730   47.3660 N   0  0  0  0  0  0  0  0  0  0  0  0
   57.0200   23.4160   47.6500 C   0  0  0  0  0  0  0  0  0  0  0  0
   57.0820   22.9930   48.8330 O   0  0  0  0  0  0  0  0  0  0  0  0
   57.7540   22.7270   46.6280 N   0  0  0  0  0  0  0  0  0  0  0  0
   57.3360   22.5360   45.2700 C   0  0  0  0  0  0  0  0  0  0  0  0
   57.2980   21.2590   44.6800 C   0  0  0  0  0  0  0  0  0  0  0  0
   56.8950   21.1120   43.3490 C   0  0  0  0  0  0  0  0  0  0  0  0
   56.5520   22.2350   42.5930 C   0  0  0  0  0  0  0  0  0  0  0  0
   56.6160   23.5090   43.1650 C   0  0  0  0  0  0  0  0  0  0  0  0
   57.0100   23.6590   44.4980 C   0  0  0  0  0  0  0  0  0  0  0  0
   55.8620   26.6820   46.0980 C   0  0  0  0  0  0  0  0  0  0  0  0
   54.5430   26.3410   45.8220 O   0  0  0  0  0  0  0  0  0  0  0  0
   56.3690   27.8850   45.6000 C   0  0  0  0  0  0  0  0  0  0  0  0
   57.7140   28.2350   45.8100 C   0  0  0  0  0  0  0  0  0  0  0  0
   58.2650   29.4380   45.2510 N   0  0  0  0  0  0  0  0  0  0  0  0
   57.5590   30.6680   45.0480 C   0  0  0  0  0  0  0  0  0  0  0  0
   56.4110   30.6280   44.5280 O   0  0  0  0  0  0  0  0  0  0  0  0
   58.1640   31.9790   45.3750 C   0  0  0  0  0  0  0  0  0  0  0  0
   59.1530   32.0850   46.3700 C   0  0  0  0  0  0  0  0  0  0  0  0
   59.7480   33.3200   46.6450 C   0  0  0  0  0  0  0  0  0  0  0  0
   59.3530   34.4610   45.9420 C   0  0  0  0  0  0  0  0  0  0  0  0
   58.3730   34.3660   44.9510 C   0  0  0  0  0  0  0  0  0  0  0  0
   57.7860   33.1300   44.6610 C   0  0  0  0  0  0  0  0  0  0  0  0
   60.2453   28.5541   48.5419 H   0  0  0  0  0  0  0  0  0  0  0  0
   61.4073   29.0241   47.2552 H   0  0  0  0  0  0  0  0  0  0  0  0
   59.7443   29.7031   47.2552 H   0  0  0  0  0  0  0  0  0  0  0  0
   58.7049   25.4616   47.5550 H   0  0  0  0  0  0  0  0  0  0  0  0
   57.5859   20.3745   45.2671 H   0  0  0  0  0  0  0  0  0  0  0  0
   56.8481   20.1103   42.8968 H   0  0  0  0  0  0  0  0  0  0  0  0
   56.2314   22.1171   41.5474 H   0  0  0  0  0  0  0  0  0  0  0  0
   56.3562   24.3941   42.5658 H   0  0  0  0  0  0  0  0  0  0  0  0
   57.0643   24.6635   44.9429 H   0  0  0  0  0  0  0  0  0  0  0  0
   55.7100   28.5639   45.0389 H   0  0  0  0  0  0  0  0  0  0  0  0
   59.4596   31.1919   46.9343 H   0  0  0  0  0  0  0  0  0  0  0  0
   60.5287   33.3935   47.4164 H   0  0  0  0  0  0  0  0  0  0  0  0
   59.8136   35.4338   46.1688 H   0  0  0  0  0  0  0  0  0  0  0  0
   58.0625   35.2647   44.3979 H   0  0  0  0  0  0  0  0  0  0  0  0
   57.0247   33.0579   43.8703 H   0  0  0  0  0  0  0  0  0  0  0  0
  1  2  1  0
  2  3  1  0
  3  4  2  0
  4  5  1  0
  5  6  1  0
  6  7  1  0
  7  8  2  0
  7  9  1  0
  9 10  1  0
 10 11  2  0
 11 12  1  0
 12 13  2  0
 13 14  1  0
 14 15  2  0
  5 16  2  0
 16 17  1  0
 16 18  1  0
 18 19  2  0
 19 20  1  0
 20 21  1  0
 21 22  2  0
 21 23  1  0
 23 24  2  0
 24 25  1  0
 25 26  2  0
 26 27  1  0
 27 28  2  0
 19  3  1  0
 28 23  1  0
 15 10  1  0
  1 29  1  0
  1 30  1  0
  1 31  1  0
  4 32  1  0
 11 33  1  0
 12 34  1  0
 13 35  1  0
 14 36  1  0
 15 37  1  0
 18 38  1  0
 24 39  1  0
 25 40  1  0
 26 41  1  0
 27 42  1  0
 28 43  1  0
M  CHG  4   6  -1   9  -1  17  -1  20  -1
M  END
>  <UniqueID>  (86) 
82

>  <SMILES>  (86) 
COc1cc([N-]C(=O)[N-]c2ccccc2)c([O-])cc1[N-]C(=O)c1ccccc1

>  <Energy>  (86) 
59.2327624630406

>  <Genealogy>  (86) 
COc1cc([N-]C(=O)[N-]c2ccccc2)c([O-])cc1[N-]C(=O)c1ccccc1 (protonated)
COc1cc([N-]C(=O)[N-]c2ccccc2)c([O-])cc1[N-]C(=O)c1ccccc1 (3D coordinates assigned)
COc1cc([N-]C(=O)[N-]c2ccccc2)c([O-])cc1[N-]C(=O)c1ccccc1 (optimized conformer: 59.2327624630406 kcal/mol)

>  <smiles>  (86) 
COc1cc(NC(=O)Nc2ccccc2)c(O)cc1NC(=O)c1ccccc1

>  <score_type>  (86) 
oracle

>  <origin>  (86) 
adg

>  <m_score__min__energy>  (86) 
-16.850000000000001

>  <m_primary>  (86) 
energy

$$$$
86:0
     RDKit          3D

 55 59  0  0  0  0  0  0  0  0999 V2000
   58.0530   32.2180   46.7820 O   0  0  0  0  0  0  0  0  0  0  0  0
   58.5680   31.3000   47.4710 C   0  0  0  0  0  0  0  0  0  0  0  0
   58.7510   31.3780   48.9550 C   0  0  0  0  0  0  0  0  0  0  0  0
   59.3750   30.0470   49.2060 C   0  0  0  0  0  0  0  0  0  0  0  0
   59.7910   29.4850   50.4230 C   0  0  0  0  0  0  0  0  0  0  0  0
   59.6520   30.2340   51.7230 C   0  0  0  0  0  0  0  0  0  0  0  0
   58.3210   30.8410   51.8300 N   0  0  0  0  0  0  0  0  0  0  0  0
   57.1550   30.1680   51.7860 C   0  0  0  0  0  0  0  0  0  0  0  0
   56.0970   31.0350   52.0130 C   0  0  0  0  0  0  0  0  0  0  0  0
   54.6540   30.6850   52.0650 C   0  0  0  0  0  0  0  0  0  0  0  0
   54.2390   29.4440   52.5800 C   0  0  0  0  0  0  0  0  0  0  0  0
   52.8840   29.1130   52.6260 C   0  0  0  0  0  0  0  0  0  0  0  0
   52.4980   27.9120   53.1210 F   0  0  0  0  0  0  0  0  0  0  0  0
   51.9240   30.0140   52.1610 C   0  0  0  0  0  0  0  0  0  0  0  0
   52.3120   31.2620   51.6430 C   0  0  0  0  0  0  0  0  0  0  0  0
   51.2970   32.2210   51.1530 C   0  0  0  0  0  0  0  0  0  0  0  0
   51.0150   32.2840   49.9260 O   0  0  0  0  0  0  0  0  0  0  0  0
   50.6390   33.0660   52.0390 O   0  0  0  0  0  0  0  0  0  0  0  0
   53.6790   31.5880   51.5990 C   0  0  0  0  0  0  0  0  0  0  0  0
   56.6520   32.2930   52.1940 C   0  0  0  0  0  0  0  0  0  0  0  0
   58.0170   32.1400   52.0550 C   0  0  0  0  0  0  0  0  0  0  0  0
   58.9900   33.2400   52.1690 C   0  0  0  0  0  0  0  0  0  0  0  0
   58.9140   34.0270   53.1480 O   0  0  0  0  0  0  0  0  0  0  0  0
   60.0000   33.4570   51.1790 N   0  0  0  0  0  0  0  0  0  0  0  0
   59.7830   34.2010   49.9440 C   0  0  0  0  0  0  0  0  0  0  0  0
   60.8210   33.8020   48.9340 C   0  0  0  0  0  0  0  0  0  0  0  0
   61.9780   33.1210   49.3500 C   0  0  0  0  0  0  0  0  0  0  0  0
   62.9650   32.7760   48.4230 C   0  0  0  0  0  0  0  0  0  0  0  0
   64.0760   32.1140   48.8310 F   0  0  0  0  0  0  0  0  0  0  0  0
   62.8110   33.1190   47.0770 C   0  0  0  0  0  0  0  0  0  0  0  0
   61.6730   33.8120   46.6570 C   0  0  0  0  0  0  0  0  0  0  0  0
   60.6800   34.1590   47.5810 C   0  0  0  0  0  0  0  0  0  0  0  0
   59.5900   34.8470   47.1560 F   0  0  0  0  0  0  0  0  0  0  0  0
   60.3860   28.2070   50.3900 C   0  0  0  0  0  0  0  0  0  0  0  0
   60.5330   27.5150   49.1730 C   0  0  0  0  0  0  0  0  0  0  0  0
   60.0970   28.0930   47.9720 C   0  0  0  0  0  0  0  0  0  0  0  0
   59.5200   29.3600   48.0160 C   0  0  0  0  0  0  0  0  0  0  0  0
   59.0370   30.0830   46.8960 N   0  0  0  0  0  0  0  0  0  0  0  0
   59.4193   32.2034   49.2416 H   0  0  0  0  0  0  0  0  0  0  0  0
   57.8322   31.5755   49.5266 H   0  0  0  0  0  0  0  0  0  0  0  0
   59.7990   29.5356   52.5600 H   0  0  0  0  0  0  0  0  0  0  0  0
   60.4088   31.0316   51.7551 H   0  0  0  0  0  0  0  0  0  0  0  0
   57.0566   29.0887   51.5976 H   0  0  0  0  0  0  0  0  0  0  0  0
   54.9883   28.7285   52.9495 H   0  0  0  0  0  0  0  0  0  0  0  0
   50.8579   29.7458   52.2002 H   0  0  0  0  0  0  0  0  0  0  0  0
   53.9913   32.5622   51.1948 H   0  0  0  0  0  0  0  0  0  0  0  0
   56.1118   33.2274   52.4062 H   0  0  0  0  0  0  0  0  0  0  0  0
   58.7812   33.9747   49.5501 H   0  0  0  0  0  0  0  0  0  0  0  0
   59.8610   35.2796   50.1455 H   0  0  0  0  0  0  0  0  0  0  0  0
   62.1071   32.8584   50.4104 H   0  0  0  0  0  0  0  0  0  0  0  0
   63.5867   32.8430   46.3475 H   0  0  0  0  0  0  0  0  0  0  0  0
   61.5569   34.0857   45.5979 H   0  0  0  0  0  0  0  0  0  0  0  0
   60.7388   27.7463   51.3245 H   0  0  0  0  0  0  0  0  0  0  0  0
   60.9923   26.5155   49.1640 H   0  0  0  0  0  0  0  0  0  0  0  0
   60.2081   27.5581   47.0172 H   0  0  0  0  0  0  0  0  0  0  0  0
  1  2  2  0
  2  3  1  0
  3  4  1  0
  4  5  2  0
  5  6  1  0
  6  7  1  0
  7  8  1  0
  8  9  2  0
  9 10  1  0
 10 11  2  0
 11 12  1  0
 12 13  1  0
 12 14  2  0
 14 15  1  0
 15 16  1  0
 16 17  2  0
 16 18  1  0
 15 19  2  0
  9 20  1  0
 20 21  2  0
 21 22  1  0
 22 23  2  0
 22 24  1  0
 24 25  1  0
 25 26  1  0
 26 27  2  0
 27 28  1  0
 28 29  1  0
 28 30  2  0
 30 31  1  0
 31 32  2  0
 32 33  1  0
  5 34  1  0
 34 35  2  0
 35 36  1  0
 36 37  2  0
 37 38  1  0
 38  2  1  0
 37  4  1  0
 21  7  1  0
 32 26  1  0
 19 10  1  0
  3 39  1  0
  3 40  1  0
  6 41  1  0
  6 42  1  0
  8 43  1  0
 11 44  1  0
 14 45  1  0
 19 46  1  0
 20 47  1  0
 25 48  1  0
 25 49  1  0
 27 50  1  0
 30 51  1  0
 31 52  1  0
 34 53  1  0
 35 54  1  0
 36 55  1  0
M  CHG  3  18  -1  24  -1  38  -1
M  END
>  <UniqueID>  (87) 
83

>  <SMILES>  (87) 
O=C1Cc2c(Cn3cc(-c4cc(F)cc(C(=O)[O-])c4)cc3C(=O)[N-]Cc3cc(F)ccc3F)cccc2[N-]1

>  <Energy>  (87) 
111.24342397368541

>  <Genealogy>  (87) 
O=C1Cc2c(Cn3cc(-c4cc(F)cc(C(=O)[O-])c4)cc3C(=O)[N-]Cc3cc(F)ccc3F)cccc2[N-]1 (protonated)
O=C1Cc2c(Cn3cc(-c4cc(F)cc(C(=O)[O-])c4)cc3C(=O)[N-]Cc3cc(F)ccc3F)cccc2[N-]1 (3D coordinates assigned)
O=C1Cc2c(Cn3cc(-c4cc(F)cc(C(=O)[O-])c4)cc3C(=O)[N-]Cc3cc(F)ccc3F)cccc2[N-]1 (nonaromatic ring conformer: 111.24342397368541 kcal/mol)

>  <smiles>  (87) 
O=C1Cc2c(Cn3cc(-c4cc(F)cc(C(=O)O)c4)cc3C(=O)NCc3cc(F)ccc3F)cccc2N1

>  <score_type>  (87) 
oracle

>  <origin>  (87) 
adg

>  <m_score__min__energy>  (87) 
-14.380000000000001

>  <m_primary>  (87) 
energy

$$$$
87:0
     RDKit          3D

 58 62  0  0  1  0  0  0  0  0999 V2000
   62.1640   33.7280   46.6380 C   0  0  0  0  0  0  0  0  0  0  0  0
   60.6700   33.8600   46.6610 C   0  0  0  0  0  0  0  0  0  0  0  0
   60.1520   32.5280   46.5920 O   0  0  0  0  0  0  0  0  0  0  0  0
   58.8190   32.2760   46.9490 C   0  0  0  0  0  0  0  0  0  0  0  0
   58.4380   32.8200   48.0050 O   0  0  0  0  0  0  0  0  0  0  0  0
   58.0260   31.4280   46.0810 C   0  0  0  0  0  0  0  0  0  0  0  0
   57.1970   31.9020   45.1050 N   0  0  0  0  0  0  0  0  0  0  0  0
   56.6260   30.8780   44.5070 N   0  0  0  0  0  0  0  0  0  0  0  0
   57.0570   29.7320   45.0630 C   0  0  0  0  0  0  0  0  0  0  0  0
   56.7400   28.4610   44.7710 N   0  0  0  0  0  0  0  0  0  0  0  0
   57.3310   27.5040   45.5090 C   0  0  0  0  0  0  0  0  0  0  0  0
   57.0140   26.2040   45.2410 C   0  0  0  0  0  0  0  0  0  0  0  0
   57.6140   25.2370   46.0150 C   0  0  0  0  0  0  0  0  0  0  0  0
   58.4950   25.4870   47.0270 C   0  0  0  0  0  0  0  0  0  0  0  0
   58.8160   26.8370   47.2950 C   0  0  0  0  0  0  0  0  0  0  0  0
   58.2180   27.7770   46.5140 C   0  0  0  0  0  0  0  0  0  0  0  0
   58.4990   29.1000   46.7510 C   0  0  0  0  0  0  0  0  0  0  0  0
   59.4330   29.3980   47.5230 N   0  0  0  0  0  0  0  0  0  0  0  0
   59.7070   29.2480   48.8710 C   0  0  0  0  0  0  0  0  0  0  0  0
   60.8710   29.9990   49.4370 C   0  0  0  0  0  0  0  0  0  0  0  0
   61.6500   29.3420   50.1640 O   0  0  0  0  0  0  0  0  0  0  0  0
   61.0310   31.3670   49.1340 N   0  0  0  0  0  0  0  0  0  0  0  0
   62.0700   32.2020   49.5900 C   0  0  0  0  0  0  0  0  0  0  0  0
   63.4060   31.8790   49.6060 C   0  0  0  0  0  0  0  0  0  0  0  0
   64.3790   32.7530   50.0700 C   0  0  0  0  0  0  0  0  0  0  0  0
   64.0490   33.9920   50.5380 C   0  0  0  0  0  0  0  0  0  0  0  0
   62.6900   34.3170   50.5200 C   0  0  0  0  0  0  0  0  0  0  0  0
   61.7310   33.4500   50.0610 C   0  0  0  0  0  0  0  0  0  0  0  0
   60.3930   33.8720   50.0830 O   0  0  0  0  0  0  0  0  0  0  0  0
   59.5390   33.4160   51.0680 C   0  0  0  0  0  0  0  0  0  0  0  0
   59.4620   33.9710   52.3270 C   0  0  0  0  0  0  0  0  0  0  0  0
   58.5660   33.4190   53.2210 C   0  0  0  0  0  0  0  0  0  0  0  0
   57.7580   32.3440   52.8950 C   0  0  0  0  0  0  0  0  0  0  0  0
   57.8350   31.7820   51.6220 C   0  0  0  0  0  0  0  0  0  0  0  0
   58.7300   32.3350   50.7370 C   0  0  0  0  0  0  0  0  0  0  0  0
   57.9220   30.0860   46.0330 N   0  0  0  0  0  0  0  0  0  0  0  0
   62.5450   33.6943   47.6693 H   0  0  0  0  0  0  0  0  0  0  0  0
   62.4422   32.8018   46.1139 H   0  0  0  0  0  0  0  0  0  0  0  0
   62.6003   34.5911   46.1139 H   0  0  0  0  0  0  0  0  0  0  0  0
   60.3443   34.3484   47.5913 H   0  0  0  0  0  0  0  0  0  0  0  0
   60.3084   34.4753   45.8240 H   0  0  0  0  0  0  0  0  0  0  0  0
   56.0660   28.2190   44.0100 H   0  0  0  0  0  0  0  0  0  0  0  0
   56.3082   25.9400   44.4396 H   0  0  0  0  0  0  0  0  0  0  0  0
   57.3655   24.1867   45.8026 H   0  0  0  0  0  0  0  0  0  0  0  0
   58.9387   24.6681   47.6123 H   0  0  0  0  0  0  0  0  0  0  0  0
   59.5160   27.1146   48.0968 H   0  0  0  0  0  0  0  0  0  0  0  0
   58.8114   29.5663   49.4247 H   0  0  0  0  0  0  0  0  0  0  0  0
   59.9829   28.1888   48.9800 H   0  0  0  0  0  0  0  0  0  0  0  0
   60.2870   31.7840   48.5030 H   0  0  0  0  0  0  0  0  0  0  0  0
   63.7157   30.8901   49.2370 H   0  0  0  0  0  0  0  0  0  0  0  0
   65.4341   32.4420   50.0605 H   0  0  0  0  0  0  0  0  0  0  0  0
   64.8098   34.6949   50.9084 H   0  0  0  0  0  0  0  0  0  0  0  0
   62.3774   35.3054   50.8878 H   0  0  0  0  0  0  0  0  0  0  0  0
   60.0936   34.8258   52.6105 H   0  0  0  0  0  0  0  0  0  0  0  0
   58.4918   33.8500   54.2303 H   0  0  0  0  0  0  0  0  0  0  0  0
   57.0576   31.9346   53.6378 H   0  0  0  0  0  0  0  0  0  0  0  0
   57.2034   30.9280   51.3361 H   0  0  0  0  0  0  0  0  0  0  0  0
   58.8091   31.9053   49.7275 H   0  0  0  0  0  0  0  0  0  0  0  0
  1  2  1  0
  2  3  1  0
  3  4  1  0
  4  5  2  0
  4  6  1  0
  6  7  2  0
  7  8  1  0
  8  9  2  0
  9 10  1  0
 10 11  1  0
 11 12  2  0
 12 13  1  0
 13 14  2  0
 14 15  1  0
 15 16  2  0
 16 17  1  0
 17 18  2  0
 18 19  1  0
 19 20  1  0
 20 21  2  0
 20 22  1  0
 22 23  1  0
 23 24  2  0
 24 25  1  0
 25 26  2  0
 26 27  1  0
 27 28  2  0
 28 29  1  0
 29 30  1  0
 30 31  2  0
 31 32  1  0
 32 33  2  0
 33 34  1  0
 34 35  2  0
 17 36  1  0
 36  6  1  0
 36  9  1  0
 16 11  1  0
 28 23  1  0
 35 30  1  0
  1 37  1  0
  1 38  1  0
  1 39  1  0
  2 40  1  0
  2 41  1  0
 10 42  1  0
 12 43  1  0
 13 44  1  0
 14 45  1  0
 15 46  1  0
 19 47  1  0
 19 48  1  0
 22 49  1  0
 24 50  1  0
 25 51  1  0
 26 52  1  0
 27 53  1  0
 31 54  1  0
 32 55  1  0
 33 56  1  0
 34 57  1  0
 35 58  1  0
M  END
>  <smiles>  (88) 
CCOC(=O)c1nnc2[nH]c3ccccc3c(=NCC(=O)Nc3ccccc3Oc3ccccc3)n12

>  <score_type>  (88) 
oracle

>  <origin>  (88) 
adg

>  <m_score__min__energy>  (88) 
-9.1300000000000008

>  <m_primary>  (88) 
energy

$$$$
88:0
     RDKit          3D

 46 48  0  0  0  0  0  0  0  0999 V2000
   56.6950   21.0090   43.1210 C   0  0  0  0  0  0  0  0  0  0  0  0
   55.9090   22.1100   43.5650 O   0  0  0  0  0  0  0  0  0  0  0  0
   56.4360   23.3330   44.0050 C   0  0  0  0  0  0  0  0  0  0  0  0
   57.0070   24.2710   43.1230 C   0  0  0  0  0  0  0  0  0  0  0  0
   57.5140   25.4790   43.6110 C   0  0  0  0  0  0  0  0  0  0  0  0
   57.4580   25.7690   44.9820 C   0  0  0  0  0  0  0  0  0  0  0  0
   57.9760   27.0150   45.4790 N   0  0  0  0  0  0  0  0  0  0  0  0
   59.3000   27.0870   46.0330 C   0  0  0  0  0  0  0  0  0  0  0  0
   60.0460   26.0710   46.0570 O   0  0  0  0  0  0  0  0  0  0  0  0
   59.7720   28.3420   46.6290 C   0  0  0  0  0  0  0  0  0  0  0  0
   59.0510   29.4620   46.5300 C   0  0  0  0  0  0  0  0  0  0  0  0
   57.8090   29.5620   45.6750 C   0  0  1  0  0  0  0  0  0  0  0  0
   58.1790   30.2050   44.3180 C   0  0  0  0  0  0  0  0  0  0  0  0
   57.1840   31.2900   43.8490 C   0  0  0  0  0  0  0  0  0  0  0  0
   57.8420   32.6570   43.5950 C   0  0  0  0  0  0  0  0  0  0  0  0
   58.2740   33.3320   44.8700 C   0  0  0  0  0  0  0  0  0  0  0  0
   57.7650   32.8980   46.1050 C   0  0  0  0  0  0  0  0  0  0  0  0
   58.1990   33.4930   47.2940 C   0  0  0  0  0  0  0  0  0  0  0  0
   59.1430   34.5230   47.2570 C   0  0  0  0  0  0  0  0  0  0  0  0
   59.6560   34.9590   46.0330 C   0  0  0  0  0  0  0  0  0  0  0  0
   59.2250   34.3670   44.8420 C   0  0  0  0  0  0  0  0  0  0  0  0
   57.1680   28.2060   45.4690 C   0  0  0  0  0  0  0  0  0  0  0  0
   55.9290   28.1340   45.2400 O   0  0  0  0  0  0  0  0  0  0  0  0
   56.8960   24.8320   45.8620 C   0  0  0  0  0  0  0  0  0  0  0  0
   56.3890   23.6240   45.3740 C   0  0  0  0  0  0  0  0  0  0  0  0
   57.0853   20.4622   43.9920 H   0  0  0  0  0  0  0  0  0  0  0  0
   56.0725   20.3352   42.5140 H   0  0  0  0  0  0  0  0  0  0  0  0
   57.5344   21.3789   42.5140 H   0  0  0  0  0  0  0  0  0  0  0  0
   57.0542   24.0522   42.0460 H   0  0  0  0  0  0  0  0  0  0  0  0
   57.9593   26.2060   42.9159 H   0  0  0  0  0  0  0  0  0  0  0  0
   60.7326   28.3607   47.1646 H   0  0  0  0  0  0  0  0  0  0  0  0
   59.3749   30.3488   47.0945 H   0  0  0  0  0  0  0  0  0  0  0  0
   57.0717   30.1933   46.1926 H   0  0  0  0  0  0  0  0  0  0  0  0
   59.1740   30.6645   44.4120 H   0  0  0  0  0  0  0  0  0  0  0  0
   58.1547   29.4022   43.5664 H   0  0  0  0  0  0  0  0  0  0  0  0
   56.7139   30.9507   42.9142 H   0  0  0  0  0  0  0  0  0  0  0  0
   56.4514   31.4287   44.6578 H   0  0  0  0  0  0  0  0  0  0  0  0
   58.7253   32.5106   42.9560 H   0  0  0  0  0  0  0  0  0  0  0  0
   57.0959   33.3033   43.1095 H   0  0  0  0  0  0  0  0  0  0  0  0
   57.0223   32.0872   46.1372 H   0  0  0  0  0  0  0  0  0  0  0  0
   57.7971   33.1501   48.2588 H   0  0  0  0  0  0  0  0  0  0  0  0
   59.4824   34.9909   48.1929 H   0  0  0  0  0  0  0  0  0  0  0  0
   60.3998   35.7689   46.0062 H   0  0  0  0  0  0  0  0  0  0  0  0
   59.6313   34.7122   43.8799 H   0  0  0  0  0  0  0  0  0  0  0  0
   56.8541   25.0486   46.9397 H   0  0  0  0  0  0  0  0  0  0  0  0
   55.9493   22.8958   46.0714 H   0  0  0  0  0  0  0  0  0  0  0  0
  1  2  1  0
  2  3  1  0
  3  4  2  0
  4  5  1  0
  5  6  2  0
  6  7  1  0
  7  8  1  0
  8  9  2  0
  8 10  1  0
 10 11  2  0
 11 12  1  0
 12 13  1  0
 13 14  1  0
 14 15  1  0
 15 16  1  0
 16 17  2  0
 17 18  1  0
 18 19  2  0
 19 20  1  0
 20 21  2  0
 12 22  1  0
 22 23  2  0
  6 24  1  0
 24 25  2  0
 25  3  1  0
 22  7  1  0
 21 16  1  0
  1 26  1  0
  1 27  1  0
  1 28  1  0
  4 29  1  0
  5 30  1  0
 10 31  1  0
 11 32  1  0
 12 33  1  1
 13 34  1  0
 13 35  1  0
 14 36  1  0
 14 37  1  0
 15 38  1  0
 15 39  1  0
 17 40  1  0
 18 41  1  0
 19 42  1  0
 20 43  1  0
 21 44  1  0
 24 45  1  0
 25 46  1  0
M  END
>  <UniqueID>  (89) 
84

>  <SMILES>  (89) 
COc1ccc(N2C(=O)C=C[C@@H](CCCc3ccccc3)C2=O)cc1

>  <Energy>  (89) 
51.098183784212054

>  <Genealogy>  (89) 
COc1ccc(N2C(=O)C=C[C@@H](CCCc3ccccc3)C2=O)cc1 (chirality)
COc1ccc(N2C(=O)C=C[C@@H](CCCc3ccccc3)C2=O)cc1 (3D coordinates assigned)
COc1ccc(N2C(=O)C=C[C@@H](CCCc3ccccc3)C2=O)cc1 (nonaromatic ring conformer: 51.098183784212054 kcal/mol)

>  <smiles>  (89) 
COc1ccc(N2C(=O)C=CC(CCCc3ccccc3)C2=O)cc1

>  <score_type>  (89) 
oracle

>  <origin>  (89) 
adg

>  <m_score__min__energy>  (89) 
-8.7300000000000004

>  <m_primary>  (89) 
energy

$$$$
89:0
     RDKit          3D

 55 57  0  0  1  0  0  0  0  0999 V2000
   63.7540   33.4570   47.2330 C   0  0  0  0  0  0  0  0  0  0  0  0
   63.6730   33.5770   48.7390 C   0  0  0  0  0  0  0  0  0  0  0  0
   61.9980   34.2400   49.0840 S   0  0  0  0  0  0  0  0  0  0  0  0
   60.8230   33.5700   47.9200 C   0  0  0  0  0  0  0  0  0  0  0  0
   60.8980   32.1950   47.6890 C   0  0  0  0  0  0  0  0  0  0  0  0
   60.0360   31.5710   46.8080 C   0  0  0  0  0  0  0  0  0  0  0  0
   59.0720   32.3340   46.1350 C   0  0  0  0  0  0  0  0  0  0  0  0
   58.0010   31.5240   45.0320 S   0  0  0  0  0  0  0  0  0  0  0  0
   56.5660   31.9290   45.2030 O   0  0  0  0  0  0  0  0  0  0  0  0
   58.4090   31.8910   43.6290 O   0  0  0  0  0  0  0  0  0  0  0  0
   58.0650   29.7630   45.1630 C   0  0  0  0  0  0  0  0  0  0  0  0
   56.9150   29.2650   44.3750 C   0  0  0  0  0  0  0  0  0  0  0  0
   55.6570   29.3530   44.9640 O   0  0  0  0  0  0  0  0  0  0  0  0
   56.9960   28.7610   43.1960 N   0  0  0  0  0  0  0  0  0  0  0  0
   56.2200   29.1460   42.1270 O   0  0  0  0  0  0  0  0  0  0  0  0
   57.9390   29.2680   46.5620 C   0  0  0  0  0  0  0  0  0  0  0  0
   57.7120   27.7830   46.5640 C   0  0  0  0  0  0  0  0  0  0  0  0
   58.1670   27.1800   45.3550 N   0  0  0  0  0  0  0  0  0  0  0  0
   58.3720   25.7630   45.5670 C   0  0  0  0  0  0  0  0  0  0  0  0
   57.3030   24.9160   45.0190 C   0  0  0  0  0  0  0  0  0  0  0  0
   57.4020   24.1620   43.8900 C   0  0  0  0  0  0  0  0  0  0  0  0
   56.3800   23.3750   43.3980 C   0  0  0  0  0  0  0  0  0  0  0  0
   55.1860   23.3550   44.0990 C   0  0  0  0  0  0  0  0  0  0  0  0
   55.0530   24.1070   45.2470 C   0  0  0  0  0  0  0  0  0  0  0  0
   56.1000   24.8810   45.7060 C   0  0  0  0  0  0  0  0  0  0  0  0
   59.3740   27.7260   44.8280 C   0  0  0  0  0  0  0  0  0  0  0  0
   59.3240   29.1920   44.5620 C   0  0  0  0  0  0  0  0  0  0  0  0
   59.0210   33.6970   46.3820 C   0  0  0  0  0  0  0  0  0  0  0  0
   59.8860   34.3010   47.2640 C   0  0  0  0  0  0  0  0  0  0  0  0
   64.3512   32.5723   46.9673 H   0  0  0  0  0  0  0  0  0  0  0  0
   62.7404   33.3532   46.8184 H   0  0  0  0  0  0  0  0  0  0  0  0
   64.2293   34.3582   46.8184 H   0  0  0  0  0  0  0  0  0  0  0  0
   63.8020   32.5919   49.2113 H   0  0  0  0  0  0  0  0  0  0  0  0
   64.4624   34.2292   49.1409 H   0  0  0  0  0  0  0  0  0  0  0  0
   61.6563   31.5985   48.2174 H   0  0  0  0  0  0  0  0  0  0  0  0
   60.1055   30.4867   46.6365 H   0  0  0  0  0  0  0  0  0  0  0  0
   55.4210   30.0910   45.6240 H   0  0  0  0  0  0  0  0  0  0  0  0
   55.3480   28.6170   42.0230 H   0  0  0  0  0  0  0  0  0  0  0  0
   58.8631   29.4958   47.1135 H   0  0  0  0  0  0  0  0  0  0  0  0
   57.0841   29.7642   47.0446 H   0  0  0  0  0  0  0  0  0  0  0  0
   58.2568   27.3399   47.4107 H   0  0  0  0  0  0  0  0  0  0  0  0
   56.6309   27.6008   46.6532 H   0  0  0  0  0  0  0  0  0  0  0  0
   59.3203   25.4754   45.0895 H   0  0  0  0  0  0  0  0  0  0  0  0
   58.3798   25.6017   46.6551 H   0  0  0  0  0  0  0  0  0  0  0  0
   58.3526   24.1809   43.3369 H   0  0  0  0  0  0  0  0  0  0  0  0
   56.5099   22.7835   42.4797 H   0  0  0  0  0  0  0  0  0  0  0  0
   54.3463   22.7411   43.7411 H   0  0  0  0  0  0  0  0  0  0  0  0
   54.1037   24.0901   45.8024 H   0  0  0  0  0  0  0  0  0  0  0  0
   55.9784   25.4745   46.6241 H   0  0  0  0  0  0  0  0  0  0  0  0
   60.1816   27.5350   45.5500 H   0  0  0  0  0  0  0  0  0  0  0  0
   59.5412   27.2370   43.8569 H   0  0  0  0  0  0  0  0  0  0  0  0
   60.2008   29.6780   45.0147 H   0  0  0  0  0  0  0  0  0  0  0  0
   59.3290   29.3707   43.4766 H   0  0  0  0  0  0  0  0  0  0  0  0
   58.2711   34.3098   45.8603 H   0  0  0  0  0  0  0  0  0  0  0  0
   59.8181   35.3848   47.4393 H   0  0  0  0  0  0  0  0  0  0  0  0
  1  2  1  0
  2  3  1  0
  3  4  1  0
  4  5  2  0
  5  6  1  0
  6  7  2  0
  7  8  1  0
  8  9  2  0
  8 10  2  0
  8 11  1  0
 11 12  1  0
 12 13  1  0
 12 14  2  0
 14 15  1  0
 11 16  1  0
 16 17  1  0
 17 18  1  0
 18 19  1  0
 19 20  1  0
 20 21  2  0
 21 22  1  0
 22 23  2  0
 23 24  1  0
 24 25  2  0
 18 26  1  0
 26 27  1  0
  7 28  1  0
 28 29  2  0
 29  4  1  0
 27 11  1  0
 25 20  1  0
  1 30  1  0
  1 31  1  0
  1 32  1  0
  2 33  1  0
  2 34  1  0
  5 35  1  0
  6 36  1  0
 13 37  1  0
 15 38  1  0
 16 39  1  0
 16 40  1  0
 17 41  1  0
 17 42  1  0
 19 43  1  0
 19 44  1  0
 21 45  1  0
 22 46  1  0
 23 47  1  0
 24 48  1  0
 25 49  1  0
 26 50  1  0
 26 51  1  0
 27 52  1  0
 27 53  1  0
 28 54  1  0
 29 55  1  0
M  END
>  <smiles>  (90) 
CCSc1ccc(S(=O)(=O)C2(C(O)=NO)CCN(Cc3ccccc3)CC2)cc1

>  <score_type>  (90) 
oracle

>  <origin>  (90) 
adg

>  <m_score__min__energy>  (90) 
-10.06

>  <m_primary>  (90) 
energy

$$$$
90:0
     RDKit          3D

 39 41  0  0  0  0  0  0  0  0999 V2000
   56.7850   30.7500   43.2810 O   0  0  0  0  0  0  0  0  0  0  0  0
   56.9790   30.9310   44.5120 C   0  0  0  0  0  0  0  0  0  0  0  0
   56.6860   32.2210   45.0660 N   0  0  0  0  0  0  0  0  0  0  0  0
   57.6340   33.1560   45.6010 C   0  0  0  0  0  0  0  0  0  0  0  0
   58.3160   34.0060   44.7210 C   0  0  0  0  0  0  0  0  0  0  0  0
   59.2600   34.9150   45.2080 C   0  0  0  0  0  0  0  0  0  0  0  0
   59.5420   34.9660   46.5750 C   0  0  0  0  0  0  0  0  0  0  0  0
   58.8850   34.1050   47.4560 C   0  0  0  0  0  0  0  0  0  0  0  0
   57.9320   33.2000   46.9750 C   0  0  0  0  0  0  0  0  0  0  0  0
   57.4300   29.7930   45.3530 C   0  0  0  0  0  0  0  0  0  0  0  0
   58.5380   29.9440   46.2040 C   0  0  0  0  0  0  0  0  0  0  0  0
   58.9950   28.8690   46.9700 C   0  0  0  0  0  0  0  0  0  0  0  0
   58.3570   27.6300   46.8960 C   0  0  0  0  0  0  0  0  0  0  0  0
   58.8200   26.6060   47.6580 F   0  0  0  0  0  0  0  0  0  0  0  0
   57.2490   27.4600   46.0500 C   0  0  0  0  0  0  0  0  0  0  0  0
   56.3840   25.9230   45.9660 S   0  0  0  0  0  0  0  0  0  0  0  0
   56.7500   25.0880   47.1620 O   0  0  0  0  0  0  0  0  0  0  0  0
   54.8970   26.1450   45.9860 O   0  0  0  0  0  0  0  0  0  0  0  0
   56.8420   25.0690   44.5220 N   0  0  0  0  0  0  0  0  0  0  0  0
   55.8230   24.0940   44.1280 C   0  0  0  0  0  0  0  0  0  0  0  0
   56.4770   22.7950   43.7930 C   0  0  0  0  0  0  0  0  0  0  0  0
   57.7540   22.4140   44.1520 C   0  0  0  0  0  0  0  0  0  0  0  0
   57.9230   21.1490   43.6330 C   0  0  0  0  0  0  0  0  0  0  0  0
   56.7370   20.8330   43.0000 C   0  0  0  0  0  0  0  0  0  0  0  0
   55.8930   21.8340   43.1150 O   0  0  0  0  0  0  0  0  0  0  0  0
   56.7980   28.5390   45.2770 C   0  0  0  0  0  0  0  0  0  0  0  0
   58.1079   33.9581   43.6419 H   0  0  0  0  0  0  0  0  0  0  0  0
   59.7812   35.5907   44.5139 H   0  0  0  0  0  0  0  0  0  0  0  0
   60.2818   35.6846   46.9575 H   0  0  0  0  0  0  0  0  0  0  0  0
   59.1170   34.1380   48.5308 H   0  0  0  0  0  0  0  0  0  0  0  0
   57.4159   32.5229   47.6716 H   0  0  0  0  0  0  0  0  0  0  0  0
   59.0492   30.9159   46.2674 H   0  0  0  0  0  0  0  0  0  0  0  0
   59.8617   28.9996   47.6346 H   0  0  0  0  0  0  0  0  0  0  0  0
   55.1177   23.9454   44.9589 H   0  0  0  0  0  0  0  0  0  0  0  0
   55.2803   24.4680   43.2473 H   0  0  0  0  0  0  0  0  0  0  0  0
   58.4842   22.9982   44.7313 H   0  0  0  0  0  0  0  0  0  0  0  0
   58.8211   20.5182   43.7077 H   0  0  0  0  0  0  0  0  0  0  0  0
   56.5300   19.8868   42.4785 H   0  0  0  0  0  0  0  0  0  0  0  0
   55.9394   28.4032   44.6029 H   0  0  0  0  0  0  0  0  0  0  0  0
  1  2  2  0
  2  3  1  0
  3  4  1  0
  4  5  2  0
  5  6  1  0
  6  7  2  0
  7  8  1  0
  8  9  2  0
  2 10  1  0
 10 11  2  0
 11 12  1  0
 12 13  2  0
 13 14  1  0
 13 15  1  0
 15 16  1  0
 16 17  2  0
 16 18  2  0
 16 19  1  0
 19 20  1  0
 20 21  1  0
 21 22  2  0
 22 23  1  0
 23 24  2  0
 24 25  1  0
 15 26  2  0
  9  4  1  0
 26 10  1  0
 25 21  1  0
  5 27  1  0
  6 28  1  0
  7 29  1  0
  8 30  1  0
  9 31  1  0
 11 32  1  0
 12 33  1  0
 20 34  1  0
 20 35  1  0
 22 36  1  0
 23 37  1  0
 24 38  1  0
 26 39  1  0
M  CHG  2   3  -1  19  -1
M  END
>  <UniqueID>  (91) 
85

>  <SMILES>  (91) 
O=C([N-]c1ccccc1)c1ccc(F)c(S(=O)(=O)[N-]Cc2ccco2)c1

>  <Energy>  (91) 
71.24081266535444

>  <Genealogy>  (91) 
O=C([N-]c1ccccc1)c1ccc(F)c(S(=O)(=O)[N-]Cc2ccco2)c1 (protonated)
O=C([N-]c1ccccc1)c1ccc(F)c(S(=O)(=O)[N-]Cc2ccco2)c1 (3D coordinates assigned)
O=C([N-]c1ccccc1)c1ccc(F)c(S(=O)(=O)[N-]Cc2ccco2)c1 (optimized conformer: 71.24081266535444 kcal/mol)

>  <smiles>  (91) 
O=C(Nc1ccccc1)c1ccc(F)c(S(=O)(=O)NCc2ccco2)c1

>  <score_type>  (91) 
oracle

>  <origin>  (91) 
adg

>  <m_score__min__energy>  (91) 
-11.35

>  <m_primary>  (91) 
energy

$$$$
91:0
     RDKit          3D

 46 48  0  0  0  0  0  0  0  0999 V2000
   56.6330   24.2180   45.0400 C   0  0  0  0  0  0  0  0  0  0  0  0
   55.9540   25.4790   46.0960 S   0  0  0  0  0  0  0  0  0  0  0  0
   54.4610   25.5090   45.9280 O   0  0  0  0  0  0  0  0  0  0  0  0
   56.2960   25.1590   47.5240 O   0  0  0  0  0  0  0  0  0  0  0  0
   56.6170   27.0200   45.6740 N   0  0  0  0  0  0  0  0  0  0  0  0
   55.9000   28.0450   45.2440 N   0  0  0  0  0  0  0  0  0  0  0  0
   56.7500   29.0730   45.0190 C   0  0  0  0  0  0  0  0  0  0  0  0
   56.2870   30.4070   44.5890 C   0  0  0  0  0  0  0  0  0  0  0  0
   55.1800   30.4870   43.9950 O   0  0  0  0  0  0  0  0  0  0  0  0
   57.0450   31.6120   44.7750 N   0  0  0  0  0  0  0  0  0  0  0  0
   57.4190   32.2420   46.0410 C   0  0  0  0  0  0  0  0  0  0  0  0
   57.4600   33.7790   45.8770 C   0  0  0  0  0  0  0  0  0  0  0  0
   58.8870   34.2840   45.6380 C   0  0  0  0  0  0  0  0  0  0  0  0
   59.7750   33.9710   46.7840 N   0  0  0  0  0  0  0  0  0  0  0  0
   61.1920   34.1100   46.3890 C   0  0  0  0  0  0  0  0  0  0  0  0
   62.0960   33.7470   47.5390 C   0  0  0  0  0  0  0  0  0  0  0  0
   63.2540   32.9790   47.3260 C   0  0  0  0  0  0  0  0  0  0  0  0
   64.0810   32.6420   48.4020 C   0  0  0  0  0  0  0  0  0  0  0  0
   63.7600   33.0680   49.6940 C   0  0  0  0  0  0  0  0  0  0  0  0
   62.6110   33.8330   49.9130 C   0  0  0  0  0  0  0  0  0  0  0  0
   61.7810   34.1720   48.8410 C   0  0  0  0  0  0  0  0  0  0  0  0
   59.4980   32.6580   47.4290 C   0  0  0  0  0  0  0  0  0  0  0  0
   58.7790   31.6760   46.4950 C   0  0  0  0  0  0  0  0  0  0  0  0
   58.0480   28.6900   45.3430 C   0  0  0  0  0  0  0  0  0  0  0  0
   57.9060   27.3830   45.7460 C   0  0  0  0  0  0  0  0  0  0  0  0
   58.8380   26.6310   46.1400 O   0  0  0  0  0  0  0  0  0  0  0  0
   57.0647   23.4163   45.6571 H   0  0  0  0  0  0  0  0  0  0  0  0
   55.8362   23.8033   44.4050 H   0  0  0  0  0  0  0  0  0  0  0  0
   57.4178   24.6549   44.4050 H   0  0  0  0  0  0  0  0  0  0  0  0
   56.6714   32.0175   46.8160 H   0  0  0  0  0  0  0  0  0  0  0  0
   56.8326   34.0632   45.0193 H   0  0  0  0  0  0  0  0  0  0  0  0
   57.0856   34.2338   46.8060 H   0  0  0  0  0  0  0  0  0  0  0  0
   59.2888   33.8042   44.7334 H   0  0  0  0  0  0  0  0  0  0  0  0
   58.8503   35.3769   45.5191 H   0  0  0  0  0  0  0  0  0  0  0  0
   61.3989   33.4415   45.5403 H   0  0  0  0  0  0  0  0  0  0  0  0
   61.3816   35.1549   46.1021 H   0  0  0  0  0  0  0  0  0  0  0  0
   63.5101   32.6424   46.3106 H   0  0  0  0  0  0  0  0  0  0  0  0
   64.9860   32.0404   48.2314 H   0  0  0  0  0  0  0  0  0  0  0  0
   64.4120   32.8010   50.5388 H   0  0  0  0  0  0  0  0  0  0  0  0
   62.3598   34.1685   50.9300 H   0  0  0  0  0  0  0  0  0  0  0  0
   60.8773   34.7740   49.0170 H   0  0  0  0  0  0  0  0  0  0  0  0
   60.4536   32.2110   47.7404 H   0  0  0  0  0  0  0  0  0  0  0  0
   58.8353   32.8441   48.2870 H   0  0  0  0  0  0  0  0  0  0  0  0
   59.4071   31.4954   45.6102 H   0  0  0  0  0  0  0  0  0  0  0  0
   58.6037   30.7371   47.0407 H   0  0  0  0  0  0  0  0  0  0  0  0
   58.9684   29.2899   45.2895 H   0  0  0  0  0  0  0  0  0  0  0  0
  1  2  1  0
  2  3  2  0
  2  4  2  0
  2  5  1  0
  5  6  1  0
  6  7  1  0
  7  8  1  0
  8  9  2  0
  8 10  1  0
 10 11  1  0
 11 12  1  0
 12 13  1  0
 13 14  1  0
 14 15  1  0
 15 16  1  0
 16 17  2  0
 17 18  1  0
 18 19  2  0
 19 20  1  0
 20 21  2  0
 14 22  1  0
 22 23  1  0
  7 24  2  0
 24 25  1  0
 25 26  2  0
 25  5  1  0
 23 11  1  0
 21 16  1  0
  1 27  1  0
  1 28  1  0
  1 29  1  0
 11 30  1  0
 12 31  1  0
 12 32  1  0
 13 33  1  0
 13 34  1  0
 15 35  1  0
 15 36  1  0
 17 37  1  0
 18 38  1  0
 19 39  1  0
 20 40  1  0
 21 41  1  0
 22 42  1  0
 22 43  1  0
 23 44  1  0
 23 45  1  0
 24 46  1  0
M  CHG  2   6  -1  10  -1
M  END
>  <UniqueID>  (92) 
86

>  <SMILES>  (92) 
CS(=O)(=O)n1[n-]c(C(=O)[N-]C2CCN(Cc3ccccc3)CC2)cc1=O

>  <Energy>  (92) 
87.87824834995037

>  <Genealogy>  (92) 
CS(=O)(=O)n1[n-]c(C(=O)[N-]C2CCN(Cc3ccccc3)CC2)cc1=O (protonated)
CS(=O)(=O)n1[n-]c(C(=O)[N-]C2CCN(Cc3ccccc3)CC2)cc1=O (3D coordinates assigned)
CS(=O)(=O)n1[n-]c(C(=O)[N-]C2CCN(Cc3ccccc3)CC2)cc1=O (nonaromatic ring conformer: 87.87824834995037 kcal/mol)

>  <smiles>  (92) 
CS(=O)(=O)n1[nH]c(C(=O)NC2CCN(Cc3ccccc3)CC2)cc1=O

>  <score_type>  (92) 
oracle

>  <origin>  (92) 
adg

>  <m_score__min__energy>  (92) 
-12.59

>  <m_primary>  (92) 
energy

$$$$
