0:0
     RDKit          3D

 60 63  0  0  0  0  0  0  0  0999 V2000
   60.3650   29.1520   45.7400 C   0  0  0  0  0  0  0  0  0  0  0  0
   60.1810   29.4220   47.1980 C   0  0  0  0  0  0  0  0  0  0  0  0
   60.6130   28.4960   48.1530 C   0  0  0  0  0  0  0  0  0  0  0  0
   60.4010   28.7780   49.5060 C   0  0  0  0  0  0  0  0  0  0  0  0
   60.8260   27.8070   50.5600 C   0  0  0  0  0  0  0  0  0  0  0  0
   59.7620   29.9250   49.8590 N   0  0  0  0  0  0  0  0  0  0  0  0
   59.3350   30.8090   48.9190 C   0  0  0  0  0  0  0  0  0  0  0  0
   58.4810   32.2970   49.4170 S   0  0  0  0  0  0  0  0  0  0  0  0
   58.9420   33.1620   47.9130 C   0  0  0  0  0  0  0  0  0  0  0  0
   58.4510   32.7120   46.6790 C   0  0  0  0  0  0  0  0  0  0  0  0
   58.8140   33.3570   45.4890 C   0  0  0  0  0  0  0  0  0  0  0  0
   58.2790   32.8870   44.2400 N   0  0  0  0  0  0  0  0  0  0  0  0
   57.3050   31.8350   44.1300 C   0  0  0  0  0  0  0  0  0  0  0  0
   56.6550   31.4630   45.1450 O   0  0  0  0  0  0  0  0  0  0  0  0
   57.0220   31.2130   42.8290 C   0  0  0  0  0  0  0  0  0  0  0  0
   57.1530   31.8840   41.7710 O   0  0  0  0  0  0  0  0  0  0  0  0
   56.6530   29.8290   42.7750 N   0  0  0  0  0  0  0  0  0  0  0  0
   57.0720   28.7910   43.6740 C   0  0  0  0  0  0  0  0  0  0  0  0
   57.9980   27.8430   43.2190 C   0  0  0  0  0  0  0  0  0  0  0  0
   58.4490   26.8280   44.0660 C   0  0  0  0  0  0  0  0  0  0  0  0
   57.9870   26.7550   45.3860 C   0  0  0  0  0  0  0  0  0  0  0  0
   58.5540   25.4570   46.4340 S   0  0  0  0  0  0  0  0  0  0  0  0
   58.2790   25.7990   47.8720 O   0  0  0  0  0  0  0  0  0  0  0  0
   60.0390   25.3200   46.2500 O   0  0  0  0  0  0  0  0  0  0  0  0
   57.7730   23.9470   46.0060 N   0  0  0  0  0  0  0  0  0  0  0  0
   56.9780   24.0700   44.7700 C   0  0  0  0  0  0  0  0  0  0  0  0
   55.6580   24.8450   44.9950 C   0  0  0  0  0  0  0  0  0  0  0  0
   55.2740   24.9300   46.3570 O   0  0  0  0  0  0  0  0  0  0  0  0
   55.4760   23.6920   46.9990 C   0  0  0  0  0  0  0  0  0  0  0  0
   56.9820   23.3990   47.1300 C   0  0  0  0  0  0  0  0  0  0  0  0
   57.0770   27.7120   45.8540 C   0  0  0  0  0  0  0  0  0  0  0  0
   56.6270   28.7300   45.0070 C   0  0  0  0  0  0  0  0  0  0  0  0
   59.6480   34.4890   45.5510 C   0  0  0  0  0  0  0  0  0  0  0  0
   60.1350   34.9410   46.7810 C   0  0  0  0  0  0  0  0  0  0  0  0
   59.7860   34.2810   47.9610 C   0  0  0  0  0  0  0  0  0  0  0  0
   60.2800   34.7400   49.1770 O   0  0  0  0  0  0  0  0  0  0  0  0
   59.5440   30.5530   47.6010 N   0  0  0  0  0  0  0  0  0  0  0  0
   60.9801   28.2495   45.6090 H   0  0  0  0  0  0  0  0  0  0  0  0
   59.3830   28.9981   45.2688 H   0  0  0  0  0  0  0  0  0  0  0  0
   60.8674   30.0097   45.2688 H   0  0  0  0  0  0  0  0  0  0  0  0
   61.1099   27.5640   47.8457 H   0  0  0  0  0  0  0  0  0  0  0  0
   60.6370   28.2387   51.5539 H   0  0  0  0  0  0  0  0  0  0  0  0
   60.2541   26.8737   50.4509 H   0  0  0  0  0  0  0  0  0  0  0  0
   61.8996   27.5940   50.4509 H   0  0  0  0  0  0  0  0  0  0  0  0
   57.7749   31.8450   46.6448 H   0  0  0  0  0  0  0  0  0  0  0  0
   58.5520   33.3970   43.3700 H   0  0  0  0  0  0  0  0  0  0  0  0
   58.3729   27.8985   42.1863 H   0  0  0  0  0  0  0  0  0  0  0  0
   59.1692   26.0838   43.6951 H   0  0  0  0  0  0  0  0  0  0  0  0
   57.5765   24.6023   44.0160 H   0  0  0  0  0  0  0  0  0  0  0  0
   56.7190   23.0550   44.4343 H   0  0  0  0  0  0  0  0  0  0  0  0
   55.7834   25.8658   44.6048 H   0  0  0  0  0  0  0  0  0  0  0  0
   54.8656   24.2907   44.4708 H   0  0  0  0  0  0  0  0  0  0  0  0
   55.0239   23.7247   48.0013 H   0  0  0  0  0  0  0  0  0  0  0  0
   55.0070   22.8971   46.4005 H   0  0  0  0  0  0  0  0  0  0  0  0
   57.3466   23.8455   48.0669 H   0  0  0  0  0  0  0  0  0  0  0  0
   57.1086   22.3063   47.1221 H   0  0  0  0  0  0  0  0  0  0  0  0
   56.7151   27.6625   46.8916 H   0  0  0  0  0  0  0  0  0  0  0  0
   55.9225   29.4857   45.3847 H   0  0  0  0  0  0  0  0  0  0  0  0
   59.9181   35.0209   44.6268 H   0  0  0  0  0  0  0  0  0  0  0  0
   60.7955   35.8198   46.8194 H   0  0  0  0  0  0  0  0  0  0  0  0
  1  2  1  0
  2  3  2  0
  3  4  1  0
  4  5  1  0
  4  6  2  0
  6  7  1  0
  7  8  1  0
  8  9  1  0
  9 10  2  0
 10 11  1  0
 11 12  1  0
 12 13  1  0
 13 14  2  0
 13 15  1  0
 15 16  2  0
 15 17  1  0
 17 18  1  0
 18 19  2  0
 19 20  1  0
 20 21  2  0
 21 22  1  0
 22 23  2  0
 22 24  2  0
 22 25  1  0
 25 26  1  0
 26 27  1  0
 27 28  1  0
 28 29  1  0
 29 30  1  0
 21 31  1  0
 31 32  2  0
 11 33  2  0
 33 34  1  0
 34 35  2  0
 35 36  1  0
  7 37  2  0
 37  2  1  0
 35  9  1  0
 32 18  1  0
 30 25  1  0
  1 38  1  0
  1 39  1  0
  1 40  1  0
  3 41  1  0
  5 42  1  0
  5 43  1  0
  5 44  1  0
 10 45  1  0
 12 46  1  0
 19 47  1  0
 20 48  1  0
 26 49  1  0
 26 50  1  0
 27 51  1  0
 27 52  1  0
 29 53  1  0
 29 54  1  0
 30 55  1  0
 30 56  1  0
 31 57  1  0
 32 58  1  0
 33 59  1  0
 34 60  1  0
M  CHG  2  17  -1  36  -1
M  END
>  <UniqueID>  (1) 
1

>  <SMILES>  (1) 
Cc1cc(C)nc(Sc2cc(NC(=O)C(=O)[N-]c3ccc(S(=O)(=O)N4CCOCC4)cc3)ccc2[O-])n1

>  <Energy>  (1) 
74.49281004410656

>  <Genealogy>  (1) 
Cc1cc(C)nc(Sc2cc(NC(=O)C(=O)[N-]c3ccc(S(=O)(=O)N4CCOCC4)cc3)ccc2[O-])n1 (protonated)
Cc1cc(C)nc(Sc2cc(NC(=O)C(=O)[N-]c3ccc(S(=O)(=O)N4CCOCC4)cc3)ccc2[O-])n1 (3D coordinates assigned)
Cc1cc(C)nc(Sc2cc(NC(=O)C(=O)[N-]c3ccc(S(=O)(=O)N4CCOCC4)cc3)ccc2[O-])n1 (nonaromatic ring conformer: 74.49281004410656 kcal/mol)

>  <smiles>  (1) 
Cc1cc(C)nc(Sc2cc(NC(=O)C(=O)Nc3ccc(S(=O)(=O)N4CCOCC4)cc3)ccc2O)n1

>  <score_type>  (1) 
oracle

>  <origin>  (1) 
adg

>  <m_score__min__energy>  (1) 
-12.73

>  <m_primary>  (1) 
energy

$$$$
1:0
     RDKit          3D

 58 61  0  0  0  0  0  0  0  0999 V2000
   64.0390   32.3950   48.9220 C   0  0  0  0  0  0  0  0  0  0  0  0
   62.7720   33.0860   48.5100 C   0  0  0  0  0  0  0  0  0  0  0  0
   61.9080   33.6090   49.4750 C   0  0  0  0  0  0  0  0  0  0  0  0
   60.7160   34.2190   49.0780 C   0  0  0  0  0  0  0  0  0  0  0  0
   60.3740   34.2910   47.7560 N   0  0  0  0  0  0  0  0  0  0  0  0
   59.1240   34.9710   47.3800 C   0  0  0  0  0  0  0  0  0  0  0  0
   58.2090   34.0160   46.6750 C   0  0  0  0  0  0  0  0  0  0  0  0
   57.3980   33.3230   47.3470 O   0  0  0  0  0  0  0  0  0  0  0  0
   58.2920   33.8610   45.2510 N   0  0  0  0  0  0  0  0  0  0  0  0
   57.4290   32.9440   44.5110 C   0  0  0  0  0  0  0  0  0  0  0  0
   57.7640   31.5170   44.8560 C   0  0  0  0  0  0  0  0  0  0  0  0
   56.8660   30.4880   44.5380 C   0  0  0  0  0  0  0  0  0  0  0  0
   57.1590   29.1640   44.8750 C   0  0  0  0  0  0  0  0  0  0  0  0
   58.3550   28.8450   45.5410 C   0  0  0  0  0  0  0  0  0  0  0  0
   58.6560   27.4390   45.8970 C   0  0  0  0  0  0  0  0  0  0  0  0
   57.7170   26.5510   46.2940 N   0  0  0  0  0  0  0  0  0  0  0  0
   58.2460   25.3270   46.5670 C   0  0  0  0  0  0  0  0  0  0  0  0
   57.3910   24.1720   46.9730 C   0  0  0  0  0  0  0  0  0  0  0  0
   56.0430   24.6540   47.2620 N   0  0  0  0  0  0  0  0  0  0  0  0
   55.1660   24.8800   45.7810 S   0  0  0  0  0  0  0  0  0  0  0  0
   54.7790   26.3280   45.6440 O   0  0  0  0  0  0  0  0  0  0  0  0
   56.0440   24.4970   44.6240 O   0  0  0  0  0  0  0  0  0  0  0  0
   53.7260   23.8640   45.7680 C   0  0  0  0  0  0  0  0  0  0  0  0
   53.6240   22.7670   46.6360 C   0  0  0  0  0  0  0  0  0  0  0  0
   52.4770   21.9650   46.6220 C   0  0  0  0  0  0  0  0  0  0  0  0
   51.4290   22.2580   45.7440 C   0  0  0  0  0  0  0  0  0  0  0  0
   51.5260   23.3530   44.8810 C   0  0  0  0  0  0  0  0  0  0  0  0
   52.6700   24.1570   44.8930 C   0  0  0  0  0  0  0  0  0  0  0  0
   59.6200   25.2180   46.3710 C   0  0  0  0  0  0  0  0  0  0  0  0
   60.1800   26.7160   45.8600 S   0  0  0  0  0  0  0  0  0  0  0  0
   59.2520   29.8810   45.8610 C   0  0  0  0  0  0  0  0  0  0  0  0
   58.9570   31.2040   45.5230 C   0  0  0  0  0  0  0  0  0  0  0  0
   61.2100   33.7760   46.7950 C   0  0  0  0  0  0  0  0  0  0  0  0
   60.9100   33.8520   45.5730 O   0  0  0  0  0  0  0  0  0  0  0  0
   62.4110   33.1590   47.1600 C   0  0  0  0  0  0  0  0  0  0  0  0
   64.0986   32.3625   50.0199 H   0  0  0  0  0  0  0  0  0  0  0  0
   64.0435   31.3695   48.5240 H   0  0  0  0  0  0  0  0  0  0  0  0
   64.9035   32.9465   48.5240 H   0  0  0  0  0  0  0  0  0  0  0  0
   62.1652   33.5407   50.5423 H   0  0  0  0  0  0  0  0  0  0  0  0
   60.0447   34.6464   49.8374 H   0  0  0  0  0  0  0  0  0  0  0  0
   58.6280   35.3476   48.2867 H   0  0  0  0  0  0  0  0  0  0  0  0
   59.3587   35.8081   46.7060 H   0  0  0  0  0  0  0  0  0  0  0  0
   59.0020   34.4140   44.7200 H   0  0  0  0  0  0  0  0  0  0  0  0
   56.3792   33.1435   44.7721 H   0  0  0  0  0  0  0  0  0  0  0  0
   57.5852   33.0974   43.4330 H   0  0  0  0  0  0  0  0  0  0  0  0
   55.9249   30.7246   44.0199 H   0  0  0  0  0  0  0  0  0  0  0  0
   56.4482   28.3651   44.6171 H   0  0  0  0  0  0  0  0  0  0  0  0
   57.3521   23.4371   46.1554 H   0  0  0  0  0  0  0  0  0  0  0  0
   57.8140   23.6945   47.8691 H   0  0  0  0  0  0  0  0  0  0  0  0
   54.4467   22.5366   47.3288 H   0  0  0  0  0  0  0  0  0  0  0  0
   52.4000   21.1038   47.3020 H   0  0  0  0  0  0  0  0  0  0  0  0
   50.5283   21.6267   45.7325 H   0  0  0  0  0  0  0  0  0  0  0  0
   50.7008   23.5828   44.1909 H   0  0  0  0  0  0  0  0  0  0  0  0
   52.7417   25.0204   44.2152 H   0  0  0  0  0  0  0  0  0  0  0  0
   60.2284   24.3143   46.5233 H   0  0  0  0  0  0  0  0  0  0  0  0
   60.1926   29.6473   46.3812 H   0  0  0  0  0  0  0  0  0  0  0  0
   59.6650   32.0051   45.7817 H   0  0  0  0  0  0  0  0  0  0  0  0
   63.0693   32.7327   46.3887 H   0  0  0  0  0  0  0  0  0  0  0  0
  1  2  1  0
  2  3  1  0
  3  4  2  0
  4  5  1  0
  5  6  1  0
  6  7  1  0
  7  8  2  0
  7  9  1  0
  9 10  1  0
 10 11  1  0
 11 12  2  0
 12 13  1  0
 13 14  2  0
 14 15  1  0
 15 16  2  0
 16 17  1  0
 17 18  1  0
 18 19  1  0
 19 20  1  0
 20 21  2  0
 20 22  2  0
 20 23  1  0
 23 24  2  0
 24 25  1  0
 25 26  2  0
 26 27  1  0
 27 28  2  0
 17 29  2  0
 29 30  1  0
 14 31  1  0
 31 32  2  0
  5 33  1  0
 33 34  2  0
 33 35  1  0
 35  2  2  0
 32 11  1  0
 30 15  1  0
 28 23  1  0
  1 36  1  0
  1 37  1  0
  1 38  1  0
  3 39  1  0
  4 40  1  0
  6 41  1  0
  6 42  1  0
  9 43  1  0
 10 44  1  0
 10 45  1  0
 12 46  1  0
 13 47  1  0
 18 48  1  0
 18 49  1  0
 24 50  1  0
 25 51  1  0
 26 52  1  0
 27 53  1  0
 28 54  1  0
 29 55  1  0
 31 56  1  0
 32 57  1  0
 35 58  1  0
M  CHG  1  19  -1
M  END
>  <UniqueID>  (2) 
2

>  <SMILES>  (2) 
Cc1ccn(CC(=O)NCc2ccc(-c3nc(C[N-]S(=O)(=O)c4ccccc4)cs3)cc2)c(=O)c1

>  <Energy>  (2) 
86.98043509123487

>  <Genealogy>  (2) 
Cc1ccn(CC(=O)NCc2ccc(-c3nc(C[N-]S(=O)(=O)c4ccccc4)cs3)cc2)c(=O)c1 (protonated)
Cc1ccn(CC(=O)NCc2ccc(-c3nc(C[N-]S(=O)(=O)c4ccccc4)cs3)cc2)c(=O)c1 (3D coordinates assigned)
Cc1ccn(CC(=O)NCc2ccc(-c3nc(C[N-]S(=O)(=O)c4ccccc4)cs3)cc2)c(=O)c1 (optimized conformer: 86.98043509123487 kcal/mol)

>  <smiles>  (2) 
Cc1ccn(CC(=O)NCc2ccc(-c3nc(CNS(=O)(=O)c4ccccc4)cs3)cc2)c(=O)c1

>  <score_type>  (2) 
oracle

>  <origin>  (2) 
adg

>  <m_score__min__energy>  (2) 
-11.31

>  <m_primary>  (2) 
energy

$$$$
2:0
     RDKit          3D

 47 50  0  0  0  0  0  0  0  0999 V2000
   60.1890   28.2620   49.9610 O   0  0  0  0  0  0  0  0  0  0  0  0
   60.2850   28.3130   48.7410 C   0  0  0  0  0  0  0  0  0  0  0  0
   60.7700   27.0850   48.0120 C   0  0  0  0  0  0  0  0  0  0  0  0
   60.1400   27.0050   46.7330 O   0  0  0  0  0  0  0  0  0  0  0  0
   58.7690   26.7940   46.5300 C   0  0  0  0  0  0  0  0  0  0  0  0
   58.0970   25.6590   47.0300 C   0  0  0  0  0  0  0  0  0  0  0  0
   56.7230   25.5050   46.8160 C   0  0  0  0  0  0  0  0  0  0  0  0
   56.0070   26.4770   46.1040 C   0  0  0  0  0  0  0  0  0  0  0  0
   54.6410   26.3260   45.9010 O   0  0  0  0  0  0  0  0  0  0  0  0
   56.6690   27.6040   45.6060 C   0  0  0  0  0  0  0  0  0  0  0  0
   58.0430   27.7570   45.8140 C   0  0  0  0  0  0  0  0  0  0  0  0
   59.9970   29.5670   48.0580 N   0  0  1  0  0  0  0  0  0  0  0  0
   58.7790   30.2210   48.6280 C   0  0  0  0  0  0  0  0  0  0  0  0
   59.0500   31.6070   49.2410 C   0  0  0  0  0  0  0  0  0  0  0  0
   59.7600   32.5480   48.2470 C   0  0  2  0  0  0  0  0  0  0  0  0
   58.7610   33.1980   47.3890 N   0  0  0  0  0  0  0  0  0  0  0  0
   58.3840   32.7400   46.2300 C   0  0  0  0  0  0  0  0  0  0  0  0
   58.6500   33.3750   45.0530 N   0  0  0  0  0  0  0  0  0  0  0  0
   58.0890   32.5530   44.1540 C   0  0  0  0  0  0  0  0  0  0  0  0
   58.0510   32.7030   42.7680 C   0  0  0  0  0  0  0  0  0  0  0  0
   57.4040   31.6990   42.0190 C   0  0  0  0  0  0  0  0  0  0  0  0
   56.8200   30.5870   42.6700 C   0  0  0  0  0  0  0  0  0  0  0  0
   56.8750   30.4730   44.0740 C   0  0  0  0  0  0  0  0  0  0  0  0
   57.5210   31.4840   44.7830 C   0  0  0  0  0  0  0  0  0  0  0  0
   57.6930   31.5770   46.1100 N   0  0  0  0  0  0  0  0  0  0  0  0
   60.8040   31.8100   47.3760 C   0  0  0  0  0  0  0  0  0  0  0  0
   61.1840   30.4530   47.9770 C   0  0  0  0  0  0  0  0  0  0  0  0
   61.8603   27.1451   47.8795 H   0  0  0  0  0  0  0  0  0  0  0  0
   60.5183   26.1894   48.5990 H   0  0  0  0  0  0  0  0  0  0  0  0
   58.6545   24.8933   47.5894 H   0  0  0  0  0  0  0  0  0  0  0  0
   56.2031   24.6183   47.2078 H   0  0  0  0  0  0  0  0  0  0  0  0
   56.1083   28.3702   45.0505 H   0  0  0  0  0  0  0  0  0  0  0  0
   58.5596   28.6411   45.4122 H   0  0  0  0  0  0  0  0  0  0  0  0
   59.7710   29.3120   47.0660 H   0  0  0  0  0  0  0  0  0  0  0  0
   58.3695   29.5682   49.4130 H   0  0  0  0  0  0  0  0  0  0  0  0
   58.0749   30.3697   47.7960 H   0  0  0  0  0  0  0  0  0  0  0  0
   59.6858   31.4842   50.1302 H   0  0  0  0  0  0  0  0  0  0  0  0
   58.0818   32.0579   49.5042 H   0  0  0  0  0  0  0  0  0  0  0  0
   60.3046   33.3017   48.8346 H   0  0  0  0  0  0  0  0  0  0  0  0
   58.5096   33.5738   42.2766 H   0  0  0  0  0  0  0  0  0  0  0  0
   57.3530   31.7807   40.9232 H   0  0  0  0  0  0  0  0  0  0  0  0
   56.3201   29.8068   42.0772 H   0  0  0  0  0  0  0  0  0  0  0  0
   56.4231   29.6146   44.5926 H   0  0  0  0  0  0  0  0  0  0  0  0
   61.7081   32.4319   47.2992 H   0  0  0  0  0  0  0  0  0  0  0  0
   60.3615   31.6346   46.3843 H   0  0  0  0  0  0  0  0  0  0  0  0
   61.5903   30.6063   48.9876 H   0  0  0  0  0  0  0  0  0  0  0  0
   61.9377   29.9780   47.3318 H   0  0  0  0  0  0  0  0  0  0  0  0
  1  2  2  0
  2  3  1  0
  3  4  1  0
  4  5  1  0
  5  6  2  0
  6  7  1  0
  7  8  2  0
  8  9  1  0
  8 10  1  0
 10 11  2  0
  2 12  1  0
 12 13  1  0
 13 14  1  0
 14 15  1  0
 15 16  1  0
 16 17  2  3
 17 18  1  0
 18 19  1  0
 19 20  2  0
 20 21  1  0
 21 22  2  0
 22 23  1  0
 23 24  2  0
 24 25  1  0
 15 26  1  0
 26 27  1  0
 11  5  1  0
 27 12  1  0
 25 17  1  0
 24 19  1  0
  3 28  1  0
  3 29  1  0
  6 30  1  0
  7 31  1  0
 10 32  1  0
 11 33  1  0
 12 34  1  6
 13 35  1  0
 13 36  1  0
 14 37  1  0
 14 38  1  0
 15 39  1  1
 20 40  1  0
 21 41  1  0
 22 42  1  0
 23 43  1  0
 26 44  1  0
 26 45  1  0
 27 46  1  0
 27 47  1  0
M  CHG  4   9  -1  12   1  18  -1  25  -1
M  END
>  <UniqueID>  (3) 
3

>  <SMILES>  (3) 
O=C(COc1ccc([O-])cc1)[NH+]1CCC(N=c2[n-]c3ccccc3[n-]2)CC1

>  <Energy>  (3) 
95.54696900348736

>  <Genealogy>  (3) 
O=C(COc1ccc([O-])cc1)[NH+]1CCC(N=c2[n-]c3ccccc3[n-]2)CC1 (protonated)
O=C(COc1ccc([O-])cc1)[NH+]1CCC(N=c2[n-]c3ccccc3[n-]2)CC1 (3D coordinates assigned)
O=C(COc1ccc([O-])cc1)[NH+]1CCC(N=c2[n-]c3ccccc3[n-]2)CC1 (nonaromatic ring conformer: 95.54696900348736 kcal/mol)

>  <smiles>  (3) 
O=C(COc1ccc(O)cc1)N1CCC(N=c2[nH]c3ccccc3[nH]2)CC1

>  <score_type>  (3) 
oracle

>  <origin>  (3) 
adg

>  <m_score__min__energy>  (3) 
-11.94

>  <m_primary>  (3) 
energy

$$$$
3:0
     RDKit          3D

 37 38  0  0  0  0  0  0  0  0999 V2000
   59.9040   29.9730   52.1110 C   0  0  0  0  0  0  0  0  0  0  0  0
   59.5260   31.4310   52.0890 C   0  0  0  0  0  0  0  0  0  0  0  0
   60.3560   32.3350   51.4020 C   0  0  0  0  0  0  0  0  0  0  0  0
   60.0220   33.6870   51.3200 C   0  0  0  0  0  0  0  0  0  0  0  0
   58.8500   34.1550   51.9120 C   0  0  0  0  0  0  0  0  0  0  0  0
   58.0080   33.2730   52.5890 C   0  0  0  0  0  0  0  0  0  0  0  0
   58.3310   31.9080   52.6940 C   0  0  0  0  0  0  0  0  0  0  0  0
   57.3700   30.9910   53.4190 C   0  0  0  0  0  0  0  0  0  0  0  0
   56.5620   30.1940   52.4450 C   0  0  0  0  0  0  0  0  0  0  0  0
   56.9150   30.1320   51.2360 O   0  0  0  0  0  0  0  0  0  0  0  0
   55.4030   29.4910   52.8970 N   0  0  0  0  0  0  0  0  0  0  0  0
   54.4900   30.0230   53.9000 C   0  0  0  0  0  0  0  0  0  0  0  0
   53.0560   29.5930   53.5870 C   0  0  0  0  0  0  0  0  0  0  0  0
   52.4700   30.4180   52.4690 C   0  0  0  0  0  0  0  0  0  0  0  0
   52.5560   29.9690   51.1400 C   0  0  0  0  0  0  0  0  0  0  0  0
   51.9640   30.7050   50.1080 C   0  0  0  0  0  0  0  0  0  0  0  0
   51.2780   31.8890   50.3950 C   0  0  0  0  0  0  0  0  0  0  0  0
   50.6880   32.6130   49.3660 O   0  0  0  0  0  0  0  0  0  0  0  0
   51.1810   32.3390   51.7180 C   0  0  0  0  0  0  0  0  0  0  0  0
   50.4940   33.5110   52.0090 O   0  0  0  0  0  0  0  0  0  0  0  0
   51.7740   31.6050   52.7510 C   0  0  0  0  0  0  0  0  0  0  0  0
   59.9922   29.6328   53.1533 H   0  0  0  0  0  0  0  0  0  0  0  0
   59.1285   29.3854   51.5979 H   0  0  0  0  0  0  0  0  0  0  0  0
   60.8673   29.8362   51.5979 H   0  0  0  0  0  0  0  0  0  0  0  0
   61.2781   31.9722   50.9244 H   0  0  0  0  0  0  0  0  0  0  0  0
   60.6846   34.3849   50.7873 H   0  0  0  0  0  0  0  0  0  0  0  0
   58.5888   35.2215   51.8451 H   0  0  0  0  0  0  0  0  0  0  0  0
   57.0808   33.6491   53.0460 H   0  0  0  0  0  0  0  0  0  0  0  0
   57.9412   30.3044   54.0612 H   0  0  0  0  0  0  0  0  0  0  0  0
   56.6875   31.6035   54.0265 H   0  0  0  0  0  0  0  0  0  0  0  0
   54.7761   29.6413   54.8912 H   0  0  0  0  0  0  0  0  0  0  0  0
   54.5463   31.1215   53.8912 H   0  0  0  0  0  0  0  0  0  0  0  0
   53.0560   28.5341   53.2893 H   0  0  0  0  0  0  0  0  0  0  0  0
   52.4433   29.7430   54.4881 H   0  0  0  0  0  0  0  0  0  0  0  0
   53.0907   29.0355   50.9104 H   0  0  0  0  0  0  0  0  0  0  0  0
   52.0384   30.3516   49.0690 H   0  0  0  0  0  0  0  0  0  0  0  0
   51.6947   31.9593   53.7894 H   0  0  0  0  0  0  0  0  0  0  0  0
  1  2  1  0
  2  3  2  0
  3  4  1  0
  4  5  2  0
  5  6  1  0
  6  7  2  0
  7  8  1  0
  8  9  1  0
  9 10  2  0
  9 11  1  0
 11 12  1  0
 12 13  1  0
 13 14  1  0
 14 15  2  0
 15 16  1  0
 16 17  2  0
 17 18  1  0
 17 19  1  0
 19 20  1  0
 19 21  2  0
  7  2  1  0
 21 14  1  0
  1 22  1  0
  1 23  1  0
  1 24  1  0
  3 25  1  0
  4 26  1  0
  5 27  1  0
  6 28  1  0
  8 29  1  0
  8 30  1  0
 12 31  1  0
 12 32  1  0
 13 33  1  0
 13 34  1  0
 15 35  1  0
 16 36  1  0
 21 37  1  0
M  CHG  3  11  -1  18  -1  20  -1
M  END
>  <UniqueID>  (4) 
4

>  <SMILES>  (4) 
Cc1ccccc1CC(=O)[N-]CCc1ccc([O-])c([O-])c1

>  <Energy>  (4) 
30.18129701006805

>  <Genealogy>  (4) 
Cc1ccccc1CC(=O)[N-]CCc1ccc([O-])c([O-])c1 (protonated)
Cc1ccccc1CC(=O)[N-]CCc1ccc([O-])c([O-])c1 (3D coordinates assigned)
Cc1ccccc1CC(=O)[N-]CCc1ccc([O-])c([O-])c1 (optimized conformer: 30.18129701006805 kcal/mol)

>  <smiles>  (4) 
Cc1ccccc1CC(=O)NCCc1ccc(O)c(O)c1

>  <score_type>  (4) 
oracle

>  <origin>  (4) 
adg

>  <m_score__min__energy>  (4) 
-16.309999999999999

>  <m_primary>  (4) 
energy

$$$$
4:0
     RDKit          3D

 36 38  0  0  0  0  0  0  0  0999 V2000
   54.6730   31.1480   51.4010 C   0  0  0  0  0  0  0  0  0  0  0  0
   54.3900   30.2400   52.3500 C   0  0  0  0  0  0  0  0  0  0  0  0
   53.1120   29.7890   52.7170 C   0  0  0  0  0  0  0  0  0  0  0  0
   51.8890   30.2840   52.4470 C   0  0  0  0  0  0  0  0  0  0  0  0
   51.4190   30.7350   51.1260 C   0  0  0  0  0  0  0  0  0  0  0  0
   51.4170   29.9780   50.0120 N   0  0  0  0  0  0  0  0  0  0  0  0
   51.0380   30.8440   49.0470 C   0  0  0  0  0  0  0  0  0  0  0  0
   50.9030   30.5020   47.8440 O   0  0  0  0  0  0  0  0  0  0  0  0
   50.8260   32.1090   49.4720 N   0  0  0  0  0  0  0  0  0  0  0  0
   51.0860   32.0230   50.7870 C   0  0  0  0  0  0  0  0  0  0  0  0
   51.0240   33.1030   51.6590 O   0  0  0  0  0  0  0  0  0  0  0  0
   53.3070   28.6550   53.4860 C   0  0  0  0  0  0  0  0  0  0  0  0
   54.6700   28.4990   53.6310 C   0  0  0  0  0  0  0  0  0  0  0  0
   55.3170   27.4130   54.4360 C   0  0  0  0  0  0  0  0  0  0  0  0
   55.3320   29.4660   52.9520 N   0  0  0  0  0  0  0  0  0  0  0  0
   56.7620   29.6140   52.8930 C   0  0  0  0  0  0  0  0  0  0  0  0
   57.4150   29.0370   51.9810 O   0  0  0  0  0  0  0  0  0  0  0  0
   57.4380   30.4280   53.8610 N   0  0  0  0  0  0  0  0  0  0  0  0
   57.9120   31.7690   53.6710 C   0  0  0  0  0  0  0  0  0  0  0  0
   58.7090   32.3470   54.6680 C   0  0  0  0  0  0  0  0  0  0  0  0
   59.2070   33.6440   54.5120 C   0  0  0  0  0  0  0  0  0  0  0  0
   58.9280   34.3670   53.3500 C   0  0  0  0  0  0  0  0  0  0  0  0
   58.1550   33.7890   52.3380 C   0  0  0  0  0  0  0  0  0  0  0  0
   57.6530   32.4930   52.4920 C   0  0  0  0  0  0  0  0  0  0  0  0
   55.7182   31.4252   51.1993 H   0  0  0  0  0  0  0  0  0  0  0  0
   53.8595   31.6142   50.8258 H   0  0  0  0  0  0  0  0  0  0  0  0
   51.1802   30.3578   53.2850 H   0  0  0  0  0  0  0  0  0  0  0  0
   52.5249   28.0029   53.9020 H   0  0  0  0  0  0  0  0  0  0  0  0
   55.1902   27.6259   55.5077 H   0  0  0  0  0  0  0  0  0  0  0  0
   54.8463   26.4483   54.1956 H   0  0  0  0  0  0  0  0  0  0  0  0
   56.3894   27.3677   54.1956 H   0  0  0  0  0  0  0  0  0  0  0  0
   58.9443   31.7769   55.5788 H   0  0  0  0  0  0  0  0  0  0  0  0
   59.8197   34.0959   55.3059 H   0  0  0  0  0  0  0  0  0  0  0  0
   59.3157   35.3895   53.2310 H   0  0  0  0  0  0  0  0  0  0  0  0
   57.9415   34.3549   51.4192 H   0  0  0  0  0  0  0  0  0  0  0  0
   57.0540   32.0380   51.6894 H   0  0  0  0  0  0  0  0  0  0  0  0
  1  2  2  0
  2  3  1  0
  3  4  2  3
  4  5  1  0
  5  6  1  0
  6  7  1  0
  7  8  2  0
  7  9  1  0
  9 10  1  0
 10 11  1  0
  3 12  1  0
 12 13  2  0
 13 14  1  0
 13 15  1  0
 15 16  1  0
 16 17  2  0
 16 18  1  0
 18 19  1  0
 19 20  2  0
 20 21  1  0
 21 22  2  0
 22 23  1  0
 23 24  2  0
 15  2  1  0
 24 19  1  0
 10  5  2  0
  1 25  1  0
  1 26  1  0
  4 27  1  0
 12 28  1  0
 14 29  1  0
 14 30  1  0
 14 31  1  0
 20 32  1  0
 21 33  1  0
 22 34  1  0
 23 35  1  0
 24 36  1  0
M  CHG  4   6  -1   9  -1  11  -1  18  -1
M  END
>  <UniqueID>  (5) 
5

>  <SMILES>  (5) 
C=c1c(=Cc2[n-]c(=O)[n-]c2[O-])cc(C)n1C(=O)[N-]c1ccccc1

>  <Energy>  (5) 
115.11003999767546

>  <Genealogy>  (5) 
C=c1c(=Cc2[n-]c(=O)[n-]c2[O-])cc(C)n1C(=O)[N-]c1ccccc1 (protonated)
C=c1c(=Cc2[n-]c(=O)[n-]c2[O-])cc(C)n1C(=O)[N-]c1ccccc1 (3D coordinates assigned)
C=c1c(=Cc2[n-]c(=O)[n-]c2[O-])cc(C)n1C(=O)[N-]c1ccccc1 (optimized conformer: 115.11003999767546 kcal/mol)

>  <smiles>  (5) 
C=c1c(=Cc2[nH]c(=O)[nH]c2O)cc(C)n1C(=O)Nc1ccccc1

>  <score_type>  (5) 
oracle

>  <origin>  (5) 
adg

>  <m_score__min__energy>  (5) 
-16.969999999999999

>  <m_primary>  (5) 
energy

$$$$
5:0
     RDKit          3D

 57 61  0  0  0  0  0  0  0  0999 V2000
   57.6790   30.2820   45.7710 C   0  0  0  0  0  0  0  0  0  0  0  0
   58.3830   28.9960   46.1100 C   0  0  0  0  0  0  0  0  0  0  0  0
   57.9910   27.7970   45.4900 C   0  0  0  0  0  0  0  0  0  0  0  0
   58.6500   26.5890   45.7760 C   0  0  0  0  0  0  0  0  0  0  0  0
   58.2420   25.3320   45.1050 C   0  0  0  0  0  0  0  0  0  0  0  0
   57.2240   25.2120   44.2390 C   0  0  0  0  0  0  0  0  0  0  0  0
   57.1140   23.8070   43.8400 C   0  0  0  0  0  0  0  0  0  0  0  0
   56.1940   23.1970   42.9880 C   0  0  0  0  0  0  0  0  0  0  0  0
   56.2940   21.8080   42.7880 C   0  0  0  0  0  0  0  0  0  0  0  0
   57.3000   21.0630   43.4390 C   0  0  0  0  0  0  0  0  0  0  0  0
   58.2160   21.7000   44.2950 C   0  0  0  0  0  0  0  0  0  0  0  0
   58.0910   23.0780   44.4740 C   0  0  0  0  0  0  0  0  0  0  0  0
   58.8470   24.0030   45.2910 C   0  0  0  0  0  0  0  0  0  0  0  0
   59.8560   23.7190   45.9890 O   0  0  0  0  0  0  0  0  0  0  0  0
   59.7160   26.5960   46.6930 C   0  0  0  0  0  0  0  0  0  0  0  0
   60.1120   27.7840   47.3100 C   0  0  0  0  0  0  0  0  0  0  0  0
   59.4580   28.9850   47.0190 C   0  0  0  0  0  0  0  0  0  0  0  0
   59.9010   30.1950   47.6470 N   0  0  0  0  0  0  0  0  0  0  0  0
   60.5360   31.2400   46.8450 C   0  0  0  0  0  0  0  0  0  0  0  0
   61.3880   32.1350   47.7530 C   0  0  0  0  0  0  0  0  0  0  0  0
   60.6140   32.7370   48.8810 N   0  0  0  0  0  0  0  0  0  0  0  0
   60.2450   34.1480   48.5980 C   0  0  0  0  0  0  0  0  0  0  0  0
   59.4610   34.2900   47.3110 C   0  0  0  0  0  0  0  0  0  0  0  0
   60.0220   34.9670   46.2140 C   0  0  0  0  0  0  0  0  0  0  0  0
   59.3000   35.0990   45.0230 C   0  0  0  0  0  0  0  0  0  0  0  0
   58.0150   34.5570   44.9190 C   0  0  0  0  0  0  0  0  0  0  0  0
   57.4500   33.8850   46.0070 C   0  0  0  0  0  0  0  0  0  0  0  0
   58.1670   33.7550   47.2000 C   0  0  0  0  0  0  0  0  0  0  0  0
   59.3920   31.9720   49.2530 C   0  0  0  0  0  0  0  0  0  0  0  0
   59.5560   30.4630   49.0450 C   0  0  0  0  0  0  0  0  0  0  0  0
   57.3953   30.8003   46.6988 H   0  0  0  0  0  0  0  0  0  0  0  0
   58.3514   30.9242   45.1832 H   0  0  0  0  0  0  0  0  0  0  0  0
   56.7757   30.0616   45.1832 H   0  0  0  0  0  0  0  0  0  0  0  0
   57.1578   27.8042   44.7718 H   0  0  0  0  0  0  0  0  0  0  0  0
   56.5799   26.0316   43.8876 H   0  0  0  0  0  0  0  0  0  0  0  0
   55.4118   23.7855   42.4862 H   0  0  0  0  0  0  0  0  0  0  0  0
   55.5834   21.2995   42.1198 H   0  0  0  0  0  0  0  0  0  0  0  0
   57.3682   19.9773   43.2759 H   0  0  0  0  0  0  0  0  0  0  0  0
   59.0055   21.1303   44.8069 H   0  0  0  0  0  0  0  0  0  0  0  0
   60.2418   25.6583   46.9259 H   0  0  0  0  0  0  0  0  0  0  0  0
   60.9438   27.7751   48.0297 H   0  0  0  0  0  0  0  0  0  0  0  0
   61.1773   30.7767   46.0807 H   0  0  0  0  0  0  0  0  0  0  0  0
   59.7610   31.8474   46.3546 H   0  0  0  0  0  0  0  0  0  0  0  0
   62.2048   31.5299   48.1733 H   0  0  0  0  0  0  0  0  0  0  0  0
   61.7634   32.9641   47.1352 H   0  0  0  0  0  0  0  0  0  0  0  0
   61.2360   32.7290   49.7260 H   0  0  0  0  0  0  0  0  0  0  0  0
   59.6321   34.5268   49.4292 H   0  0  0  0  0  0  0  0  0  0  0  0
   61.1759   34.7240   48.4901 H   0  0  0  0  0  0  0  0  0  0  0  0
   61.0325   35.3945   46.2924 H   0  0  0  0  0  0  0  0  0  0  0  0
   59.7434   35.6296   44.1675 H   0  0  0  0  0  0  0  0  0  0  0  0
   57.4490   34.6594   43.9814 H   0  0  0  0  0  0  0  0  0  0  0  0
   56.4397   33.4579   45.9242 H   0  0  0  0  0  0  0  0  0  0  0  0
   57.7158   33.2314   48.0557 H   0  0  0  0  0  0  0  0  0  0  0  0
   59.1683   32.1593   50.3136 H   0  0  0  0  0  0  0  0  0  0  0  0
   58.5745   32.3116   48.6000 H   0  0  0  0  0  0  0  0  0  0  0  0
   60.3577   30.0883   49.6983 H   0  0  0  0  0  0  0  0  0  0  0  0
   58.6122   29.9551   49.2924 H   0  0  0  0  0  0  0  0  0  0  0  0
  1  2  1  0
  2  3  2  0
  3  4  1  0
  4  5  1  0
  5  6  2  0
  6  7  1  0
  7  8  2  0
  8  9  1  0
  9 10  2  0
 10 11  1  0
 11 12  2  0
 12 13  1  0
 13 14  2  0
  4 15  2  0
 15 16  1  0
 16 17  2  0
 17 18  1  0
 18 19  1  0
 19 20  1  0
 20 21  1  0
 21 22  1  0
 22 23  1  0
 23 24  2  0
 24 25  1  0
 25 26  2  0
 26 27  1  0
 27 28  2  0
 21 29  1  0
 29 30  1  0
 17  2  1  0
 30 18  1  0
 13  5  1  0
 28 23  1  0
 12  7  1  0
  1 31  1  0
  1 32  1  0
  1 33  1  0
  3 34  1  0
  6 35  1  0
  8 36  1  0
  9 37  1  0
 10 38  1  0
 11 39  1  0
 15 40  1  0
 16 41  1  0
 19 42  1  0
 19 43  1  0
 20 44  1  0
 20 45  1  0
 21 46  1  0
 22 47  1  0
 22 48  1  0
 24 49  1  0
 25 50  1  0
 26 51  1  0
 27 52  1  0
 28 53  1  0
 29 54  1  0
 29 55  1  0
 30 56  1  0
 30 57  1  0
M  CHG  1  21   1
M  END
>  <UniqueID>  (6) 
6

>  <SMILES>  (6) 
Cc1cc(C2=Cc3ccccc3C2=O)ccc1N1CC[NH+](Cc2ccccc2)CC1

>  <Energy>  (6) 
108.56431170982172

>  <Genealogy>  (6) 
Cc1cc(C2=Cc3ccccc3C2=O)ccc1N1CC[NH+](Cc2ccccc2)CC1 (protonated)
Cc1cc(C2=Cc3ccccc3C2=O)ccc1N1CC[NH+](Cc2ccccc2)CC1 (3D coordinates assigned)
Cc1cc(C2=Cc3ccccc3C2=O)ccc1N1CC[NH+](Cc2ccccc2)CC1 (nonaromatic ring conformer: 108.56431170982172 kcal/mol)

>  <smiles>  (6) 
Cc1cc(C2=Cc3ccccc3C2=O)ccc1N1CCN(Cc2ccccc2)CC1

>  <score_type>  (6) 
oracle

>  <origin>  (6) 
adg

>  <m_score__min__energy>  (6) 
-8.4100000000000001

>  <m_primary>  (6) 
energy

$$$$
6:0
     RDKit          3D

 37 40  0  0  0  0  0  0  0  0999 V2000
   64.2040   32.1000   48.3140 N   0  0  0  0  0  0  0  0  0  0  0  0
   62.8140   32.2270   48.7560 C   0  0  0  0  0  0  0  0  0  0  0  0
   61.8700   32.6270   47.5910 C   0  0  1  0  0  0  0  0  0  0  0  0
   61.3910   31.3680   46.8080 C   0  0  0  0  0  0  0  0  0  0  0  0
   60.1370   30.3130   47.6510 S   0  0  0  0  0  0  0  0  0  0  0  0
   58.8040   31.5400   47.9650 C   0  0  1  0  0  0  0  0  0  0  0  0
   59.1030   32.1990   49.2850 C   0  0  0  0  0  0  0  0  0  0  0  0
   58.4860   31.7860   50.4760 C   0  0  0  0  0  0  0  0  0  0  0  0
   58.7920   32.4290   51.6780 C   0  0  0  0  0  0  0  0  0  0  0  0
   59.7090   33.4840   51.6970 C   0  0  0  0  0  0  0  0  0  0  0  0
   60.3370   33.8910   50.5170 C   0  0  0  0  0  0  0  0  0  0  0  0
   60.0520   33.2370   49.3070 C   0  0  0  0  0  0  0  0  0  0  0  0
   60.7280   33.6250   48.0010 C   0  0  2  0  0  0  0  0  0  0  0  0
   59.6610   33.6620   46.9230 C   0  0  0  0  0  0  0  0  0  0  0  0
   59.6470   34.6420   45.9200 C   0  0  0  0  0  0  0  0  0  0  0  0
   58.6930   34.5800   44.9000 C   0  0  0  0  0  0  0  0  0  0  0  0
   57.7650   33.5320   44.8640 C   0  0  0  0  0  0  0  0  0  0  0  0
   57.7830   32.5410   45.8500 C   0  0  0  0  0  0  0  0  0  0  0  0
   58.7260   32.6030   46.8860 C   0  0  0  0  0  0  0  0  0  0  0  0
   64.2460   31.5800   47.4080 H   0  0  0  0  0  0  0  0  0  0  0  0
   64.7430   31.5630   49.0330 H   0  0  0  0  0  0  0  0  0  0  0  0
   64.6460   33.0380   48.1980 H   0  0  0  0  0  0  0  0  0  0  0  0
   62.4821   31.2623   49.1673 H   0  0  0  0  0  0  0  0  0  0  0  0
   62.7698   33.0194   49.5177 H   0  0  0  0  0  0  0  0  0  0  0  0
   62.4623   33.2256   46.8832 H   0  0  0  0  0  0  0  0  0  0  0  0
   60.9571   31.7096   45.8566 H   0  0  0  0  0  0  0  0  0  0  0  0
   62.2827   30.7335   46.6975 H   0  0  0  0  0  0  0  0  0  0  0  0
   57.8363   31.0170   47.9709 H   0  0  0  0  0  0  0  0  0  0  0  0
   57.7627   30.9574   50.4631 H   0  0  0  0  0  0  0  0  0  0  0  0
   58.3101   32.1042   52.6120 H   0  0  0  0  0  0  0  0  0  0  0  0
   59.9369   33.9954   52.6439 H   0  0  0  0  0  0  0  0  0  0  0  0
   61.0550   34.7241   50.5356 H   0  0  0  0  0  0  0  0  0  0  0  0
   61.2055   34.6076   48.1290 H   0  0  0  0  0  0  0  0  0  0  0  0
   60.3850   35.4576   45.9358 H   0  0  0  0  0  0  0  0  0  0  0  0
   58.6713   35.3578   44.1224 H   0  0  0  0  0  0  0  0  0  0  0  0
   57.0190   33.4883   44.0568 H   0  0  0  0  0  0  0  0  0  0  0  0
   57.0586   31.7140   45.8132 H   0  0  0  0  0  0  0  0  0  0  0  0
  1  2  1  0
  2  3  1  0
  3  4  1  0
  4  5  1  0
  5  6  1  0
  6  7  1  0
  7  8  2  0
  8  9  1  0
  9 10  2  0
 10 11  1  0
 11 12  2  0
 12 13  1  0
 13 14  1  0
 14 15  2  0
 15 16  1  0
 16 17  2  0
 17 18  1  0
 18 19  2  0
 13  3  1  0
 19 14  1  0
 19  6  1  0
 12  7  1  0
  1 20  1  0
  1 21  1  0
  1 22  1  0
  2 23  1  0
  2 24  1  0
  3 25  1  6
  4 26  1  0
  4 27  1  0
  6 28  1  1
  8 29  1  0
  9 30  1  0
 10 31  1  0
 11 32  1  0
 13 33  1  1
 15 34  1  0
 16 35  1  0
 17 36  1  0
 18 37  1  0
M  CHG  1   1   1
M  END
>  <UniqueID>  (7) 
7

>  <SMILES>  (7) 
[NH3+]C[C@H]1CSC2c3ccccc3C1c1ccccc12

>  <Energy>  (7) 
55.04500855557932

>  <Genealogy>  (7) 
[NH3+]CC1CSC2c3ccccc3C1c1ccccc12 (protonated)
[NH3+]C[C@H]1CSC2c3ccccc3C1c1ccccc12 (chirality)
[NH3+]C[C@H]1CSC2c3ccccc3C1c1ccccc12 (3D coordinates assigned)
[NH3+]C[C@H]1CSC2c3ccccc3C1c1ccccc12 (nonaromatic ring conformer: 55.04500855557932 kcal/mol)

>  <smiles>  (7) 
NCC1CSC2c3ccccc3C1c1ccccc12

>  <score_type>  (7) 
oracle

>  <origin>  (7) 
adg

>  <m_score__min__energy>  (7) 
-4.5999999999999996

>  <m_primary>  (7) 
energy

$$$$
7:0
     RDKit          3D

 62 64  0  0  0  0  0  0  0  0999 V2000
   63.3310   31.9530   47.4750 C   0  0  0  0  0  0  0  0  0  0  0  0
   62.2090   32.5320   47.0820 C   0  0  0  0  0  0  0  0  0  0  0  0
   61.9750   33.9630   46.9130 C   0  0  0  0  0  0  0  0  0  0  0  0
   60.6150   34.3890   47.2390 N   0  0  0  0  0  0  0  0  0  0  0  0
   60.3330   34.5490   48.6530 C   0  0  0  0  0  0  0  0  0  0  0  0
   60.5710   33.3960   49.5070 C   0  0  0  0  0  0  0  0  0  0  0  0
   59.8640   32.2610   49.7990 C   0  0  0  0  0  0  0  0  0  0  0  0
   58.5340   31.8570   49.2960 C   0  0  0  0  0  0  0  0  0  0  0  0
   60.5610   31.4980   50.6850 N   0  0  0  0  0  0  0  0  0  0  0  0
   61.6920   32.1110   50.9730 N   0  0  0  0  0  0  0  0  0  0  0  0
   62.6600   31.5520   51.9110 C   0  0  0  0  0  0  0  0  0  0  0  0
   63.7930   30.9990   51.0340 C   0  0  0  0  0  0  0  0  0  0  0  0
   61.7400   33.2620   50.2820 C   0  0  0  0  0  0  0  0  0  0  0  0
   62.8850   34.2130   50.3670 C   0  0  0  0  0  0  0  0  0  0  0  0
   59.6210   34.6400   46.2700 C   0  0  0  0  0  0  0  0  0  0  0  0
   59.6430   35.7610   45.6380 O   0  0  0  0  0  0  0  0  0  0  0  0
   58.5380   33.7660   45.8760 C   0  0  0  0  0  0  0  0  0  0  0  0
   58.7240   32.3950   45.7120 C   0  0  0  0  0  0  0  0  0  0  0  0
   57.5250   31.8140   45.3100 C   0  0  0  0  0  0  0  0  0  0  0  0
   57.3280   30.4050   45.0180 C   0  0  0  0  0  0  0  0  0  0  0  0
   56.1040   30.0760   44.7860 O   0  0  0  0  0  0  0  0  0  0  0  0
   58.3350   29.4260   44.9710 N   0  0  0  0  0  0  0  0  0  0  0  0
   59.7400   29.6760   45.2220 C   0  0  0  0  0  0  0  0  0  0  0  0
   60.3930   28.3070   45.4430 C   0  0  0  0  0  0  0  0  0  0  0  0
   59.5740   27.5030   46.4250 C   0  0  0  0  0  0  0  0  0  0  0  0
   59.4310   28.2450   47.7420 C   0  0  0  0  0  0  0  0  0  0  0  0
   58.2350   27.1770   45.8190 C   0  0  0  0  0  0  0  0  0  0  0  0
   57.9350   28.0500   44.6290 C   0  0  0  0  0  0  0  0  0  0  0  0
   56.6490   32.8430   45.2430 N   0  0  0  0  0  0  0  0  0  0  0  0
   57.2590   33.9820   45.5780 N   0  0  0  0  0  0  0  0  0  0  0  0
   63.3828   30.8578   47.5641 H   0  0  0  0  0  0  0  0  0  0  0  0
   64.2125   32.5665   47.7128 H   0  0  0  0  0  0  0  0  0  0  0  0
   61.3630   31.8653   46.8590 H   0  0  0  0  0  0  0  0  0  0  0  0
   62.6731   34.5066   47.5666 H   0  0  0  0  0  0  0  0  0  0  0  0
   62.1297   34.1855   45.8469 H   0  0  0  0  0  0  0  0  0  0  0  0
   60.9593   35.3730   49.0254 H   0  0  0  0  0  0  0  0  0  0  0  0
   59.2493   34.7288   48.7102 H   0  0  0  0  0  0  0  0  0  0  0  0
   57.8664   31.6542   50.1464 H   0  0  0  0  0  0  0  0  0  0  0  0
   58.1119   32.6674   48.6836 H   0  0  0  0  0  0  0  0  0  0  0  0
   58.6340   30.9487   48.6836 H   0  0  0  0  0  0  0  0  0  0  0  0
   63.0400   32.3335   52.5855 H   0  0  0  0  0  0  0  0  0  0  0  0
   62.2146   30.7739   52.5483 H   0  0  0  0  0  0  0  0  0  0  0  0
   64.5957   30.6072   51.6760 H   0  0  0  0  0  0  0  0  0  0  0  0
   63.4034   30.1897   50.3989 H   0  0  0  0  0  0  0  0  0  0  0  0
   64.1913   31.8040   50.3989 H   0  0  0  0  0  0  0  0  0  0  0  0
   63.1211   34.4091   51.4233 H   0  0  0  0  0  0  0  0  0  0  0  0
   63.7632   33.7749   49.8702 H   0  0  0  0  0  0  0  0  0  0  0  0
   62.6155   35.1567   49.8702 H   0  0  0  0  0  0  0  0  0  0  0  0
   59.6694   31.8567   45.8746 H   0  0  0  0  0  0  0  0  0  0  0  0
   60.1967   30.1797   44.3573 H   0  0  0  0  0  0  0  0  0  0  0  0
   59.8778   30.3283   46.0969 H   0  0  0  0  0  0  0  0  0  0  0  0
   60.4465   27.7689   44.4851 H   0  0  0  0  0  0  0  0  0  0  0  0
   61.4070   28.4485   45.8453 H   0  0  0  0  0  0  0  0  0  0  0  0
   60.0927   26.5577   46.6427 H   0  0  0  0  0  0  0  0  0  0  0  0
   59.5667   27.5409   48.5762 H   0  0  0  0  0  0  0  0  0  0  0  0
   60.1933   29.0358   47.8020 H   0  0  0  0  0  0  0  0  0  0  0  0
   58.4294   28.6959   47.8020 H   0  0  0  0  0  0  0  0  0  0  0  0
   58.2355   26.1248   45.4982 H   0  0  0  0  0  0  0  0  0  0  0  0
   57.4612   27.3566   46.5799 H   0  0  0  0  0  0  0  0  0  0  0  0
   58.5042   27.7006   43.7550 H   0  0  0  0  0  0  0  0  0  0  0  0
   56.8638   28.0102   44.3821 H   0  0  0  0  0  0  0  0  0  0  0  0
   56.7800   34.8990   45.5880 H   0  0  0  0  0  0  0  0  0  0  0  0
  1  2  2  0
  2  3  1  0
  3  4  1  0
  4  5  1  0
  5  6  1  0
  6  7  1  0
  7  8  1  0
  7  9  2  0
  9 10  1  0
 10 11  1  0
 11 12  1  0
 10 13  1  0
 13 14  1  0
  4 15  1  0
 15 16  2  0
 15 17  1  0
 17 18  2  0
 18 19  1  0
 19 20  1  0
 20 21  2  0
 20 22  1  0
 22 23  1  0
 23 24  1  0
 24 25  1  0
 25 26  1  0
 25 27  1  0
 27 28  1  0
 19 29  2  0
 29 30  1  0
 13  6  2  0
 30 17  1  0
 28 22  1  0
  1 31  1  0
  1 32  1  0
  2 33  1  0
  3 34  1  0
  3 35  1  0
  5 36  1  0
  5 37  1  0
  8 38  1  0
  8 39  1  0
  8 40  1  0
 11 41  1  0
 11 42  1  0
 12 43  1  0
 12 44  1  0
 12 45  1  0
 14 46  1  0
 14 47  1  0
 14 48  1  0
 18 49  1  0
 23 50  1  0
 23 51  1  0
 24 52  1  0
 24 53  1  0
 25 54  1  0
 26 55  1  0
 26 56  1  0
 26 57  1  0
 27 58  1  0
 27 59  1  0
 28 60  1  0
 28 61  1  0
 30 62  1  0
M  END
>  <smiles>  (8) 
C=CCN(Cc1c(C)nn(CC)c1C)C(=O)c1cc(C(=O)N2CCC(C)CC2)n[nH]1

>  <score_type>  (8) 
oracle

>  <origin>  (8) 
adg

>  <m_score__min__energy>  (8) 
-9.3300000000000001

>  <m_primary>  (8) 
energy

$$$$
8:0
     RDKit          3D

 45 47  0  0  0  0  0  0  0  0999 V2000
   56.2850   25.9260   46.2380 C   0  0  0  0  0  0  0  0  0  0  0  0
   56.7100   27.1780   46.0340 C   0  0  0  0  0  0  0  0  0  0  0  0
   55.9670   27.9860   45.2410 N   0  0  0  0  0  0  0  0  0  0  0  0
   56.3040   29.2700   44.9700 C   0  0  0  0  0  0  0  0  0  0  0  0
   55.3770   30.0770   44.0950 C   0  0  0  0  0  0  0  0  0  0  0  0
   57.4950   29.8110   45.5070 C   0  0  0  0  0  0  0  0  0  0  0  0
   57.8150   31.2350   45.2230 C   0  0  0  0  0  0  0  0  0  0  0  0
   58.1700   31.6290   43.9220 C   0  0  0  0  0  0  0  0  0  0  0  0
   58.4760   32.9680   43.6530 C   0  0  0  0  0  0  0  0  0  0  0  0
   58.4370   33.9170   44.6820 C   0  0  0  0  0  0  0  0  0  0  0  0
   58.0850   33.5300   45.9810 C   0  0  0  0  0  0  0  0  0  0  0  0
   57.7710   32.1940   46.2520 C   0  0  0  0  0  0  0  0  0  0  0  0
   58.3240   29.0030   46.3490 C   0  0  0  0  0  0  0  0  0  0  0  0
   59.4880   29.5210   46.8440 C   0  0  0  0  0  0  0  0  0  0  0  0
   59.7780   29.8760   48.2850 C   0  0  2  0  0  0  0  0  0  0  0  0
   58.7480   29.4140   49.0930 F   0  0  0  0  0  0  0  0  0  0  0  0
   59.8990   31.3700   48.4430 C   0  0  0  0  0  0  0  0  0  0  0  0
   58.9030   32.0260   48.8610 O   0  0  0  0  0  0  0  0  0  0  0  0
   61.1010   32.0660   48.0550 N   0  0  0  0  0  0  0  0  0  0  0  0
   62.3100   31.4150   47.5890 C   0  0  0  0  0  0  0  0  0  0  0  0
   63.2250   32.5380   47.0990 C   0  0  0  0  0  0  0  0  0  0  0  0
   62.6540   33.8280   47.6810 C   0  0  0  0  0  0  0  0  0  0  0  0
   61.2110   33.5160   48.0590 C   0  0  0  0  0  0  0  0  0  0  0  0
   57.8950   27.6710   46.6230 C   0  0  0  0  0  0  0  0  0  0  0  0
   58.5540   26.9140   47.3890 O   0  0  0  0  0  0  0  0  0  0  0  0
   56.8663   25.2451   46.8771 H   0  0  0  0  0  0  0  0  0  0  0  0
   55.3542   25.5774   45.7666 H   0  0  0  0  0  0  0  0  0  0  0  0
   54.6981   30.6681   44.7272 H   0  0  0  0  0  0  0  0  0  0  0  0
   55.9683   30.7531   43.4599 H   0  0  0  0  0  0  0  0  0  0  0  0
   54.7888   29.3982   43.4599 H   0  0  0  0  0  0  0  0  0  0  0  0
   58.2075   30.8840   43.1136 H   0  0  0  0  0  0  0  0  0  0  0  0
   58.7474   33.2752   42.6322 H   0  0  0  0  0  0  0  0  0  0  0  0
   58.6832   34.9679   44.4697 H   0  0  0  0  0  0  0  0  0  0  0  0
   58.0554   34.2766   46.7883 H   0  0  0  0  0  0  0  0  0  0  0  0
   57.4891   31.8924   47.2716 H   0  0  0  0  0  0  0  0  0  0  0  0
   60.2968   29.6978   46.1198 H   0  0  0  0  0  0  0  0  0  0  0  0
   60.7270   29.4049   48.5809 H   0  0  0  0  0  0  0  0  0  0  0  0
   62.7885   30.8620   48.4107 H   0  0  0  0  0  0  0  0  0  0  0  0
   62.0970   30.6887   46.7908 H   0  0  0  0  0  0  0  0  0  0  0  0
   64.2524   32.3783   47.4581 H   0  0  0  0  0  0  0  0  0  0  0  0
   63.2661   32.5745   46.0004 H   0  0  0  0  0  0  0  0  0  0  0  0
   63.2251   34.1314   48.5708 H   0  0  0  0  0  0  0  0  0  0  0  0
   62.7112   34.6557   46.9587 H   0  0  0  0  0  0  0  0  0  0  0  0
   60.9830   33.9140   49.0588 H   0  0  0  0  0  0  0  0  0  0  0  0
   60.5014   33.9762   47.3556 H   0  0  0  0  0  0  0  0  0  0  0  0
  1  2  2  0
  2  3  1  0
  3  4  1  0
  4  5  1  0
  4  6  2  0
  6  7  1  0
  7  8  2  0
  8  9  1  0
  9 10  2  0
 10 11  1  0
 11 12  2  0
  6 13  1  0
 13 14  2  3
 14 15  1  0
 15 16  1  0
 15 17  1  0
 17 18  2  0
 17 19  1  0
 19 20  1  0
 20 21  1  0
 21 22  1  0
 22 23  1  0
 13 24  1  0
 24 25  2  0
 24  2  1  0
 12  7  1  0
 23 19  1  0
  1 26  1  0
  1 27  1  0
  5 28  1  0
  5 29  1  0
  5 30  1  0
  8 31  1  0
  9 32  1  0
 10 33  1  0
 11 34  1  0
 12 35  1  0
 14 36  1  0
 15 37  1  1
 20 38  1  0
 20 39  1  0
 21 40  1  0
 21 41  1  0
 22 42  1  0
 22 43  1  0
 23 44  1  0
 23 45  1  0
M  CHG  1   3  -1
M  END
>  <UniqueID>  (9) 
8

>  <SMILES>  (9) 
C=c1[n-]c(C)c(-c2ccccc2)c(=C[C@H](F)C(=O)N2CCCC2)c1=O

>  <Energy>  (9) 
63.934498337959035

>  <Genealogy>  (9) 
C=c1[n-]c(C)c(-c2ccccc2)c(=CC(F)C(=O)N2CCCC2)c1=O (protonated)
C=c1[n-]c(C)c(-c2ccccc2)c(=C[C@H](F)C(=O)N2CCCC2)c1=O (chirality)
C=c1[n-]c(C)c(-c2ccccc2)c(=C[C@H](F)C(=O)N2CCCC2)c1=O (3D coordinates assigned)
C=c1[n-]c(C)c(-c2ccccc2)c(=C[C@H](F)C(=O)N2CCCC2)c1=O (nonaromatic ring conformer: 63.934498337959035 kcal/mol)

>  <smiles>  (9) 
C=c1[nH]c(C)c(-c2ccccc2)c(=CC(F)C(=O)N2CCCC2)c1=O

>  <score_type>  (9) 
oracle

>  <origin>  (9) 
adg

>  <m_score__min__energy>  (9) 
-9.75

>  <m_primary>  (9) 
energy

$$$$
9:0
     RDKit          3D

 34 35  0  0  0  0  0  0  0  0999 V2000
   57.6940   29.9460   50.7140 O   0  0  0  0  0  0  0  0  0  0  0  0
   57.8120   31.1850   50.9200 C   0  0  0  0  0  0  0  0  0  0  0  0
   56.8820   31.8720   51.8730 C   0  0  0  0  0  0  0  0  0  0  0  0
   55.7530   30.9360   52.3080 C   0  0  0  0  0  0  0  0  0  0  0  0
   54.4850   31.6560   52.3380 N   0  0  0  0  0  0  0  0  0  0  0  0
   53.2150   31.0010   52.3580 C   0  0  0  0  0  0  0  0  0  0  0  0
   52.8340   30.3880   53.3910 O   0  0  0  0  0  0  0  0  0  0  0  0
   52.3610   31.0370   51.1600 C   0  0  0  0  0  0  0  0  0  0  0  0
   52.3650   30.1210   50.1290 C   0  0  0  0  0  0  0  0  0  0  0  0
   51.3840   30.5490   49.2550 C   0  0  0  0  0  0  0  0  0  0  0  0
   51.0480   29.9120   48.0630 O   0  0  0  0  0  0  0  0  0  0  0  0
   50.7740   31.6730   49.6830 N   0  0  0  0  0  0  0  0  0  0  0  0
   51.3800   31.9600   50.8510 C   0  0  0  0  0  0  0  0  0  0  0  0
   51.0390   33.0570   51.6320 O   0  0  0  0  0  0  0  0  0  0  0  0
   58.8420   31.9360   50.2680 N   0  0  0  0  0  0  0  0  0  0  0  0
   58.8120   32.3500   48.8950 C   0  0  0  0  0  0  0  0  0  0  0  0
   59.2120   33.6500   48.5720 C   0  0  0  0  0  0  0  0  0  0  0  0
   59.2150   34.0780   47.2430 C   0  0  0  0  0  0  0  0  0  0  0  0
   58.8450   33.2000   46.2220 C   0  0  0  0  0  0  0  0  0  0  0  0
   58.4740   31.8760   46.5210 C   0  0  0  0  0  0  0  0  0  0  0  0
   58.1160   30.9280   45.4390 C   0  0  0  0  0  0  0  0  0  0  0  0
   58.9790   30.1420   44.9640 O   0  0  0  0  0  0  0  0  0  0  0  0
   56.8200   30.8910   44.9350 O   0  0  0  0  0  0  0  0  0  0  0  0
   58.4610   31.4570   47.8650 C   0  0  0  0  0  0  0  0  0  0  0  0
   57.4477   32.1903   52.7611 H   0  0  0  0  0  0  0  0  0  0  0  0
   56.4399   32.7420   51.3654 H   0  0  0  0  0  0  0  0  0  0  0  0
   55.6795   30.1003   51.5966 H   0  0  0  0  0  0  0  0  0  0  0  0
   55.9723   30.5533   53.3157 H   0  0  0  0  0  0  0  0  0  0  0  0
   53.0118   29.2374   50.0246 H   0  0  0  0  0  0  0  0  0  0  0  0
   50.0850   29.8530   47.7600 H   0  0  0  0  0  0  0  0  0  0  0  0
   59.5261   34.3396   49.3694 H   0  0  0  0  0  0  0  0  0  0  0  0
   59.5096   35.1095   46.9995 H   0  0  0  0  0  0  0  0  0  0  0  0
   58.8436   33.5455   45.1777 H   0  0  0  0  0  0  0  0  0  0  0  0
   58.1744   30.4241   48.1121 H   0  0  0  0  0  0  0  0  0  0  0  0
  1  2  2  0
  2  3  1  0
  3  4  1  0
  4  5  1  0
  5  6  1  0
  6  7  2  0
  6  8  1  0
  8  9  1  0
  9 10  2  0
 10 11  1  0
 10 12  1  0
 12 13  1  0
 13 14  1  0
  2 15  1  0
 15 16  1  0
 16 17  2  0
 17 18  1  0
 18 19  2  0
 19 20  1  0
 20 21  1  0
 21 22  2  0
 21 23  1  0
 20 24  2  0
 13  8  2  0
 24 16  1  0
  3 25  1  0
  3 26  1  0
  4 27  1  0
  4 28  1  0
  9 29  1  0
 11 30  1  0
 17 31  1  0
 18 32  1  0
 19 33  1  0
 24 34  1  0
M  CHG  5   5  -1  12  -1  14  -1  15  -1  23  -1
M  END
>  <UniqueID>  (10) 
9

>  <SMILES>  (10) 
O=C(CC[N-]C(=O)c1cc(O)[n-]c1[O-])[N-]c1cccc(C(=O)[O-])c1

>  <Energy>  (10) 
57.851414090279235

>  <Genealogy>  (10) 
O=C(CC[N-]C(=O)c1cc(O)[n-]c1[O-])[N-]c1cccc(C(=O)[O-])c1 (protonated)
O=C(CC[N-]C(=O)c1cc(O)[n-]c1[O-])[N-]c1cccc(C(=O)[O-])c1 (3D coordinates assigned)
O=C(CC[N-]C(=O)c1cc(O)[n-]c1[O-])[N-]c1cccc(C(=O)[O-])c1 (optimized conformer: 57.851414090279235 kcal/mol)

>  <smiles>  (10) 
O=C(CCNC(=O)c1cc(O)[nH]c1O)Nc1cccc(C(=O)O)c1

>  <score_type>  (10) 
oracle

>  <origin>  (10) 
adg

>  <m_score__min__energy>  (10) 
-16.710000000000001

>  <m_primary>  (10) 
energy

$$$$
10:0
     RDKit          3D

 51 53  0  0  0  0  0  0  0  0999 V2000
   56.3870   29.1320   42.4830 N   0  0  0  0  0  0  0  0  0  0  0  0
   56.5170   29.3780   44.1890 S   0  0  0  0  0  0  0  0  0  0  0  0
   57.3120   28.2600   44.8030 O   0  0  0  0  0  0  0  0  0  0  0  0
   55.1440   29.3860   44.7990 O   0  0  0  0  0  0  0  0  0  0  0  0
   57.3190   30.9140   44.4970 C   0  0  0  0  0  0  0  0  0  0  0  0
   57.5300   31.8260   43.4530 C   0  0  0  0  0  0  0  0  0  0  0  0
   58.1830   33.0360   43.6970 C   0  0  0  0  0  0  0  0  0  0  0  0
   58.6330   33.3520   44.9900 C   0  0  0  0  0  0  0  0  0  0  0  0
   59.3760   34.6370   45.2460 C   0  0  0  0  0  0  0  0  0  0  0  0
   59.2520   35.0680   46.7090 C   0  0  0  0  0  0  0  0  0  0  0  0
   60.4890   34.7720   47.4230 N   0  0  0  0  0  0  0  0  0  0  0  0
   60.6140   34.2730   48.7630 C   0  0  0  0  0  0  0  0  0  0  0  0
   61.6960   34.5020   49.3640 O   0  0  0  0  0  0  0  0  0  0  0  0
   59.6060   33.3370   49.4160 C   0  0  2  0  0  0  0  0  0  0  0  0
   59.8430   32.9700   50.8820 C   0  0  0  0  0  0  0  0  0  0  0  0
   59.1450   31.6290   51.0550 C   0  0  0  0  0  0  0  0  0  0  0  0
   58.6310   31.2650   49.6660 C   0  0  0  0  0  0  0  0  0  0  0  0
   59.3870   32.0650   48.6920 N   0  0  0  0  0  0  0  0  0  0  0  0
   60.8750   31.2130   48.2680 S   0  0  0  0  0  0  0  0  0  0  0  0
   61.6800   30.8930   49.4970 O   0  0  0  0  0  0  0  0  0  0  0  0
   61.7220   32.0500   47.3520 O   0  0  0  0  0  0  0  0  0  0  0  0
   60.5140   29.7210   47.3970 C   0  0  0  0  0  0  0  0  0  0  0  0
   60.6850   29.6720   46.0070 C   0  0  0  0  0  0  0  0  0  0  0  0
   60.3900   28.4990   45.3040 C   0  0  0  0  0  0  0  0  0  0  0  0
   59.9190   27.3730   45.9850 C   0  0  0  0  0  0  0  0  0  0  0  0
   59.7420   27.4180   47.3710 C   0  0  0  0  0  0  0  0  0  0  0  0
   60.0360   28.5890   48.0770 C   0  0  0  0  0  0  0  0  0  0  0  0
   58.4350   32.4290   46.0290 C   0  0  0  0  0  0  0  0  0  0  0  0
   57.7800   31.2190   45.7850 C   0  0  0  0  0  0  0  0  0  0  0  0
   55.4300   29.4410   42.2010 H   0  0  0  0  0  0  0  0  0  0  0  0
   56.4310   28.1020   42.3190 H   0  0  0  0  0  0  0  0  0  0  0  0
   57.1798   31.5874   42.4379 H   0  0  0  0  0  0  0  0  0  0  0  0
   58.3460   33.7456   42.8724 H   0  0  0  0  0  0  0  0  0  0  0  0
   60.4391   34.4907   45.0043 H   0  0  0  0  0  0  0  0  0  0  0  0
   58.9382   35.4235   44.6137 H   0  0  0  0  0  0  0  0  0  0  0  0
   59.0548   36.1492   46.7547 H   0  0  0  0  0  0  0  0  0  0  0  0
   58.4235   34.5174   47.1786 H   0  0  0  0  0  0  0  0  0  0  0  0
   58.7163   33.9817   49.3624 H   0  0  0  0  0  0  0  0  0  0  0  0
   60.9190   32.8784   51.0911 H   0  0  0  0  0  0  0  0  0  0  0  0
   59.4583   33.7347   51.5728 H   0  0  0  0  0  0  0  0  0  0  0  0
   59.8535   30.8688   51.4158 H   0  0  0  0  0  0  0  0  0  0  0  0
   58.3321   31.6804   51.7943 H   0  0  0  0  0  0  0  0  0  0  0  0
   58.7896   30.1933   49.4757 H   0  0  0  0  0  0  0  0  0  0  0  0
   57.5537   31.4720   49.5848 H   0  0  0  0  0  0  0  0  0  0  0  0
   61.0519   30.5576   45.4676 H   0  0  0  0  0  0  0  0  0  0  0  0
   60.5290   28.4628   44.2134 H   0  0  0  0  0  0  0  0  0  0  0  0
   59.6876   26.4516   45.4305 H   0  0  0  0  0  0  0  0  0  0  0  0
   59.3712   26.5317   47.9067 H   0  0  0  0  0  0  0  0  0  0  0  0
   59.8925   28.6234   49.1671 H   0  0  0  0  0  0  0  0  0  0  0  0
   58.7977   32.6597   47.0415 H   0  0  0  0  0  0  0  0  0  0  0  0
   57.6257   30.5037   46.6063 H   0  0  0  0  0  0  0  0  0  0  0  0
  1  2  1  0
  2  3  2  0
  2  4  2  0
  2  5  1  0
  5  6  2  0
  6  7  1  0
  7  8  2  0
  8  9  1  0
  9 10  1  0
 10 11  1  0
 11 12  1  0
 12 13  2  0
 12 14  1  0
 14 15  1  0
 15 16  1  0
 16 17  1  0
 17 18  1  0
 18 19  1  0
 19 20  2  0
 19 21  2  0
 19 22  1  0
 22 23  2  0
 23 24  1  0
 24 25  2  0
 25 26  1  0
 26 27  2  0
  8 28  1  0
 28 29  2  0
 29  5  1  0
 18 14  1  0
 27 22  1  0
  1 30  1  0
  1 31  1  0
  6 32  1  0
  7 33  1  0
  9 34  1  0
  9 35  1  0
 10 36  1  0
 10 37  1  0
 14 38  1  1
 15 39  1  0
 15 40  1  0
 16 41  1  0
 16 42  1  0
 17 43  1  0
 17 44  1  0
 23 45  1  0
 24 46  1  0
 25 47  1  0
 26 48  1  0
 27 49  1  0
 28 50  1  0
 29 51  1  0
M  CHG  1  11  -1
M  END
>  <UniqueID>  (11) 
10

>  <SMILES>  (11) 
NS(=O)(=O)c1ccc(CC[N-]C(=O)[C@@H]2CCCN2S(=O)(=O)c2ccccc2)cc1

>  <Energy>  (11) 
60.98141469675788

>  <Genealogy>  (11) 
NS(=O)(=O)c1ccc(CC[N-]C(=O)C2CCCN2S(=O)(=O)c2ccccc2)cc1 (protonated)
NS(=O)(=O)c1ccc(CC[N-]C(=O)[C@@H]2CCCN2S(=O)(=O)c2ccccc2)cc1 (chirality)
NS(=O)(=O)c1ccc(CC[N-]C(=O)[C@@H]2CCCN2S(=O)(=O)c2ccccc2)cc1 (3D coordinates assigned)
NS(=O)(=O)c1ccc(CC[N-]C(=O)[C@@H]2CCCN2S(=O)(=O)c2ccccc2)cc1 (nonaromatic ring conformer: 60.98141469675788 kcal/mol)

>  <smiles>  (11) 
NS(=O)(=O)c1ccc(CCNC(=O)C2CCCN2S(=O)(=O)c2ccccc2)cc1

>  <score_type>  (11) 
oracle

>  <origin>  (11) 
adg

>  <m_score__min__energy>  (11) 
-10.58

>  <m_primary>  (11) 
energy

$$$$
11:0
     RDKit          3D

 60 63  0  0  0  0  0  0  0  0999 V2000
   54.1690   23.7210   45.9640 C   0  0  0  0  0  0  0  0  0  0  0  0
   55.4190   24.9870   45.8980 S   0  0  0  0  0  0  0  0  0  0  0  0
   56.1870   24.8410   44.6150 O   0  0  0  0  0  0  0  0  0  0  0  0
   54.7650   26.3400   45.9250 O   0  0  0  0  0  0  0  0  0  0  0  0
   56.5200   24.8200   47.2330 N   0  0  0  0  0  0  0  0  0  0  0  0
   57.8960   24.9970   46.7760 C   0  0  0  0  0  0  0  0  0  0  0  0
   58.3130   26.4190   46.9850 C   0  0  0  0  0  0  0  0  0  0  0  0
   59.0750   26.8060   48.0380 N   0  0  0  0  0  0  0  0  0  0  0  0
   59.2590   28.1270   47.8320 C   0  0  0  0  0  0  0  0  0  0  0  0
   59.9900   28.9800   48.6540 C   0  0  0  0  0  0  0  0  0  0  0  0
   60.0740   30.3320   48.2850 C   0  0  0  0  0  0  0  0  0  0  0  0
   59.4170   30.8010   47.1230 C   0  0  0  0  0  0  0  0  0  0  0  0
   59.4950   32.1700   46.7010 N   0  0  0  0  0  0  0  0  0  0  0  0
   59.9710   33.2740   47.4820 C   0  0  0  0  0  0  0  0  0  0  0  0
   59.2170   34.2600   47.7070 O   0  0  0  0  0  0  0  0  0  0  0  0
   61.3680   33.2860   47.9750 C   0  0  0  0  0  0  0  0  0  0  0  0
   61.6560   33.6360   49.3060 C   0  0  0  0  0  0  0  0  0  0  0  0
   62.9740   33.6430   49.7680 C   0  0  0  0  0  0  0  0  0  0  0  0
   64.0310   33.3010   48.9170 C   0  0  0  0  0  0  0  0  0  0  0  0
   65.3340   33.3200   49.4400 O   0  0  0  0  0  0  0  0  0  0  0  0
   65.8250   32.4510   50.4590 C   0  0  0  0  0  0  0  0  0  0  0  0
   65.0480   31.3090   50.4850 F   0  0  0  0  0  0  0  0  0  0  0  0
   65.7480   33.0700   51.6920 F   0  0  0  0  0  0  0  0  0  0  0  0
   67.1350   32.0940   50.1920 F   0  0  0  0  0  0  0  0  0  0  0  0
   63.7500   32.9560   47.5830 C   0  0  0  0  0  0  0  0  0  0  0  0
   62.4310   32.9500   47.1180 C   0  0  0  0  0  0  0  0  0  0  0  0
   58.7130   29.8840   46.3230 C   0  0  0  0  0  0  0  0  0  0  0  0
   58.6640   28.5840   46.7170 N   0  0  0  0  0  0  0  0  0  0  0  0
   58.0480   27.5220   46.1730 C   0  0  0  0  0  0  0  0  0  0  0  0
   57.2860   27.5700   44.9540 N   0  0  0  0  0  0  0  0  0  0  0  0
   57.6670   28.4180   43.8230 C   0  0  0  0  0  0  0  0  0  0  0  0
   56.5540   29.4100   43.4590 C   0  0  0  0  0  0  0  0  0  0  0  0
   56.9910   30.8370   43.6780 C   0  0  0  0  0  0  0  0  0  0  0  0
   56.6470   31.5160   44.8600 C   0  0  0  0  0  0  0  0  0  0  0  0
   57.0750   32.8310   45.0670 C   0  0  0  0  0  0  0  0  0  0  0  0
   57.8500   33.4760   44.0990 C   0  0  0  0  0  0  0  0  0  0  0  0
   58.1980   32.8070   42.9220 C   0  0  0  0  0  0  0  0  0  0  0  0
   57.7730   31.4920   42.7120 C   0  0  0  0  0  0  0  0  0  0  0  0
   53.9386   23.4876   47.0140 H   0  0  0  0  0  0  0  0  0  0  0  0
   53.2589   24.0776   45.4594 H   0  0  0  0  0  0  0  0  0  0  0  0
   54.5372   22.8155   45.4594 H   0  0  0  0  0  0  0  0  0  0  0  0
   58.5604   24.3324   47.3477 H   0  0  0  0  0  0  0  0  0  0  0  0
   57.9613   24.7496   45.7062 H   0  0  0  0  0  0  0  0  0  0  0  0
   60.4854   28.6071   49.5626 H   0  0  0  0  0  0  0  0  0  0  0  0
   60.6548   31.0318   48.9038 H   0  0  0  0  0  0  0  0  0  0  0  0
   60.8369   33.9064   49.9887 H   0  0  0  0  0  0  0  0  0  0  0  0
   63.1834   33.9202   50.8117 H   0  0  0  0  0  0  0  0  0  0  0  0
   64.5716   32.6895   46.9019 H   0  0  0  0  0  0  0  0  0  0  0  0
   62.2232   32.6799   46.0721 H   0  0  0  0  0  0  0  0  0  0  0  0
   58.2132   30.2111   45.3993 H   0  0  0  0  0  0  0  0  0  0  0  0
   56.5670   26.8280   44.8080 H   0  0  0  0  0  0  0  0  0  0  0  0
   58.5738   28.9810   44.0888 H   0  0  0  0  0  0  0  0  0  0  0  0
   57.8474   27.7696   42.9529 H   0  0  0  0  0  0  0  0  0  0  0  0
   56.2884   29.2762   42.4000 H   0  0  0  0  0  0  0  0  0  0  0  0
   55.6887   29.2109   44.1083 H   0  0  0  0  0  0  0  0  0  0  0  0
   56.0389   31.0109   45.6249 H   0  0  0  0  0  0  0  0  0  0  0  0
   56.8015   33.3585   45.9927 H   0  0  0  0  0  0  0  0  0  0  0  0
   58.1862   34.5104   44.2635 H   0  0  0  0  0  0  0  0  0  0  0  0
   58.8069   33.3159   42.1603 H   0  0  0  0  0  0  0  0  0  0  0  0
   58.0521   30.9677   41.7862 H   0  0  0  0  0  0  0  0  0  0  0  0
  1  2  1  0
  2  3  2  0
  2  4  2  0
  2  5  1  0
  5  6  1  0
  6  7  1  0
  7  8  1  0
  8  9  2  0
  9 10  1  0
 10 11  2  0
 11 12  1  0
 12 13  1  0
 13 14  1  0
 14 15  2  0
 14 16  1  0
 16 17  2  0
 17 18  1  0
 18 19  2  0
 19 20  1  0
 20 21  1  0
 21 22  1  0
 21 23  1  0
 21 24  1  0
 19 25  1  0
 25 26  2  0
 12 27  2  0
 27 28  1  0
 28 29  1  0
 29 30  1  0
 30 31  1  0
 31 32  1  0
 32 33  1  0
 33 34  2  0
 34 35  1  0
 35 36  2  0
 36 37  1  0
 37 38  2  0
 29  7  2  0
 38 33  1  0
 28  9  1  0
 26 16  1  0
  1 39  1  0
  1 40  1  0
  1 41  1  0
  6 42  1  0
  6 43  1  0
 10 44  1  0
 11 45  1  0
 17 46  1  0
 18 47  1  0
 25 48  1  0
 26 49  1  0
 27 50  1  0
 30 51  1  0
 31 52  1  0
 31 53  1  0
 32 54  1  0
 32 55  1  0
 34 56  1  0
 35 57  1  0
 36 58  1  0
 37 59  1  0
 38 60  1  0
M  CHG  2   5  -1  13  -1
M  END
>  <UniqueID>  (12) 
11

>  <SMILES>  (12) 
CS(=O)(=O)[N-]Cc1nc2ccc([N-]C(=O)c3ccc(OC(F)(F)F)cc3)cn2c1NCCc1ccccc1

>  <Energy>  (12) 
95.85249369076094

>  <Genealogy>  (12) 
CS(=O)(=O)[N-]Cc1nc2ccc([N-]C(=O)c3ccc(OC(F)(F)F)cc3)cn2c1NCCc1ccccc1 (protonated)
CS(=O)(=O)[N-]Cc1nc2ccc([N-]C(=O)c3ccc(OC(F)(F)F)cc3)cn2c1NCCc1ccccc1 (3D coordinates assigned)
CS(=O)(=O)[N-]Cc1nc2ccc([N-]C(=O)c3ccc(OC(F)(F)F)cc3)cn2c1NCCc1ccccc1 (optimized conformer: 95.85249369076094 kcal/mol)

>  <smiles>  (12) 
CS(=O)(=O)NCc1nc2ccc(NC(=O)c3ccc(OC(F)(F)F)cc3)cn2c1NCCc1ccccc1

>  <score_type>  (12) 
oracle

>  <origin>  (12) 
adg

>  <m_score__min__energy>  (12) 
-12.140000000000001

>  <m_primary>  (12) 
energy

$$$$
12:0
     RDKit          3D

 69 72  0  0  0  0  0  0  0  0999 V2000
   50.6710   32.1670   52.7590 C   0  0  0  0  0  0  0  0  0  0  0  0
   51.0250   32.3500   51.4050 O   0  0  0  0  0  0  0  0  0  0  0  0
   52.3820   32.0020   51.1940 C   0  0  0  0  0  0  0  0  0  0  0  0
   52.6610   30.5490   51.6070 C   0  0  0  0  0  0  0  0  0  0  0  0
   53.6520   30.4480   52.7710 C   0  0  0  0  0  0  0  0  0  0  0  0
   54.9430   29.9630   52.2910 N   0  0  0  0  0  0  0  0  0  0  0  0
   56.2130   30.3750   52.8070 C   0  0  0  0  0  0  0  0  0  0  0  0
   56.4050   30.3240   54.0510 O   0  0  0  0  0  0  0  0  0  0  0  0
   57.3180   30.7990   51.9270 C   0  0  0  0  0  0  0  0  0  0  0  0
   57.1320   31.8740   51.0470 C   0  0  0  0  0  0  0  0  0  0  0  0
   58.1680   32.2810   50.2020 C   0  0  0  0  0  0  0  0  0  0  0  0
   59.3880   31.5930   50.1950 C   0  0  0  0  0  0  0  0  0  0  0  0
   60.4720   32.0050   49.2760 C   0  0  0  0  0  0  0  0  0  0  0  0
   60.6540   33.3780   49.0390 C   0  0  0  0  0  0  0  0  0  0  0  0
   61.6950   33.8270   48.2250 C   0  0  0  0  0  0  0  0  0  0  0  0
   62.5670   32.9130   47.6390 C   0  0  0  0  0  0  0  0  0  0  0  0
   62.3910   31.5450   47.8470 C   0  0  0  0  0  0  0  0  0  0  0  0
   61.3360   31.0680   48.6450 C   0  0  0  0  0  0  0  0  0  0  0  0
   61.1530   29.5680   48.7620 C   0  0  0  0  0  0  0  0  0  0  0  0
   59.9370   29.1110   48.0730 N   0  0  0  0  0  0  0  0  0  0  0  0
   59.4240   27.7500   48.2890 C   0  0  0  0  0  0  0  0  0  0  0  0
   58.6610   27.2550   47.0880 C   0  0  0  0  0  0  0  0  0  0  0  0
   59.3470   26.8300   45.9390 C   0  0  0  0  0  0  0  0  0  0  0  0
   58.6430   26.3380   44.8360 C   0  0  0  0  0  0  0  0  0  0  0  0
   57.2460   26.2920   44.8610 C   0  0  0  0  0  0  0  0  0  0  0  0
   56.5520   26.7600   45.9810 C   0  0  0  0  0  0  0  0  0  0  0  0
   55.1630   26.7250   46.0000 O   0  0  0  0  0  0  0  0  0  0  0  0
   57.2540   27.2550   47.0850 C   0  0  0  0  0  0  0  0  0  0  0  0
   59.5450   29.7910   46.8740 C   0  0  0  0  0  0  0  0  0  0  0  0
   60.1360   29.5310   45.7900 O   0  0  0  0  0  0  0  0  0  0  0  0
   58.5150   30.8450   46.9300 C   0  0  0  0  0  0  0  0  0  0  0  0
   57.8750   31.3540   45.8690 C   0  0  0  0  0  0  0  0  0  0  0  0
   57.1280   30.5730   44.8650 C   0  0  0  0  0  0  0  0  0  0  0  0
   57.7060   29.8900   43.8150 C   0  0  0  0  0  0  0  0  0  0  0  0
   56.6580   29.3580   43.0930 C   0  0  0  0  0  0  0  0  0  0  0  0
   55.5080   29.7420   43.7480 C   0  0  0  0  0  0  0  0  0  0  0  0
   55.8200   30.4660   44.7980 O   0  0  0  0  0  0  0  0  0  0  0  0
   59.5820   30.5300   51.0930 C   0  0  0  0  0  0  0  0  0  0  0  0
   58.5500   30.1290   51.9450 C   0  0  0  0  0  0  0  0  0  0  0  0
   51.4628   32.5763   53.4036 H   0  0  0  0  0  0  0  0  0  0  0  0
   49.7247   32.6889   52.9643 H   0  0  0  0  0  0  0  0  0  0  0  0
   50.5496   31.0932   52.9643 H   0  0  0  0  0  0  0  0  0  0  0  0
   52.6202   32.1223   50.1269 H   0  0  0  0  0  0  0  0  0  0  0  0
   53.0080   32.6628   51.8117 H   0  0  0  0  0  0  0  0  0  0  0  0
   51.7129   30.0804   51.9096 H   0  0  0  0  0  0  0  0  0  0  0  0
   53.1086   30.0367   50.7426 H   0  0  0  0  0  0  0  0  0  0  0  0
   53.7826   31.4415   53.2248 H   0  0  0  0  0  0  0  0  0  0  0  0
   53.2584   29.7436   53.5185 H   0  0  0  0  0  0  0  0  0  0  0  0
   56.1661   32.3997   51.0214 H   0  0  0  0  0  0  0  0  0  0  0  0
   58.0245   33.1466   49.5386 H   0  0  0  0  0  0  0  0  0  0  0  0
   59.9696   34.1058   49.4993 H   0  0  0  0  0  0  0  0  0  0  0  0
   61.8268   34.9043   48.0461 H   0  0  0  0  0  0  0  0  0  0  0  0
   63.3962   33.2705   47.0109 H   0  0  0  0  0  0  0  0  0  0  0  0
   63.0859   30.8307   47.3812 H   0  0  0  0  0  0  0  0  0  0  0  0
   62.0247   29.0670   48.3157 H   0  0  0  0  0  0  0  0  0  0  0  0
   61.0563   29.3175   49.8287 H   0  0  0  0  0  0  0  0  0  0  0  0
   60.2707   27.0740   48.4790 H   0  0  0  0  0  0  0  0  0  0  0  0
   58.7403   27.7696   49.1505 H   0  0  0  0  0  0  0  0  0  0  0  0
   60.4452   26.8845   45.9065 H   0  0  0  0  0  0  0  0  0  0  0  0
   59.1887   25.9868   43.9478 H   0  0  0  0  0  0  0  0  0  0  0  0
   56.6931   25.8879   44.0002 H   0  0  0  0  0  0  0  0  0  0  0  0
   56.7041   27.6456   47.9539 H   0  0  0  0  0  0  0  0  0  0  0  0
   58.2517   31.2444   47.9205 H   0  0  0  0  0  0  0  0  0  0  0  0
   57.9094   32.4453   45.7353 H   0  0  0  0  0  0  0  0  0  0  0  0
   58.7799   29.7903   43.5985 H   0  0  0  0  0  0  0  0  0  0  0  0
   56.7264   28.7500   42.1789 H   0  0  0  0  0  0  0  0  0  0  0  0
   54.4850   29.4818   43.4385 H   0  0  0  0  0  0  0  0  0  0  0  0
   60.5513   30.0109   51.1254 H   0  0  0  0  0  0  0  0  0  0  0  0
   58.7043   29.2844   52.6327 H   0  0  0  0  0  0  0  0  0  0  0  0
  1  2  1  0
  2  3  1  0
  3  4  1  0
  4  5  1  0
  5  6  1  0
  6  7  1  0
  7  8  2  0
  7  9  1  0
  9 10  2  0
 10 11  1  0
 11 12  2  0
 12 13  1  0
 13 14  2  0
 14 15  1  0
 15 16  2  0
 16 17  1  0
 17 18  2  0
 18 19  1  0
 19 20  1  0
 20 21  1  0
 21 22  1  0
 22 23  2  0
 23 24  1  0
 24 25  2  0
 25 26  1  0
 26 27  1  0
 26 28  2  0
 20 29  1  0
 29 30  2  0
 29 31  1  0
 31 32  2  3
 32 33  1  0
 33 34  2  0
 34 35  1  0
 35 36  2  0
 36 37  1  0
 12 38  1  0
 38 39  2  0
 39  9  1  0
 18 13  1  0
 28 22  1  0
 37 33  1  0
  1 40  1  0
  1 41  1  0
  1 42  1  0
  3 43  1  0
  3 44  1  0
  4 45  1  0
  4 46  1  0
  5 47  1  0
  5 48  1  0
 10 49  1  0
 11 50  1  0
 14 51  1  0
 15 52  1  0
 16 53  1  0
 17 54  1  0
 19 55  1  0
 19 56  1  0
 21 57  1  0
 21 58  1  0
 23 59  1  0
 24 60  1  0
 25 61  1  0
 28 62  1  0
 31 63  1  0
 32 64  1  0
 34 65  1  0
 35 66  1  0
 36 67  1  0
 38 68  1  0
 39 69  1  0
M  CHG  2   6  -1  27  -1
M  END
>  <UniqueID>  (13) 
12

>  <SMILES>  (13) 
COCCC[N-]C(=O)c1ccc(-c2ccccc2CN(Cc2cccc([O-])c2)C(=O)C=Cc2ccco2)cc1

>  <Energy>  (13) 
116.03760527366921

>  <Genealogy>  (13) 
COCCC[N-]C(=O)c1ccc(-c2ccccc2CN(Cc2cccc([O-])c2)C(=O)C=Cc2ccco2)cc1 (protonated)
COCCC[N-]C(=O)c1ccc(-c2ccccc2CN(Cc2cccc([O-])c2)C(=O)C=Cc2ccco2)cc1 (3D coordinates assigned)
COCCC[N-]C(=O)c1ccc(-c2ccccc2CN(Cc2cccc([O-])c2)C(=O)C=Cc2ccco2)cc1 (optimized conformer: 116.03760527366921 kcal/mol)

>  <smiles>  (13) 
COCCCNC(=O)c1ccc(-c2ccccc2CN(Cc2cccc(O)c2)C(=O)C=Cc2ccco2)cc1

>  <score_type>  (13) 
oracle

>  <origin>  (13) 
adg

>  <m_score__min__energy>  (13) 
-15.07

>  <m_primary>  (13) 
energy

$$$$
13:0
     RDKit          3D

 50 52  0  0  0  0  0  0  0  0999 V2000
   59.6660   26.7800   47.8110 H   0  0  0  0  0  0  0  0  0  0  0  0
   58.6740   26.6610   47.6470 O   0  0  0  0  0  0  0  0  0  0  0  0
   57.9820   27.5200   46.7980 C   0  0  0  0  0  0  0  0  0  0  0  0
   57.0350   27.1560   45.8670 C   0  0  0  0  0  0  0  0  0  0  0  0
   56.7080   26.1272   45.6560 H   0  0  0  0  0  0  0  0  0  0  0  0
   56.5730   28.2680   45.2550 N   0  0  0  0  0  0  0  0  0  0  0  0
   57.2630   29.2730   45.8390 C   0  0  0  0  0  0  0  0  0  0  0  0
   57.0930   30.4830   45.5380 O   0  0  0  0  0  0  0  0  0  0  0  0
   58.1370   28.8540   46.7750 N   0  0  0  0  0  0  0  0  0  0  0  0
   58.9740   29.6680   47.6560 C   0  0  0  0  0  0  0  0  0  0  0  0
   58.4916   30.6430   47.8195 H   0  0  0  0  0  0  0  0  0  0  0  0
   59.9583   29.8150   47.1874 H   0  0  0  0  0  0  0  0  0  0  0  0
   59.1560   28.9580   49.0030 C   0  0  0  0  0  0  0  0  0  0  0  0
   60.2298   28.7847   49.1673 H   0  0  0  0  0  0  0  0  0  0  0  0
   58.5938   28.0135   48.9597 H   0  0  0  0  0  0  0  0  0  0  0  0
   58.6040   29.7730   50.1810 C   0  0  0  0  0  0  0  0  0  0  0  0
   57.5386   29.5295   50.3060 H   0  0  0  0  0  0  0  0  0  0  0  0
   58.7595   30.8360   49.9448 H   0  0  0  0  0  0  0  0  0  0  0  0
   59.3320   29.4870   51.5110 C   0  0  0  0  0  0  0  0  0  0  0  0
   60.3928   29.7588   51.4074 H   0  0  0  0  0  0  0  0  0  0  0  0
   59.2326   28.4168   51.7449 H   0  0  0  0  0  0  0  0  0  0  0  0
   58.7390   30.2670   52.6080 N   0  0  0  0  0  0  0  0  0  0  0  0
   57.6620   29.7270   53.4040 C   0  0  0  0  0  0  0  0  0  0  0  0
   57.9030   29.2540   54.5470 O   0  0  0  0  0  0  0  0  0  0  0  0
   56.3070   29.7360   52.9250 N   0  0  0  0  0  0  0  0  0  0  0  0
   55.4020   28.7550   53.1280 C   0  0  0  0  0  0  0  0  0  0  0  0
   55.6850   27.4550   53.8160 C   0  0  0  0  0  0  0  0  0  0  0  0
   55.6529   27.6022   54.9056 H   0  0  0  0  0  0  0  0  0  0  0  0
   54.9274   26.7130   53.5238 H   0  0  0  0  0  0  0  0  0  0  0  0
   56.6825   27.0951   53.5238 H   0  0  0  0  0  0  0  0  0  0  0  0
   54.1870   29.1040   52.5790 C   0  0  0  0  0  0  0  0  0  0  0  0
   53.2618   28.5095   52.6048 H   0  0  0  0  0  0  0  0  0  0  0  0
   54.3530   30.3470   51.9880 C   0  0  0  0  0  0  0  0  0  0  0  0
   53.3660   30.9640   51.3090 C   0  0  0  0  0  0  0  0  0  0  0  0
   53.4490   30.9847   50.2123 H   0  0  0  0  0  0  0  0  0  0  0  0
   52.1880   31.6120   51.9040 C   0  0  0  0  0  0  0  0  0  0  0  0
   51.7850   31.4030   53.1690 N   0  0  0  0  0  0  0  0  0  0  0  0
   50.6090   32.0620   53.2360 C   0  0  0  0  0  0  0  0  0  0  0  0
   49.9190   32.1120   54.2860 O   0  0  0  0  0  0  0  0  0  0  0  0
   50.2210   32.6480   52.0820 N   0  0  0  0  0  0  0  0  0  0  0  0
   51.2230   32.3400   51.2450 C   0  0  0  0  0  0  0  0  0  0  0  0
   51.2390   32.6910   49.9020 O   0  0  0  0  0  0  0  0  0  0  0  0
   55.6800   30.7290   52.2450 C   0  0  0  0  0  0  0  0  0  0  0  0
   56.2560   31.9110   51.9750 C   0  0  0  0  0  0  0  0  0  0  0  0
   57.3126   32.0791   52.2307 H   0  0  0  0  0  0  0  0  0  0  0  0
   55.6714   32.7115   51.4980 H   0  0  0  0  0  0  0  0  0  0  0  0
   59.1030   31.6790   52.7610 C   0  0  0  0  0  0  0  0  0  0  0  0
   59.1670   31.9273   53.8307 H   0  0  0  0  0  0  0  0  0  0  0  0
   60.0773   31.8603   52.2836 H   0  0  0  0  0  0  0  0  0  0  0  0
   58.3378   32.3087   52.2836 H   0  0  0  0  0  0  0  0  0  0  0  0
  1  2  1  0
  2  3  1  0
  3  4  2  0
  4  5  1  0
  4  6  1  0
  6  7  1  0
  7  8  2  0
  7  9  1  0
  9 10  1  0
 10 11  1  0
 10 12  1  0
 10 13  1  0
 13 14  1  0
 13 15  1  0
 13 16  1  0
 16 17  1  0
 16 18  1  0
 16 19  1  0
 19 20  1  0
 19 21  1  0
 19 22  1  0
 22 23  1  0
 23 24  2  0
 23 25  1  0
 25 26  1  0
 26 27  1  0
 27 28  1  0
 27 29  1  0
 27 30  1  0
 26 31  2  0
 31 32  1  0
 31 33  1  0
 33 34  2  0
 34 35  1  0
 34 36  1  0
 36 37  1  0
 37 38  1  0
 38 39  2  0
 38 40  1  0
 40 41  1  0
 41 42  1  0
 33 43  1  0
 43 44  2  0
 44 45  1  0
 44 46  1  0
 22 47  1  0
 47 48  1  0
 47 49  1  0
 47 50  1  0
  9  3  1  0
 43 25  1  0
 41 36  2  0
M  CHG  4   6  -1  37  -1  40  -1  42  -1
M  END
>  <UniqueID>  (14) 
13

>  <SMILES>  (14) 
C=c1/c(=C\c2[n-]c(=O)[n-]c2[O-])cc(C)n1C(=O)N(C)CCCCn1c(O)c[n-]c1=O

>  <Energy>  (14) 
150.9597080528619

>  <Genealogy>  (14) 
C=c1c(=Cc2[n-]c(=O)[n-]c2[O-])cc(C)n1C(=O)N(C)CCCCn1c(O)c[n-]c1=O (protonated)
C=c1/c(=C\c2[n-]c(=O)[n-]c2[O-])cc(C)n1C(=O)N(C)CCCCn1c(O)c[n-]c1=O (cis-trans isomerization)
C=c1/c(=C\c2[n-]c(=O)[n-]c2[O-])cc(C)n1C(=O)N(C)CCCCn1c(O)c[n-]c1=O (3D coordinates assigned)
C=c1/c(=C\c2[n-]c(=O)[n-]c2[O-])cc(C)n1C(=O)N(C)CCCCn1c(O)c[n-]c1=O (optimized conformer: 150.9597080528619 kcal/mol)

>  <smiles>  (14) 
C=c1c(=Cc2[nH]c(=O)[nH]c2O)cc(C)n1C(=O)N(C)CCCCn1c(O)c[nH]c1=O

>  <score_type>  (14) 
oracle

>  <origin>  (14) 
adg

>  <m_score__min__energy>  (14) 
-16.77

>  <m_primary>  (14) 
energy

$$$$
14:0
     RDKit          3D

 47 49  0  0  0  0  0  0  0  0999 V2000
   55.8590   30.5230   42.2284 H   0  0  0  0  0  0  0  0  0  0  0  0
   56.7220   30.6090   42.9050 C   0  0  0  0  0  0  0  0  0  0  0  0
   57.4910   31.8690   42.8870 C   0  0  0  0  0  0  0  0  0  0  0  0
   57.7840   32.3660   41.7660 O   0  0  0  0  0  0  0  0  0  0  0  0
   57.9840   32.5250   44.1240 C   0  0  0  0  0  0  0  0  0  0  0  0
   57.5800   32.0480   45.3840 C   0  0  0  0  0  0  0  0  0  0  0  0
   56.8994   31.1863   45.4488 H   0  0  0  0  0  0  0  0  0  0  0  0
   58.0370   32.6610   46.5550 C   0  0  0  0  0  0  0  0  0  0  0  0
   57.7199   32.2768   47.5357 H   0  0  0  0  0  0  0  0  0  0  0  0
   58.8960   33.7610   46.4810 C   0  0  0  0  0  0  0  0  0  0  0  0
   59.4690   34.5280   47.9510 Cl  0  0  0  0  0  0  0  0  0  0  0  0
   59.2950   34.2510   45.2350 C   0  0  0  0  0  0  0  0  0  0  0  0
   59.9686   35.1187   45.1766 H   0  0  0  0  0  0  0  0  0  0  0  0
   58.8400   33.6410   44.0620 C   0  0  0  0  0  0  0  0  0  0  0  0
   59.1530   34.0357   43.0841 H   0  0  0  0  0  0  0  0  0  0  0  0
   57.0080   29.5630   43.6930 C   0  0  0  0  0  0  0  0  0  0  0  0
   55.9620   28.9710   44.8720 S   0  0  0  0  0  0  0  0  0  0  0  0
   57.0180   27.7520   45.3770 C   0  0  0  0  0  0  0  0  0  0  0  0
   56.8190   26.8670   46.3680 C   0  0  0  0  0  0  0  0  0  0  0  0
   56.7093   27.2557   47.3912 H   0  0  0  0  0  0  0  0  0  0  0  0
   56.7380   25.4030   46.1710 C   0  0  0  0  0  0  0  0  0  0  0  0
   56.2600   24.9080   44.9560 C   0  0  0  0  0  0  0  0  0  0  0  0
   55.9704   25.6085   44.1589 H   0  0  0  0  0  0  0  0  0  0  0  0
   56.1450   23.5230   44.7410 C   0  0  0  0  0  0  0  0  0  0  0  0
   55.6850   22.9980   43.5210 O   0  0  0  0  0  0  0  0  0  0  0  0
   56.4820   22.2450   42.6120 C   0  0  0  0  0  0  0  0  0  0  0  0
   57.1683   21.5966   43.1764 H   0  0  0  0  0  0  0  0  0  0  0  0
   55.8298   21.6256   41.9788 H   0  0  0  0  0  0  0  0  0  0  0  0
   57.0634   22.9313   41.9788 H   0  0  0  0  0  0  0  0  0  0  0  0
   56.4950   22.6210   45.7600 C   0  0  0  0  0  0  0  0  0  0  0  0
   56.3610   21.2510   45.4640 O   0  0  0  0  0  0  0  0  0  0  0  0
   57.3600   20.2490   45.6110 C   0  0  0  0  0  0  0  0  0  0  0  0
   57.5418   20.0666   46.6804 H   0  0  0  0  0  0  0  0  0  0  0  0
   57.0193   19.3186   45.1331 H   0  0  0  0  0  0  0  0  0  0  0  0
   58.2914   20.5869   45.1331 H   0  0  0  0  0  0  0  0  0  0  0  0
   56.9500   23.1160   47.0110 C   0  0  0  0  0  0  0  0  0  0  0  0
   57.2860   22.2220   48.0390 O   0  0  0  0  0  0  0  0  0  0  0  0
   56.3560   21.6100   48.9280 C   0  0  0  0  0  0  0  0  0  0  0  0
   56.6572   21.8082   49.9672 H   0  0  0  0  0  0  0  0  0  0  0  0
   55.3526   22.0249   48.7516 H   0  0  0  0  0  0  0  0  0  0  0  0
   56.3401   20.5244   48.7516 H   0  0  0  0  0  0  0  0  0  0  0  0
   57.0540   24.5080   47.2010 C   0  0  0  0  0  0  0  0  0  0  0  0
   57.3886   24.8981   48.1735 H   0  0  0  0  0  0  0  0  0  0  0  0
   58.1810   27.8670   44.6110 C   0  0  0  0  0  0  0  0  0  0  0  0
   59.1810   27.1130   44.7580 O   0  0  0  0  0  0  0  0  0  0  0  0
   58.1700   28.8640   43.6850 N   0  0  0  0  0  0  0  0  0  0  0  0
   58.9910   29.0700   43.0740 H   0  0  0  0  0  0  0  0  0  0  0  0
  1  2  1  0
  2  3  1  0
  3  4  2  0
  3  5  1  0
  5  6  2  0
  6  7  1  0
  6  8  1  0
  8  9  1  0
  8 10  2  0
 10 11  1  0
 10 12  1  0
 12 13  1  0
 12 14  2  0
 14 15  1  0
  2 16  2  3
 16 17  1  0
 17 18  1  0
 18 19  2  0
 19 20  1  0
 19 21  1  0
 21 22  2  0
 22 23  1  0
 22 24  1  0
 24 25  1  0
 25 26  1  0
 26 27  1  0
 26 28  1  0
 26 29  1  0
 24 30  2  0
 30 31  1  0
 31 32  1  0
 32 33  1  0
 32 34  1  0
 32 35  1  0
 30 36  1  0
 36 37  1  0
 37 38  1  0
 38 39  1  0
 38 40  1  0
 38 41  1  0
 36 42  2  0
 42 43  1  0
 18 44  1  0
 44 45  2  0
 44 46  1  0
 46 47  1  0
 14  5  1  0
 46 16  1  0
 42 21  1  0
M  END
>  <UniqueID>  (15) 
14

>  <SMILES>  (15) 
COc1cc(/C=c2\sc(=CC(=O)c3ccc(Cl)cc3)[nH]c2=O)cc(OC)c1OC

>  <Energy>  (15) 
94.65630793516571

>  <Genealogy>  (15) 
COc1cc(/C=c2\sc(=CC(=O)c3ccc(Cl)cc3)[nH]c2=O)cc(OC)c1OC (cis-trans isomerization)
COc1cc(/C=c2\sc(=CC(=O)c3ccc(Cl)cc3)[nH]c2=O)cc(OC)c1OC (3D coordinates assigned)
COc1cc(/C=c2\sc(=CC(=O)c3ccc(Cl)cc3)[nH]c2=O)cc(OC)c1OC (optimized conformer: 94.65630793516571 kcal/mol)

>  <smiles>  (15) 
COc1cc(C=c2sc(=CC(=O)c3ccc(Cl)cc3)[nH]c2=O)cc(OC)c1OC

>  <score_type>  (15) 
oracle

>  <origin>  (15) 
adg

>  <m_score__min__energy>  (15) 
-8.6600000000000001

>  <m_primary>  (15) 
energy

$$$$
15:0
     RDKit          3D

 35 36  0  0  0  0  0  0  0  0999 V2000
   60.3140   28.9420   45.2660 C   0  0  0  0  0  0  0  0  0  0  0  0
   58.9960   29.1160   45.1250 C   0  0  0  0  0  0  0  0  0  0  0  0
   58.1310   29.5670   46.2690 C   0  0  0  0  0  0  0  0  0  0  0  0
   58.2590   31.0250   46.4770 N   0  0  0  0  0  0  0  0  0  0  0  0
   57.6160   31.8900   45.6340 C   0  0  0  0  0  0  0  0  0  0  0  0
   56.8930   31.4360   44.7010 O   0  0  0  0  0  0  0  0  0  0  0  0
   57.7490   33.2410   45.7940 N   0  0  0  0  0  0  0  0  0  0  0  0
   57.0270   34.1670   44.9020 C   0  0  0  0  0  0  0  0  0  0  0  0
   58.4910   33.7290   46.8330 C   0  0  0  0  0  0  0  0  0  0  0  0
   58.5680   34.9770   47.0160 O   0  0  0  0  0  0  0  0  0  0  0  0
   59.1520   32.8750   47.6750 N   0  0  0  0  0  0  0  0  0  0  0  0
   59.9480   33.4020   48.8040 C   0  0  0  0  0  0  0  0  0  0  0  0
   61.4120   33.4360   48.4490 C   0  0  0  0  0  0  0  0  0  0  0  0
   61.8180   33.4830   47.1040 C   0  0  0  0  0  0  0  0  0  0  0  0
   63.1770   33.4830   46.7770 C   0  0  0  0  0  0  0  0  0  0  0  0
   64.1400   33.4340   47.7870 C   0  0  0  0  0  0  0  0  0  0  0  0
   63.7470   33.3860   49.1270 C   0  0  0  0  0  0  0  0  0  0  0  0
   62.3880   33.3840   49.4590 C   0  0  0  0  0  0  0  0  0  0  0  0
   59.0370   31.5230   47.4880 C   0  0  0  0  0  0  0  0  0  0  0  0
   59.6520   30.7290   48.2550 O   0  0  0  0  0  0  0  0  0  0  0  0
   60.9198   28.6111   44.4096 H   0  0  0  0  0  0  0  0  0  0  0  0
   60.7926   29.1297   46.2385 H   0  0  0  0  0  0  0  0  0  0  0  0
   58.5322   28.9241   44.1462 H   0  0  0  0  0  0  0  0  0  0  0  0
   57.0815   29.3248   46.0456 H   0  0  0  0  0  0  0  0  0  0  0  0
   58.4556   29.0492   47.1836 H   0  0  0  0  0  0  0  0  0  0  0  0
   56.4617   34.8920   45.5060 H   0  0  0  0  0  0  0  0  0  0  0  0
   57.7486   34.7021   44.2673 H   0  0  0  0  0  0  0  0  0  0  0  0
   56.3321   33.5976   44.2673 H   0  0  0  0  0  0  0  0  0  0  0  0
   59.6094   34.4215   49.0405 H   0  0  0  0  0  0  0  0  0  0  0  0
   59.8088   32.7439   49.6744 H   0  0  0  0  0  0  0  0  0  0  0  0
   61.0627   33.5200   46.3051 H   0  0  0  0  0  0  0  0  0  0  0  0
   63.4883   33.5217   45.7227 H   0  0  0  0  0  0  0  0  0  0  0  0
   65.2089   33.4332   47.5275 H   0  0  0  0  0  0  0  0  0  0  0  0
   64.5068   33.3498   49.9216 H   0  0  0  0  0  0  0  0  0  0  0  0
   62.0821   33.3416   50.5147 H   0  0  0  0  0  0  0  0  0  0  0  0
  1  2  2  0
  2  3  1  0
  3  4  1  0
  4  5  1  0
  5  6  2  0
  5  7  1  0
  7  8  1  0
  7  9  1  0
  9 10  2  0
  9 11  1  0
 11 12  1  0
 12 13  1  0
 13 14  2  0
 14 15  1  0
 15 16  2  0
 16 17  1  0
 17 18  2  0
 11 19  1  0
 19 20  2  0
 19  4  1  0
 18 13  1  0
  1 21  1  0
  1 22  1  0
  2 23  1  0
  3 24  1  0
  3 25  1  0
  8 26  1  0
  8 27  1  0
  8 28  1  0
 12 29  1  0
 12 30  1  0
 14 31  1  0
 15 32  1  0
 16 33  1  0
 17 34  1  0
 18 35  1  0
M  END
>  <UniqueID>  (16) 
15

>  <SMILES>  (16) 
C=CCn1c(=O)n(C)c(=O)n(Cc2ccccc2)c1=O

>  <Energy>  (16) 
42.609392832412645

>  <Genealogy>  (16) 
C=CCn1c(=O)n(C)c(=O)n(Cc2ccccc2)c1=O (3D coordinates assigned)
C=CCn1c(=O)n(C)c(=O)n(Cc2ccccc2)c1=O (optimized conformer: 42.609392832412645 kcal/mol)

>  <smiles>  (16) 
C=CCn1c(=O)n(C)c(=O)n(Cc2ccccc2)c1=O

>  <score_type>  (16) 
oracle

>  <origin>  (16) 
adg

>  <m_score__min__energy>  (16) 
-6.1500000000000004

>  <m_primary>  (16) 
energy

$$$$
16:0
     RDKit          3D

 41 44  0  0  0  0  0  0  0  0999 V2000
   60.1048   29.0011   47.4488 H   0  0  0  0  0  0  0  0  0  0  0  0
   59.5660   28.3640   46.7320 C   0  0  0  0  0  0  0  0  0  0  0  0
   59.8479   27.3071   46.6154 H   0  0  0  0  0  0  0  0  0  0  0  0
   58.5650   28.8760   46.0000 C   0  0  0  0  0  0  0  0  0  0  0  0
   57.7830   28.2010   45.0480 C   0  0  0  0  0  0  0  0  0  0  0  0
   57.6530   26.8860   44.7830 C   0  0  0  0  0  0  0  0  0  0  0  0
   57.9496   26.5432   43.7807 H   0  0  0  0  0  0  0  0  0  0  0  0
   57.1480   25.8690   45.7200 C   0  0  0  0  0  0  0  0  0  0  0  0
   57.9030   24.9120   46.2940 N   0  0  0  0  0  0  0  0  0  0  0  0
   57.0530   24.3230   47.1610 C   0  0  0  0  0  0  0  0  0  0  0  0
   57.3900   23.3530   47.8890 O   0  0  0  0  0  0  0  0  0  0  0  0
   55.8150   24.8620   47.1970 N   0  0  0  0  0  0  0  0  0  0  0  0
   55.8990   25.8470   46.2880 C   0  0  0  0  0  0  0  0  0  0  0  0
   54.8550   26.7140   45.9900 O   0  0  0  0  0  0  0  0  0  0  0  0
   57.0800   29.1770   44.3610 C   0  0  0  0  0  0  0  0  0  0  0  0
   56.4066   29.0200   43.5055 H   0  0  0  0  0  0  0  0  0  0  0  0
   57.3860   30.3830   44.9550 C   0  0  0  0  0  0  0  0  0  0  0  0
   56.8190   31.7060   44.5330 C   0  0  0  0  0  0  0  0  0  0  0  0
   56.5655   32.2976   45.4250 H   0  0  0  0  0  0  0  0  0  0  0  0
   57.5634   32.2491   43.9322 H   0  0  0  0  0  0  0  0  0  0  0  0
   55.9123   31.5415   43.9322 H   0  0  0  0  0  0  0  0  0  0  0  0
   58.2860   30.2040   45.9490 N   0  0  0  0  0  0  0  0  0  0  0  0
   58.8610   31.2440   46.7610 C   0  0  0  0  0  0  0  0  0  0  0  0
   59.3620   32.4110   46.1680 C   0  0  0  0  0  0  0  0  0  0  0  0
   59.3255   32.5302   45.0751 H   0  0  0  0  0  0  0  0  0  0  0  0
   59.9080   33.4240   46.9620 C   0  0  0  0  0  0  0  0  0  0  0  0
   60.2932   34.3417   46.4936 H   0  0  0  0  0  0  0  0  0  0  0  0
   59.9650   33.2720   48.3500 C   0  0  0  0  0  0  0  0  0  0  0  0
   60.3826   34.0769   48.9727 H   0  0  0  0  0  0  0  0  0  0  0  0
   59.4910   32.0950   48.9530 C   0  0  0  0  0  0  0  0  0  0  0  0
   59.5090   31.9200   50.3770 N   0  0  0  0  0  0  0  0  0  0  0  0
   58.4960   32.3550   51.2930 C   0  0  0  0  0  0  0  0  0  0  0  0
   58.5140   33.5460   51.6990 O   0  0  0  0  0  0  0  0  0  0  0  0
   57.3970   31.4690   51.7140 C   0  0  0  0  0  0  0  0  0  0  0  0
   57.4100   30.1350   51.5340 N   0  0  0  0  0  0  0  0  0  0  0  0
   56.2870   29.6740   52.0590 N   0  0  0  0  0  0  0  0  0  0  0  0
   55.6240   30.7350   52.5500 C   0  0  0  0  0  0  0  0  0  0  0  0
   54.6468   30.6681   53.0506 H   0  0  0  0  0  0  0  0  0  0  0  0
   56.2910   31.8890   52.3600 N   0  0  0  0  0  0  0  0  0  0  0  0
   58.9190   31.0960   48.1550 C   0  0  0  0  0  0  0  0  0  0  0  0
   58.5121   30.1884   48.6249 H   0  0  0  0  0  0  0  0  0  0  0  0
  1  2  1  0
  2  3  1  0
  2  4  2  0
  4  5  1  0
  5  6  2  0
  6  7  1  0
  6  8  1  0
  8  9  1  0
  9 10  1  0
 10 11  2  0
 10 12  1  0
 12 13  1  0
 13 14  1  0
  5 15  1  0
 15 16  1  0
 15 17  2  0
 17 18  1  0
 18 19  1  0
 18 20  1  0
 18 21  1  0
 17 22  1  0
 22 23  1  0
 23 24  2  0
 24 25  1  0
 24 26  1  0
 26 27  1  0
 26 28  2  0
 28 29  1  0
 28 30  1  0
 30 31  1  0
 31 32  1  0
 32 33  2  0
 32 34  1  0
 34 35  2  0
 35 36  1  0
 36 37  1  0
 37 38  1  0
 37 39  2  0
 30 40  2  0
 40 41  1  0
 22  4  1  0
 40 23  1  0
 13  8  2  0
 39 34  1  0
M  CHG  5   9  -1  12  -1  14  -1  31  -1  36  -1
M  END
>  <UniqueID>  (17) 
16

>  <SMILES>  (17) 
C=c1/c(=C\c2[n-]c(=O)[n-]c2[O-])cc(C)n1-c1cccc([N-]C(=O)c2nc[n-]n2)c1

>  <Energy>  (17) 
156.13587388240322

>  <Genealogy>  (17) 
C=c1c(=Cc2[n-]c(=O)[n-]c2[O-])cc(C)n1-c1cccc([N-]C(=O)c2nc[n-]n2)c1 (protonated)
C=c1/c(=C\c2[n-]c(=O)[n-]c2[O-])cc(C)n1-c1cccc([N-]C(=O)c2nc[n-]n2)c1 (cis-trans isomerization)
C=c1/c(=C\c2[n-]c(=O)[n-]c2[O-])cc(C)n1-c1cccc([N-]C(=O)c2nc[n-]n2)c1 (3D coordinates assigned)
C=c1/c(=C\c2[n-]c(=O)[n-]c2[O-])cc(C)n1-c1cccc([N-]C(=O)c2nc[n-]n2)c1 (optimized conformer: 156.13587388240322 kcal/mol)

>  <smiles>  (17) 
C=c1c(=Cc2[nH]c(=O)[nH]c2O)cc(C)n1-c1cccc(NC(=O)c2nc[nH]n2)c1

>  <score_type>  (17) 
oracle

>  <origin>  (17) 
adg

>  <m_score__min__energy>  (17) 
-18.059999999999999

>  <m_primary>  (17) 
energy

$$$$
17:0
     RDKit          3D

 51 54  0  0  0  0  0  0  0  0999 V2000
   59.2960   27.0870   48.2680 C   0  0  0  0  0  0  0  0  0  0  0  0
   59.5460   28.2000   47.5580 C   0  0  0  0  0  0  0  0  0  0  0  0
   59.2110   28.4220   46.2110 C   0  0  0  0  0  0  0  0  0  0  0  0
   58.4380   27.7180   45.3610 C   0  0  0  0  0  0  0  0  0  0  0  0
   57.2690   26.9100   45.7320 C   0  0  0  0  0  0  0  0  0  0  0  0
   57.3290   25.2770   46.1340 S   0  0  0  0  0  0  0  0  0  0  0  0
   55.6540   25.1470   46.2090 C   0  0  0  0  0  0  0  0  0  0  0  0
   55.0370   24.0920   46.5020 O   0  0  0  0  0  0  0  0  0  0  0  0
   55.0290   26.3040   45.9060 N   0  0  0  0  0  0  0  0  0  0  0  0
   55.9280   27.2830   45.6230 C   0  0  0  0  0  0  0  0  0  0  0  0
   55.5220   28.5530   45.2320 O   0  0  0  0  0  0  0  0  0  0  0  0
   59.8250   29.6050   45.8500 C   0  0  0  0  0  0  0  0  0  0  0  0
   60.4520   30.0970   46.9750 C   0  0  0  0  0  0  0  0  0  0  0  0
   61.1800   31.3840   47.0200 C   0  0  0  0  0  0  0  0  0  0  0  0
   62.4370   31.3780   47.1110 O   0  0  0  0  0  0  0  0  0  0  0  0
   60.4790   32.6430   46.9980 N   0  0  0  0  0  0  0  0  0  0  0  0
   61.1200   33.8330   47.5750 C   0  0  0  0  0  0  0  0  0  0  0  0
   60.0720   34.8940   47.9320 C   0  0  0  0  0  0  0  0  0  0  0  0
   59.1910   35.2880   46.7220 C   0  0  0  0  0  0  0  0  0  0  0  0
   59.7010   36.4430   46.1100 O   0  0  0  0  0  0  0  0  0  0  0  0
   59.0760   34.1710   45.6640 C   0  0  0  0  0  0  0  0  0  0  0  0
   59.2000   32.7750   46.2830 C   0  0  0  0  0  0  0  0  0  0  0  0
   60.2800   29.2500   48.0220 N   0  0  0  0  0  0  0  0  0  0  0  0
   60.8490   29.4310   49.3700 C   0  0  0  0  0  0  0  0  0  0  0  0
   60.3450   30.7010   50.0140 C   0  0  0  0  0  0  0  0  0  0  0  0
   58.9670   30.9520   50.1380 C   0  0  0  0  0  0  0  0  0  0  0  0
   58.5130   32.1190   50.7600 C   0  0  0  0  0  0  0  0  0  0  0  0
   59.4280   33.0380   51.2780 C   0  0  0  0  0  0  0  0  0  0  0  0
   60.7990   32.7890   51.1800 C   0  0  0  0  0  0  0  0  0  0  0  0
   61.2570   31.6230   50.5580 C   0  0  0  0  0  0  0  0  0  0  0  0
   59.6061   27.0255   49.3216 H   0  0  0  0  0  0  0  0  0  0  0  0
   58.7813   26.2373   47.7957 H   0  0  0  0  0  0  0  0  0  0  0  0
   58.7063   27.7514   44.2947 H   0  0  0  0  0  0  0  0  0  0  0  0
   59.8156   30.0679   44.8522 H   0  0  0  0  0  0  0  0  0  0  0  0
   61.6655   33.5437   48.4853 H   0  0  0  0  0  0  0  0  0  0  0  0
   61.8130   34.2562   46.8330 H   0  0  0  0  0  0  0  0  0  0  0  0
   59.4231   34.4957   48.7259 H   0  0  0  0  0  0  0  0  0  0  0  0
   60.6085   35.7957   48.2623 H   0  0  0  0  0  0  0  0  0  0  0  0
   58.1826   35.4706   47.1217 H   0  0  0  0  0  0  0  0  0  0  0  0
   59.6110   37.1820   46.7680 H   0  0  0  0  0  0  0  0  0  0  0  0
   58.0982   34.2528   45.1668 H   0  0  0  0  0  0  0  0  0  0  0  0
   59.9005   34.2978   44.9470 H   0  0  0  0  0  0  0  0  0  0  0  0
   58.3718   32.6169   46.9894 H   0  0  0  0  0  0  0  0  0  0  0  0
   59.1607   32.0239   45.4803 H   0  0  0  0  0  0  0  0  0  0  0  0
   60.5634   28.5737   49.9973 H   0  0  0  0  0  0  0  0  0  0  0  0
   61.9430   29.4995   49.2781 H   0  0  0  0  0  0  0  0  0  0  0  0
   58.2415   30.2255   49.7431 H   0  0  0  0  0  0  0  0  0  0  0  0
   57.4334   32.3135   50.8414 H   0  0  0  0  0  0  0  0  0  0  0  0
   59.0692   33.9578   51.7631 H   0  0  0  0  0  0  0  0  0  0  0  0
   61.5193   33.5108   51.5925 H   0  0  0  0  0  0  0  0  0  0  0  0
   62.3373   31.4259   50.4939 H   0  0  0  0  0  0  0  0  0  0  0  0
  1  2  2  0
  2  3  1  0
  3  4  2  3
  4  5  1  0
  5  6  1  0
  6  7  1  0
  7  8  2  0
  7  9  1  0
  9 10  1  0
 10 11  1  0
  3 12  1  0
 12 13  2  0
 13 14  1  0
 14 15  2  0
 14 16  1  0
 16 17  1  0
 17 18  1  0
 18 19  1  0
 19 20  1  0
 19 21  1  0
 21 22  1  0
 13 23  1  0
 23 24  1  0
 24 25  1  0
 25 26  2  0
 26 27  1  0
 27 28  2  0
 28 29  1  0
 29 30  2  0
 23  2  1  0
 30 25  1  0
 10  5  2  0
 22 16  1  0
  1 31  1  0
  1 32  1  0
  4 33  1  0
 12 34  1  0
 17 35  1  0
 17 36  1  0
 18 37  1  0
 18 38  1  0
 19 39  1  0
 20 40  1  0
 21 41  1  0
 21 42  1  0
 22 43  1  0
 22 44  1  0
 24 45  1  0
 24 46  1  0
 26 47  1  0
 27 48  1  0
 28 49  1  0
 29 50  1  0
 30 51  1  0
M  CHG  2   9  -1  11  -1
M  END
>  <UniqueID>  (18) 
17

>  <SMILES>  (18) 
C=c1c(=Cc2sc(=O)[n-]c2[O-])cc(C(=O)N2CCC(O)CC2)n1Cc1ccccc1

>  <Energy>  (18) 
132.9289378251122

>  <Genealogy>  (18) 
C=c1c(=Cc2sc(=O)[n-]c2[O-])cc(C(=O)N2CCC(O)CC2)n1Cc1ccccc1 (protonated)
C=c1c(=Cc2sc(=O)[n-]c2[O-])cc(C(=O)N2CCC(O)CC2)n1Cc1ccccc1 (3D coordinates assigned)
C=c1c(=Cc2sc(=O)[n-]c2[O-])cc(C(=O)N2CCC(O)CC2)n1Cc1ccccc1 (nonaromatic ring conformer: 132.9289378251122 kcal/mol)

>  <smiles>  (18) 
C=c1c(=Cc2sc(=O)[nH]c2O)cc(C(=O)N2CCC(O)CC2)n1Cc1ccccc1

>  <score_type>  (18) 
oracle

>  <origin>  (18) 
adg

>  <m_score__min__energy>  (18) 
-14.41

>  <m_primary>  (18) 
energy

$$$$
18:0
     RDKit          3D

 99105  0  0  0  0  0  0  0  0999 V2000
   59.4270   34.8860   47.8330 O   0  0  0  0  0  0  0  0  0  0  0  0
   59.9290   34.1130   46.9740 C   0  0  0  0  0  0  0  0  0  0  0  0
   61.3740   33.7130   47.1070 C   0  0  0  0  0  0  0  0  0  0  0  0
   61.6830   32.7970   48.3170 C   0  0  2  0  0  0  0  0  0  0  0  0
   63.1980   32.6070   48.4230 C   0  0  0  0  0  0  0  0  0  0  0  0
   63.7860   32.0060   47.4880 O   0  0  0  0  0  0  0  0  0  0  0  0
   63.9660   32.9980   49.5880 N   0  0  0  0  0  0  0  0  0  0  0  0
   65.4270   32.7590   49.5200 C   0  0  0  0  0  0  0  0  0  0  0  0
   66.2160   33.0320   50.8050 C   0  0  0  0  0  0  0  0  0  0  0  0
   65.4210   32.8740   52.1030 C   0  0  0  0  0  0  0  0  0  0  0  0
   65.2110   31.4690   52.5400 N   0  0  0  0  0  0  0  0  0  0  0  0
   66.2600   30.4370   52.4380 C   0  0  0  0  0  0  0  0  0  0  0  0
   65.6960   29.0540   52.2090 C   0  0  0  0  0  0  0  0  0  0  0  0
   66.4850   28.0680   51.5960 C   0  0  0  0  0  0  0  0  0  0  0  0
   66.0190   26.7550   51.4890 C   0  0  0  0  0  0  0  0  0  0  0  0
   64.7740   26.4100   52.0150 C   0  0  0  0  0  0  0  0  0  0  0  0
   63.9710   27.3860   52.6170 C   0  0  0  0  0  0  0  0  0  0  0  0
   64.4300   28.7100   52.7170 C   0  0  0  0  0  0  0  0  0  0  0  0
   63.5990   29.7170   53.2990 N   0  0  0  0  0  0  0  0  0  0  0  0
   63.9800   31.0960   53.2070 C   0  0  0  0  0  0  0  0  0  0  0  0
   63.2280   31.9720   53.7010 O   0  0  0  0  0  0  0  0  0  0  0  0
   64.1250   33.6750   52.0350 C   0  0  0  0  0  0  0  0  0  0  0  0
   63.2460   33.3710   50.8220 C   0  0  0  0  0  0  0  0  0  0  0  0
   60.9860   31.4420   48.2140 C   0  0  0  0  0  0  0  0  0  0  0  0
   61.3510   30.5570   47.1790 C   0  0  0  0  0  0  0  0  0  0  0  0
   60.7370   29.3090   47.0500 C   0  0  0  0  0  0  0  0  0  0  0  0
   59.7540   28.9190   47.9560 C   0  0  0  0  0  0  0  0  0  0  0  0
   59.3830   29.7680   48.9940 C   0  0  0  0  0  0  0  0  0  0  0  0
   59.9730   31.0390   49.1290 C   0  0  0  0  0  0  0  0  0  0  0  0
   59.5170   31.8900   50.2000 N   0  0  0  0  0  0  0  0  0  0  0  0
   58.1050   32.3030   50.2520 C   0  0  0  0  0  0  0  0  0  0  0  0
   57.5320   32.1400   51.6780 C   0  0  0  0  0  0  0  0  0  0  0  0
   58.2460   31.0710   52.3960 N   0  0  0  0  0  0  0  0  0  0  0  0
   57.5300   30.6890   53.6040 C   0  0  0  0  0  0  0  0  0  0  0  0
   57.5140   31.4720   54.5510 O   0  0  0  0  0  0  0  0  0  0  0  0
   56.8190   29.3430   53.7350 C   0  0  0  0  0  0  0  0  0  0  0  0
   55.4250   29.4470   54.3700 C   0  0  0  0  0  0  0  0  0  0  0  0
   54.4230   30.0510   53.4260 C   0  0  0  0  0  0  0  0  0  0  0  0
   54.7250   30.2060   52.0630 C   0  0  0  0  0  0  0  0  0  0  0  0
   53.7930   30.7850   51.1980 C   0  0  0  0  0  0  0  0  0  0  0  0
   52.5540   31.2230   51.6820 C   0  0  0  0  0  0  0  0  0  0  0  0
   51.4070   31.9480   50.5570 Cl  0  0  0  0  0  0  0  0  0  0  0  0
   52.2450   31.0670   53.0430 C   0  0  0  0  0  0  0  0  0  0  0  0
   50.6940   31.5820   53.6820 Cl  0  0  0  0  0  0  0  0  0  0  0  0
   53.1830   30.4850   53.9100 C   0  0  0  0  0  0  0  0  0  0  0  0
   59.6520   31.4490   52.6550 C   0  0  0  0  0  0  0  0  0  0  0  0
   60.3470   32.0450   51.4010 C   0  0  0  0  0  0  0  0  0  0  0  0
   59.0710   33.4970   45.9890 N   0  0  0  0  0  0  0  0  0  0  0  0
   59.1860   32.0770   45.6380 C   0  0  0  0  0  0  0  0  0  0  0  0
   57.8010   31.4280   45.7370 C   0  0  0  0  0  0  0  0  0  0  0  0
   56.8470   32.1430   44.9690 O   0  0  0  0  0  0  0  0  0  0  0  0
   56.6780   33.4420   45.5010 C   0  0  0  0  0  0  0  0  0  0  0  0
   57.9730   34.2520   45.3790 C   0  0  0  0  0  0  0  0  0  0  0  0
   61.6680   33.1807   46.1904 H   0  0  0  0  0  0  0  0  0  0  0  0
   61.9401   34.6423   47.2681 H   0  0  0  0  0  0  0  0  0  0  0  0
   61.2948   33.2851   49.2231 H   0  0  0  0  0  0  0  0  0  0  0  0
   65.5826   31.7046   49.2478 H   0  0  0  0  0  0  0  0  0  0  0  0
   65.8096   33.4778   48.7804 H   0  0  0  0  0  0  0  0  0  0  0  0
   67.0647   32.3330   50.8384 H   0  0  0  0  0  0  0  0  0  0  0  0
   66.5189   34.0885   50.7589 H   0  0  0  0  0  0  0  0  0  0  0  0
   66.0495   33.2962   52.9010 H   0  0  0  0  0  0  0  0  0  0  0  0
   66.9228   30.6905   51.5975 H   0  0  0  0  0  0  0  0  0  0  0  0
   66.8041   30.4202   53.3938 H   0  0  0  0  0  0  0  0  0  0  0  0
   67.4761   28.3305   51.1975 H   0  0  0  0  0  0  0  0  0  0  0  0
   66.6347   25.9926   50.9894 H   0  0  0  0  0  0  0  0  0  0  0  0
   64.4226   25.3693   51.9567 H   0  0  0  0  0  0  0  0  0  0  0  0
   62.9804   27.1161   53.0118 H   0  0  0  0  0  0  0  0  0  0  0  0
   63.5419   33.4599   52.9426 H   0  0  0  0  0  0  0  0  0  0  0  0
   64.4184   34.7315   51.9476 H   0  0  0  0  0  0  0  0  0  0  0  0
   62.5781   32.5386   51.0885 H   0  0  0  0  0  0  0  0  0  0  0  0
   62.7191   34.3085   50.5905 H   0  0  0  0  0  0  0  0  0  0  0  0
   62.1310   30.8537   46.4623 H   0  0  0  0  0  0  0  0  0  0  0  0
   61.0301   28.6340   46.2324 H   0  0  0  0  0  0  0  0  0  0  0  0
   59.2695   27.9371   47.8507 H   0  0  0  0  0  0  0  0  0  0  0  0
   58.6205   29.4426   49.7169 H   0  0  0  0  0  0  0  0  0  0  0  0
   58.0277   33.3584   49.9518 H   0  0  0  0  0  0  0  0  0  0  0  0
   57.5278   31.6642   49.5674 H   0  0  0  0  0  0  0  0  0  0  0  0
   57.6488   33.0863   52.2265 H   0  0  0  0  0  0  0  0  0  0  0  0
   56.4668   31.8745   51.6077 H   0  0  0  0  0  0  0  0  0  0  0  0
   58.2640   30.2250   51.7780 H   0  0  0  0  0  0  0  0  0  0  0  0
   56.7128   28.9060   52.7311 H   0  0  0  0  0  0  0  0  0  0  0  0
   57.4318   28.7163   54.3996 H   0  0  0  0  0  0  0  0  0  0  0  0
   55.0861   28.4390   54.6512 H   0  0  0  0  0  0  0  0  0  0  0  0
   55.4998   30.1004   55.2518 H   0  0  0  0  0  0  0  0  0  0  0  0
   55.6983   29.8705   51.6754 H   0  0  0  0  0  0  0  0  0  0  0  0
   54.0338   30.8975   50.1306 H   0  0  0  0  0  0  0  0  0  0  0  0
   52.9422   30.3691   54.9770 H   0  0  0  0  0  0  0  0  0  0  0  0
   59.6735   32.1983   53.4600 H   0  0  0  0  0  0  0  0  0  0  0  0
   60.1972   30.5365   52.9379 H   0  0  0  0  0  0  0  0  0  0  0  0
   60.5333   33.1157   51.5708 H   0  0  0  0  0  0  0  0  0  0  0  0
   61.2909   31.5035   51.2400 H   0  0  0  0  0  0  0  0  0  0  0  0
   59.5667   31.9802   44.6105 H   0  0  0  0  0  0  0  0  0  0  0  0
   59.8821   31.5775   46.3279 H   0  0  0  0  0  0  0  0  0  0  0  0
   57.8608   30.3947   45.3645 H   0  0  0  0  0  0  0  0  0  0  0  0
   57.4831   31.4411   46.7900 H   0  0  0  0  0  0  0  0  0  0  0  0
   55.8774   33.9564   44.9493 H   0  0  0  0  0  0  0  0  0  0  0  0
   56.4147   33.3558   46.5655 H   0  0  0  0  0  0  0  0  0  0  0  0
   58.1957   34.4326   44.3170 H   0  0  0  0  0  0  0  0  0  0  0  0
   57.8561   35.2169   45.8941 H   0  0  0  0  0  0  0  0  0  0  0  0
  1  2  2  0
  2  3  1  0
  3  4  1  0
  4  5  1  0
  5  6  2  0
  5  7  1  0
  7  8  1  0
  8  9  1  0
  9 10  1  0
 10 11  1  0
 11 12  1  0
 12 13  1  0
 13 14  2  0
 14 15  1  0
 15 16  2  0
 16 17  1  0
 17 18  2  0
 18 19  1  0
 19 20  1  0
 20 21  2  0
 10 22  1  0
 22 23  1  0
  4 24  1  0
 24 25  2  0
 25 26  1  0
 26 27  2  0
 27 28  1  0
 28 29  2  0
 29 30  1  0
 30 31  1  0
 31 32  1  0
 32 33  1  0
 33 34  1  0
 34 35  2  0
 34 36  1  0
 36 37  1  0
 37 38  1  0
 38 39  2  0
 39 40  1  0
 40 41  2  0
 41 42  1  0
 41 43  1  0
 43 44  1  0
 43 45  2  0
 33 46  1  0
 46 47  1  0
  2 48  1  0
 48 49  1  0
 49 50  1  0
 50 51  1  0
 51 52  1  0
 52 53  1  0
 23  7  1  0
 29 24  1  0
 47 30  1  0
 53 48  1  0
 20 11  1  0
 45 38  1  0
 18 13  1  0
  3 54  1  0
  3 55  1  0
  4 56  1  1
  8 57  1  0
  8 58  1  0
  9 59  1  0
  9 60  1  0
 10 61  1  0
 12 62  1  0
 12 63  1  0
 14 64  1  0
 15 65  1  0
 16 66  1  0
 17 67  1  0
 22 68  1  0
 22 69  1  0
 23 70  1  0
 23 71  1  0
 25 72  1  0
 26 73  1  0
 27 74  1  0
 28 75  1  0
 31 76  1  0
 31 77  1  0
 32 78  1  0
 32 79  1  0
 33 80  1  0
 36 81  1  0
 36 82  1  0
 37 83  1  0
 37 84  1  0
 39 85  1  0
 40 86  1  0
 45 87  1  0
 46 88  1  0
 46 89  1  0
 47 90  1  0
 47 91  1  0
 49 92  1  0
 49 93  1  0
 50 94  1  0
 50 95  1  0
 52 96  1  0
 52 97  1  0
 53 98  1  0
 53 99  1  0
M  CHG  2  19  -1  33   1
M  END
>  <UniqueID>  (19) 
18

>  <SMILES>  (19) 
O=C(C[C@H](C(=O)N1CCC(N2Cc3ccccc3[N-]C2=O)CC1)c1ccccc1N1CC[NH+](C(=O)CCc2ccc(Cl)c(Cl)c2)CC1)N1CCOCC1

>  <Energy>  (19) 
133.81802445532497

>  <Genealogy>  (19) 
O=C(CC(C(=O)N1CCC(N2Cc3ccccc3[N-]C2=O)CC1)c1ccccc1N1CC[NH+](C(=O)CCc2ccc(Cl)c(Cl)c2)CC1)N1CCOCC1 (protonated)
O=C(C[C@H](C(=O)N1CCC(N2Cc3ccccc3[N-]C2=O)CC1)c1ccccc1N1CC[NH+](C(=O)CCc2ccc(Cl)c(Cl)c2)CC1)N1CCOCC1 (chirality)
O=C(C[C@H](C(=O)N1CCC(N2Cc3ccccc3[N-]C2=O)CC1)c1ccccc1N1CC[NH+](C(=O)CCc2ccc(Cl)c(Cl)c2)CC1)N1CCOCC1 (3D coordinates assigned)
O=C(C[C@H](C(=O)N1CCC(N2Cc3ccccc3[N-]C2=O)CC1)c1ccccc1N1CC[NH+](C(=O)CCc2ccc(Cl)c(Cl)c2)CC1)N1CCOCC1 (nonaromatic ring conformer: 133.81802445532497 kcal/mol)

>  <smiles>  (19) 
O=C(CCc1ccc(Cl)c(Cl)c1)N1CCN(c2ccccc2C(CC(=O)N2CCOCC2)C(=O)N2CCC(N3Cc4ccccc4NC3=O)CC2)CC1

>  <score_type>  (19) 
oracle

>  <origin>  (19) 
adg

>  <m_score__min__energy>  (19) 
-11.52

>  <m_primary>  (19) 
energy

$$$$
19:0
     RDKit          3D

 46 49  0  0  0  0  0  0  0  0999 V2000
   57.7580   24.3130   47.3370 O   0  0  0  0  0  0  0  0  0  0  0  0
   57.4370   25.0080   46.3360 C   0  0  0  0  0  0  0  0  0  0  0  0
   56.7910   24.3930   45.2100 N   0  0  0  0  0  0  0  0  0  0  0  0
   56.5060   22.9560   45.1760 C   0  0  2  0  0  0  0  0  0  0  0  0
   57.7350   22.1540   44.7100 C   0  0  0  0  0  0  0  0  0  0  0  0
   57.3960   21.6070   43.3110 C   0  0  0  0  0  0  0  0  0  0  0  0
   56.0210   21.8780   43.1080 O   0  0  0  0  0  0  0  0  0  0  0  0
   55.5070   22.6410   44.1310 C   0  0  0  0  0  0  0  0  0  0  0  0
   54.3070   23.0190   44.1630 O   0  0  0  0  0  0  0  0  0  0  0  0
   57.7330   26.4490   46.3350 C   0  0  0  0  0  0  0  0  0  0  0  0
   58.6120   27.0250   47.1890 N   0  0  0  0  0  0  0  0  0  0  0  0
   58.5600   28.3220   46.8500 C   0  0  0  0  0  0  0  0  0  0  0  0
   57.6940   28.4950   45.8140 C   0  0  0  0  0  0  0  0  0  0  0  0
   57.1400   27.3180   45.4810 N   0  0  0  0  0  0  0  0  0  0  0  0
   57.3460   29.8250   45.2350 C   0  0  0  0  0  0  0  0  0  0  0  0
   58.4590   30.8430   45.5420 C   0  0  0  0  0  0  0  0  0  0  0  0
   58.9240   30.7380   46.9430 N   0  0  0  0  0  0  0  0  0  0  0  0
   59.3200   31.9230   47.6640 C   0  0  0  0  0  0  0  0  0  0  0  0
   58.5230   32.4600   48.4820 O   0  0  0  0  0  0  0  0  0  0  0  0
   60.6480   32.5340   47.4720 C   0  0  0  0  0  0  0  0  0  0  0  0
   61.7580   31.9040   48.0560 C   0  0  0  0  0  0  0  0  0  0  0  0
   63.0420   32.4180   47.8690 C   0  0  0  0  0  0  0  0  0  0  0  0
   63.2280   33.5660   47.0980 C   0  0  0  0  0  0  0  0  0  0  0  0
   62.1310   34.2120   46.5250 C   0  0  0  0  0  0  0  0  0  0  0  0
   60.8240   33.7210   46.7160 C   0  0  0  0  0  0  0  0  0  0  0  0
   59.6420   34.4550   46.1140 C   0  0  0  0  0  0  0  0  0  0  0  0
   60.0270   35.7180   45.7020 F   0  0  0  0  0  0  0  0  0  0  0  0
   59.1330   33.7870   45.0140 F   0  0  0  0  0  0  0  0  0  0  0  0
   58.6390   34.5720   47.0560 F   0  0  0  0  0  0  0  0  0  0  0  0
   59.3560   29.4260   47.4670 C   0  0  0  0  0  0  0  0  0  0  0  0
   56.5200   24.9910   44.3960 H   0  0  0  0  0  0  0  0  0  0  0  0
   56.1779   22.7009   46.1945 H   0  0  0  0  0  0  0  0  0  0  0  0
   58.6181   22.8078   44.6586 H   0  0  0  0  0  0  0  0  0  0  0  0
   57.9663   21.3381   45.4106 H   0  0  0  0  0  0  0  0  0  0  0  0
   58.0023   22.1133   42.5455 H   0  0  0  0  0  0  0  0  0  0  0  0
   57.6094   20.5305   43.2370 H   0  0  0  0  0  0  0  0  0  0  0  0
   57.2315   29.7287   44.1452 H   0  0  0  0  0  0  0  0  0  0  0  0
   56.4037   30.1763   45.6807 H   0  0  0  0  0  0  0  0  0  0  0  0
   59.3089   30.6561   44.8691 H   0  0  0  0  0  0  0  0  0  0  0  0
   58.0516   31.8534   45.3902 H   0  0  0  0  0  0  0  0  0  0  0  0
   61.6150   30.9992   48.6651 H   0  0  0  0  0  0  0  0  0  0  0  0
   63.9071   31.9183   48.3293 H   0  0  0  0  0  0  0  0  0  0  0  0
   64.2418   33.9631   46.9412 H   0  0  0  0  0  0  0  0  0  0  0  0
   62.2888   35.1151   45.9171 H   0  0  0  0  0  0  0  0  0  0  0  0
   60.4207   29.2771   47.2341 H   0  0  0  0  0  0  0  0  0  0  0  0
   59.1973   29.4105   48.5554 H   0  0  0  0  0  0  0  0  0  0  0  0
  1  2  2  0
  2  3  1  0
  3  4  1  0
  4  5  1  0
  5  6  1  0
  6  7  1  0
  7  8  1  0
  8  9  2  0
  2 10  1  0
 10 11  2  0
 11 12  1  0
 12 13  2  0
 13 14  1  0
 13 15  1  0
 15 16  1  0
 16 17  1  0
 17 18  1  0
 18 19  2  0
 18 20  1  0
 20 21  2  0
 21 22  1  0
 22 23  2  0
 23 24  1  0
 24 25  2  0
 25 26  1  0
 26 27  1  0
 26 28  1  0
 26 29  1  0
 17 30  1  0
  8  4  1  0
 14 10  1  0
 25 20  1  0
 30 12  1  0
  3 31  1  0
  4 32  1  1
  5 33  1  0
  5 34  1  0
  6 35  1  0
  6 36  1  0
 15 37  1  0
 15 38  1  0
 16 39  1  0
 16 40  1  0
 21 41  1  0
 22 42  1  0
 23 43  1  0
 24 44  1  0
 30 45  1  0
 30 46  1  0
M  CHG  1  14  -1
M  END
>  <UniqueID>  (20) 
19

>  <SMILES>  (20) 
O=C(N[C@@H]1CCOC1=O)c1nc2c([n-]1)CCN(C(=O)c1ccccc1C(F)(F)F)C2

>  <Energy>  (20) 
94.53878800108178

>  <Genealogy>  (20) 
O=C(NC1CCOC1=O)c1nc2c([n-]1)CCN(C(=O)c1ccccc1C(F)(F)F)C2 (protonated)
O=C(N[C@@H]1CCOC1=O)c1nc2c([n-]1)CCN(C(=O)c1ccccc1C(F)(F)F)C2 (chirality)
O=C(N[C@@H]1CCOC1=O)c1nc2c([n-]1)CCN(C(=O)c1ccccc1C(F)(F)F)C2 (3D coordinates assigned)
O=C(N[C@@H]1CCOC1=O)c1nc2c([n-]1)CCN(C(=O)c1ccccc1C(F)(F)F)C2 (nonaromatic ring conformer: 94.53878800108178 kcal/mol)

>  <smiles>  (20) 
O=C(NC1CCOC1=O)c1nc2c([nH]1)CCN(C(=O)c1ccccc1C(F)(F)F)C2

>  <score_type>  (20) 
oracle

>  <origin>  (20) 
adg

>  <m_score__min__energy>  (20) 
-9.9700000000000006

>  <m_primary>  (20) 
energy

$$$$
20:0
     RDKit          3D

 44 46  0  0  0  0  0  0  0  0999 V2000
   58.1140   30.3370   47.0290 O   0  0  0  0  0  0  0  0  0  0  0  0
   58.4650   31.2720   46.2580 C   0  0  0  0  0  0  0  0  0  0  0  0
   57.8810   31.3320   44.8690 C   0  0  0  0  0  0  0  0  0  0  0  0
   56.4850   30.9040   44.8630 N   0  0  0  0  0  0  0  0  0  0  0  0
   56.0600   29.6020   44.4420 C   0  0  0  0  0  0  0  0  0  0  0  0
   55.1760   29.4870   43.5500 O   0  0  0  0  0  0  0  0  0  0  0  0
   56.6410   28.3920   45.0530 C   0  0  0  0  0  0  0  0  0  0  0  0
   58.0270   28.1720   45.0630 C   0  0  0  0  0  0  0  0  0  0  0  0
   58.5150   27.0080   45.6600 C   0  0  0  0  0  0  0  0  0  0  0  0
   59.7520   26.7800   45.6840 O   0  0  0  0  0  0  0  0  0  0  0  0
   57.6530   26.1190   46.2170 N   0  0  0  0  0  0  0  0  0  0  0  0
   56.3130   26.3450   46.2020 C   0  0  0  0  0  0  0  0  0  0  0  0
   55.5300   25.5120   46.7260 O   0  0  0  0  0  0  0  0  0  0  0  0
   55.8190   27.4700   45.6240 N   0  0  0  0  0  0  0  0  0  0  0  0
   59.4040   32.3130   46.7550 C   0  0  0  0  0  0  0  0  0  0  0  0
   58.9490   33.6290   46.9570 C   0  0  0  0  0  0  0  0  0  0  0  0
   59.8200   34.6190   47.4190 C   0  0  0  0  0  0  0  0  0  0  0  0
   61.1540   34.3120   47.6860 C   0  0  0  0  0  0  0  0  0  0  0  0
   61.6270   33.0080   47.4920 C   0  0  0  0  0  0  0  0  0  0  0  0
   63.3170   32.6130   47.8000 S   0  0  0  0  0  0  0  0  0  0  0  0
   64.1360   33.8590   47.6030 O   0  0  0  0  0  0  0  0  0  0  0  0
   63.7860   31.5820   46.8110 O   0  0  0  0  0  0  0  0  0  0  0  0
   63.5270   32.0370   49.4410 N   0  0  0  0  0  0  0  0  0  0  0  0
   62.2360   31.6510   50.0530 C   0  0  0  0  0  0  0  0  0  0  0  0
   61.6560   32.7510   50.9640 C   0  0  0  0  0  0  0  0  0  0  0  0
   62.0180   34.0270   50.4860 O   0  0  0  0  0  0  0  0  0  0  0  0
   63.4120   34.2340   50.6470 C   0  0  0  0  0  0  0  0  0  0  0  0
   64.2680   32.9990   50.2740 C   0  0  0  0  0  0  0  0  0  0  0  0
   60.7570   32.0160   47.0190 C   0  0  0  0  0  0  0  0  0  0  0  0
   57.9405   32.3663   44.4993 H   0  0  0  0  0  0  0  0  0  0  0  0
   58.4554   30.6541   44.2206 H   0  0  0  0  0  0  0  0  0  0  0  0
   58.7146   28.9014   44.6100 H   0  0  0  0  0  0  0  0  0  0  0  0
   57.8985   33.8806   46.7494 H   0  0  0  0  0  0  0  0  0  0  0  0
   59.4522   35.6442   47.5727 H   0  0  0  0  0  0  0  0  0  0  0  0
   61.8357   35.0951   48.0495 H   0  0  0  0  0  0  0  0  0  0  0  0
   61.5141   31.4429   49.2495 H   0  0  0  0  0  0  0  0  0  0  0  0
   62.4170   30.7639   50.6778 H   0  0  0  0  0  0  0  0  0  0  0  0
   60.5593   32.6676   50.9796 H   0  0  0  0  0  0  0  0  0  0  0  0
   62.0595   32.6228   51.9792 H   0  0  0  0  0  0  0  0  0  0  0  0
   63.7154   35.0743   50.0053 H   0  0  0  0  0  0  0  0  0  0  0  0
   63.5872   34.4383   51.7136 H   0  0  0  0  0  0  0  0  0  0  0  0
   65.1551   33.3379   49.7189 H   0  0  0  0  0  0  0  0  0  0  0  0
   64.5490   32.4896   51.2076 H   0  0  0  0  0  0  0  0  0  0  0  0
   61.1333   30.9959   46.8521 H   0  0  0  0  0  0  0  0  0  0  0  0
  1  2  2  0
  2  3  1  0
  3  4  1  0
  4  5  1  0
  5  6  2  0
  5  7  1  0
  7  8  2  0
  8  9  1  0
  9 10  2  0
  9 11  1  0
 11 12  1  0
 12 13  2  0
 12 14  1  0
  2 15  1  0
 15 16  2  0
 16 17  1  0
 17 18  2  0
 18 19  1  0
 19 20  1  0
 20 21  2  0
 20 22  2  0
 20 23  1  0
 23 24  1  0
 24 25  1  0
 25 26  1  0
 26 27  1  0
 27 28  1  0
 19 29  2  0
 14  7  1  0
 29 15  1  0
 28 23  1  0
  3 30  1  0
  3 31  1  0
  8 32  1  0
 16 33  1  0
 17 34  1  0
 18 35  1  0
 24 36  1  0
 24 37  1  0
 25 38  1  0
 25 39  1  0
 27 40  1  0
 27 41  1  0
 28 42  1  0
 28 43  1  0
 29 44  1  0
M  CHG  3   4  -1  11  -1  14  -1
M  END
>  <UniqueID>  (21) 
20

>  <SMILES>  (21) 
O=C(C[N-]C(=O)c1cc(=O)[n-]c(=O)[n-]1)c1cccc(S(=O)(=O)N2CCOCC2)c1

>  <Energy>  (21) 
57.494965470741356

>  <Genealogy>  (21) 
O=C(C[N-]C(=O)c1cc(=O)[n-]c(=O)[n-]1)c1cccc(S(=O)(=O)N2CCOCC2)c1 (protonated)
O=C(C[N-]C(=O)c1cc(=O)[n-]c(=O)[n-]1)c1cccc(S(=O)(=O)N2CCOCC2)c1 (3D coordinates assigned)
O=C(C[N-]C(=O)c1cc(=O)[n-]c(=O)[n-]1)c1cccc(S(=O)(=O)N2CCOCC2)c1 (nonaromatic ring conformer: 57.494965470741356 kcal/mol)

>  <smiles>  (21) 
O=C(CNC(=O)c1cc(=O)[nH]c(=O)[nH]1)c1cccc(S(=O)(=O)N2CCOCC2)c1

>  <score_type>  (21) 
oracle

>  <origin>  (21) 
adg

>  <m_score__min__energy>  (21) 
-15.109999999999999

>  <m_primary>  (21) 
energy

$$$$
21:0
     RDKit          3D

 47 49  0  0  0  0  0  0  0  0999 V2000
   58.4940   25.5380   46.5510 O   0  0  0  0  0  0  0  0  0  0  0  0
   57.8900   26.2260   45.6840 C   0  0  0  0  0  0  0  0  0  0  0  0
   57.8410   27.7180   45.8400 C   0  0  0  0  0  0  0  0  0  0  0  0
   57.1340   28.3390   44.7210 N   0  0  0  0  0  0  0  0  0  0  0  0
   56.4820   29.6180   44.7300 C   0  0  0  0  0  0  0  0  0  0  0  0
   55.2330   29.6600   44.8830 O   0  0  0  0  0  0  0  0  0  0  0  0
   57.2300   30.8860   44.6240 C   0  0  0  0  0  0  0  0  0  0  0  0
   57.4190   31.4780   43.3670 C   0  0  0  0  0  0  0  0  0  0  0  0
   58.1030   32.6910   43.2550 C   0  0  0  0  0  0  0  0  0  0  0  0
   58.6140   33.3140   44.3960 C   0  0  0  0  0  0  0  0  0  0  0  0
   58.4560   32.7200   45.6560 C   0  0  0  0  0  0  0  0  0  0  0  0
   59.0780   33.5210   47.1020 S   0  0  0  0  0  0  0  0  0  0  0  0
   58.2300   33.1280   48.2800 O   0  0  0  0  0  0  0  0  0  0  0  0
   58.9620   35.0100   46.9240 O   0  0  0  0  0  0  0  0  0  0  0  0
   60.7440   33.1170   47.4400 N   0  0  0  0  0  0  0  0  0  0  0  0
   61.6510   33.6260   46.4160 C   0  0  0  0  0  0  0  0  0  0  0  0
   63.0080   33.7810   47.0860 C   0  0  0  0  0  0  0  0  0  0  0  0
   62.7150   33.8390   48.5780 C   0  0  0  0  0  0  0  0  0  0  0  0
   61.2050   33.7010   48.6980 C   0  0  0  0  0  0  0  0  0  0  0  0
   57.7690   31.5020   45.7640 C   0  0  0  0  0  0  0  0  0  0  0  0
   57.2880   25.6020   44.5360 N   0  0  0  0  0  0  0  0  0  0  0  0
   57.3490   24.1940   44.2560 C   0  0  0  0  0  0  0  0  0  0  0  0
   58.3460   23.4150   44.8660 C   0  0  0  0  0  0  0  0  0  0  0  0
   58.4360   22.0460   44.6040 C   0  0  0  0  0  0  0  0  0  0  0  0
   57.5430   21.4440   43.7140 C   0  0  0  0  0  0  0  0  0  0  0  0
   56.5660   22.2140   43.0780 C   0  0  0  0  0  0  0  0  0  0  0  0
   56.4710   23.5850   43.3400 C   0  0  0  0  0  0  0  0  0  0  0  0
   57.3194   27.9648   46.7765 H   0  0  0  0  0  0  0  0  0  0  0  0
   58.8715   28.1023   45.8600 H   0  0  0  0  0  0  0  0  0  0  0  0
   57.0270   30.9851   42.4651 H   0  0  0  0  0  0  0  0  0  0  0  0
   58.2393   33.1559   42.2674 H   0  0  0  0  0  0  0  0  0  0  0  0
   59.1425   34.2745   44.3055 H   0  0  0  0  0  0  0  0  0  0  0  0
   61.7183   32.9150   45.5794 H   0  0  0  0  0  0  0  0  0  0  0  0
   61.2954   34.5833   46.0072 H   0  0  0  0  0  0  0  0  0  0  0  0
   63.6531   32.9210   46.8532 H   0  0  0  0  0  0  0  0  0  0  0  0
   63.5374   34.6798   46.7368 H   0  0  0  0  0  0  0  0  0  0  0  0
   63.2198   33.0139   49.1018 H   0  0  0  0  0  0  0  0  0  0  0  0
   63.0779   34.7737   49.0304 H   0  0  0  0  0  0  0  0  0  0  0  0
   60.9488   33.0415   49.5403 H   0  0  0  0  0  0  0  0  0  0  0  0
   60.7286   34.6748   48.8844 H   0  0  0  0  0  0  0  0  0  0  0  0
   57.6519   31.0263   46.7489 H   0  0  0  0  0  0  0  0  0  0  0  0
   56.9120   26.2250   43.7870 H   0  0  0  0  0  0  0  0  0  0  0  0
   59.0615   23.8868   45.5555 H   0  0  0  0  0  0  0  0  0  0  0  0
   59.2105   21.4414   45.0987 H   0  0  0  0  0  0  0  0  0  0  0  0
   57.6091   20.3643   43.5141 H   0  0  0  0  0  0  0  0  0  0  0  0
   55.8698   21.7412   42.3696 H   0  0  0  0  0  0  0  0  0  0  0  0
   55.7074   24.1891   42.8283 H   0  0  0  0  0  0  0  0  0  0  0  0
  1  2  2  0
  2  3  1  0
  3  4  1  0
  4  5  1  0
  5  6  2  0
  5  7  1  0
  7  8  2  0
  8  9  1  0
  9 10  2  0
 10 11  1  0
 11 12  1  0
 12 13  2  0
 12 14  2  0
 12 15  1  0
 15 16  1  0
 16 17  1  0
 17 18  1  0
 18 19  1  0
 11 20  2  0
  2 21  1  0
 21 22  1  0
 22 23  2  0
 23 24  1  0
 24 25  2  0
 25 26  1  0
 26 27  2  0
 20  7  1  0
 27 22  1  0
 19 15  1  0
  3 28  1  0
  3 29  1  0
  8 30  1  0
  9 31  1  0
 10 32  1  0
 16 33  1  0
 16 34  1  0
 17 35  1  0
 17 36  1  0
 18 37  1  0
 18 38  1  0
 19 39  1  0
 19 40  1  0
 20 41  1  0
 21 42  1  0
 23 43  1  0
 24 44  1  0
 25 45  1  0
 26 46  1  0
 27 47  1  0
M  CHG  1   4  -1
M  END
>  <UniqueID>  (22) 
21

>  <SMILES>  (22) 
O=C(C[N-]C(=O)c1cccc(S(=O)(=O)N2CCCC2)c1)Nc1ccccc1

>  <Energy>  (22) 
52.58521189682637

>  <Genealogy>  (22) 
O=C(C[N-]C(=O)c1cccc(S(=O)(=O)N2CCCC2)c1)Nc1ccccc1 (protonated)
O=C(C[N-]C(=O)c1cccc(S(=O)(=O)N2CCCC2)c1)Nc1ccccc1 (3D coordinates assigned)
O=C(C[N-]C(=O)c1cccc(S(=O)(=O)N2CCCC2)c1)Nc1ccccc1 (nonaromatic ring conformer: 52.58521189682637 kcal/mol)

>  <smiles>  (22) 
O=C(CNC(=O)c1cccc(S(=O)(=O)N2CCCC2)c1)Nc1ccccc1

>  <score_type>  (22) 
oracle

>  <origin>  (22) 
adg

>  <m_score__min__energy>  (22) 
-11.07

>  <m_primary>  (22) 
energy

$$$$
22:0
     RDKit          3D

 55 58  0  0  0  0  0  0  0  0999 V2000
   63.6550   32.8010   47.1360 C   0  0  0  0  0  0  0  0  0  0  0  0
   62.3890   33.2050   47.0050 C   0  0  0  0  0  0  0  0  0  0  0  0
   61.3100   32.7480   47.9490 C   0  0  0  0  0  0  0  0  0  0  0  0
   60.2700   31.9710   47.2330 N   0  0  0  0  0  0  0  0  0  0  0  0
   60.2240   30.6020   47.4160 C   0  0  0  0  0  0  0  0  0  0  0  0
   61.0660   30.0200   48.1540 O   0  0  0  0  0  0  0  0  0  0  0  0
   59.2410   29.8500   46.7600 C   0  0  0  0  0  0  0  0  0  0  0  0
   58.3510   30.4550   45.9190 C   0  0  0  0  0  0  0  0  0  0  0  0
   57.5340   29.4680   45.3990 C   0  0  0  0  0  0  0  0  0  0  0  0
   57.9890   28.2800   45.9540 C   0  0  0  0  0  0  0  0  0  0  0  0
   57.4260   26.9580   45.6170 C   0  0  0  0  0  0  0  0  0  0  0  0
   56.1780   26.7930   45.6600 O   0  0  0  0  0  0  0  0  0  0  0  0
   58.2790   25.8880   45.1830 N   0  0  0  0  0  0  0  0  0  0  0  0
   57.7900   24.5110   45.0380 C   0  0  2  0  0  0  0  0  0  0  0  0
   56.6610   24.4700   43.9750 C   0  0  0  0  0  0  0  0  0  0  0  0
   55.6510   23.3500   44.2480 C   0  0  0  0  0  0  0  0  0  0  0  0
   54.9540   23.5230   45.6240 C   0  0  2  0  0  0  0  0  0  0  0  0
   53.6200   24.2670   45.4810 C   0  0  0  0  0  0  0  0  0  0  0  0
   55.8550   24.2300   46.6690 C   0  0  0  0  0  0  0  0  0  0  0  0
   57.3380   23.9460   46.4090 C   0  0  0  0  0  0  0  0  0  0  0  0
   59.0180   28.5150   46.8120 N   0  0  0  0  0  0  0  0  0  0  0  0
   59.6960   27.5390   47.6700 C   0  0  0  0  0  0  0  0  0  0  0  0
   58.3760   31.8310   45.6920 C   0  0  0  0  0  0  0  0  0  0  0  0
   57.4630   32.4520   44.8230 C   0  0  0  0  0  0  0  0  0  0  0  0
   57.5220   33.8270   44.6120 C   0  0  0  0  0  0  0  0  0  0  0  0
   58.4870   34.5930   45.2600 C   0  0  0  0  0  0  0  0  0  0  0  0
   59.4020   33.9940   46.1290 C   0  0  0  0  0  0  0  0  0  0  0  0
   59.3690   32.5970   46.3730 C   0  0  0  0  0  0  0  0  0  0  0  0
   64.4207   33.1533   46.4292 H   0  0  0  0  0  0  0  0  0  0  0  0
   63.9322   32.1159   47.9507 H   0  0  0  0  0  0  0  0  0  0  0  0
   62.1279   33.8902   46.1851 H   0  0  0  0  0  0  0  0  0  0  0  0
   61.7588   32.1148   48.7285 H   0  0  0  0  0  0  0  0  0  0  0  0
   60.8379   33.6350   48.3966 H   0  0  0  0  0  0  0  0  0  0  0  0
   56.6995   29.5971   44.6941 H   0  0  0  0  0  0  0  0  0  0  0  0
   59.2690   26.1130   44.9380 H   0  0  0  0  0  0  0  0  0  0  0  0
   58.6047   23.8619   44.6844 H   0  0  0  0  0  0  0  0  0  0  0  0
   56.1317   25.4343   43.9826 H   0  0  0  0  0  0  0  0  0  0  0  0
   57.1246   24.2763   42.9965 H   0  0  0  0  0  0  0  0  0  0  0  0
   54.8859   23.3605   43.4578 H   0  0  0  0  0  0  0  0  0  0  0  0
   56.1958   22.3945   44.2592 H   0  0  0  0  0  0  0  0  0  0  0  0
   54.7573   22.5075   45.9982 H   0  0  0  0  0  0  0  0  0  0  0  0
   53.2167   24.4919   46.4794 H   0  0  0  0  0  0  0  0  0  0  0  0
   53.7809   25.2057   44.9305 H   0  0  0  0  0  0  0  0  0  0  0  0
   52.9059   23.6369   44.9305 H   0  0  0  0  0  0  0  0  0  0  0  0
   55.6831   25.3151   46.6145 H   0  0  0  0  0  0  0  0  0  0  0  0
   55.5976   23.8446   47.6666 H   0  0  0  0  0  0  0  0  0  0  0  0
   57.9369   24.4142   47.2041 H   0  0  0  0  0  0  0  0  0  0  0  0
   57.4854   22.8560   46.3999 H   0  0  0  0  0  0  0  0  0  0  0  0
   59.5193   27.7934   48.7255 H   0  0  0  0  0  0  0  0  0  0  0  0
   59.3011   26.5331   47.4642 H   0  0  0  0  0  0  0  0  0  0  0  0
   60.7764   27.5580   47.4642 H   0  0  0  0  0  0  0  0  0  0  0  0
   56.6996   31.8503   44.3080 H   0  0  0  0  0  0  0  0  0  0  0  0
   56.8045   34.3091   43.9317 H   0  0  0  0  0  0  0  0  0  0  0  0
   58.5293   35.6784   45.0864 H   0  0  0  0  0  0  0  0  0  0  0  0
   60.1589   34.6144   46.6312 H   0  0  0  0  0  0  0  0  0  0  0  0
  1  2  2  0
  2  3  1  0
  3  4  1  0
  4  5  1  0
  5  6  2  0
  5  7  1  0
  7  8  2  0
  8  9  1  0
  9 10  2  0
 10 11  1  0
 11 12  2  0
 11 13  1  0
 13 14  1  0
 14 15  1  0
 15 16  1  0
 16 17  1  0
 17 18  1  0
 17 19  1  0
 19 20  1  0
 10 21  1  0
 21 22  1  0
  8 23  1  0
 23 24  2  0
 24 25  1  0
 25 26  2  0
 26 27  1  0
 27 28  2  0
 28  4  1  0
 21  7  1  0
 28 23  1  0
 20 14  1  0
  1 29  1  0
  1 30  1  0
  2 31  1  0
  3 32  1  0
  3 33  1  0
  9 34  1  0
 13 35  1  0
 14 36  1  6
 15 37  1  0
 15 38  1  0
 16 39  1  0
 16 40  1  0
 17 41  1  1
 18 42  1  0
 18 43  1  0
 18 44  1  0
 19 45  1  0
 19 46  1  0
 20 47  1  0
 20 48  1  0
 22 49  1  0
 22 50  1  0
 22 51  1  0
 24 52  1  0
 25 53  1  0
 26 54  1  0
 27 55  1  0
M  END
>  <UniqueID>  (23) 
22

>  <SMILES>  (23) 
C=CCn1c(=O)c2c(cc(C(=O)NC3CCC(C)CC3)n2C)c2ccccc21

>  <Energy>  (23) 
103.56620760566322

>  <Genealogy>  (23) 
C=CCn1c(=O)c2c(cc(C(=O)NC3CCC(C)CC3)n2C)c2ccccc21 (3D coordinates assigned)
C=CCn1c(=O)c2c(cc(C(=O)NC3CCC(C)CC3)n2C)c2ccccc21 (nonaromatic ring conformer: 103.56620760566322 kcal/mol)

>  <smiles>  (23) 
C=CCn1c(=O)c2c(cc(C(=O)NC3CCC(C)CC3)n2C)c2ccccc21

>  <score_type>  (23) 
oracle

>  <origin>  (23) 
adg

>  <m_score__min__energy>  (23) 
-8.3499999999999996

>  <m_primary>  (23) 
energy

$$$$
23:0
     RDKit          3D

 38 40  0  0  1  0  0  0  0  0999 V2000
   63.3350   34.0950   45.9870 N   0  0  0  0  0  0  0  0  0  0  0  0
   62.8290   33.6490   47.2580 C   0  0  0  0  0  0  0  0  0  0  0  0
   63.5900   33.3350   48.2090 O   0  0  0  0  0  0  0  0  0  0  0  0
   61.3870   33.5580   47.4560 C   0  0  0  0  0  0  0  0  0  0  0  0
   60.5590   33.7960   46.3790 C   0  0  0  0  0  0  0  0  0  0  0  0
   59.2010   33.7000   46.6070 C   0  0  0  0  0  0  0  0  0  0  0  0
   58.3570   33.9040   45.6640 N   0  0  0  0  0  0  0  0  0  0  0  0
   57.9470   32.8820   44.7630 C   0  0  0  0  0  0  0  0  0  0  0  0
   58.2890   32.9140   43.4320 C   0  0  0  0  0  0  0  0  0  0  0  0
   57.8460   31.8800   42.6390 C   0  0  0  0  0  0  0  0  0  0  0  0
   57.0820   30.8420   43.1580 C   0  0  0  0  0  0  0  0  0  0  0  0
   56.7450   30.8170   44.4890 C   0  0  0  0  0  0  0  0  0  0  0  0
   55.9820   29.7720   44.9860 O   0  0  0  0  0  0  0  0  0  0  0  0
   57.1840   31.8570   45.3150 C   0  0  0  0  0  0  0  0  0  0  0  0
   58.7560   33.3870   47.8360 N   0  0  0  0  0  0  0  0  0  0  0  0
   59.5610   33.1530   48.8930 C   0  0  0  0  0  0  0  0  0  0  0  0
   59.0170   32.8230   50.1790 C   0  0  0  0  0  0  0  0  0  0  0  0
   58.2210   31.7460   50.4200 C   0  0  0  0  0  0  0  0  0  0  0  0
   57.7030   31.4470   51.6850 C   0  0  0  0  0  0  0  0  0  0  0  0
   57.9970   32.2650   52.7570 C   0  0  0  0  0  0  0  0  0  0  0  0
   57.4770   31.9570   54.0070 O   0  0  0  0  0  0  0  0  0  0  0  0
   58.8030   33.3590   52.5210 C   0  0  0  0  0  0  0  0  0  0  0  0
   59.3080   33.6460   51.2720 C   0  0  0  0  0  0  0  0  0  0  0  0
   60.8820   33.2470   48.6720 N   0  0  0  0  0  0  0  0  0  0  0  0
   64.1370   34.7800   45.9370 H   0  0  0  0  0  0  0  0  0  0  0  0
   62.9250   33.7550   45.0990 H   0  0  0  0  0  0  0  0  0  0  0  0
   60.9610   34.0499   45.3871 H   0  0  0  0  0  0  0  0  0  0  0  0
   58.8932   33.7341   43.0168 H   0  0  0  0  0  0  0  0  0  0  0  0
   58.1028   31.8753   41.5694 H   0  0  0  0  0  0  0  0  0  0  0  0
   56.7435   30.0316   42.4957 H   0  0  0  0  0  0  0  0  0  0  0  0
   55.8810   29.7480   45.9980 H   0  0  0  0  0  0  0  0  0  0  0  0
   56.9299   31.8647   46.3852 H   0  0  0  0  0  0  0  0  0  0  0  0
   57.9731   31.0792   49.5810 H   0  0  0  0  0  0  0  0  0  0  0  0
   57.0636   30.5629   51.8246 H   0  0  0  0  0  0  0  0  0  0  0  0
   58.0650   31.4350   54.6440 H   0  0  0  0  0  0  0  0  0  0  0  0
   59.0513   34.0259   53.3598 H   0  0  0  0  0  0  0  0  0  0  0  0
   59.9463   34.5310   51.1328 H   0  0  0  0  0  0  0  0  0  0  0  0
   61.5840   33.0830   49.4260 H   0  0  0  0  0  0  0  0  0  0  0  0
  1  2  1  0
  2  3  2  0
  2  4  1  0
  4  5  2  0
  5  6  1  0
  6  7  2  0
  7  8  1  0
  8  9  2  0
  9 10  1  0
 10 11  2  0
 11 12  1  0
 12 13  1  0
 12 14  2  0
  6 15  1  0
 15 16  2  0
 16 17  1  0
 17 18  2  0
 18 19  1  0
 19 20  2  0
 20 21  1  0
 20 22  1  0
 22 23  2  0
 16 24  1  0
 24  4  1  0
 14  8  1  0
 23 17  1  0
  1 25  1  0
  1 26  1  0
  5 27  1  0
  9 28  1  0
 10 29  1  0
 11 30  1  0
 13 31  1  0
 14 32  1  0
 18 33  1  0
 19 34  1  0
 21 35  1  0
 22 36  1  0
 23 37  1  0
 24 38  1  0
M  END
>  <smiles>  (24) 
NC(=O)c1cc(=Nc2cccc(O)c2)nc(-c2ccc(O)cc2)[nH]1

>  <score_type>  (24) 
oracle

>  <origin>  (24) 
adg

>  <m_score__min__energy>  (24) 
-7.9100000000000001

>  <m_primary>  (24) 
energy

$$$$
24:0
     RDKit          3D

 49 52  0  0  0  0  0  0  0  0999 V2000
   59.2750   35.2890   45.0000 C   0  0  0  0  0  0  0  0  0  0  0  0
   59.0960   34.3790   46.1780 C   0  0  0  0  0  0  0  0  0  0  0  0
   60.1020   34.2750   47.1510 C   0  0  0  0  0  0  0  0  0  0  0  0
   59.9520   33.3990   48.2300 C   0  0  0  0  0  0  0  0  0  0  0  0
   58.8040   32.5940   48.3420 C   0  0  0  0  0  0  0  0  0  0  0  0
   58.6250   31.6750   49.4920 C   0  0  0  0  0  0  0  0  0  0  0  0
   57.6880   31.8940   50.3070 O   0  0  0  0  0  0  0  0  0  0  0  0
   59.5090   30.5060   49.7180 C   0  0  0  0  0  0  0  0  0  0  0  0
   60.2740   30.3960   50.8890 C   0  0  0  0  0  0  0  0  0  0  0  0
   61.0910   29.2820   51.0760 C   0  0  0  0  0  0  0  0  0  0  0  0
   61.1590   28.3190   50.1210 N   0  0  0  0  0  0  0  0  0  0  0  0
   60.4620   28.3960   48.9560 C   0  0  0  0  0  0  0  0  0  0  0  0
   60.5780   27.4150   48.1050 N   0  0  0  0  0  0  0  0  0  0  0  0
   60.2620   27.4070   46.7040 C   0  0  0  0  0  0  0  0  0  0  0  0
   61.0870   26.9630   45.8600 O   0  0  0  0  0  0  0  0  0  0  0  0
   58.9180   27.8490   46.2580 C   0  0  0  0  0  0  0  0  0  0  0  0
   58.7270   29.1760   45.7850 C   0  0  0  0  0  0  0  0  0  0  0  0
   59.8690   30.1690   45.7490 C   0  0  0  0  0  0  0  0  0  0  0  0
   57.4460   29.5620   45.3480 C   0  0  0  0  0  0  0  0  0  0  0  0
   57.2260   30.7400   44.9570 O   0  0  0  0  0  0  0  0  0  0  0  0
   56.4080   28.6350   45.3340 C   0  0  0  0  0  0  0  0  0  0  0  0
   55.1460   28.9940   44.8720 O   0  0  0  0  0  0  0  0  0  0  0  0
   56.6360   27.3390   45.7850 C   0  0  0  0  0  0  0  0  0  0  0  0
   57.8540   26.9690   46.2820 N   0  0  0  0  0  0  0  0  0  0  0  0
   58.0100   25.5840   46.7650 C   0  0  0  0  0  0  0  0  0  0  0  0
   56.7460   24.7350   46.6690 C   0  0  0  0  0  0  0  0  0  0  0  0
   57.8780   24.5100   45.6860 C   0  0  0  0  0  0  0  0  0  0  0  0
   59.6130   29.5030   48.7400 C   0  0  0  0  0  0  0  0  0  0  0  0
   57.8000   32.7000   47.3640 C   0  0  0  0  0  0  0  0  0  0  0  0
   57.9510   33.5760   46.2850 C   0  0  0  0  0  0  0  0  0  0  0  0
   59.4760   36.3111   45.3534 H   0  0  0  0  0  0  0  0  0  0  0  0
   60.1214   34.9384   44.3911 H   0  0  0  0  0  0  0  0  0  0  0  0
   58.3589   35.2851   44.3911 H   0  0  0  0  0  0  0  0  0  0  0  0
   61.0128   34.8857   47.0642 H   0  0  0  0  0  0  0  0  0  0  0  0
   60.7378   33.3387   48.9974 H   0  0  0  0  0  0  0  0  0  0  0  0
   60.2294   31.1842   51.6550 H   0  0  0  0  0  0  0  0  0  0  0  0
   61.6816   29.1829   51.9987 H   0  0  0  0  0  0  0  0  0  0  0  0
   60.1642   30.4257   46.7771 H   0  0  0  0  0  0  0  0  0  0  0  0
   60.7256   29.7237   45.2219 H   0  0  0  0  0  0  0  0  0  0  0  0
   59.5470   31.0792   45.2219 H   0  0  0  0  0  0  0  0  0  0  0  0
   55.8225   26.5999   45.7409 H   0  0  0  0  0  0  0  0  0  0  0  0
   58.7429   25.8140   47.5524 H   0  0  0  0  0  0  0  0  0  0  0  0
   56.5309   23.9812   47.4407 H   0  0  0  0  0  0  0  0  0  0  0  0
   55.6712   24.9510   46.5786 H   0  0  0  0  0  0  0  0  0  0  0  0
   58.4837   23.5937   45.7456 H   0  0  0  0  0  0  0  0  0  0  0  0
   57.9634   24.4958   44.5894 H   0  0  0  0  0  0  0  0  0  0  0  0
   59.0341   29.5800   47.8078 H   0  0  0  0  0  0  0  0  0  0  0  0
   56.8890   32.0893   47.4482 H   0  0  0  0  0  0  0  0  0  0  0  0
   57.1673   33.6359   45.5154 H   0  0  0  0  0  0  0  0  0  0  0  0
  1  2  1  0
  2  3  2  0
  3  4  1  0
  4  5  2  0
  5  6  1  0
  6  7  2  0
  6  8  1  0
  8  9  1  0
  9 10  2  0
 10 11  1  0
 11 12  1  0
 12 13  2  3
 13 14  1  0
 14 15  2  0
 14 16  1  0
 16 17  2  0
 17 18  1  0
 17 19  1  0
 19 20  2  0
 19 21  1  0
 21 22  1  0
 21 23  2  0
 23 24  1  0
 24 25  1  0
 25 26  1  0
 26 27  1  0
 12 28  1  0
  5 29  1  0
 29 30  2  0
 30  2  1  0
 28  8  2  0
 24 16  1  0
 27 25  1  0
  1 31  1  0
  1 32  1  0
  1 33  1  0
  3 34  1  0
  4 35  1  0
  9 36  1  0
 10 37  1  0
 18 38  1  0
 18 39  1  0
 18 40  1  0
 23 41  1  0
 25 42  1  0
 26 43  1  0
 26 44  1  0
 27 45  1  0
 27 46  1  0
 28 47  1  0
 29 48  1  0
 30 49  1  0
M  CHG  2  11  -1  22  -1
M  END
>  <UniqueID>  (25) 
23

>  <SMILES>  (25) 
Cc1ccc(C(=O)c2cc[n-]c(=NC(=O)c3c(C)c(=O)c([O-])cn3C3CC3)c2)cc1

>  <Energy>  (25) 
341.9505091159561

>  <Genealogy>  (25) 
Cc1ccc(C(=O)c2cc[n-]c(=NC(=O)c3c(C)c(=O)c([O-])cn3C3CC3)c2)cc1 (protonated)
Cc1ccc(C(=O)c2cc[n-]c(=NC(=O)c3c(C)c(=O)c([O-])cn3C3CC3)c2)cc1 (3D coordinates assigned)
Cc1ccc(C(=O)c2cc[n-]c(=NC(=O)c3c(C)c(=O)c([O-])cn3C3CC3)c2)cc1 (nonaromatic ring conformer: 341.9505091159561 kcal/mol)

>  <smiles>  (25) 
Cc1ccc(C(=O)c2cc[nH]c(=NC(=O)c3c(C)c(=O)c(O)cn3C3CC3)c2)cc1

>  <score_type>  (25) 
oracle

>  <origin>  (25) 
adg

>  <m_score__min__energy>  (25) 
-12.52

>  <m_primary>  (25) 
energy

$$$$
25:0
     RDKit          3D

 50 53  0  0  0  0  0  0  0  0999 V2000
   58.7360   25.2030   45.1930 O   0  0  0  0  0  0  0  0  0  0  0  0
   57.7360   25.5340   45.8870 C   0  0  0  0  0  0  0  0  0  0  0  0
   57.8650   26.7390   46.7830 C   0  0  0  0  0  0  0  0  0  0  0  0
   59.4380   26.7320   47.7180 S   0  0  0  0  0  0  0  0  0  0  0  0
   59.3910   28.4840   48.1090 C   0  0  0  0  0  0  0  0  0  0  0  0
   58.9090   28.9540   49.2880 N   0  0  0  0  0  0  0  0  0  0  0  0
   59.0930   30.2820   49.1810 C   0  0  0  0  0  0  0  0  0  0  0  0
   58.7770   31.2580   50.1220 C   0  0  0  0  0  0  0  0  0  0  0  0
   59.0790   32.5950   49.8050 C   0  0  0  0  0  0  0  0  0  0  0  0
   59.6840   32.9200   48.5700 C   0  0  0  0  0  0  0  0  0  0  0  0
   59.9910   31.9100   47.6390 C   0  0  0  0  0  0  0  0  0  0  0  0
   59.6730   30.5930   47.9820 C   0  0  0  0  0  0  0  0  0  0  0  0
   59.8590   29.4590   47.2850 N   0  0  0  0  0  0  0  0  0  0  0  0
   60.4940   29.2860   45.9760 C   0  0  0  0  0  0  0  0  0  0  0  0
   59.4640   28.8940   44.9500 C   0  0  0  0  0  0  0  0  0  0  0  0
   59.7080   27.9140   44.1950 O   0  0  0  0  0  0  0  0  0  0  0  0
   58.2230   29.6150   44.8000 N   0  0  0  0  0  0  0  0  0  0  0  0
   58.0740   30.9830   45.3100 C   0  0  0  0  0  0  0  0  0  0  0  0
   57.0010   31.7330   44.5150 C   0  0  0  0  0  0  0  0  0  0  0  0
   55.8030   30.9830   44.4530 O   0  0  0  0  0  0  0  0  0  0  0  0
   56.0250   29.8010   43.7100 C   0  0  0  0  0  0  0  0  0  0  0  0
   57.0060   28.8780   44.4370 C   0  0  0  0  0  0  0  0  0  0  0  0
   56.4800   24.7490   45.7600 C   0  0  0  0  0  0  0  0  0  0  0  0
   56.5710   23.3530   45.6040 C   0  0  0  0  0  0  0  0  0  0  0  0
   55.4200   22.5750   45.4610 C   0  0  0  0  0  0  0  0  0  0  0  0
   54.1580   23.1770   45.4790 C   0  0  0  0  0  0  0  0  0  0  0  0
   53.0030   22.4100   45.3390 O   0  0  0  0  0  0  0  0  0  0  0  0
   54.0530   24.5590   45.6460 C   0  0  0  0  0  0  0  0  0  0  0  0
   55.2000   25.3470   45.7940 C   0  0  0  0  0  0  0  0  0  0  0  0
   55.0470   26.7130   45.9950 O   0  0  0  0  0  0  0  0  0  0  0  0
   57.8235   27.6477   46.1645 H   0  0  0  0  0  0  0  0  0  0  0  0
   57.0383   26.7135   47.5082 H   0  0  0  0  0  0  0  0  0  0  0  0
   58.3072   30.9929   51.0807 H   0  0  0  0  0  0  0  0  0  0  0  0
   58.8424   33.3933   50.5238 H   0  0  0  0  0  0  0  0  0  0  0  0
   59.9165   33.9691   48.3347 H   0  0  0  0  0  0  0  0  0  0  0  0
   60.4646   32.1488   46.6753 H   0  0  0  0  0  0  0  0  0  0  0  0
   60.9677   30.2316   45.6734 H   0  0  0  0  0  0  0  0  0  0  0  0
   61.2532   28.4931   46.0457 H   0  0  0  0  0  0  0  0  0  0  0  0
   57.7806   30.9453   46.3695 H   0  0  0  0  0  0  0  0  0  0  0  0
   59.0330   31.5111   45.2030 H   0  0  0  0  0  0  0  0  0  0  0  0
   56.7977   32.6968   45.0046 H   0  0  0  0  0  0  0  0  0  0  0  0
   57.3694   31.8928   43.4909 H   0  0  0  0  0  0  0  0  0  0  0  0
   55.0683   29.2753   43.5743 H   0  0  0  0  0  0  0  0  0  0  0  0
   56.4541   30.0732   42.7344 H   0  0  0  0  0  0  0  0  0  0  0  0
   56.5307   28.4896   45.3498 H   0  0  0  0  0  0  0  0  0  0  0  0
   57.2763   28.0457   43.7705 H   0  0  0  0  0  0  0  0  0  0  0  0
   57.5591   22.8697   45.5946 H   0  0  0  0  0  0  0  0  0  0  0  0
   55.5064   21.4858   45.3339 H   0  0  0  0  0  0  0  0  0  0  0  0
   52.2630   22.4380   46.0300 H   0  0  0  0  0  0  0  0  0  0  0  0
   53.0603   25.0326   45.6614 H   0  0  0  0  0  0  0  0  0  0  0  0
  1  2  2  0
  2  3  1  0
  3  4  1  0
  4  5  1  0
  5  6  2  0
  6  7  1  0
  7  8  2  0
  8  9  1  0
  9 10  2  0
 10 11  1  0
 11 12  2  0
 12 13  1  0
 13 14  1  0
 14 15  1  0
 15 16  2  0
 15 17  1  0
 17 18  1  0
 18 19  1  0
 19 20  1  0
 20 21  1  0
 21 22  1  0
  2 23  1  0
 23 24  2  0
 24 25  1  0
 25 26  2  0
 26 27  1  0
 26 28  1  0
 28 29  2  0
 29 30  1  0
 13  5  1  0
 22 17  1  0
 29 23  1  0
 12  7  1  0
  3 31  1  0
  3 32  1  0
  8 33  1  0
  9 34  1  0
 10 35  1  0
 11 36  1  0
 14 37  1  0
 14 38  1  0
 18 39  1  0
 18 40  1  0
 19 41  1  0
 19 42  1  0
 21 43  1  0
 21 44  1  0
 22 45  1  0
 22 46  1  0
 24 47  1  0
 25 48  1  0
 27 49  1  0
 28 50  1  0
M  CHG  1  30  -1
M  END
>  <UniqueID>  (26) 
24

>  <SMILES>  (26) 
O=C(CSc1nc2ccccc2n1CC(=O)N1CCOCC1)c1ccc(O)cc1[O-]

>  <Energy>  (26) 
92.23866781536397

>  <Genealogy>  (26) 
O=C(CSc1nc2ccccc2n1CC(=O)N1CCOCC1)c1ccc(O)cc1[O-] (protonated)
O=C(CSc1nc2ccccc2n1CC(=O)N1CCOCC1)c1ccc(O)cc1[O-] (3D coordinates assigned)
O=C(CSc1nc2ccccc2n1CC(=O)N1CCOCC1)c1ccc(O)cc1[O-] (nonaromatic ring conformer: 92.23866781536397 kcal/mol)

>  <smiles>  (26) 
O=C(CSc1nc2ccccc2n1CC(=O)N1CCOCC1)c1ccc(O)cc1O

>  <score_type>  (26) 
oracle

>  <origin>  (26) 
adg

>  <m_score__min__energy>  (26) 
-12.31

>  <m_primary>  (26) 
energy

$$$$
26:0
     RDKit          3D

 64 68  0  0  1  0  0  0  0  0999 V2000
   55.6760   30.9930   51.6160 N   0  0  0  0  0  0  0  0  0  0  0  0
   57.0430   30.6720   51.7450 C   0  0  0  0  0  0  0  0  0  0  0  0
   57.3840   29.4600   51.6490 O   0  0  0  0  0  0  0  0  0  0  0  0
   58.0680   31.7050   51.9870 C   0  0  0  0  0  0  0  0  0  0  0  0
   58.7660   31.7100   53.1840 C   0  0  0  0  0  0  0  0  0  0  0  0
   59.7220   32.7040   53.3880 C   0  0  0  0  0  0  0  0  0  0  0  0
   59.9480   33.6540   52.3970 C   0  0  0  0  0  0  0  0  0  0  0  0
   59.2630   33.6630   51.2010 C   0  0  0  0  0  0  0  0  0  0  0  0
   59.4360   34.5740   50.1920 O   0  0  0  0  0  0  0  0  0  0  0  0
   60.0060   34.3590   48.9780 C   0  0  0  0  0  0  0  0  0  0  0  0
   61.3140   34.0790   48.8740 N   0  0  0  0  0  0  0  0  0  0  0  0
   57.8880   27.9810   44.0000 C   0  0  0  0  0  0  0  0  0  0  0  0
   57.3140   28.5780   43.0310 N   0  0  0  0  0  0  0  0  0  0  0  0
   63.6650   32.3180   47.8280 C   0  0  0  0  0  0  0  0  0  0  0  0
   62.4780   31.4280   48.1460 C   0  0  0  0  0  0  0  0  0  0  0  0
   62.1320   31.1580   49.4510 C   0  0  0  0  0  0  0  0  0  0  0  0
   61.0540   30.3350   49.7150 C   0  0  0  0  0  0  0  0  0  0  0  0
   60.2950   29.7620   48.7140 C   0  0  0  0  0  0  0  0  0  0  0  0
   60.6440   30.0350   47.3910 C   0  0  0  0  0  0  0  0  0  0  0  0
   61.7240   30.8590   47.1420 C   0  0  0  0  0  0  0  0  0  0  0  0
   61.1530   33.9330   46.5550 C   0  0  0  0  0  0  0  0  0  0  0  0
   59.8010   34.2190   46.6310 C   0  0  0  0  0  0  0  0  0  0  0  0
   59.0880   34.2740   45.4580 O   0  0  0  0  0  0  0  0  0  0  0  0
   58.4510   33.1610   44.9090 C   0  0  0  0  0  0  0  0  0  0  0  0
   58.1630   33.0920   43.5420 C   0  0  0  0  0  0  0  0  0  0  0  0
   57.5230   31.9650   43.0180 C   0  0  0  0  0  0  0  0  0  0  0  0
   57.1810   30.9240   43.8610 C   0  0  0  0  0  0  0  0  0  0  0  0
   56.5020   29.7160   43.3740 C   0  0  0  0  0  0  0  0  0  0  0  0
   55.2460   29.6860   43.2610 O   0  0  0  0  0  0  0  0  0  0  0  0
   63.1540   33.6090   47.6950 N   0  0  0  0  0  0  0  0  0  0  0  0
   61.8980   33.8670   47.7050 C   0  0  0  0  0  0  0  0  0  0  0  0
   57.4700   27.0560   44.8420 N   0  0  0  0  0  0  0  0  0  0  0  0
   58.2290   26.5790   45.7720 C   0  0  0  0  0  0  0  0  0  0  0  0
   57.7980   25.5160   46.7620 C   0  0  0  0  0  0  0  0  0  0  0  0
   56.4630   25.5820   47.0210 F   0  0  0  0  0  0  0  0  0  0  0  0
   58.1030   24.2830   46.2630 F   0  0  0  0  0  0  0  0  0  0  0  0
   58.4710   25.6860   47.9350 F   0  0  0  0  0  0  0  0  0  0  0  0
   59.5420   27.0770   45.8710 C   0  0  0  0  0  0  0  0  0  0  0  0
   59.6370   28.3240   44.4950 S   0  0  0  0  0  0  0  0  0  0  0  0
   57.4770   31.0120   45.2210 C   0  0  0  0  0  0  0  0  0  0  0  0
   58.1100   32.1200   45.7590 C   0  0  0  0  0  0  0  0  0  0  0  0
   59.2590   34.4270   47.8570 N   0  0  0  0  0  0  0  0  0  0  0  0
   58.3180   32.6620   51.0280 C   0  0  0  0  0  0  0  0  0  0  0  0
   55.4420   31.8570   51.0680 H   0  0  0  0  0  0  0  0  0  0  0  0
   54.9000   30.4030   52.0420 H   0  0  0  0  0  0  0  0  0  0  0  0
   58.5707   30.9489   53.9538 H   0  0  0  0  0  0  0  0  0  0  0  0
   60.2942   32.7370   54.3269 H   0  0  0  0  0  0  0  0  0  0  0  0
   60.7057   34.4311   52.5756 H   0  0  0  0  0  0  0  0  0  0  0  0
   64.1423   31.9976   46.8902 H   0  0  0  0  0  0  0  0  0  0  0  0
   64.4293   32.2670   48.6175 H   0  0  0  0  0  0  0  0  0  0  0  0
   62.7103   31.5949   50.2785 H   0  0  0  0  0  0  0  0  0  0  0  0
   60.7904   30.1284   50.7628 H   0  0  0  0  0  0  0  0  0  0  0  0
   59.4414   29.1103   48.9522 H   0  0  0  0  0  0  0  0  0  0  0  0
   60.0685   29.6011   46.5600 H   0  0  0  0  0  0  0  0  0  0  0  0
   61.9943   31.0705   46.0969 H   0  0  0  0  0  0  0  0  0  0  0  0
   61.6275   33.7596   45.5779 H   0  0  0  0  0  0  0  0  0  0  0  0
   58.4402   33.9248   42.8790 H   0  0  0  0  0  0  0  0  0  0  0  0
   57.2934   31.9070   41.9438 H   0  0  0  0  0  0  0  0  0  0  0  0
   56.4400   26.6980   44.7250 H   0  0  0  0  0  0  0  0  0  0  0  0
   60.3249   26.7956   46.5906 H   0  0  0  0  0  0  0  0  0  0  0  0
   57.2003   30.1791   45.8841 H   0  0  0  0  0  0  0  0  0  0  0  0
   58.3367   32.1729   46.8341 H   0  0  0  0  0  0  0  0  0  0  0  0
   58.2390   34.6400   47.8680 H   0  0  0  0  0  0  0  0  0  0  0  0
   57.7462   32.6313   50.0888 H   0  0  0  0  0  0  0  0  0  0  0  0
  1  2  1  0
  2  3  2  0
  2  4  1  0
  4  5  2  0
  5  6  1  0
  6  7  2  0
  7  8  1  0
  8  9  1  0
  9 10  1  0
 10 11  2  0
 11 12  1  0
 12 13  2  0
 13 14  1  0
 14 15  1  0
 15 16  2  0
 16 17  1  0
 17 18  2  0
 18 19  1  0
 19 20  2  0
 12 21  1  0
 21 22  2  0
 22 23  1  0
 23 24  1  0
 24 25  2  0
 25 26  1  0
 26 27  2  0
 27 28  1  0
 28 29  2  0
 28 30  1  0
 30 31  2  0
 31 32  1  0
 32 33  1  0
 33 34  1  0
 34 35  1  0
 34 36  1  0
 34 37  1  0
 33 38  2  0
 38 39  1  0
 27 40  1  0
 40 41  2  0
 22 42  1  0
  8 43  2  0
 43  4  1  0
 42 10  1  0
 20 15  1  0
 41 24  1  0
 39 31  1  0
  1 44  1  0
  1 45  1  0
  5 46  1  0
  6 47  1  0
  7 48  1  0
 14 49  1  0
 14 50  1  0
 16 51  1  0
 17 52  1  0
 18 53  1  0
 19 54  1  0
 20 55  1  0
 21 56  1  0
 25 57  1  0
 26 58  1  0
 32 59  1  0
 38 60  1  0
 40 61  1  0
 41 62  1  0
 42 63  1  0
 43 64  1  0
M  END
>  <smiles>  (27) 
NC(=O)c1cccc(Oc2nc(=NCc3ccccc3)cc(Oc3ccc(C(=O)N=c4[nH]c(C(F)(F)F)cs4)cc3)[nH]2)c1

>  <score_type>  (27) 
oracle

>  <origin>  (27) 
adg

>  <m_score__min__energy>  (27) 
-11.140000000000001

>  <m_primary>  (27) 
energy

$$$$
27:0
     RDKit          3D

 41 43  0  0  0  0  0  0  0  0999 V2000
   57.3470   32.7360   45.0270 C   0  0  0  0  0  0  0  0  0  0  0  0
   58.4960   33.2350   45.8530 C   0  0  0  0  0  0  0  0  0  0  0  0
   58.4810   34.5380   46.3730 C   0  0  0  0  0  0  0  0  0  0  0  0
   59.5680   35.0130   47.1080 C   0  0  0  0  0  0  0  0  0  0  0  0
   60.6830   34.1970   47.3170 C   0  0  0  0  0  0  0  0  0  0  0  0
   60.7280   32.9030   46.7860 C   0  0  0  0  0  0  0  0  0  0  0  0
   61.8880   32.1380   46.9980 O   0  0  0  0  0  0  0  0  0  0  0  0
   62.1120   31.2650   48.1070 C   0  0  0  0  0  0  0  0  0  0  0  0
   60.9220   30.3820   48.3610 C   0  0  0  0  0  0  0  0  0  0  0  0
   60.0510   30.6660   49.4200 C   0  0  0  0  0  0  0  0  0  0  0  0
   58.9480   29.8370   49.6260 C   0  0  0  0  0  0  0  0  0  0  0  0
   58.1480   30.0670   50.5710 O   0  0  0  0  0  0  0  0  0  0  0  0
   58.7370   28.7500   48.7780 C   0  0  0  0  0  0  0  0  0  0  0  0
   59.6450   28.5230   47.7330 C   0  0  0  0  0  0  0  0  0  0  0  0
   59.4730   27.3630   46.8010 C   0  0  0  0  0  0  0  0  0  0  0  0
   58.0230   27.1740   46.4770 C   0  0  0  0  0  0  0  0  0  0  0  0
   57.3330   26.0540   46.7830 N   0  0  0  0  0  0  0  0  0  0  0  0
   56.1160   26.2790   46.2500 C   0  0  0  0  0  0  0  0  0  0  0  0
   55.1730   25.4490   46.3250 O   0  0  0  0  0  0  0  0  0  0  0  0
   56.0040   27.4630   45.6210 N   0  0  0  0  0  0  0  0  0  0  0  0
   57.2090   28.0370   45.7630 C   0  0  0  0  0  0  0  0  0  0  0  0
   57.5950   29.3420   45.1390 C   0  0  0  0  0  0  0  0  0  0  0  0
   60.6880   29.3330   47.5720 O   0  0  0  0  0  0  0  0  0  0  0  0
   59.6260   32.4230   46.0510 C   0  0  0  0  0  0  0  0  0  0  0  0
   56.5426   32.3866   45.6910 H   0  0  0  0  0  0  0  0  0  0  0  0
   56.9703   33.5516   44.3922 H   0  0  0  0  0  0  0  0  0  0  0  0
   57.6858   31.9040   44.3922 H   0  0  0  0  0  0  0  0  0  0  0  0
   57.6098   35.1871   46.2008 H   0  0  0  0  0  0  0  0  0  0  0  0
   59.5471   36.0313   47.5235 H   0  0  0  0  0  0  0  0  0  0  0  0
   61.5329   34.5752   47.9041 H   0  0  0  0  0  0  0  0  0  0  0  0
   62.9870   30.6334   47.8939 H   0  0  0  0  0  0  0  0  0  0  0  0
   62.2829   31.8807   49.0024 H   0  0  0  0  0  0  0  0  0  0  0  0
   60.2334   31.5282   50.0783 H   0  0  0  0  0  0  0  0  0  0  0  0
   57.8747   28.0832   48.9258 H   0  0  0  0  0  0  0  0  0  0  0  0
   60.0311   27.5560   45.8729 H   0  0  0  0  0  0  0  0  0  0  0  0
   59.8555   26.4523   47.2851 H   0  0  0  0  0  0  0  0  0  0  0  0
   55.1710   27.8420   45.1180 H   0  0  0  0  0  0  0  0  0  0  0  0
   57.8121   30.0761   45.9289 H   0  0  0  0  0  0  0  0  0  0  0  0
   58.4895   29.1996   44.5148 H   0  0  0  0  0  0  0  0  0  0  0  0
   56.7670   29.7091   44.5148 H   0  0  0  0  0  0  0  0  0  0  0  0
   59.6501   31.4071   45.6298 H   0  0  0  0  0  0  0  0  0  0  0  0
  1  2  1  0
  2  3  2  0
  3  4  1  0
  4  5  2  0
  5  6  1  0
  6  7  1  0
  7  8  1  0
  8  9  1  0
  9 10  2  0
 10 11  1  0
 11 12  2  0
 11 13  1  0
 13 14  2  0
 14 15  1  0
 15 16  1  0
 16 17  1  0
 17 18  1  0
 18 19  2  0
 18 20  1  0
 20 21  1  0
 21 22  1  0
 14 23  1  0
  6 24  2  0
 24  2  1  0
 23  9  1  0
 21 16  2  0
  1 25  1  0
  1 26  1  0
  1 27  1  0
  3 28  1  0
  4 29  1  0
  5 30  1  0
  8 31  1  0
  8 32  1  0
 10 33  1  0
 13 34  1  0
 15 35  1  0
 15 36  1  0
 20 37  1  0
 22 38  1  0
 22 39  1  0
 22 40  1  0
 24 41  1  0
M  CHG  1  17  -1
M  END
>  <UniqueID>  (28) 
25

>  <SMILES>  (28) 
Cc1cccc(OCc2cc(=O)cc(Cc3[n-]c(=O)[nH]c3C)o2)c1

>  <Energy>  (28) 
67.82092568813877

>  <Genealogy>  (28) 
Cc1cccc(OCc2cc(=O)cc(Cc3[n-]c(=O)[nH]c3C)o2)c1 (protonated)
Cc1cccc(OCc2cc(=O)cc(Cc3[n-]c(=O)[nH]c3C)o2)c1 (3D coordinates assigned)
Cc1cccc(OCc2cc(=O)cc(Cc3[n-]c(=O)[nH]c3C)o2)c1 (optimized conformer: 67.82092568813877 kcal/mol)

>  <smiles>  (28) 
Cc1cccc(OCc2cc(=O)cc(Cc3[nH]c(=O)[nH]c3C)o2)c1

>  <score_type>  (28) 
oracle

>  <origin>  (28) 
adg

>  <m_score__min__energy>  (28) 
-9.6099999999999994

>  <m_primary>  (28) 
energy

$$$$
28:0
     RDKit          3D

 43 45  0  0  0  0  0  0  0  0999 V2000
   60.0830   30.9440   47.6460 C   0  0  0  0  0  0  0  0  0  0  0  0
   59.2890   31.9180   46.8170 C   0  0  0  0  0  0  0  0  0  0  0  0
   58.6640   31.4790   45.6430 C   0  0  0  0  0  0  0  0  0  0  0  0
   57.9510   32.3410   44.8610 N   0  0  0  0  0  0  0  0  0  0  0  0
   57.4070   31.8620   43.5810 C   0  0  0  0  0  0  0  0  0  0  0  0
   57.3200   30.4060   43.6100 N   0  0  0  0  0  0  0  0  0  0  0  0
   56.3370   29.7370   44.4090 C   0  0  0  0  0  0  0  0  0  0  0  0
   55.1550   30.1740   44.4420 O   0  0  0  0  0  0  0  0  0  0  0  0
   56.6590   28.5500   45.1500 N   0  0  0  0  0  0  0  0  0  0  0  0
   57.8430   28.2020   45.5610 C   0  0  0  0  0  0  0  0  0  0  0  0
   58.9290   28.5320   44.8130 N   0  0  0  0  0  0  0  0  0  0  0  0
   60.1810   28.1590   45.1870 C   0  0  0  0  0  0  0  0  0  0  0  0
   60.3660   27.4200   46.3560 C   0  0  0  0  0  0  0  0  0  0  0  0
   59.2450   27.0840   47.1120 C   0  0  0  0  0  0  0  0  0  0  0  0
   58.0110   27.4730   46.7000 N   0  0  0  0  0  0  0  0  0  0  0  0
   57.8530   33.6590   45.2190 C   0  0  0  0  0  0  0  0  0  0  0  0
   57.2240   34.4800   44.4980 O   0  0  0  0  0  0  0  0  0  0  0  0
   58.4490   34.1030   46.3540 N   0  0  0  0  0  0  0  0  0  0  0  0
   59.1600   33.2790   47.1660 C   0  0  0  0  0  0  0  0  0  0  0  0
   59.8420   33.8870   48.3670 C   0  0  0  0  0  0  0  0  0  0  0  0
   61.3390   33.7650   48.2440 C   0  0  0  0  0  0  0  0  0  0  0  0
   61.9490   33.8170   46.9790 C   0  0  0  0  0  0  0  0  0  0  0  0
   63.3340   33.6710   46.8550 C   0  0  0  0  0  0  0  0  0  0  0  0
   64.1200   33.4740   47.9930 C   0  0  0  0  0  0  0  0  0  0  0  0
   63.5250   33.4330   49.2570 C   0  0  0  0  0  0  0  0  0  0  0  0
   62.1390   33.5800   49.3840 C   0  0  0  0  0  0  0  0  0  0  0  0
   59.9155   31.1494   48.7136 H   0  0  0  0  0  0  0  0  0  0  0  0
   59.7607   29.9180   47.4151 H   0  0  0  0  0  0  0  0  0  0  0  0
   61.1530   31.0529   47.4151 H   0  0  0  0  0  0  0  0  0  0  0  0
   58.7491   30.4231   45.3466 H   0  0  0  0  0  0  0  0  0  0  0  0
   56.4045   32.2872   43.4254 H   0  0  0  0  0  0  0  0  0  0  0  0
   58.0671   32.1759   42.7590 H   0  0  0  0  0  0  0  0  0  0  0  0
   58.1290   29.8590   43.2380 H   0  0  0  0  0  0  0  0  0  0  0  0
   61.0470   28.4391   44.5693 H   0  0  0  0  0  0  0  0  0  0  0  0
   61.3727   27.1101   46.6731 H   0  0  0  0  0  0  0  0  0  0  0  0
   59.3593   26.5050   48.0403 H   0  0  0  0  0  0  0  0  0  0  0  0
   59.5704   34.9506   48.4372 H   0  0  0  0  0  0  0  0  0  0  0  0
   59.5151   33.3508   49.2701 H   0  0  0  0  0  0  0  0  0  0  0  0
   61.3332   33.9735   46.0811 H   0  0  0  0  0  0  0  0  0  0  0  0
   63.8046   33.7112   45.8616 H   0  0  0  0  0  0  0  0  0  0  0  0
   65.2086   33.3510   47.8941 H   0  0  0  0  0  0  0  0  0  0  0  0
   64.1464   33.2851   50.1525 H   0  0  0  0  0  0  0  0  0  0  0  0
   61.6741   33.5506   50.3805 H   0  0  0  0  0  0  0  0  0  0  0  0
  1  2  1  0
  2  3  2  0
  3  4  1  0
  4  5  1  0
  5  6  1  0
  6  7  1  0
  7  8  2  0
  7  9  1  0
  9 10  2  3
 10 11  1  0
 11 12  2  0
 12 13  1  0
 13 14  2  0
 14 15  1  0
  4 16  1  0
 16 17  2  0
 16 18  1  0
 18 19  2  0
 19 20  1  0
 20 21  1  0
 21 22  2  0
 22 23  1  0
 23 24  2  0
 24 25  1  0
 25 26  2  0
 19  2  1  0
 26 21  1  0
 15 10  1  0
  1 27  1  0
  1 28  1  0
  1 29  1  0
  3 30  1  0
  5 31  1  0
  5 32  1  0
  6 33  1  0
 12 34  1  0
 13 35  1  0
 14 36  1  0
 20 37  1  0
 20 38  1  0
 22 39  1  0
 23 40  1  0
 24 41  1  0
 25 42  1  0
 26 43  1  0
M  CHG  1  15  -1
M  END
>  <UniqueID>  (29) 
26

>  <SMILES>  (29) 
Cc1cn(CNC(=O)N=c2nccc[n-]2)c(=O)nc1Cc1ccccc1

>  <Energy>  (29) 
48.758275837438454

>  <Genealogy>  (29) 
Cc1cn(CNC(=O)N=c2nccc[n-]2)c(=O)nc1Cc1ccccc1 (protonated)
Cc1cn(CNC(=O)N=c2nccc[n-]2)c(=O)nc1Cc1ccccc1 (3D coordinates assigned)
Cc1cn(CNC(=O)N=c2nccc[n-]2)c(=O)nc1Cc1ccccc1 (optimized conformer: 48.758275837438454 kcal/mol)

>  <smiles>  (29) 
Cc1cn(CNC(=O)N=c2nccc[nH]2)c(=O)nc1Cc1ccccc1

>  <score_type>  (29) 
oracle

>  <origin>  (29) 
adg

>  <m_score__min__energy>  (29) 
-9.6400000000000006

>  <m_primary>  (29) 
energy

$$$$
29:0
     RDKit          3D

 55 58  0  0  0  0  0  0  0  0999 V2000
   56.9862   32.1132   52.3020 H   0  0  0  0  0  0  0  0  0  0  0  0
   55.8980   31.9610   52.3540 C   0  0  0  0  0  0  0  0  0  0  0  0
   55.2147   32.7890   52.1142 H   0  0  0  0  0  0  0  0  0  0  0  0
   55.4040   30.7650   52.7100 C   0  0  0  0  0  0  0  0  0  0  0  0
   54.0530   30.4220   52.8200 C   0  0  0  0  0  0  0  0  0  0  0  0
   52.9890   31.2190   52.6110 C   0  0  0  0  0  0  0  0  0  0  0  0
   52.6535   31.8624   53.4377 H   0  0  0  0  0  0  0  0  0  0  0  0
   52.2470   31.2800   51.3390 C   0  0  0  0  0  0  0  0  0  0  0  0
   52.2510   30.2860   50.4340 N   0  0  0  0  0  0  0  0  0  0  0  0
   51.3900   30.7210   49.4870 C   0  0  0  0  0  0  0  0  0  0  0  0
   51.1310   30.0570   48.4500 O   0  0  0  0  0  0  0  0  0  0  0  0
   50.8180   31.9170   49.7470 N   0  0  0  0  0  0  0  0  0  0  0  0
   51.3620   32.2530   50.9280 C   0  0  0  0  0  0  0  0  0  0  0  0
   51.0200   33.4000   51.6330 O   0  0  0  0  0  0  0  0  0  0  0  0
   54.0200   29.0990   53.2450 C   0  0  0  0  0  0  0  0  0  0  0  0
   53.1226   28.4941   53.4418 H   0  0  0  0  0  0  0  0  0  0  0  0
   55.3340   28.6920   53.3720 C   0  0  0  0  0  0  0  0  0  0  0  0
   55.7700   27.3160   53.7740 C   0  0  0  0  0  0  0  0  0  0  0  0
   55.7926   27.2445   54.8714 H   0  0  0  0  0  0  0  0  0  0  0  0
   55.0625   26.5754   53.3728 H   0  0  0  0  0  0  0  0  0  0  0  0
   56.7749   27.1179   53.3728 H   0  0  0  0  0  0  0  0  0  0  0  0
   56.1720   29.6960   53.0350 N   0  0  0  0  0  0  0  0  0  0  0  0
   57.6060   29.6190   53.0190 C   0  0  0  0  0  0  0  0  0  0  0  0
   58.2010   28.9910   53.9370 O   0  0  0  0  0  0  0  0  0  0  0  0
   58.3600   30.2380   51.9600 N   0  0  0  0  0  0  0  0  0  0  0  0
   59.8040   30.4580   52.1190 C   0  0  0  0  0  0  0  0  0  0  0  0
   60.0372   30.5765   53.1874 H   0  0  0  0  0  0  0  0  0  0  0  0
   60.3445   29.5925   51.7082 H   0  0  0  0  0  0  0  0  0  0  0  0
   60.2380   31.7200   51.3640 C   0  0  0  0  0  0  0  0  0  0  0  0
   59.8637   32.6039   51.9012 H   0  0  0  0  0  0  0  0  0  0  0  0
   61.3367   31.7288   51.3111 H   0  0  0  0  0  0  0  0  0  0  0  0
   59.7120   31.7370   49.9940 N   0  0  0  0  0  0  0  0  0  0  0  0
   60.0920   32.8170   49.1220 C   0  0  0  0  0  0  0  0  0  0  0  0
   60.0410   34.0020   49.5460 O   0  0  0  0  0  0  0  0  0  0  0  0
   60.5600   32.5820   47.7860 N   0  0  0  0  0  0  0  0  0  0  0  0
   59.8460   32.9300   46.5600 C   0  0  0  0  0  0  0  0  0  0  0  0
   60.0837   32.1339   45.8391 H   0  0  0  0  0  0  0  0  0  0  0  0
   58.3560   33.0540   46.8310 C   0  0  0  0  0  0  0  0  0  0  0  0
   57.8631   32.0762   46.7260 H   0  0  0  0  0  0  0  0  0  0  0  0
   58.1542   33.4053   47.8537 H   0  0  0  0  0  0  0  0  0  0  0  0
   57.8340   34.0290   45.7840 C   0  0  0  0  0  0  0  0  0  0  0  0
   57.3970   33.4787   44.9377 H   0  0  0  0  0  0  0  0  0  0  0  0
   57.0490   34.6763   46.2020 H   0  0  0  0  0  0  0  0  0  0  0  0
   59.0330   34.8510   45.3150 C   0  0  0  0  0  0  0  0  0  0  0  0
   59.1566   34.7519   44.2265 H   0  0  0  0  0  0  0  0  0  0  0  0
   58.8911   35.9178   45.5425 H   0  0  0  0  0  0  0  0  0  0  0  0
   60.2580   34.3000   46.0330 C   0  0  0  0  0  0  0  0  0  0  0  0
   61.1016   34.2041   45.3336 H   0  0  0  0  0  0  0  0  0  0  0  0
   60.5860   34.9655   46.8451 H   0  0  0  0  0  0  0  0  0  0  0  0
   58.7400   30.7300   49.5560 C   0  0  0  0  0  0  0  0  0  0  0  0
   58.2224   31.0923   48.6555 H   0  0  0  0  0  0  0  0  0  0  0  0
   59.2706   29.7926   49.3331 H   0  0  0  0  0  0  0  0  0  0  0  0
   57.7120   30.4710   50.6600 C   0  0  0  0  0  0  0  0  0  0  0  0
   57.0495   31.3452   50.7430 H   0  0  0  0  0  0  0  0  0  0  0  0
   57.1412   29.5692   50.3937 H   0  0  0  0  0  0  0  0  0  0  0  0
  1  2  1  0
  2  3  1  0
  2  4  2  0
  4  5  1  0
  5  6  2  0
  6  7  1  0
  6  8  1  0
  8  9  1  0
  9 10  1  0
 10 11  2  0
 10 12  1  0
 12 13  1  0
 13 14  1  0
  5 15  1  0
 15 16  1  0
 15 17  2  0
 17 18  1  0
 18 19  1  0
 18 20  1  0
 18 21  1  0
 17 22  1  0
 22 23  1  0
 23 24  2  0
 23 25  1  0
 25 26  1  0
 26 27  1  0
 26 28  1  0
 26 29  1  0
 29 30  1  0
 29 31  1  0
 29 32  1  0
 32 33  1  0
 33 34  2  0
 33 35  1  0
 35 36  1  0
 36 37  1  0
 36 38  1  0
 38 39  1  0
 38 40  1  0
 38 41  1  0
 41 42  1  0
 41 43  1  0
 41 44  1  0
 44 45  1  0
 44 46  1  0
 44 47  1  0
 47 48  1  0
 47 49  1  0
 32 50  1  0
 50 51  1  0
 50 52  1  0
 50 53  1  0
 53 54  1  0
 53 55  1  0
 22  4  1  0
 53 25  1  0
 13  8  2  0
 47 36  1  0
M  CHG  4   9  -1  12  -1  14  -1  35  -1
M  END
>  <UniqueID>  (30) 
27

>  <SMILES>  (30) 
C=c1/c(=C/c2[n-]c(=O)[n-]c2[O-])cc(C)n1C(=O)N1CCN(C(=O)[N-]C2CCCC2)CC1

>  <Energy>  (30) 
128.03136557366068

>  <Genealogy>  (30) 
C=c1c(=Cc2[n-]c(=O)[n-]c2[O-])cc(C)n1C(=O)N1CCN(C(=O)[N-]C2CCCC2)CC1 (protonated)
C=c1/c(=C/c2[n-]c(=O)[n-]c2[O-])cc(C)n1C(=O)N1CCN(C(=O)[N-]C2CCCC2)CC1 (cis-trans isomerization)
C=c1/c(=C/c2[n-]c(=O)[n-]c2[O-])cc(C)n1C(=O)N1CCN(C(=O)[N-]C2CCCC2)CC1 (3D coordinates assigned)
C=c1/c(=C/c2[n-]c(=O)[n-]c2[O-])cc(C)n1C(=O)N1CCN(C(=O)[N-]C2CCCC2)CC1 (nonaromatic ring conformer: 128.03136557366068 kcal/mol)

>  <smiles>  (30) 
C=c1c(=Cc2[nH]c(=O)[nH]c2O)cc(C)n1C(=O)N1CCN(C(=O)NC2CCCC2)CC1

>  <score_type>  (30) 
oracle

>  <origin>  (30) 
adg

>  <m_score__min__energy>  (30) 
-18.550000000000001

>  <m_primary>  (30) 
energy

$$$$
30:0
     RDKit          3D

 34 35  0  0  0  0  0  0  0  0999 V2000
   57.4270   34.1790   44.8790 C   0  0  0  0  0  0  0  0  0  0  0  0
   58.5870   34.2300   46.2830 S   0  0  0  0  0  0  0  0  0  0  0  0
   57.9630   32.7160   47.0920 C   0  0  0  0  0  0  0  0  0  0  0  0
   58.2460   31.5160   46.2500 C   0  0  0  0  0  0  0  0  0  0  0  0
   57.3590   30.9930   45.3740 N   0  0  0  0  0  0  0  0  0  0  0  0
   57.8510   29.8910   44.7510 C   0  0  0  0  0  0  0  0  0  0  0  0
   59.1450   29.5420   45.1220 C   0  0  0  0  0  0  0  0  0  0  0  0
   59.8620   28.2960   44.7090 C   0  0  0  0  0  0  0  0  0  0  0  0
   58.9500   27.1510   44.8140 N   0  0  0  0  0  0  0  0  0  0  0  0
   57.9950   26.8700   43.7380 C   0  0  0  0  0  0  0  0  0  0  0  0
   58.9340   26.3710   46.0260 C   0  0  0  0  0  0  0  0  0  0  0  0
   59.8480   25.5280   46.2390 O   0  0  0  0  0  0  0  0  0  0  0  0
   57.9130   26.6170   47.0980 C   0  0  0  0  0  0  0  0  0  0  0  0
   56.6250   25.9530   46.7190 C   0  0  0  0  0  0  0  0  0  0  0  0
   56.3580   24.6500   46.9200 N   0  0  0  0  0  0  0  0  0  0  0  0
   55.1510   24.4860   46.3370 C   0  0  0  0  0  0  0  0  0  0  0  0
   54.5530   23.3790   46.3180 O   0  0  0  0  0  0  0  0  0  0  0  0
   54.6410   25.5980   45.7650 N   0  0  0  0  0  0  0  0  0  0  0  0
   55.5910   26.5150   46.0090 C   0  0  0  0  0  0  0  0  0  0  0  0
   55.5200   27.8340   45.5790 O   0  0  0  0  0  0  0  0  0  0  0  0
   59.6750   30.6270   46.2920 S   0  0  0  0  0  0  0  0  0  0  0  0
   56.3951   34.1336   45.2574 H   0  0  0  0  0  0  0  0  0  0  0  0
   57.5533   35.0836   44.2660 H   0  0  0  0  0  0  0  0  0  0  0  0
   57.6322   33.2890   44.2660 H   0  0  0  0  0  0  0  0  0  0  0  0
   58.4568   32.5977   48.0678 H   0  0  0  0  0  0  0  0  0  0  0  0
   56.8749   32.8075   47.2250 H   0  0  0  0  0  0  0  0  0  0  0  0
   57.2715   29.3194   44.0111 H   0  0  0  0  0  0  0  0  0  0  0  0
   60.2051   28.3977   43.6688 H   0  0  0  0  0  0  0  0  0  0  0  0
   60.7294   28.1363   45.3664 H   0  0  0  0  0  0  0  0  0  0  0  0
   57.0258   26.5848   44.1732 H   0  0  0  0  0  0  0  0  0  0  0  0
   57.8677   27.7688   43.1167 H   0  0  0  0  0  0  0  0  0  0  0  0
   58.3748   26.0455   43.1167 H   0  0  0  0  0  0  0  0  0  0  0  0
   58.2736   26.2019   48.0507 H   0  0  0  0  0  0  0  0  0  0  0  0
   57.7500   27.6992   47.2093 H   0  0  0  0  0  0  0  0  0  0  0  0
  1  2  1  0
  2  3  1  0
  3  4  1  0
  4  5  2  0
  5  6  1  0
  6  7  2  0
  7  8  1  0
  8  9  1  0
  9 10  1  0
  9 11  1  0
 11 12  2  0
 11 13  1  0
 13 14  1  0
 14 15  1  0
 15 16  1  0
 16 17  2  0
 16 18  1  0
 18 19  1  0
 19 20  1  0
  7 21  1  0
 21  4  1  0
 19 14  2  0
  1 22  1  0
  1 23  1  0
  1 24  1  0
  3 25  1  0
  3 26  1  0
  6 27  1  0
  8 28  1  0
  8 29  1  0
 10 30  1  0
 10 31  1  0
 10 32  1  0
 13 33  1  0
 13 34  1  0
M  CHG  3  15  -1  18  -1  20  -1
M  END
>  <UniqueID>  (31) 
28

>  <SMILES>  (31) 
CSCc1ncc(CN(C)C(=O)Cc2[n-]c(=O)[n-]c2[O-])s1

>  <Energy>  (31) 
81.21890992924159

>  <Genealogy>  (31) 
CSCc1ncc(CN(C)C(=O)Cc2[n-]c(=O)[n-]c2[O-])s1 (protonated)
CSCc1ncc(CN(C)C(=O)Cc2[n-]c(=O)[n-]c2[O-])s1 (3D coordinates assigned)
CSCc1ncc(CN(C)C(=O)Cc2[n-]c(=O)[n-]c2[O-])s1 (optimized conformer: 81.21890992924159 kcal/mol)

>  <smiles>  (31) 
CSCc1ncc(CN(C)C(=O)Cc2[nH]c(=O)[nH]c2O)s1

>  <score_type>  (31) 
oracle

>  <origin>  (31) 
adg

>  <m_score__min__energy>  (31) 
-14.84

>  <m_primary>  (31) 
energy

$$$$
31:0
     RDKit          3D

 63 66  0  0  0  0  0  0  0  0999 V2000
   56.7130   25.6360   44.8970 O   0  0  0  0  0  0  0  0  0  0  0  0
   57.7690   26.2590   44.5990 C   0  0  0  0  0  0  0  0  0  0  0  0
   57.7730   27.1650   43.4100 C   0  0  0  0  0  0  0  0  0  0  0  0
   58.2760   28.4830   43.7960 N   0  0  0  0  0  0  0  0  0  0  0  0
   57.4830   29.4270   44.5410 C   0  0  0  0  0  0  0  0  0  0  0  0
   56.2490   29.2150   44.7050 O   0  0  0  0  0  0  0  0  0  0  0  0
   58.0900   30.6530   45.1150 C   0  0  0  0  0  0  0  0  0  0  0  0
   57.4670   31.9030   44.9280 C   0  0  0  0  0  0  0  0  0  0  0  0
   58.0170   33.0620   45.4810 C   0  0  0  0  0  0  0  0  0  0  0  0
   59.1940   32.9930   46.2370 C   0  0  0  0  0  0  0  0  0  0  0  0
   59.8750   34.4540   46.9570 S   0  0  0  0  0  0  0  0  0  0  0  0
   59.8240   35.5690   45.9500 O   0  0  0  0  0  0  0  0  0  0  0  0
   59.0390   34.8570   48.1390 O   0  0  0  0  0  0  0  0  0  0  0  0
   61.5260   34.2180   47.4740 N   0  0  0  0  0  0  0  0  0  0  0  0
   61.5700   33.4010   48.6980 C   0  0  0  0  0  0  0  0  0  0  0  0
   63.0160   32.9730   49.0200 C   0  0  0  0  0  0  0  0  0  0  0  0
   63.9450   33.7040   48.2430 O   0  0  0  0  0  0  0  0  0  0  0  0
   63.7720   33.3910   46.8730 C   0  0  0  0  0  0  0  0  0  0  0  0
   62.3140   33.5870   46.4060 C   0  0  0  0  0  0  0  0  0  0  0  0
   59.8200   31.7540   46.4290 C   0  0  0  0  0  0  0  0  0  0  0  0
   59.2720   30.5930   45.8780 C   0  0  0  0  0  0  0  0  0  0  0  0
   58.9280   26.1790   45.4370 N   0  0  0  0  0  0  0  0  0  0  0  0
   59.2180   27.0030   46.5760 C   0  0  0  0  0  0  0  0  0  0  0  0
   60.5060   27.0730   47.1390 C   0  0  0  0  0  0  0  0  0  0  0  0
   60.7490   27.8940   48.2430 C   0  0  0  0  0  0  0  0  0  0  0  0
   59.7160   28.6670   48.7900 C   0  0  0  0  0  0  0  0  0  0  0  0
   59.9970   29.6870   50.1990 S   0  0  0  0  0  0  0  0  0  0  0  0
   60.3700   28.8420   51.3860 O   0  0  0  0  0  0  0  0  0  0  0  0
   61.1310   30.6240   49.8910 O   0  0  0  0  0  0  0  0  0  0  0  0
   58.5470   30.6050   50.5510 N   0  0  0  0  0  0  0  0  0  0  0  0
   58.5350   31.0250   51.9580 C   0  0  0  0  0  0  0  0  0  0  0  0
   59.1360   32.4180   52.0410 C   0  0  0  0  0  0  0  0  0  0  0  0
   59.1030   32.9620   50.6240 C   0  0  0  0  0  0  0  0  0  0  0  0
   58.5190   31.8460   49.7680 C   0  0  0  0  0  0  0  0  0  0  0  0
   58.4400   28.6170   48.2170 C   0  0  0  0  0  0  0  0  0  0  0  0
   58.1940   27.7950   47.1120 C   0  0  0  0  0  0  0  0  0  0  0  0
   58.4212   26.7406   42.6291 H   0  0  0  0  0  0  0  0  0  0  0  0
   56.7475   27.2650   43.0249 H   0  0  0  0  0  0  0  0  0  0  0  0
   59.1910   28.7900   43.3940 H   0  0  0  0  0  0  0  0  0  0  0  0
   56.5389   31.9668   44.3411 H   0  0  0  0  0  0  0  0  0  0  0  0
   57.5239   34.0323   45.3221 H   0  0  0  0  0  0  0  0  0  0  0  0
   61.1725   33.9890   49.5384 H   0  0  0  0  0  0  0  0  0  0  0  0
   60.9621   32.4978   48.5407 H   0  0  0  0  0  0  0  0  0  0  0  0
   63.2163   33.1552   50.0862 H   0  0  0  0  0  0  0  0  0  0  0  0
   63.1261   31.9041   48.7849 H   0  0  0  0  0  0  0  0  0  0  0  0
   64.4254   34.0441   46.2759 H   0  0  0  0  0  0  0  0  0  0  0  0
   64.0293   32.3304   46.7354 H   0  0  0  0  0  0  0  0  0  0  0  0
   62.3003   34.2306   45.5141 H   0  0  0  0  0  0  0  0  0  0  0  0
   61.8767   32.6069   46.1648 H   0  0  0  0  0  0  0  0  0  0  0  0
   60.7479   31.6953   47.0168 H   0  0  0  0  0  0  0  0  0  0  0  0
   59.7676   29.6247   46.0414 H   0  0  0  0  0  0  0  0  0  0  0  0
   61.3250   26.4786   46.7079 H   0  0  0  0  0  0  0  0  0  0  0  0
   61.7556   27.9338   48.6848 H   0  0  0  0  0  0  0  0  0  0  0  0
   57.5010   31.0423   52.3329 H   0  0  0  0  0  0  0  0  0  0  0  0
   59.1184   30.3216   52.5702 H   0  0  0  0  0  0  0  0  0  0  0  0
   58.5390   33.0545   52.7107 H   0  0  0  0  0  0  0  0  0  0  0  0
   60.1589   32.3965   52.4450 H   0  0  0  0  0  0  0  0  0  0  0  0
   58.4672   33.8581   50.5719 H   0  0  0  0  0  0  0  0  0  0  0  0
   60.1049   33.2568   50.2787 H   0  0  0  0  0  0  0  0  0  0  0  0
   57.4820   32.0904   49.4944 H   0  0  0  0  0  0  0  0  0  0  0  0
   59.1071   31.7269   48.8461 H   0  0  0  0  0  0  0  0  0  0  0  0
   57.6268   29.2269   48.6375 H   0  0  0  0  0  0  0  0  0  0  0  0
   57.1908   27.7703   46.6614 H   0  0  0  0  0  0  0  0  0  0  0  0
  1  2  2  0
  2  3  1  0
  3  4  1  0
  4  5  1  0
  5  6  2  0
  5  7  1  0
  7  8  2  0
  8  9  1  0
  9 10  2  0
 10 11  1  0
 11 12  2  0
 11 13  2  0
 11 14  1  0
 14 15  1  0
 15 16  1  0
 16 17  1  0
 17 18  1  0
 18 19  1  0
 10 20  1  0
 20 21  2  0
  2 22  1  0
 22 23  1  0
 23 24  2  0
 24 25  1  0
 25 26  2  0
 26 27  1  0
 27 28  2  0
 27 29  2  0
 27 30  1  0
 30 31  1  0
 31 32  1  0
 32 33  1  0
 33 34  1  0
 26 35  1  0
 35 36  2  0
 21  7  1  0
 36 23  1  0
 19 14  1  0
 34 30  1  0
  3 37  1  0
  3 38  1  0
  4 39  1  0
  8 40  1  0
  9 41  1  0
 15 42  1  0
 15 43  1  0
 16 44  1  0
 16 45  1  0
 18 46  1  0
 18 47  1  0
 19 48  1  0
 19 49  1  0
 20 50  1  0
 21 51  1  0
 24 52  1  0
 25 53  1  0
 31 54  1  0
 31 55  1  0
 32 56  1  0
 32 57  1  0
 33 58  1  0
 33 59  1  0
 34 60  1  0
 34 61  1  0
 35 62  1  0
 36 63  1  0
M  CHG  1  22  -1
M  END
>  <UniqueID>  (32) 
29

>  <SMILES>  (32) 
O=C(CNC(=O)c1ccc(S(=O)(=O)N2CCOCC2)cc1)[N-]c1ccc(S(=O)(=O)N2CCCC2)cc1

>  <Energy>  (32) 
77.03945680119966

>  <Genealogy>  (32) 
O=C(CNC(=O)c1ccc(S(=O)(=O)N2CCOCC2)cc1)[N-]c1ccc(S(=O)(=O)N2CCCC2)cc1 (protonated)
O=C(CNC(=O)c1ccc(S(=O)(=O)N2CCOCC2)cc1)[N-]c1ccc(S(=O)(=O)N2CCCC2)cc1 (3D coordinates assigned)
O=C(CNC(=O)c1ccc(S(=O)(=O)N2CCOCC2)cc1)[N-]c1ccc(S(=O)(=O)N2CCCC2)cc1 (nonaromatic ring conformer: 77.03945680119966 kcal/mol)

>  <smiles>  (32) 
O=C(CNC(=O)c1ccc(S(=O)(=O)N2CCOCC2)cc1)Nc1ccc(S(=O)(=O)N2CCCC2)cc1

>  <score_type>  (32) 
oracle

>  <origin>  (32) 
adg

>  <m_score__min__energy>  (32) 
-11.85

>  <m_primary>  (32) 
energy

$$$$
32:0
     RDKit          3D

 31 33  0  0  0  0  0  0  0  0999 V2000
   57.1330   31.4250   42.1250 C   0  0  0  0  0  0  0  0  0  0  0  0
   57.7470   31.7780   43.4420 C   0  0  0  0  0  0  0  0  0  0  0  0
   57.8990   30.8020   44.4320 C   0  0  0  0  0  0  0  0  0  0  0  0
   58.4380   31.1480   45.6770 C   0  0  0  0  0  0  0  0  0  0  0  0
   58.5810   29.8570   46.9280 S   0  0  0  0  0  0  0  0  0  0  0  0
   58.7600   28.4860   45.7340 C   0  0  0  0  0  0  0  0  0  0  0  0
   57.6330   27.5060   45.8660 C   0  0  0  0  0  0  0  0  0  0  0  0
   57.8370   25.8800   46.2630 S   0  0  0  0  0  0  0  0  0  0  0  0
   56.1970   25.5490   46.1280 C   0  0  0  0  0  0  0  0  0  0  0  0
   55.6830   24.4180   46.3240 O   0  0  0  0  0  0  0  0  0  0  0  0
   55.4750   26.6340   45.7810 N   0  0  0  0  0  0  0  0  0  0  0  0
   56.2700   27.7270   45.6280 C   0  0  0  0  0  0  0  0  0  0  0  0
   55.7260   28.9540   45.2510 O   0  0  0  0  0  0  0  0  0  0  0  0
   58.8510   32.4780   45.9100 C   0  0  0  0  0  0  0  0  0  0  0  0
   59.4160   32.8920   47.1320 C   0  0  0  0  0  0  0  0  0  0  0  0
   59.7970   34.2240   47.3170 C   0  0  0  0  0  0  0  0  0  0  0  0
   59.6190   35.1560   46.2920 C   0  0  0  0  0  0  0  0  0  0  0  0
   59.0620   34.7610   45.0740 C   0  0  0  0  0  0  0  0  0  0  0  0
   58.6770   33.4300   44.8760 C   0  0  0  0  0  0  0  0  0  0  0  0
   58.1320   33.0580   43.6880 N   0  0  0  0  0  0  0  0  0  0  0  0
   56.1906   30.8832   42.2933 H   0  0  0  0  0  0  0  0  0  0  0  0
   56.9307   32.3447   41.5565 H   0  0  0  0  0  0  0  0  0  0  0  0
   57.8260   30.7874   41.5565 H   0  0  0  0  0  0  0  0  0  0  0  0
   57.5954   29.7637   44.2328 H   0  0  0  0  0  0  0  0  0  0  0  0
   58.7620   28.8962   44.7133 H   0  0  0  0  0  0  0  0  0  0  0  0
   59.7049   27.9625   45.9416 H   0  0  0  0  0  0  0  0  0  0  0  0
   55.5690   29.7050   45.9110 H   0  0  0  0  0  0  0  0  0  0  0  0
   59.5580   32.1639   47.9442 H   0  0  0  0  0  0  0  0  0  0  0  0
   60.2388   34.5396   48.2737 H   0  0  0  0  0  0  0  0  0  0  0  0
   59.9183   36.2034   46.4446 H   0  0  0  0  0  0  0  0  0  0  0  0
   58.9255   35.4975   44.2684 H   0  0  0  0  0  0  0  0  0  0  0  0
  1  2  1  0
  2  3  2  0
  3  4  1  0
  4  5  1  0
  5  6  1  0
  6  7  1  0
  7  8  1  0
  8  9  1  0
  9 10  2  0
  9 11  1  0
 11 12  1  0
 12 13  1  0
  4 14  2  0
 14 15  1  0
 15 16  2  0
 16 17  1  0
 17 18  2  0
 18 19  1  0
 19 20  2  0
 20  2  1  0
 12  7  2  0
 19 14  1  0
  1 21  1  0
  1 22  1  0
  1 23  1  0
  3 24  1  0
  6 25  1  0
  6 26  1  0
 13 27  1  0
 15 28  1  0
 16 29  1  0
 17 30  1  0
 18 31  1  0
M  CHG  1  11  -1
M  END
>  <UniqueID>  (33) 
30

>  <SMILES>  (33) 
Cc1cc(SCc2sc(=O)[n-]c2O)c2ccccc2n1

>  <Energy>  (33) 
61.69766733225817

>  <Genealogy>  (33) 
Cc1cc(SCc2sc(=O)[n-]c2O)c2ccccc2n1 (protonated)
Cc1cc(SCc2sc(=O)[n-]c2O)c2ccccc2n1 (3D coordinates assigned)
Cc1cc(SCc2sc(=O)[n-]c2O)c2ccccc2n1 (optimized conformer: 61.69766733225817 kcal/mol)

>  <smiles>  (33) 
Cc1cc(SCc2sc(=O)[nH]c2O)c2ccccc2n1

>  <score_type>  (33) 
oracle

>  <origin>  (33) 
adg

>  <m_score__min__energy>  (33) 
-11.19

>  <m_primary>  (33) 
energy

$$$$
33:0
     RDKit          3D

 47 49  0  0  0  0  0  0  0  0999 V2000
   55.1320   28.1820   44.8860 H   0  0  0  0  0  0  0  0  0  0  0  0
   55.9380   27.9830   45.4640 O   0  0  0  0  0  0  0  0  0  0  0  0
   56.1690   26.7160   45.9930 C   0  0  0  0  0  0  0  0  0  0  0  0
   55.1930   25.8150   46.1940 N   0  0  0  0  0  0  0  0  0  0  0  0
   55.8580   24.7610   46.7090 C   0  0  0  0  0  0  0  0  0  0  0  0
   55.2840   23.6920   47.0410 O   0  0  0  0  0  0  0  0  0  0  0  0
   57.1880   24.9450   46.8470 N   0  0  0  0  0  0  0  0  0  0  0  0
   57.3880   26.1910   46.3780 C   0  0  0  0  0  0  0  0  0  0  0  0
   58.6840   26.9020   46.3790 C   0  0  0  0  0  0  0  0  0  0  0  0
   59.5755   26.3347   46.0734 H   0  0  0  0  0  0  0  0  0  0  0  0
   58.8560   28.1960   46.7270 C   0  0  0  0  0  0  0  0  0  0  0  0
   58.9460   28.7070   48.0130 C   0  0  0  0  0  0  0  0  0  0  0  0
   58.8888   28.1350   48.9509 H   0  0  0  0  0  0  0  0  0  0  0  0
   59.1210   30.0700   47.8910 C   0  0  0  0  0  0  0  0  0  0  0  0
   59.1740   30.9860   49.0490 C   0  0  0  0  0  0  0  0  0  0  0  0
   58.5470   30.6800   50.0970 O   0  0  0  0  0  0  0  0  0  0  0  0
   59.9130   32.2140   49.0200 N   0  0  0  0  0  0  0  0  0  0  0  0
   61.3220   32.3630   49.2470 C   0  0  0  0  0  0  0  0  0  0  0  0
   61.8940   31.7460   50.3670 C   0  0  0  0  0  0  0  0  0  0  0  0
   61.2610   31.1651   51.0539 H   0  0  0  0  0  0  0  0  0  0  0  0
   63.2640   31.8640   50.6170 C   0  0  0  0  0  0  0  0  0  0  0  0
   63.7082   31.3654   51.4911 H   0  0  0  0  0  0  0  0  0  0  0  0
   64.0710   32.6160   49.7560 C   0  0  0  0  0  0  0  0  0  0  0  0
   65.9430   32.7770   50.0970 Br  0  0  0  0  0  0  0  0  0  0  0  0
   63.5030   33.2590   48.6520 C   0  0  0  0  0  0  0  0  0  0  0  0
   64.1350   33.8584   47.9802 H   0  0  0  0  0  0  0  0  0  0  0  0
   62.1330   33.1410   48.4010 C   0  0  0  0  0  0  0  0  0  0  0  0
   61.6874   33.6585   47.5387 H   0  0  0  0  0  0  0  0  0  0  0  0
   59.1990   30.4270   46.5850 N   0  0  0  0  0  0  0  0  0  0  0  0
   59.4970   31.7720   46.0590 C   0  0  0  0  0  0  0  0  0  0  0  0
   59.9521   32.3738   46.8595 H   0  0  0  0  0  0  0  0  0  0  0  0
   60.1836   31.6596   45.2070 H   0  0  0  0  0  0  0  0  0  0  0  0
   58.2530   32.4750   45.5670 C   0  0  0  0  0  0  0  0  0  0  0  0
   57.2530   31.7680   45.2630 O   0  0  0  0  0  0  0  0  0  0  0  0
   58.1630   33.9140   45.4650 N   0  0  0  0  0  0  0  0  0  0  0  0
   56.9430   34.5070   44.9060 C   0  0  0  0  0  0  0  0  0  0  0  0
   56.2827   34.8279   45.7252 H   0  0  0  0  0  0  0  0  0  0  0  0
   57.2084   35.3766   44.2869 H   0  0  0  0  0  0  0  0  0  0  0  0
   56.4232   33.7611   44.2869 H   0  0  0  0  0  0  0  0  0  0  0  0
   59.2500   34.7850   45.9250 C   0  0  0  0  0  0  0  0  0  0  0  0
   59.2679   34.7994   47.0248 H   0  0  0  0  0  0  0  0  0  0  0  0
   60.2102   34.4035   45.5476 H   0  0  0  0  0  0  0  0  0  0  0  0
   59.0870   35.8053   45.5476 H   0  0  0  0  0  0  0  0  0  0  0  0
   59.0010   29.2900   45.8640 C   0  0  0  0  0  0  0  0  0  0  0  0
   58.9110   29.2560   44.5240 C   0  0  0  0  0  0  0  0  0  0  0  0
   59.0424   30.1791   43.9403 H   0  0  0  0  0  0  0  0  0  0  0  0
   58.7059   28.3051   44.0105 H   0  0  0  0  0  0  0  0  0  0  0  0
  1  2  1  0
  2  3  1  0
  3  4  1  0
  4  5  1  0
  5  6  2  0
  5  7  1  0
  7  8  1  0
  8  9  1  0
  9 10  1  0
  9 11  2  0
 11 12  1  0
 12 13  1  0
 12 14  2  0
 14 15  1  0
 15 16  2  0
 15 17  1  0
 17 18  1  0
 18 19  2  0
 19 20  1  0
 19 21  1  0
 21 22  1  0
 21 23  2  0
 23 24  1  0
 23 25  1  0
 25 26  1  0
 25 27  2  0
 27 28  1  0
 14 29  1  0
 29 30  1  0
 30 31  1  0
 30 32  1  0
 30 33  1  0
 33 34  2  0
 33 35  1  0
 35 36  1  0
 36 37  1  0
 36 38  1  0
 36 39  1  0
 35 40  1  0
 40 41  1  0
 40 42  1  0
 40 43  1  0
 29 44  1  0
 44 45  2  0
 45 46  1  0
 45 47  1  0
  8  3  2  0
 44 11  1  0
 27 18  1  0
M  CHG  3   4  -1   7  -1  17  -1
M  END
>  <UniqueID>  (34) 
31

>  <SMILES>  (34) 
C=c1/c(=C/c2[n-]c(=O)[n-]c2O)cc(C(=O)[N-]c2ccc(Br)cc2)n1CC(=O)N(C)C

>  <Energy>  (34) 
116.6360081262909

>  <Genealogy>  (34) 
C=c1c(=Cc2[n-]c(=O)[n-]c2O)cc(C(=O)[N-]c2ccc(Br)cc2)n1CC(=O)N(C)C (protonated)
C=c1/c(=C/c2[n-]c(=O)[n-]c2O)cc(C(=O)[N-]c2ccc(Br)cc2)n1CC(=O)N(C)C (cis-trans isomerization)
C=c1/c(=C/c2[n-]c(=O)[n-]c2O)cc(C(=O)[N-]c2ccc(Br)cc2)n1CC(=O)N(C)C (3D coordinates assigned)
C=c1/c(=C/c2[n-]c(=O)[n-]c2O)cc(C(=O)[N-]c2ccc(Br)cc2)n1CC(=O)N(C)C (optimized conformer: 116.6360081262909 kcal/mol)

>  <smiles>  (34) 
C=c1c(=Cc2[nH]c(=O)[nH]c2O)cc(C(=O)Nc2ccc(Br)cc2)n1CC(=O)N(C)C

>  <score_type>  (34) 
oracle

>  <origin>  (34) 
adg

>  <m_score__min__energy>  (34) 
-13.949999999999999

>  <m_primary>  (34) 
energy

$$$$
34:0
     RDKit          3D

 38 40  0  0  0  0  0  0  0  0999 V2000
   55.1390   27.0570   45.3490 H   0  0  0  0  0  0  0  0  0  0  0  0
   54.7380   26.3380   45.9920 N   0  0  0  0  0  0  0  0  0  0  0  0
   54.6200   24.9750   45.5900 C   0  0  0  0  0  0  0  0  0  0  0  0
   53.4720   24.4560   45.5400 O   0  0  0  0  0  0  0  0  0  0  0  0
   55.8210   24.1590   45.2540 C   0  0  0  0  0  0  0  0  0  0  0  0
   55.6930   23.1320   44.2970 C   0  0  0  0  0  0  0  0  0  0  0  0
   54.7213   22.9609   43.8106 H   0  0  0  0  0  0  0  0  0  0  0  0
   56.7830   22.3300   43.9590 C   0  0  0  0  0  0  0  0  0  0  0  0
   56.6621   21.5239   43.2203 H   0  0  0  0  0  0  0  0  0  0  0  0
   58.0230   22.5460   44.5530 C   0  0  0  0  0  0  0  0  0  0  0  0
   58.8795   21.9120   44.2803 H   0  0  0  0  0  0  0  0  0  0  0  0
   58.1830   23.5650   45.4940 C   0  0  0  0  0  0  0  0  0  0  0  0
   59.4490   23.8010   46.0170 O   0  0  0  0  0  0  0  0  0  0  0  0
   57.0820   24.3630   45.8760 C   0  0  0  0  0  0  0  0  0  0  0  0
   57.2570   25.4310   46.8190 N   0  0  0  0  0  0  0  0  0  0  0  0
   57.6810   26.7580   46.4910 C   0  0  0  0  0  0  0  0  0  0  0  0
   58.3580   27.4260   47.3190 O   0  0  0  0  0  0  0  0  0  0  0  0
   57.2770   27.3190   45.2330 N   0  0  0  0  0  0  0  0  0  0  0  0
   57.0720   28.5740   44.9510 C   0  0  0  0  0  0  0  0  0  0  0  0
   55.8280   29.0720   44.7870 N   0  0  0  0  0  0  0  0  0  0  0  0
   55.8480   30.3990   44.4940 C   0  0  0  0  0  0  0  0  0  0  0  0
   54.9313   30.9804   44.3164 H   0  0  0  0  0  0  0  0  0  0  0  0
   57.1170   30.9650   44.4360 C   0  0  0  0  0  0  0  0  0  0  0  0
   57.4310   32.3790   44.0610 C   0  0  0  0  0  0  0  0  0  0  0  0
   58.0999   32.3841   43.1878 H   0  0  0  0  0  0  0  0  0  0  0  0
   56.4953   32.9038   43.8181 H   0  0  0  0  0  0  0  0  0  0  0  0
   58.1050   33.0790   45.2080 C   0  0  0  0  0  0  0  0  0  0  0  0
   58.9520   34.1740   44.9710 C   0  0  0  0  0  0  0  0  0  0  0  0
   59.1016   34.5384   43.9439 H   0  0  0  0  0  0  0  0  0  0  0  0
   59.6060   34.8030   46.0350 C   0  0  0  0  0  0  0  0  0  0  0  0
   60.2619   35.6652   45.8443 H   0  0  0  0  0  0  0  0  0  0  0  0
   59.4270   34.3370   47.3410 C   0  0  0  0  0  0  0  0  0  0  0  0
   60.0790   34.9620   48.3970 O   0  0  0  0  0  0  0  0  0  0  0  0
   58.5950   33.2390   47.5830 C   0  0  0  0  0  0  0  0  0  0  0  0
   58.4566   32.8706   48.6102 H   0  0  0  0  0  0  0  0  0  0  0  0
   57.9390   32.6090   46.5210 C   0  0  0  0  0  0  0  0  0  0  0  0
   57.2904   31.7419   46.7147 H   0  0  0  0  0  0  0  0  0  0  0  0
   58.2550   29.7620   44.7330 S   0  0  0  0  0  0  0  0  0  0  0  0
  1  2  1  0
  2  3  1  0
  3  4  2  0
  3  5  1  0
  5  6  2  0
  6  7  1  0
  6  8  1  0
  8  9  1  0
  8 10  2  0
 10 11  1  0
 10 12  1  0
 12 13  1  0
 12 14  2  0
 14 15  1  0
 15 16  1  0
 16 17  2  0
 16 18  1  0
 18 19  2  0
 19 20  1  0
 20 21  1  0
 21 22  1  0
 21 23  2  0
 23 24  1  0
 24 25  1  0
 24 26  1  0
 24 27  1  0
 27 28  2  0
 28 29  1  0
 28 30  1  0
 30 31  1  0
 30 32  2  0
 32 33  1  0
 32 34  1  0
 34 35  1  0
 34 36  2  0
 36 37  1  0
 23 38  1  0
 14  5  1  0
 38 19  1  0
 36 27  1  0
M  CHG  5   2  -1  13  -1  15  -1  20  -1  33  -1
M  END
>  <UniqueID>  (35) 
32

>  <SMILES>  (35) 
[NH-]C(=O)c1cccc([O-])c1[N-]C(=O)/N=c1/[n-]cc(Cc2ccc([O-])cc2)s1

>  <Energy>  (35) 
81.3502124381466

>  <Genealogy>  (35) 
[NH-]C(=O)c1cccc([O-])c1[N-]C(=O)N=c1[n-]cc(Cc2ccc([O-])cc2)s1 (protonated)
[NH-]C(=O)c1cccc([O-])c1[N-]C(=O)/N=c1/[n-]cc(Cc2ccc([O-])cc2)s1 (cis-trans isomerization)
[NH-]C(=O)c1cccc([O-])c1[N-]C(=O)/N=c1/[n-]cc(Cc2ccc([O-])cc2)s1 (3D coordinates assigned)
[NH-]C(=O)c1cccc([O-])c1[N-]C(=O)/N=c1/[n-]cc(Cc2ccc([O-])cc2)s1 (optimized conformer: 81.3502124381466 kcal/mol)

>  <smiles>  (35) 
NC(=O)c1cccc(O)c1NC(=O)N=c1[nH]cc(Cc2ccc(O)cc2)s1

>  <score_type>  (35) 
oracle

>  <origin>  (35) 
adg

>  <m_score__min__energy>  (35) 
-16.260000000000002

>  <m_primary>  (35) 
energy

$$$$
35:0
     RDKit          3D

 42 44  0  0  0  0  0  0  0  0999 V2000
   59.6040   27.8510   44.1670 C   0  0  0  0  0  0  0  0  0  0  0  0
   59.7040   27.9650   45.6600 C   0  0  0  0  0  0  0  0  0  0  0  0
   60.6040   27.3730   46.2380 O   0  0  0  0  0  0  0  0  0  0  0  0
   58.7200   28.8080   46.4500 C   0  0  1  0  0  0  0  0  0  0  0  0
   58.8260   30.2640   46.0100 C   0  0  0  0  0  0  0  0  0  0  0  0
   59.8400   31.1850   46.6030 C   0  0  0  0  0  0  0  0  0  0  0  0
   59.6000   32.5680   46.7240 C   0  0  0  0  0  0  0  0  0  0  0  0
   60.5630   33.4130   47.2840 C   0  0  0  0  0  0  0  0  0  0  0  0
   61.7790   32.8930   47.7470 C   0  0  0  0  0  0  0  0  0  0  0  0
   62.8260   33.8070   48.3120 C   0  0  0  0  0  0  0  0  0  0  0  0
   62.0330   31.5220   47.6180 C   0  0  0  0  0  0  0  0  0  0  0  0
   61.0720   30.6740   47.0590 C   0  0  0  0  0  0  0  0  0  0  0  0
   58.0740   30.7040   45.0390 N   0  0  0  0  0  0  0  0  0  0  0  0
   57.0670   29.9010   44.4170 C   0  0  0  0  0  0  0  0  0  0  0  0
   56.2740   30.4640   43.1040 S   0  0  0  0  0  0  0  0  0  0  0  0
   56.7120   28.6430   44.9950 N   0  0  0  0  0  0  0  0  0  0  0  0
   57.2590   28.2990   46.3070 C   0  0  1  0  0  0  0  0  0  0  0  0
   57.1250   26.8150   46.6230 C   0  0  0  0  0  0  0  0  0  0  0  0
   58.2630   26.1220   47.0790 C   0  0  0  0  0  0  0  0  0  0  0  0
   58.2070   24.7500   47.3400 C   0  0  0  0  0  0  0  0  0  0  0  0
   57.0200   24.0440   47.1400 C   0  0  0  0  0  0  0  0  0  0  0  0
   56.9790   22.6770   47.4050 O   0  0  0  0  0  0  0  0  0  0  0  0
   55.8840   24.7150   46.6710 C   0  0  0  0  0  0  0  0  0  0  0  0
   55.9310   26.0880   46.4050 C   0  0  0  0  0  0  0  0  0  0  0  0
   54.7870   26.7090   45.9160 O   0  0  0  0  0  0  0  0  0  0  0  0
   58.8992   27.0475   43.9070 H   0  0  0  0  0  0  0  0  0  0  0  0
   59.2446   28.8032   43.7498 H   0  0  0  0  0  0  0  0  0  0  0  0
   60.5950   27.6187   43.7498 H   0  0  0  0  0  0  0  0  0  0  0  0
   58.9828   28.7231   47.5148 H   0  0  0  0  0  0  0  0  0  0  0  0
   58.6451   32.9874   46.3743 H   0  0  0  0  0  0  0  0  0  0  0  0
   60.3649   34.4922   47.3615 H   0  0  0  0  0  0  0  0  0  0  0  0
   62.7877   33.7735   49.4108 H   0  0  0  0  0  0  0  0  0  0  0  0
   63.8197   33.4822   47.9697 H   0  0  0  0  0  0  0  0  0  0  0  0
   62.6383   34.8354   47.9697 H   0  0  0  0  0  0  0  0  0  0  0  0
   62.9943   31.1097   47.9585 H   0  0  0  0  0  0  0  0  0  0  0  0
   61.2795   29.5971   46.9742 H   0  0  0  0  0  0  0  0  0  0  0  0
   55.8820   28.1260   44.6230 H   0  0  0  0  0  0  0  0  0  0  0  0
   56.6535   28.8198   47.0634 H   0  0  0  0  0  0  0  0  0  0  0  0
   59.2065   26.6665   47.2315 H   0  0  0  0  0  0  0  0  0  0  0  0
   59.1021   24.2247   47.7045 H   0  0  0  0  0  0  0  0  0  0  0  0
   57.8270   22.1290   47.4900 H   0  0  0  0  0  0  0  0  0  0  0  0
   54.9484   24.1591   46.5106 H   0  0  0  0  0  0  0  0  0  0  0  0
  1  2  1  0
  2  3  2  0
  2  4  1  0
  4  5  1  0
  5  6  1  0
  6  7  2  0
  7  8  1  0
  8  9  2  0
  9 10  1  0
  9 11  1  0
 11 12  2  0
  5 13  2  0
 13 14  1  0
 14 15  2  0
 14 16  1  0
 16 17  1  0
 17 18  1  0
 18 19  2  0
 19 20  1  0
 20 21  2  0
 21 22  1  0
 21 23  1  0
 23 24  2  0
 24 25  1  0
 17  4  1  0
 24 18  1  0
 12  6  1  0
  1 26  1  0
  1 27  1  0
  1 28  1  0
  4 29  1  1
  7 30  1  0
  8 31  1  0
 10 32  1  0
 10 33  1  0
 10 34  1  0
 11 35  1  0
 12 36  1  0
 16 37  1  0
 17 38  1  1
 19 39  1  0
 20 40  1  0
 22 41  1  0
 23 42  1  0
M  CHG  1  25  -1
M  END
>  <UniqueID>  (36) 
33

>  <SMILES>  (36) 
CC(=O)[C@H]1C(c2ccc(C)cc2)=NC(=S)N[C@H]1c1ccc(O)cc1[O-]

>  <Energy>  (36) 
45.550649085147995

>  <Genealogy>  (36) 
CC(=O)C1C(c2ccc(C)cc2)=NC(=S)NC1c1ccc(O)cc1[O-] (protonated)
CC(=O)[C@H]1C(c2ccc(C)cc2)=NC(=S)N[C@H]1c1ccc(O)cc1[O-] (chirality)
CC(=O)[C@H]1C(c2ccc(C)cc2)=NC(=S)N[C@H]1c1ccc(O)cc1[O-] (3D coordinates assigned)
CC(=O)[C@H]1C(c2ccc(C)cc2)=NC(=S)N[C@H]1c1ccc(O)cc1[O-] (nonaromatic ring conformer: 45.550649085147995 kcal/mol)

>  <smiles>  (36) 
CC(=O)C1C(c2ccc(C)cc2)=NC(=S)NC1c1ccc(O)cc1O

>  <score_type>  (36) 
oracle

>  <origin>  (36) 
adg

>  <m_score__min__energy>  (36) 
-12.039999999999999

>  <m_primary>  (36) 
energy

$$$$
36:0
     RDKit          3D

 21 22  0  0  0  0  0  0  0  0999 V2000
   60.7670   28.6070   45.4280 C   0  0  0  0  0  0  0  0  0  0  0  0
   59.8270   27.8330   45.9740 C   0  0  0  0  0  0  0  0  0  0  0  0
   59.8830   27.4200   47.2210 O   0  0  0  0  0  0  0  0  0  0  0  0
   58.8260   26.6810   47.4770 C   0  0  0  0  0  0  0  0  0  0  0  0
   58.0330   26.5930   46.3470 C   0  0  0  0  0  0  0  0  0  0  0  0
   56.7630   25.8390   46.2420 C   0  0  0  0  0  0  0  0  0  0  0  0
   55.5640   26.4820   45.8930 C   0  0  0  0  0  0  0  0  0  0  0  0
   55.5390   27.8450   45.6200 O   0  0  0  0  0  0  0  0  0  0  0  0
   54.4140   25.7660   45.7970 N   0  0  0  0  0  0  0  0  0  0  0  0
   54.4000   24.4280   46.0230 C   0  0  0  0  0  0  0  0  0  0  0  0
   53.0020   23.5940   45.8990 S   0  0  0  0  0  0  0  0  0  0  0  0
   55.5480   23.7800   46.3440 N   0  0  0  0  0  0  0  0  0  0  0  0
   56.7240   24.4500   46.4550 C   0  0  0  0  0  0  0  0  0  0  0  0
   57.7700   23.8150   46.7620 O   0  0  0  0  0  0  0  0  0  0  0  0
   58.6710   27.3460   45.3690 C   0  0  0  0  0  0  0  0  0  0  0  0
   58.2300   27.5850   44.1290 C   0  0  0  0  0  0  0  0  0  0  0  0
   60.6754   28.9269   44.3795 H   0  0  0  0  0  0  0  0  0  0  0  0
   61.6334   28.9251   46.0264 H   0  0  0  0  0  0  0  0  0  0  0  0
   58.6056   26.2047   48.4437 H   0  0  0  0  0  0  0  0  0  0  0  0
   58.8287   28.2004   43.4414 H   0  0  0  0  0  0  0  0  0  0  0  0
   57.2686   27.1661   43.7969 H   0  0  0  0  0  0  0  0  0  0  0  0
  1  2  2  0
  2  3  1  0
  3  4  1  0
  4  5  2  0
  5  6  1  0
  6  7  2  0
  7  8  1  0
  7  9  1  0
  9 10  1  0
 10 11  2  0
 10 12  1  0
 12 13  1  0
 13 14  2  0
  5 15  1  0
 15 16  2  0
 15  2  1  0
 13  6  1  0
  1 17  1  0
  1 18  1  0
  4 19  1  0
 16 20  1  0
 16 21  1  0
M  CHG  3   8  -1   9  -1  12  -1
M  END
>  <UniqueID>  (37) 
34

>  <SMILES>  (37) 
C=c1occ(-c2c([O-])[n-]c(=S)[n-]c2=O)c1=C

>  <Energy>  (37) 
59.15335023640649

>  <Genealogy>  (37) 
C=c1occ(-c2c([O-])[n-]c(=S)[n-]c2=O)c1=C (protonated)
C=c1occ(-c2c([O-])[n-]c(=S)[n-]c2=O)c1=C (3D coordinates assigned)
C=c1occ(-c2c([O-])[n-]c(=S)[n-]c2=O)c1=C (optimized conformer: 59.15335023640649 kcal/mol)

>  <smiles>  (37) 
C=c1occ(-c2c(O)[nH]c(=S)[nH]c2=O)c1=C

>  <score_type>  (37) 
oracle

>  <origin>  (37) 
adg

>  <m_score__min__energy>  (37) 
-12.380000000000001

>  <m_primary>  (37) 
energy

$$$$
37:0
     RDKit          3D

 45 47  0  0  0  0  0  0  0  0999 V2000
   56.6638   32.0958   51.9658 H   0  0  0  0  0  0  0  0  0  0  0  0
   55.5950   31.9080   52.1460 C   0  0  0  0  0  0  0  0  0  0  0  0
   54.8508   32.6766   51.8903 H   0  0  0  0  0  0  0  0  0  0  0  0
   55.1990   30.7410   52.6780 C   0  0  0  0  0  0  0  0  0  0  0  0
   53.8830   30.3610   52.9630 C   0  0  0  0  0  0  0  0  0  0  0  0
   52.7630   31.0840   52.7630 C   0  0  0  0  0  0  0  0  0  0  0  0
   52.3652   31.6651   53.6081 H   0  0  0  0  0  0  0  0  0  0  0  0
   52.0390   31.1430   51.4800 C   0  0  0  0  0  0  0  0  0  0  0  0
   52.1360   30.1930   50.5350 N   0  0  0  0  0  0  0  0  0  0  0  0
   51.3950   30.6860   49.5180 C   0  0  0  0  0  0  0  0  0  0  0  0
   51.2300   30.0640   48.4360 O   0  0  0  0  0  0  0  0  0  0  0  0
   50.8540   31.9000   49.7480 N   0  0  0  0  0  0  0  0  0  0  0  0
   51.2800   32.1840   50.9890 C   0  0  0  0  0  0  0  0  0  0  0  0
   51.0200   33.3860   51.6340 O   0  0  0  0  0  0  0  0  0  0  0  0
   53.9490   29.0580   53.4370 C   0  0  0  0  0  0  0  0  0  0  0  0
   53.1032   28.4323   53.7582 H   0  0  0  0  0  0  0  0  0  0  0  0
   55.2820   28.7000   53.4270 C   0  0  0  0  0  0  0  0  0  0  0  0
   55.7980   27.3520   53.8290 C   0  0  0  0  0  0  0  0  0  0  0  0
   55.8248   27.2820   54.9264 H   0  0  0  0  0  0  0  0  0  0  0  0
   55.1352   26.5711   53.4278 H   0  0  0  0  0  0  0  0  0  0  0  0
   56.8128   27.2133   53.4278 H   0  0  0  0  0  0  0  0  0  0  0  0
   56.0460   29.7330   53.0070 N   0  0  0  0  0  0  0  0  0  0  0  0
   57.4700   29.7080   52.7970 C   0  0  0  0  0  0  0  0  0  0  0  0
   58.2260   29.6660   53.8050 O   0  0  0  0  0  0  0  0  0  0  0  0
   58.0590   29.7500   51.4690 N   0  0  0  0  0  0  0  0  0  0  0  0
   57.3880   29.2330   50.8510 H   0  0  0  0  0  0  0  0  0  0  0  0
   59.3390   28.9860   51.4420 C   0  0  0  0  0  0  0  0  0  0  0  0
   59.7180   28.9062   52.4716 H   0  0  0  0  0  0  0  0  0  0  0  0
   59.1185   28.0033   50.9997 H   0  0  0  0  0  0  0  0  0  0  0  0
   60.4230   29.6350   50.5760 C   0  0  0  0  0  0  0  0  0  0  0  0
   61.3658   29.0797   50.6892 H   0  0  0  0  0  0  0  0  0  0  0  0
   60.1140   29.6150   49.5205 H   0  0  0  0  0  0  0  0  0  0  0  0
   60.6170   31.0250   51.0070 N   0  0  0  0  0  0  0  0  0  0  0  0
   61.9440   31.5800   51.1270 C   0  0  0  0  0  0  0  0  0  0  0  0
   62.9390   30.9470   50.6760 O   0  0  0  0  0  0  0  0  0  0  0  0
   62.1740   32.9140   51.7700 C   0  0  0  0  0  0  0  0  0  0  0  0
   62.1547   32.8019   52.8641 H   0  0  0  0  0  0  0  0  0  0  0  0
   63.1532   33.3070   51.4589 H   0  0  0  0  0  0  0  0  0  0  0  0
   61.3830   33.6122   51.4589 H   0  0  0  0  0  0  0  0  0  0  0  0
   59.4350   31.8600   51.2530 C   0  0  0  0  0  0  0  0  0  0  0  0
   59.4058   32.1337   52.3180 H   0  0  0  0  0  0  0  0  0  0  0  0
   59.5079   32.7572   50.6207 H   0  0  0  0  0  0  0  0  0  0  0  0
   58.1390   31.1190   50.8920 C   0  0  0  0  0  0  0  0  0  0  0  0
   57.2867   31.7052   51.2662 H   0  0  0  0  0  0  0  0  0  0  0  0
   58.1217   31.0109   49.7975 H   0  0  0  0  0  0  0  0  0  0  0  0
  1  2  1  0
  2  3  1  0
  2  4  2  0
  4  5  1  0
  5  6  2  0
  6  7  1  0
  6  8  1  0
  8  9  1  0
  9 10  1  0
 10 11  2  0
 10 12  1  0
 12 13  1  0
 13 14  1  0
  5 15  1  0
 15 16  1  0
 15 17  2  0
 17 18  1  0
 18 19  1  0
 18 20  1  0
 18 21  1  0
 17 22  1  0
 22 23  1  0
 23 24  2  0
 23 25  1  0
 25 26  1  0
 25 27  1  0
 27 28  1  0
 27 29  1  0
 27 30  1  0
 30 31  1  0
 30 32  1  0
 30 33  1  0
 33 34  1  0
 34 35  2  0
 34 36  1  0
 36 37  1  0
 36 38  1  0
 36 39  1  0
 33 40  1  0
 40 41  1  0
 40 42  1  0
 40 43  1  0
 43 44  1  0
 43 45  1  0
 22  4  1  0
 43 25  1  0
 13  8  2  0
M  CHG  4   9  -1  12  -1  14  -1  25   1
M  END
>  <UniqueID>  (38) 
35

>  <SMILES>  (38) 
C=c1/c(=C/c2[n-]c(=O)[n-]c2[O-])cc(C)n1C(=O)[NH+]1CCN(C(C)=O)CC1

>  <Energy>  (38) 
126.52357178959353

>  <Genealogy>  (38) 
C=c1c(=Cc2[n-]c(=O)[n-]c2[O-])cc(C)n1C(=O)[NH+]1CCN(C(C)=O)CC1 (protonated)
C=c1/c(=C/c2[n-]c(=O)[n-]c2[O-])cc(C)n1C(=O)[NH+]1CCN(C(C)=O)CC1 (cis-trans isomerization)
C=c1/c(=C/c2[n-]c(=O)[n-]c2[O-])cc(C)n1C(=O)[NH+]1CCN(C(C)=O)CC1 (3D coordinates assigned)
C=c1/c(=C/c2[n-]c(=O)[n-]c2[O-])cc(C)n1C(=O)[NH+]1CCN(C(C)=O)CC1 (nonaromatic ring conformer: 126.52357178959353 kcal/mol)

>  <smiles>  (38) 
C=c1c(=Cc2[nH]c(=O)[nH]c2O)cc(C)n1C(=O)N1CCN(C(C)=O)CC1

>  <score_type>  (38) 
oracle

>  <origin>  (38) 
adg

>  <m_score__min__energy>  (38) 
-14.94

>  <m_primary>  (38) 
energy

$$$$
38:0
     RDKit          3D

 45 47  0  0  0  0  0  0  0  0999 V2000
   61.6886   31.1368   50.5254 H   0  0  0  0  0  0  0  0  0  0  0  0
   61.4160   30.8230   49.5070 C   0  0  0  0  0  0  0  0  0  0  0  0
   60.5280   29.8120   49.3230 N   0  0  0  0  0  0  0  0  0  0  0  0
   60.1460   29.3940   48.0820 C   0  0  0  0  0  0  0  0  0  0  0  0
   59.3030   28.4100   47.9380 N   0  0  0  0  0  0  0  0  0  0  0  0
   59.6090   27.0530   47.5830 C   0  0  0  0  0  0  0  0  0  0  0  0
   60.3320   26.3750   48.3600 O   0  0  0  0  0  0  0  0  0  0  0  0
   59.2130   26.4570   46.2590 C   0  0  0  0  0  0  0  0  0  0  0  0
   59.6256   25.4402   46.1820 H   0  0  0  0  0  0  0  0  0  0  0  0
   59.6097   27.0898   45.4515 H   0  0  0  0  0  0  0  0  0  0  0  0
   57.7190   26.3940   46.1360 C   0  0  0  0  0  0  0  0  0  0  0  0
   57.0220   25.2440   46.1840 N   0  0  0  0  0  0  0  0  0  0  0  0
   55.7430   25.6490   46.0400 C   0  0  0  0  0  0  0  0  0  0  0  0
   54.7740   24.8460   46.0330 O   0  0  0  0  0  0  0  0  0  0  0  0
   55.5840   26.9820   45.9000 N   0  0  0  0  0  0  0  0  0  0  0  0
   56.8420   27.4540   45.9620 C   0  0  0  0  0  0  0  0  0  0  0  0
   57.1810   28.9130   45.8230 C   0  0  0  0  0  0  0  0  0  0  0  0
   58.2256   29.0032   45.4903 H   0  0  0  0  0  0  0  0  0  0  0  0
   57.0287   29.3885   46.8032 H   0  0  0  0  0  0  0  0  0  0  0  0
   56.2980   29.6110   44.8330 C   0  0  0  0  0  0  0  0  0  0  0  0
   55.1380   29.1680   44.6230 O   0  0  0  0  0  0  0  0  0  0  0  0
   56.7820   30.7620   44.1280 N   0  0  0  0  0  0  0  0  0  0  0  0
   57.5680   31.8370   44.6660 C   0  0  0  0  0  0  0  0  0  0  0  0
   57.7990   31.9530   46.0500 C   0  0  0  0  0  0  0  0  0  0  0  0
   57.3596   31.2197   46.7422 H   0  0  0  0  0  0  0  0  0  0  0  0
   58.5850   32.9970   46.5480 C   0  0  0  0  0  0  0  0  0  0  0  0
   58.8650   33.1340   48.2750 Cl  0  0  0  0  0  0  0  0  0  0  0  0
   59.1580   33.9230   45.6720 C   0  0  0  0  0  0  0  0  0  0  0  0
   59.7709   34.7464   46.0675 H   0  0  0  0  0  0  0  0  0  0  0  0
   58.9540   33.8050   44.2960 C   0  0  0  0  0  0  0  0  0  0  0  0
   59.4152   34.5312   43.6104 H   0  0  0  0  0  0  0  0  0  0  0  0
   58.1630   32.7640   43.7820 C   0  0  0  0  0  0  0  0  0  0  0  0
   57.9490   32.6460   42.2960 C   0  0  0  0  0  0  0  0  0  0  0  0
   57.0008   32.1231   42.1025 H   0  0  0  0  0  0  0  0  0  0  0  0
   57.9113   33.6508   41.8500 H   0  0  0  0  0  0  0  0  0  0  0  0
   58.7787   32.0778   41.8500 H   0  0  0  0  0  0  0  0  0  0  0  0
   60.7000   30.0130   46.9430 C   0  0  0  0  0  0  0  0  0  0  0  0
   60.3090   29.5800   45.5540 C   0  0  0  0  0  0  0  0  0  0  0  0
   59.5730   28.7650   45.6176 H   0  0  0  0  0  0  0  0  0  0  0  0
   59.8677   30.4314   45.0151 H   0  0  0  0  0  0  0  0  0  0  0  0
   61.2008   29.2275   45.0151 H   0  0  0  0  0  0  0  0  0  0  0  0
   61.6250   31.0550   47.1210 C   0  0  0  0  0  0  0  0  0  0  0  0
   62.0688   31.5504   46.2449 H   0  0  0  0  0  0  0  0  0  0  0  0
   61.9820   31.4630   48.4060 C   0  0  0  0  0  0  0  0  0  0  0  0
   62.7029   32.2815   48.5490 H   0  0  0  0  0  0  0  0  0  0  0  0
  1  2  1  0
  2  3  1  0
  3  4  1  0
  4  5  2  0
  5  6  1  0
  6  7  2  0
  6  8  1  0
  8  9  1  0
  8 10  1  0
  8 11  1  0
 11 12  1  0
 12 13  1  0
 13 14  2  0
 13 15  1  0
 15 16  1  0
 16 17  1  0
 17 18  1  0
 17 19  1  0
 17 20  1  0
 20 21  2  0
 20 22  1  0
 22 23  1  0
 23 24  2  0
 24 25  1  0
 24 26  1  0
 26 27  1  0
 26 28  2  0
 28 29  1  0
 28 30  1  0
 30 31  1  0
 30 32  2  0
 32 33  1  0
 33 34  1  0
 33 35  1  0
 33 36  1  0
  4 37  1  0
 37 38  1  0
 38 39  1  0
 38 40  1  0
 38 41  1  0
 37 42  2  0
 42 43  1  0
 42 44  1  0
 44 45  1  0
 44  2  2  0
 16 11  2  0
 32 23  1  0
M  CHG  4   3  -1  12  -1  15  -1  22  -1
M  END
>  <UniqueID>  (39) 
36

>  <SMILES>  (39) 
Cc1ccc(Cl)cc1[N-]C(=O)Cc1[n-]c(=O)[n-]c1CC(=O)/N=c1\[n-]cccc1C

>  <Energy>  (39) 
80.28479959660143

>  <Genealogy>  (39) 
Cc1ccc(Cl)cc1[N-]C(=O)Cc1[n-]c(=O)[n-]c1CC(=O)N=c1[n-]cccc1C (protonated)
Cc1ccc(Cl)cc1[N-]C(=O)Cc1[n-]c(=O)[n-]c1CC(=O)/N=c1\[n-]cccc1C (cis-trans isomerization)
Cc1ccc(Cl)cc1[N-]C(=O)Cc1[n-]c(=O)[n-]c1CC(=O)/N=c1\[n-]cccc1C (3D coordinates assigned)
Cc1ccc(Cl)cc1[N-]C(=O)Cc1[n-]c(=O)[n-]c1CC(=O)/N=c1\[n-]cccc1C (optimized conformer: 80.28479959660143 kcal/mol)

>  <smiles>  (39) 
Cc1ccc(Cl)cc1NC(=O)Cc1[nH]c(=O)[nH]c1CC(=O)N=c1[nH]cccc1C

>  <score_type>  (39) 
oracle

>  <origin>  (39) 
adg

>  <m_score__min__energy>  (39) 
-15.050000000000001

>  <m_primary>  (39) 
energy

$$$$
39:0
     RDKit          3D

 73 77  0  0  0  0  0  0  0  0999 V2000
   58.7010   29.7970   46.8570 C   0  0  0  0  0  0  0  0  0  0  0  0
   59.1840   31.1750   46.8240 N   0  0  0  0  0  0  0  0  0  0  0  0
   60.3310   31.6330   47.3790 C   0  0  0  0  0  0  0  0  0  0  0  0
   60.4900   32.9940   47.1140 C   0  0  0  0  0  0  0  0  0  0  0  0
   61.6700   33.8690   47.4880 C   0  0  2  0  0  0  0  0  0  0  0  0
   62.9460   33.4300   46.7340 C   0  0  0  0  0  0  0  0  0  0  0  0
   63.7480   32.4010   47.5430 C   0  0  0  0  0  0  0  0  0  0  0  0
   64.1630   32.8900   48.8940 N   0  0  2  0  0  0  0  0  0  0  0  0
   64.1310   31.7910   49.8940 C   0  0  0  0  0  0  0  0  0  0  0  0
   62.8740   30.9030   49.7500 C   0  0  0  0  0  0  0  0  0  0  0  0
   61.9770   30.8180   51.0140 C   0  0  1  0  0  0  0  0  0  0  0  0
   61.5610   32.2060   51.5830 C   0  0  0  0  0  0  0  0  0  0  0  0
   60.0450   32.3700   51.7640 C   0  0  0  0  0  0  0  0  0  0  0  0
   59.3070   31.8970   50.5110 C   0  0  2  0  0  0  0  0  0  0  0  0
   57.8870   32.2190   50.6280 N   0  0  0  0  0  0  0  0  0  0  0  0
   57.1560   32.0740   51.8490 C   0  0  0  0  0  0  0  0  0  0  0  0
   56.6040   33.0740   52.3870 O   0  0  0  0  0  0  0  0  0  0  0  0
   57.0610   30.7300   52.5020 C   0  0  0  0  0  0  0  0  0  0  0  0
   55.6280   30.2660   52.5380 C   0  0  0  0  0  0  0  0  0  0  0  0
   55.3030   29.0170   53.0920 C   0  0  0  0  0  0  0  0  0  0  0  0
   53.9800   28.5630   53.0780 C   0  0  0  0  0  0  0  0  0  0  0  0
   52.9720   29.3450   52.4990 C   0  0  0  0  0  0  0  0  0  0  0  0
   51.3220   28.7370   52.4910 Cl  0  0  0  0  0  0  0  0  0  0  0  0
   53.2910   30.5920   51.9340 C   0  0  0  0  0  0  0  0  0  0  0  0
   52.0570   31.6000   51.1860 Cl  0  0  0  0  0  0  0  0  0  0  0  0
   54.6170   31.0440   51.9500 C   0  0  0  0  0  0  0  0  0  0  0  0
   59.4870   30.3790   50.3030 C   0  0  0  0  0  0  0  0  0  0  0  0
   60.8050   29.8080   50.8750 C   0  0  0  0  0  0  0  0  0  0  0  0
   63.3670   34.0560   49.3730 C   0  0  0  0  0  0  0  0  0  0  0  0
   61.8790   33.9250   49.0220 C   0  0  0  0  0  0  0  0  0  0  0  0
   59.3990   33.3470   46.3320 C   0  0  0  0  0  0  0  0  0  0  0  0
   59.0440   34.5620   45.7410 C   0  0  0  0  0  0  0  0  0  0  0  0
   57.8570   34.6060   44.9870 C   0  0  0  0  0  0  0  0  0  0  0  0
   57.0640   33.4490   44.8300 C   0  0  0  0  0  0  0  0  0  0  0  0
   57.4510   32.2350   45.4250 C   0  0  0  0  0  0  0  0  0  0  0  0
   58.6280   32.2190   46.1780 C   0  0  0  0  0  0  0  0  0  0  0  0
   58.5875   29.4732   47.9021 H   0  0  0  0  0  0  0  0  0  0  0  0
   57.7283   29.7371   46.3469 H   0  0  0  0  0  0  0  0  0  0  0  0
   59.4235   29.1429   46.3469 H   0  0  0  0  0  0  0  0  0  0  0  0
   61.0375   31.0192   47.9570 H   0  0  0  0  0  0  0  0  0  0  0  0
   61.4432   34.8971   47.1694 H   0  0  0  0  0  0  0  0  0  0  0  0
   62.6570   32.9822   45.7717 H   0  0  0  0  0  0  0  0  0  0  0  0
   63.5782   34.3165   46.5776 H   0  0  0  0  0  0  0  0  0  0  0  0
   63.1273   31.5024   47.6745 H   0  0  0  0  0  0  0  0  0  0  0  0
   64.6694   32.1956   46.9784 H   0  0  0  0  0  0  0  0  0  0  0  0
   65.1550   33.2230   48.8240 H   0  0  0  0  0  0  0  0  0  0  0  0
   65.0245   31.1638   49.7590 H   0  0  0  0  0  0  0  0  0  0  0  0
   64.1078   32.2472   50.8947 H   0  0  0  0  0  0  0  0  0  0  0  0
   62.2652   31.3057   48.9271 H   0  0  0  0  0  0  0  0  0  0  0  0
   63.2406   29.8822   49.5664 H   0  0  0  0  0  0  0  0  0  0  0  0
   62.6212   30.3881   51.7952 H   0  0  0  0  0  0  0  0  0  0  0  0
   61.9144   32.9849   50.8913 H   0  0  0  0  0  0  0  0  0  0  0  0
   62.0151   32.2934   52.5811 H   0  0  0  0  0  0  0  0  0  0  0  0
   59.8135   33.4304   51.9430 H   0  0  0  0  0  0  0  0  0  0  0  0
   59.7192   31.7633   52.6218 H   0  0  0  0  0  0  0  0  0  0  0  0
   59.7322   32.4151   49.6388 H   0  0  0  0  0  0  0  0  0  0  0  0
   57.6625   30.0064   51.9322 H   0  0  0  0  0  0  0  0  0  0  0  0
   57.4386   30.8054   53.5324 H   0  0  0  0  0  0  0  0  0  0  0  0
   56.0917   28.3936   53.5385 H   0  0  0  0  0  0  0  0  0  0  0  0
   53.7302   27.5886   53.5231 H   0  0  0  0  0  0  0  0  0  0  0  0
   54.8682   32.0152   51.4988 H   0  0  0  0  0  0  0  0  0  0  0  0
   59.4638   30.1747   49.2224 H   0  0  0  0  0  0  0  0  0  0  0  0
   58.6686   29.8879   50.8498 H   0  0  0  0  0  0  0  0  0  0  0  0
   61.1367   28.9958   50.2114 H   0  0  0  0  0  0  0  0  0  0  0  0
   60.5692   29.4823   51.8989 H   0  0  0  0  0  0  0  0  0  0  0  0
   63.4681   34.1291   50.4659 H   0  0  0  0  0  0  0  0  0  0  0  0
   63.7537   34.9569   48.8742 H   0  0  0  0  0  0  0  0  0  0  0  0
   61.4837   33.0025   49.4722 H   0  0  0  0  0  0  0  0  0  0  0  0
   61.3489   34.8052   49.4147 H   0  0  0  0  0  0  0  0  0  0  0  0
   59.6729   35.4564   45.8614 H   0  0  0  0  0  0  0  0  0  0  0  0
   57.5445   35.5497   44.5161 H   0  0  0  0  0  0  0  0  0  0  0  0
   56.1377   33.4972   44.2387 H   0  0  0  0  0  0  0  0  0  0  0  0
   56.8453   31.3252   45.3013 H   0  0  0  0  0  0  0  0  0  0  0  0
  1  2  1  0
  2  3  1  0
  3  4  2  0
  4  5  1  0
  5  6  1  0
  6  7  1  0
  7  8  1  0
  8  9  1  0
  9 10  1  0
 10 11  1  0
 11 12  1  0
 12 13  1  0
 13 14  1  0
 14 15  1  0
 15 16  1  0
 16 17  2  0
 16 18  1  0
 18 19  1  0
 19 20  2  0
 20 21  1  0
 21 22  2  0
 22 23  1  0
 22 24  1  0
 24 25  1  0
 24 26  2  0
 14 27  1  0
 27 28  1  0
  8 29  1  0
 29 30  1  0
  4 31  1  0
 31 32  2  0
 32 33  1  0
 33 34  2  0
 34 35  1  0
 35 36  2  0
 36  2  1  0
 30  5  1  0
 36 31  1  0
 28 11  1  0
 26 19  1  0
  1 37  1  0
  1 38  1  0
  1 39  1  0
  3 40  1  0
  5 41  1  6
  6 42  1  0
  6 43  1  0
  7 44  1  0
  7 45  1  0
  8 46  1  6
  9 47  1  0
  9 48  1  0
 10 49  1  0
 10 50  1  0
 11 51  1  1
 12 52  1  0
 12 53  1  0
 13 54  1  0
 13 55  1  0
 14 56  1  6
 18 57  1  0
 18 58  1  0
 20 59  1  0
 21 60  1  0
 26 61  1  0
 27 62  1  0
 27 63  1  0
 28 64  1  0
 28 65  1  0
 29 66  1  0
 29 67  1  0
 30 68  1  0
 30 69  1  0
 32 70  1  0
 33 71  1  0
 34 72  1  0
 35 73  1  0
M  CHG  2   8   1  15  -1
M  END
>  <UniqueID>  (40) 
37

>  <SMILES>  (40) 
Cn1cc(C2CC[NH+](CCC3CCC([N-]C(=O)Cc4ccc(Cl)c(Cl)c4)CC3)CC2)c2ccccc21

>  <Energy>  (40) 
122.04457562281831

>  <Genealogy>  (40) 
Cn1cc(C2CC[NH+](CCC3CCC([N-]C(=O)Cc4ccc(Cl)c(Cl)c4)CC3)CC2)c2ccccc21 (protonated)
Cn1cc(C2CC[NH+](CCC3CCC([N-]C(=O)Cc4ccc(Cl)c(Cl)c4)CC3)CC2)c2ccccc21 (3D coordinates assigned)
Cn1cc(C2CC[NH+](CCC3CCC([N-]C(=O)Cc4ccc(Cl)c(Cl)c4)CC3)CC2)c2ccccc21 (nonaromatic ring conformer: 122.04457562281831 kcal/mol)

>  <smiles>  (40) 
Cn1cc(C2CCN(CCC3CCC(NC(=O)Cc4ccc(Cl)c(Cl)c4)CC3)CC2)c2ccccc21

>  <score_type>  (40) 
oracle

>  <origin>  (40) 
adg

>  <m_score__min__energy>  (40) 
-10.99

>  <m_primary>  (40) 
energy

$$$$
40:0
     RDKit          3D

 32 33  0  0  0  0  0  0  0  0999 V2000
   59.2880   34.4920   45.2120 C   0  0  0  0  0  0  0  0  0  0  0  0
   57.7500   33.6930   45.6090 S   0  0  0  0  0  0  0  0  0  0  0  0
   56.6320   34.3450   44.8430 O   0  0  0  0  0  0  0  0  0  0  0  0
   57.4730   33.8360   47.0800 O   0  0  0  0  0  0  0  0  0  0  0  0
   57.8500   31.9880   45.1830 C   0  0  0  0  0  0  0  0  0  0  0  0
   57.0280   31.4630   44.1780 C   0  0  0  0  0  0  0  0  0  0  0  0
   57.0960   30.1060   43.8510 C   0  0  0  0  0  0  0  0  0  0  0  0
   57.9910   29.2590   44.5210 C   0  0  0  0  0  0  0  0  0  0  0  0
   58.0380   27.7950   44.1970 C   0  0  0  0  0  0  0  0  0  0  0  0
   58.4530   27.0540   45.3820 N   0  0  0  0  0  0  0  0  0  0  0  0
   57.5640   26.4860   46.3540 C   0  0  0  0  0  0  0  0  0  0  0  0
   57.8490   26.6040   47.5740 O   0  0  0  0  0  0  0  0  0  0  0  0
   56.3600   25.7270   45.9770 C   0  0  0  0  0  0  0  0  0  0  0  0
   56.4350   24.4000   45.5350 C   0  0  0  0  0  0  0  0  0  0  0  0
   55.2670   23.7350   45.1670 C   0  0  0  0  0  0  0  0  0  0  0  0
   54.0510   24.4160   45.2310 C   0  0  0  0  0  0  0  0  0  0  0  0
   52.9800   23.8400   44.9050 O   0  0  0  0  0  0  0  0  0  0  0  0
   54.0300   25.7110   45.6410 N   0  0  0  0  0  0  0  0  0  0  0  0
   55.1480   26.3460   45.9960 N   0  0  0  0  0  0  0  0  0  0  0  0
   58.7970   29.7830   45.5450 C   0  0  0  0  0  0  0  0  0  0  0  0
   58.7280   31.1410   45.8710 C   0  0  0  0  0  0  0  0  0  0  0  0
   59.8106   34.7635   46.1410 H   0  0  0  0  0  0  0  0  0  0  0  0
   59.9165   33.8064   44.6247 H   0  0  0  0  0  0  0  0  0  0  0  0
   59.0884   35.4004   44.6247 H   0  0  0  0  0  0  0  0  0  0  0  0
   56.3265   32.1210   43.6442 H   0  0  0  0  0  0  0  0  0  0  0  0
   56.4439   29.6998   43.0637 H   0  0  0  0  0  0  0  0  0  0  0  0
   57.0401   27.4559   43.8819 H   0  0  0  0  0  0  0  0  0  0  0  0
   58.7558   27.6201   43.3820 H   0  0  0  0  0  0  0  0  0  0  0  0
   57.4068   23.8876   45.4789 H   0  0  0  0  0  0  0  0  0  0  0  0
   55.3032   22.6882   44.8309 H   0  0  0  0  0  0  0  0  0  0  0  0
   59.4853   29.1224   46.0927 H   0  0  0  0  0  0  0  0  0  0  0  0
   59.3657   31.5456   46.6708 H   0  0  0  0  0  0  0  0  0  0  0  0
  1  2  1  0
  2  3  2  0
  2  4  2  0
  2  5  1  0
  5  6  2  0
  6  7  1  0
  7  8  2  0
  8  9  1  0
  9 10  1  0
 10 11  1  0
 11 12  2  0
 11 13  1  0
 13 14  1  0
 14 15  2  0
 15 16  1  0
 16 17  2  0
 16 18  1  0
 18 19  1  0
  8 20  1  0
 20 21  2  0
 21  5  1  0
 19 13  2  0
  1 22  1  0
  1 23  1  0
  1 24  1  0
  6 25  1  0
  7 26  1  0
  9 27  1  0
  9 28  1  0
 14 29  1  0
 15 30  1  0
 20 31  1  0
 21 32  1  0
M  CHG  2  10  -1  18  -1
M  END
>  <UniqueID>  (41) 
38

>  <SMILES>  (41) 
CS(=O)(=O)c1ccc(C[N-]C(=O)c2ccc(=O)[n-]n2)cc1

>  <Energy>  (41) 
34.21801103473196

>  <Genealogy>  (41) 
CS(=O)(=O)c1ccc(C[N-]C(=O)c2ccc(=O)[n-]n2)cc1 (protonated)
CS(=O)(=O)c1ccc(C[N-]C(=O)c2ccc(=O)[n-]n2)cc1 (3D coordinates assigned)
CS(=O)(=O)c1ccc(C[N-]C(=O)c2ccc(=O)[n-]n2)cc1 (optimized conformer: 34.21801103473196 kcal/mol)

>  <smiles>  (41) 
CS(=O)(=O)c1ccc(CNC(=O)c2ccc(=O)[nH]n2)cc1

>  <score_type>  (41) 
oracle

>  <origin>  (41) 
adg

>  <m_score__min__energy>  (41) 
-11.57

>  <m_primary>  (41) 
energy

$$$$
41:0
     RDKit          3D

 52 55  0  0  0  0  0  0  0  0999 V2000
   55.9079   30.4049   43.2206 H   0  0  0  0  0  0  0  0  0  0  0  0
   56.3110   29.4440   43.5730 C   0  0  0  0  0  0  0  0  0  0  0  0
   55.9335   28.5011   43.1506 H   0  0  0  0  0  0  0  0  0  0  0  0
   57.2650   29.4220   44.5200 C   0  0  0  0  0  0  0  0  0  0  0  0
   57.8670   28.2780   45.0610 C   0  0  0  0  0  0  0  0  0  0  0  0
   57.5660   26.9920   44.7730 C   0  0  0  0  0  0  0  0  0  0  0  0
   57.6389   26.6843   43.7194 H   0  0  0  0  0  0  0  0  0  0  0  0
   57.1470   25.9610   45.7490 C   0  0  0  0  0  0  0  0  0  0  0  0
   57.9130   24.9640   46.2290 N   0  0  0  0  0  0  0  0  0  0  0  0
   57.0740   24.2770   47.0320 C   0  0  0  0  0  0  0  0  0  0  0  0
   57.4340   23.2550   47.6730 O   0  0  0  0  0  0  0  0  0  0  0  0
   55.8180   24.7680   47.0900 N   0  0  0  0  0  0  0  0  0  0  0  0
   55.8800   25.8290   46.2690 C   0  0  0  0  0  0  0  0  0  0  0  0
   54.7960   26.6530   45.9930 O   0  0  0  0  0  0  0  0  0  0  0  0
   58.8280   28.7370   45.9520 C   0  0  0  0  0  0  0  0  0  0  0  0
   59.4994   28.1188   46.5661 H   0  0  0  0  0  0  0  0  0  0  0  0
   58.7810   30.1190   45.9210 C   0  0  0  0  0  0  0  0  0  0  0  0
   59.7070   30.9980   46.6700 C   0  0  0  0  0  0  0  0  0  0  0  0
   59.8780   32.1890   46.2940 O   0  0  0  0  0  0  0  0  0  0  0  0
   60.4320   30.4960   47.8040 N   0  0  0  0  0  0  0  0  0  0  0  0
   60.2960   29.4990   48.0870 H   0  0  0  0  0  0  0  0  0  0  0  0
   61.4890   31.2750   48.4570 C   0  0  2  0  0  0  0  0  0  0  0  0
   61.8146   30.6723   49.3177 H   0  0  0  0  0  0  0  0  0  0  0  0
   60.9680   32.6480   48.8800 C   0  0  0  0  0  0  0  0  0  0  0  0
   60.7393   32.6470   49.9560 H   0  0  0  0  0  0  0  0  0  0  0  0
   60.0474   32.8970   48.3318 H   0  0  0  0  0  0  0  0  0  0  0  0
   62.0200   33.6310   48.5930 N   0  0  0  0  0  0  0  0  0  0  0  0
   62.8180   34.0290   49.7810 C   0  0  0  0  0  0  0  0  0  0  0  0
   63.2758   35.0075   49.5739 H   0  0  0  0  0  0  0  0  0  0  0  0
   62.1203   34.0484   50.6312 H   0  0  0  0  0  0  0  0  0  0  0  0
   63.9250   33.0590   50.1570 C   0  0  0  0  0  0  0  0  0  0  0  0
   65.2570   33.3130   49.7840 C   0  0  0  0  0  0  0  0  0  0  0  0
   65.5017   34.2235   49.2174 H   0  0  0  0  0  0  0  0  0  0  0  0
   66.2730   32.4150   50.1290 C   0  0  0  0  0  0  0  0  0  0  0  0
   67.3103   32.6154   49.8227 H   0  0  0  0  0  0  0  0  0  0  0  0
   65.9720   31.2640   50.8620 C   0  0  0  0  0  0  0  0  0  0  0  0
   66.7702   30.5538   51.1238 H   0  0  0  0  0  0  0  0  0  0  0  0
   64.6570   31.0160   51.2620 C   0  0  0  0  0  0  0  0  0  0  0  0
   64.4223   30.1157   51.8488 H   0  0  0  0  0  0  0  0  0  0  0  0
   63.6380   31.9100   50.9180 C   0  0  0  0  0  0  0  0  0  0  0  0
   62.6059   31.7141   51.2441 H   0  0  0  0  0  0  0  0  0  0  0  0
   62.8200   33.0720   47.4960 C   0  0  0  0  0  0  0  0  0  0  0  0
   63.8792   33.3336   47.6366 H   0  0  0  0  0  0  0  0  0  0  0  0
   62.4821   33.4808   46.5323 H   0  0  0  0  0  0  0  0  0  0  0  0
   62.6560   31.5560   47.5120 C   0  0  0  0  0  0  0  0  0  0  0  0
   63.5734   31.0751   47.8823 H   0  0  0  0  0  0  0  0  0  0  0  0
   62.4665   31.1580   46.5042 H   0  0  0  0  0  0  0  0  0  0  0  0
   57.8130   30.5380   45.0700 N   0  0  0  0  0  0  0  0  0  0  0  0
   57.4430   31.9300   44.7890 C   0  0  0  0  0  0  0  0  0  0  0  0
   57.2995   32.4697   45.7367 H   0  0  0  0  0  0  0  0  0  0  0  0
   58.2441   32.4126   44.2098 H   0  0  0  0  0  0  0  0  0  0  0  0
   56.5081   31.9511   44.2098 H   0  0  0  0  0  0  0  0  0  0  0  0
  1  2  1  0
  2  3  1  0
  2  4  2  0
  4  5  1  0
  5  6  2  0
  6  7  1  0
  6  8  1  0
  8  9  1  0
  9 10  1  0
 10 11  2  0
 10 12  1  0
 12 13  1  0
 13 14  1  0
  5 15  1  0
 15 16  1  0
 15 17  2  0
 17 18  1  0
 18 19  2  0
 18 20  1  0
 20 21  1  0
 20 22  1  0
 22 23  1  1
 22 24  1  0
 24 25  1  0
 24 26  1  0
 24 27  1  0
 27 28  1  0
 28 29  1  0
 28 30  1  0
 28 31  1  0
 31 32  2  0
 32 33  1  0
 32 34  1  0
 34 35  1  0
 34 36  2  0
 36 37  1  0
 36 38  1  0
 38 39  1  0
 38 40  2  0
 40 41  1  0
 27 42  1  0
 42 43  1  0
 42 44  1  0
 42 45  1  0
 45 46  1  0
 45 47  1  0
 17 48  1  0
 48 49  1  0
 49 50  1  0
 49 51  1  0
 49 52  1  0
 48  4  1  0
 13  8  2  0
 45 22  1  0
 40 31  1  0
M  CHG  3   9  -1  12  -1  14  -1
M  END
>  <UniqueID>  (42) 
39

>  <SMILES>  (42) 
C=c1/c(=C/c2[n-]c(=O)[n-]c2[O-])cc(C(=O)N[C@H]2CCN(Cc3ccccc3)C2)n1C

>  <Energy>  (42) 
126.63732608990841

>  <Genealogy>  (42) 
C=c1c(=Cc2[n-]c(=O)[n-]c2[O-])cc(C(=O)NC2CCN(Cc3ccccc3)C2)n1C (protonated)
C=c1c(=Cc2[n-]c(=O)[n-]c2[O-])cc(C(=O)N[C@H]2CCN(Cc3ccccc3)C2)n1C (chirality)
C=c1/c(=C/c2[n-]c(=O)[n-]c2[O-])cc(C(=O)N[C@H]2CCN(Cc3ccccc3)C2)n1C (cis-trans isomerization)
C=c1/c(=C/c2[n-]c(=O)[n-]c2[O-])cc(C(=O)N[C@H]2CCN(Cc3ccccc3)C2)n1C (3D coordinates assigned)
C=c1/c(=C/c2[n-]c(=O)[n-]c2[O-])cc(C(=O)N[C@H]2CCN(Cc3ccccc3)C2)n1C (nonaromatic ring conformer: 126.63732608990841 kcal/mol)

>  <smiles>  (42) 
C=c1c(=Cc2[nH]c(=O)[nH]c2O)cc(C(=O)NC2CCN(Cc3ccccc3)C2)n1C

>  <score_type>  (42) 
oracle

>  <origin>  (42) 
adg

>  <m_score__min__energy>  (42) 
-18.239999999999998

>  <m_primary>  (42) 
energy

$$$$
42:0
     RDKit          3D

 28 29  0  0  0  0  0  0  0  0999 V2000
   57.2010   32.6750   40.5280 C   0  0  0  0  0  0  0  0  0  0  0  0
   58.1280   32.3530   41.4320 C   0  0  0  0  0  0  0  0  0  0  0  0
   57.8910   32.2800   42.8900 C   0  0  0  0  0  0  0  0  0  0  0  0
   58.2670   33.3050   43.7790 C   0  0  0  0  0  0  0  0  0  0  0  0
   57.9970   33.1560   45.1480 C   0  0  0  0  0  0  0  0  0  0  0  0
   58.3490   34.1270   46.0980 O   0  0  0  0  0  0  0  0  0  0  0  0
   59.5770   34.8010   46.1520 C   0  0  0  0  0  0  0  0  0  0  0  0
   59.7280   35.9020   45.5530 O   0  0  0  0  0  0  0  0  0  0  0  0
   60.6810   34.2450   46.9660 C   0  0  0  0  0  0  0  0  0  0  0  0
   61.8790   33.8220   46.3580 C   0  0  0  0  0  0  0  0  0  0  0  0
   62.9170   33.2970   47.1340 C   0  0  0  0  0  0  0  0  0  0  0  0
   62.7720   33.1860   48.5180 C   0  0  0  0  0  0  0  0  0  0  0  0
   61.5880   33.6020   49.1310 C   0  0  0  0  0  0  0  0  0  0  0  0
   60.5460   34.1290   48.3610 C   0  0  0  0  0  0  0  0  0  0  0  0
   57.3950   31.9780   45.5900 C   0  0  0  0  0  0  0  0  0  0  0  0
   57.0560   30.9960   44.6570 C   0  0  0  0  0  0  0  0  0  0  0  0
   56.5060   29.9300   45.0380 O   0  0  0  0  0  0  0  0  0  0  0  0
   57.3100   31.1800   43.3660 O   0  0  0  0  0  0  0  0  0  0  0  0
   57.4618   32.7060   39.4598 H   0  0  0  0  0  0  0  0  0  0  0  0
   56.1759   32.9094   40.8509 H   0  0  0  0  0  0  0  0  0  0  0  0
   59.1404   32.1257   41.0669 H   0  0  0  0  0  0  0  0  0  0  0  0
   58.7661   34.2112   43.4052 H   0  0  0  0  0  0  0  0  0  0  0  0
   61.9986   33.9050   45.2677 H   0  0  0  0  0  0  0  0  0  0  0  0
   63.8506   32.9705   46.6525 H   0  0  0  0  0  0  0  0  0  0  0  0
   63.5898   32.7711   49.1255 H   0  0  0  0  0  0  0  0  0  0  0  0
   61.4747   33.5150   50.2217 H   0  0  0  0  0  0  0  0  0  0  0  0
   59.6157   34.4546   48.8494 H   0  0  0  0  0  0  0  0  0  0  0  0
   57.1899   31.8246   46.6598 H   0  0  0  0  0  0  0  0  0  0  0  0
  1  2  2  0
  2  3  1  0
  3  4  2  0
  4  5  1  0
  5  6  1  0
  6  7  1  0
  7  8  2  0
  7  9  1  0
  9 10  2  0
 10 11  1  0
 11 12  2  0
 12 13  1  0
 13 14  2  0
  5 15  2  0
 15 16  1  0
 16 17  2  0
 16 18  1  0
 18  3  1  0
 14  9  1  0
  1 19  1  0
  1 20  1  0
  2 21  1  0
  4 22  1  0
 10 23  1  0
 11 24  1  0
 12 25  1  0
 13 26  1  0
 14 27  1  0
 15 28  1  0
M  END
>  <UniqueID>  (43) 
40

>  <SMILES>  (43) 
C=Cc1cc(OC(=O)c2ccccc2)cc(=O)o1

>  <Energy>  (43) 
36.19227265489165

>  <Genealogy>  (43) 
C=Cc1cc(OC(=O)c2ccccc2)cc(=O)o1 (3D coordinates assigned)
C=Cc1cc(OC(=O)c2ccccc2)cc(=O)o1 (optimized conformer: 36.19227265489165 kcal/mol)

>  <smiles>  (43) 
C=Cc1cc(OC(=O)c2ccccc2)cc(=O)o1

>  <score_type>  (43) 
oracle

>  <origin>  (43) 
adg

>  <m_score__min__energy>  (43) 
-6.5

>  <m_primary>  (43) 
energy

$$$$
43:0
     RDKit          3D

 58 61  0  0  0  0  0  0  0  0999 V2000
   61.5340   29.9600   49.0990 O   0  0  0  0  0  0  0  0  0  0  0  0
   60.8270   30.1640   48.0780 C   0  0  0  0  0  0  0  0  0  0  0  0
   61.1890   31.2000   47.1650 N   0  0  0  0  0  0  0  0  0  0  0  0
   62.1720   32.2350   47.4640 C   0  0  0  0  0  0  0  0  0  0  0  0
   61.4690   33.5810   47.6760 C   0  0  0  0  0  0  0  0  0  0  0  0
   60.9460   34.2000   46.3700 C   0  0  0  0  0  0  0  0  0  0  0  0
   59.4980   34.0420   46.2420 N   0  0  0  0  0  0  0  0  0  0  0  0
   58.6760   33.3940   47.0840 C   0  0  0  0  0  0  0  0  0  0  0  0
   57.4000   33.4760   46.5730 C   0  0  0  0  0  0  0  0  0  0  0  0
   57.4170   34.1740   45.4190 N   0  0  0  0  0  0  0  0  0  0  0  0
   58.7140   34.5070   45.2490 C   0  0  0  0  0  0  0  0  0  0  0  0
   59.6410   29.3350   47.7670 C   0  0  0  0  0  0  0  0  0  0  0  0
   58.5330   29.7530   48.1970 O   0  0  0  0  0  0  0  0  0  0  0  0
   59.6810   28.0800   47.0310 N   0  0  0  0  0  0  0  0  0  0  0  0
   60.2900   27.9250   45.6970 C   0  0  0  0  0  0  0  0  0  0  0  0
   60.2080   29.2220   44.8760 C   0  0  0  0  0  0  0  0  0  0  0  0
   58.7890   29.6580   44.6190 C   0  0  0  0  0  0  0  0  0  0  0  0
   58.5130   30.9810   44.2350 C   0  0  0  0  0  0  0  0  0  0  0  0
   57.2000   31.3790   43.9720 C   0  0  0  0  0  0  0  0  0  0  0  0
   56.1510   30.4630   44.0990 C   0  0  0  0  0  0  0  0  0  0  0  0
   56.4160   29.1480   44.4860 C   0  0  0  0  0  0  0  0  0  0  0  0
   57.7300   28.7430   44.7440 C   0  0  0  0  0  0  0  0  0  0  0  0
   59.1780   26.8650   47.6920 C   0  0  0  0  0  0  0  0  0  0  0  0
   58.2000   26.1630   46.8000 C   0  0  0  0  0  0  0  0  0  0  0  0
   56.9050   26.5720   46.7500 N   0  0  0  0  0  0  0  0  0  0  0  0
   55.9840   25.9190   45.9940 C   0  0  0  0  0  0  0  0  0  0  0  0
   54.7950   26.3330   45.9760 O   0  0  0  0  0  0  0  0  0  0  0  0
   56.3700   24.7910   45.2510 C   0  0  0  0  0  0  0  0  0  0  0  0
   55.4640   24.0580   44.4650 C   0  0  0  0  0  0  0  0  0  0  0  0
   55.9040   22.9350   43.7550 C   0  0  0  0  0  0  0  0  0  0  0  0
   57.2430   22.5410   43.8190 C   0  0  0  0  0  0  0  0  0  0  0  0
   58.1510   23.2640   44.5960 C   0  0  0  0  0  0  0  0  0  0  0  0
   57.7190   24.3840   45.3160 C   0  0  0  0  0  0  0  0  0  0  0  0
   58.5960   25.0730   46.0900 N   0  0  0  0  0  0  0  0  0  0  0  0
   62.7209   31.9629   48.3776 H   0  0  0  0  0  0  0  0  0  0  0  0
   62.8720   32.3225   46.6200 H   0  0  0  0  0  0  0  0  0  0  0  0
   60.6183   33.4284   48.3564 H   0  0  0  0  0  0  0  0  0  0  0  0
   62.2113   34.2765   48.0946 H   0  0  0  0  0  0  0  0  0  0  0  0
   61.1904   35.2725   46.3602 H   0  0  0  0  0  0  0  0  0  0  0  0
   61.4248   33.6805   45.5269 H   0  0  0  0  0  0  0  0  0  0  0  0
   58.9698   32.8881   48.0155 H   0  0  0  0  0  0  0  0  0  0  0  0
   56.5030   33.0387   47.0357 H   0  0  0  0  0  0  0  0  0  0  0  0
   59.0889   35.0919   44.3962 H   0  0  0  0  0  0  0  0  0  0  0  0
   61.3474   27.6473   45.8187 H   0  0  0  0  0  0  0  0  0  0  0  0
   59.7348   27.1438   45.1571 H   0  0  0  0  0  0  0  0  0  0  0  0
   60.7274   30.0204   45.4263 H   0  0  0  0  0  0  0  0  0  0  0  0
   60.6782   29.0284   43.9006 H   0  0  0  0  0  0  0  0  0  0  0  0
   59.3344   31.7066   44.1410 H   0  0  0  0  0  0  0  0  0  0  0  0
   56.9910   32.4143   43.6646 H   0  0  0  0  0  0  0  0  0  0  0  0
   55.1173   30.7785   43.8940 H   0  0  0  0  0  0  0  0  0  0  0  0
   55.5899   28.4289   44.5883 H   0  0  0  0  0  0  0  0  0  0  0  0
   57.9347   27.7052   45.0456 H   0  0  0  0  0  0  0  0  0  0  0  0
   60.0212   26.1925   47.9084 H   0  0  0  0  0  0  0  0  0  0  0  0
   58.6746   27.1460   48.6288 H   0  0  0  0  0  0  0  0  0  0  0  0
   54.4098   24.3668   44.4080 H   0  0  0  0  0  0  0  0  0  0  0  0
   55.1926   22.3601   43.1440 H   0  0  0  0  0  0  0  0  0  0  0  0
   57.5829   21.6592   43.2561 H   0  0  0  0  0  0  0  0  0  0  0  0
   59.2052   22.9534   44.6421 H   0  0  0  0  0  0  0  0  0  0  0  0
  1  2  2  0
  2  3  1  0
  3  4  1  0
  4  5  1  0
  5  6  1  0
  6  7  1  0
  7  8  1  0
  8  9  2  0
  9 10  1  0
 10 11  2  0
  2 12  1  0
 12 13  2  0
 12 14  1  0
 14 15  1  0
 15 16  1  0
 16 17  1  0
 17 18  2  0
 18 19  1  0
 19 20  2  0
 20 21  1  0
 21 22  2  0
 14 23  1  0
 23 24  1  0
 24 25  2  0
 25 26  1  0
 26 27  2  0
 26 28  1  0
 28 29  2  0
 29 30  1  0
 30 31  2  0
 31 32  1  0
 32 33  2  0
 33 34  1  0
 11  7  1  0
 22 17  1  0
 34 24  1  0
 33 28  1  0
  4 35  1  0
  4 36  1  0
  5 37  1  0
  5 38  1  0
  6 39  1  0
  6 40  1  0
  8 41  1  0
  9 42  1  0
 11 43  1  0
 15 44  1  0
 15 45  1  0
 16 46  1  0
 16 47  1  0
 18 48  1  0
 19 49  1  0
 20 50  1  0
 21 51  1  0
 22 52  1  0
 23 53  1  0
 23 54  1  0
 29 55  1  0
 30 56  1  0
 31 57  1  0
 32 58  1  0
M  CHG  2   3  -1  34  -1
M  END
>  <UniqueID>  (44) 
41

>  <SMILES>  (44) 
O=C([N-]CCCn1ccnc1)C(=O)N(CCc1ccccc1)Cc1nc(=O)c2ccccc2[n-]1

>  <Energy>  (44) 
86.25141872242948

>  <Genealogy>  (44) 
O=C([N-]CCCn1ccnc1)C(=O)N(CCc1ccccc1)Cc1nc(=O)c2ccccc2[n-]1 (protonated)
O=C([N-]CCCn1ccnc1)C(=O)N(CCc1ccccc1)Cc1nc(=O)c2ccccc2[n-]1 (3D coordinates assigned)
O=C([N-]CCCn1ccnc1)C(=O)N(CCc1ccccc1)Cc1nc(=O)c2ccccc2[n-]1 (optimized conformer: 86.25141872242948 kcal/mol)

>  <smiles>  (44) 
O=C(NCCCn1ccnc1)C(=O)N(CCc1ccccc1)Cc1nc(=O)c2ccccc2[nH]1

>  <score_type>  (44) 
oracle

>  <origin>  (44) 
adg

>  <m_score__min__energy>  (44) 
-12.57

>  <m_primary>  (44) 
energy

$$$$
44:0
     RDKit          3D

 65 67  0  0  0  0  0  0  0  0999 V2000
   57.7920   33.4250   52.3920 C   0  0  0  0  0  0  0  0  0  0  0  0
   59.0400   33.6430   51.9700 C   0  0  0  0  0  0  0  0  0  0  0  0
   59.8570   32.5670   51.3090 C   0  0  0  0  0  0  0  0  0  0  0  0
   61.2170   32.9800   51.2040 O   0  0  0  0  0  0  0  0  0  0  0  0
   61.6820   33.8450   50.2040 C   0  0  0  0  0  0  0  0  0  0  0  0
   62.5830   34.6930   50.4630 O   0  0  0  0  0  0  0  0  0  0  0  0
   61.0990   33.7870   48.8840 N   0  0  0  0  0  0  0  0  0  0  0  0
   62.1010   34.1650   47.8660 C   0  0  0  0  0  0  0  0  0  0  0  0
   61.5510   33.9120   46.4540 C   0  0  0  0  0  0  0  0  0  0  0  0
   60.1370   34.4270   46.3310 C   0  0  0  0  0  0  0  0  0  0  0  0
   59.3550   34.1440   45.2730 C   0  0  0  0  0  0  0  0  0  0  0  0
   58.6720   32.8530   45.0640 C   0  0  0  0  0  0  0  0  0  0  0  0
   58.4820   31.9960   46.1560 C   0  0  0  0  0  0  0  0  0  0  0  0
   57.7650   30.8060   46.0050 C   0  0  0  0  0  0  0  0  0  0  0  0
   57.2010   30.4650   44.7620 C   0  0  0  0  0  0  0  0  0  0  0  0
   56.4020   29.2270   44.6170 C   0  0  0  0  0  0  0  0  0  0  0  0
   55.1410   29.2830   44.6170 O   0  0  0  0  0  0  0  0  0  0  0  0
   57.0550   27.9620   44.4820 N   0  0  0  0  0  0  0  0  0  0  0  0
   57.7190   27.0970   45.8280 S   0  0  0  0  0  0  0  0  0  0  0  0
   56.6150   26.6450   46.7430 O   0  0  0  0  0  0  0  0  0  0  0  0
   58.4610   25.8860   45.3330 O   0  0  0  0  0  0  0  0  0  0  0  0
   58.8380   28.1620   46.6970 C   0  0  0  0  0  0  0  0  0  0  0  0
   58.5970   28.4290   48.0550 C   0  0  0  0  0  0  0  0  0  0  0  0
   59.4340   29.2870   48.7820 C   0  0  0  0  0  0  0  0  0  0  0  0
   59.1670   29.5290   50.2420 C   0  0  0  0  0  0  0  0  0  0  0  0
   60.5430   29.8780   48.1540 C   0  0  0  0  0  0  0  0  0  0  0  0
   61.3730   30.7260   48.9050 O   0  0  0  0  0  0  0  0  0  0  0  0
   62.6300   31.2290   48.4610 C   0  0  0  0  0  0  0  0  0  0  0  0
   60.7980   29.5980   46.7980 C   0  0  0  0  0  0  0  0  0  0  0  0
   59.9670   28.7310   46.0680 C   0  0  0  0  0  0  0  0  0  0  0  0
   60.2830   28.4730   44.6180 C   0  0  0  0  0  0  0  0  0  0  0  0
   57.3860   31.3330   43.6700 C   0  0  0  0  0  0  0  0  0  0  0  0
   58.1110   32.5190   43.8220 C   0  0  0  0  0  0  0  0  0  0  0  0
   59.5960   35.2670   47.4580 C   0  0  0  0  0  0  0  0  0  0  0  0
   59.8610   34.6140   48.8290 C   0  0  0  0  0  0  0  0  0  0  0  0
   57.2240   34.2359   52.8714 H   0  0  0  0  0  0  0  0  0  0  0  0
   57.3320   32.4345   52.2602 H   0  0  0  0  0  0  0  0  0  0  0  0
   59.4840   34.6396   52.1100 H   0  0  0  0  0  0  0  0  0  0  0  0
   59.8014   31.6471   51.9096 H   0  0  0  0  0  0  0  0  0  0  0  0
   59.4584   32.3802   50.3009 H   0  0  0  0  0  0  0  0  0  0  0  0
   60.8340   32.7870   48.7070 H   0  0  0  0  0  0  0  0  0  0  0  0
   62.3434   35.2324   47.9748 H   0  0  0  0  0  0  0  0  0  0  0  0
   63.0051   33.5556   48.0115 H   0  0  0  0  0  0  0  0  0  0  0  0
   62.1881   34.4280   45.7206 H   0  0  0  0  0  0  0  0  0  0  0  0
   61.5502   32.8285   46.2640 H   0  0  0  0  0  0  0  0  0  0  0  0
   59.2157   34.9274   44.5134 H   0  0  0  0  0  0  0  0  0  0  0  0
   58.8998   32.2615   47.1383 H   0  0  0  0  0  0  0  0  0  0  0  0
   57.6407   30.1308   46.8645 H   0  0  0  0  0  0  0  0  0  0  0  0
   57.7384   27.9576   48.5556 H   0  0  0  0  0  0  0  0  0  0  0  0
   59.8479   28.9118   50.8465 H   0  0  0  0  0  0  0  0  0  0  0  0
   59.3320   30.5916   50.4737 H   0  0  0  0  0  0  0  0  0  0  0  0
   58.1257   29.2606   50.4737 H   0  0  0  0  0  0  0  0  0  0  0  0
   63.2535   31.4785   49.3322 H   0  0  0  0  0  0  0  0  0  0  0  0
   63.1371   30.4645   47.8540 H   0  0  0  0  0  0  0  0  0  0  0  0
   62.4698   32.1323   47.8540 H   0  0  0  0  0  0  0  0  0  0  0  0
   61.6615   30.0653   46.3020 H   0  0  0  0  0  0  0  0  0  0  0  0
   61.1332   27.7788   44.5459 H   0  0  0  0  0  0  0  0  0  0  0  0
   59.4052   28.0302   44.1246 H   0  0  0  0  0  0  0  0  0  0  0  0
   60.5413   29.4216   44.1246 H   0  0  0  0  0  0  0  0  0  0  0  0
   56.9573   31.0768   42.6899 H   0  0  0  0  0  0  0  0  0  0  0  0
   58.2422   33.1938   42.9633 H   0  0  0  0  0  0  0  0  0  0  0  0
   60.0812   36.2539   47.4327 H   0  0  0  0  0  0  0  0  0  0  0  0
   58.5080   35.3612   47.3259 H   0  0  0  0  0  0  0  0  0  0  0  0
   59.9464   35.4127   49.5805 H   0  0  0  0  0  0  0  0  0  0  0  0
   59.0184   33.9339   49.0226 H   0  0  0  0  0  0  0  0  0  0  0  0
  1  2  2  0
  2  3  1  0
  3  4  1  0
  4  5  1  0
  5  6  2  0
  5  7  1  0
  7  8  1  0
  8  9  1  0
  9 10  1  0
 10 11  2  3
 11 12  1  0
 12 13  2  0
 13 14  1  0
 14 15  2  0
 15 16  1  0
 16 17  2  0
 16 18  1  0
 18 19  1  0
 19 20  2  0
 19 21  2  0
 19 22  1  0
 22 23  2  0
 23 24  1  0
 24 25  1  0
 24 26  2  0
 26 27  1  0
 27 28  1  0
 26 29  1  0
 29 30  2  0
 30 31  1  0
 15 32  1  0
 32 33  2  0
 10 34  1  0
 34 35  1  0
 35  7  1  0
 33 12  1  0
 30 22  1  0
  1 36  1  0
  1 37  1  0
  2 38  1  0
  3 39  1  0
  3 40  1  0
  7 41  1  0
  8 42  1  0
  8 43  1  0
  9 44  1  0
  9 45  1  0
 11 46  1  0
 13 47  1  0
 14 48  1  0
 23 49  1  0
 25 50  1  0
 25 51  1  0
 25 52  1  0
 28 53  1  0
 28 54  1  0
 28 55  1  0
 29 56  1  0
 31 57  1  0
 31 58  1  0
 31 59  1  0
 32 60  1  0
 33 61  1  0
 34 62  1  0
 34 63  1  0
 35 64  1  0
 35 65  1  0
M  CHG  2   7   1  18  -1
M  END
>  <UniqueID>  (45) 
42

>  <SMILES>  (45) 
C=CCOC(=O)[NH+]1CCC(=Cc2ccc(C(=O)[N-]S(=O)(=O)c3cc(C)c(OC)cc3C)cc2)CC1

>  <Energy>  (45) 
80.60043656424843

>  <Genealogy>  (45) 
C=CCOC(=O)[NH+]1CCC(=Cc2ccc(C(=O)[N-]S(=O)(=O)c3cc(C)c(OC)cc3C)cc2)CC1 (protonated)
C=CCOC(=O)[NH+]1CCC(=Cc2ccc(C(=O)[N-]S(=O)(=O)c3cc(C)c(OC)cc3C)cc2)CC1 (3D coordinates assigned)
C=CCOC(=O)[NH+]1CCC(=Cc2ccc(C(=O)[N-]S(=O)(=O)c3cc(C)c(OC)cc3C)cc2)CC1 (nonaromatic ring conformer: 80.60043656424843 kcal/mol)

>  <smiles>  (45) 
C=CCOC(=O)N1CCC(=Cc2ccc(C(=O)NS(=O)(=O)c3cc(C)c(OC)cc3C)cc2)CC1

>  <score_type>  (45) 
oracle

>  <origin>  (45) 
adg

>  <m_score__min__energy>  (45) 
-10.02

>  <m_primary>  (45) 
energy

$$$$
45:0
     RDKit          3D

 56 58  0  0  0  0  0  0  0  0999 V2000
   62.0490   32.4930   48.4570 C   0  0  0  0  0  0  0  0  0  0  0  0
   60.7320   32.8620   47.8280 C   0  0  0  0  0  0  0  0  0  0  0  0
   60.2180   34.1520   48.0400 C   0  0  0  0  0  0  0  0  0  0  0  0
   59.0040   34.5350   47.4760 C   0  0  0  0  0  0  0  0  0  0  0  0
   58.2740   33.6310   46.7100 C   0  0  0  0  0  0  0  0  0  0  0  0
   58.7520   32.3330   46.4920 C   0  0  0  0  0  0  0  0  0  0  0  0
   57.9390   31.4240   45.7330 N   0  0  0  0  0  0  0  0  0  0  0  0
   57.7000   31.5680   44.3180 C   0  0  0  0  0  0  0  0  0  0  0  0
   58.3350   32.5960   43.5930 C   0  0  0  0  0  0  0  0  0  0  0  0
   58.1360   32.7210   42.2170 C   0  0  0  0  0  0  0  0  0  0  0  0
   57.3120   31.8220   41.5430 C   0  0  0  0  0  0  0  0  0  0  0  0
   56.6770   30.7960   42.2430 C   0  0  0  0  0  0  0  0  0  0  0  0
   56.8530   30.6610   43.6320 C   0  0  0  0  0  0  0  0  0  0  0  0
   56.1460   29.5360   44.3520 C   0  0  0  0  0  0  0  0  0  0  0  0
   57.1180   28.5130   44.8870 C   0  0  0  0  0  0  0  0  0  0  0  0
   57.6860   27.7150   44.0940 O   0  0  0  0  0  0  0  0  0  0  0  0
   57.3670   28.3800   46.2900 N   0  0  0  0  0  0  0  0  0  0  0  0
   58.1250   27.2910   46.8940 C   0  0  0  0  0  0  0  0  0  0  0  0
   57.3440   26.0230   46.7760 C   0  0  0  0  0  0  0  0  0  0  0  0
   57.6000   25.0610   47.5500 O   0  0  0  0  0  0  0  0  0  0  0  0
   56.2790   25.9220   45.8210 N   0  0  0  0  0  0  0  0  0  0  0  0
   55.4230   24.7420   45.7230 C   0  0  0  0  0  0  0  0  0  0  0  0
   56.0970   23.6770   44.9020 C   0  0  0  0  0  0  0  0  0  0  0  0
   57.0660   22.8460   45.4890 C   0  0  0  0  0  0  0  0  0  0  0  0
   57.7150   21.8710   44.7250 C   0  0  0  0  0  0  0  0  0  0  0  0
   57.4020   21.7210   43.3700 C   0  0  0  0  0  0  0  0  0  0  0  0
   56.4420   22.5450   42.7790 C   0  0  0  0  0  0  0  0  0  0  0  0
   55.7920   23.5230   43.5400 C   0  0  0  0  0  0  0  0  0  0  0  0
   60.0190   31.9510   47.0020 C   0  0  0  0  0  0  0  0  0  0  0  0
   60.5880   30.5870   46.6850 C   0  0  0  0  0  0  0  0  0  0  0  0
   61.9525   32.5200   49.5524 H   0  0  0  0  0  0  0  0  0  0  0  0
   62.3361   31.4798   48.1391 H   0  0  0  0  0  0  0  0  0  0  0  0
   62.8207   33.2095   48.1391 H   0  0  0  0  0  0  0  0  0  0  0  0
   60.7806   34.8671   48.6581 H   0  0  0  0  0  0  0  0  0  0  0  0
   58.6213   35.5538   47.6361 H   0  0  0  0  0  0  0  0  0  0  0  0
   57.3131   33.9388   46.2720 H   0  0  0  0  0  0  0  0  0  0  0  0
   57.6530   30.5370   46.2040 H   0  0  0  0  0  0  0  0  0  0  0  0
   58.9930   33.3059   44.1157 H   0  0  0  0  0  0  0  0  0  0  0  0
   58.6314   33.5319   41.6629 H   0  0  0  0  0  0  0  0  0  0  0  0
   57.1621   31.9214   40.4578 H   0  0  0  0  0  0  0  0  0  0  0  0
   56.0327   30.0860   41.7038 H   0  0  0  0  0  0  0  0  0  0  0  0
   55.5730   29.9557   45.1919 H   0  0  0  0  0  0  0  0  0  0  0  0
   55.4831   29.0334   43.6323 H   0  0  0  0  0  0  0  0  0  0  0  0
   59.0875   27.1799   46.3732 H   0  0  0  0  0  0  0  0  0  0  0  0
   58.3091   27.5137   47.9554 H   0  0  0  0  0  0  0  0  0  0  0  0
   56.0970   26.7240   45.1760 H   0  0  0  0  0  0  0  0  0  0  0  0
   55.2254   24.3518   46.7323 H   0  0  0  0  0  0  0  0  0  0  0  0
   54.4773   25.0244   45.2372 H   0  0  0  0  0  0  0  0  0  0  0  0
   57.3152   22.9628   46.5540 H   0  0  0  0  0  0  0  0  0  0  0  0
   58.4718   21.2219   45.1897 H   0  0  0  0  0  0  0  0  0  0  0  0
   57.9124   20.9535   42.7696 H   0  0  0  0  0  0  0  0  0  0  0  0
   56.1963   22.4251   41.7135 H   0  0  0  0  0  0  0  0  0  0  0  0
   55.0397   24.1733   43.0698 H   0  0  0  0  0  0  0  0  0  0  0  0
   60.8098   30.0554   47.6221 H   0  0  0  0  0  0  0  0  0  0  0  0
   59.8552   30.0107   46.1011 H   0  0  0  0  0  0  0  0  0  0  0  0
   61.5131   30.7023   46.1011 H   0  0  0  0  0  0  0  0  0  0  0  0
  1  2  1  0
  2  3  2  0
  3  4  1  0
  4  5  2  0
  5  6  1  0
  6  7  1  0
  7  8  1  0
  8  9  2  0
  9 10  1  0
 10 11  2  0
 11 12  1  0
 12 13  2  0
 13 14  1  0
 14 15  1  0
 15 16  2  0
 15 17  1  0
 17 18  1  0
 18 19  1  0
 19 20  2  0
 19 21  1  0
 21 22  1  0
 22 23  1  0
 23 24  2  0
 24 25  1  0
 25 26  2  0
 26 27  1  0
 27 28  2  0
  6 29  2  0
 29 30  1  0
 29  2  1  0
 13  8  1  0
 28 23  1  0
  1 31  1  0
  1 32  1  0
  1 33  1  0
  3 34  1  0
  4 35  1  0
  5 36  1  0
  7 37  1  0
  9 38  1  0
 10 39  1  0
 11 40  1  0
 12 41  1  0
 14 42  1  0
 14 43  1  0
 18 44  1  0
 18 45  1  0
 21 46  1  0
 22 47  1  0
 22 48  1  0
 24 49  1  0
 25 50  1  0
 26 51  1  0
 27 52  1  0
 28 53  1  0
 30 54  1  0
 30 55  1  0
 30 56  1  0
M  CHG  1  17  -1
M  END
>  <UniqueID>  (46) 
43

>  <SMILES>  (46) 
Cc1cccc(Nc2ccccc2CC(=O)[N-]CC(=O)NCc2ccccc2)c1C

>  <Energy>  (46) 
61.0399970670148

>  <Genealogy>  (46) 
Cc1cccc(Nc2ccccc2CC(=O)[N-]CC(=O)NCc2ccccc2)c1C (protonated)
Cc1cccc(Nc2ccccc2CC(=O)[N-]CC(=O)NCc2ccccc2)c1C (3D coordinates assigned)
Cc1cccc(Nc2ccccc2CC(=O)[N-]CC(=O)NCc2ccccc2)c1C (optimized conformer: 61.0399970670148 kcal/mol)

>  <smiles>  (46) 
Cc1cccc(Nc2ccccc2CC(=O)NCC(=O)NCc2ccccc2)c1C

>  <score_type>  (46) 
oracle

>  <origin>  (46) 
adg

>  <m_score__min__energy>  (46) 
-10.83

>  <m_primary>  (46) 
energy

$$$$
46:0
     RDKit          3D

 63 67  0  0  0  0  0  0  0  0999 V2000
   54.6933   29.6856   43.9747 H   0  0  0  0  0  0  0  0  0  0  0  0
   55.7510   29.9530   44.1150 C   0  0  0  0  0  0  0  0  0  0  0  0
   56.0880   31.2160   44.4940 N   0  0  0  0  0  0  0  0  0  0  0  0
   57.3810   31.5900   44.6940 C   0  0  0  0  0  0  0  0  0  0  0  0
   57.6550   32.9530   45.0610 N   0  0  0  0  0  0  0  0  0  0  0  0
   58.6850   33.3800   45.7280 C   0  0  0  0  0  0  0  0  0  0  0  0
   59.4500   32.6070   46.5290 N   0  0  0  0  0  0  0  0  0  0  0  0
   60.4230   33.3350   47.1360 C   0  0  0  0  0  0  0  0  0  0  0  0
   61.5810   32.5900   48.2770 S   0  0  0  0  0  0  0  0  0  0  0  0
   60.9220   30.9490   47.9960 C   0  0  0  0  0  0  0  0  0  0  0  0
   60.2730   30.2670   49.0310 C   0  0  0  0  0  0  0  0  0  0  0  0
   60.1511   30.7475   50.0130 H   0  0  0  0  0  0  0  0  0  0  0  0
   59.7790   28.9760   48.8200 C   0  0  0  0  0  0  0  0  0  0  0  0
   59.2652   28.4464   49.6358 H   0  0  0  0  0  0  0  0  0  0  0  0
   59.9360   28.3510   47.5690 C   0  0  0  0  0  0  0  0  0  0  0  0
   59.4220   27.0310   47.3230 N   0  0  0  0  0  0  0  0  0  0  0  0
   59.9260   26.2220   47.7510 H   0  0  0  0  0  0  0  0  0  0  0  0
   58.1710   26.7780   46.6600 C   0  0  0  0  0  0  0  0  0  0  0  0
   57.2840   27.6740   46.6370 O   0  0  0  0  0  0  0  0  0  0  0  0
   57.8910   25.4580   46.0470 C   0  0  0  0  0  0  0  0  0  0  0  0
   56.6420   25.2030   45.4550 C   0  0  0  0  0  0  0  0  0  0  0  0
   55.8665   25.9831   45.4620 H   0  0  0  0  0  0  0  0  0  0  0  0
   56.3760   23.9690   44.8580 C   0  0  0  0  0  0  0  0  0  0  0  0
   55.3884   23.7795   44.4121 H   0  0  0  0  0  0  0  0  0  0  0  0
   57.3600   22.9690   44.8230 C   0  0  0  0  0  0  0  0  0  0  0  0
   57.0890   21.6550   44.1280 C   0  0  0  0  0  0  0  0  0  0  0  0
   58.0536   21.1824   43.8909 H   0  0  0  0  0  0  0  0  0  0  0  0
   56.5003   21.8837   43.2273 H   0  0  0  0  0  0  0  0  0  0  0  0
   56.2900   20.7060   44.9370 N   0  0  0  0  0  0  0  0  0  0  0  0
   55.1140   21.2830   45.6270 C   0  0  0  0  0  0  0  0  0  0  0  0
   54.2588   20.6062   45.4834 H   0  0  0  0  0  0  0  0  0  0  0  0
   54.9363   22.2765   45.1896 H   0  0  0  0  0  0  0  0  0  0  0  0
   55.3290   21.4840   47.1390 C   0  0  0  0  0  0  0  0  0  0  0  0
   54.8719   20.6454   47.6846 H   0  0  0  0  0  0  0  0  0  0  0  0
   54.8617   22.4324   47.4426 H   0  0  0  0  0  0  0  0  0  0  0  0
   56.7640   21.5390   47.4500 N   0  0  0  0  0  0  0  0  0  0  0  0
   56.9750   21.9110   48.8570 C   0  0  0  0  0  0  0  0  0  0  0  0
   56.5381   21.1407   49.5094 H   0  0  0  0  0  0  0  0  0  0  0  0
   58.0536   21.9922   49.0570 H   0  0  0  0  0  0  0  0  0  0  0  0
   56.4912   22.8784   49.0570 H   0  0  0  0  0  0  0  0  0  0  0  0
   57.3890   20.2350   47.1660 C   0  0  0  0  0  0  0  0  0  0  0  0
   57.0159   19.4969   47.8912 H   0  0  0  0  0  0  0  0  0  0  0  0
   58.4793   20.3560   47.2467 H   0  0  0  0  0  0  0  0  0  0  0  0
   57.0680   19.7380   45.7380 C   0  0  0  0  0  0  0  0  0  0  0  0
   56.4891   18.8059   45.8158 H   0  0  0  0  0  0  0  0  0  0  0  0
   58.0290   19.5911   45.2233 H   0  0  0  0  0  0  0  0  0  0  0  0
   58.6050   23.2140   45.4230 C   0  0  0  0  0  0  0  0  0  0  0  0
   59.3763   22.4298   45.4210 H   0  0  0  0  0  0  0  0  0  0  0  0
   58.8710   24.4480   46.0230 C   0  0  0  0  0  0  0  0  0  0  0  0
   59.8545   24.6314   46.4803 H   0  0  0  0  0  0  0  0  0  0  0  0
   60.5630   29.0540   46.5280 C   0  0  0  0  0  0  0  0  0  0  0  0
   60.6643   28.5873   45.5371 H   0  0  0  0  0  0  0  0  0  0  0  0
   61.0590   30.3420   46.7420 C   0  0  0  0  0  0  0  0  0  0  0  0
   61.5585   30.8807   45.9233 H   0  0  0  0  0  0  0  0  0  0  0  0
   60.4340   34.6920   46.8290 C   0  0  0  0  0  0  0  0  0  0  0  0
   61.1422   35.4385   47.2178 H   0  0  0  0  0  0  0  0  0  0  0  0
   59.1710   34.9880   45.7570 S   0  0  0  0  0  0  0  0  0  0  0  0
   58.4110   30.6580   44.4620 C   0  0  0  0  0  0  0  0  0  0  0  0
   59.4637   30.9522   44.5853 H   0  0  0  0  0  0  0  0  0  0  0  0
   58.0840   29.3570   44.0740 C   0  0  0  0  0  0  0  0  0  0  0  0
   58.8798   28.6173   43.9025 H   0  0  0  0  0  0  0  0  0  0  0  0
   56.7460   28.9960   43.9040 C   0  0  0  0  0  0  0  0  0  0  0  0
   56.4790   27.9709   43.6076 H   0  0  0  0  0  0  0  0  0  0  0  0
  1  2  1  0
  2  3  2  0
  3  4  1  0
  4  5  1  0
  5  6  2  0
  6  7  1  0
  7  8  1  0
  8  9  1  0
  9 10  1  0
 10 11  2  0
 11 12  1  0
 11 13  1  0
 13 14  1  0
 13 15  2  0
 15 16  1  0
 16 17  1  0
 16 18  1  0
 18 19  2  0
 18 20  1  0
 20 21  2  0
 21 22  1  0
 21 23  1  0
 23 24  1  0
 23 25  2  0
 25 26  1  0
 26 27  1  0
 26 28  1  0
 26 29  1  0
 29 30  1  0
 30 31  1  0
 30 32  1  0
 30 33  1  0
 33 34  1  0
 33 35  1  0
 33 36  1  0
 36 37  1  0
 37 38  1  0
 37 39  1  0
 37 40  1  0
 36 41  1  0
 41 42  1  0
 41 43  1  0
 41 44  1  0
 44 45  1  0
 44 46  1  0
 25 47  1  0
 47 48  1  0
 47 49  2  0
 49 50  1  0
 15 51  1  0
 51 52  1  0
 51 53  2  0
 53 54  1  0
  8 55  2  0
 55 56  1  0
 55 57  1  0
  4 58  2  0
 58 59  1  0
 58 60  1  0
 60 61  1  0
 60 62  2  0
 62 63  1  0
 62  2  1  0
 57  6  1  0
 53 10  1  0
 49 20  1  0
 44 29  1  0
M  CHG  1   7  -1
M  END
>  <UniqueID>  (47) 
44

>  <SMILES>  (47) 
CN1CCN(Cc2ccc(C(=O)Nc3ccc(Sc4cs/c(=N/c5ccccn5)[n-]4)cc3)cc2)CC1

>  <Energy>  (47) 
118.17495057092117

>  <Genealogy>  (47) 
CN1CCN(Cc2ccc(C(=O)Nc3ccc(Sc4csc(=Nc5ccccn5)[n-]4)cc3)cc2)CC1 (protonated)
CN1CCN(Cc2ccc(C(=O)Nc3ccc(Sc4cs/c(=N/c5ccccn5)[n-]4)cc3)cc2)CC1 (cis-trans isomerization)
CN1CCN(Cc2ccc(C(=O)Nc3ccc(Sc4cs/c(=N/c5ccccn5)[n-]4)cc3)cc2)CC1 (3D coordinates assigned)
CN1CCN(Cc2ccc(C(=O)Nc3ccc(Sc4cs/c(=N/c5ccccn5)[n-]4)cc3)cc2)CC1 (nonaromatic ring conformer: 118.17495057092117 kcal/mol)

>  <smiles>  (47) 
CN1CCN(Cc2ccc(C(=O)Nc3ccc(Sc4csc(=Nc5ccccn5)[nH]4)cc3)cc2)CC1

>  <score_type>  (47) 
oracle

>  <origin>  (47) 
adg

>  <m_score__min__energy>  (47) 
-11.050000000000001

>  <m_primary>  (47) 
energy

$$$$
47:0
     RDKit          3D

 57 60  0  0  0  0  0  0  0  0999 V2000
   60.5410   31.1110   50.3360 C   0  0  0  0  0  0  0  0  0  0  0  0
   60.1200   29.8620   49.6220 C   0  0  0  0  0  0  0  0  0  0  0  0
   60.9720   28.7460   49.6040 C   0  0  0  0  0  0  0  0  0  0  0  0
   60.6050   27.5900   48.9120 C   0  0  0  0  0  0  0  0  0  0  0  0
   59.3830   27.5320   48.2250 C   0  0  0  0  0  0  0  0  0  0  0  0
   59.0130   26.3000   47.4450 C   0  0  0  0  0  0  0  0  0  0  0  0
   57.5670   26.1180   47.4340 N   0  0  0  0  0  0  0  0  0  0  0  0
   56.7540   26.2980   46.2690 C   0  0  0  0  0  0  0  0  0  0  0  0
   55.4990   26.1880   46.3420 O   0  0  0  0  0  0  0  0  0  0  0  0
   57.3950   26.5910   44.9480 C   0  0  0  0  0  0  0  0  0  0  0  0
   57.8990   28.0350   44.8790 C   0  0  0  0  0  0  0  0  0  0  0  0
   57.6020   28.6250   43.5700 N   0  0  0  0  0  0  0  0  0  0  0  0
   56.7900   30.1460   43.7810 S   0  0  0  0  0  0  0  0  0  0  0  0
   55.5110   29.9190   44.5370 O   0  0  0  0  0  0  0  0  0  0  0  0
   56.4500   30.7430   42.4440 O   0  0  0  0  0  0  0  0  0  0  0  0
   57.8120   31.2550   44.6930 C   0  0  0  0  0  0  0  0  0  0  0  0
   58.6590   30.7710   45.7120 C   0  0  0  0  0  0  0  0  0  0  0  0
   59.4630   31.6560   46.4480 C   0  0  0  0  0  0  0  0  0  0  0  0
   59.3830   33.0250   46.1660 C   0  0  0  0  0  0  0  0  0  0  0  0
   58.5860   33.4900   45.1550 C   0  0  0  0  0  0  0  0  0  0  0  0
   57.7780   32.6320   44.4080 C   0  0  0  0  0  0  0  0  0  0  0  0
   58.7640   34.9560   44.9720 C   0  0  0  0  0  0  0  0  0  0  0  0
   59.8430   35.3170   46.0190 C   0  0  0  0  0  0  0  0  0  0  0  0
   60.1370   34.0820   46.7490 N   0  0  0  0  0  0  0  0  0  0  0  0
   60.9000   34.0600   47.9670 C   0  0  0  0  0  0  0  0  0  0  0  0
   60.2930   34.1520   49.0680 O   0  0  0  0  0  0  0  0  0  0  0  0
   62.3930   33.8410   47.9420 C   0  0  0  0  0  0  0  0  0  0  0  0
   62.8290   32.5290   47.3060 C   0  0  0  0  0  0  0  0  0  0  0  0
   63.0680   33.8390   46.5730 C   0  0  0  0  0  0  0  0  0  0  0  0
   58.5380   28.6540   48.2310 C   0  0  0  0  0  0  0  0  0  0  0  0
   58.9060   29.8120   48.9220 C   0  0  0  0  0  0  0  0  0  0  0  0
   60.4862   30.9484   51.4225 H   0  0  0  0  0  0  0  0  0  0  0  0
   61.5740   31.3637   50.0547 H   0  0  0  0  0  0  0  0  0  0  0  0
   59.8718   31.9374   50.0547 H   0  0  0  0  0  0  0  0  0  0  0  0
   61.9332   28.7826   50.1376 H   0  0  0  0  0  0  0  0  0  0  0  0
   61.2778   26.7198   48.9054 H   0  0  0  0  0  0  0  0  0  0  0  0
   59.3725   26.4048   46.4107 H   0  0  0  0  0  0  0  0  0  0  0  0
   59.4782   25.4243   47.9213 H   0  0  0  0  0  0  0  0  0  0  0  0
   58.2451   25.9081   44.8035 H   0  0  0  0  0  0  0  0  0  0  0  0
   56.6417   26.4495   44.1590 H   0  0  0  0  0  0  0  0  0  0  0  0
   57.4050   28.6278   45.6629 H   0  0  0  0  0  0  0  0  0  0  0  0
   58.9887   28.0370   45.0291 H   0  0  0  0  0  0  0  0  0  0  0  0
   56.9300   27.9990   43.0690 H   0  0  0  0  0  0  0  0  0  0  0  0
   58.6898   29.6935   45.9313 H   0  0  0  0  0  0  0  0  0  0  0  0
   60.1410   31.2819   47.2292 H   0  0  0  0  0  0  0  0  0  0  0  0
   57.1276   33.0245   43.6124 H   0  0  0  0  0  0  0  0  0  0  0  0
   59.1102   35.1868   43.9537 H   0  0  0  0  0  0  0  0  0  0  0  0
   57.8303   35.5226   45.1033 H   0  0  0  0  0  0  0  0  0  0  0  0
   60.7495   35.6889   45.5190 H   0  0  0  0  0  0  0  0  0  0  0  0
   59.4925   36.1087   46.6976 H   0  0  0  0  0  0  0  0  0  0  0  0
   62.5833   34.3655   48.8900 H   0  0  0  0  0  0  0  0  0  0  0  0
   63.6792   31.9711   47.7253 H   0  0  0  0  0  0  0  0  0  0  0  0
   62.3277   31.5815   47.0592 H   0  0  0  0  0  0  0  0  0  0  0  0
   64.0905   34.2294   46.4632 H   0  0  0  0  0  0  0  0  0  0  0  0
   62.8113   34.2322   45.5782 H   0  0  0  0  0  0  0  0  0  0  0  0
   57.5814   28.6212   47.6889 H   0  0  0  0  0  0  0  0  0  0  0  0
   58.2404   30.6878   48.9166 H   0  0  0  0  0  0  0  0  0  0  0  0
  1  2  1  0
  2  3  2  0
  3  4  1  0
  4  5  2  0
  5  6  1  0
  6  7  1  0
  7  8  1  0
  8  9  2  0
  8 10  1  0
 10 11  1  0
 11 12  1  0
 12 13  1  0
 13 14  2  0
 13 15  2  0
 13 16  1  0
 16 17  2  0
 17 18  1  0
 18 19  2  0
 19 20  1  0
 20 21  2  0
 20 22  1  0
 22 23  1  0
 23 24  1  0
 24 25  1  0
 25 26  2  0
 25 27  1  0
 27 28  1  0
 28 29  1  0
  5 30  1  0
 30 31  2  0
 31  2  1  0
 21 16  1  0
 29 27  1  0
 24 19  1  0
  1 32  1  0
  1 33  1  0
  1 34  1  0
  3 35  1  0
  4 36  1  0
  6 37  1  0
  6 38  1  0
 10 39  1  0
 10 40  1  0
 11 41  1  0
 11 42  1  0
 12 43  1  0
 17 44  1  0
 18 45  1  0
 21 46  1  0
 22 47  1  0
 22 48  1  0
 23 49  1  0
 23 50  1  0
 27 51  1  0
 28 52  1  0
 28 53  1  0
 29 54  1  0
 29 55  1  0
 30 56  1  0
 31 57  1  0
M  CHG  1   7  -1
M  END
>  <UniqueID>  (48) 
45

>  <SMILES>  (48) 
Cc1ccc(C[N-]C(=O)CCNS(=O)(=O)c2ccc3c(c2)CCN3C(=O)C2CC2)cc1

>  <Energy>  (48) 
332.5912750313041

>  <Genealogy>  (48) 
Cc1ccc(C[N-]C(=O)CCNS(=O)(=O)c2ccc3c(c2)CCN3C(=O)C2CC2)cc1 (protonated)
Cc1ccc(C[N-]C(=O)CCNS(=O)(=O)c2ccc3c(c2)CCN3C(=O)C2CC2)cc1 (3D coordinates assigned)
Cc1ccc(C[N-]C(=O)CCNS(=O)(=O)c2ccc3c(c2)CCN3C(=O)C2CC2)cc1 (nonaromatic ring conformer: 332.5912750313041 kcal/mol)

>  <smiles>  (48) 
Cc1ccc(CNC(=O)CCNS(=O)(=O)c2ccc3c(c2)CCN3C(=O)C2CC2)cc1

>  <score_type>  (48) 
oracle

>  <origin>  (48) 
adg

>  <m_score__min__energy>  (48) 
-12.890000000000001

>  <m_primary>  (48) 
energy

$$$$
48:0
     RDKit          3D

 41 42  0  0  0  0  0  0  0  0999 V2000
   61.0790   34.0200   46.3590 C   0  0  0  0  0  0  0  0  0  0  0  0
   59.8520   34.8340   46.3790 N   0  0  0  0  0  0  0  0  0  0  0  0
   58.8800   34.3430   47.3930 C   0  0  0  0  0  0  0  0  0  0  0  0
   57.6850   33.5780   46.7930 C   0  0  0  0  0  0  0  0  0  0  0  0
   58.0910   32.8730   45.5740 N   0  0  0  0  0  0  0  0  0  0  0  0
   57.8980   31.4530   45.4310 C   0  0  0  0  0  0  0  0  0  0  0  0
   58.5460   30.5550   46.2960 C   0  0  0  0  0  0  0  0  0  0  0  0
   58.3450   29.1780   46.1680 C   0  0  0  0  0  0  0  0  0  0  0  0
   57.4950   28.6720   45.1690 C   0  0  0  0  0  0  0  0  0  0  0  0
   57.2420   27.2630   45.0430 N   0  0  0  0  0  0  0  0  0  0  0  0
   58.2000   26.2440   45.3670 C   0  0  0  0  0  0  0  0  0  0  0  0
   59.4320   26.5110   45.4000 O   0  0  0  0  0  0  0  0  0  0  0  0
   57.7360   24.8560   45.6960 C   0  0  0  0  0  0  0  0  0  0  0  0
   56.5780   24.8930   46.6940 C   0  0  0  0  0  0  0  0  0  0  0  0
   55.4160   25.5450   46.0960 N   0  0  0  0  0  0  0  0  0  0  0  0
   54.4450   24.8770   45.6170 C   0  0  0  0  0  0  0  0  0  0  0  0
   53.2230   24.0240   45.0050 S   0  0  0  0  0  0  0  0  0  0  0  0
   56.8240   29.5700   44.3280 C   0  0  0  0  0  0  0  0  0  0  0  0
   57.0260   30.9460   44.4520 C   0  0  0  0  0  0  0  0  0  0  0  0
   58.7180   33.6460   44.4960 C   0  0  0  0  0  0  0  0  0  0  0  0
   59.2660   34.9810   45.0290 C   0  0  0  0  0  0  0  0  0  0  0  0
   61.3962   33.8095   47.3910 H   0  0  0  0  0  0  0  0  0  0  0  0
   60.8821   33.0728   45.8355 H   0  0  0  0  0  0  0  0  0  0  0  0
   61.8752   34.5696   45.8355 H   0  0  0  0  0  0  0  0  0  0  0  0
   59.4100   33.6708   48.0838 H   0  0  0  0  0  0  0  0  0  0  0  0
   58.4701   35.2300   47.8982 H   0  0  0  0  0  0  0  0  0  0  0  0
   57.3158   32.8479   47.5282 H   0  0  0  0  0  0  0  0  0  0  0  0
   56.8904   34.2963   46.5425 H   0  0  0  0  0  0  0  0  0  0  0  0
   59.2162   30.9386   47.0794 H   0  0  0  0  0  0  0  0  0  0  0  0
   58.8553   28.4854   46.8535 H   0  0  0  0  0  0  0  0  0  0  0  0
   56.3100   26.9600   44.6790 H   0  0  0  0  0  0  0  0  0  0  0  0
   57.4012   24.3595   44.7733 H   0  0  0  0  0  0  0  0  0  0  0  0
   58.5726   24.3021   46.1469 H   0  0  0  0  0  0  0  0  0  0  0  0
   56.3109   23.8646   46.9786 H   0  0  0  0  0  0  0  0  0  0  0  0
   56.8893   25.4606   47.5834 H   0  0  0  0  0  0  0  0  0  0  0  0
   56.1320   29.1874   43.5633 H   0  0  0  0  0  0  0  0  0  0  0  0
   56.4990   31.6382   43.7788 H   0  0  0  0  0  0  0  0  0  0  0  0
   59.5456   33.0617   44.0675 H   0  0  0  0  0  0  0  0  0  0  0  0
   57.9605   33.8575   43.7270 H   0  0  0  0  0  0  0  0  0  0  0  0
   60.0428   35.3470   44.3415 H   0  0  0  0  0  0  0  0  0  0  0  0
   58.4295   35.6923   45.0948 H   0  0  0  0  0  0  0  0  0  0  0  0
  1  2  1  0
  2  3  1  0
  3  4  1  0
  4  5  1  0
  5  6  1  0
  6  7  2  0
  7  8  1  0
  8  9  2  0
  9 10  1  0
 10 11  1  0
 11 12  2  0
 11 13  1  0
 13 14  1  0
 14 15  1  0
 15 16  2  0
 16 17  2  0
  9 18  1  0
 18 19  2  0
  5 20  1  0
 20 21  1  0
 21  2  1  0
 19  6  1  0
  1 22  1  0
  1 23  1  0
  1 24  1  0
  3 25  1  0
  3 26  1  0
  4 27  1  0
  4 28  1  0
  7 29  1  0
  8 30  1  0
 10 31  1  0
 13 32  1  0
 13 33  1  0
 14 34  1  0
 14 35  1  0
 18 36  1  0
 19 37  1  0
 20 38  1  0
 20 39  1  0
 21 40  1  0
 21 41  1  0
M  END
>  <UniqueID>  (49) 
46

>  <SMILES>  (49) 
CN1CCN(c2ccc(NC(=O)CCN=C=S)cc2)CC1

>  <Energy>  (49) 
48.4632522322681

>  <Genealogy>  (49) 
CN1CCN(c2ccc(NC(=O)CCN=C=S)cc2)CC1 (3D coordinates assigned)
CN1CCN(c2ccc(NC(=O)CCN=C=S)cc2)CC1 (nonaromatic ring conformer: 48.4632522322681 kcal/mol)

>  <smiles>  (49) 
CN1CCN(c2ccc(NC(=O)CCN=C=S)cc2)CC1

>  <score_type>  (49) 
oracle

>  <origin>  (49) 
adg

>  <m_score__min__energy>  (49) 
-6.9800000000000004

>  <m_primary>  (49) 
energy

$$$$
49:0
     RDKit          3D

 67 70  0  0  0  0  0  0  0  0999 V2000
   56.7070   29.5330   42.9940 C   0  0  0  0  0  0  0  0  0  0  0  0
   57.3350   29.4710   44.3480 C   0  0  0  0  0  0  0  0  0  0  0  0
   57.5730   30.6400   45.0730 C   0  0  0  0  0  0  0  0  0  0  0  0
   58.1340   30.5660   46.3550 C   0  0  0  0  0  0  0  0  0  0  0  0
   58.4120   31.8560   47.0880 C   0  0  0  0  0  0  0  0  0  0  0  0
   58.4060   29.2960   46.9270 C   0  0  0  0  0  0  0  0  0  0  0  0
   58.9450   29.1680   48.3060 C   0  0  0  0  0  0  0  0  0  0  0  0
   58.1690   29.2550   49.2940 O   0  0  0  0  0  0  0  0  0  0  0  0
   60.3390   28.9050   48.5110 N   0  0  0  0  0  0  0  0  0  0  0  0
   61.2930   29.8360   49.0380 C   0  0  0  0  0  0  0  0  0  0  0  0
   61.8790   29.6540   50.3010 C   0  0  0  0  0  0  0  0  0  0  0  0
   62.7970   30.5890   50.7890 C   0  0  0  0  0  0  0  0  0  0  0  0
   63.1360   31.7080   50.0210 C   0  0  0  0  0  0  0  0  0  0  0  0
   62.5470   31.9030   48.7640 C   0  0  0  0  0  0  0  0  0  0  0  0
   62.9880   33.3050   47.7860 S   0  0  0  0  0  0  0  0  0  0  0  0
   63.8900   34.2050   48.5840 O   0  0  0  0  0  0  0  0  0  0  0  0
   63.7520   32.8380   46.5790 O   0  0  0  0  0  0  0  0  0  0  0  0
   61.5860   34.2140   47.2750 N   0  0  0  0  0  0  0  0  0  0  0  0
   60.5470   34.1930   48.3150 C   0  0  0  0  0  0  0  0  0  0  0  0
   59.2880   34.9430   47.8270 C   0  0  0  0  0  0  0  0  0  0  0  0
   59.4700   35.4830   46.5300 O   0  0  0  0  0  0  0  0  0  0  0  0
   59.7660   34.4430   45.6160 C   0  0  0  0  0  0  0  0  0  0  0  0
   61.0480   33.6820   46.0130 C   0  0  0  0  0  0  0  0  0  0  0  0
   61.6140   30.9720   48.2840 C   0  0  0  0  0  0  0  0  0  0  0  0
   58.1440   28.1410   46.1480 C   0  0  0  0  0  0  0  0  0  0  0  0
   58.4090   26.4740   46.7760 S   0  0  0  0  0  0  0  0  0  0  0  0
   57.3070   25.6610   45.5710 C   0  0  0  0  0  0  0  0  0  0  0  0
   55.9130   25.6770   46.1050 C   0  0  0  0  0  0  0  0  0  0  0  0
   55.2090   26.7160   45.9810 O   0  0  0  0  0  0  0  0  0  0  0  0
   55.3660   24.4990   46.7000 N   0  0  0  0  0  0  0  0  0  0  0  0
   54.8650   23.3670   45.9290 C   0  0  0  0  0  0  0  0  0  0  0  0
   56.0000   22.7200   45.1780 C   0  0  0  0  0  0  0  0  0  0  0  0
   55.9330   22.5850   43.7790 C   0  0  0  0  0  0  0  0  0  0  0  0
   56.9950   22.0130   43.0730 C   0  0  0  0  0  0  0  0  0  0  0  0
   58.1330   21.5750   43.7530 C   0  0  0  0  0  0  0  0  0  0  0  0
   58.2190   21.7200   45.1400 C   0  0  0  0  0  0  0  0  0  0  0  0
   57.1610   22.2980   45.8570 C   0  0  0  0  0  0  0  0  0  0  0  0
   57.2590   22.4580   47.2410 O   0  0  0  0  0  0  0  0  0  0  0  0
   57.6220   28.2670   44.9010 N   0  0  0  0  0  0  0  0  0  0  0  0
   55.6174   29.6406   43.0998 H   0  0  0  0  0  0  0  0  0  0  0  0
   57.1088   30.3958   42.4426 H   0  0  0  0  0  0  0  0  0  0  0  0
   56.9323   28.6082   42.4426 H   0  0  0  0  0  0  0  0  0  0  0  0
   57.3204   31.6184   44.6383 H   0  0  0  0  0  0  0  0  0  0  0  0
   58.3734   31.6770   48.1727 H   0  0  0  0  0  0  0  0  0  0  0  0
   59.4106   32.2263   46.8127 H   0  0  0  0  0  0  0  0  0  0  0  0
   57.6546   32.6047   46.8127 H   0  0  0  0  0  0  0  0  0  0  0  0
   61.6155   28.7748   50.9073 H   0  0  0  0  0  0  0  0  0  0  0  0
   63.2537   30.4443   51.7792 H   0  0  0  0  0  0  0  0  0  0  0  0
   63.8660   32.4362   50.4042 H   0  0  0  0  0  0  0  0  0  0  0  0
   60.2828   33.1499   48.5435 H   0  0  0  0  0  0  0  0  0  0  0  0
   60.9329   34.6893   49.2177 H   0  0  0  0  0  0  0  0  0  0  0  0
   58.4410   34.2415   47.8055 H   0  0  0  0  0  0  0  0  0  0  0  0
   59.0935   35.7744   48.5206 H   0  0  0  0  0  0  0  0  0  0  0  0
   58.9236   33.7359   45.5956 H   0  0  0  0  0  0  0  0  0  0  0  0
   59.9272   34.8929   44.6252 H   0  0  0  0  0  0  0  0  0  0  0  0
   60.8124   32.6150   46.1399 H   0  0  0  0  0  0  0  0  0  0  0  0
   61.8003   33.8095   45.2207 H   0  0  0  0  0  0  0  0  0  0  0  0
   61.1313   31.1351   47.3091 H   0  0  0  0  0  0  0  0  0  0  0  0
   57.3423   26.2024   44.6141 H   0  0  0  0  0  0  0  0  0  0  0  0
   57.6326   24.6229   45.4086 H   0  0  0  0  0  0  0  0  0  0  0  0
   54.4122   22.6322   46.6109 H   0  0  0  0  0  0  0  0  0  0  0  0
   54.1096   23.7211   45.2121 H   0  0  0  0  0  0  0  0  0  0  0  0
   55.0400   22.9315   43.2381 H   0  0  0  0  0  0  0  0  0  0  0  0
   56.9341   21.9077   41.9797 H   0  0  0  0  0  0  0  0  0  0  0  0
   58.9628   21.1153   43.1962 H   0  0  0  0  0  0  0  0  0  0  0  0
   59.1198   21.3796   45.6717 H   0  0  0  0  0  0  0  0  0  0  0  0
   56.6860   23.1290   47.7420 H   0  0  0  0  0  0  0  0  0  0  0  0
  1  2  1  0
  2  3  2  0
  3  4  1  0
  4  5  1  0
  4  6  2  0
  6  7  1  0
  7  8  2  0
  7  9  1  0
  9 10  1  0
 10 11  2  0
 11 12  1  0
 12 13  2  0
 13 14  1  0
 14 15  1  0
 15 16  2  0
 15 17  2  0
 15 18  1  0
 18 19  1  0
 19 20  1  0
 20 21  1  0
 21 22  1  0
 22 23  1  0
 14 24  2  0
  6 25  1  0
 25 26  1  0
 26 27  1  0
 27 28  1  0
 28 29  2  0
 28 30  1  0
 30 31  1  0
 31 32  1  0
 32 33  2  0
 33 34  1  0
 34 35  2  0
 35 36  1  0
 36 37  2  0
 37 38  1  0
 25 39  2  0
 39  2  1  0
 24 10  1  0
 37 32  1  0
 23 18  1  0
  1 40  1  0
  1 41  1  0
  1 42  1  0
  3 43  1  0
  5 44  1  0
  5 45  1  0
  5 46  1  0
 11 47  1  0
 12 48  1  0
 13 49  1  0
 19 50  1  0
 19 51  1  0
 20 52  1  0
 20 53  1  0
 22 54  1  0
 22 55  1  0
 23 56  1  0
 23 57  1  0
 24 58  1  0
 27 59  1  0
 27 60  1  0
 31 61  1  0
 31 62  1  0
 33 63  1  0
 34 64  1  0
 35 65  1  0
 36 66  1  0
 38 67  1  0
M  CHG  2   9  -1  30  -1
M  END
>  <UniqueID>  (50) 
47

>  <SMILES>  (50) 
Cc1cc(C)c(C(=O)[N-]c2cccc(S(=O)(=O)N3CCOCC3)c2)c(SCC(=O)[N-]Cc2ccccc2O)n1

>  <Energy>  (50) 
81.67117560879088

>  <Genealogy>  (50) 
Cc1cc(C)c(C(=O)[N-]c2cccc(S(=O)(=O)N3CCOCC3)c2)c(SCC(=O)[N-]Cc2ccccc2O)n1 (protonated)
Cc1cc(C)c(C(=O)[N-]c2cccc(S(=O)(=O)N3CCOCC3)c2)c(SCC(=O)[N-]Cc2ccccc2O)n1 (3D coordinates assigned)
Cc1cc(C)c(C(=O)[N-]c2cccc(S(=O)(=O)N3CCOCC3)c2)c(SCC(=O)[N-]Cc2ccccc2O)n1 (nonaromatic ring conformer: 81.67117560879088 kcal/mol)

>  <smiles>  (50) 
Cc1cc(C)c(C(=O)Nc2cccc(S(=O)(=O)N3CCOCC3)c2)c(SCC(=O)NCc2ccccc2O)n1

>  <score_type>  (50) 
oracle

>  <origin>  (50) 
adg

>  <m_score__min__energy>  (50) 
-13.710000000000001

>  <m_primary>  (50) 
energy

$$$$
50:0
     RDKit          3D

 56 58  0  0  0  0  0  0  0  0999 V2000
   51.2780   32.2660   51.2150 N   0  0  0  0  0  0  0  0  0  0  0  0
   51.6550   30.5840   51.3390 S   0  0  0  0  0  0  0  0  0  0  0  0
   50.7350   29.9330   52.3340 O   0  0  0  0  0  0  0  0  0  0  0  0
   51.4580   29.9290   50.0020 O   0  0  0  0  0  0  0  0  0  0  0  0
   53.3250   30.3930   51.8620 C   0  0  0  0  0  0  0  0  0  0  0  0
   54.1930   31.4910   51.8720 C   0  0  0  0  0  0  0  0  0  0  0  0
   55.5190   31.3360   52.2900 C   0  0  0  0  0  0  0  0  0  0  0  0
   55.9810   30.0880   52.7280 C   0  0  0  0  0  0  0  0  0  0  0  0
   57.3950   29.9410   53.1300 C   0  0  0  0  0  0  0  0  0  0  0  0
   58.3070   30.9250   53.1330 C   0  0  0  0  0  0  0  0  0  0  0  0
   58.4620   31.9540   52.0860 C   0  0  0  0  0  0  0  0  0  0  0  0
   58.0330   33.1170   52.3080 O   0  0  0  0  0  0  0  0  0  0  0  0
   59.1430   31.6630   50.8600 N   0  0  0  0  0  0  0  0  0  0  0  0
   58.5270   30.9610   49.7400 C   0  0  0  0  0  0  0  0  0  0  0  0
   59.1480   29.5710   49.5740 C   0  0  0  0  0  0  0  0  0  0  0  0
   59.8110   29.4000   48.1990 C   0  0  0  0  0  0  0  0  0  0  0  0
   59.1710   28.3260   47.4080 N   0  0  0  0  0  0  0  0  0  0  0  0
   60.1270   27.2310   47.1520 C   0  0  0  0  0  0  0  0  0  0  0  0
   59.3690   26.0170   46.6010 C   0  0  0  0  0  0  0  0  0  0  0  0
   58.3250   26.4410   45.6600 N   0  0  0  0  0  0  0  0  0  0  0  0
   57.2430   25.5530   45.3280 C   0  0  0  0  0  0  0  0  0  0  0  0
   57.2630   24.8280   44.1230 C   0  0  0  0  0  0  0  0  0  0  0  0
   56.2050   23.9760   43.7930 C   0  0  0  0  0  0  0  0  0  0  0  0
   55.1160   23.8410   44.6580 C   0  0  0  0  0  0  0  0  0  0  0  0
   54.0670   22.9930   44.3290 O   0  0  0  0  0  0  0  0  0  0  0  0
   55.0830   24.5630   45.8550 C   0  0  0  0  0  0  0  0  0  0  0  0
   56.1400   25.4170   46.1900 C   0  0  0  0  0  0  0  0  0  0  0  0
   58.4240   27.7730   45.0540 C   0  0  0  0  0  0  0  0  0  0  0  0
   58.5840   28.8490   46.1460 C   0  0  0  0  0  0  0  0  0  0  0  0
   55.1150   28.9830   52.6940 C   0  0  0  0  0  0  0  0  0  0  0  0
   53.7900   29.1390   52.2760 C   0  0  0  0  0  0  0  0  0  0  0  0
   50.2920   32.3340   50.8730 H   0  0  0  0  0  0  0  0  0  0  0  0
   53.8314   32.4788   51.5502 H   0  0  0  0  0  0  0  0  0  0  0  0
   56.2021   32.1980   52.2747 H   0  0  0  0  0  0  0  0  0  0  0  0
   57.7272   28.9434   53.4532 H   0  0  0  0  0  0  0  0  0  0  0  0
   58.9977   30.9687   53.9880 H   0  0  0  0  0  0  0  0  0  0  0  0
   57.4482   30.8559   49.9274 H   0  0  0  0  0  0  0  0  0  0  0  0
   58.6964   31.5395   48.8199 H   0  0  0  0  0  0  0  0  0  0  0  0
   59.9080   29.4254   50.3558 H   0  0  0  0  0  0  0  0  0  0  0  0
   58.3433   28.8259   49.6593 H   0  0  0  0  0  0  0  0  0  0  0  0
   59.7297   30.3467   47.6447 H   0  0  0  0  0  0  0  0  0  0  0  0
   60.8636   29.1240   48.3599 H   0  0  0  0  0  0  0  0  0  0  0  0
   60.8762   27.5612   46.4174 H   0  0  0  0  0  0  0  0  0  0  0  0
   60.6330   26.9560   48.0892 H   0  0  0  0  0  0  0  0  0  0  0  0
   60.0768   25.3549   46.0808 H   0  0  0  0  0  0  0  0  0  0  0  0
   58.8951   25.4854   47.4393 H   0  0  0  0  0  0  0  0  0  0  0  0
   58.1160   24.9320   43.4363 H   0  0  0  0  0  0  0  0  0  0  0  0
   56.2299   23.4104   42.8499 H   0  0  0  0  0  0  0  0  0  0  0  0
   54.2244   24.4596   46.5348 H   0  0  0  0  0  0  0  0  0  0  0  0
   56.1079   25.9844   47.1318 H   0  0  0  0  0  0  0  0  0  0  0  0
   59.2966   27.8029   44.3849 H   0  0  0  0  0  0  0  0  0  0  0  0
   57.5046   27.9756   44.4851 H   0  0  0  0  0  0  0  0  0  0  0  0
   59.2393   29.6435   45.7595 H   0  0  0  0  0  0  0  0  0  0  0  0
   57.5770   29.2210   46.3857 H   0  0  0  0  0  0  0  0  0  0  0  0
   55.4806   27.9909   52.9974 H   0  0  0  0  0  0  0  0  0  0  0  0
   53.1107   28.2738   52.2724 H   0  0  0  0  0  0  0  0  0  0  0  0
  1  2  1  0
  2  3  2  0
  2  4  2  0
  2  5  1  0
  5  6  2  0
  6  7  1  0
  7  8  2  0
  8  9  1  0
  9 10  2  3
 10 11  1  0
 11 12  2  0
 11 13  1  0
 13 14  1  0
 14 15  1  0
 15 16  1  0
 16 17  1  0
 17 18  1  0
 18 19  1  0
 19 20  1  0
 20 21  1  0
 21 22  2  0
 22 23  1  0
 23 24  2  0
 24 25  1  0
 24 26  1  0
 26 27  2  0
 20 28  1  0
 28 29  1  0
  8 30  1  0
 30 31  2  0
 31  5  1  0
 29 17  1  0
 27 21  1  0
  1 32  1  0
  6 33  1  0
  7 34  1  0
  9 35  1  0
 10 36  1  0
 14 37  1  0
 14 38  1  0
 15 39  1  0
 15 40  1  0
 16 41  1  0
 16 42  1  0
 18 43  1  0
 18 44  1  0
 19 45  1  0
 19 46  1  0
 22 47  1  0
 23 48  1  0
 26 49  1  0
 27 50  1  0
 28 51  1  0
 28 52  1  0
 29 53  1  0
 29 54  1  0
 30 55  1  0
 31 56  1  0
M  CHG  3   1  -1  13  -1  25  -1
M  END
>  <UniqueID>  (51) 
48

>  <SMILES>  (51) 
[NH-]S(=O)(=O)c1ccc(C=CC(=O)[N-]CCCN2CCN(c3ccc([O-])cc3)CC2)cc1

>  <Energy>  (51) 
68.84392090871505

>  <Genealogy>  (51) 
[NH-]S(=O)(=O)c1ccc(C=CC(=O)[N-]CCCN2CCN(c3ccc([O-])cc3)CC2)cc1 (protonated)
[NH-]S(=O)(=O)c1ccc(C=CC(=O)[N-]CCCN2CCN(c3ccc([O-])cc3)CC2)cc1 (3D coordinates assigned)
[NH-]S(=O)(=O)c1ccc(C=CC(=O)[N-]CCCN2CCN(c3ccc([O-])cc3)CC2)cc1 (nonaromatic ring conformer: 68.84392090871505 kcal/mol)

>  <smiles>  (51) 
NS(=O)(=O)c1ccc(C=CC(=O)NCCCN2CCN(c3ccc(O)cc3)CC2)cc1

>  <score_type>  (51) 
oracle

>  <origin>  (51) 
adg

>  <m_score__min__energy>  (51) 
-13.94

>  <m_primary>  (51) 
energy

$$$$
51:0
     RDKit          3D

 65 68  0  0  0  0  0  0  0  0999 V2000
   59.6720   29.6130   46.5230 C   0  0  0  0  0  0  0  0  0  0  0  0
   59.4370   29.9830   45.0630 C   0  0  0  0  0  0  0  0  0  0  0  0
   58.0030   30.0250   44.7710 N   0  0  0  0  0  0  0  0  0  0  0  0
   57.1740   31.0910   44.7150 C   0  0  0  0  0  0  0  0  0  0  0  0
   57.5790   32.5280   44.8810 C   0  0  0  0  0  0  0  0  0  0  0  0
   58.5860   32.6700   45.9310 N   0  0  0  0  0  0  0  0  0  0  0  0
   59.5620   33.7270   45.9360 C   0  0  0  0  0  0  0  0  0  0  0  0
   59.5960   34.5500   44.9800 O   0  0  0  0  0  0  0  0  0  0  0  0
   60.5510   33.8560   47.0350 C   0  0  0  0  0  0  0  0  0  0  0  0
   60.1100   34.0990   48.3480 C   0  0  0  0  0  0  0  0  0  0  0  0
   61.0270   34.2180   49.3960 C   0  0  0  0  0  0  0  0  0  0  0  0
   62.4020   34.1020   49.1500 C   0  0  0  0  0  0  0  0  0  0  0  0
   63.3840   34.1830   50.2810 C   0  0  0  0  0  0  0  0  0  0  0  0
   62.8460   33.8330   47.8480 C   0  0  0  0  0  0  0  0  0  0  0  0
   61.9310   33.7120   46.7980 C   0  0  0  0  0  0  0  0  0  0  0  0
   55.8950   30.7050   44.5350 N   0  0  0  0  0  0  0  0  0  0  0  0
   55.8900   29.3810   44.4710 N   0  0  0  0  0  0  0  0  0  0  0  0
   57.1660   28.9810   44.6090 C   0  0  0  0  0  0  0  0  0  0  0  0
   57.6660   27.2580   44.6510 S   0  0  0  0  0  0  0  0  0  0  0  0
   57.0340   26.9730   46.3380 C   0  0  0  0  0  0  0  0  0  0  0  0
   55.9220   25.9770   46.3010 C   0  0  0  0  0  0  0  0  0  0  0  0
   54.7590   26.3460   45.9870 O   0  0  0  0  0  0  0  0  0  0  0  0
   56.2020   24.6080   46.6150 N   0  0  0  0  0  0  0  0  0  0  0  0
   56.9150   23.6670   45.7970 C   0  0  0  0  0  0  0  0  0  0  0  0
   58.2800   23.4030   46.0080 C   0  0  0  0  0  0  0  0  0  0  0  0
   58.9680   22.5250   45.1670 C   0  0  0  0  0  0  0  0  0  0  0  0
   58.3050   21.9050   44.1080 C   0  0  0  0  0  0  0  0  0  0  0  0
   56.9540   22.1710   43.8780 C   0  0  0  0  0  0  0  0  0  0  0  0
   56.2550   23.0660   44.7050 C   0  0  0  0  0  0  0  0  0  0  0  0
   54.8230   23.3300   44.4500 C   0  0  0  0  0  0  0  0  0  0  0  0
   54.4720   23.7150   43.3010 O   0  0  0  0  0  0  0  0  0  0  0  0
   53.8270   23.1300   45.4680 N   0  0  0  0  0  0  0  0  0  0  0  0
   52.4270   23.4640   45.2730 C   0  0  0  0  0  0  0  0  0  0  0  0
   51.6680   22.7360   46.3770 C   0  0  0  0  0  0  0  0  0  0  0  0
   52.7150   22.3470   47.4170 C   0  0  0  0  0  0  0  0  0  0  0  0
   54.0560   22.3780   46.6930 C   0  0  0  0  0  0  0  0  0  0  0  0
   59.1960   30.3625   47.1724 H   0  0  0  0  0  0  0  0  0  0  0  0
   59.2366   28.6232   46.7251 H   0  0  0  0  0  0  0  0  0  0  0  0
   60.7529   29.5863   46.7251 H   0  0  0  0  0  0  0  0  0  0  0  0
   59.8763   30.9718   44.8646 H   0  0  0  0  0  0  0  0  0  0  0  0
   59.9093   29.2237   44.4223 H   0  0  0  0  0  0  0  0  0  0  0  0
   57.9946   32.8967   43.9316 H   0  0  0  0  0  0  0  0  0  0  0  0
   56.6912   33.1119   45.1653 H   0  0  0  0  0  0  0  0  0  0  0  0
   58.5880   31.9550   46.6920 H   0  0  0  0  0  0  0  0  0  0  0  0
   59.0335   34.1963   48.5521 H   0  0  0  0  0  0  0  0  0  0  0  0
   60.6678   34.4036   50.4190 H   0  0  0  0  0  0  0  0  0  0  0  0
   62.8447   34.1385   51.2387 H   0  0  0  0  0  0  0  0  0  0  0  0
   64.0875   33.3398   50.2168 H   0  0  0  0  0  0  0  0  0  0  0  0
   63.9399   35.1300   50.2168 H   0  0  0  0  0  0  0  0  0  0  0  0
   63.9219   33.7163   47.6510 H   0  0  0  0  0  0  0  0  0  0  0  0
   62.2918   33.5029   45.7801 H   0  0  0  0  0  0  0  0  0  0  0  0
   57.8467   26.5893   46.9723 H   0  0  0  0  0  0  0  0  0  0  0  0
   56.6581   27.9213   46.7496 H   0  0  0  0  0  0  0  0  0  0  0  0
   58.8090   23.8906   46.8400 H   0  0  0  0  0  0  0  0  0  0  0  0
   60.0351   22.3221   45.3404 H   0  0  0  0  0  0  0  0  0  0  0  0
   58.8469   21.2062   43.4538 H   0  0  0  0  0  0  0  0  0  0  0  0
   56.4337   21.6769   43.0443 H   0  0  0  0  0  0  0  0  0  0  0  0
   52.2771   24.5505   45.3575 H   0  0  0  0  0  0  0  0  0  0  0  0
   52.0749   23.1648   44.2748 H   0  0  0  0  0  0  0  0  0  0  0  0
   50.9128   23.3993   46.8238 H   0  0  0  0  0  0  0  0  0  0  0  0
   51.1370   21.8544   45.9887 H   0  0  0  0  0  0  0  0  0  0  0  0
   52.7130   23.0662   48.2493 H   0  0  0  0  0  0  0  0  0  0  0  0
   52.5100   21.3543   47.8442 H   0  0  0  0  0  0  0  0  0  0  0  0
   54.8148   22.8776   47.3131 H   0  0  0  0  0  0  0  0  0  0  0  0
   54.4265   21.3639   46.4827 H   0  0  0  0  0  0  0  0  0  0  0  0
  1  2  1  0
  2  3  1  0
  3  4  1  0
  4  5  1  0
  5  6  1  0
  6  7  1  0
  7  8  2  0
  7  9  1  0
  9 10  2  0
 10 11  1  0
 11 12  2  0
 12 13  1  0
 12 14  1  0
 14 15  2  0
  4 16  2  0
 16 17  1  0
 17 18  2  0
 18 19  1  0
 19 20  1  0
 20 21  1  0
 21 22  2  0
 21 23  1  0
 23 24  1  0
 24 25  2  0
 25 26  1  0
 26 27  2  0
 27 28  1  0
 28 29  2  0
 29 30  1  0
 30 31  2  0
 30 32  1  0
 32 33  1  0
 33 34  1  0
 34 35  1  0
 35 36  1  0
 18  3  1  0
 29 24  1  0
 36 32  1  0
 15  9  1  0
  1 37  1  0
  1 38  1  0
  1 39  1  0
  2 40  1  0
  2 41  1  0
  5 42  1  0
  5 43  1  0
  6 44  1  0
 10 45  1  0
 11 46  1  0
 13 47  1  0
 13 48  1  0
 13 49  1  0
 14 50  1  0
 15 51  1  0
 20 52  1  0
 20 53  1  0
 25 54  1  0
 26 55  1  0
 27 56  1  0
 28 57  1  0
 33 58  1  0
 33 59  1  0
 34 60  1  0
 34 61  1  0
 35 62  1  0
 35 63  1  0
 36 64  1  0
 36 65  1  0
M  CHG  1  23  -1
M  END
>  <UniqueID>  (52) 
49

>  <SMILES>  (52) 
CCn1c(CNC(=O)c2ccc(C)cc2)nnc1SCC(=O)[N-]c1ccccc1C(=O)N1CCCC1

>  <Energy>  (52) 
101.94676790661426

>  <Genealogy>  (52) 
CCn1c(CNC(=O)c2ccc(C)cc2)nnc1SCC(=O)[N-]c1ccccc1C(=O)N1CCCC1 (protonated)
CCn1c(CNC(=O)c2ccc(C)cc2)nnc1SCC(=O)[N-]c1ccccc1C(=O)N1CCCC1 (3D coordinates assigned)
CCn1c(CNC(=O)c2ccc(C)cc2)nnc1SCC(=O)[N-]c1ccccc1C(=O)N1CCCC1 (nonaromatic ring conformer: 101.94676790661426 kcal/mol)

>  <smiles>  (52) 
CCn1c(CNC(=O)c2ccc(C)cc2)nnc1SCC(=O)Nc1ccccc1C(=O)N1CCCC1

>  <score_type>  (52) 
oracle

>  <origin>  (52) 
adg

>  <m_score__min__energy>  (52) 
-12.390000000000001

>  <m_primary>  (52) 
energy

$$$$
52:0
     RDKit          3D

 43 45  0  0  0  0  0  0  0  0999 V2000
   59.6820   26.8150   47.1710 C   0  0  0  0  0  0  0  0  0  0  0  0
   58.7890   27.3390   46.3150 C   0  0  0  0  0  0  0  0  0  0  0  0
   57.7550   26.6430   45.6730 C   0  0  0  0  0  0  0  0  0  0  0  0
   57.4980   25.3180   45.7540 C   0  0  0  0  0  0  0  0  0  0  0  0
   56.1600   24.6900   45.6780 C   0  0  0  0  0  0  0  0  0  0  0  0
   55.9050   23.3940   45.4220 N   0  0  0  0  0  0  0  0  0  0  0  0
   54.5580   23.3290   45.4200 C   0  0  0  0  0  0  0  0  0  0  0  0
   53.9310   22.2570   45.2160 O   0  0  0  0  0  0  0  0  0  0  0  0
   53.9340   24.5030   45.6490 N   0  0  0  0  0  0  0  0  0  0  0  0
   54.9620   25.3530   45.8060 C   0  0  0  0  0  0  0  0  0  0  0  0
   54.8060   26.7100   46.0620 O   0  0  0  0  0  0  0  0  0  0  0  0
   57.0580   27.5900   44.9350 C   0  0  0  0  0  0  0  0  0  0  0  0
   57.6900   28.8000   45.1340 C   0  0  0  0  0  0  0  0  0  0  0  0
   57.2100   30.0700   44.5570 C   0  0  0  0  0  0  0  0  0  0  0  0
   56.0280   30.4410   44.7890 O   0  0  0  0  0  0  0  0  0  0  0  0
   58.0510   30.8510   43.6980 N   0  0  0  0  0  0  0  0  0  0  0  0
   57.7680   32.2500   43.3870 C   0  0  0  0  0  0  0  0  0  0  0  0
   58.1280   33.1170   44.5620 C   0  0  0  0  0  0  0  0  0  0  0  0
   57.4060   33.0300   45.7630 C   0  0  0  0  0  0  0  0  0  0  0  0
   57.7760   33.8080   46.8640 C   0  0  0  0  0  0  0  0  0  0  0  0
   58.8740   34.6690   46.7760 C   0  0  0  0  0  0  0  0  0  0  0  0
   59.6040   34.7520   45.5880 C   0  0  0  0  0  0  0  0  0  0  0  0
   59.2360   33.9770   44.4830 C   0  0  0  0  0  0  0  0  0  0  0  0
   58.7420   28.6560   45.9770 N   0  0  0  0  0  0  0  0  0  0  0  0
   59.5920   29.7360   46.5060 C   0  0  0  0  0  0  0  0  0  0  0  0
   58.9140   30.4480   47.6750 C   0  0  0  0  0  0  0  0  0  0  0  0
   60.4557   27.4557   47.6192 H   0  0  0  0  0  0  0  0  0  0  0  0
   59.6395   25.7453   47.4237 H   0  0  0  0  0  0  0  0  0  0  0  0
   58.3596   24.6475   45.8883 H   0  0  0  0  0  0  0  0  0  0  0  0
   56.1706   27.4098   44.3104 H   0  0  0  0  0  0  0  0  0  0  0  0
   58.8910   30.4080   43.2670 H   0  0  0  0  0  0  0  0  0  0  0  0
   58.3603   32.5565   42.5122 H   0  0  0  0  0  0  0  0  0  0  0  0
   56.6961   32.3632   43.1676 H   0  0  0  0  0  0  0  0  0  0  0  0
   56.5465   32.3476   45.8379 H   0  0  0  0  0  0  0  0  0  0  0  0
   57.2027   33.7427   47.8005 H   0  0  0  0  0  0  0  0  0  0  0  0
   59.1632   35.2814   47.6428 H   0  0  0  0  0  0  0  0  0  0  0  0
   60.4694   35.4277   45.5212 H   0  0  0  0  0  0  0  0  0  0  0  0
   59.8155   34.0412   43.5502 H   0  0  0  0  0  0  0  0  0  0  0  0
   60.5446   29.3072   46.8504 H   0  0  0  0  0  0  0  0  0  0  0  0
   59.7649   30.4687   45.7040 H   0  0  0  0  0  0  0  0  0  0  0  0
   59.2986   30.0441   48.6231 H   0  0  0  0  0  0  0  0  0  0  0  0
   59.1280   31.5257   47.6219 H   0  0  0  0  0  0  0  0  0  0  0  0
   57.8272   30.2869   47.6219 H   0  0  0  0  0  0  0  0  0  0  0  0
  1  2  2  0
  2  3  1  0
  3  4  2  3
  4  5  1  0
  5  6  1  0
  6  7  1  0
  7  8  2  0
  7  9  1  0
  9 10  1  0
 10 11  1  0
  3 12  1  0
 12 13  2  0
 13 14  1  0
 14 15  2  0
 14 16  1  0
 16 17  1  0
 17 18  1  0
 18 19  2  0
 19 20  1  0
 20 21  2  0
 21 22  1  0
 22 23  2  0
 13 24  1  0
 24 25  1  0
 25 26  1  0
 24  2  1  0
 10  5  2  0
 23 18  1  0
  1 27  1  0
  1 28  1  0
  4 29  1  0
 12 30  1  0
 16 31  1  0
 17 32  1  0
 17 33  1  0
 19 34  1  0
 20 35  1  0
 21 36  1  0
 22 37  1  0
 23 38  1  0
 25 39  1  0
 25 40  1  0
 26 41  1  0
 26 42  1  0
 26 43  1  0
M  CHG  3   6  -1   9  -1  11  -1
M  END
>  <UniqueID>  (53) 
50

>  <SMILES>  (53) 
C=c1c(=Cc2[n-]c(=O)[n-]c2[O-])cc(C(=O)NCc2ccccc2)n1CC

>  <Energy>  (53) 
106.77134181589665

>  <Genealogy>  (53) 
C=c1c(=Cc2[n-]c(=O)[n-]c2[O-])cc(C(=O)NCc2ccccc2)n1CC (protonated)
C=c1c(=Cc2[n-]c(=O)[n-]c2[O-])cc(C(=O)NCc2ccccc2)n1CC (3D coordinates assigned)
C=c1c(=Cc2[n-]c(=O)[n-]c2[O-])cc(C(=O)NCc2ccccc2)n1CC (optimized conformer: 106.77134181589665 kcal/mol)

>  <smiles>  (53) 
C=c1c(=Cc2[nH]c(=O)[nH]c2O)cc(C(=O)NCc2ccccc2)n1CC

>  <score_type>  (53) 
oracle

>  <origin>  (53) 
adg

>  <m_score__min__energy>  (53) 
-17.620000000000001

>  <m_primary>  (53) 
energy

$$$$
53:0
     RDKit          3D

 30 31  0  0  0  0  0  0  0  0999 V2000
   59.2760   26.1020   46.3900 C   0  0  0  0  0  0  0  0  0  0  0  0
   58.6660   27.2950   46.2440 C   0  0  0  0  0  0  0  0  0  0  0  0
   59.4270   28.4140   46.4440 N   0  0  0  0  0  0  0  0  0  0  0  0
   59.0020   29.6550   46.1120 C   0  0  0  0  0  0  0  0  0  0  0  0
   57.7390   29.8490   45.5590 C   0  0  0  0  0  0  0  0  0  0  0  0
   57.3140   31.2220   45.1910 C   0  0  0  0  0  0  0  0  0  0  0  0
   56.2680   31.3680   44.4990 O   0  0  0  0  0  0  0  0  0  0  0  0
   58.0630   32.4270   45.6270 C   0  0  0  0  0  0  0  0  0  0  0  0
   58.3080   32.6740   46.9930 C   0  0  0  0  0  0  0  0  0  0  0  0
   59.0060   33.8180   47.3910 C   0  0  0  0  0  0  0  0  0  0  0  0
   59.4590   34.7310   46.4350 C   0  0  0  0  0  0  0  0  0  0  0  0
   59.2100   34.5040   45.0810 C   0  0  0  0  0  0  0  0  0  0  0  0
   58.5130   33.3620   44.6760 C   0  0  0  0  0  0  0  0  0  0  0  0
   56.8700   28.7480   45.4450 C   0  0  0  0  0  0  0  0  0  0  0  0
   55.6690   28.9660   45.1280 O   0  0  0  0  0  0  0  0  0  0  0  0
   57.3120   27.4340   45.7820 C   0  0  0  0  0  0  0  0  0  0  0  0
   56.4350   26.3860   45.7550 C   0  0  0  0  0  0  0  0  0  0  0  0
   55.0840   26.5800   46.0370 O   0  0  0  0  0  0  0  0  0  0  0  0
   56.8260   25.0890   45.4070 O   0  0  0  0  0  0  0  0  0  0  0  0
   58.7081   25.1719   46.2401 H   0  0  0  0  0  0  0  0  0  0  0  0
   60.3417   26.0585   46.6590 H   0  0  0  0  0  0  0  0  0  0  0  0
   60.4040   28.3320   46.8120 H   0  0  0  0  0  0  0  0  0  0  0  0
   59.6610   30.5194   46.2807 H   0  0  0  0  0  0  0  0  0  0  0  0
   57.9478   31.9623   47.7504 H   0  0  0  0  0  0  0  0  0  0  0  0
   59.1990   33.9998   48.4586 H   0  0  0  0  0  0  0  0  0  0  0  0
   60.0118   35.6284   46.7498 H   0  0  0  0  0  0  0  0  0  0  0  0
   59.5633   35.2259   44.3300 H   0  0  0  0  0  0  0  0  0  0  0  0
   58.3149   33.1930   43.6073 H   0  0  0  0  0  0  0  0  0  0  0  0
   54.7470   27.4760   46.3660 H   0  0  0  0  0  0  0  0  0  0  0  0
   56.5720   24.2710   45.9480 H   0  0  0  0  0  0  0  0  0  0  0  0
  1  2  2  0
  2  3  1  0
  3  4  1  0
  4  5  2  0
  5  6  1  0
  6  7  2  0
  6  8  1  0
  8  9  2  0
  9 10  1  0
 10 11  2  0
 11 12  1  0
 12 13  2  0
  5 14  1  0
 14 15  2  0
 14 16  1  0
 16 17  2  3
 17 18  1  0
 17 19  1  0
 16  2  1  0
 13  8  1  0
  1 20  1  0
  1 21  1  0
  3 22  1  0
  4 23  1  0
  9 24  1  0
 10 25  1  0
 11 26  1  0
 12 27  1  0
 13 28  1  0
 18 29  1  0
 19 30  1  0
M  END
>  <UniqueID>  (54) 
51

>  <SMILES>  (54) 
C=c1[nH]cc(C(=O)c2ccccc2)c(=O)c1=C(O)O

>  <Energy>  (54) 
62.362404314714325

>  <Genealogy>  (54) 
C=c1[nH]cc(C(=O)c2ccccc2)c(=O)c1=C(O)O (3D coordinates assigned)
C=c1[nH]cc(C(=O)c2ccccc2)c(=O)c1=C(O)O (optimized conformer: 62.362404314714325 kcal/mol)

>  <smiles>  (54) 
C=c1[nH]cc(C(=O)c2ccccc2)c(=O)c1=C(O)O

>  <score_type>  (54) 
oracle

>  <origin>  (54) 
adg

>  <m_score__min__energy>  (54) 
-8.25

>  <m_primary>  (54) 
energy

$$$$
54:0
     RDKit          3D

 69 73  0  0  0  0  0  0  0  0999 V2000
   58.0800   25.1970   44.8470 H   0  0  0  0  0  0  0  0  0  0  0  0
   58.1150   25.1960   45.8900 N   0  0  0  0  0  0  0  0  0  0  0  0
   58.3730   26.3950   46.6160 C   0  0  0  0  0  0  0  0  0  0  0  0
   57.4100   27.0760   47.0630 O   0  0  0  0  0  0  0  0  0  0  0  0
   59.7920   26.8270   46.8700 C   0  0  1  0  0  0  0  0  0  0  0  0
   60.4284   26.1662   46.2631 H   0  0  0  0  0  0  0  0  0  0  0  0
   59.9660   28.2330   46.5240 N   0  0  0  0  0  0  0  0  0  0  0  0
   59.8070   28.7760   45.1980 C   0  0  0  0  0  0  0  0  0  0  0  0
   60.7700   28.7260   44.3860 O   0  0  0  0  0  0  0  0  0  0  0  0
   58.5390   29.4070   44.7710 C   0  0  0  0  0  0  0  0  0  0  0  0
   57.6240   28.7300   43.9400 C   0  0  0  0  0  0  0  0  0  0  0  0
   57.9010   27.4110   43.4230 C   0  0  0  0  0  0  0  0  0  0  0  0
   58.1230   26.3530   43.0100 N   0  0  0  0  0  0  0  0  0  0  0  0
   56.4270   29.3610   43.5920 C   0  0  0  0  0  0  0  0  0  0  0  0
   55.7036   28.8442   42.9442 H   0  0  0  0  0  0  0  0  0  0  0  0
   56.1530   30.6090   44.0500 N   0  0  0  0  0  0  0  0  0  0  0  0
   57.0110   31.3010   44.8470 C   0  0  0  0  0  0  0  0  0  0  0  0
   56.6520   32.4840   45.2580 N   0  0  0  0  0  0  0  0  0  0  0  0
   57.4040   33.7050   45.2070 C   0  0  0  0  0  0  0  0  0  0  0  0
   56.9420   34.7020   44.5900 O   0  0  0  0  0  0  0  0  0  0  0  0
   58.6410   33.8370   45.9320 N   0  0  0  0  0  0  0  0  0  0  0  0
   58.9630   33.3560   47.2350 C   0  0  0  0  0  0  0  0  0  0  0  0
   58.1240   32.7240   48.1650 C   0  0  0  0  0  0  0  0  0  0  0  0
   57.0598   32.5604   47.9396 H   0  0  0  0  0  0  0  0  0  0  0  0
   58.6680   32.3050   49.3870 C   0  0  0  0  0  0  0  0  0  0  0  0
   58.0208   31.8235   50.1349 H   0  0  0  0  0  0  0  0  0  0  0  0
   60.0380   32.4950   49.6670 C   0  0  0  0  0  0  0  0  0  0  0  0
   60.6140   32.0030   50.9700 C   0  0  0  0  0  0  0  0  0  0  0  0
   59.9147   32.2348   51.7869 H   0  0  0  0  0  0  0  0  0  0  0  0
   61.5779   32.5024   51.1475 H   0  0  0  0  0  0  0  0  0  0  0  0
   60.8320   30.5370   50.9130 N   0  0  0  0  0  0  0  0  0  0  0  0
   62.2190   30.1810   50.4920 C   0  0  0  0  0  0  0  0  0  0  0  0
   62.8000   31.1101   50.3966 H   0  0  0  0  0  0  0  0  0  0  0  0
   62.1310   29.6347   49.5413 H   0  0  0  0  0  0  0  0  0  0  0  0
   62.9490   29.2570   51.4640 C   0  0  0  0  0  0  0  0  0  0  0  0
   63.1679   29.8020   52.3941 H   0  0  0  0  0  0  0  0  0  0  0  0
   63.8908   28.9159   51.0094 H   0  0  0  0  0  0  0  0  0  0  0  0
   62.1130   28.1130   51.7600 N   0  0  0  0  0  0  0  0  0  0  0  0
   60.7320   28.3170   52.0330 C   0  0  0  0  0  0  0  0  0  0  0  0
   60.0230   27.3320   52.3730 O   0  0  0  0  0  0  0  0  0  0  0  0
   60.1550   29.7250   51.9810 C   0  0  0  0  0  0  0  0  0  0  0  0
   60.3230   30.3520   53.3860 C   0  0  0  0  0  0  0  0  0  0  0  0
   60.1191   29.5911   54.1538 H   0  0  0  0  0  0  0  0  0  0  0  0
   61.3522   30.7228   53.5014 H   0  0  0  0  0  0  0  0  0  0  0  0
   59.6171   31.1877   53.5014 H   0  0  0  0  0  0  0  0  0  0  0  0
   58.6500   29.6230   51.6410 C   0  0  0  0  0  0  0  0  0  0  0  0
   58.0656   29.5834   52.5721 H   0  0  0  0  0  0  0  0  0  0  0  0
   58.3461   30.5026   51.0545 H   0  0  0  0  0  0  0  0  0  0  0  0
   58.4676   28.7104   51.0545 H   0  0  0  0  0  0  0  0  0  0  0  0
   60.8580   33.1350   48.7190 C   0  0  0  0  0  0  0  0  0  0  0  0
   61.9262   33.3004   48.9231 H   0  0  0  0  0  0  0  0  0  0  0  0
   60.2910   33.5560   47.5150 C   0  0  0  0  0  0  0  0  0  0  0  0
   60.9790   34.2220   46.3790 C   0  0  0  0  0  0  0  0  0  0  0  0
   61.3781   35.2018   46.6802 H   0  0  0  0  0  0  0  0  0  0  0  0
   61.8421   33.6515   46.0054 H   0  0  0  0  0  0  0  0  0  0  0  0
   59.8590   34.3810   45.3260 C   0  0  0  0  0  0  0  0  0  0  0  0
   59.7185   35.4433   45.0775 H   0  0  0  0  0  0  0  0  0  0  0  0
   60.1103   33.8538   44.3939 H   0  0  0  0  0  0  0  0  0  0  0  0
   58.2220   30.6920   45.2350 C   0  0  0  0  0  0  0  0  0  0  0  0
   58.9174   31.2241   45.9009 H   0  0  0  0  0  0  0  0  0  0  0  0
   60.1960   29.0730   47.6870 C   0  0  0  0  0  0  0  0  0  0  0  0
   61.2051   29.5093   47.6504 H   0  0  0  0  0  0  0  0  0  0  0  0
   59.4821   29.9088   47.7294 H   0  0  0  0  0  0  0  0  0  0  0  0
   60.0580   28.1570   48.8970 C   0  0  0  0  0  0  0  0  0  0  0  0
   60.8710   28.3449   49.6137 H   0  0  0  0  0  0  0  0  0  0  0  0
   59.1101   28.3294   49.4277 H   0  0  0  0  0  0  0  0  0  0  0  0
   60.1460   26.7320   48.3560 C   0  0  0  0  0  0  0  0  0  0  0  0
   61.1646   26.3366   48.4825 H   0  0  0  0  0  0  0  0  0  0  0  0
   59.4659   26.0532   48.8914 H   0  0  0  0  0  0  0  0  0  0  0  0
  1  2  1  0
  2  3  1  0
  3  4  2  0
  3  5  1  0
  5  6  1  6
  5  7  1  0
  7  8  1  0
  8  9  2  0
  8 10  1  0
 10 11  1  0
 11 12  1  0
 12 13  3  0
 11 14  2  0
 14 15  1  0
 14 16  1  0
 16 17  1  0
 17 18  2  0
 18 19  1  0
 19 20  2  0
 19 21  1  0
 21 22  1  0
 22 23  2  0
 23 24  1  0
 23 25  1  0
 25 26  1  0
 25 27  2  0
 27 28  1  0
 28 29  1  0
 28 30  1  0
 28 31  1  0
 31 32  1  0
 32 33  1  0
 32 34  1  0
 32 35  1  0
 35 36  1  0
 35 37  1  0
 35 38  1  0
 38 39  1  0
 39 40  2  0
 39 41  1  0
 41 42  1  0
 42 43  1  0
 42 44  1  0
 42 45  1  0
 41 46  1  0
 46 47  1  0
 46 48  1  0
 46 49  1  0
 27 50  1  0
 50 51  1  0
 50 52  2  0
 52 53  1  0
 53 54  1  0
 53 55  1  0
 53 56  1  0
 56 57  1  0
 56 58  1  0
 17 59  1  0
 59 60  1  0
  7 61  1  0
 61 62  1  0
 61 63  1  0
 61 64  1  0
 64 65  1  0
 64 66  1  0
 64 67  1  0
 67 68  1  0
 67 69  1  0
 67  5  1  0
 59 10  2  0
 56 21  1  0
 52 22  1  0
 41 31  1  0
M  CHG  3   2  -1  16  -1  38  -1
M  END
>  <UniqueID>  (55) 
52

>  <SMILES>  (55) 
CC1(C)C(=O)[N-]CCN1Cc1ccc2c(c1)CCN2C(=O)/N=c1\cc(C(=O)N2CCC[C@H]2C([NH-])=O)c(C#N)c[n-]1

>  <Energy>  (55) 
115.02760884156629

>  <Genealogy>  (55) 
CC1(C)C(=O)[N-]CCN1Cc1ccc2c(c1)CCN2C(=O)N=c1cc(C(=O)N2CCCC2C([NH-])=O)c(C#N)c[n-]1 (protonated)
CC1(C)C(=O)[N-]CCN1Cc1ccc2c(c1)CCN2C(=O)N=c1cc(C(=O)N2CCC[C@H]2C([NH-])=O)c(C#N)c[n-]1 (chirality)
CC1(C)C(=O)[N-]CCN1Cc1ccc2c(c1)CCN2C(=O)/N=c1\cc(C(=O)N2CCC[C@H]2C([NH-])=O)c(C#N)c[n-]1 (cis-trans isomerization)
CC1(C)C(=O)[N-]CCN1Cc1ccc2c(c1)CCN2C(=O)/N=c1\cc(C(=O)N2CCC[C@H]2C([NH-])=O)c(C#N)c[n-]1 (3D coordinates assigned)
CC1(C)C(=O)[N-]CCN1Cc1ccc2c(c1)CCN2C(=O)/N=c1\cc(C(=O)N2CCC[C@H]2C([NH-])=O)c(C#N)c[n-]1 (nonaromatic ring conformer: 115.02760884156629 kcal/mol)

>  <smiles>  (55) 
CC1(C)C(=O)NCCN1Cc1ccc2c(c1)CCN2C(=O)N=c1cc(C(=O)N2CCCC2C(N)=O)c(C#N)c[nH]1

>  <score_type>  (55) 
oracle

>  <origin>  (55) 
adg

>  <m_score__min__energy>  (55) 
-15.69

>  <m_primary>  (55) 
energy

$$$$
55:0
     RDKit          3D

 68 72  0  0  0  0  0  0  0  0999 V2000
   54.9970   26.7170   46.0110 O   0  0  0  0  0  0  0  0  0  0  0  0
   56.3050   27.1650   45.8750 C   0  0  0  0  0  0  0  0  0  0  0  0
   57.3410   26.5000   46.5310 C   0  0  0  0  0  0  0  0  0  0  0  0
   58.6550   26.9490   46.4000 C   0  0  0  0  0  0  0  0  0  0  0  0
   58.9490   28.0710   45.6070 C   0  0  0  0  0  0  0  0  0  0  0  0
   60.3730   28.5620   45.5190 C   0  0  0  0  0  0  0  0  0  0  0  0
   60.7630   29.2690   46.7890 C   0  0  0  0  0  0  0  0  0  0  0  0
   61.5040   30.4610   46.7420 C   0  0  0  0  0  0  0  0  0  0  0  0
   61.8340   31.1330   47.9230 C   0  0  0  0  0  0  0  0  0  0  0  0
   61.4220   30.6240   49.1590 C   0  0  0  0  0  0  0  0  0  0  0  0
   60.6790   29.4400   49.2130 C   0  0  0  0  0  0  0  0  0  0  0  0
   60.3480   28.7660   48.0340 C   0  0  0  0  0  0  0  0  0  0  0  0
   57.9020   28.7560   44.9500 C   0  0  0  0  0  0  0  0  0  0  0  0
   58.2140   29.8960   44.1870 O   0  0  0  0  0  0  0  0  0  0  0  0
   58.4320   31.2100   44.6990 C   0  0  0  0  0  0  0  0  0  0  0  0
   57.8700   31.3360   46.1180 C   0  0  0  0  0  0  0  0  0  0  0  0
   58.7980   32.1090   46.9690 N   0  0  0  0  0  0  0  0  0  0  0  0
   59.3300   33.2830   46.2380 C   0  0  0  0  0  0  0  0  0  0  0  0
   59.9900   34.3240   47.1700 C   0  0  0  0  0  0  0  0  0  0  0  0
   60.4210   33.6780   48.5040 C   0  0  0  0  0  0  0  0  0  0  0  0
   61.1620   34.5930   49.3970 N   0  0  0  0  0  0  0  0  0  0  0  0
   62.6180   34.6160   49.1880 C   0  0  0  0  0  0  0  0  0  0  0  0
   63.2550   33.5220   49.9960 C   0  0  0  0  0  0  0  0  0  0  0  0
   64.5880   33.1440   49.7610 C   0  0  0  0  0  0  0  0  0  0  0  0
   65.1460   32.1120   50.5150 C   0  0  0  0  0  0  0  0  0  0  0  0
   64.3880   31.4840   51.5070 C   0  0  0  0  0  0  0  0  0  0  0  0
   63.0640   31.8720   51.7070 C   0  0  0  0  0  0  0  0  0  0  0  0
   62.5280   32.8770   50.9590 N   0  0  0  0  0  0  0  0  0  0  0  0
   64.9710   30.4750   52.2800 O   0  0  0  0  0  0  0  0  0  0  0  0
   66.3870   30.2720   52.2740 C   0  0  0  0  0  0  0  0  0  0  0  0
   66.9470   30.4670   50.8570 C   0  0  0  0  0  0  0  0  0  0  0  0
   66.4600   31.6890   50.2950 O   0  0  0  0  0  0  0  0  0  0  0  0
   59.2220   33.0210   49.2270 C   0  0  0  0  0  0  0  0  0  0  0  0
   58.1570   32.5210   48.2350 C   0  0  0  0  0  0  0  0  0  0  0  0
   56.5790   28.2860   45.0880 C   0  0  0  0  0  0  0  0  0  0  0  0
   57.1212   25.6197   47.1529 H   0  0  0  0  0  0  0  0  0  0  0  0
   59.4670   26.4209   46.9213 H   0  0  0  0  0  0  0  0  0  0  0  0
   61.0432   27.7041   45.3611 H   0  0  0  0  0  0  0  0  0  0  0  0
   60.4565   29.2663   44.6782 H   0  0  0  0  0  0  0  0  0  0  0  0
   61.8262   30.8677   45.7721 H   0  0  0  0  0  0  0  0  0  0  0  0
   62.4187   32.0637   47.8800 H   0  0  0  0  0  0  0  0  0  0  0  0
   61.6819   31.1540   50.0872 H   0  0  0  0  0  0  0  0  0  0  0  0
   60.3548   29.0388   50.1846 H   0  0  0  0  0  0  0  0  0  0  0  0
   59.7599   27.8376   48.0808 H   0  0  0  0  0  0  0  0  0  0  0  0
   59.5124   31.4157   44.7186 H   0  0  0  0  0  0  0  0  0  0  0  0
   57.9185   31.9335   44.0488 H   0  0  0  0  0  0  0  0  0  0  0  0
   56.8986   31.8506   46.0794 H   0  0  0  0  0  0  0  0  0  0  0  0
   57.7460   30.3299   46.5450 H   0  0  0  0  0  0  0  0  0  0  0  0
   60.0809   32.9345   45.5137 H   0  0  0  0  0  0  0  0  0  0  0  0
   58.4805   33.7757   45.7424 H   0  0  0  0  0  0  0  0  0  0  0  0
   60.8759   34.7433   46.6706 H   0  0  0  0  0  0  0  0  0  0  0  0
   59.2576   35.1161   47.3848 H   0  0  0  0  0  0  0  0  0  0  0  0
   61.1357   32.8860   48.2358 H   0  0  0  0  0  0  0  0  0  0  0  0
   60.9870   34.2980   50.3880 H   0  0  0  0  0  0  0  0  0  0  0  0
   62.8382   34.4605   48.1216 H   0  0  0  0  0  0  0  0  0  0  0  0
   63.0196   35.5894   49.5061 H   0  0  0  0  0  0  0  0  0  0  0  0
   65.1842   33.6561   48.9914 H   0  0  0  0  0  0  0  0  0  0  0  0
   62.4519   31.3668   52.4687 H   0  0  0  0  0  0  0  0  0  0  0  0
   61.5350   33.1550   51.1330 H   0  0  0  0  0  0  0  0  0  0  0  0
   66.8603   30.9955   52.9541 H   0  0  0  0  0  0  0  0  0  0  0  0
   66.6030   29.2459   52.6063 H   0  0  0  0  0  0  0  0  0  0  0  0
   68.0455   30.5008   50.9023 H   0  0  0  0  0  0  0  0  0  0  0  0
   66.6218   29.6276   50.2249 H   0  0  0  0  0  0  0  0  0  0  0  0
   59.5869   32.1674   49.8170 H   0  0  0  0  0  0  0  0  0  0  0  0
   58.7563   33.7798   49.8731 H   0  0  0  0  0  0  0  0  0  0  0  0
   57.6277   31.6613   48.6717 H   0  0  0  0  0  0  0  0  0  0  0  0
   57.4445   33.3338   48.0307 H   0  0  0  0  0  0  0  0  0  0  0  0
   55.7579   28.8057   44.5725 H   0  0  0  0  0  0  0  0  0  0  0  0
  1  2  1  0
  2  3  2  0
  3  4  1  0
  4  5  2  0
  5  6  1  0
  6  7  1  0
  7  8  2  0
  8  9  1  0
  9 10  2  0
 10 11  1  0
 11 12  2  0
  5 13  1  0
 13 14  1  0
 14 15  1  0
 15 16  1  0
 16 17  1  0
 17 18  1  0
 18 19  1  0
 19 20  1  0
 20 21  1  0
 21 22  1  0
 22 23  1  0
 23 24  2  0
 24 25  1  0
 25 26  2  0
 26 27  1  0
 27 28  2  0
 26 29  1  0
 29 30  1  0
 30 31  1  0
 31 32  1  0
 20 33  1  0
 33 34  1  0
 13 35  2  0
 35  2  1  0
 12  7  1  0
 34 17  1  0
 28 23  1  0
 32 25  1  0
  3 36  1  0
  4 37  1  0
  6 38  1  0
  6 39  1  0
  8 40  1  0
  9 41  1  0
 10 42  1  0
 11 43  1  0
 12 44  1  0
 15 45  1  0
 15 46  1  0
 16 47  1  0
 16 48  1  0
 18 49  1  0
 18 50  1  0
 19 51  1  0
 19 52  1  0
 20 53  1  0
 21 54  1  0
 22 55  1  0
 22 56  1  0
 24 57  1  0
 27 58  1  0
 28 59  1  0
 30 60  1  0
 30 61  1  0
 31 62  1  0
 31 63  1  0
 33 64  1  0
 33 65  1  0
 34 66  1  0
 34 67  1  0
 35 68  1  0
M  CHG  2   1  -1  28   1
M  END
>  <UniqueID>  (56) 
53

>  <SMILES>  (56) 
[O-]c1ccc(Cc2ccccc2)c(OCCN2CCC(NCc3cc4c(c[nH+]3)OCCO4)CC2)c1

>  <Energy>  (56) 
80.67395231204837

>  <Genealogy>  (56) 
[O-]c1ccc(Cc2ccccc2)c(OCCN2CCC(NCc3cc4c(c[nH+]3)OCCO4)CC2)c1 (protonated)
[O-]c1ccc(Cc2ccccc2)c(OCCN2CCC(NCc3cc4c(c[nH+]3)OCCO4)CC2)c1 (3D coordinates assigned)
[O-]c1ccc(Cc2ccccc2)c(OCCN2CCC(NCc3cc4c(c[nH+]3)OCCO4)CC2)c1 (nonaromatic ring conformer: 80.67395231204837 kcal/mol)

>  <smiles>  (56) 
Oc1ccc(Cc2ccccc2)c(OCCN2CCC(NCc3cc4c(cn3)OCCO4)CC2)c1

>  <score_type>  (56) 
oracle

>  <origin>  (56) 
adg

>  <m_score__min__energy>  (56) 
-11.49

>  <m_primary>  (56) 
energy

$$$$
56:0
     RDKit          3D

 65 69  0  0  0  0  0  0  0  0999 V2000
   55.0359   29.9426   43.2795 H   0  0  0  0  0  0  0  0  0  0  0  0
   56.0200   30.1030   43.7440 C   0  0  0  0  0  0  0  0  0  0  0  0
   56.2200   31.1680   44.5630 N   0  0  0  0  0  0  0  0  0  0  0  0
   57.4030   31.4030   45.1940 C   0  0  0  0  0  0  0  0  0  0  0  0
   57.4990   32.4880   45.9150 N   0  0  0  0  0  0  0  0  0  0  0  0
   58.4330   33.5680   45.7830 C   0  0  0  0  0  0  0  0  0  0  0  0
   58.2790   34.4190   44.8630 O   0  0  0  0  0  0  0  0  0  0  0  0
   59.5490   33.7100   46.7460 C   0  0  0  0  0  0  0  0  0  0  0  0
   60.8660   33.3790   46.3740 C   0  0  0  0  0  0  0  0  0  0  0  0
   61.0754   33.0367   45.3498 H   0  0  0  0  0  0  0  0  0  0  0  0
   61.9090   33.4830   47.2990 C   0  0  0  0  0  0  0  0  0  0  0  0
   62.9374   33.2385   46.9946 H   0  0  0  0  0  0  0  0  0  0  0  0
   61.6510   33.8960   48.6080 C   0  0  0  0  0  0  0  0  0  0  0  0
   62.4729   33.9666   49.3357 H   0  0  0  0  0  0  0  0  0  0  0  0
   60.3480   34.2190   48.9910 C   0  0  0  0  0  0  0  0  0  0  0  0
   60.1427   34.5402   50.0229 H   0  0  0  0  0  0  0  0  0  0  0  0
   59.3030   34.1350   48.0650 C   0  0  0  0  0  0  0  0  0  0  0  0
   58.2808   34.4032   48.3701 H   0  0  0  0  0  0  0  0  0  0  0  0
   58.4540   30.4530   45.0400 C   0  0  0  0  0  0  0  0  0  0  0  0
   59.6440   30.4880   45.7790 O   0  0  0  0  0  0  0  0  0  0  0  0
   59.8930   29.7170   46.9260 C   0  0  0  0  0  0  0  0  0  0  0  0
   59.8610   28.3090   46.9130 C   0  0  0  0  0  0  0  0  0  0  0  0
   59.6726   27.7732   45.9710 H   0  0  0  0  0  0  0  0  0  0  0  0
   60.0680   27.5910   48.0940 C   0  0  0  0  0  0  0  0  0  0  0  0
   60.0276   26.4918   48.0817 H   0  0  0  0  0  0  0  0  0  0  0  0
   60.3260   28.2650   49.2900 C   0  0  0  0  0  0  0  0  0  0  0  0
   60.4826   27.6953   50.2179 H   0  0  0  0  0  0  0  0  0  0  0  0
   60.3860   29.6670   49.3110 C   0  0  0  0  0  0  0  0  0  0  0  0
   60.7130   30.3870   50.5580 C   0  0  0  0  0  0  0  0  0  0  0  0
   61.9040   30.3670   50.9760 O   0  0  0  0  0  0  0  0  0  0  0  0
   59.7080   31.1210   51.2910 N   0  0  0  0  0  0  0  0  0  0  0  0
   58.6830   31.8560   50.5440 C   0  0  0  0  0  0  0  0  0  0  0  0
   59.1754   32.5693   49.8667 H   0  0  0  0  0  0  0  0  0  0  0  0
   58.0812   31.1319   49.9752 H   0  0  0  0  0  0  0  0  0  0  0  0
   57.7510   32.6250   51.4880 C   0  0  0  0  0  0  0  0  0  0  0  0
   58.2478   33.5560   51.7985 H   0  0  0  0  0  0  0  0  0  0  0  0
   56.8163   32.8369   50.9481 H   0  0  0  0  0  0  0  0  0  0  0  0
   57.4160   31.8330   52.6970 N   0  0  0  0  0  0  0  0  0  0  0  0
   56.7750   32.4330   53.2720 H   0  0  0  0  0  0  0  0  0  0  0  0
   56.6840   30.5650   52.3900 C   0  0  0  0  0  0  0  0  0  0  0  0
   57.2705   30.1325   51.5660 H   0  0  0  0  0  0  0  0  0  0  0  0
   55.2220   30.8000   51.9950 C   0  0  0  0  0  0  0  0  0  0  0  0
   54.8057   31.6516   52.5530 H   0  0  0  0  0  0  0  0  0  0  0  0
   55.1225   31.0366   50.9254 H   0  0  0  0  0  0  0  0  0  0  0  0
   54.4910   29.5220   52.3570 C   0  0  0  0  0  0  0  0  0  0  0  0
   53.4403   29.7371   52.6016 H   0  0  0  0  0  0  0  0  0  0  0  0
   54.4876   28.8056   51.5223 H   0  0  0  0  0  0  0  0  0  0  0  0
   55.2160   28.9640   53.5740 C   0  0  0  0  0  0  0  0  0  0  0  0
   54.6620   29.2120   54.4914 H   0  0  0  0  0  0  0  0  0  0  0  0
   55.2970   27.8685   53.5170 H   0  0  0  0  0  0  0  0  0  0  0  0
   56.5960   29.6140   53.6020 C   0  0  0  0  0  0  0  0  0  0  0  0
   56.7251   30.1817   54.5353 H   0  0  0  0  0  0  0  0  0  0  0  0
   57.3858   28.8499   53.5537 H   0  0  0  0  0  0  0  0  0  0  0  0
   58.6420   31.5950   53.5120 C   0  0  0  0  0  0  0  0  0  0  0  0
   58.7605   32.4412   54.2047 H   0  0  0  0  0  0  0  0  0  0  0  0
   58.4902   30.6314   54.0204 H   0  0  0  0  0  0  0  0  0  0  0  0
   59.9510   31.4530   52.7000 C   0  0  0  0  0  0  0  0  0  0  0  0
   60.5004   32.4048   52.7480 H   0  0  0  0  0  0  0  0  0  0  0  0
   60.5292   30.6281   53.1417 H   0  0  0  0  0  0  0  0  0  0  0  0
   60.1750   30.3850   48.1230 C   0  0  0  0  0  0  0  0  0  0  0  0
   60.2319   31.4835   48.1332 H   0  0  0  0  0  0  0  0  0  0  0  0
   58.2840   29.3960   44.1370 C   0  0  0  0  0  0  0  0  0  0  0  0
   59.1178   28.7073   43.9359 H   0  0  0  0  0  0  0  0  0  0  0  0
   57.0630   29.2140   43.4930 C   0  0  0  0  0  0  0  0  0  0  0  0
   56.9233   28.3769   42.7932 H   0  0  0  0  0  0  0  0  0  0  0  0
  1  2  1  0
  2  3  1  0
  3  4  1  0
  4  5  2  0
  5  6  1  0
  6  7  2  0
  6  8  1  0
  8  9  2  0
  9 10  1  0
  9 11  1  0
 11 12  1  0
 11 13  2  0
 13 14  1  0
 13 15  1  0
 15 16  1  0
 15 17  2  0
 17 18  1  0
  4 19  1  0
 19 20  1  0
 20 21  1  0
 21 22  2  0
 22 23  1  0
 22 24  1  0
 24 25  1  0
 24 26  2  0
 26 27  1  0
 26 28  1  0
 28 29  1  0
 29 30  2  0
 29 31  1  0
 31 32  1  0
 32 33  1  0
 32 34  1  0
 32 35  1  0
 35 36  1  0
 35 37  1  0
 35 38  1  0
 38 39  1  0
 38 40  1  0
 40 41  1  0
 40 42  1  0
 42 43  1  0
 42 44  1  0
 42 45  1  0
 45 46  1  0
 45 47  1  0
 45 48  1  0
 48 49  1  0
 48 50  1  0
 48 51  1  0
 51 52  1  0
 51 53  1  0
 38 54  1  0
 54 55  1  0
 54 56  1  0
 54 57  1  0
 57 58  1  0
 57 59  1  0
 28 60  2  0
 60 61  1  0
 19 62  2  0
 62 63  1  0
 62 64  1  0
 64 65  1  0
 64  2  2  0
 17  8  1  0
 60 21  1  0
 57 31  1  0
 51 40  1  0
M  CHG  2   3  -1  38   1
M  END
>  <UniqueID>  (57) 
54

>  <SMILES>  (57) 
O=C(/N=c1/[n-]cccc1Oc1cccc(C(=O)N2CC[NH+](C3CCCC3)CC2)c1)c1ccccc1

>  <Energy>  (57) 
103.15927052593888

>  <Genealogy>  (57) 
O=C(N=c1[n-]cccc1Oc1cccc(C(=O)N2CC[NH+](C3CCCC3)CC2)c1)c1ccccc1 (protonated)
O=C(/N=c1/[n-]cccc1Oc1cccc(C(=O)N2CC[NH+](C3CCCC3)CC2)c1)c1ccccc1 (cis-trans isomerization)
O=C(/N=c1/[n-]cccc1Oc1cccc(C(=O)N2CC[NH+](C3CCCC3)CC2)c1)c1ccccc1 (3D coordinates assigned)
O=C(/N=c1/[n-]cccc1Oc1cccc(C(=O)N2CC[NH+](C3CCCC3)CC2)c1)c1ccccc1 (nonaromatic ring conformer: 103.15927052593888 kcal/mol)

>  <smiles>  (57) 
O=C(N=c1[nH]cccc1Oc1cccc(C(=O)N2CCN(C3CCCC3)CC2)c1)c1ccccc1

>  <score_type>  (57) 
oracle

>  <origin>  (57) 
adg

>  <m_score__min__energy>  (57) 
-11.550000000000001

>  <m_primary>  (57) 
energy

$$$$
57:0
     RDKit          3D

 58 61  0  0  0  0  0  0  0  0999 V2000
   63.3830   33.8220   46.3720 C   0  0  0  0  0  0  0  0  0  0  0  0
   62.9820   33.0930   47.6310 C   0  0  0  0  0  0  0  0  0  0  0  0
   62.9230   31.5860   47.6300 C   0  0  0  0  0  0  0  0  0  0  0  0
   62.6670   33.7460   48.7710 C   0  0  0  0  0  0  0  0  0  0  0  0
   61.2800   33.8310   49.3690 C   0  0  0  0  0  0  0  0  0  0  0  0
   61.2930   33.5400   50.8820 C   0  0  0  0  0  0  0  0  0  0  0  0
   60.0520   32.7760   51.4160 C   0  0  1  0  0  0  0  0  0  0  0  0
   59.6060   33.3250   52.7810 C   0  0  0  0  0  0  0  0  0  0  0  0
   58.9160   32.9790   50.4260 C   0  0  0  0  0  0  0  0  0  0  0  0
   58.5950   32.0500   49.5200 C   0  0  0  0  0  0  0  0  0  0  0  0
   59.2390   30.7280   49.5430 C   0  0  0  0  0  0  0  0  0  0  0  0
   58.9590   29.7650   48.5660 C   0  0  0  0  0  0  0  0  0  0  0  0
   59.5320   28.4810   48.6400 C   0  0  0  0  0  0  0  0  0  0  0  0
   59.1490   27.4850   47.6160 C   0  0  0  0  0  0  0  0  0  0  0  0
   59.6650   26.3350   47.6150 O   0  0  0  0  0  0  0  0  0  0  0  0
   58.1570   27.8090   46.6840 O   0  0  0  0  0  0  0  0  0  0  0  0
   58.4500   28.1620   45.3370 C   0  0  0  0  0  0  0  0  0  0  0  0
   58.5500   29.6120   45.2300 N   0  0  0  0  0  0  0  0  0  0  0  0
   57.4480   30.5190   45.1520 C   0  0  0  0  0  0  0  0  0  0  0  0
   56.2740   30.1840   44.8380 O   0  0  0  0  0  0  0  0  0  0  0  0
   57.8740   31.8640   45.5220 C   0  0  0  0  0  0  0  0  0  0  0  0
   57.1630   33.0610   45.5890 C   0  0  0  0  0  0  0  0  0  0  0  0
   57.8490   34.2150   46.0090 C   0  0  0  0  0  0  0  0  0  0  0  0
   59.2160   34.1470   46.3570 C   0  0  0  0  0  0  0  0  0  0  0  0
   59.9100   32.9250   46.2890 C   0  0  0  0  0  0  0  0  0  0  0  0
   59.2090   31.7990   45.8630 C   0  0  0  0  0  0  0  0  0  0  0  0
   59.6350   30.4120   45.7090 C   0  0  0  0  0  0  0  0  0  0  0  0
   60.7790   29.9610   45.9840 O   0  0  0  0  0  0  0  0  0  0  0  0
   60.4180   28.1840   49.7090 C   0  0  0  0  0  0  0  0  0  0  0  0
   61.0980   26.9680   49.8110 O   0  0  0  0  0  0  0  0  0  0  0  0
   60.6630   29.1480   50.6940 C   0  0  0  0  0  0  0  0  0  0  0  0
   60.0940   30.4180   50.6010 C   0  0  0  0  0  0  0  0  0  0  0  0
   60.3640   31.3830   51.5760 O   0  0  0  0  0  0  0  0  0  0  0  0
   63.8974   34.7572   46.6379 H   0  0  0  0  0  0  0  0  0  0  0  0
   64.0589   33.1872   45.7802 H   0  0  0  0  0  0  0  0  0  0  0  0
   62.4850   34.0530   45.7802 H   0  0  0  0  0  0  0  0  0  0  0  0
   62.9086   31.2189   48.6668 H   0  0  0  0  0  0  0  0  0  0  0  0
   62.0112   31.2551   47.1112 H   0  0  0  0  0  0  0  0  0  0  0  0
   63.8061   31.1848   47.1112 H   0  0  0  0  0  0  0  0  0  0  0  0
   63.4822   34.2553   49.3058 H   0  0  0  0  0  0  0  0  0  0  0  0
   60.8821   34.8432   49.2040 H   0  0  0  0  0  0  0  0  0  0  0  0
   60.6487   33.0747   48.8797 H   0  0  0  0  0  0  0  0  0  0  0  0
   62.1861   32.9380   51.1056 H   0  0  0  0  0  0  0  0  0  0  0  0
   61.2885   34.5195   51.3825 H   0  0  0  0  0  0  0  0  0  0  0  0
   60.0802   32.7412   53.5837 H   0  0  0  0  0  0  0  0  0  0  0  0
   59.9064   34.3796   52.8680 H   0  0  0  0  0  0  0  0  0  0  0  0
   58.5122   33.2470   52.8680 H   0  0  0  0  0  0  0  0  0  0  0  0
   58.3420   33.9169   50.4562 H   0  0  0  0  0  0  0  0  0  0  0  0
   57.8424   32.2764   48.7503 H   0  0  0  0  0  0  0  0  0  0  0  0
   58.2851   30.0138   47.7329 H   0  0  0  0  0  0  0  0  0  0  0  0
   59.4042   27.7047   45.0365 H   0  0  0  0  0  0  0  0  0  0  0  0
   57.6479   27.7983   44.6779 H   0  0  0  0  0  0  0  0  0  0  0  0
   56.0969   33.1020   45.3213 H   0  0  0  0  0  0  0  0  0  0  0  0
   57.3174   35.1763   46.0667 H   0  0  0  0  0  0  0  0  0  0  0  0
   59.7421   35.0562   46.6836 H   0  0  0  0  0  0  0  0  0  0  0  0
   60.9732   32.8607   46.5637 H   0  0  0  0  0  0  0  0  0  0  0  0
   61.1290   26.2830   49.0690 H   0  0  0  0  0  0  0  0  0  0  0  0
   61.3100   28.9017   51.5489 H   0  0  0  0  0  0  0  0  0  0  0  0
  1  2  1  0
  2  3  1  0
  2  4  2  3
  4  5  1  0
  5  6  1  0
  7  6  1  6
  7  8  1  0
  7  9  1  0
  9 10  2  0
 10 11  1  0
 11 12  2  0
 12 13  1  0
 13 14  1  0
 14 15  2  0
 14 16  1  0
 16 17  1  0
 17 18  1  0
 18 19  1  0
 19 20  2  0
 19 21  1  0
 21 22  2  0
 22 23  1  0
 23 24  2  0
 24 25  1  0
 25 26  2  0
 26 27  1  0
 27 28  2  0
 13 29  2  0
 29 30  1  0
 29 31  1  0
 31 32  2  0
 32 33  1  0
 33  7  1  0
 32 11  1  0
 27 18  1  0
 26 21  1  0
  1 34  1  0
  1 35  1  0
  1 36  1  0
  3 37  1  0
  3 38  1  0
  3 39  1  0
  4 40  1  0
  5 41  1  0
  5 42  1  0
  6 43  1  0
  6 44  1  0
  8 45  1  0
  8 46  1  0
  8 47  1  0
  9 48  1  0
 10 49  1  0
 12 50  1  0
 17 51  1  0
 17 52  1  0
 22 53  1  0
 23 54  1  0
 24 55  1  0
 25 56  1  0
 30 57  1  0
 31 58  1  0
M  END
>  <UniqueID>  (58) 
55

>  <SMILES>  (58) 
CC(C)=CCC[C@@]1(C)C=Cc2cc(C(=O)OCN3C(=O)c4ccccc4C3=O)c(O)cc2O1

>  <Energy>  (58) 
90.64372834739098

>  <Genealogy>  (58) 
CC(C)=CCC[C@@]1(C)C=Cc2cc(C(=O)OCN3C(=O)c4ccccc4C3=O)c(O)cc2O1 (chirality)
CC(C)=CCC[C@@]1(C)C=Cc2cc(C(=O)OCN3C(=O)c4ccccc4C3=O)c(O)cc2O1 (3D coordinates assigned)
CC(C)=CCC[C@@]1(C)C=Cc2cc(C(=O)OCN3C(=O)c4ccccc4C3=O)c(O)cc2O1 (nonaromatic ring conformer: 90.64372834739098 kcal/mol)

>  <smiles>  (58) 
CC(C)=CCCC1(C)C=Cc2cc(C(=O)OCN3C(=O)c4ccccc4C3=O)c(O)cc2O1

>  <score_type>  (58) 
oracle

>  <origin>  (58) 
adg

>  <m_score__min__energy>  (58) 
-9

>  <m_primary>  (58) 
energy

$$$$
58:0
     RDKit          3D

 47 50  0  0  0  0  0  0  0  0999 V2000
   61.4402   28.5783   49.5341 H   0  0  0  0  0  0  0  0  0  0  0  0
   60.4830   29.0560   49.7900 C   0  0  0  0  0  0  0  0  0  0  0  0
   59.6832   28.4668   50.2624 H   0  0  0  0  0  0  0  0  0  0  0  0
   60.2910   30.3570   49.5260 C   0  0  0  0  0  0  0  0  0  0  0  0
   58.9960   31.0080   49.8710 C   0  0  0  0  0  0  0  0  0  0  0  0
   58.0770   30.3320   50.4100 O   0  0  0  0  0  0  0  0  0  0  0  0
   58.7800   32.4130   49.6790 N   0  0  0  0  0  0  0  0  0  0  0  0
   58.8760   33.1050   48.4290 C   0  0  0  0  0  0  0  0  0  0  0  0
   59.8050   34.1400   48.2940 C   0  0  0  0  0  0  0  0  0  0  0  0
   60.4460   34.4159   49.1443 H   0  0  0  0  0  0  0  0  0  0  0  0
   59.9220   34.8240   47.0850 C   0  0  0  0  0  0  0  0  0  0  0  0
   60.6700   35.6233   46.9776 H   0  0  0  0  0  0  0  0  0  0  0  0
   59.0930   34.4980   46.0100 C   0  0  0  0  0  0  0  0  0  0  0  0
   59.1945   35.0428   45.0598 H   0  0  0  0  0  0  0  0  0  0  0  0
   58.1300   33.4810   46.1290 C   0  0  0  0  0  0  0  0  0  0  0  0
   57.2480   33.2100   44.9650 C   0  0  0  0  0  0  0  0  0  0  0  0
   56.4216   33.9103   44.7738 H   0  0  0  0  0  0  0  0  0  0  0  0
   57.3910   32.1700   44.1320 C   0  0  0  0  0  0  0  0  0  0  0  0
   57.4984   32.3621   43.0543 H   0  0  0  0  0  0  0  0  0  0  0  0
   57.4090   30.7780   44.6130 C   0  0  0  0  0  0  0  0  0  0  0  0
   58.5560   30.0870   44.8720 N   0  0  0  0  0  0  0  0  0  0  0  0
   58.0890   28.8970   45.2740 C   0  0  0  0  0  0  0  0  0  0  0  0
   58.8040   27.7720   45.6670 C   0  0  0  0  0  0  0  0  0  0  0  0
   59.9039   27.7695   45.6835 H   0  0  0  0  0  0  0  0  0  0  0  0
   58.0630   26.6360   46.0430 C   0  0  0  0  0  0  0  0  0  0  0  0
   58.5804   25.7194   46.3624 H   0  0  0  0  0  0  0  0  0  0  0  0
   56.6480   26.6790   46.0080 C   0  0  0  0  0  0  0  0  0  0  0  0
   56.0676   25.7926   46.3037 H   0  0  0  0  0  0  0  0  0  0  0  0
   55.9970   27.8150   45.6090 N   0  0  0  0  0  0  0  0  0  0  0  0
   56.7330   28.8970   45.2510 C   0  0  0  0  0  0  0  0  0  0  0  0
   56.2620   30.0790   44.8330 N   0  0  0  0  0  0  0  0  0  0  0  0
   58.0250   32.7890   47.3550 C   0  0  0  0  0  0  0  0  0  0  0  0
   57.2714   31.9962   47.4711 H   0  0  0  0  0  0  0  0  0  0  0  0
   61.4250   31.1660   49.0050 C   0  0  0  0  0  0  0  0  0  0  0  0
   62.1870   31.9170   49.9200 C   0  0  0  0  0  0  0  0  0  0  0  0
   61.9448   31.8768   50.9922 H   0  0  0  0  0  0  0  0  0  0  0  0
   63.2480   32.7130   49.4800 C   0  0  0  0  0  0  0  0  0  0  0  0
   63.8309   33.3013   50.2040 H   0  0  0  0  0  0  0  0  0  0  0  0
   63.5680   32.7620   48.1250 C   0  0  0  0  0  0  0  0  0  0  0  0
   64.4054   33.3872   47.7815 H   0  0  0  0  0  0  0  0  0  0  0  0
   62.8290   32.0200   47.2020 C   0  0  0  0  0  0  0  0  0  0  0  0
   63.0970   32.0555   46.1357 H   0  0  0  0  0  0  0  0  0  0  0  0
   61.7460   31.2280   47.6210 C   0  0  0  0  0  0  0  0  0  0  0  0
   60.9870   30.4480   46.5790 C   0  0  0  0  0  0  0  0  0  0  0  0
   60.3021   29.7442   47.0745 H   0  0  0  0  0  0  0  0  0  0  0  0
   60.4087   31.1416   45.9509 H   0  0  0  0  0  0  0  0  0  0  0  0
   61.6961   29.8888   45.9509 H   0  0  0  0  0  0  0  0  0  0  0  0
  1  2  1  0
  2  3  1  0
  2  4  2  0
  4  5  1  0
  5  6  2  0
  5  7  1  0
  7  8  1  0
  8  9  2  0
  9 10  1  0
  9 11  1  0
 11 12  1  0
 11 13  2  0
 13 14  1  0
 13 15  1  0
 15 16  1  0
 16 17  1  0
 16 18  2  0
 18 19  1  0
 18 20  1  0
 20 21  2  0
 21 22  1  0
 22 23  2  0
 23 24  1  0
 23 25  1  0
 25 26  1  0
 25 27  2  0
 27 28  1  0
 27 29  1  0
 29 30  2  0
 30 31  1  0
 15 32  2  0
 32 33  1  0
  4 34  1  0
 34 35  2  0
 35 36  1  0
 35 37  1  0
 37 38  1  0
 37 39  2  0
 39 40  1  0
 39 41  1  0
 41 42  1  0
 41 43  2  0
 43 44  1  0
 44 45  1  0
 44 46  1  0
 44 47  1  0
 32  8  1  0
 43 34  1  0
 31 20  1  0
 30 22  1  0
M  CHG  2   7  -1  31  -1
M  END
>  <UniqueID>  (59) 
56

>  <SMILES>  (59) 
C=C(C(=O)[N-]c1cccc(/C=C/c2nc3cccnc3[n-]2)c1)c1ccccc1C

>  <Energy>  (59) 
99.76469424503615

>  <Genealogy>  (59) 
C=C(C(=O)[N-]c1cccc(C=Cc2nc3cccnc3[n-]2)c1)c1ccccc1C (protonated)
C=C(C(=O)[N-]c1cccc(/C=C/c2nc3cccnc3[n-]2)c1)c1ccccc1C (cis-trans isomerization)
C=C(C(=O)[N-]c1cccc(/C=C/c2nc3cccnc3[n-]2)c1)c1ccccc1C (3D coordinates assigned)
C=C(C(=O)[N-]c1cccc(/C=C/c2nc3cccnc3[n-]2)c1)c1ccccc1C (optimized conformer: 99.76469424503615 kcal/mol)

>  <smiles>  (59) 
C=C(C(=O)Nc1cccc(C=Cc2nc3cccnc3[nH]2)c1)c1ccccc1C

>  <score_type>  (59) 
oracle

>  <origin>  (59) 
adg

>  <m_score__min__energy>  (59) 
-12.34

>  <m_primary>  (59) 
energy

$$$$
59:0
     RDKit          3D

 53 55  0  0  0  0  0  0  0  0999 V2000
   54.7490   27.4600   46.3730 H   0  0  0  0  0  0  0  0  0  0  0  0
   55.0960   26.6810   45.8260 O   0  0  0  0  0  0  0  0  0  0  0  0
   56.0980   25.8530   46.3240 C   0  0  0  0  0  0  0  0  0  0  0  0
   55.8720   24.8030   47.1320 N   0  0  0  0  0  0  0  0  0  0  0  0
   57.1180   24.3330   47.3600 C   0  0  0  0  0  0  0  0  0  0  0  0
   57.3430   23.3370   48.0960 O   0  0  0  0  0  0  0  0  0  0  0  0
   58.1060   25.0240   46.7500 N   0  0  0  0  0  0  0  0  0  0  0  0
   57.4440   25.9810   46.0720 C   0  0  0  0  0  0  0  0  0  0  0  0
   58.0740   27.0830   45.3110 C   0  0  0  0  0  0  0  0  0  0  0  0
   58.5956   26.8135   44.3808 H   0  0  0  0  0  0  0  0  0  0  0  0
   58.0670   28.4000   45.6570 C   0  0  0  0  0  0  0  0  0  0  0  0
   58.6420   28.8100   46.8860 C   0  0  0  0  0  0  0  0  0  0  0  0
   59.0373   28.0441   47.5695 H   0  0  0  0  0  0  0  0  0  0  0  0
   58.7240   30.1590   47.2600 C   0  0  0  0  0  0  0  0  0  0  0  0
   59.2560   30.4940   48.6390 C   0  0  0  0  0  0  0  0  0  0  0  0
   59.9328   31.3580   48.5654 H   0  0  0  0  0  0  0  0  0  0  0  0
   58.4080   30.7302   49.2986 H   0  0  0  0  0  0  0  0  0  0  0  0
   60.0170   29.3100   49.2220 C   0  0  0  0  0  0  0  0  0  0  0  0
   59.9856   29.3589   50.3205 H   0  0  0  0  0  0  0  0  0  0  0  0
   59.5519   28.3725   48.8832 H   0  0  0  0  0  0  0  0  0  0  0  0
   61.0630   29.3437   48.8832 H   0  0  0  0  0  0  0  0  0  0  0  0
   58.2170   31.1450   46.3930 C   0  0  0  0  0  0  0  0  0  0  0  0
   58.2620   32.5820   46.7220 C   0  0  0  0  0  0  0  0  0  0  0  0
   57.8960   32.9610   47.8680 O   0  0  0  0  0  0  0  0  0  0  0  0
   58.6650   33.6090   45.6950 C   0  0  0  0  0  0  0  0  0  0  0  0
   59.2146   33.1063   44.8856 H   0  0  0  0  0  0  0  0  0  0  0  0
   57.7510   34.0884   45.3144 H   0  0  0  0  0  0  0  0  0  0  0  0
   59.5600   34.7010   46.3000 C   0  0  0  0  0  0  0  0  0  0  0  0
   60.0872   35.2192   45.4855 H   0  0  0  0  0  0  0  0  0  0  0  0
   58.9166   35.3934   46.8627 H   0  0  0  0  0  0  0  0  0  0  0  0
   60.5980   34.1230   47.2730 C   0  0  0  0  0  0  0  0  0  0  0  0
   61.1535   34.9472   47.7443 H   0  0  0  0  0  0  0  0  0  0  0  0
   60.0802   33.5324   48.0431 H   0  0  0  0  0  0  0  0  0  0  0  0
   61.5450   33.2470   46.5450 N   0  0  0  0  0  0  0  0  0  0  0  0
   62.8840   33.8480   46.4050 C   0  0  0  0  0  0  0  0  0  0  0  0
   63.4489   33.2814   45.6501 H   0  0  0  0  0  0  0  0  0  0  0  0
   62.7520   34.8977   46.1037 H   0  0  0  0  0  0  0  0  0  0  0  0
   63.6760   33.8330   47.7340 C   0  0  0  0  0  0  0  0  0  0  0  0
   64.6435   33.3385   47.5623 H   0  0  0  0  0  0  0  0  0  0  0  0
   63.8061   34.8765   48.0567 H   0  0  0  0  0  0  0  0  0  0  0  0
   62.9930   33.1470   48.7650 O   0  0  0  0  0  0  0  0  0  0  0  0
   62.6450   31.8500   48.3280 C   0  0  0  0  0  0  0  0  0  0  0  0
   63.5553   31.3268   47.9999 H   0  0  0  0  0  0  0  0  0  0  0  0
   62.1694   31.3188   49.1657 H   0  0  0  0  0  0  0  0  0  0  0  0
   61.6430   31.9000   47.1530 C   0  0  0  0  0  0  0  0  0  0  0  0
   61.9697   31.1879   46.3809 H   0  0  0  0  0  0  0  0  0  0  0  0
   60.6505   31.6407   47.5502 H   0  0  0  0  0  0  0  0  0  0  0  0
   57.6280   30.7640   45.1860 C   0  0  0  0  0  0  0  0  0  0  0  0
   57.2167   31.5403   44.5240 H   0  0  0  0  0  0  0  0  0  0  0  0
   57.5450   29.4140   44.7910 C   0  0  0  0  0  0  0  0  0  0  0  0
   56.9270   29.1580   43.6190 C   0  0  0  0  0  0  0  0  0  0  0  0
   56.8334   28.1220   43.2614 H   0  0  0  0  0  0  0  0  0  0  0  0
   56.5168   29.9853   43.0213 H   0  0  0  0  0  0  0  0  0  0  0  0
  1  2  1  0
  2  3  1  0
  3  4  1  0
  4  5  1  0
  5  6  2  0
  5  7  1  0
  7  8  1  0
  8  9  1  0
  9 10  1  0
  9 11  2  0
 11 12  1  0
 12 13  1  0
 12 14  2  0
 14 15  1  0
 15 16  1  0
 15 17  1  0
 15 18  1  0
 18 19  1  0
 18 20  1  0
 18 21  1  0
 14 22  1  0
 22 23  1  0
 23 24  2  0
 23 25  1  0
 25 26  1  0
 25 27  1  0
 25 28  1  0
 28 29  1  0
 28 30  1  0
 28 31  1  0
 31 32  1  0
 31 33  1  0
 31 34  1  0
 34 35  1  0
 35 36  1  0
 35 37  1  0
 35 38  1  0
 38 39  1  0
 38 40  1  0
 38 41  1  0
 41 42  1  0
 42 43  1  0
 42 44  1  0
 42 45  1  0
 45 46  1  0
 45 47  1  0
 22 48  2  0
 48 49  1  0
 48 50  1  0
 50 51  2  0
 51 52  1  0
 51 53  1  0
  8  3  2  0
 50 11  1  0
 45 34  1  0
M  CHG  2   4  -1   7  -1
M  END
>  <UniqueID>  (60) 
57

>  <SMILES>  (60) 
C=c1cc(C(=O)CCCN2CCOCC2)c(CC)c/c1=C\c1[n-]c(=O)[n-]c1O

>  <Energy>  (60) 
110.5332406330331

>  <Genealogy>  (60) 
C=c1cc(C(=O)CCCN2CCOCC2)c(CC)cc1=Cc1[n-]c(=O)[n-]c1O (protonated)
C=c1cc(C(=O)CCCN2CCOCC2)c(CC)c/c1=C\c1[n-]c(=O)[n-]c1O (cis-trans isomerization)
C=c1cc(C(=O)CCCN2CCOCC2)c(CC)c/c1=C\c1[n-]c(=O)[n-]c1O (3D coordinates assigned)
C=c1cc(C(=O)CCCN2CCOCC2)c(CC)c/c1=C\c1[n-]c(=O)[n-]c1O (nonaromatic ring conformer: 110.5332406330331 kcal/mol)

>  <smiles>  (60) 
C=c1cc(C(=O)CCCN2CCOCC2)c(CC)cc1=Cc1[nH]c(=O)[nH]c1O

>  <score_type>  (60) 
oracle

>  <origin>  (60) 
adg

>  <m_score__min__energy>  (60) 
-13.859999999999999

>  <m_primary>  (60) 
energy

$$$$
60:0
     RDKit          3D

 62 66  0  0  0  0  0  0  0  0999 V2000
   53.4390   26.1030   45.3440 H   0  0  0  0  0  0  0  0  0  0  0  0
   54.4090   25.8910   45.6800 N   0  0  0  0  0  0  0  0  0  0  0  0
   54.5700   24.1710   45.7460 S   0  0  0  0  0  0  0  0  0  0  0  0
   53.5960   23.5570   44.7790 O   0  0  0  0  0  0  0  0  0  0  0  0
   54.2560   23.7130   47.1460 O   0  0  0  0  0  0  0  0  0  0  0  0
   56.2120   23.6710   45.2860 C   0  0  0  0  0  0  0  0  0  0  0  0
   56.3520   22.4710   44.5690 C   0  0  0  0  0  0  0  0  0  0  0  0
   55.4568   21.8965   44.2886 H   0  0  0  0  0  0  0  0  0  0  0  0
   57.6120   22.0020   44.2100 C   0  0  0  0  0  0  0  0  0  0  0  0
   57.7069   21.0711   43.6317 H   0  0  0  0  0  0  0  0  0  0  0  0
   58.7520   22.7080   44.5810 C   0  0  0  0  0  0  0  0  0  0  0  0
   59.7460   22.3376   44.2899 H   0  0  0  0  0  0  0  0  0  0  0  0
   58.6370   23.8840   45.3210 C   0  0  0  0  0  0  0  0  0  0  0  0
   59.5474   24.4110   45.6425 H   0  0  0  0  0  0  0  0  0  0  0  0
   57.3700   24.4120   45.6660 C   0  0  0  0  0  0  0  0  0  0  0  0
   57.2250   25.7010   46.4170 C   0  0  0  0  0  0  0  0  0  0  0  0
   56.3546   25.7726   47.0857 H   0  0  0  0  0  0  0  0  0  0  0  0
   58.0260   26.7820   46.3760 C   0  0  0  0  0  0  0  0  0  0  0  0
   57.8270   27.5148   45.5801 H   0  0  0  0  0  0  0  0  0  0  0  0
   59.1310   27.0800   47.2800 C   0  0  0  0  0  0  0  0  0  0  0  0
   59.8520   26.1250   47.6750 O   0  0  0  0  0  0  0  0  0  0  0  0
   59.3100   28.3970   47.8310 N   0  0  0  0  0  0  0  0  0  0  0  0
   59.7530   28.5710   49.2110 C   0  0  0  0  0  0  0  0  0  0  0  0
   59.0876   29.2799   49.7256 H   0  0  0  0  0  0  0  0  0  0  0  0
   59.7249   27.6045   49.7355 H   0  0  0  0  0  0  0  0  0  0  0  0
   61.1810   29.1170   49.2090 C   0  0  0  0  0  0  0  0  0  0  0  0
   61.4820   29.3283   50.2457 H   0  0  0  0  0  0  0  0  0  0  0  0
   61.8342   28.3591   48.7520 H   0  0  0  0  0  0  0  0  0  0  0  0
   61.2980   30.3660   48.4110 N   0  0  0  0  0  0  0  0  0  0  0  0
   60.7020   31.5830   49.0420 C   0  0  1  0  0  0  0  0  0  0  0  0
   60.0039   31.2035   49.8027 H   0  0  0  0  0  0  0  0  0  0  0  0
   61.7000   32.4490   49.7770 C   0  0  0  0  0  0  0  0  0  0  0  0
   61.4900   32.7100   51.0960 N   0  0  0  0  0  0  0  0  0  0  0  0
   62.3430   33.4750   51.8290 C   0  0  0  0  0  0  0  0  0  0  0  0
   62.1322   33.6706   52.8907 H   0  0  0  0  0  0  0  0  0  0  0  0
   63.4820   34.0100   51.2360 C   0  0  0  0  0  0  0  0  0  0  0  0
   64.1835   34.6172   51.8270 H   0  0  0  0  0  0  0  0  0  0  0  0
   63.7250   33.7680   49.8830 C   0  0  0  0  0  0  0  0  0  0  0  0
   64.6207   34.1886   49.4025 H   0  0  0  0  0  0  0  0  0  0  0  0
   62.8300   32.9900   49.1350 C   0  0  0  0  0  0  0  0  0  0  0  0
   63.0500   32.7840   47.6640 C   0  0  0  0  0  0  0  0  0  0  0  0
   62.9508   31.7138   47.4299 H   0  0  0  0  0  0  0  0  0  0  0  0
   64.0581   33.1384   47.4028 H   0  0  0  0  0  0  0  0  0  0  0  0
   62.0230   33.5740   46.8510 C   0  0  0  0  0  0  0  0  0  0  0  0
   62.2882   33.4539   45.7902 H   0  0  0  0  0  0  0  0  0  0  0  0
   62.0884   34.5941   47.2574 H   0  0  0  0  0  0  0  0  0  0  0  0
   60.5470   33.2150   46.9880 C   0  0  0  0  0  0  0  0  0  0  0  0
   59.7110   33.8490   46.0470 C   0  0  0  0  0  0  0  0  0  0  0  0
   60.1626   34.4739   45.2625 H   0  0  0  0  0  0  0  0  0  0  0  0
   58.3270   33.7030   46.0870 C   0  0  0  0  0  0  0  0  0  0  0  0
   57.3240   34.4890   44.8820 Cl  0  0  0  0  0  0  0  0  0  0  0  0
   57.7390   32.9420   47.0880 C   0  0  0  0  0  0  0  0  0  0  0  0
   56.6444   32.8417   47.1292 H   0  0  0  0  0  0  0  0  0  0  0  0
   58.5300   32.3060   48.0390 C   0  0  0  0  0  0  0  0  0  0  0  0
   58.0493   31.7060   48.8257 H   0  0  0  0  0  0  0  0  0  0  0  0
   59.9390   32.4150   48.0150 C   0  0  0  0  0  0  0  0  0  0  0  0
   60.8290   30.1320   47.0190 C   0  0  0  0  0  0  0  0  0  0  0  0
   60.8584   31.0858   46.4718 H   0  0  0  0  0  0  0  0  0  0  0  0
   61.4942   29.3837   46.5634 H   0  0  0  0  0  0  0  0  0  0  0  0
   59.3930   29.5760   46.9660 C   0  0  0  0  0  0  0  0  0  0  0  0
   58.6867   30.3426   47.3175 H   0  0  0  0  0  0  0  0  0  0  0  0
   59.1377   29.2994   45.9324 H   0  0  0  0  0  0  0  0  0  0  0  0
  1  2  1  0
  2  3  1  0
  3  4  2  0
  3  5  2  0
  3  6  1  0
  6  7  2  0
  7  8  1  0
  7  9  1  0
  9 10  1  0
  9 11  2  0
 11 12  1  0
 11 13  1  0
 13 14  1  0
 13 15  2  0
 15 16  1  0
 16 17  1  0
 16 18  2  0
 18 19  1  0
 18 20  1  0
 20 21  2  0
 20 22  1  0
 22 23  1  0
 23 24  1  0
 23 25  1  0
 23 26  1  0
 26 27  1  0
 26 28  1  0
 26 29  1  0
 29 30  1  0
 30 31  1  1
 30 32  1  0
 32 33  2  0
 33 34  1  0
 34 35  1  0
 34 36  2  0
 36 37  1  0
 36 38  1  0
 38 39  1  0
 38 40  2  0
 40 41  1  0
 41 42  1  0
 41 43  1  0
 41 44  1  0
 44 45  1  0
 44 46  1  0
 44 47  1  0
 47 48  2  0
 48 49  1  0
 48 50  1  0
 50 51  1  0
 50 52  2  0
 52 53  1  0
 52 54  1  0
 54 55  1  0
 54 56  2  0
 29 57  1  0
 57 58  1  0
 57 59  1  0
 57 60  1  0
 60 61  1  0
 60 62  1  0
 15  6  1  0
 60 22  1  0
 56 30  1  0
 40 32  1  0
 56 47  1  0
M  CHG  1   2  -1
M  END
>  <UniqueID>  (61) 
58

>  <SMILES>  (61) 
[NH-]S(=O)(=O)c1ccccc1/C=C\C(=O)N1CCN([C@@H]2c3ccc(Cl)cc3CCc3cccnc32)CC1

>  <Energy>  (61) 
109.75408591239241

>  <Genealogy>  (61) 
[NH-]S(=O)(=O)c1ccccc1C=CC(=O)N1CCN(C2c3ccc(Cl)cc3CCc3cccnc32)CC1 (protonated)
[NH-]S(=O)(=O)c1ccccc1C=CC(=O)N1CCN([C@@H]2c3ccc(Cl)cc3CCc3cccnc32)CC1 (chirality)
[NH-]S(=O)(=O)c1ccccc1/C=C\C(=O)N1CCN([C@@H]2c3ccc(Cl)cc3CCc3cccnc32)CC1 (cis-trans isomerization)
[NH-]S(=O)(=O)c1ccccc1/C=C\C(=O)N1CCN([C@@H]2c3ccc(Cl)cc3CCc3cccnc32)CC1 (3D coordinates assigned)
[NH-]S(=O)(=O)c1ccccc1/C=C\C(=O)N1CCN([C@@H]2c3ccc(Cl)cc3CCc3cccnc32)CC1 (nonaromatic ring conformer: 109.75408591239241 kcal/mol)

>  <smiles>  (61) 
NS(=O)(=O)c1ccccc1C=CC(=O)N1CCN(C2c3ccc(Cl)cc3CCc3cccnc32)CC1

>  <score_type>  (61) 
oracle

>  <origin>  (61) 
adg

>  <m_score__min__energy>  (61) 
-11.970000000000001

>  <m_primary>  (61) 
energy

$$$$
61:0
     RDKit          3D

 49 51  0  0  0  0  0  0  0  0999 V2000
   63.6050   33.4070   46.7860 C   0  0  0  0  0  0  0  0  0  0  0  0
   62.4190   34.1700   46.9850 O   0  0  0  0  0  0  0  0  0  0  0  0
   61.3970   33.8250   47.8820 C   0  0  0  0  0  0  0  0  0  0  0  0
   60.0420   33.7730   47.5010 C   0  0  0  0  0  0  0  0  0  0  0  0
   59.0590   33.4290   48.4340 C   0  0  0  0  0  0  0  0  0  0  0  0
   59.4140   33.1280   49.7630 C   0  0  0  0  0  0  0  0  0  0  0  0
   58.4660   32.7790   50.7360 O   0  0  0  0  0  0  0  0  0  0  0  0
   58.6700   31.7890   51.7430 C   0  0  0  0  0  0  0  0  0  0  0  0
   58.0680   30.5000   51.2930 C   0  0  0  0  0  0  0  0  0  0  0  0
   57.0180   30.0710   51.8400 O   0  0  0  0  0  0  0  0  0  0  0  0
   58.6670   29.7840   50.2090 N   0  0  0  0  0  0  0  0  0  0  0  0
   59.9480   30.1470   49.6160 C   0  0  0  0  0  0  0  0  0  0  0  0
   59.8310   30.2110   48.1270 C   0  0  0  0  0  0  0  0  0  0  0  0
   60.7650   30.7130   47.4440 O   0  0  0  0  0  0  0  0  0  0  0  0
   58.6470   29.7170   47.4890 N   0  0  0  0  0  0  0  0  0  0  0  0
   58.1980   30.1260   46.1900 C   0  0  0  0  0  0  0  0  0  0  0  0
   58.3950   31.4610   45.8140 C   0  0  0  0  0  0  0  0  0  0  0  0
   58.0210   31.9040   44.5430 C   0  0  0  0  0  0  0  0  0  0  0  0
   57.4340   31.0190   43.6400 C   0  0  0  0  0  0  0  0  0  0  0  0
   57.2000   29.6940   44.0100 C   0  0  0  0  0  0  0  0  0  0  0  0
   57.5610   29.2320   45.2900 C   0  0  0  0  0  0  0  0  0  0  0  0
   57.1920   27.8530   45.6930 C   0  0  0  0  0  0  0  0  0  0  0  0
   58.1660   26.9440   46.1460 C   0  0  0  0  0  0  0  0  0  0  0  0
   57.7800   25.6560   46.5230 C   0  0  0  0  0  0  0  0  0  0  0  0
   56.4350   25.2800   46.4520 C   0  0  0  0  0  0  0  0  0  0  0  0
   56.0320   23.9990   46.8310 O   0  0  0  0  0  0  0  0  0  0  0  0
   55.4930   26.2080   45.9940 C   0  0  0  0  0  0  0  0  0  0  0  0
   54.2770   25.8950   45.9190 O   0  0  0  0  0  0  0  0  0  0  0  0
   55.8910   27.4560   45.6270 N   0  0  0  0  0  0  0  0  0  0  0  0
   60.7620   33.1770   50.1350 C   0  0  0  0  0  0  0  0  0  0  0  0
   61.7440   33.5240   49.2040 C   0  0  0  0  0  0  0  0  0  0  0  0
   64.0322   33.1322   47.7617 H   0  0  0  0  0  0  0  0  0  0  0  0
   63.3635   32.4944   46.2213 H   0  0  0  0  0  0  0  0  0  0  0  0
   64.3353   34.0051   46.2213 H   0  0  0  0  0  0  0  0  0  0  0  0
   59.7557   34.0041   46.4644 H   0  0  0  0  0  0  0  0  0  0  0  0
   58.0029   33.3933   48.1282 H   0  0  0  0  0  0  0  0  0  0  0  0
   59.7484   31.6524   51.9115 H   0  0  0  0  0  0  0  0  0  0  0  0
   58.1937   32.1119   52.6805 H   0  0  0  0  0  0  0  0  0  0  0  0
   60.2591   31.1305   49.9981 H   0  0  0  0  0  0  0  0  0  0  0  0
   60.6949   29.3852   49.8838 H   0  0  0  0  0  0  0  0  0  0  0  0
   58.8482   32.1667   46.5258 H   0  0  0  0  0  0  0  0  0  0  0  0
   58.1898   32.9520   44.2545 H   0  0  0  0  0  0  0  0  0  0  0  0
   57.1548   31.3657   42.6341 H   0  0  0  0  0  0  0  0  0  0  0  0
   56.7289   29.0038   43.2946 H   0  0  0  0  0  0  0  0  0  0  0  0
   59.2224   27.2454   46.2027 H   0  0  0  0  0  0  0  0  0  0  0  0
   58.5341   24.9371   46.8759 H   0  0  0  0  0  0  0  0  0  0  0  0
   55.0610   23.7150   46.7810 H   0  0  0  0  0  0  0  0  0  0  0  0
   61.0510   32.9402   51.1696 H   0  0  0  0  0  0  0  0  0  0  0  0
   62.7992   33.5610   49.5127 H   0  0  0  0  0  0  0  0  0  0  0  0
  1  2  1  0
  2  3  1  0
  3  4  2  0
  4  5  1  0
  5  6  2  0
  6  7  1  0
  7  8  1  0
  8  9  1  0
  9 10  2  0
  9 11  1  0
 11 12  1  0
 12 13  1  0
 13 14  2  0
 13 15  1  0
 15 16  1  0
 16 17  2  0
 17 18  1  0
 18 19  2  0
 19 20  1  0
 20 21  2  0
 21 22  1  0
 22 23  2  0
 23 24  1  0
 24 25  2  0
 25 26  1  0
 25 27  1  0
 27 28  2  0
 27 29  1  0
  6 30  1  0
 30 31  2  0
 31  3  1  0
 21 16  1  0
 29 22  1  0
  1 32  1  0
  1 33  1  0
  1 34  1  0
  4 35  1  0
  5 36  1  0
  8 37  1  0
  8 38  1  0
 12 39  1  0
 12 40  1  0
 17 41  1  0
 18 42  1  0
 19 43  1  0
 20 44  1  0
 23 45  1  0
 24 46  1  0
 26 47  1  0
 30 48  1  0
 31 49  1  0
M  CHG  3  11  -1  15  -1  29  -1
M  END
>  <UniqueID>  (62) 
59

>  <SMILES>  (62) 
COc1ccc(OCC(=O)[N-]CC(=O)[N-]c2ccccc2-c2ccc(O)c(=O)[n-]2)cc1

>  <Energy>  (62) 
57.86820111167158

>  <Genealogy>  (62) 
COc1ccc(OCC(=O)[N-]CC(=O)[N-]c2ccccc2-c2ccc(O)c(=O)[n-]2)cc1 (protonated)
COc1ccc(OCC(=O)[N-]CC(=O)[N-]c2ccccc2-c2ccc(O)c(=O)[n-]2)cc1 (3D coordinates assigned)
COc1ccc(OCC(=O)[N-]CC(=O)[N-]c2ccccc2-c2ccc(O)c(=O)[n-]2)cc1 (optimized conformer: 57.86820111167158 kcal/mol)

>  <smiles>  (62) 
COc1ccc(OCC(=O)NCC(=O)Nc2ccccc2-c2ccc(O)c(=O)[nH]2)cc1

>  <score_type>  (62) 
oracle

>  <origin>  (62) 
adg

>  <m_score__min__energy>  (62) 
-13.1

>  <m_primary>  (62) 
energy

$$$$
62:0
     RDKit          3D

 39 41  0  0  0  0  0  0  0  0999 V2000
   58.9790   28.3810   46.7650 C   0  0  0  0  0  0  0  0  0  0  0  0
   58.2440   28.6860   45.6840 C   0  0  0  0  0  0  0  0  0  0  0  0
   57.8210   27.8000   44.6790 C   0  0  0  0  0  0  0  0  0  0  0  0
   57.7990   26.4540   44.6420 C   0  0  0  0  0  0  0  0  0  0  0  0
   57.2410   25.5770   45.6830 C   0  0  0  0  0  0  0  0  0  0  0  0
   57.9150   24.5830   46.2930 N   0  0  0  0  0  0  0  0  0  0  0  0
   57.0550   24.1640   47.2470 C   0  0  0  0  0  0  0  0  0  0  0  0
   57.3240   23.2170   48.0320 O   0  0  0  0  0  0  0  0  0  0  0  0
   55.8920   24.8450   47.3010 N   0  0  0  0  0  0  0  0  0  0  0  0
   56.0320   25.7450   46.3130 C   0  0  0  0  0  0  0  0  0  0  0  0
   55.0780   26.7030   45.9980 O   0  0  0  0  0  0  0  0  0  0  0  0
   57.3740   28.5880   43.6320 C   0  0  0  0  0  0  0  0  0  0  0  0
   57.4610   29.8990   44.0520 C   0  0  0  0  0  0  0  0  0  0  0  0
   57.0440   31.0840   43.2340 C   0  0  0  0  0  0  0  0  0  0  0  0
   57.9760   29.9610   45.3000 N   0  0  0  0  0  0  0  0  0  0  0  0
   58.2170   31.1700   46.0430 C   0  0  0  0  0  0  0  0  0  0  0  0
   57.3650   32.0980   46.0180 O   0  0  0  0  0  0  0  0  0  0  0  0
   59.4030   31.3020   46.8380 N   0  0  0  0  0  0  0  0  0  0  0  0
   59.6830   32.4930   47.6380 C   0  0  0  0  0  0  0  0  0  0  0  0
   61.1650   32.7490   47.6870 C   0  0  0  0  0  0  0  0  0  0  0  0
   61.9440   32.1680   48.6980 C   0  0  0  0  0  0  0  0  0  0  0  0
   63.3150   32.4330   48.7490 C   0  0  0  0  0  0  0  0  0  0  0  0
   63.8850   33.2530   47.8260 N   0  0  0  0  0  0  0  0  0  0  0  0
   63.1530   33.8350   46.8390 C   0  0  0  0  0  0  0  0  0  0  0  0
   63.7170   34.5900   46.0050 O   0  0  0  0  0  0  0  0  0  0  0  0
   61.7780   33.5950   46.7510 C   0  0  0  0  0  0  0  0  0  0  0  0
   59.2491   29.1666   47.4860 H   0  0  0  0  0  0  0  0  0  0  0  0
   59.3112   27.3454   46.9299 H   0  0  0  0  0  0  0  0  0  0  0  0
   58.2360   25.9684   43.7570 H   0  0  0  0  0  0  0  0  0  0  0  0
   57.0177   28.2360   42.6527 H   0  0  0  0  0  0  0  0  0  0  0  0
   56.7542   31.9077   43.9030 H   0  0  0  0  0  0  0  0  0  0  0  0
   57.8831   31.4051   42.5994 H   0  0  0  0  0  0  0  0  0  0  0  0
   56.1887   30.8088   42.5994 H   0  0  0  0  0  0  0  0  0  0  0  0
   60.0730   30.5020   46.8890 H   0  0  0  0  0  0  0  0  0  0  0  0
   59.1791   33.3605   47.1869 H   0  0  0  0  0  0  0  0  0  0  0  0
   59.3121   32.3336   48.6612 H   0  0  0  0  0  0  0  0  0  0  0  0
   61.4791   31.5084   49.4455 H   0  0  0  0  0  0  0  0  0  0  0  0
   63.9337   31.9779   49.5364 H   0  0  0  0  0  0  0  0  0  0  0  0
   61.1825   34.0655   45.9548 H   0  0  0  0  0  0  0  0  0  0  0  0
  1  2  2  0
  2  3  1  0
  3  4  2  3
  4  5  1  0
  5  6  1  0
  6  7  1  0
  7  8  2  0
  7  9  1  0
  9 10  1  0
 10 11  1  0
  3 12  1  0
 12 13  2  0
 13 14  1  0
 13 15  1  0
 15 16  1  0
 16 17  2  0
 16 18  1  0
 18 19  1  0
 19 20  1  0
 20 21  1  0
 21 22  2  0
 22 23  1  0
 23 24  1  0
 24 25  2  0
 24 26  1  0
 15  2  1  0
 26 20  2  0
 10  5  2  0
  1 27  1  0
  1 28  1  0
  4 29  1  0
 12 30  1  0
 14 31  1  0
 14 32  1  0
 14 33  1  0
 18 34  1  0
 19 35  1  0
 19 36  1  0
 21 37  1  0
 22 38  1  0
 26 39  1  0
M  CHG  4   6  -1   9  -1  11  -1  23  -1
M  END
>  <UniqueID>  (63) 
60

>  <SMILES>  (63) 
C=c1c(=Cc2[n-]c(=O)[n-]c2[O-])cc(C)n1C(=O)NCc1cc[n-]c(=O)c1

>  <Energy>  (63) 
112.70768319991184

>  <Genealogy>  (63) 
C=c1c(=Cc2[n-]c(=O)[n-]c2[O-])cc(C)n1C(=O)NCc1cc[n-]c(=O)c1 (protonated)
C=c1c(=Cc2[n-]c(=O)[n-]c2[O-])cc(C)n1C(=O)NCc1cc[n-]c(=O)c1 (3D coordinates assigned)
C=c1c(=Cc2[n-]c(=O)[n-]c2[O-])cc(C)n1C(=O)NCc1cc[n-]c(=O)c1 (optimized conformer: 112.70768319991184 kcal/mol)

>  <smiles>  (63) 
C=c1c(=Cc2[nH]c(=O)[nH]c2O)cc(C)n1C(=O)NCc1cc[nH]c(=O)c1

>  <score_type>  (63) 
oracle

>  <origin>  (63) 
adg

>  <m_score__min__energy>  (63) 
-16.390000000000001

>  <m_primary>  (63) 
energy

$$$$
63:0
     RDKit          3D

 58 61  0  0  0  0  0  0  0  0999 V2000
   59.7070   25.8130   46.3370 C   0  0  0  0  0  0  0  0  0  0  0  0
   58.9620   26.9860   45.7590 C   0  0  0  0  0  0  0  0  0  0  0  0
   58.4700   26.9140   44.4470 C   0  0  0  0  0  0  0  0  0  0  0  0
   57.7610   27.9830   43.8950 C   0  0  0  0  0  0  0  0  0  0  0  0
   57.5270   29.1430   44.6460 C   0  0  0  0  0  0  0  0  0  0  0  0
   56.7220   30.2560   44.0930 C   0  0  0  0  0  0  0  0  0  0  0  0
   56.2420   30.1470   42.9340 O   0  0  0  0  0  0  0  0  0  0  0  0
   56.4310   31.4420   44.8490 N   0  0  0  0  0  0  0  0  0  0  0  0
   57.3660   32.4470   45.2750 C   0  0  0  0  0  0  0  0  0  0  0  0
   57.5290   33.5910   44.4840 C   0  0  0  0  0  0  0  0  0  0  0  0
   58.4190   34.5940   44.8710 C   0  0  0  0  0  0  0  0  0  0  0  0
   59.1550   34.4650   46.0520 C   0  0  0  0  0  0  0  0  0  0  0  0
   59.0230   33.3150   46.8460 C   0  0  0  0  0  0  0  0  0  0  0  0
   59.7480   33.2000   48.1310 C   0  0  0  0  0  0  0  0  0  0  0  0
   59.0960   32.9900   49.1920 O   0  0  0  0  0  0  0  0  0  0  0  0
   61.1760   33.3360   48.2020 N   0  0  0  0  0  0  0  0  0  0  0  0
   61.7890   34.2280   49.1870 C   0  0  0  0  0  0  0  0  0  0  0  0
   63.0570   33.5800   49.7500 C   0  0  0  0  0  0  0  0  0  0  0  0
   63.9130   33.1560   48.7050 O   0  0  0  0  0  0  0  0  0  0  0  0
   63.2880   32.1350   47.9530 C   0  0  0  0  0  0  0  0  0  0  0  0
   62.0500   32.6740   47.2320 C   0  0  0  0  0  0  0  0  0  0  0  0
   58.1410   32.2990   46.4410 C   0  0  0  0  0  0  0  0  0  0  0  0
   58.0320   29.2270   45.9530 C   0  0  0  0  0  0  0  0  0  0  0  0
   58.7190   28.1490   46.5240 C   0  0  0  0  0  0  0  0  0  0  0  0
   59.1590   28.2490   47.8840 N   0  0  0  0  0  0  0  0  0  0  0  0
   60.1420   29.2080   48.2890 C   0  0  0  0  0  0  0  0  0  0  0  0
   60.5990   30.0370   47.4570 O   0  0  0  0  0  0  0  0  0  0  0  0
   60.5770   29.2320   49.6540 N   0  0  0  0  0  0  0  0  0  0  0  0
   60.3080   30.2600   50.6190 C   0  0  0  0  0  0  0  0  0  0  0  0
   61.3370   30.9430   51.2940 C   0  0  0  0  0  0  0  0  0  0  0  0
   61.0270   31.9310   52.2320 C   0  0  0  0  0  0  0  0  0  0  0  0
   59.6920   32.2420   52.5090 C   0  0  0  0  0  0  0  0  0  0  0  0
   58.6660   31.5420   51.8680 C   0  0  0  0  0  0  0  0  0  0  0  0
   56.9920   31.9140   52.2330 Cl  0  0  0  0  0  0  0  0  0  0  0  0
   58.9740   30.5470   50.9340 C   0  0  0  0  0  0  0  0  0  0  0  0
   59.6750   25.8634   47.4354 H   0  0  0  0  0  0  0  0  0  0  0  0
   59.2371   24.8776   45.9990 H   0  0  0  0  0  0  0  0  0  0  0  0
   60.7534   25.8406   45.9990 H   0  0  0  0  0  0  0  0  0  0  0  0
   58.6442   26.0079   43.8482 H   0  0  0  0  0  0  0  0  0  0  0  0
   57.3837   27.9142   42.8640 H   0  0  0  0  0  0  0  0  0  0  0  0
   56.9529   33.6996   43.5533 H   0  0  0  0  0  0  0  0  0  0  0  0
   58.5416   35.4895   44.2440 H   0  0  0  0  0  0  0  0  0  0  0  0
   59.8406   35.2680   46.3606 H   0  0  0  0  0  0  0  0  0  0  0  0
   62.0488   35.1820   48.7049 H   0  0  0  0  0  0  0  0  0  0  0  0
   61.0780   34.4103   50.0063 H   0  0  0  0  0  0  0  0  0  0  0  0
   63.5881   34.3119   50.3763 H   0  0  0  0  0  0  0  0  0  0  0  0
   62.7685   32.7021   50.3467 H   0  0  0  0  0  0  0  0  0  0  0  0
   63.9994   31.7480   47.2086 H   0  0  0  0  0  0  0  0  0  0  0  0
   62.9768   31.3320   48.6374 H   0  0  0  0  0  0  0  0  0  0  0  0
   62.3585   33.3965   46.4621 H   0  0  0  0  0  0  0  0  0  0  0  0
   61.5095   31.8427   46.7557 H   0  0  0  0  0  0  0  0  0  0  0  0
   58.0553   31.3803   47.0399 H   0  0  0  0  0  0  0  0  0  0  0  0
   57.8865   30.1493   46.5346 H   0  0  0  0  0  0  0  0  0  0  0  0
   58.9210   27.4730   48.5420 H   0  0  0  0  0  0  0  0  0  0  0  0
   62.3883   30.6982   51.0824 H   0  0  0  0  0  0  0  0  0  0  0  0
   61.8347   32.4653   52.7537 H   0  0  0  0  0  0  0  0  0  0  0  0
   59.4497   33.0364   53.2303 H   0  0  0  0  0  0  0  0  0  0  0  0
   58.1638   29.9869   50.4443 H   0  0  0  0  0  0  0  0  0  0  0  0
  1  2  1  0
  2  3  2  0
  3  4  1  0
  4  5  2  0
  5  6  1  0
  6  7  2  0
  6  8  1  0
  8  9  1  0
  9 10  2  0
 10 11  1  0
 11 12  2  0
 12 13  1  0
 13 14  1  0
 14 15  2  0
 14 16  1  0
 16 17  1  0
 17 18  1  0
 18 19  1  0
 19 20  1  0
 20 21  1  0
 13 22  2  0
  5 23  1  0
 23 24  2  0
 24 25  1  0
 25 26  1  0
 26 27  2  0
 26 28  1  0
 28 29  1  0
 29 30  2  0
 30 31  1  0
 31 32  2  0
 32 33  1  0
 33 34  1  0
 33 35  2  0
 24  2  1  0
 35 29  1  0
 22  9  1  0
 21 16  1  0
  1 36  1  0
  1 37  1  0
  1 38  1  0
  3 39  1  0
  4 40  1  0
 10 41  1  0
 11 42  1  0
 12 43  1  0
 17 44  1  0
 17 45  1  0
 18 46  1  0
 18 47  1  0
 20 48  1  0
 20 49  1  0
 21 50  1  0
 21 51  1  0
 22 52  1  0
 23 53  1  0
 25 54  1  0
 30 55  1  0
 31 56  1  0
 32 57  1  0
 35 58  1  0
M  CHG  2   8  -1  28  -1
M  END
>  <UniqueID>  (64) 
61

>  <SMILES>  (64) 
Cc1ccc(C(=O)[N-]c2cccc(C(=O)N3CCOCC3)c2)cc1NC(=O)[N-]c1cccc(Cl)c1

>  <Energy>  (64) 
84.22808673314016

>  <Genealogy>  (64) 
Cc1ccc(C(=O)[N-]c2cccc(C(=O)N3CCOCC3)c2)cc1NC(=O)[N-]c1cccc(Cl)c1 (protonated)
Cc1ccc(C(=O)[N-]c2cccc(C(=O)N3CCOCC3)c2)cc1NC(=O)[N-]c1cccc(Cl)c1 (3D coordinates assigned)
Cc1ccc(C(=O)[N-]c2cccc(C(=O)N3CCOCC3)c2)cc1NC(=O)[N-]c1cccc(Cl)c1 (nonaromatic ring conformer: 84.22808673314016 kcal/mol)

>  <smiles>  (64) 
Cc1ccc(C(=O)Nc2cccc(C(=O)N3CCOCC3)c2)cc1NC(=O)Nc1cccc(Cl)c1

>  <score_type>  (64) 
oracle

>  <origin>  (64) 
adg

>  <m_score__min__energy>  (64) 
-14.109999999999999

>  <m_primary>  (64) 
energy

$$$$
64:0
     RDKit          3D

 56 59  0  0  0  0  0  0  0  0999 V2000
   66.8730   35.8310   52.4300 C   0  0  0  0  0  0  0  0  0  0  0  0
   66.5380   34.6050   51.6440 C   0  0  0  0  0  0  0  0  0  0  0  0
   67.5440   33.8740   51.0020 C   0  0  0  0  0  0  0  0  0  0  0  0
   67.1990   32.7560   50.2430 C   0  0  0  0  0  0  0  0  0  0  0  0
   65.8600   32.3790   50.1280 C   0  0  0  0  0  0  0  0  0  0  0  0
   64.8710   33.1270   50.7880 C   0  0  0  0  0  0  0  0  0  0  0  0
   63.4770   32.7940   50.6640 N   0  0  0  0  0  0  0  0  0  0  0  0
   63.0240   31.6740   49.8240 C   0  0  0  0  0  0  0  0  0  0  0  0
   61.8550   32.1280   48.9460 C   0  0  0  0  0  0  0  0  0  0  0  0
   60.8880   32.9390   49.7080 N   0  0  0  0  0  0  0  0  0  0  0  0
   59.9460   33.7670   49.0020 C   0  0  0  0  0  0  0  0  0  0  0  0
   59.7620   34.9570   49.3720 O   0  0  0  0  0  0  0  0  0  0  0  0
   59.2050   33.2630   47.8350 C   0  0  0  0  0  0  0  0  0  0  0  0
   58.6260   34.0280   46.8290 C   0  0  0  0  0  0  0  0  0  0  0  0
   58.0260   33.2620   45.8150 C   0  0  0  0  0  0  0  0  0  0  0  0
   57.4000   33.8990   44.6110 C   0  0  0  0  0  0  0  0  0  0  0  0
   58.1150   31.8810   46.0430 C   0  0  0  0  0  0  0  0  0  0  0  0
   57.5980   30.7760   45.2150 C   0  0  0  0  0  0  0  0  0  0  0  0
   56.5800   30.9790   44.5010 O   0  0  0  0  0  0  0  0  0  0  0  0
   58.2630   29.5050   45.1640 N   0  0  0  0  0  0  0  0  0  0  0  0
   57.7920   28.4090   44.3220 C   0  0  0  0  0  0  0  0  0  0  0  0
   58.2200   27.0970   44.9110 C   0  0  0  0  0  0  0  0  0  0  0  0
   57.6410   25.8940   44.4850 C   0  0  0  0  0  0  0  0  0  0  0  0
   58.0980   24.6880   45.0210 C   0  0  0  0  0  0  0  0  0  0  0  0
   59.1260   24.6920   45.9670 C   0  0  0  0  0  0  0  0  0  0  0  0
   59.6850   25.9080   46.3610 C   0  0  0  0  0  0  0  0  0  0  0  0
   59.2290   27.0730   45.8260 N   0  0  0  0  0  0  0  0  0  0  0  0
   58.9880   31.6400   47.4630 S   0  0  0  0  0  0  0  0  0  0  0  0
   61.0610   33.0950   51.1580 C   0  0  0  0  0  0  0  0  0  0  0  0
   62.4950   33.5410   51.4670 C   0  0  0  0  0  0  0  0  0  0  0  0
   65.2400   34.2230   51.5090 N   0  0  0  0  0  0  0  0  0  0  0  0
   66.8114   35.6056   53.5049 H   0  0  0  0  0  0  0  0  0  0  0  0
   67.8935   36.1582   52.1818 H   0  0  0  0  0  0  0  0  0  0  0  0
   66.1607   36.6317   52.1818 H   0  0  0  0  0  0  0  0  0  0  0  0
   68.5969   34.1784   51.0952 H   0  0  0  0  0  0  0  0  0  0  0  0
   67.9811   32.1721   49.7357 H   0  0  0  0  0  0  0  0  0  0  0  0
   65.5812   31.5024   49.5248 H   0  0  0  0  0  0  0  0  0  0  0  0
   63.8532   31.3381   49.1840 H   0  0  0  0  0  0  0  0  0  0  0  0
   62.6956   30.8450   50.4681 H   0  0  0  0  0  0  0  0  0  0  0  0
   62.2469   32.7293   48.1124 H   0  0  0  0  0  0  0  0  0  0  0  0
   61.3358   31.2325   48.5738 H   0  0  0  0  0  0  0  0  0  0  0  0
   58.6365   35.1279   46.8269 H   0  0  0  0  0  0  0  0  0  0  0  0
   56.6631   34.6489   44.9344 H   0  0  0  0  0  0  0  0  0  0  0  0
   58.1794   34.3873   44.0076 H   0  0  0  0  0  0  0  0  0  0  0  0
   56.8982   33.1282   44.0076 H   0  0  0  0  0  0  0  0  0  0  0  0
   59.2090   29.4020   45.5950 H   0  0  0  0  0  0  0  0  0  0  0  0
   56.6942   28.4412   44.2606 H   0  0  0  0  0  0  0  0  0  0  0  0
   58.2222   28.5132   43.3150 H   0  0  0  0  0  0  0  0  0  0  0  0
   56.8351   25.8995   43.7364 H   0  0  0  0  0  0  0  0  0  0  0  0
   57.6493   23.7367   44.6989 H   0  0  0  0  0  0  0  0  0  0  0  0
   59.4905   23.7471   46.3963 H   0  0  0  0  0  0  0  0  0  0  0  0
   60.4952   25.9250   47.1049 H   0  0  0  0  0  0  0  0  0  0  0  0
   60.3552   33.8522   51.5302 H   0  0  0  0  0  0  0  0  0  0  0  0
   60.8669   32.1314   51.6518 H   0  0  0  0  0  0  0  0  0  0  0  0
   62.5919   34.6136   51.2430 H   0  0  0  0  0  0  0  0  0  0  0  0
   62.6965   33.3433   52.5302 H   0  0  0  0  0  0  0  0  0  0  0  0
  1  2  1  0
  2  3  2  0
  3  4  1  0
  4  5  2  0
  5  6  1  0
  6  7  1  0
  7  8  1  0
  8  9  1  0
  9 10  1  0
 10 11  1  0
 11 12  2  0
 11 13  1  0
 13 14  2  0
 14 15  1  0
 15 16  1  0
 15 17  2  0
 17 18  1  0
 18 19  2  0
 18 20  1  0
 20 21  1  0
 21 22  1  0
 22 23  2  0
 23 24  1  0
 24 25  2  0
 25 26  1  0
 26 27  2  0
 17 28  1  0
 10 29  1  0
 29 30  1  0
  6 31  2  0
 31  2  1  0
 30  7  1  0
 28 13  1  0
 27 22  1  0
  1 32  1  0
  1 33  1  0
  1 34  1  0
  3 35  1  0
  4 36  1  0
  5 37  1  0
  8 38  1  0
  8 39  1  0
  9 40  1  0
  9 41  1  0
 14 42  1  0
 16 43  1  0
 16 44  1  0
 16 45  1  0
 20 46  1  0
 21 47  1  0
 21 48  1  0
 23 49  1  0
 24 50  1  0
 25 51  1  0
 26 52  1  0
 29 53  1  0
 29 54  1  0
 30 55  1  0
 30 56  1  0
M  END
>  <UniqueID>  (65) 
62

>  <SMILES>  (65) 
Cc1cccc(N2CCN(C(=O)c3cc(C)c(C(=O)NCc4ccccn4)s3)CC2)n1

>  <Energy>  (65) 
92.8404035052711

>  <Genealogy>  (65) 
Cc1cccc(N2CCN(C(=O)c3cc(C)c(C(=O)NCc4ccccn4)s3)CC2)n1 (3D coordinates assigned)
Cc1cccc(N2CCN(C(=O)c3cc(C)c(C(=O)NCc4ccccn4)s3)CC2)n1 (nonaromatic ring conformer: 92.8404035052711 kcal/mol)

>  <smiles>  (65) 
Cc1cccc(N2CCN(C(=O)c3cc(C)c(C(=O)NCc4ccccn4)s3)CC2)n1

>  <score_type>  (65) 
oracle

>  <origin>  (65) 
adg

>  <m_score__min__energy>  (65) 
-8.6999999999999993

>  <m_primary>  (65) 
energy

$$$$
65:0
     RDKit          3D

 34 35  0  0  0  0  0  0  0  0999 V2000
   55.4260   30.4400   44.4800 O   0  0  0  0  0  0  0  0  0  0  0  0
   56.6330   30.8040   44.4960 C   0  0  0  0  0  0  0  0  0  0  0  0
   56.9790   32.1680   44.7610 N   0  0  0  0  0  0  0  0  0  0  0  0
   58.1460   32.6360   45.4540 C   0  0  0  0  0  0  0  0  0  0  0  0
   58.9220   31.7900   46.2660 C   0  0  0  0  0  0  0  0  0  0  0  0
   60.0650   32.2800   46.9060 C   0  0  0  0  0  0  0  0  0  0  0  0
   60.4580   33.6210   46.7330 C   0  0  0  0  0  0  0  0  0  0  0  0
   61.5930   34.1660   47.3540 O   0  0  0  0  0  0  0  0  0  0  0  0
   62.9330   33.7190   47.1580 C   0  0  0  0  0  0  0  0  0  0  0  0
   63.7400   34.1670   48.1890 F   0  0  0  0  0  0  0  0  0  0  0  0
   62.9710   32.3370   47.0970 F   0  0  0  0  0  0  0  0  0  0  0  0
   63.4070   34.2310   45.9660 F   0  0  0  0  0  0  0  0  0  0  0  0
   59.6940   34.4510   45.9050 C   0  0  0  0  0  0  0  0  0  0  0  0
   58.5530   33.9600   45.2640 C   0  0  0  0  0  0  0  0  0  0  0  0
   57.6720   29.8640   44.2000 N   0  0  0  0  0  0  0  0  0  0  0  0
   57.4030   28.4650   43.8750 C   0  0  0  0  0  0  0  0  0  0  0  0
   57.8250   27.5720   45.0150 C   0  0  0  0  0  0  0  0  0  0  0  0
   59.1940   27.3530   45.2440 C   0  0  0  0  0  0  0  0  0  0  0  0
   59.6130   26.5200   46.2840 C   0  0  0  0  0  0  0  0  0  0  0  0
   58.6710   25.8950   47.1030 C   0  0  0  0  0  0  0  0  0  0  0  0
   57.3070   26.1020   46.8830 C   0  0  0  0  0  0  0  0  0  0  0  0
   56.8790   26.9360   45.8450 C   0  0  0  0  0  0  0  0  0  0  0  0
   55.5150   27.1250   45.6480 O   0  0  0  0  0  0  0  0  0  0  0  0
   58.6288   30.7381   46.3985 H   0  0  0  0  0  0  0  0  0  0  0  0
   60.6602   31.6141   47.5481 H   0  0  0  0  0  0  0  0  0  0  0  0
   59.9940   35.4990   45.7573 H   0  0  0  0  0  0  0  0  0  0  0  0
   57.9707   34.6206   44.6048 H   0  0  0  0  0  0  0  0  0  0  0  0
   58.6650   30.1880   44.2310 H   0  0  0  0  0  0  0  0  0  0  0  0
   56.3260   28.3356   43.6922 H   0  0  0  0  0  0  0  0  0  0  0  0
   57.9737   28.1906   42.9755 H   0  0  0  0  0  0  0  0  0  0  0  0
   59.9406   27.8408   44.6000 H   0  0  0  0  0  0  0  0  0  0  0  0
   60.6868   26.3563   46.4579 H   0  0  0  0  0  0  0  0  0  0  0  0
   59.0027   25.2395   47.9217 H   0  0  0  0  0  0  0  0  0  0  0  0
   56.5667   25.6071   47.5287 H   0  0  0  0  0  0  0  0  0  0  0  0
  1  2  2  0
  2  3  1  0
  3  4  1  0
  4  5  2  0
  5  6  1  0
  6  7  2  0
  7  8  1  0
  8  9  1  0
  9 10  1  0
  9 11  1  0
  9 12  1  0
  7 13  1  0
 13 14  2  0
  2 15  1  0
 15 16  1  0
 16 17  1  0
 17 18  2  0
 18 19  1  0
 19 20  2  0
 20 21  1  0
 21 22  2  0
 22 23  1  0
 14  4  1  0
 22 17  1  0
  5 24  1  0
  6 25  1  0
 13 26  1  0
 14 27  1  0
 15 28  1  0
 16 29  1  0
 16 30  1  0
 18 31  1  0
 19 32  1  0
 20 33  1  0
 21 34  1  0
M  CHG  2   3  -1  23  -1
M  END
>  <UniqueID>  (66) 
63

>  <SMILES>  (66) 
O=C([N-]c1ccc(OC(F)(F)F)cc1)NCc1ccccc1[O-]

>  <Energy>  (66) 
36.37455008226819

>  <Genealogy>  (66) 
O=C([N-]c1ccc(OC(F)(F)F)cc1)NCc1ccccc1[O-] (protonated)
O=C([N-]c1ccc(OC(F)(F)F)cc1)NCc1ccccc1[O-] (3D coordinates assigned)
O=C([N-]c1ccc(OC(F)(F)F)cc1)NCc1ccccc1[O-] (optimized conformer: 36.37455008226819 kcal/mol)

>  <smiles>  (66) 
O=C(NCc1ccccc1O)Nc1ccc(OC(F)(F)F)cc1

>  <score_type>  (66) 
oracle

>  <origin>  (66) 
adg

>  <m_score__min__energy>  (66) 
-12.06

>  <m_primary>  (66) 
energy

$$$$
66:0
     RDKit          3D

 62 65  0  0  0  0  0  0  0  0999 V2000
   51.8720   23.7320   44.3760 C   0  0  0  0  0  0  0  0  0  0  0  0
   53.0740   23.0790   44.9240 N   0  0  0  0  0  0  0  0  0  0  0  0
   53.1770   23.3390   46.3800 C   0  0  0  0  0  0  0  0  0  0  0  0
   54.5990   23.1250   46.9070 C   0  0  0  0  0  0  0  0  0  0  0  0
   55.5400   23.9850   46.1830 N   0  0  0  0  0  0  0  0  0  0  0  0
   56.8540   24.2140   46.7290 C   0  0  0  0  0  0  0  0  0  0  0  0
   57.3740   23.3410   47.4760 O   0  0  0  0  0  0  0  0  0  0  0  0
   57.6090   25.4570   46.4460 C   0  0  0  0  0  0  0  0  0  0  0  0
   59.0120   25.4440   46.3740 C   0  0  0  0  0  0  0  0  0  0  0  0
   59.7140   26.6130   46.0770 C   0  0  0  0  0  0  0  0  0  0  0  0
   59.0260   27.8050   45.8440 C   0  0  0  0  0  0  0  0  0  0  0  0
   57.6230   27.8370   45.9130 C   0  0  0  0  0  0  0  0  0  0  0  0
   56.8850   29.0320   45.6250 N   0  0  0  0  0  0  0  0  0  0  0  0
   57.4200   30.3600   45.6140 C   0  0  0  0  0  0  0  0  0  0  0  0
   56.9960   31.1750   44.7530 O   0  0  0  0  0  0  0  0  0  0  0  0
   58.4030   30.7630   46.5860 N   0  0  0  0  0  0  0  0  0  0  0  0
   59.0750   32.0340   46.5780 C   0  0  0  0  0  0  0  0  0  0  0  0
   58.3320   33.1980   46.3350 C   0  0  0  0  0  0  0  0  0  0  0  0
   58.9590   34.4470   46.3190 C   0  0  0  0  0  0  0  0  0  0  0  0
   60.3360   34.5450   46.5350 C   0  0  0  0  0  0  0  0  0  0  0  0
   61.0940   33.3890   46.7550 C   0  0  0  0  0  0  0  0  0  0  0  0
   62.8340   33.4930   47.0220 S   0  0  0  0  0  0  0  0  0  0  0  0
   63.4460   34.4560   46.0420 O   0  0  0  0  0  0  0  0  0  0  0  0
   63.4250   32.1300   46.7940 O   0  0  0  0  0  0  0  0  0  0  0  0
   63.1690   34.0080   48.6630 N   0  0  0  0  0  0  0  0  0  0  0  0
   64.1200   33.1090   49.3420 C   0  0  0  0  0  0  0  0  0  0  0  0
   63.4690   31.7700   49.7650 C   0  0  0  0  0  0  0  0  0  0  0  0
   62.0520   31.8090   49.7810 O   0  0  0  0  0  0  0  0  0  0  0  0
   61.6060   33.0110   50.3650 C   0  0  0  0  0  0  0  0  0  0  0  0
   61.9270   34.2050   49.4450 C   0  0  0  0  0  0  0  0  0  0  0  0
   60.4670   32.1360   46.7590 C   0  0  0  0  0  0  0  0  0  0  0  0
   56.9220   26.6560   46.1890 C   0  0  0  0  0  0  0  0  0  0  0  0
   55.1790   24.4670   44.8420 C   0  0  0  0  0  0  0  0  0  0  0  0
   54.2880   23.4340   44.1400 C   0  0  0  0  0  0  0  0  0  0  0  0
   51.2340   24.0786   45.2024 H   0  0  0  0  0  0  0  0  0  0  0  0
   52.1711   24.5916   43.7583 H   0  0  0  0  0  0  0  0  0  0  0  0
   51.3136   23.0132   43.7583 H   0  0  0  0  0  0  0  0  0  0  0  0
   52.8796   24.3798   46.5759 H   0  0  0  0  0  0  0  0  0  0  0  0
   52.5149   22.6291   46.8973 H   0  0  0  0  0  0  0  0  0  0  0  0
   54.6308   23.3721   47.9784 H   0  0  0  0  0  0  0  0  0  0  0  0
   54.8840   22.0733   46.7565 H   0  0  0  0  0  0  0  0  0  0  0  0
   59.5602   24.5072   46.5527 H   0  0  0  0  0  0  0  0  0  0  0  0
   60.8127   26.5950   46.0264 H   0  0  0  0  0  0  0  0  0  0  0  0
   59.5841   28.7224   45.6056 H   0  0  0  0  0  0  0  0  0  0  0  0
   58.7260   30.0550   47.2830 H   0  0  0  0  0  0  0  0  0  0  0  0
   57.2490   33.1277   46.1559 H   0  0  0  0  0  0  0  0  0  0  0  0
   58.3667   35.3556   46.1358 H   0  0  0  0  0  0  0  0  0  0  0  0
   60.8244   35.5306   46.5322 H   0  0  0  0  0  0  0  0  0  0  0  0
   64.9540   32.8953   48.6574 H   0  0  0  0  0  0  0  0  0  0  0  0
   64.4666   33.6159   50.2547 H   0  0  0  0  0  0  0  0  0  0  0  0
   63.7876   30.9896   49.0583 H   0  0  0  0  0  0  0  0  0  0  0  0
   63.7980   31.5617   50.7938 H   0  0  0  0  0  0  0  0  0  0  0  0
   60.5187   32.9563   50.5222 H   0  0  0  0  0  0  0  0  0  0  0  0
   62.1196   33.1530   51.3273 H   0  0  0  0  0  0  0  0  0  0  0  0
   61.0896   34.3451   48.7456 H   0  0  0  0  0  0  0  0  0  0  0  0
   62.0749   35.0869   50.0856 H   0  0  0  0  0  0  0  0  0  0  0  0
   61.0669   31.2256   46.9046 H   0  0  0  0  0  0  0  0  0  0  0  0
   55.8222   26.6671   46.2048 H   0  0  0  0  0  0  0  0  0  0  0  0
   54.6345   25.4187   44.9305 H   0  0  0  0  0  0  0  0  0  0  0  0
   56.0949   24.6171   44.2516 H   0  0  0  0  0  0  0  0  0  0  0  0
   53.9703   23.8469   43.1712 H   0  0  0  0  0  0  0  0  0  0  0  0
   54.8819   22.5156   44.0225 H   0  0  0  0  0  0  0  0  0  0  0  0
  1  2  1  0
  2  3  1  0
  3  4  1  0
  4  5  1  0
  5  6  1  0
  6  7  2  0
  6  8  1  0
  8  9  2  0
  9 10  1  0
 10 11  2  0
 11 12  1  0
 12 13  1  0
 13 14  1  0
 14 15  2  0
 14 16  1  0
 16 17  1  0
 17 18  2  0
 18 19  1  0
 19 20  2  0
 20 21  1  0
 21 22  1  0
 22 23  2  0
 22 24  2  0
 22 25  1  0
 25 26  1  0
 26 27  1  0
 27 28  1  0
 28 29  1  0
 29 30  1  0
 21 31  2  0
 12 32  2  0
  5 33  1  0
 33 34  1  0
 34  2  1  0
 32  8  1  0
 31 17  1  0
 30 25  1  0
  1 35  1  0
  1 36  1  0
  1 37  1  0
  3 38  1  0
  3 39  1  0
  4 40  1  0
  4 41  1  0
  9 42  1  0
 10 43  1  0
 11 44  1  0
 16 45  1  0
 18 46  1  0
 19 47  1  0
 20 48  1  0
 26 49  1  0
 26 50  1  0
 27 51  1  0
 27 52  1  0
 29 53  1  0
 29 54  1  0
 30 55  1  0
 30 56  1  0
 31 57  1  0
 32 58  1  0
 33 59  1  0
 33 60  1  0
 34 61  1  0
 34 62  1  0
M  CHG  1  13  -1
M  END
>  <UniqueID>  (67) 
64

>  <SMILES>  (67) 
CN1CCN(C(=O)c2cccc([N-]C(=O)Nc3cccc(S(=O)(=O)N4CCOCC4)c3)c2)CC1

>  <Energy>  (67) 
94.1108858918024

>  <Genealogy>  (67) 
CN1CCN(C(=O)c2cccc([N-]C(=O)Nc3cccc(S(=O)(=O)N4CCOCC4)c3)c2)CC1 (protonated)
CN1CCN(C(=O)c2cccc([N-]C(=O)Nc3cccc(S(=O)(=O)N4CCOCC4)c3)c2)CC1 (3D coordinates assigned)
CN1CCN(C(=O)c2cccc([N-]C(=O)Nc3cccc(S(=O)(=O)N4CCOCC4)c3)c2)CC1 (nonaromatic ring conformer: 94.1108858918024 kcal/mol)

>  <smiles>  (67) 
CN1CCN(C(=O)c2cccc(NC(=O)Nc3cccc(S(=O)(=O)N4CCOCC4)c3)c2)CC1

>  <score_type>  (67) 
oracle

>  <origin>  (67) 
adg

>  <m_score__min__energy>  (67) 
-12.15

>  <m_primary>  (67) 
energy

$$$$
67:0
     RDKit          3D

 68 72  0  0  0  0  0  0  0  0999 V2000
   61.5550   31.1027   51.0705 H   0  0  0  0  0  0  0  0  0  0  0  0
   60.8790   30.4830   50.4630 C   0  0  0  0  0  0  0  0  0  0  0  0
   61.3250   29.4680   49.6750 N   0  0  0  0  0  0  0  0  0  0  0  0
   60.3100   28.8500   49.0290 C   0  0  0  0  0  0  0  0  0  0  0  0
   60.5220   27.8600   48.2100 N   0  0  0  0  0  0  0  0  0  0  0  0
   59.9030   27.6130   46.9330 C   0  0  0  0  0  0  0  0  0  0  0  0
   60.4860   28.0110   45.8900 O   0  0  0  0  0  0  0  0  0  0  0  0
   58.6290   26.8820   46.7940 C   0  0  0  0  0  0  0  0  0  0  0  0
   58.5190   25.6210   47.4020 C   0  0  0  0  0  0  0  0  0  0  0  0
   59.3597   25.2225   47.9889 H   0  0  0  0  0  0  0  0  0  0  0  0
   57.3510   24.8700   47.2670 C   0  0  0  0  0  0  0  0  0  0  0  0
   57.2784   23.8787   47.7382 H   0  0  0  0  0  0  0  0  0  0  0  0
   56.2740   25.3740   46.5350 C   0  0  0  0  0  0  0  0  0  0  0  0
   55.3601   24.7735   46.4161 H   0  0  0  0  0  0  0  0  0  0  0  0
   56.3580   26.6390   45.9550 C   0  0  0  0  0  0  0  0  0  0  0  0
   55.4994   27.0378   45.3949 H   0  0  0  0  0  0  0  0  0  0  0  0
   57.5260   27.4110   46.0770 C   0  0  0  0  0  0  0  0  0  0  0  0
   57.5180   29.0640   45.4400 S   0  0  0  0  0  0  0  0  0  0  0  0
   56.1120   29.5220   45.1850 O   0  0  0  0  0  0  0  0  0  0  0  0
   58.2600   29.1350   44.1360 O   0  0  0  0  0  0  0  0  0  0  0  0
   58.2340   30.1190   46.6150 N   0  0  0  0  0  0  0  0  0  0  0  0
   59.2560   31.0760   46.3250 C   0  0  0  0  0  0  0  0  0  0  0  0
   60.4690   30.7750   46.4940 O   0  0  0  0  0  0  0  0  0  0  0  0
   58.8970   32.4460   45.8800 C   0  0  0  0  0  0  0  0  0  0  0  0
   57.7420   32.6080   45.0910 C   0  0  0  0  0  0  0  0  0  0  0  0
   57.1031   31.7382   44.8781 H   0  0  0  0  0  0  0  0  0  0  0  0
   57.3980   33.8580   44.5760 C   0  0  0  0  0  0  0  0  0  0  0  0
   56.4918   33.9680   43.9622 H   0  0  0  0  0  0  0  0  0  0  0  0
   58.1990   34.9670   44.8370 C   0  0  0  0  0  0  0  0  0  0  0  0
   57.9316   35.9486   44.4187 H   0  0  0  0  0  0  0  0  0  0  0  0
   59.3410   34.8340   45.6290 C   0  0  0  0  0  0  0  0  0  0  0  0
   59.9661   35.7155   45.8344 H   0  0  0  0  0  0  0  0  0  0  0  0
   59.7010   33.5860   46.1670 C   0  0  0  0  0  0  0  0  0  0  0  0
   60.8830   33.5250   47.0590 C   0  0  0  0  0  0  0  0  0  0  0  0
   62.1770   33.6490   46.5280 C   0  0  0  0  0  0  0  0  0  0  0  0
   62.3140   33.7649   45.4427 H   0  0  0  0  0  0  0  0  0  0  0  0
   63.2910   33.6260   47.3700 C   0  0  0  0  0  0  0  0  0  0  0  0
   64.2998   33.7276   46.9433 H   0  0  0  0  0  0  0  0  0  0  0  0
   63.1330   33.4740   48.7590 C   0  0  0  0  0  0  0  0  0  0  0  0
   64.3360   33.4650   49.6840 C   0  0  0  0  0  0  0  0  0  0  0  0
   64.0061   33.7994   50.6787 H   0  0  0  0  0  0  0  0  0  0  0  0
   65.0830   34.1323   49.2293 H   0  0  0  0  0  0  0  0  0  0  0  0
   64.9930   32.1390   49.8350 N   0  0  0  0  0  0  0  0  0  0  0  0
   65.1140   31.7840   48.8540 H   0  0  0  0  0  0  0  0  0  0  0  0
   66.3640   32.2400   50.3960 C   0  0  0  0  0  0  0  0  0  0  0  0
   66.3552   32.9384   51.2458 H   0  0  0  0  0  0  0  0  0  0  0  0
   67.0409   32.6029   49.6085 H   0  0  0  0  0  0  0  0  0  0  0  0
   66.8590   30.8710   50.8760 C   0  0  0  0  0  0  0  0  0  0  0  0
   67.8995   30.9662   51.2199 H   0  0  0  0  0  0  0  0  0  0  0  0
   66.7908   30.1625   50.0374 H   0  0  0  0  0  0  0  0  0  0  0  0
   66.0260   30.3600   51.9910 N   0  0  0  0  0  0  0  0  0  0  0  0
   66.1060   28.8920   52.0710 C   0  0  0  0  0  0  0  0  0  0  0  0
   66.1229   28.5827   53.1265 H   0  0  0  0  0  0  0  0  0  0  0  0
   65.2306   28.4494   51.5731 H   0  0  0  0  0  0  0  0  0  0  0  0
   67.0243   28.5472   51.5731 H   0  0  0  0  0  0  0  0  0  0  0  0
   64.6170   30.8290   51.9550 C   0  0  0  0  0  0  0  0  0  0  0  0
   64.5341   31.7473   52.5549 H   0  0  0  0  0  0  0  0  0  0  0  0
   63.9839   30.0263   52.3611 H   0  0  0  0  0  0  0  0  0  0  0  0
   64.1390   31.1280   50.5230 C   0  0  0  0  0  0  0  0  0  0  0  0
   63.1080   31.5088   50.5676 H   0  0  0  0  0  0  0  0  0  0  0  0
   64.2001   30.1922   49.9481 H   0  0  0  0  0  0  0  0  0  0  0  0
   61.8340   33.3830   49.2900 C   0  0  0  0  0  0  0  0  0  0  0  0
   61.6942   33.2938   50.3774 H   0  0  0  0  0  0  0  0  0  0  0  0
   60.7200   33.4050   48.4480 C   0  0  0  0  0  0  0  0  0  0  0  0
   59.7094   33.3279   48.8756 H   0  0  0  0  0  0  0  0  0  0  0  0
   58.8180   29.5440   49.4100 S   0  0  0  0  0  0  0  0  0  0  0  0
   59.5050   30.6760   50.4410 C   0  0  0  0  0  0  0  0  0  0  0  0
   58.5410   31.9880   51.4320 Br  0  0  0  0  0  0  0  0  0  0  0  0
  1  2  1  0
  2  3  1  0
  3  4  1  0
  4  5  2  0
  5  6  1  0
  6  7  2  0
  6  8  1  0
  8  9  2  0
  9 10  1  0
  9 11  1  0
 11 12  1  0
 11 13  2  0
 13 14  1  0
 13 15  1  0
 15 16  1  0
 15 17  2  0
 17 18  1  0
 18 19  2  0
 18 20  2  0
 18 21  1  0
 21 22  1  0
 22 23  2  0
 22 24  1  0
 24 25  2  0
 25 26  1  0
 25 27  1  0
 27 28  1  0
 27 29  2  0
 29 30  1  0
 29 31  1  0
 31 32  1  0
 31 33  2  0
 33 34  1  0
 34 35  2  0
 35 36  1  0
 35 37  1  0
 37 38  1  0
 37 39  2  0
 39 40  1  0
 40 41  1  0
 40 42  1  0
 40 43  1  0
 43 44  1  0
 43 45  1  0
 45 46  1  0
 45 47  1  0
 45 48  1  0
 48 49  1  0
 48 50  1  0
 48 51  1  0
 51 52  1  0
 52 53  1  0
 52 54  1  0
 52 55  1  0
 51 56  1  0
 56 57  1  0
 56 58  1  0
 56 59  1  0
 59 60  1  0
 59 61  1  0
 39 62  1  0
 62 63  1  0
 62 64  2  0
 64 65  1  0
  4 66  1  0
 66 67  1  0
 67 68  1  0
 67  2  2  0
 17  8  1  0
 33 24  1  0
 64 34  1  0
 59 43  1  0
M  CHG  3   3  -1  21  -1  43   1
M  END
>  <UniqueID>  (68) 
65

>  <SMILES>  (68) 
CN1CC[NH+](Cc2ccc(-c3ccccc3C(=O)[N-]S(=O)(=O)c3ccccc3C(=O)/N=c3/[n-]cc(Br)s3)cc2)CC1

>  <Energy>  (68) 
142.5725671492905

>  <Genealogy>  (68) 
CN1CC[NH+](Cc2ccc(-c3ccccc3C(=O)[N-]S(=O)(=O)c3ccccc3C(=O)N=c3[n-]cc(Br)s3)cc2)CC1 (protonated)
CN1CC[NH+](Cc2ccc(-c3ccccc3C(=O)[N-]S(=O)(=O)c3ccccc3C(=O)/N=c3/[n-]cc(Br)s3)cc2)CC1 (cis-trans isomerization)
CN1CC[NH+](Cc2ccc(-c3ccccc3C(=O)[N-]S(=O)(=O)c3ccccc3C(=O)/N=c3/[n-]cc(Br)s3)cc2)CC1 (3D coordinates assigned)
CN1CC[NH+](Cc2ccc(-c3ccccc3C(=O)[N-]S(=O)(=O)c3ccccc3C(=O)/N=c3/[n-]cc(Br)s3)cc2)CC1 (nonaromatic ring conformer: 142.5725671492905 kcal/mol)

>  <smiles>  (68) 
CN1CCN(Cc2ccc(-c3ccccc3C(=O)NS(=O)(=O)c3ccccc3C(=O)N=c3[nH]cc(Br)s3)cc2)CC1

>  <score_type>  (68) 
oracle

>  <origin>  (68) 
adg

>  <m_score__min__energy>  (68) 
-12.9

>  <m_primary>  (68) 
energy

$$$$
68:0
     RDKit          3D

 39 40  0  0  0  0  0  0  0  0999 V2000
   54.6520   24.9120   45.5680 C   0  0  0  0  0  0  0  0  0  0  0  0
   55.1860   26.1700   46.0710 N   0  0  0  0  0  0  0  0  0  0  0  0
   56.4840   26.3120   46.6600 C   0  0  0  0  0  0  0  0  0  0  0  0
   56.9020   25.4180   47.4410 O   0  0  0  0  0  0  0  0  0  0  0  0
   57.3550   27.4650   46.3530 C   0  0  0  0  0  0  0  0  0  0  0  0
   56.8650   28.5610   45.6300 C   0  0  0  0  0  0  0  0  0  0  0  0
   55.5420   28.5680   45.1950 O   0  0  0  0  0  0  0  0  0  0  0  0
   57.7130   29.6450   45.3440 C   0  0  0  0  0  0  0  0  0  0  0  0
   57.2150   30.7780   44.5370 C   0  0  0  0  0  0  0  0  0  0  0  0
   56.0290   31.1830   44.6870 O   0  0  0  0  0  0  0  0  0  0  0  0
   58.0960   31.4310   43.6140 N   0  0  0  0  0  0  0  0  0  0  0  0
   58.1750   32.7180   43.4690 C   0  0  0  0  0  0  0  0  0  0  0  0
   57.8770   33.6400   44.6210 C   0  0  0  0  0  0  0  0  0  0  0  0
   58.7360   33.4250   45.8080 N   0  0  0  0  0  0  0  0  0  0  0  0
   57.9730   33.0850   47.0260 C   0  0  0  0  0  0  0  0  0  0  0  0
   58.8740   33.1420   48.2740 C   0  0  0  0  0  0  0  0  0  0  0  0
   60.2290   32.9730   47.9120 O   0  0  0  0  0  0  0  0  0  0  0  0
   60.6800   34.0980   47.1740 C   0  0  0  0  0  0  0  0  0  0  0  0
   59.7050   34.5090   46.0490 C   0  0  0  0  0  0  0  0  0  0  0  0
   59.0400   29.5980   45.8310 C   0  0  0  0  0  0  0  0  0  0  0  0
   59.9370   30.6510   45.6430 O   0  0  0  0  0  0  0  0  0  0  0  0
   59.4590   28.5400   46.5170 O   0  0  0  0  0  0  0  0  0  0  0  0
   58.6860   27.4970   46.7920 C   0  0  0  0  0  0  0  0  0  0  0  0
   59.1650   26.5330   47.4480 O   0  0  0  0  0  0  0  0  0  0  0  0
   54.3776   24.2655   46.4146 H   0  0  0  0  0  0  0  0  0  0  0  0
   53.7608   25.1111   44.9547 H   0  0  0  0  0  0  0  0  0  0  0  0
   55.4143   24.4092   44.9547 H   0  0  0  0  0  0  0  0  0  0  0  0
   58.4626   33.1395   42.4945 H   0  0  0  0  0  0  0  0  0  0  0  0
   58.0150   34.6761   44.2783 H   0  0  0  0  0  0  0  0  0  0  0  0
   56.8442   33.4294   44.9357 H   0  0  0  0  0  0  0  0  0  0  0  0
   57.1471   33.8018   47.1452 H   0  0  0  0  0  0  0  0  0  0  0  0
   57.5824   32.0620   46.9214 H   0  0  0  0  0  0  0  0  0  0  0  0
   58.7495   34.1177   48.7665 H   0  0  0  0  0  0  0  0  0  0  0  0
   58.5846   32.3323   48.9600 H   0  0  0  0  0  0  0  0  0  0  0  0
   60.7972   34.9465   47.8642 H   0  0  0  0  0  0  0  0  0  0  0  0
   61.6332   33.8212   46.6999 H   0  0  0  0  0  0  0  0  0  0  0  0
   59.1665   35.4206   46.3473 H   0  0  0  0  0  0  0  0  0  0  0  0
   60.2737   34.6997   45.1269 H   0  0  0  0  0  0  0  0  0  0  0  0
   59.6740   31.5390   45.2380 H   0  0  0  0  0  0  0  0  0  0  0  0
  1  2  1  0
  2  3  1  0
  3  4  2  0
  3  5  1  0
  5  6  2  0
  6  7  1  0
  6  8  1  0
  8  9  1  0
  9 10  2  0
  9 11  1  0
 11 12  2  3
 12 13  1  0
 13 14  1  0
 14 15  1  0
 15 16  1  0
 16 17  1  0
 17 18  1  0
 18 19  1  0
  8 20  2  0
 20 21  1  0
 20 22  1  0
 22 23  1  0
 23 24  2  0
 23  5  1  0
 19 14  1  0
  1 25  1  0
  1 26  1  0
  1 27  1  0
 12 28  1  0
 13 29  1  0
 13 30  1  0
 15 31  1  0
 15 32  1  0
 16 33  1  0
 16 34  1  0
 18 35  1  0
 18 36  1  0
 19 37  1  0
 19 38  1  0
 21 39  1  0
M  CHG  2   2  -1   7  -1
M  END
>  <UniqueID>  (69) 
66

>  <SMILES>  (69) 
C[N-]C(=O)c1c([O-])c(C(=O)N=CCN2CCOCC2)c(O)oc1=O

>  <Energy>  (69) 
62.41783517300229

>  <Genealogy>  (69) 
C[N-]C(=O)c1c([O-])c(C(=O)N=CCN2CCOCC2)c(O)oc1=O (protonated)
C[N-]C(=O)c1c([O-])c(C(=O)N=CCN2CCOCC2)c(O)oc1=O (3D coordinates assigned)
C[N-]C(=O)c1c([O-])c(C(=O)N=CCN2CCOCC2)c(O)oc1=O (nonaromatic ring conformer: 62.41783517300229 kcal/mol)

>  <smiles>  (69) 
CNC(=O)c1c(O)c(C(=O)N=CCN2CCOCC2)c(O)oc1=O

>  <score_type>  (69) 
oracle

>  <origin>  (69) 
adg

>  <m_score__min__energy>  (69) 
-12.369999999999999

>  <m_primary>  (69) 
energy

$$$$
69:0
     RDKit          3D

 57 60  0  0  1  0  0  0  0  0999 V2000
   63.8440   33.2210   47.3420 C   0  0  0  0  0  0  0  0  0  0  0  0
   63.9630   33.1090   48.8550 C   0  0  0  0  0  0  0  0  0  0  0  0
   63.9370   31.7390   49.2520 O   0  0  0  0  0  0  0  0  0  0  0  0
   62.7560   31.1940   49.7200 C   0  0  0  0  0  0  0  0  0  0  0  0
   62.5430   31.2330   50.9490 O   0  0  0  0  0  0  0  0  0  0  0  0
   61.7520   30.5790   48.8620 C   0  0  0  0  0  0  0  0  0  0  0  0
   61.5840   31.0440   47.5960 C   0  0  0  0  0  0  0  0  0  0  0  0
   60.6560   30.5110   46.7320 C   0  0  0  0  0  0  0  0  0  0  0  0
   59.8380   29.4590   47.1190 C   0  0  0  0  0  0  0  0  0  0  0  0
   58.9190   28.9720   46.1830 N   0  0  0  0  0  0  0  0  0  0  0  0
   58.0050   27.9080   46.3770 C   0  0  0  0  0  0  0  0  0  0  0  0
   57.9150   27.2650   47.4420 O   0  0  0  0  0  0  0  0  0  0  0  0
   57.0730   27.4940   45.2730 C   0  0  0  0  0  0  0  0  0  0  0  0
   56.2320   28.5640   44.8500 N   0  0  0  0  0  0  0  0  0  0  0  0
   56.6510   29.6990   44.3980 C   0  0  0  0  0  0  0  0  0  0  0  0
   56.5240   29.9380   43.0280 C   0  0  0  0  0  0  0  0  0  0  0  0
   56.9840   31.1680   42.5840 C   0  0  0  0  0  0  0  0  0  0  0  0
   57.5220   32.0800   43.4170 N   0  0  0  0  0  0  0  0  0  0  0  0
   57.6320   31.8250   44.7350 C   0  0  0  0  0  0  0  0  0  0  0  0
   58.2000   32.7940   45.6040 N   0  0  0  0  0  0  0  0  0  0  0  0
   59.3420   33.5350   45.1090 C   0  0  0  0  0  0  0  0  0  0  0  0
   59.6120   34.7590   45.9550 C   0  0  0  0  0  0  0  0  0  0  0  0
   59.7640   34.2390   47.3600 C   0  0  0  0  0  0  0  0  0  0  0  0
   60.8500   34.6140   48.1370 C   0  0  0  0  0  0  0  0  0  0  0  0
   60.9680   34.1250   49.4210 C   0  0  0  0  0  0  0  0  0  0  0  0
   59.9860   33.2630   49.8990 C   0  0  0  0  0  0  0  0  0  0  0  0
   60.1320   32.7970   51.1720 F   0  0  0  0  0  0  0  0  0  0  0  0
   58.9030   32.8930   49.1160 C   0  0  0  0  0  0  0  0  0  0  0  0
   58.7810   33.3850   47.8180 C   0  0  0  0  0  0  0  0  0  0  0  0
   57.6410   33.0210   46.9360 C   0  0  0  0  0  0  0  0  0  0  0  0
   57.1930   30.6350   45.2070 N   0  0  0  0  0  0  0  0  0  0  0  0
   60.0160   28.9960   48.4000 C   0  0  0  0  0  0  0  0  0  0  0  0
   60.9530   29.5340   49.2760 C   0  0  0  0  0  0  0  0  0  0  0  0
   63.0645   33.9547   47.0888 H   0  0  0  0  0  0  0  0  0  0  0  0
   64.8063   33.5487   46.9218 H   0  0  0  0  0  0  0  0  0  0  0  0
   63.5752   32.2406   46.9218 H   0  0  0  0  0  0  0  0  0  0  0  0
   64.9109   33.5632   49.1794 H   0  0  0  0  0  0  0  0  0  0  0  0
   63.1159   33.6335   49.3211 H   0  0  0  0  0  0  0  0  0  0  0  0
   62.2132   31.8771   47.2497 H   0  0  0  0  0  0  0  0  0  0  0  0
   60.5607   30.9255   45.7175 H   0  0  0  0  0  0  0  0  0  0  0  0
   58.8790   29.4230   45.2220 H   0  0  0  0  0  0  0  0  0  0  0  0
   57.6700   27.1519   44.4148 H   0  0  0  0  0  0  0  0  0  0  0  0
   56.4289   26.6897   45.6581 H   0  0  0  0  0  0  0  0  0  0  0  0
   56.0862   29.1963   42.3437 H   0  0  0  0  0  0  0  0  0  0  0  0
   56.9070   31.4080   41.5133 H   0  0  0  0  0  0  0  0  0  0  0  0
   57.8710   33.0150   43.0760 H   0  0  0  0  0  0  0  0  0  0  0  0
   60.2279   32.8833   45.1289 H   0  0  0  0  0  0  0  0  0  0  0  0
   59.1236   33.8641   44.0823 H   0  0  0  0  0  0  0  0  0  0  0  0
   60.5348   35.2596   45.6265 H   0  0  0  0  0  0  0  0  0  0  0  0
   58.8042   35.5014   45.8754 H   0  0  0  0  0  0  0  0  0  0  0  0
   61.6116   35.2965   47.7320 H   0  0  0  0  0  0  0  0  0  0  0  0
   61.8209   34.4106   50.0542 H   0  0  0  0  0  0  0  0  0  0  0  0
   58.1401   32.2110   49.5196 H   0  0  0  0  0  0  0  0  0  0  0  0
   57.1533   32.1063   47.3040 H   0  0  0  0  0  0  0  0  0  0  0  0
   56.8830   33.8179   46.9178 H   0  0  0  0  0  0  0  0  0  0  0  0
   59.3892   28.1621   48.7488 H   0  0  0  0  0  0  0  0  0  0  0  0
   61.0561   29.1282   50.2932 H   0  0  0  0  0  0  0  0  0  0  0  0
  1  2  1  0
  2  3  1  0
  3  4  1  0
  4  5  2  0
  4  6  1  0
  6  7  2  0
  7  8  1  0
  8  9  2  0
  9 10  1  0
 10 11  1  0
 11 12  2  0
 11 13  1  0
 13 14  1  0
 14 15  2  0
 15 16  1  0
 16 17  2  0
 17 18  1  0
 18 19  1  0
 19 20  1  0
 20 21  1  0
 21 22  1  0
 22 23  1  0
 23 24  2  0
 24 25  1  0
 25 26  2  0
 26 27  1  0
 26 28  1  0
 28 29  2  0
 29 30  1  0
 19 31  2  0
  9 32  1  0
 32 33  2  0
 33  6  1  0
 31 15  1  0
 30 20  1  0
 29 23  1  0
  1 34  1  0
  1 35  1  0
  1 36  1  0
  2 37  1  0
  2 38  1  0
  7 39  1  0
  8 40  1  0
 10 41  1  0
 13 42  1  0
 13 43  1  0
 16 44  1  0
 17 45  1  0
 18 46  1  0
 21 47  1  0
 21 48  1  0
 22 49  1  0
 22 50  1  0
 24 51  1  0
 25 52  1  0
 28 53  1  0
 30 54  1  0
 30 55  1  0
 32 56  1  0
 33 57  1  0
M  END
>  <smiles>  (70) 
CCOC(=O)c1ccc(NC(=O)CN=c2cc[nH]c(N3CCc4ccc(F)cc4C3)n2)cc1

>  <score_type>  (70) 
oracle

>  <origin>  (70) 
adg

>  <m_score__min__energy>  (70) 
-8.9900000000000002

>  <m_primary>  (70) 
energy

$$$$
70:0
     RDKit          3D

 35 36  0  0  0  0  0  0  0  0999 V2000
   58.8051   27.9657   47.4757 H   0  0  0  0  0  0  0  0  0  0  0  0
   58.0150   27.7380   46.7450 C   0  0  0  0  0  0  0  0  0  0  0  0
   57.3910   26.3990   46.8270 C   0  0  0  0  0  0  0  0  0  0  0  0
   57.9890   25.2690   47.2460 N   0  0  0  0  0  0  0  0  0  0  0  0
   57.0220   24.3350   47.1290 C   0  0  0  0  0  0  0  0  0  0  0  0
   57.2060   23.1280   47.4320 O   0  0  0  0  0  0  0  0  0  0  0  0
   55.8440   24.7970   46.6610 N   0  0  0  0  0  0  0  0  0  0  0  0
   56.0950   26.1020   46.4740 C   0  0  0  0  0  0  0  0  0  0  0  0
   55.1570   27.0060   45.9900 O   0  0  0  0  0  0  0  0  0  0  0  0
   57.7060   28.7030   45.8600 C   0  0  0  0  0  0  0  0  0  0  0  0
   58.1130   30.0310   45.8640 C   0  0  0  0  0  0  0  0  0  0  0  0
   58.7709   30.5132   46.6020 H   0  0  0  0  0  0  0  0  0  0  0  0
   57.5310   30.6310   44.7600 C   0  0  0  0  0  0  0  0  0  0  0  0
   57.6890   32.0640   44.4240 C   0  0  0  0  0  0  0  0  0  0  0  0
   58.4390   32.3830   43.4620 O   0  0  0  0  0  0  0  0  0  0  0  0
   57.0510   33.1600   45.2300 C   0  0  0  0  0  0  0  0  0  0  0  0
   56.8004   33.9981   44.5630 H   0  0  0  0  0  0  0  0  0  0  0  0
   56.1427   32.7622   45.7061 H   0  0  0  0  0  0  0  0  0  0  0  0
   57.9850   33.6500   46.3090 C   0  0  0  0  0  0  0  0  0  0  0  0
   57.8588   33.2528   47.3270 H   0  0  0  0  0  0  0  0  0  0  0  0
   58.9640   34.5470   46.0920 C   0  0  0  0  0  0  0  0  0  0  0  0
   58.6804   35.5319   45.6926 H   0  0  0  0  0  0  0  0  0  0  0  0
   60.4240   34.2890   46.3610 C   0  0  0  0  0  0  0  0  0  0  0  0
   60.9975   34.4708   45.4401 H   0  0  0  0  0  0  0  0  0  0  0  0
   60.7587   34.9649   47.1617 H   0  0  0  0  0  0  0  0  0  0  0  0
   60.6480   32.8490   46.8130 C   0  0  0  0  0  0  0  0  0  0  0  0
   60.6546   32.8065   47.9122 H   0  0  0  0  0  0  0  0  0  0  0  0
   59.8380   32.2131   46.4263 H   0  0  0  0  0  0  0  0  0  0  0  0
   61.6129   32.4892   46.4263 H   0  0  0  0  0  0  0  0  0  0  0  0
   56.8070   29.6300   44.1110 C   0  0  0  0  0  0  0  0  0  0  0  0
   56.1480   29.7230   42.9530 C   0  0  0  0  0  0  0  0  0  0  0  0
   56.0889   30.6888   42.4298 H   0  0  0  0  0  0  0  0  0  0  0  0
   55.6644   28.8338   42.5225 H   0  0  0  0  0  0  0  0  0  0  0  0
   56.9110   28.4730   44.7940 N   0  0  0  0  0  0  0  0  0  0  0  0
   56.4750   27.5590   44.5310 H   0  0  0  0  0  0  0  0  0  0  0  0
  1  2  1  0
  2  3  1  0
  3  4  1  0
  4  5  1  0
  5  6  2  0
  5  7  1  0
  7  8  1  0
  8  9  1  0
  2 10  2  3
 10 11  1  0
 11 12  1  0
 11 13  2  0
 13 14  1  0
 14 15  2  0
 14 16  1  0
 16 17  1  0
 16 18  1  0
 16 19  1  0
 19 20  1  0
 19 21  2  0
 21 22  1  0
 21 23  1  0
 23 24  1  0
 23 25  1  0
 23 26  1  0
 26 27  1  0
 26 28  1  0
 26 29  1  0
 13 30  1  0
 30 31  2  0
 31 32  1  0
 31 33  1  0
 30 34  1  0
 34 35  1  0
  8  3  2  0
 34 10  1  0
M  CHG  3   4  -1   7  -1   9  -1
M  END
>  <UniqueID>  (71) 
67

>  <SMILES>  (71) 
C=c1[nH]c(=Cc2[n-]c(=O)[n-]c2[O-])cc1C(=O)C/C=C\CC

>  <Energy>  (71) 
91.84647959562076

>  <Genealogy>  (71) 
C=c1[nH]c(=Cc2[n-]c(=O)[n-]c2[O-])cc1C(=O)CC=CCC (protonated)
C=c1[nH]c(=Cc2[n-]c(=O)[n-]c2[O-])cc1C(=O)C/C=C\CC (cis-trans isomerization)
C=c1[nH]c(=Cc2[n-]c(=O)[n-]c2[O-])cc1C(=O)C/C=C\CC (3D coordinates assigned)
C=c1[nH]c(=Cc2[n-]c(=O)[n-]c2[O-])cc1C(=O)C/C=C\CC (optimized conformer: 91.84647959562076 kcal/mol)

>  <smiles>  (71) 
C=c1[nH]c(=Cc2[nH]c(=O)[nH]c2O)cc1C(=O)CC=CCC

>  <score_type>  (71) 
oracle

>  <origin>  (71) 
adg

>  <m_score__min__energy>  (71) 
-15.74

>  <m_primary>  (71) 
energy

$$$$
71:0
     RDKit          3D

 44 46  0  0  0  0  0  0  0  0999 V2000
   58.1400   30.5440   46.6620 N   0  0  0  0  0  0  0  0  0  0  0  0
   57.7860   31.6340   45.8090 C   0  0  0  0  0  0  0  0  0  0  0  0
   56.8930   31.4610   44.9370 O   0  0  0  0  0  0  0  0  0  0  0  0
   58.4510   32.9550   45.9370 C   0  0  0  0  0  0  0  0  0  0  0  0
   58.6550   33.7460   44.7910 C   0  0  0  0  0  0  0  0  0  0  0  0
   59.2610   34.9990   44.8900 C   0  0  0  0  0  0  0  0  0  0  0  0
   59.6690   35.4830   46.1310 C   0  0  0  0  0  0  0  0  0  0  0  0
   59.4730   34.7150   47.2800 C   0  0  0  0  0  0  0  0  0  0  0  0
   58.8650   33.4450   47.1980 C   0  0  0  0  0  0  0  0  0  0  0  0
   58.6710   32.6450   48.3390 O   0  0  0  0  0  0  0  0  0  0  0  0
   59.7090   32.0560   49.1250 C   0  0  0  0  0  0  0  0  0  0  0  0
   61.0770   32.5330   48.6790 C   0  0  0  0  0  0  0  0  0  0  0  0
   61.7230   33.5260   49.4400 C   0  0  0  0  0  0  0  0  0  0  0  0
   62.9950   33.9800   49.0890 C   0  0  0  0  0  0  0  0  0  0  0  0
   63.6510   33.4380   47.9870 C   0  0  0  0  0  0  0  0  0  0  0  0
   63.0420   32.4320   47.2360 C   0  0  0  0  0  0  0  0  0  0  0  0
   61.7590   31.9610   47.5710 C   0  0  0  0  0  0  0  0  0  0  0  0
   61.1580   30.8470   46.7490 C   0  0  0  0  0  0  0  0  0  0  0  0
   60.7940   29.7680   47.6050 O   0  0  0  0  0  0  0  0  0  0  0  0
   60.1620   28.5920   47.1760 C   0  0  0  0  0  0  0  0  0  0  0  0
   60.0580   28.3560   45.8000 C   0  0  0  0  0  0  0  0  0  0  0  0
   59.4390   27.1970   45.3230 C   0  0  0  0  0  0  0  0  0  0  0  0
   58.9170   26.2610   46.2200 C   0  0  0  0  0  0  0  0  0  0  0  0
   58.0710   24.6790   45.5680 Br  0  0  0  0  0  0  0  0  0  0  0  0
   59.0150   26.4870   47.5970 C   0  0  0  0  0  0  0  0  0  0  0  0
   59.6330   27.6450   48.0770 C   0  0  0  0  0  0  0  0  0  0  0  0
   58.7830   30.6730   47.4750 H   0  0  0  0  0  0  0  0  0  0  0  0
   57.6990   29.6080   46.5240 H   0  0  0  0  0  0  0  0  0  0  0  0
   58.3335   33.3728   43.8075 H   0  0  0  0  0  0  0  0  0  0  0  0
   59.4169   35.6060   43.9860 H   0  0  0  0  0  0  0  0  0  0  0  0
   60.1461   36.4714   46.2055 H   0  0  0  0  0  0  0  0  0  0  0  0
   59.7953   35.1034   48.2574 H   0  0  0  0  0  0  0  0  0  0  0  0
   59.5599   32.3314   50.1795 H   0  0  0  0  0  0  0  0  0  0  0  0
   59.6637   30.9644   48.9972 H   0  0  0  0  0  0  0  0  0  0  0  0
   61.2191   33.9489   50.3216 H   0  0  0  0  0  0  0  0  0  0  0  0
   63.4803   34.7676   49.6841 H   0  0  0  0  0  0  0  0  0  0  0  0
   64.6504   33.8032   47.7081 H   0  0  0  0  0  0  0  0  0  0  0  0
   63.5707   32.0023   46.3724 H   0  0  0  0  0  0  0  0  0  0  0  0
   60.2640   31.2181   46.2265 H   0  0  0  0  0  0  0  0  0  0  0  0
   61.8951   30.4970   46.0113 H   0  0  0  0  0  0  0  0  0  0  0  0
   60.4667   29.0885   45.0884 H   0  0  0  0  0  0  0  0  0  0  0  0
   59.3626   27.0214   44.2398 H   0  0  0  0  0  0  0  0  0  0  0  0
   58.6045   25.7511   48.3041 H   0  0  0  0  0  0  0  0  0  0  0  0
   59.7070   27.8182   49.1608 H   0  0  0  0  0  0  0  0  0  0  0  0
  1  2  1  0
  2  3  2  0
  2  4  1  0
  4  5  2  0
  5  6  1  0
  6  7  2  0
  7  8  1  0
  8  9  2  0
  9 10  1  0
 10 11  1  0
 11 12  1  0
 12 13  2  0
 13 14  1  0
 14 15  2  0
 15 16  1  0
 16 17  2  0
 17 18  1  0
 18 19  1  0
 19 20  1  0
 20 21  2  0
 21 22  1  0
 22 23  2  0
 23 24  1  0
 23 25  1  0
 25 26  2  0
  9  4  1  0
 17 12  1  0
 26 20  1  0
  1 27  1  0
  1 28  1  0
  5 29  1  0
  6 30  1  0
  7 31  1  0
  8 32  1  0
 11 33  1  0
 11 34  1  0
 13 35  1  0
 14 36  1  0
 15 37  1  0
 16 38  1  0
 18 39  1  0
 18 40  1  0
 21 41  1  0
 22 42  1  0
 25 43  1  0
 26 44  1  0
M  END
>  <UniqueID>  (72) 
68

>  <SMILES>  (72) 
NC(=O)c1ccccc1OCc1ccccc1COc1ccc(Br)cc1

>  <Energy>  (72) 
50.40663743907174

>  <Genealogy>  (72) 
NC(=O)c1ccccc1OCc1ccccc1COc1ccc(Br)cc1 (3D coordinates assigned)
NC(=O)c1ccccc1OCc1ccccc1COc1ccc(Br)cc1 (optimized conformer: 50.40663743907174 kcal/mol)

>  <smiles>  (72) 
NC(=O)c1ccccc1OCc1ccccc1COc1ccc(Br)cc1

>  <score_type>  (72) 
oracle

>  <origin>  (72) 
adg

>  <m_score__min__energy>  (72) 
-8.8000000000000007

>  <m_primary>  (72) 
energy

$$$$
72:0
     RDKit          3D

 58 62  0  0  0  0  0  0  0  0999 V2000
   59.4570   34.6343   49.2735 H   0  0  0  0  0  0  0  0  0  0  0  0
   59.5950   34.4550   48.1970 C   0  0  0  0  0  0  0  0  0  0  0  0
   60.8430   34.4860   47.6590 N   0  0  0  0  0  0  0  0  0  0  0  0
   61.0530   34.2680   46.3350 C   0  0  0  0  0  0  0  0  0  0  0  0
   62.0750   34.2969   45.9293 H   0  0  0  0  0  0  0  0  0  0  0  0
   59.9730   34.0070   45.4870 C   0  0  0  0  0  0  0  0  0  0  0  0
   60.1433   33.8228   44.4160 H   0  0  0  0  0  0  0  0  0  0  0  0
   58.6690   33.9810   46.0090 C   0  0  0  0  0  0  0  0  0  0  0  0
   57.5150   33.6960   45.1220 C   0  0  0  0  0  0  0  0  0  0  0  0
   56.6610   34.5960   44.9110 O   0  0  0  0  0  0  0  0  0  0  0  0
   57.3640   32.4360   44.4480 N   0  0  0  0  0  0  0  0  0  0  0  0
   57.5360   31.2620   44.9820 C   0  0  0  0  0  0  0  0  0  0  0  0
   56.6140   30.2720   44.8180 N   0  0  0  0  0  0  0  0  0  0  0  0
   56.7840   29.0350   45.3540 C   0  0  0  0  0  0  0  0  0  0  0  0
   56.0178   28.2605   45.2023 H   0  0  0  0  0  0  0  0  0  0  0  0
   57.9300   28.7460   46.0970 C   0  0  0  0  0  0  0  0  0  0  0  0
   58.0744   27.7425   46.5237 H   0  0  0  0  0  0  0  0  0  0  0  0
   58.8960   29.7430   46.2960 C   0  0  0  0  0  0  0  0  0  0  0  0
   60.1180   29.4410   47.0770 C   0  0  0  0  0  0  0  0  0  0  0  0
   60.4600   28.2360   47.2130 O   0  0  0  0  0  0  0  0  0  0  0  0
   60.9330   30.5110   47.7030 C   0  0  0  0  0  0  0  0  0  0  0  0
   60.7040   31.1740   48.9090 C   0  0  0  0  0  0  0  0  0  0  0  0
   59.5740   31.0210   49.8420 C   0  0  0  0  0  0  0  0  0  0  0  0
   58.9350   29.7900   50.0140 C   0  0  0  0  0  0  0  0  0  0  0  0
   59.2946   28.9033   49.4713 H   0  0  0  0  0  0  0  0  0  0  0  0
   57.8700   29.6880   50.8510 N   0  0  0  0  0  0  0  0  0  0  0  0
   57.3960   30.7680   51.5300 C   0  0  0  0  0  0  0  0  0  0  0  0
   56.2650   30.6350   52.4200 N   0  0  0  0  0  0  0  0  0  0  0  0
   56.4660   30.7070   53.8760 C   0  0  0  0  0  0  0  0  0  0  0  0
   57.4542   30.2932   54.1253 H   0  0  0  0  0  0  0  0  0  0  0  0
   56.4033   31.7591   54.1909 H   0  0  0  0  0  0  0  0  0  0  0  0
   55.3870   29.9080   54.6090 C   0  0  0  0  0  0  0  0  0  0  0  0
   55.5283   28.8363   54.4050 H   0  0  0  0  0  0  0  0  0  0  0  0
   55.4712   30.1018   55.6885 H   0  0  0  0  0  0  0  0  0  0  0  0
   54.0540   30.3140   54.1560 N   0  0  0  0  0  0  0  0  0  0  0  0
   53.3520   29.7440   54.6820 H   0  0  0  0  0  0  0  0  0  0  0  0
   53.8960   30.0120   52.7300 C   0  0  0  0  0  0  0  0  0  0  0  0
   54.0676   28.9380   52.5656 H   0  0  0  0  0  0  0  0  0  0  0  0
   52.8767   30.2835   52.4182 H   0  0  0  0  0  0  0  0  0  0  0  0
   54.9000   30.8160   51.9010 C   0  0  0  0  0  0  0  0  0  0  0  0
   54.8623   30.4735   50.8564 H   0  0  0  0  0  0  0  0  0  0  0  0
   54.6364   31.8822   51.9624 H   0  0  0  0  0  0  0  0  0  0  0  0
   57.9960   31.9790   51.3550 N   0  0  0  0  0  0  0  0  0  0  0  0
   59.0610   32.1260   50.5250 C   0  0  0  0  0  0  0  0  0  0  0  0
   59.5201   33.1165   50.3906 H   0  0  0  0  0  0  0  0  0  0  0  0
   61.7650   32.0410   49.0950 C   0  0  0  0  0  0  0  0  0  0  0  0
   61.8946   32.7081   49.9600 H   0  0  0  0  0  0  0  0  0  0  0  0
   62.6140   31.9440   48.0570 N   0  0  0  0  0  0  0  0  0  0  0  0
   63.8040   32.7580   47.8440 C   0  0  0  0  0  0  0  0  0  0  0  0
   64.2285   33.0484   48.8164 H   0  0  0  0  0  0  0  0  0  0  0  0
   64.5479   32.1787   47.2774 H   0  0  0  0  0  0  0  0  0  0  0  0
   63.5338   33.6613   47.2774 H   0  0  0  0  0  0  0  0  0  0  0  0
   62.1130   31.0370   47.1980 C   0  0  0  0  0  0  0  0  0  0  0  0
   62.5710   30.7549   46.2385 H   0  0  0  0  0  0  0  0  0  0  0  0
   58.7040   31.0040   45.7110 C   0  0  0  0  0  0  0  0  0  0  0  0
   59.4680   31.7872   45.8245 H   0  0  0  0  0  0  0  0  0  0  0  0
   58.4870   34.1960   47.3860 C   0  0  0  0  0  0  0  0  0  0  0  0
   57.4780   34.1606   47.8228 H   0  0  0  0  0  0  0  0  0  0  0  0
  1  2  1  0
  2  3  2  0
  3  4  1  0
  4  5  1  0
  4  6  2  0
  6  7  1  0
  6  8  1  0
  8  9  1  0
  9 10  2  0
  9 11  1  0
 11 12  2  0
 12 13  1  0
 13 14  1  0
 14 15  1  0
 14 16  2  0
 16 17  1  0
 16 18  1  0
 18 19  1  0
 19 20  2  0
 19 21  1  0
 21 22  1  0
 22 23  1  0
 23 24  2  0
 24 25  1  0
 24 26  1  0
 26 27  2  0
 27 28  1  0
 28 29  1  0
 29 30  1  0
 29 31  1  0
 29 32  1  0
 32 33  1  0
 32 34  1  0
 32 35  1  0
 35 36  1  0
 35 37  1  0
 37 38  1  0
 37 39  1  0
 37 40  1  0
 40 41  1  0
 40 42  1  0
 27 43  1  0
 43 44  2  0
 44 45  1  0
 22 46  2  0
 46 47  1  0
 46 48  1  0
 48 49  1  0
 49 50  1  0
 49 51  1  0
 49 52  1  0
 48 53  1  0
 53 54  1  0
 18 55  2  0
 55 56  1  0
  8 57  2  0
 57 58  1  0
 57  2  1  0
 55 12  1  0
 53 21  2  0
 44 23  1  0
 40 28  1  0
M  CHG  1  13  -1
M  END
>  <UniqueID>  (73) 
69

>  <SMILES>  (73) 
Cn1cc(C(=O)c2cc[n-]/c(=N\C(=O)c3ccncc3)c2)c(-c2cnc(N3CCNCC3)nc2)c1

>  <Energy>  (73) 
110.19993883606715

>  <Genealogy>  (73) 
Cn1cc(C(=O)c2cc[n-]c(=NC(=O)c3ccncc3)c2)c(-c2cnc(N3CCNCC3)nc2)c1 (protonated)
Cn1cc(C(=O)c2cc[n-]/c(=N\C(=O)c3ccncc3)c2)c(-c2cnc(N3CCNCC3)nc2)c1 (cis-trans isomerization)
Cn1cc(C(=O)c2cc[n-]/c(=N\C(=O)c3ccncc3)c2)c(-c2cnc(N3CCNCC3)nc2)c1 (3D coordinates assigned)
Cn1cc(C(=O)c2cc[n-]/c(=N\C(=O)c3ccncc3)c2)c(-c2cnc(N3CCNCC3)nc2)c1 (nonaromatic ring conformer: 110.19993883606715 kcal/mol)

>  <smiles>  (73) 
Cn1cc(C(=O)c2cc[nH]c(=NC(=O)c3ccncc3)c2)c(-c2cnc(N3CCNCC3)nc2)c1

>  <score_type>  (73) 
oracle

>  <origin>  (73) 
adg

>  <m_score__min__energy>  (73) 
-11.619999999999999

>  <m_primary>  (73) 
energy

$$$$
73:0
     RDKit          3D

 31 32  0  0  0  0  0  0  0  0999 V2000
   59.6780   33.6720   48.6300 C   0  0  0  0  0  0  0  0  0  0  0  0
   59.7280   34.9470   47.9990 O   0  0  0  0  0  0  0  0  0  0  0  0
   59.4790   35.1230   46.6350 C   0  0  0  0  0  0  0  0  0  0  0  0
   60.0030   36.0840   46.0070 O   0  0  0  0  0  0  0  0  0  0  0  0
   58.6010   34.1790   45.9310 C   0  0  0  0  0  0  0  0  0  0  0  0
   58.9120   33.5050   44.7640 C   0  0  0  0  0  0  0  0  0  0  0  0
   57.8050   32.7310   44.4660 C   0  0  0  0  0  0  0  0  0  0  0  0
   57.6630   31.8270   43.3090 C   0  0  0  0  0  0  0  0  0  0  0  0
   58.5200   31.8640   42.3840 O   0  0  0  0  0  0  0  0  0  0  0  0
   56.5320   30.8400   43.2210 C   0  0  0  0  0  0  0  0  0  0  0  0
   56.5990   29.8170   44.3250 C   0  0  0  0  0  0  0  0  0  0  0  0
   55.5340   29.4180   44.8710 O   0  0  0  0  0  0  0  0  0  0  0  0
   57.8940   29.3160   44.8250 C   0  0  0  0  0  0  0  0  0  0  0  0
   58.0670   28.5740   45.9800 C   0  0  0  0  0  0  0  0  0  0  0  0
   59.4200   28.3240   46.0830 C   0  0  0  0  0  0  0  0  0  0  0  0
   60.0150   28.9240   44.9910 C   0  0  0  0  0  0  0  0  0  0  0  0
   59.0850   29.5260   44.2290 N   0  0  0  0  0  0  0  0  0  0  0  0
   56.8710   32.9660   45.4620 C   0  0  0  0  0  0  0  0  0  0  0  0
   57.3640   33.8480   46.3490 N   0  0  0  0  0  0  0  0  0  0  0  0
   59.6831   33.8030   49.7222 H   0  0  0  0  0  0  0  0  0  0  0  0
   58.7587   33.1491   48.3277 H   0  0  0  0  0  0  0  0  0  0  0  0
   60.5536   33.0787   48.3277 H   0  0  0  0  0  0  0  0  0  0  0  0
   59.8482   33.5710   44.1902 H   0  0  0  0  0  0  0  0  0  0  0  0
   55.5782   31.3830   43.2953 H   0  0  0  0  0  0  0  0  0  0  0  0
   56.6109   30.3125   42.2590 H   0  0  0  0  0  0  0  0  0  0  0  0
   57.2816   28.2480   46.6778 H   0  0  0  0  0  0  0  0  0  0  0  0
   59.9256   27.7577   46.8790 H   0  0  0  0  0  0  0  0  0  0  0  0
   61.0936   28.9113   44.7756 H   0  0  0  0  0  0  0  0  0  0  0  0
   59.2730   30.0670   43.3560 H   0  0  0  0  0  0  0  0  0  0  0  0
   55.8758   32.5009   45.5186 H   0  0  0  0  0  0  0  0  0  0  0  0
   56.8740   34.2030   47.2000 H   0  0  0  0  0  0  0  0  0  0  0  0
  1  2  1  0
  2  3  1  0
  3  4  2  0
  3  5  1  0
  5  6  2  0
  6  7  1  0
  7  8  1  0
  8  9  2  0
  8 10  1  0
 10 11  1  0
 11 12  2  0
 11 13  1  0
 13 14  2  0
 14 15  1  0
 15 16  2  0
 16 17  1  0
  7 18  2  0
 18 19  1  0
 19  5  1  0
 17 13  1  0
  1 20  1  0
  1 21  1  0
  1 22  1  0
  6 23  1  0
 10 24  1  0
 10 25  1  0
 14 26  1  0
 15 27  1  0
 16 28  1  0
 17 29  1  0
 18 30  1  0
 19 31  1  0
M  END
>  <UniqueID>  (74) 
70

>  <SMILES>  (74) 
COC(=O)c1cc(C(=O)CC(=O)c2ccc[nH]2)c[nH]1

>  <Energy>  (74) 
76.84482337809088

>  <Genealogy>  (74) 
COC(=O)c1cc(C(=O)CC(=O)c2ccc[nH]2)c[nH]1 (3D coordinates assigned)
COC(=O)c1cc(C(=O)CC(=O)c2ccc[nH]2)c[nH]1 (optimized conformer: 76.84482337809088 kcal/mol)

>  <smiles>  (74) 
COC(=O)c1cc(C(=O)CC(=O)c2ccc[nH]2)c[nH]1

>  <score_type>  (74) 
oracle

>  <origin>  (74) 
adg

>  <m_score__min__energy>  (74) 
-6.7999999999999998

>  <m_primary>  (74) 
energy

$$$$
74:0
     RDKit          3D

 48 51  0  0  0  0  0  0  0  0999 V2000
   56.1340   26.2700   46.7320 O   0  0  0  0  0  0  0  0  0  0  0  0
   57.1560   26.9520   46.4640 C   0  0  0  0  0  0  0  0  0  0  0  0
   58.0620   27.2790   47.5240 N   0  0  0  0  0  0  0  0  0  0  0  0
   59.0420   28.3270   47.5010 C   0  0  0  0  0  0  0  0  0  0  0  0
   59.8550   28.4650   46.3680 C   0  0  0  0  0  0  0  0  0  0  0  0
   60.8280   29.4670   46.3140 C   0  0  0  0  0  0  0  0  0  0  0  0
   61.0070   30.3280   47.3990 C   0  0  0  0  0  0  0  0  0  0  0  0
   60.2230   30.1780   48.5460 C   0  0  0  0  0  0  0  0  0  0  0  0
   59.2470   29.1770   48.6060 C   0  0  0  0  0  0  0  0  0  0  0  0
   58.5450   29.0120   49.7550 F   0  0  0  0  0  0  0  0  0  0  0  0
   57.4650   27.2940   45.0590 C   0  0  0  0  0  0  0  0  0  0  0  0
   58.0500   26.4270   44.2140 N   0  0  0  0  0  0  0  0  0  0  0  0
   58.0960   27.0860   43.0390 C   0  0  0  0  0  0  0  0  0  0  0  0
   57.5720   28.3280   43.0950 N   0  0  0  0  0  0  0  0  0  0  0  0
   57.1730   28.4640   44.3720 C   0  0  0  0  0  0  0  0  0  0  0  0
   56.6040   29.7200   44.8910 C   0  0  0  0  0  0  0  0  0  0  0  0
   55.4920   30.1400   44.4770 O   0  0  0  0  0  0  0  0  0  0  0  0
   57.3430   30.4640   45.8690 N   0  0  0  0  0  0  0  0  0  0  0  0
   57.8440   31.8010   45.7270 C   0  0  0  0  0  0  0  0  0  0  0  0
   57.5120   32.6100   44.6260 C   0  0  0  0  0  0  0  0  0  0  0  0
   58.0100   33.9120   44.5350 C   0  0  0  0  0  0  0  0  0  0  0  0
   58.8210   34.4270   45.5490 C   0  0  0  0  0  0  0  0  0  0  0  0
   59.1240   33.6480   46.6770 C   0  0  0  0  0  0  0  0  0  0  0  0
   59.9830   34.1810   47.7550 C   0  0  0  0  0  0  0  0  0  0  0  0
   59.4780   34.9670   48.6020 O   0  0  0  0  0  0  0  0  0  0  0  0
   61.3780   33.8410   47.8480 N   0  0  0  0  0  0  0  0  0  0  0  0
   62.1760   34.1380   49.0250 C   0  0  0  0  0  0  0  0  0  0  0  0
   63.5950   33.7080   48.6780 C   0  0  0  0  0  0  0  0  0  0  0  0
   63.6360   33.6210   47.1560 C   0  0  0  0  0  0  0  0  0  0  0  0
   62.1910   33.4280   46.7140 C   0  0  0  0  0  0  0  0  0  0  0  0
   58.6390   32.3320   46.7530 C   0  0  0  0  0  0  0  0  0  0  0  0
   59.7267   27.7808   45.5163 H   0  0  0  0  0  0  0  0  0  0  0  0
   61.4535   29.5776   45.4159 H   0  0  0  0  0  0  0  0  0  0  0  0
   61.7648   31.1239   47.3507 H   0  0  0  0  0  0  0  0  0  0  0  0
   60.3736   30.8490   49.4045 H   0  0  0  0  0  0  0  0  0  0  0  0
   58.5205   26.6523   42.1215 H   0  0  0  0  0  0  0  0  0  0  0  0
   56.8581   32.2165   43.8338 H   0  0  0  0  0  0  0  0  0  0  0  0
   57.7627   34.5337   43.6619 H   0  0  0  0  0  0  0  0  0  0  0  0
   59.2239   35.4470   45.4634 H   0  0  0  0  0  0  0  0  0  0  0  0
   62.1449   35.2147   49.2481 H   0  0  0  0  0  0  0  0  0  0  0  0
   61.7984   33.6137   49.9152 H   0  0  0  0  0  0  0  0  0  0  0  0
   64.3208   34.4511   49.0399 H   0  0  0  0  0  0  0  0  0  0  0  0
   63.8561   32.7483   49.1479 H   0  0  0  0  0  0  0  0  0  0  0  0
   64.0466   34.5483   46.7299 H   0  0  0  0  0  0  0  0  0  0  0  0
   64.2783   32.7961   46.8141 H   0  0  0  0  0  0  0  0  0  0  0  0
   61.9711   34.0528   45.8358 H   0  0  0  0  0  0  0  0  0  0  0  0
   61.9887   32.3860   46.4254 H   0  0  0  0  0  0  0  0  0  0  0  0
   58.8855   31.7111   47.6269 H   0  0  0  0  0  0  0  0  0  0  0  0
  1  2  2  0
  2  3  1  0
  3  4  1  0
  4  5  2  0
  5  6  1  0
  6  7  2  0
  7  8  1  0
  8  9  2  0
  9 10  1  0
  2 11  1  0
 11 12  1  0
 12 13  2  0
 13 14  1  0
 14 15  1  0
 15 16  1  0
 16 17  2  0
 16 18  1  0
 18 19  1  0
 19 20  2  0
 20 21  1  0
 21 22  2  0
 22 23  1  0
 23 24  1  0
 24 25  2  0
 24 26  1  0
 26 27  1  0
 27 28  1  0
 28 29  1  0
 29 30  1  0
 23 31  2  0
  9  4  1  0
 15 11  2  0
 31 19  1  0
 30 26  1  0
  5 32  1  0
  6 33  1  0
  7 34  1  0
  8 35  1  0
 13 36  1  0
 20 37  1  0
 21 38  1  0
 22 39  1  0
 27 40  1  0
 27 41  1  0
 28 42  1  0
 28 43  1  0
 29 44  1  0
 29 45  1  0
 30 46  1  0
 30 47  1  0
 31 48  1  0
M  CHG  3   3  -1  14  -1  18  -1
M  END
>  <UniqueID>  (75) 
71

>  <SMILES>  (75) 
O=C([N-]c1ccccc1F)c1nc[n-]c1C(=O)[N-]c1cccc(C(=O)N2CCCC2)c1

>  <Energy>  (75) 
95.61820069506605

>  <Genealogy>  (75) 
O=C([N-]c1ccccc1F)c1nc[n-]c1C(=O)[N-]c1cccc(C(=O)N2CCCC2)c1 (protonated)
O=C([N-]c1ccccc1F)c1nc[n-]c1C(=O)[N-]c1cccc(C(=O)N2CCCC2)c1 (3D coordinates assigned)
O=C([N-]c1ccccc1F)c1nc[n-]c1C(=O)[N-]c1cccc(C(=O)N2CCCC2)c1 (nonaromatic ring conformer: 95.61820069506605 kcal/mol)

>  <smiles>  (75) 
O=C(Nc1ccccc1F)c1nc[nH]c1C(=O)Nc1cccc(C(=O)N2CCCC2)c1

>  <score_type>  (75) 
oracle

>  <origin>  (75) 
adg

>  <m_score__min__energy>  (75) 
-14.01

>  <m_primary>  (75) 
energy

$$$$
75:0
     RDKit          3D

 47 50  0  0  0  0  0  0  0  0999 V2000
   60.6438   34.8518   45.2681 H   0  0  0  0  0  0  0  0  0  0  0  0
   60.3720   34.2220   46.1280 C   0  0  0  0  0  0  0  0  0  0  0  0
   59.1220   33.7360   46.1850 C   0  0  0  0  0  0  0  0  0  0  0  0
   58.4572   34.0606   46.9990 H   0  0  0  0  0  0  0  0  0  0  0  0
   58.6170   32.7770   45.1830 C   0  0  0  0  0  0  0  0  0  0  0  0
   58.1680   33.1300   43.9490 N   0  0  0  0  0  0  0  0  0  0  0  0
   57.8390   32.0200   43.2940 N   0  0  0  0  0  0  0  0  0  0  0  0
   57.3930   31.9880   41.9070 C   0  0  0  0  0  0  0  0  0  0  0  0
   56.2963   31.9093   41.8762 H   0  0  0  0  0  0  0  0  0  0  0  0
   57.7088   32.9111   41.3989 H   0  0  0  0  0  0  0  0  0  0  0  0
   57.8373   31.1194   41.3989 H   0  0  0  0  0  0  0  0  0  0  0  0
   58.0970   30.9690   44.0860 C   0  0  0  0  0  0  0  0  0  0  0  0
   57.9530   29.6560   43.7770 N   0  0  0  0  0  0  0  0  0  0  0  0
   58.2940   28.7300   44.7230 C   0  0  0  0  0  0  0  0  0  0  0  0
   58.1200   27.0240   44.3710 Cl  0  0  0  0  0  0  0  0  0  0  0  0
   58.7690   29.1280   45.9470 N   0  0  0  0  0  0  0  0  0  0  0  0
   58.9200   30.4520   46.2620 C   0  0  0  0  0  0  0  0  0  0  0  0
   59.3960   30.8280   47.5590 N   0  0  0  0  0  0  0  0  0  0  0  0
   58.5790   31.7270   48.3820 C   0  0  0  0  0  0  0  0  0  0  0  0
   57.5160   31.5626   48.1515 H   0  0  0  0  0  0  0  0  0  0  0  0
   58.8594   32.7669   48.1583 H   0  0  0  0  0  0  0  0  0  0  0  0
   58.8190   31.4590   49.8700 C   0  0  0  0  0  0  0  0  0  0  0  0
   58.4467   30.4533   50.1150 H   0  0  0  0  0  0  0  0  0  0  0  0
   58.2860   32.2298   50.4460 H   0  0  0  0  0  0  0  0  0  0  0  0
   60.2560   31.5360   50.2190 N   0  0  0  0  0  0  0  0  0  0  0  0
   60.4700   31.0130   51.5830 C   0  0  0  0  0  0  0  0  0  0  0  0
   60.1603   31.7699   52.3187 H   0  0  0  0  0  0  0  0  0  0  0  0
   59.8733   30.0996   51.7233 H   0  0  0  0  0  0  0  0  0  0  0  0
   61.5358   30.7799   51.7233 H   0  0  0  0  0  0  0  0  0  0  0  0
   61.1710   30.8780   49.2440 C   0  0  0  0  0  0  0  0  0  0  0  0
   61.8600   30.2255   49.8004 H   0  0  0  0  0  0  0  0  0  0  0  0
   61.6958   31.6801   48.7043 H   0  0  0  0  0  0  0  0  0  0  0  0
   60.4450   30.0300   48.1910 C   0  0  0  0  0  0  0  0  0  0  0  0
   59.9949   29.1509   48.6754 H   0  0  0  0  0  0  0  0  0  0  0  0
   61.1645   29.7005   47.4270 H   0  0  0  0  0  0  0  0  0  0  0  0
   58.5770   31.3920   45.2890 C   0  0  0  0  0  0  0  0  0  0  0  0
   61.4110   33.9590   47.1590 C   0  0  0  0  0  0  0  0  0  0  0  0
   62.6510   33.4370   46.7430 C   0  0  0  0  0  0  0  0  0  0  0  0
   62.8265   33.2314   45.6767 H   0  0  0  0  0  0  0  0  0  0  0  0
   63.6610   33.1780   47.6750 C   0  0  0  0  0  0  0  0  0  0  0  0
   64.6249   32.7677   47.3395 H   0  0  0  0  0  0  0  0  0  0  0  0
   63.4490   33.4390   49.0310 C   0  0  0  0  0  0  0  0  0  0  0  0
   64.2415   33.2255   49.7634 H   0  0  0  0  0  0  0  0  0  0  0  0
   62.2280   33.9720   49.4560 C   0  0  0  0  0  0  0  0  0  0  0  0
   62.0634   34.1801   50.5235 H   0  0  0  0  0  0  0  0  0  0  0  0
   61.2140   34.2420   48.5290 C   0  0  0  0  0  0  0  0  0  0  0  0
   60.2617   34.6755   48.8683 H   0  0  0  0  0  0  0  0  0  0  0  0
  1  2  1  0
  2  3  2  0
  3  4  1  0
  3  5  1  0
  5  6  2  0
  6  7  1  0
  7  8  1  0
  8  9  1  0
  8 10  1  0
  8 11  1  0
  7 12  1  0
 12 13  2  0
 13 14  1  0
 14 15  1  0
 14 16  2  0
 16 17  1  0
 17 18  1  0
 18 19  1  0
 19 20  1  0
 19 21  1  0
 19 22  1  0
 22 23  1  0
 22 24  1  0
 22 25  1  0
 25 26  1  0
 26 27  1  0
 26 28  1  0
 26 29  1  0
 25 30  1  0
 30 31  1  0
 30 32  1  0
 30 33  1  0
 33 34  1  0
 33 35  1  0
 17 36  2  0
  2 37  1  0
 37 38  2  0
 38 39  1  0
 38 40  1  0
 40 41  1  0
 40 42  2  0
 42 43  1  0
 42 44  1  0
 44 45  1  0
 44 46  2  0
 46 47  1  0
 36  5  1  0
 46 37  1  0
 36 12  1  0
 33 18  1  0
M  END
>  <UniqueID>  (76) 
72

>  <SMILES>  (76) 
CN1CCN(c2nc(Cl)nc3c2c(/C=C/c2ccccc2)nn3C)CC1

>  <Energy>  (76) 
104.6536975136281

>  <Genealogy>  (76) 
CN1CCN(c2nc(Cl)nc3c2c(/C=C/c2ccccc2)nn3C)CC1 (cis-trans isomerization)
CN1CCN(c2nc(Cl)nc3c2c(/C=C/c2ccccc2)nn3C)CC1 (3D coordinates assigned)
CN1CCN(c2nc(Cl)nc3c2c(/C=C/c2ccccc2)nn3C)CC1 (nonaromatic ring conformer: 104.6536975136281 kcal/mol)

>  <smiles>  (76) 
CN1CCN(c2nc(Cl)nc3c2c(C=Cc2ccccc2)nn3C)CC1

>  <score_type>  (76) 
oracle

>  <origin>  (76) 
adg

>  <m_score__min__energy>  (76) 
-7.4800000000000004

>  <m_primary>  (76) 
energy

$$$$
76:0
     RDKit          3D

 57 60  0  0  0  0  0  0  0  0999 V2000
   50.9020   23.3910   44.5390 C   0  0  0  0  0  0  0  0  0  0  0  0
   51.5340   22.1200   44.8660 N   0  0  0  0  0  0  0  0  0  0  0  0
   52.2690   21.8570   46.0680 C   0  0  0  0  0  0  0  0  0  0  0  0
   51.8100   21.0180   46.8870 O   0  0  0  0  0  0  0  0  0  0  0  0
   53.5240   22.5640   46.3940 C   0  0  0  0  0  0  0  0  0  0  0  0
   54.0470   22.5410   47.6960 C   0  0  0  0  0  0  0  0  0  0  0  0
   55.2280   23.2280   47.9970 C   0  0  0  0  0  0  0  0  0  0  0  0
   55.9060   23.9450   46.9940 C   0  0  0  0  0  0  0  0  0  0  0  0
   57.1040   24.6920   47.2680 N   0  0  0  0  0  0  0  0  0  0  0  0
   57.4290   25.8520   46.7770 C   0  0  0  0  0  0  0  0  0  0  0  0
   58.6840   26.3280   46.9820 N   0  0  0  0  0  0  0  0  0  0  0  0
   59.0620   27.5460   46.5140 C   0  0  0  0  0  0  0  0  0  0  0  0
   58.1520   28.3420   45.8040 C   0  0  0  0  0  0  0  0  0  0  0  0
   58.5420   29.6820   45.3060 C   0  0  0  0  0  0  0  0  0  0  0  0
   59.6200   29.8170   44.6610 O   0  0  0  0  0  0  0  0  0  0  0  0
   57.6980   30.8240   45.5230 N   0  0  0  0  0  0  0  0  0  0  0  0
   58.2000   32.1730   45.5750 C   0  0  0  0  0  0  0  0  0  0  0  0
   58.5220   32.7550   46.8150 C   0  0  0  0  0  0  0  0  0  0  0  0
   58.9360   34.0950   46.8960 C   0  0  0  0  0  0  0  0  0  0  0  0
   59.2570   34.7100   48.1530 N   0  0  0  0  0  0  0  0  0  0  0  0
   60.1360   34.1830   49.1580 C   0  0  0  0  0  0  0  0  0  0  0  0
   59.6870   34.0170   50.3220 O   0  0  0  0  0  0  0  0  0  0  0  0
   61.5350   33.7950   48.8570 C   0  0  0  0  0  0  0  0  0  0  0  0
   62.4080   33.3930   49.8830 C   0  0  0  0  0  0  0  0  0  0  0  0
   63.7200   33.0110   49.5860 C   0  0  0  0  0  0  0  0  0  0  0  0
   64.1750   33.0380   48.2650 C   0  0  0  0  0  0  0  0  0  0  0  0
   63.3220   33.4540   47.2400 C   0  0  0  0  0  0  0  0  0  0  0  0
   63.7650   33.4840   45.9600 F   0  0  0  0  0  0  0  0  0  0  0  0
   62.0080   33.8360   47.5340 C   0  0  0  0  0  0  0  0  0  0  0  0
   59.0740   34.8400   45.7250 C   0  0  0  0  0  0  0  0  0  0  0  0
   58.7590   34.2780   44.4870 C   0  0  0  0  0  0  0  0  0  0  0  0
   58.3190   32.9470   44.3970 C   0  0  0  0  0  0  0  0  0  0  0  0
   57.9750   32.3720   43.0500 C   0  0  0  0  0  0  0  0  0  0  0  0
   56.8570   27.8390   45.6180 C   0  0  0  0  0  0  0  0  0  0  0  0
   56.5240   26.6170   46.1070 N   0  0  0  0  0  0  0  0  0  0  0  0
   55.3530   24.0110   45.7090 C   0  0  0  0  0  0  0  0  0  0  0  0
   54.1720   23.3240   45.4090 C   0  0  0  0  0  0  0  0  0  0  0  0
   50.6393   23.9194   45.4673 H   0  0  0  0  0  0  0  0  0  0  0  0
   51.5990   24.0066   43.9514 H   0  0  0  0  0  0  0  0  0  0  0  0
   49.9905   23.2068   43.9514 H   0  0  0  0  0  0  0  0  0  0  0  0
   53.5252   21.9793   48.4848 H   0  0  0  0  0  0  0  0  0  0  0  0
   55.6280   23.2075   49.0215 H   0  0  0  0  0  0  0  0  0  0  0  0
   60.0850   27.9088   46.6926 H   0  0  0  0  0  0  0  0  0  0  0  0
   56.6700   30.6650   45.6030 H   0  0  0  0  0  0  0  0  0  0  0  0
   58.4486   32.1530   47.7327 H   0  0  0  0  0  0  0  0  0  0  0  0
   62.0570   33.3789   50.9254 H   0  0  0  0  0  0  0  0  0  0  0  0
   64.3946   32.6889   50.3930 H   0  0  0  0  0  0  0  0  0  0  0  0
   65.2055   32.7315   48.0322 H   0  0  0  0  0  0  0  0  0  0  0  0
   61.3417   34.1702   46.7251 H   0  0  0  0  0  0  0  0  0  0  0  0
   59.4338   35.8782   45.7776 H   0  0  0  0  0  0  0  0  0  0  0  0
   58.8562   34.8828   43.5734 H   0  0  0  0  0  0  0  0  0  0  0  0
   57.4144   31.4350   43.1836 H   0  0  0  0  0  0  0  0  0  0  0  0
   57.3588   33.0914   42.4908 H   0  0  0  0  0  0  0  0  0  0  0  0
   58.9003   32.1692   42.4908 H   0  0  0  0  0  0  0  0  0  0  0  0
   56.1091   28.4354   45.0749 H   0  0  0  0  0  0  0  0  0  0  0  0
   55.8509   24.6073   44.9302 H   0  0  0  0  0  0  0  0  0  0  0  0
   53.7491   23.3800   44.3951 H   0  0  0  0  0  0  0  0  0  0  0  0
  1  2  1  0
  2  3  1  0
  3  4  2  0
  3  5  1  0
  5  6  2  0
  6  7  1  0
  7  8  2  0
  8  9  1  0
  9 10  2  3
 10 11  1  0
 11 12  2  0
 12 13  1  0
 13 14  1  0
 14 15  2  0
 14 16  1  0
 16 17  1  0
 17 18  2  0
 18 19  1  0
 19 20  1  0
 20 21  1  0
 21 22  2  0
 21 23  1  0
 23 24  2  0
 24 25  1  0
 25 26  2  0
 26 27  1  0
 27 28  1  0
 27 29  2  0
 19 30  2  0
 30 31  1  0
 31 32  2  0
 32 33  1  0
 13 34  2  0
 34 35  1  0
  8 36  1  0
 36 37  2  0
 37  5  1  0
 35 10  1  0
 32 17  1  0
 29 23  1  0
  1 38  1  0
  1 39  1  0
  1 40  1  0
  6 41  1  0
  7 42  1  0
 12 43  1  0
 16 44  1  0
 18 45  1  0
 24 46  1  0
 25 47  1  0
 26 48  1  0
 29 49  1  0
 30 50  1  0
 31 51  1  0
 33 52  1  0
 33 53  1  0
 33 54  1  0
 34 55  1  0
 36 56  1  0
 37 57  1  0
M  CHG  3   2  -1  20  -1  35  -1
M  END
>  <UniqueID>  (77) 
73

>  <SMILES>  (77) 
C[N-]C(=O)c1ccc(N=c2ncc(C(=O)Nc3cc([N-]C(=O)c4cccc(F)c4)ccc3C)c[n-]2)cc1

>  <Energy>  (77) 
85.19106564535471

>  <Genealogy>  (77) 
C[N-]C(=O)c1ccc(N=c2ncc(C(=O)Nc3cc([N-]C(=O)c4cccc(F)c4)ccc3C)c[n-]2)cc1 (protonated)
C[N-]C(=O)c1ccc(N=c2ncc(C(=O)Nc3cc([N-]C(=O)c4cccc(F)c4)ccc3C)c[n-]2)cc1 (3D coordinates assigned)
C[N-]C(=O)c1ccc(N=c2ncc(C(=O)Nc3cc([N-]C(=O)c4cccc(F)c4)ccc3C)c[n-]2)cc1 (optimized conformer: 85.19106564535471 kcal/mol)

>  <smiles>  (77) 
CNC(=O)c1ccc(N=c2ncc(C(=O)Nc3cc(NC(=O)c4cccc(F)c4)ccc3C)c[nH]2)cc1

>  <score_type>  (77) 
oracle

>  <origin>  (77) 
adg

>  <m_score__min__energy>  (77) 
-13.779999999999999

>  <m_primary>  (77) 
energy

$$$$
77:0
     RDKit          3D

 46 49  0  0  0  0  0  0  0  0999 V2000
   61.6540   31.3060   51.1150 O   0  0  0  0  0  0  0  0  0  0  0  0
   60.7440   30.5640   50.6830 C   0  0  0  0  0  0  0  0  0  0  0  0
   61.1030   29.3870   49.8020 C   0  0  0  0  0  0  0  0  0  0  0  0
   60.4120   29.5890   48.4880 C   0  0  0  0  0  0  0  0  0  0  0  0
   59.2180   29.0340   48.2670 C   0  0  0  0  0  0  0  0  0  0  0  0
   58.4310   29.1750   47.1160 C   0  0  0  0  0  0  0  0  0  0  0  0
   59.0570   30.0030   46.1410 C   0  0  0  0  0  0  0  0  0  0  0  0
   58.2180   30.2010   44.9410 C   0  0  0  0  0  0  0  0  0  0  0  0
   57.1290   29.3540   44.7370 C   0  0  0  0  0  0  0  0  0  0  0  0
   56.3600   29.5970   43.6200 C   0  0  0  0  0  0  0  0  0  0  0  0
   56.6240   30.6100   42.7320 C   0  0  0  0  0  0  0  0  0  0  0  0
   57.7090   31.4640   42.9200 C   0  0  0  0  0  0  0  0  0  0  0  0
   58.4980   31.2370   44.0410 C   0  0  0  0  0  0  0  0  0  0  0  0
   60.2420   30.5490   46.3650 C   0  0  0  0  0  0  0  0  0  0  0  0
   61.0270   30.4090   47.5160 C   0  0  0  0  0  0  0  0  0  0  0  0
   59.4050   30.7130   50.9550 O   0  0  0  0  0  0  0  0  0  0  0  0
   58.5860   31.7700   50.5710 C   0  0  0  0  0  0  0  0  0  0  0  0
   59.0410   32.5010   49.3750 C   0  0  0  0  0  0  0  0  0  0  0  0
   58.1050   32.6720   48.4070 N   0  0  0  0  0  0  0  0  0  0  0  0
   58.2900   33.3200   47.2700 C   0  0  0  0  0  0  0  0  0  0  0  0
   57.2810   33.4610   46.3390 C   0  0  0  0  0  0  0  0  0  0  0  0
   57.4370   34.1460   45.1500 C   0  0  0  0  0  0  0  0  0  0  0  0
   58.6830   34.7020   44.9220 C   0  0  0  0  0  0  0  0  0  0  0  0
   59.6920   34.5610   45.8500 C   0  0  0  0  0  0  0  0  0  0  0  0
   59.5160   33.8760   47.0190 C   0  0  0  0  0  0  0  0  0  0  0  0
   60.4880   33.7130   47.9900 C   0  0  0  0  0  0  0  0  0  0  0  0
   61.6130   34.2230   47.7560 O   0  0  0  0  0  0  0  0  0  0  0  0
   60.2340   33.0290   49.1520 N   0  0  0  0  0  0  0  0  0  0  0  0
   62.1921   29.3466   49.6526 H   0  0  0  0  0  0  0  0  0  0  0  0
   60.7880   28.4412   50.2671 H   0  0  0  0  0  0  0  0  0  0  0  0
   58.8106   28.4019   49.0698 H   0  0  0  0  0  0  0  0  0  0  0  0
   57.4468   28.7023   46.9817 H   0  0  0  0  0  0  0  0  0  0  0  0
   56.8960   28.5340   45.4322 H   0  0  0  0  0  0  0  0  0  0  0  0
   55.4924   28.9478   43.4306 H   0  0  0  0  0  0  0  0  0  0  0  0
   55.9694   30.7497   41.8591 H   0  0  0  0  0  0  0  0  0  0  0  0
   57.9302   32.2787   42.2148 H   0  0  0  0  0  0  0  0  0  0  0  0
   59.3651   31.8879   44.2264 H   0  0  0  0  0  0  0  0  0  0  0  0
   60.6532   31.1790   45.5625 H   0  0  0  0  0  0  0  0  0  0  0  0
   62.0105   30.8835   47.6482 H   0  0  0  0  0  0  0  0  0  0  0  0
   57.5827   31.3685   50.3656 H   0  0  0  0  0  0  0  0  0  0  0  0
   58.6028   32.4922   51.4006 H   0  0  0  0  0  0  0  0  0  0  0  0
   56.3035   33.0049   46.5548 H   0  0  0  0  0  0  0  0  0  0  0  0
   56.6160   34.2440   44.4245 H   0  0  0  0  0  0  0  0  0  0  0  0
   58.8698   35.2608   43.9931 H   0  0  0  0  0  0  0  0  0  0  0  0
   60.6721   35.0153   45.6426 H   0  0  0  0  0  0  0  0  0  0  0  0
   60.9890   32.9410   49.8540 H   0  0  0  0  0  0  0  0  0  0  0  0
  1  2  2  0
  2  3  1  0
  3  4  1  0
  4  5  2  0
  5  6  1  0
  6  7  2  0
  7  8  1  0
  8  9  2  0
  9 10  1  0
 10 11  2  0
 11 12  1  0
 12 13  2  0
  7 14  1  0
 14 15  2  0
  2 16  1  0
 16 17  1  0
 17 18  1  0
 18 19  2  0
 19 20  1  0
 20 21  2  0
 21 22  1  0
 22 23  2  0
 23 24  1  0
 24 25  2  0
 25 26  1  0
 26 27  2  0
 26 28  1  0
 15  4  1  0
 28 18  1  0
 13  8  1  0
 25 20  1  0
  3 29  1  0
  3 30  1  0
  5 31  1  0
  6 32  1  0
  9 33  1  0
 10 34  1  0
 11 35  1  0
 12 36  1  0
 13 37  1  0
 14 38  1  0
 15 39  1  0
 17 40  1  0
 17 41  1  0
 21 42  1  0
 22 43  1  0
 23 44  1  0
 24 45  1  0
 28 46  1  0
M  END
>  <smiles>  (78) 
O=C(Cc1ccc(-c2ccccc2)cc1)OCc1nc2ccccc2c(=O)[nH]1

>  <score_type>  (78) 
oracle

>  <origin>  (78) 
adg

>  <m_score__min__energy>  (78) 
-9.6600000000000001

>  <m_primary>  (78) 
energy

$$$$
78:0
     RDKit          3D

 59 62  0  0  0  0  0  0  0  0999 V2000
   61.2115   28.5356   46.2889 H   0  0  0  0  0  0  0  0  0  0  0  0
   60.3350   28.0490   45.8360 C   0  0  0  0  0  0  0  0  0  0  0  0
   60.3798   26.9865   45.5549 H   0  0  0  0  0  0  0  0  0  0  0  0
   59.2090   28.7530   45.6260 C   0  0  0  0  0  0  0  0  0  0  0  0
   58.0210   28.2610   45.0590 C   0  0  0  0  0  0  0  0  0  0  0  0
   57.6180   27.0010   44.8030 C   0  0  0  0  0  0  0  0  0  0  0  0
   57.6427   26.6705   43.7541 H   0  0  0  0  0  0  0  0  0  0  0  0
   57.1480   26.0280   45.8010 C   0  0  0  0  0  0  0  0  0  0  0  0
   57.8960   25.0060   46.2510 N   0  0  0  0  0  0  0  0  0  0  0  0
   57.0430   24.3160   47.0380 C   0  0  0  0  0  0  0  0  0  0  0  0
   57.3840   23.2780   47.6630 O   0  0  0  0  0  0  0  0  0  0  0  0
   55.7900   24.8170   47.0930 N   0  0  0  0  0  0  0  0  0  0  0  0
   55.8680   25.8930   46.2930 C   0  0  0  0  0  0  0  0  0  0  0  0
   54.7880   26.7140   45.9960 O   0  0  0  0  0  0  0  0  0  0  0  0
   57.2360   29.3630   44.7850 C   0  0  0  0  0  0  0  0  0  0  0  0
   56.2514   29.3601   44.2945 H   0  0  0  0  0  0  0  0  0  0  0  0
   57.9210   30.4670   45.2430 C   0  0  0  0  0  0  0  0  0  0  0  0
   57.3960   31.8690   45.1560 C   0  0  0  0  0  0  0  0  0  0  0  0
   57.2465   32.2681   46.1701 H   0  0  0  0  0  0  0  0  0  0  0  0
   58.1193   32.4986   44.6171 H   0  0  0  0  0  0  0  0  0  0  0  0
   56.4371   31.8687   44.6171 H   0  0  0  0  0  0  0  0  0  0  0  0
   59.1060   30.1040   45.7940 N   0  0  0  0  0  0  0  0  0  0  0  0
   60.0990   31.0340   46.3680 C   0  0  0  0  0  0  0  0  0  0  0  0
   61.1026   30.7342   46.0321 H   0  0  0  0  0  0  0  0  0  0  0  0
   59.8527   32.0497   46.0249 H   0  0  0  0  0  0  0  0  0  0  0  0
   60.0680   31.0300   47.8850 C   0  0  0  0  0  0  0  0  0  0  0  0
   60.3960   29.8370   48.5510 C   0  0  0  0  0  0  0  0  0  0  0  0
   60.6253   28.9334   47.9671 H   0  0  0  0  0  0  0  0  0  0  0  0
   60.4340   29.7860   49.9410 C   0  0  0  0  0  0  0  0  0  0  0  0
   60.7184   28.8518   50.4474 H   0  0  0  0  0  0  0  0  0  0  0  0
   60.1140   30.9110   50.6920 C   0  0  0  0  0  0  0  0  0  0  0  0
   60.1811   30.8708   51.7892 H   0  0  0  0  0  0  0  0  0  0  0  0
   59.7070   32.0950   50.0650 C   0  0  0  0  0  0  0  0  0  0  0  0
   59.3040   33.5080   51.1190 S   0  0  0  0  0  0  0  0  0  0  0  0
   57.8400   32.8200   52.0100 C   0  0  1  0  0  0  0  0  0  0  0  0
   57.1129   33.6444   52.0513 H   0  0  0  0  0  0  0  0  0  0  0  0
   57.1430   31.6790   51.2420 C   0  0  0  0  0  0  0  0  0  0  0  0
   57.8984   30.9597   50.8926 H   0  0  0  0  0  0  0  0  0  0  0  0
   56.6033   32.0989   50.3804 H   0  0  0  0  0  0  0  0  0  0  0  0
   56.1460   30.9630   52.1630 C   0  0  0  0  0  0  0  0  0  0  0  0
   55.6345   30.1788   51.5856 H   0  0  0  0  0  0  0  0  0  0  0  0
   55.4400   31.7182   52.5387 H   0  0  0  0  0  0  0  0  0  0  0  0
   56.8030   30.3330   53.3460 N   0  0  1  0  0  0  0  0  0  0  0  0
   56.1690   30.4700   54.1700 H   0  0  0  0  0  0  0  0  0  0  0  0
   56.9460   28.8790   53.1550 C   0  0  0  0  0  0  0  0  0  0  0  0
   56.9947   28.3834   54.1358 H   0  0  0  0  0  0  0  0  0  0  0  0
   56.0812   28.4962   52.5933 H   0  0  0  0  0  0  0  0  0  0  0  0
   57.8688   28.6720   52.5933 H   0  0  0  0  0  0  0  0  0  0  0  0
   58.1220   30.9250   53.6980 C   0  0  0  0  0  0  0  0  0  0  0  0
   58.8978   30.4639   53.0691 H   0  0  0  0  0  0  0  0  0  0  0  0
   58.3085   30.7311   54.7646 H   0  0  0  0  0  0  0  0  0  0  0  0
   58.1450   32.4450   53.4800 C   0  0  0  0  0  0  0  0  0  0  0  0
   59.1415   32.8276   53.7455 H   0  0  0  0  0  0  0  0  0  0  0  0
   57.3669   32.8931   54.1154 H   0  0  0  0  0  0  0  0  0  0  0  0
   59.7060   32.1780   48.6450 C   0  0  0  0  0  0  0  0  0  0  0  0
   59.4040   33.4890   47.9510 C   0  0  0  0  0  0  0  0  0  0  0  0
   59.2241   34.2699   48.7046 H   0  0  0  0  0  0  0  0  0  0  0  0
   60.2594   33.7765   47.3221 H   0  0  0  0  0  0  0  0  0  0  0  0
   58.5090   33.3733   47.3221 H   0  0  0  0  0  0  0  0  0  0  0  0
  1  2  1  0
  2  3  1  0
  2  4  2  0
  4  5  1  0
  5  6  2  0
  6  7  1  0
  6  8  1  0
  8  9  1  0
  9 10  1  0
 10 11  2  0
 10 12  1  0
 12 13  1  0
 13 14  1  0
  5 15  1  0
 15 16  1  0
 15 17  2  0
 17 18  1  0
 18 19  1  0
 18 20  1  0
 18 21  1  0
 17 22  1  0
 22 23  1  0
 23 24  1  0
 23 25  1  0
 23 26  1  0
 26 27  2  0
 27 28  1  0
 27 29  1  0
 29 30  1  0
 29 31  2  0
 31 32  1  0
 31 33  1  0
 33 34  1  0
 34 35  1  0
 35 36  1  6
 35 37  1  0
 37 38  1  0
 37 39  1  0
 37 40  1  0
 40 41  1  0
 40 42  1  0
 40 43  1  0
 43 44  1  6
 43 45  1  0
 45 46  1  0
 45 47  1  0
 45 48  1  0
 43 49  1  0
 49 50  1  0
 49 51  1  0
 49 52  1  0
 52 53  1  0
 52 54  1  0
 33 55  2  0
 55 56  1  0
 56 57  1  0
 56 58  1  0
 56 59  1  0
 22  4  1  0
 55 26  1  0
 13  8  2  0
 52 35  1  0
M  CHG  4   9  -1  12  -1  14  -1  43   1
M  END
>  <UniqueID>  (79) 
74

>  <SMILES>  (79) 
C=c1/c(=C\c2[n-]c(=O)[n-]c2[O-])cc(C)n1Cc1cccc(SC2CC[NH+](C)CC2)c1C

>  <Energy>  (79) 
141.32444155412756

>  <Genealogy>  (79) 
C=c1c(=Cc2[n-]c(=O)[n-]c2[O-])cc(C)n1Cc1cccc(SC2CC[NH+](C)CC2)c1C (protonated)
C=c1/c(=C\c2[n-]c(=O)[n-]c2[O-])cc(C)n1Cc1cccc(SC2CC[NH+](C)CC2)c1C (cis-trans isomerization)
C=c1/c(=C\c2[n-]c(=O)[n-]c2[O-])cc(C)n1Cc1cccc(SC2CC[NH+](C)CC2)c1C (3D coordinates assigned)
C=c1/c(=C\c2[n-]c(=O)[n-]c2[O-])cc(C)n1Cc1cccc(SC2CC[NH+](C)CC2)c1C (nonaromatic ring conformer: 141.32444155412756 kcal/mol)

>  <smiles>  (79) 
C=c1c(=Cc2[nH]c(=O)[nH]c2O)cc(C)n1Cc1cccc(SC2CCN(C)CC2)c1C

>  <score_type>  (79) 
oracle

>  <origin>  (79) 
adg

>  <m_score__min__energy>  (79) 
-15.82

>  <m_primary>  (79) 
energy

$$$$
79:0
     RDKit          3D

 38 40  0  0  0  0  0  0  0  0999 V2000
   59.3170   35.1960   46.2770 C   0  0  0  0  0  0  0  0  0  0  0  0
   59.3880   33.7030   46.3430 C   0  0  0  0  0  0  0  0  0  0  0  0
   60.5560   33.0630   46.7600 C   0  0  0  0  0  0  0  0  0  0  0  0
   60.5980   31.6710   46.7880 C   0  0  0  0  0  0  0  0  0  0  0  0
   59.4640   30.9410   46.4010 C   0  0  0  0  0  0  0  0  0  0  0  0
   59.4640   29.5010   46.3940 N   0  0  0  0  0  0  0  0  0  0  0  0
   59.9650   28.7400   45.2430 C   0  0  0  0  0  0  0  0  0  0  0  0
   58.9770   27.6240   44.9040 C   0  0  0  0  0  0  0  0  0  0  0  0
   58.6020   26.8500   46.1020 N   0  0  0  0  0  0  0  0  0  0  0  0
   57.9100   25.5900   45.9620 C   0  0  0  0  0  0  0  0  0  0  0  0
   57.9690   24.7400   46.8920 O   0  0  0  0  0  0  0  0  0  0  0  0
   57.1770   25.2330   44.6920 C   0  0  0  0  0  0  0  0  0  0  0  0
   55.8050   24.7010   44.9800 C   0  0  0  0  0  0  0  0  0  0  0  0
   55.2870   23.1270   44.6740 S   0  0  0  0  0  0  0  0  0  0  0  0
   53.7700   23.4110   45.3430 C   0  0  0  0  0  0  0  0  0  0  0  0
   52.8540   22.5520   45.4110 O   0  0  0  0  0  0  0  0  0  0  0  0
   53.6340   24.6700   45.8090 N   0  0  0  0  0  0  0  0  0  0  0  0
   54.7700   25.3870   45.6120 C   0  0  0  0  0  0  0  0  0  0  0  0
   54.8800   26.7100   46.0230 O   0  0  0  0  0  0  0  0  0  0  0  0
   59.1040   27.2600   47.4230 C   0  0  0  0  0  0  0  0  0  0  0  0
   59.0160   28.7830   47.5950 C   0  0  0  0  0  0  0  0  0  0  0  0
   58.3620   31.6190   45.9790 N   0  0  0  0  0  0  0  0  0  0  0  0
   58.3240   32.9540   45.9520 N   0  0  0  0  0  0  0  0  0  0  0  0
   59.2974   35.6076   47.2969 H   0  0  0  0  0  0  0  0  0  0  0  0
   60.1978   35.5817   45.7428 H   0  0  0  0  0  0  0  0  0  0  0  0
   58.4036   35.4964   45.7428 H   0  0  0  0  0  0  0  0  0  0  0  0
   61.4343   33.6517   47.0634 H   0  0  0  0  0  0  0  0  0  0  0  0
   61.5112   31.1492   47.1103 H   0  0  0  0  0  0  0  0  0  0  0  0
   60.0720   29.4109   44.3778 H   0  0  0  0  0  0  0  0  0  0  0  0
   60.9436   28.3023   45.4894 H   0  0  0  0  0  0  0  0  0  0  0  0
   58.0705   28.0696   44.4684 H   0  0  0  0  0  0  0  0  0  0  0  0
   59.4604   26.9410   44.1899 H   0  0  0  0  0  0  0  0  0  0  0  0
   57.0872   26.1331   44.0661 H   0  0  0  0  0  0  0  0  0  0  0  0
   57.7486   24.4499   44.1723 H   0  0  0  0  0  0  0  0  0  0  0  0
   58.5008   26.7741   48.2040 H   0  0  0  0  0  0  0  0  0  0  0  0
   60.1582   26.9575   47.5073 H   0  0  0  0  0  0  0  0  0  0  0  0
   57.9711   29.0568   47.8030 H   0  0  0  0  0  0  0  0  0  0  0  0
   59.6763   29.0689   48.4270 H   0  0  0  0  0  0  0  0  0  0  0  0
  1  2  1  0
  2  3  2  0
  3  4  1  0
  4  5  2  0
  5  6  1  0
  6  7  1  0
  7  8  1  0
  8  9  1  0
  9 10  1  0
 10 11  2  0
 10 12  1  0
 12 13  1  0
 13 14  1  0
 14 15  1  0
 15 16  2  0
 15 17  1  0
 17 18  1  0
 18 19  1  0
  9 20  1  0
 20 21  1  0
  5 22  1  0
 22 23  2  0
 23  2  1  0
 21  6  1  0
 18 13  2  0
  1 24  1  0
  1 25  1  0
  1 26  1  0
  3 27  1  0
  4 28  1  0
  7 29  1  0
  7 30  1  0
  8 31  1  0
  8 32  1  0
 12 33  1  0
 12 34  1  0
 20 35  1  0
 20 36  1  0
 21 37  1  0
 21 38  1  0
M  CHG  2  17  -1  19  -1
M  END
>  <UniqueID>  (80) 
75

>  <SMILES>  (80) 
Cc1ccc(N2CCN(C(=O)Cc3sc(=O)[n-]c3[O-])CC2)nn1

>  <Energy>  (80) 
73.68834265039142

>  <Genealogy>  (80) 
Cc1ccc(N2CCN(C(=O)Cc3sc(=O)[n-]c3[O-])CC2)nn1 (protonated)
Cc1ccc(N2CCN(C(=O)Cc3sc(=O)[n-]c3[O-])CC2)nn1 (3D coordinates assigned)
Cc1ccc(N2CCN(C(=O)Cc3sc(=O)[n-]c3[O-])CC2)nn1 (nonaromatic ring conformer: 73.68834265039142 kcal/mol)

>  <smiles>  (80) 
Cc1ccc(N2CCN(C(=O)Cc3sc(=O)[nH]c3O)CC2)nn1

>  <score_type>  (80) 
oracle

>  <origin>  (80) 
adg

>  <m_score__min__energy>  (80) 
-13.25

>  <m_primary>  (80) 
energy

$$$$
80:0
     RDKit          3D

 35 37  0  0  0  0  0  0  0  0999 V2000
   57.6510   31.6810   53.6080 H   0  0  0  0  0  0  0  0  0  0  0  0
   57.8330   32.3770   52.8950 O   0  0  0  0  0  0  0  0  0  0  0  0
   58.6580   32.1060   51.8060 C   0  0  0  0  0  0  0  0  0  0  0  0
   58.9050   33.0920   50.8380 C   0  0  0  0  0  0  0  0  0  0  0  0
   58.4407   34.0843   50.9368 H   0  0  0  0  0  0  0  0  0  0  0  0
   59.7420   32.8180   49.7440 C   0  0  0  0  0  0  0  0  0  0  0  0
   59.9730   33.8620   48.6870 C   0  0  0  0  0  0  0  0  0  0  0  0
   61.0338   33.8570   48.3962 H   0  0  0  0  0  0  0  0  0  0  0  0
   59.7003   34.8488   49.0894 H   0  0  0  0  0  0  0  0  0  0  0  0
   59.1290   33.5720   47.4860 C   0  0  0  0  0  0  0  0  0  0  0  0
   58.1310   32.2290   47.3040 S   0  0  0  0  0  0  0  0  0  0  0  0
   57.7030   32.6550   45.7250 C   0  0  0  0  0  0  0  0  0  0  0  0
   56.9230   31.9790   44.9340 N   0  0  0  0  0  0  0  0  0  0  0  0
   57.3010   30.8360   44.1510 C   0  0  0  0  0  0  0  0  0  0  0  0
   57.4970   30.9920   42.9170 O   0  0  0  0  0  0  0  0  0  0  0  0
   57.3760   29.4740   44.7350 C   0  0  0  0  0  0  0  0  0  0  0  0
   58.6300   28.8850   44.9800 C   0  0  0  0  0  0  0  0  0  0  0  0
   59.5493   29.4346   44.7293 H   0  0  0  0  0  0  0  0  0  0  0  0
   58.7170   27.6080   45.5390 C   0  0  0  0  0  0  0  0  0  0  0  0
   59.7022   27.1533   45.7195 H   0  0  0  0  0  0  0  0  0  0  0  0
   57.5550   26.9080   45.8690 C   0  0  0  0  0  0  0  0  0  0  0  0
   57.6259   25.9024   46.3091 H   0  0  0  0  0  0  0  0  0  0  0  0
   56.3020   27.4830   45.6410 C   0  0  0  0  0  0  0  0  0  0  0  0
   55.1500   26.7790   45.9730 O   0  0  0  0  0  0  0  0  0  0  0  0
   56.2070   28.7630   45.0770 C   0  0  0  0  0  0  0  0  0  0  0  0
   54.9490   29.3110   44.8440 O   0  0  0  0  0  0  0  0  0  0  0  0
   58.3290   33.7820   45.3220 N   0  0  0  0  0  0  0  0  0  0  0  0
   59.1230   34.2950   46.2980 C   0  0  0  0  0  0  0  0  0  0  0  0
   59.7153   35.2114   46.1592 H   0  0  0  0  0  0  0  0  0  0  0  0
   60.3120   31.5420   49.6140 C   0  0  0  0  0  0  0  0  0  0  0  0
   60.9536   31.3137   48.7502 H   0  0  0  0  0  0  0  0  0  0  0  0
   60.0670   30.5600   50.5790 C   0  0  0  0  0  0  0  0  0  0  0  0
   60.5235   29.5644   50.4771 H   0  0  0  0  0  0  0  0  0  0  0  0
   59.2430   30.8410   51.6730 C   0  0  0  0  0  0  0  0  0  0  0  0
   59.0050   29.8580   52.6280 O   0  0  0  0  0  0  0  0  0  0  0  0
  1  2  1  0
  2  3  1  0
  3  4  2  0
  4  5  1  0
  4  6  1  0
  6  7  1  0
  7  8  1  0
  7  9  1  0
  7 10  1  0
 10 11  1  0
 11 12  1  0
 12 13  2  0
 13 14  1  0
 14 15  2  0
 14 16  1  0
 16 17  2  0
 17 18  1  0
 17 19  1  0
 19 20  1  0
 19 21  2  0
 21 22  1  0
 21 23  1  0
 23 24  1  0
 23 25  2  0
 25 26  1  0
 12 27  1  0
 27 28  1  0
 28 29  1  0
  6 30  2  0
 30 31  1  0
 30 32  1  0
 32 33  1  0
 32 34  2  0
 34 35  1  0
 34  3  1  0
 28 10  2  0
 25 16  1  0
M  CHG  4  24  -1  26  -1  27  -1  35  -1
M  END
>  <UniqueID>  (81) 
76

>  <SMILES>  (81) 
O=C(/N=c1/[n-]cc(Cc2ccc([O-])c(O)c2)s1)c1cccc([O-])c1[O-]

>  <Energy>  (81) 
75.94698848744963

>  <Genealogy>  (81) 
O=C(N=c1[n-]cc(Cc2ccc([O-])c(O)c2)s1)c1cccc([O-])c1[O-] (protonated)
O=C(/N=c1/[n-]cc(Cc2ccc([O-])c(O)c2)s1)c1cccc([O-])c1[O-] (cis-trans isomerization)
O=C(/N=c1/[n-]cc(Cc2ccc([O-])c(O)c2)s1)c1cccc([O-])c1[O-] (3D coordinates assigned)
O=C(/N=c1/[n-]cc(Cc2ccc([O-])c(O)c2)s1)c1cccc([O-])c1[O-] (optimized conformer: 75.94698848744963 kcal/mol)

>  <smiles>  (81) 
O=C(N=c1[nH]cc(Cc2ccc(O)c(O)c2)s1)c1cccc(O)c1O

>  <score_type>  (81) 
oracle

>  <origin>  (81) 
adg

>  <m_score__min__energy>  (81) 
-17.57

>  <m_primary>  (81) 
energy

$$$$
81:0
     RDKit          3D

 56 59  0  0  0  0  0  0  0  0999 V2000
   55.0440   30.1650   45.5980 H   0  0  0  0  0  0  0  0  0  0  0  0
   55.1500   29.3560   44.9980 O   0  0  0  0  0  0  0  0  0  0  0  0
   56.1400   28.4110   45.2490 C   0  0  0  0  0  0  0  0  0  0  0  0
   55.8890   27.1470   45.6280 N   0  0  0  0  0  0  0  0  0  0  0  0
   57.1290   26.6230   45.7380 C   0  0  0  0  0  0  0  0  0  0  0  0
   57.3320   25.4290   46.0780 O   0  0  0  0  0  0  0  0  0  0  0  0
   58.1340   27.4780   45.4510 N   0  0  0  0  0  0  0  0  0  0  0  0
   57.4960   28.6240   45.1500 C   0  0  0  0  0  0  0  0  0  0  0  0
   58.1350   29.8910   44.7320 C   0  0  0  0  0  0  0  0  0  0  0  0
   58.3652   30.0098   43.6629 H   0  0  0  0  0  0  0  0  0  0  0  0
   58.4600   30.9150   45.5520 C   0  0  0  0  0  0  0  0  0  0  0  0
   58.8870   30.8290   46.8720 C   0  0  0  0  0  0  0  0  0  0  0  0
   59.0600   29.9072   47.4468 H   0  0  0  0  0  0  0  0  0  0  0  0
   59.0520   32.1220   47.3220 C   0  0  0  0  0  0  0  0  0  0  0  0
   59.5870   32.4580   48.6540 C   0  0  0  0  0  0  0  0  0  0  0  0
   59.0690   33.4180   49.2860 O   0  0  0  0  0  0  0  0  0  0  0  0
   60.6810   31.7280   49.2380 N   0  0  0  0  0  0  0  0  0  0  0  0
   60.7780   31.6350   50.7030 C   0  0  0  0  0  0  0  0  0  0  0  0
   60.8655   32.6491   51.1200 H   0  0  0  0  0  0  0  0  0  0  0  0
   59.8731   31.1333   51.0764 H   0  0  0  0  0  0  0  0  0  0  0  0
   61.9960   30.8120   51.1370 C   0  0  0  0  0  0  0  0  0  0  0  0
   62.1543   30.9390   52.2181 H   0  0  0  0  0  0  0  0  0  0  0  0
   61.8143   29.7518   50.9071 H   0  0  0  0  0  0  0  0  0  0  0  0
   63.1960   31.2630   50.4130 N   0  0  0  0  0  0  0  0  0  0  0  0
   64.4580   31.4000   51.1050 C   0  0  0  0  0  0  0  0  0  0  0  0
   64.5360   31.1390   52.3360 O   0  0  0  0  0  0  0  0  0  0  0  0
   65.6870   31.9060   50.3910 C   0  0  0  0  0  0  0  0  0  0  0  0
   65.8297   31.0115   49.7669 H   0  0  0  0  0  0  0  0  0  0  0  0
   65.7340   33.4090   50.1360 C   0  0  0  0  0  0  0  0  0  0  0  0
   66.2143   33.7975   49.2259 H   0  0  0  0  0  0  0  0  0  0  0  0
   64.9846   34.2125   50.0838 H   0  0  0  0  0  0  0  0  0  0  0  0
   66.5800   32.8010   51.2400 C   0  0  0  0  0  0  0  0  0  0  0  0
   67.6732   32.7499   51.1295 H   0  0  0  0  0  0  0  0  0  0  0  0
   66.6967   32.9829   52.3186 H   0  0  0  0  0  0  0  0  0  0  0  0
   63.1140   31.5170   48.9630 C   0  0  0  0  0  0  0  0  0  0  0  0
   63.3019   32.5848   48.7771 H   0  0  0  0  0  0  0  0  0  0  0  0
   63.8672   30.8909   48.4623 H   0  0  0  0  0  0  0  0  0  0  0  0
   61.7380   31.1500   48.4000 C   0  0  0  0  0  0  0  0  0  0  0  0
   61.6468   31.5428   47.3766 H   0  0  0  0  0  0  0  0  0  0  0  0
   61.6325   30.0551   48.3908 H   0  0  0  0  0  0  0  0  0  0  0  0
   58.7640   33.0120   46.3410 N   0  0  0  0  0  0  0  0  0  0  0  0
   58.8650   34.4780   46.4400 C   0  0  0  0  0  0  0  0  0  0  0  0
   58.3104   34.9335   45.6064 H   0  0  0  0  0  0  0  0  0  0  0  0
   58.4405   34.7933   47.4046 H   0  0  0  0  0  0  0  0  0  0  0  0
   60.3320   34.9370   46.3780 C   0  0  0  0  0  0  0  0  0  0  0  0
   60.4275   35.7428   45.6353 H   0  0  0  0  0  0  0  0  0  0  0  0
   60.6326   35.2982   47.3726 H   0  0  0  0  0  0  0  0  0  0  0  0
   61.1760   33.8620   46.0090 O   0  0  0  0  0  0  0  0  0  0  0  0
   62.3690   33.8980   46.7600 C   0  0  0  0  0  0  0  0  0  0  0  0
   62.1271   33.8907   47.8331 H   0  0  0  0  0  0  0  0  0  0  0  0
   62.9823   33.0180   46.5164 H   0  0  0  0  0  0  0  0  0  0  0  0
   62.9281   34.8134   46.5164 H   0  0  0  0  0  0  0  0  0  0  0  0
   58.4140   32.2820   45.2480 C   0  0  0  0  0  0  0  0  0  0  0  0
   58.1170   32.8170   44.0510 C   0  0  0  0  0  0  0  0  0  0  0  0
   58.1101   33.9095   43.9233 H   0  0  0  0  0  0  0  0  0  0  0  0
   57.8809   32.1622   43.1992 H   0  0  0  0  0  0  0  0  0  0  0  0
  1  2  1  0
  2  3  1  0
  3  4  1  0
  4  5  1  0
  5  6  2  0
  5  7  1  0
  7  8  1  0
  8  9  1  0
  9 10  1  0
  9 11  2  0
 11 12  1  0
 12 13  1  0
 12 14  2  0
 14 15  1  0
 15 16  2  0
 15 17  1  0
 17 18  1  0
 18 19  1  0
 18 20  1  0
 18 21  1  0
 21 22  1  0
 21 23  1  0
 21 24  1  0
 24 25  1  0
 25 26  2  0
 25 27  1  0
 27 28  1  0
 27 29  1  0
 29 30  1  0
 29 31  1  0
 29 32  1  0
 32 33  1  0
 32 34  1  0
 24 35  1  0
 35 36  1  0
 35 37  1  0
 35 38  1  0
 38 39  1  0
 38 40  1  0
 14 41  1  0
 41 42  1  0
 42 43  1  0
 42 44  1  0
 42 45  1  0
 45 46  1  0
 45 47  1  0
 45 48  1  0
 48 49  1  0
 49 50  1  0
 49 51  1  0
 49 52  1  0
 41 53  1  0
 53 54  2  0
 54 55  1  0
 54 56  1  0
  8  3  2  0
 53 11  1  0
 38 17  1  0
 32 27  1  0
M  CHG  2   4  -1   7  -1
M  END
>  <UniqueID>  (82) 
77

>  <SMILES>  (82) 
C=c1/c(=C/c2[n-]c(=O)[n-]c2O)cc(C(=O)N2CCN(C(=O)C3CC3)CC2)n1CCOC

>  <Energy>  (82) 
390.6152864703238

>  <Genealogy>  (82) 
C=c1c(=Cc2[n-]c(=O)[n-]c2O)cc(C(=O)N2CCN(C(=O)C3CC3)CC2)n1CCOC (protonated)
C=c1/c(=C/c2[n-]c(=O)[n-]c2O)cc(C(=O)N2CCN(C(=O)C3CC3)CC2)n1CCOC (cis-trans isomerization)
C=c1/c(=C/c2[n-]c(=O)[n-]c2O)cc(C(=O)N2CCN(C(=O)C3CC3)CC2)n1CCOC (3D coordinates assigned)
C=c1/c(=C/c2[n-]c(=O)[n-]c2O)cc(C(=O)N2CCN(C(=O)C3CC3)CC2)n1CCOC (nonaromatic ring conformer: 390.6152864703238 kcal/mol)

>  <smiles>  (82) 
C=c1c(=Cc2[nH]c(=O)[nH]c2O)cc(C(=O)N2CCN(C(=O)C3CC3)CC2)n1CCOC

>  <score_type>  (82) 
oracle

>  <origin>  (82) 
adg

>  <m_score__min__energy>  (82) 
-12.220000000000001

>  <m_primary>  (82) 
energy

$$$$
82:0
     RDKit          3D

 49 52  0  0  0  0  0  0  0  0999 V2000
   61.9660   31.2050   47.3290 C   0  0  0  0  0  0  0  0  0  0  0  0
   60.8570   30.5090   47.9890 N   0  0  0  0  0  0  0  0  0  0  0  0
   60.0470   30.9100   49.0210 C   0  0  0  0  0  0  0  0  0  0  0  0
   60.1920   31.9860   49.7450 N   0  0  0  0  0  0  0  0  0  0  0  0
   59.8260   33.3340   49.4340 C   0  0  0  0  0  0  0  0  0  0  0  0
   59.7110   34.1890   50.3520 O   0  0  0  0  0  0  0  0  0  0  0  0
   59.4650   33.6940   48.0570 C   0  0  0  0  0  0  0  0  0  0  0  0
   59.9370   34.7940   47.3500 C   0  0  0  0  0  0  0  0  0  0  0  0
   59.4040   34.8940   46.0600 C   0  0  0  0  0  0  0  0  0  0  0  0
   58.5320   33.8590   45.7370 C   0  0  0  0  0  0  0  0  0  0  0  0
   57.7550   33.7840   44.4840 C   0  0  0  0  0  0  0  0  0  0  0  0
   57.7460   32.7450   43.6360 C   0  0  0  0  0  0  0  0  0  0  0  0
   57.5160   31.3370   44.0150 C   0  0  0  0  0  0  0  0  0  0  0  0
   58.5880   30.4440   44.1880 C   0  0  0  0  0  0  0  0  0  0  0  0
   58.3450   29.1050   44.5110 C   0  0  0  0  0  0  0  0  0  0  0  0
   57.0320   28.6440   44.6410 C   0  0  0  0  0  0  0  0  0  0  0  0
   55.9610   29.5180   44.4380 C   0  0  0  0  0  0  0  0  0  0  0  0
   56.2010   30.8570   44.1160 C   0  0  0  0  0  0  0  0  0  0  0  0
   58.3830   32.8520   47.0830 S   0  0  0  0  0  0  0  0  0  0  0  0
   59.0160   30.0590   49.2370 N   0  0  0  0  0  0  0  0  0  0  0  0
   59.2020   29.0730   48.3460 C   0  0  0  0  0  0  0  0  0  0  0  0
   58.4320   27.9290   48.1640 C   0  0  0  0  0  0  0  0  0  0  0  0
   58.8210   27.0250   47.1490 C   0  0  0  0  0  0  0  0  0  0  0  0
   58.1040   25.8050   46.9200 N   0  0  0  0  0  0  0  0  0  0  0  0
   57.0520   25.5960   45.9690 C   0  0  0  0  0  0  0  0  0  0  0  0
   55.8590   25.6150   46.3710 O   0  0  0  0  0  0  0  0  0  0  0  0
   57.3260   25.2530   44.5340 C   0  0  0  0  0  0  0  0  0  0  0  0
   56.8560   23.4080   44.1790 Br  0  0  0  0  0  0  0  0  0  0  0  0
   59.9870   27.2830   46.3900 C   0  0  0  0  0  0  0  0  0  0  0  0
   60.7420   28.4520   46.6010 C   0  0  0  0  0  0  0  0  0  0  0  0
   60.3130   29.3350   47.5960 C   0  0  0  0  0  0  0  0  0  0  0  0
   62.6387   31.6272   48.0900 H   0  0  0  0  0  0  0  0  0  0  0  0
   62.5231   30.4942   46.7009 H   0  0  0  0  0  0  0  0  0  0  0  0
   61.5682   32.0157   46.7009 H   0  0  0  0  0  0  0  0  0  0  0  0
   60.6580   35.5144   47.7636 H   0  0  0  0  0  0  0  0  0  0  0  0
   59.6508   35.7124   45.3677 H   0  0  0  0  0  0  0  0  0  0  0  0
   57.1317   34.6524   44.2243 H   0  0  0  0  0  0  0  0  0  0  0  0
   57.9244   32.9594   42.5720 H   0  0  0  0  0  0  0  0  0  0  0  0
   59.6220   30.7998   44.0689 H   0  0  0  0  0  0  0  0  0  0  0  0
   59.1877   28.4144   44.6628 H   0  0  0  0  0  0  0  0  0  0  0  0
   56.8418   27.5928   44.9032 H   0  0  0  0  0  0  0  0  0  0  0  0
   54.9279   29.1521   44.5317 H   0  0  0  0  0  0  0  0  0  0  0  0
   55.3550   31.5379   43.9409 H   0  0  0  0  0  0  0  0  0  0  0  0
   58.2610   30.1360   49.9530 H   0  0  0  0  0  0  0  0  0  0  0  0
   57.5486   27.7339   48.7898 H   0  0  0  0  0  0  0  0  0  0  0  0
   56.7298   25.9104   43.8840 H   0  0  0  0  0  0  0  0  0  0  0  0
   58.3982   25.3932   44.3322 H   0  0  0  0  0  0  0  0  0  0  0  0
   60.3076   26.5605   45.6250 H   0  0  0  0  0  0  0  0  0  0  0  0
   61.6403   28.6638   46.0025 H   0  0  0  0  0  0  0  0  0  0  0  0
  1  2  1  0
  2  3  1  0
  3  4  2  3
  4  5  1  0
  5  6  2  0
  5  7  1  0
  7  8  2  0
  8  9  1  0
  9 10  2  0
 10 11  1  0
 11 12  2  3
 12 13  1  0
 13 14  2  0
 14 15  1  0
 15 16  2  0
 16 17  1  0
 17 18  2  0
 10 19  1  0
  3 20  1  0
 20 21  1  0
 21 22  2  0
 22 23  1  0
 23 24  1  0
 24 25  1  0
 25 26  2  0
 25 27  1  0
 27 28  1  0
 23 29  2  0
 29 30  1  0
 30 31  2  0
 31  2  1  0
 19  7  1  0
 31 21  1  0
 18 13  1  0
  1 32  1  0
  1 33  1  0
  1 34  1  0
  8 35  1  0
  9 36  1  0
 11 37  1  0
 12 38  1  0
 14 39  1  0
 15 40  1  0
 16 41  1  0
 17 42  1  0
 18 43  1  0
 20 44  1  0
 22 45  1  0
 27 46  1  0
 27 47  1  0
 29 48  1  0
 30 49  1  0
M  CHG  1  24  -1
M  END
>  <UniqueID>  (83) 
78

>  <SMILES>  (83) 
Cn1c(=NC(=O)c2ccc(C=Cc3ccccc3)s2)[nH]c2cc([N-]C(=O)CBr)ccc21

>  <Energy>  (83) 
142.0259724614922

>  <Genealogy>  (83) 
Cn1c(=NC(=O)c2ccc(C=Cc3ccccc3)s2)[nH]c2cc([N-]C(=O)CBr)ccc21 (protonated)
Cn1c(=NC(=O)c2ccc(C=Cc3ccccc3)s2)[nH]c2cc([N-]C(=O)CBr)ccc21 (3D coordinates assigned)
Cn1c(=NC(=O)c2ccc(C=Cc3ccccc3)s2)[nH]c2cc([N-]C(=O)CBr)ccc21 (optimized conformer: 142.0259724614922 kcal/mol)

>  <smiles>  (83) 
Cn1c(=NC(=O)c2ccc(C=Cc3ccccc3)s2)[nH]c2cc(NC(=O)CBr)ccc21

>  <score_type>  (83) 
oracle

>  <origin>  (83) 
adg

>  <m_score__min__energy>  (83) 
-12.19

>  <m_primary>  (83) 
energy

$$$$
83:0
     RDKit          3D

 61 65  0  0  0  0  0  0  0  0999 V2000
   58.5080   28.7840   48.7550 O   0  0  0  0  0  0  0  0  0  0  0  0
   59.6130   28.2570   49.0520 C   0  0  0  0  0  0  0  0  0  0  0  0
   60.2400   28.5730   50.3800 C   0  0  0  0  0  0  0  0  0  0  0  0
   61.5100   29.8690   50.1760 S   0  0  0  0  0  0  0  0  0  0  0  0
   60.3910   31.1110   49.5040 C   0  0  0  0  0  0  0  0  0  0  0  0
   59.6560   31.9360   50.2650 N   0  0  0  0  0  0  0  0  0  0  0  0
   59.0180   32.7740   49.4640 N   0  0  0  0  0  0  0  0  0  0  0  0
   59.3630   32.4390   48.2020 C   0  0  0  0  0  0  0  0  0  0  0  0
   58.9020   33.2290   47.0360 C   0  0  0  0  0  0  0  0  0  0  0  0
   59.7470   34.1020   46.3280 C   0  0  0  0  0  0  0  0  0  0  0  0
   59.2490   34.8050   45.2310 C   0  0  0  0  0  0  0  0  0  0  0  0
   57.9260   34.6220   44.8300 C   0  0  0  0  0  0  0  0  0  0  0  0
   57.1210   33.7200   45.5320 C   0  0  0  0  0  0  0  0  0  0  0  0
   57.6230   33.0490   46.6010 N   0  0  0  0  0  0  0  0  0  0  0  0
   60.2380   31.3960   48.1910 N   0  0  0  0  0  0  0  0  0  0  0  0
   60.9550   30.7670   47.0760 C   0  0  0  0  0  0  0  0  0  0  0  0
   60.0140   29.9770   46.1940 C   0  0  0  0  0  0  0  0  0  0  0  0
   58.6210   30.1910   46.2360 C   0  0  0  0  0  0  0  0  0  0  0  0
   57.7670   29.4450   45.4170 C   0  0  0  0  0  0  0  0  0  0  0  0
   58.2940   28.4860   44.5430 C   0  0  0  0  0  0  0  0  0  0  0  0
   59.6760   28.2820   44.4750 C   0  0  0  0  0  0  0  0  0  0  0  0
   60.5310   29.0360   45.2900 C   0  0  0  0  0  0  0  0  0  0  0  0
   60.2800   27.4480   48.0700 N   0  0  0  0  0  0  0  0  0  0  0  0
   59.6630   26.4480   47.2530 C   0  0  0  0  0  0  0  0  0  0  0  0
   58.2760   26.2880   47.2980 C   0  0  0  0  0  0  0  0  0  0  0  0
   57.6500   25.3350   46.4890 C   0  0  0  0  0  0  0  0  0  0  0  0
   58.4130   24.5120   45.6460 C   0  0  0  0  0  0  0  0  0  0  0  0
   57.7660   23.5990   44.7460 N   0  0  0  0  0  0  0  0  0  0  0  0
   56.7760   24.1320   43.7930 C   0  0  0  0  0  0  0  0  0  0  0  0
   56.0850   23.0320   42.9750 C   0  0  0  0  0  0  0  0  0  0  0  0
   55.9270   21.8460   43.7280 O   0  0  0  0  0  0  0  0  0  0  0  0
   57.2010   21.2970   43.9780 C   0  0  0  0  0  0  0  0  0  0  0  0
   57.9610   22.1600   44.9860 C   0  0  0  0  0  0  0  0  0  0  0  0
   59.8070   24.6400   45.6420 C   0  0  0  0  0  0  0  0  0  0  0  0
   60.4320   25.5900   46.4520 C   0  0  0  0  0  0  0  0  0  0  0  0
   59.4643   28.9287   51.0740 H   0  0  0  0  0  0  0  0  0  0  0  0
   60.7116   27.6645   50.7828 H   0  0  0  0  0  0  0  0  0  0  0  0
   59.6160   31.9630   51.3080 H   0  0  0  0  0  0  0  0  0  0  0  0
   60.7948   34.2298   46.6375 H   0  0  0  0  0  0  0  0  0  0  0  0
   59.8991   35.5029   44.6829 H   0  0  0  0  0  0  0  0  0  0  0  0
   57.5212   35.1799   43.9728 H   0  0  0  0  0  0  0  0  0  0  0  0
   56.0799   33.5535   45.2183 H   0  0  0  0  0  0  0  0  0  0  0  0
   61.4384   31.5501   46.4734 H   0  0  0  0  0  0  0  0  0  0  0  0
   61.7046   30.0767   47.4903 H   0  0  0  0  0  0  0  0  0  0  0  0
   58.2038   30.9482   46.9161 H   0  0  0  0  0  0  0  0  0  0  0  0
   56.6805   29.6117   45.4595 H   0  0  0  0  0  0  0  0  0  0  0  0
   57.6196   27.8920   43.9087 H   0  0  0  0  0  0  0  0  0  0  0  0
   60.0902   27.5326   43.7844 H   0  0  0  0  0  0  0  0  0  0  0  0
   61.6189   28.8888   45.2205 H   0  0  0  0  0  0  0  0  0  0  0  0
   57.6739   26.9144   47.9727 H   0  0  0  0  0  0  0  0  0  0  0  0
   56.5553   25.2297   46.5132 H   0  0  0  0  0  0  0  0  0  0  0  0
   56.0096   24.6856   44.3553 H   0  0  0  0  0  0  0  0  0  0  0  0
   57.3131   24.7819   43.0865 H   0  0  0  0  0  0  0  0  0  0  0  0
   55.0936   23.3902   42.6606 H   0  0  0  0  0  0  0  0  0  0  0  0
   56.7150   22.8046   42.1024 H   0  0  0  0  0  0  0  0  0  0  0  0
   57.0853   20.2812   44.3840 H   0  0  0  0  0  0  0  0  0  0  0  0
   57.7678   21.2633   43.0359 H   0  0  0  0  0  0  0  0  0  0  0  0
   57.6049   21.9185   45.9984 H   0  0  0  0  0  0  0  0  0  0  0  0
   59.0335   21.9420   44.8756 H   0  0  0  0  0  0  0  0  0  0  0  0
   60.4138   23.9879   44.9966 H   0  0  0  0  0  0  0  0  0  0  0  0
   61.5293   25.6661   46.4623 H   0  0  0  0  0  0  0  0  0  0  0  0
  1  2  2  0
  2  3  1  0
  3  4  1  0
  4  5  1  0
  5  6  2  0
  6  7  1  0
  7  8  2  0
  8  9  1  0
  9 10  2  0
 10 11  1  0
 11 12  2  0
 12 13  1  0
 13 14  2  0
  8 15  1  0
 15 16  1  0
 16 17  1  0
 17 18  2  0
 18 19  1  0
 19 20  2  0
 20 21  1  0
 21 22  2  0
  2 23  1  0
 23 24  1  0
 24 25  2  0
 25 26  1  0
 26 27  2  0
 27 28  1  0
 28 29  1  0
 29 30  1  0
 30 31  1  0
 31 32  1  0
 32 33  1  0
 27 34  1  0
 34 35  2  0
 15  5  1  0
 22 17  1  0
 35 24  1  0
 14  9  1  0
 33 28  1  0
  3 36  1  0
  3 37  1  0
  6 38  1  0
 10 39  1  0
 11 40  1  0
 12 41  1  0
 13 42  1  0
 16 43  1  0
 16 44  1  0
 18 45  1  0
 19 46  1  0
 20 47  1  0
 21 48  1  0
 22 49  1  0
 25 50  1  0
 26 51  1  0
 29 52  1  0
 29 53  1  0
 30 54  1  0
 30 55  1  0
 32 56  1  0
 32 57  1  0
 33 58  1  0
 33 59  1  0
 34 60  1  0
 35 61  1  0
M  CHG  2   6   1  23  -1
M  END
>  <UniqueID>  (84) 
79

>  <SMILES>  (84) 
O=C(CSc1[nH+]nc(-c2ccccn2)n1Cc1ccccc1)[N-]c1ccc(N2CCOCC2)cc1

>  <Energy>  (84) 
114.22362358999806

>  <Genealogy>  (84) 
O=C(CSc1[nH+]nc(-c2ccccn2)n1Cc1ccccc1)[N-]c1ccc(N2CCOCC2)cc1 (protonated)
O=C(CSc1[nH+]nc(-c2ccccn2)n1Cc1ccccc1)[N-]c1ccc(N2CCOCC2)cc1 (3D coordinates assigned)
O=C(CSc1[nH+]nc(-c2ccccn2)n1Cc1ccccc1)[N-]c1ccc(N2CCOCC2)cc1 (nonaromatic ring conformer: 114.22362358999806 kcal/mol)

>  <smiles>  (84) 
O=C(CSc1nnc(-c2ccccn2)n1Cc1ccccc1)Nc1ccc(N2CCOCC2)cc1

>  <score_type>  (84) 
oracle

>  <origin>  (84) 
adg

>  <m_score__min__energy>  (84) 
-9.3699999999999992

>  <m_primary>  (84) 
energy

$$$$
84:0
     RDKit          3D

 43 46  0  0  0  0  0  0  0  0999 V2000
   54.0180   26.3360   46.3870 H   0  0  0  0  0  0  0  0  0  0  0  0
   54.9360   26.4180   45.9690 O   0  0  0  0  0  0  0  0  0  0  0  0
   55.9500   25.5080   46.2530 C   0  0  0  0  0  0  0  0  0  0  0  0
   55.7670   24.4080   47.0010 N   0  0  0  0  0  0  0  0  0  0  0  0
   56.9790   23.8140   46.9640 C   0  0  0  0  0  0  0  0  0  0  0  0
   57.2210   22.7280   47.5520 O   0  0  0  0  0  0  0  0  0  0  0  0
   57.9100   24.4710   46.2370 N   0  0  0  0  0  0  0  0  0  0  0  0
   57.2560   25.5640   45.8090 C   0  0  0  0  0  0  0  0  0  0  0  0
   57.8400   26.5450   44.8840 C   0  0  0  0  0  0  0  0  0  0  0  0
   57.8853   26.2682   43.8204 H   0  0  0  0  0  0  0  0  0  0  0  0
   58.3250   27.7550   45.2270 C   0  0  0  0  0  0  0  0  0  0  0  0
   57.5920   28.9230   45.0970 C   0  0  0  0  0  0  0  0  0  0  0  0
   56.5784   29.0186   44.6805 H   0  0  0  0  0  0  0  0  0  0  0  0
   58.3790   29.9440   45.5910 C   0  0  0  0  0  0  0  0  0  0  0  0
   57.9790   31.3950   45.6540 C   0  0  1  0  0  0  0  0  0  0  0  0
   56.9155   31.3621   45.9332 H   0  0  0  0  0  0  0  0  0  0  0  0
   58.7910   32.1870   46.6780 C   0  0  0  0  0  0  0  0  0  0  0  0
   59.7567   31.6954   46.8670 H   0  0  0  0  0  0  0  0  0  0  0  0
   58.2734   32.2561   47.6462 H   0  0  0  0  0  0  0  0  0  0  0  0
   58.9950   33.4970   46.0780 N   0  0  0  0  0  0  0  0  0  0  0  0
   59.7950   34.5300   46.6800 C   0  0  0  0  0  0  0  0  0  0  0  0
   59.3690   35.7160   46.6950 O   0  0  0  0  0  0  0  0  0  0  0  0
   61.1110   34.2430   47.2800 C   0  0  0  0  0  0  0  0  0  0  0  0
   62.2480   33.8430   46.6020 C   0  0  0  0  0  0  0  0  0  0  0  0
   62.3603   33.7233   45.5143 H   0  0  0  0  0  0  0  0  0  0  0  0
   63.2140   33.6240   47.5640 C   0  0  0  0  0  0  0  0  0  0  0  0
   64.2519   33.3031   47.3916 H   0  0  0  0  0  0  0  0  0  0  0  0
   62.6240   33.8860   48.7840 C   0  0  0  0  0  0  0  0  0  0  0  0
   63.1284   33.8068   49.7584 H   0  0  0  0  0  0  0  0  0  0  0  0
   61.3430   34.2520   48.6070 N   0  0  0  0  0  0  0  0  0  0  0  0
   60.6610   34.4940   49.3600 H   0  0  0  0  0  0  0  0  0  0  0  0
   58.5850   33.5420   44.6830 C   0  0  0  0  0  0  0  0  0  0  0  0
   59.4210   33.8729   44.0493 H   0  0  0  0  0  0  0  0  0  0  0  0
   57.7584   34.2511   44.5284 H   0  0  0  0  0  0  0  0  0  0  0  0
   58.1760   32.1200   44.3200 C   0  0  0  0  0  0  0  0  0  0  0  0
   58.9662   31.6318   43.7307 H   0  0  0  0  0  0  0  0  0  0  0  0
   57.2617   32.1030   43.7086 H   0  0  0  0  0  0  0  0  0  0  0  0
   59.5690   29.4630   45.9970 N   0  0  0  0  0  0  0  0  0  0  0  0
   60.3630   30.0260   46.3810 H   0  0  0  0  0  0  0  0  0  0  0  0
   59.5650   28.1350   45.7620 C   0  0  0  0  0  0  0  0  0  0  0  0
   60.6570   27.3850   45.9430 C   0  0  0  0  0  0  0  0  0  0  0  0
   60.6213   26.3040   45.7424 H   0  0  0  0  0  0  0  0  0  0  0  0
   61.5911   27.8489   46.2925 H   0  0  0  0  0  0  0  0  0  0  0  0
  1  2  1  0
  2  3  1  0
  3  4  1  0
  4  5  1  0
  5  6  2  0
  5  7  1  0
  7  8  1  0
  8  9  1  0
  9 10  1  0
  9 11  2  0
 11 12  1  0
 12 13  1  0
 12 14  2  0
 14 15  1  0
 15 16  1  1
 15 17  1  0
 17 18  1  0
 17 19  1  0
 17 20  1  0
 20 21  1  0
 21 22  2  0
 21 23  1  0
 23 24  2  0
 24 25  1  0
 24 26  1  0
 26 27  1  0
 26 28  2  0
 28 29  1  0
 28 30  1  0
 30 31  1  0
 20 32  1  0
 32 33  1  0
 32 34  1  0
 32 35  1  0
 35 36  1  0
 35 37  1  0
 14 38  1  0
 38 39  1  0
 38 40  1  0
 40 41  2  0
 41 42  1  0
 41 43  1  0
  8  3  2  0
 40 11  1  0
 35 15  1  0
 30 23  1  0
M  CHG  2   4  -1   7  -1
M  END
>  <UniqueID>  (85) 
80

>  <SMILES>  (85) 
C=c1[nH]c([C@@H]2CCN(C(=O)c3ccc[nH]3)C2)c/c1=C/c1[n-]c(=O)[n-]c1O

>  <Energy>  (85) 
142.31973633514386

>  <Genealogy>  (85) 
C=c1[nH]c(C2CCN(C(=O)c3ccc[nH]3)C2)cc1=Cc1[n-]c(=O)[n-]c1O (protonated)
C=c1[nH]c([C@@H]2CCN(C(=O)c3ccc[nH]3)C2)cc1=Cc1[n-]c(=O)[n-]c1O (chirality)
C=c1[nH]c([C@@H]2CCN(C(=O)c3ccc[nH]3)C2)c/c1=C/c1[n-]c(=O)[n-]c1O (cis-trans isomerization)
C=c1[nH]c([C@@H]2CCN(C(=O)c3ccc[nH]3)C2)c/c1=C/c1[n-]c(=O)[n-]c1O (3D coordinates assigned)
C=c1[nH]c([C@@H]2CCN(C(=O)c3ccc[nH]3)C2)c/c1=C/c1[n-]c(=O)[n-]c1O (nonaromatic ring conformer: 142.31973633514386 kcal/mol)

>  <smiles>  (85) 
C=c1[nH]c(C2CCN(C(=O)c3ccc[nH]3)C2)cc1=Cc1[nH]c(=O)[nH]c1O

>  <score_type>  (85) 
oracle

>  <origin>  (85) 
adg

>  <m_score__min__energy>  (85) 
-12.859999999999999

>  <m_primary>  (85) 
energy

$$$$
85:0
     RDKit          3D

 54 57  0  0  0  0  0  0  0  0999 V2000
   57.0110   31.4840   41.8560 C   0  0  0  0  0  0  0  0  0  0  0  0
   57.3000   31.6280   43.1520 C   0  0  0  0  0  0  0  0  0  0  0  0
   58.1400   32.5870   43.6810 C   0  0  0  0  0  0  0  0  0  0  0  0
   58.1360   32.3710   45.0530 C   0  0  0  0  0  0  0  0  0  0  0  0
   58.8830   33.1390   46.0770 C   0  0  0  0  0  0  0  0  0  0  0  0
   58.7720   34.5400   46.1100 C   0  0  0  0  0  0  0  0  0  0  0  0
   59.4260   35.2800   47.0990 C   0  0  0  0  0  0  0  0  0  0  0  0
   60.1840   34.6320   48.0760 C   0  0  0  0  0  0  0  0  0  0  0  0
   60.3070   33.2370   48.0560 C   0  0  0  0  0  0  0  0  0  0  0  0
   61.0210   32.5390   49.1360 C   0  0  0  0  0  0  0  0  0  0  0  0
   62.2380   32.7940   49.3310 O   0  0  0  0  0  0  0  0  0  0  0  0
   60.3790   31.5350   49.9350 N   0  0  0  0  0  0  0  0  0  0  0  0
   60.7600   30.1240   49.9840 C   0  0  0  0  0  0  0  0  0  0  0  0
   60.2640   29.3880   48.7640 C   0  0  0  0  0  0  0  0  0  0  0  0
   59.3120   28.3650   48.8910 C   0  0  0  0  0  0  0  0  0  0  0  0
   58.7530   27.7760   47.7550 C   0  0  0  0  0  0  0  0  0  0  0  0
   59.1530   28.1830   46.4700 C   0  0  0  0  0  0  0  0  0  0  0  0
   58.5200   27.6010   45.2660 C   0  0  0  0  0  0  0  0  0  0  0  0
   59.1310   27.6190   44.1640 O   0  0  0  0  0  0  0  0  0  0  0  0
   57.2280   26.9860   45.3700 N   0  0  0  0  0  0  0  0  0  0  0  0
   56.9020   25.5930   45.2300 C   0  0  0  0  0  0  0  0  0  0  0  0
   57.8370   24.6630   44.7340 C   0  0  0  0  0  0  0  0  0  0  0  0
   57.4790   23.3240   44.5610 C   0  0  0  0  0  0  0  0  0  0  0  0
   56.1870   22.8990   44.8710 C   0  0  0  0  0  0  0  0  0  0  0  0
   55.2460   23.8120   45.3440 C   0  0  0  0  0  0  0  0  0  0  0  0
   55.5910   25.1620   45.5200 C   0  0  0  0  0  0  0  0  0  0  0  0
   54.5990   26.0850   45.9880 N   0  0  0  0  0  0  0  0  0  0  0  0
   60.1470   29.1700   46.3480 C   0  0  0  0  0  0  0  0  0  0  0  0
   60.6970   29.7680   47.4850 C   0  0  0  0  0  0  0  0  0  0  0  0
   59.6740   32.4960   47.0460 C   0  0  0  0  0  0  0  0  0  0  0  0
   57.3550   31.3500   45.3400 O   0  0  0  0  0  0  0  0  0  0  0  0
   56.8400   30.8790   44.2280 C   0  0  0  0  0  0  0  0  0  0  0  0
   56.0090   29.8360   44.1990 C   0  0  0  0  0  0  0  0  0  0  0  0
   56.3274   30.6861   41.5303 H   0  0  0  0  0  0  0  0  0  0  0  0
   57.4566   32.1633   41.1144 H   0  0  0  0  0  0  0  0  0  0  0  0
   58.6962   33.3605   43.1311 H   0  0  0  0  0  0  0  0  0  0  0  0
   58.1660   35.0577   45.3519 H   0  0  0  0  0  0  0  0  0  0  0  0
   59.3432   36.3768   47.1076 H   0  0  0  0  0  0  0  0  0  0  0  0
   60.6846   35.2171   48.8615 H   0  0  0  0  0  0  0  0  0  0  0  0
   61.8565   30.0487   50.0286 H   0  0  0  0  0  0  0  0  0  0  0  0
   60.3061   29.6690   50.8767 H   0  0  0  0  0  0  0  0  0  0  0  0
   59.0044   28.0252   49.8909 H   0  0  0  0  0  0  0  0  0  0  0  0
   57.9940   26.9876   47.8663 H   0  0  0  0  0  0  0  0  0  0  0  0
   58.8553   24.9935   44.4814 H   0  0  0  0  0  0  0  0  0  0  0  0
   58.2173   22.6033   44.1796 H   0  0  0  0  0  0  0  0  0  0  0  0
   55.9105   21.8422   44.7420 H   0  0  0  0  0  0  0  0  0  0  0  0
   54.2267   23.4730   45.5809 H   0  0  0  0  0  0  0  0  0  0  0  0
   54.7610   27.1160   45.9770 H   0  0  0  0  0  0  0  0  0  0  0  0
   53.6820   25.7410   46.3520 H   0  0  0  0  0  0  0  0  0  0  0  0
   60.4945   29.4739   45.3495 H   0  0  0  0  0  0  0  0  0  0  0  0
   61.4729   30.5401   47.3766 H   0  0  0  0  0  0  0  0  0  0  0  0
   59.7975   31.4035   47.0120 H   0  0  0  0  0  0  0  0  0  0  0  0
   55.6053   29.4809   43.2393 H   0  0  0  0  0  0  0  0  0  0  0  0
   55.7274   29.3310   45.1348 H   0  0  0  0  0  0  0  0  0  0  0  0
  1  2  2  0
  2  3  1  0
  3  4  2  0
  4  5  1  0
  5  6  2  0
  6  7  1  0
  7  8  2  0
  8  9  1  0
  9 10  1  0
 10 11  2  0
 10 12  1  0
 12 13  1  0
 13 14  1  0
 14 15  2  0
 15 16  1  0
 16 17  2  0
 17 18  1  0
 18 19  2  0
 18 20  1  0
 20 21  1  0
 21 22  2  0
 22 23  1  0
 23 24  2  0
 24 25  1  0
 25 26  2  0
 26 27  1  0
 17 28  1  0
 28 29  2  0
  9 30  2  0
  4 31  1  0
 31 32  1  0
 32 33  2  0
 32  2  1  0
 30  5  1  0
 29 14  1  0
 26 21  1  0
  1 34  1  0
  1 35  1  0
  3 36  1  0
  6 37  1  0
  7 38  1  0
  8 39  1  0
 13 40  1  0
 13 41  1  0
 15 42  1  0
 16 43  1  0
 22 44  1  0
 23 45  1  0
 24 46  1  0
 25 47  1  0
 27 48  1  0
 27 49  1  0
 28 50  1  0
 29 51  1  0
 30 52  1  0
 33 53  1  0
 33 54  1  0
M  CHG  2  12  -1  20  -1
M  END
>  <UniqueID>  (86) 
81

>  <SMILES>  (86) 
C=c1cc(-c2cccc(C(=O)[N-]Cc3ccc(C(=O)[N-]c4ccccc4N)cc3)c2)oc1=C

>  <Energy>  (86) 
87.90744435341702

>  <Genealogy>  (86) 
C=c1cc(-c2cccc(C(=O)[N-]Cc3ccc(C(=O)[N-]c4ccccc4N)cc3)c2)oc1=C (protonated)
C=c1cc(-c2cccc(C(=O)[N-]Cc3ccc(C(=O)[N-]c4ccccc4N)cc3)c2)oc1=C (3D coordinates assigned)
C=c1cc(-c2cccc(C(=O)[N-]Cc3ccc(C(=O)[N-]c4ccccc4N)cc3)c2)oc1=C (optimized conformer: 87.90744435341702 kcal/mol)

>  <smiles>  (86) 
C=c1cc(-c2cccc(C(=O)NCc3ccc(C(=O)Nc4ccccc4N)cc3)c2)oc1=C

>  <score_type>  (86) 
oracle

>  <origin>  (86) 
adg

>  <m_score__min__energy>  (86) 
-12.33

>  <m_primary>  (86) 
energy

$$$$
86:0
     RDKit          3D

 37 38  0  0  0  0  0  0  0  0999 V2000
   59.6350   32.7630   49.5420 O   0  0  0  0  0  0  0  0  0  0  0  0
   58.8710   31.8180   49.2070 C   0  0  0  0  0  0  0  0  0  0  0  0
   58.9630   31.2690   47.8070 C   0  0  0  0  0  0  0  0  0  0  0  0
   58.6430   32.3430   46.7970 C   0  0  0  0  0  0  0  0  0  0  0  0
   59.2690   33.5980   46.8980 C   0  0  0  0  0  0  0  0  0  0  0  0
   59.0110   34.5950   45.9530 C   0  0  0  0  0  0  0  0  0  0  0  0
   58.1330   34.3470   44.8950 C   0  0  0  0  0  0  0  0  0  0  0  0
   57.5160   33.0990   44.7760 C   0  0  0  0  0  0  0  0  0  0  0  0
   57.7690   32.0940   45.7180 C   0  0  0  0  0  0  0  0  0  0  0  0
   57.1530   30.8560   45.5720 O   0  0  0  0  0  0  0  0  0  0  0  0
   57.9640   31.2950   50.1880 N   0  0  0  0  0  0  0  0  0  0  0  0
   58.3220   30.6630   51.4550 C   0  0  0  0  0  0  0  0  0  0  0  0
   57.2630   30.9290   52.5350 C   0  0  0  0  0  0  0  0  0  0  0  0
   55.9230   30.2490   52.2370 C   0  0  0  0  0  0  0  0  0  0  0  0
   54.8550   30.8670   53.0130 N   0  0  0  0  0  0  0  0  0  0  0  0
   53.4970   30.4240   52.9530 C   0  0  0  0  0  0  0  0  0  0  0  0
   53.1520   29.3550   53.5260 O   0  0  0  0  0  0  0  0  0  0  0  0
   52.4990   31.2210   52.2260 C   0  0  0  0  0  0  0  0  0  0  0  0
   51.3240   31.7370   52.7420 C   0  0  0  0  0  0  0  0  0  0  0  0
   50.6420   32.4090   51.7920 N   0  0  0  0  0  0  0  0  0  0  0  0
   51.3980   32.3100   50.6810 C   0  0  0  0  0  0  0  0  0  0  0  0
   51.0380   32.8730   49.4640 O   0  0  0  0  0  0  0  0  0  0  0  0
   52.5500   31.5880   50.8990 C   0  0  0  0  0  0  0  0  0  0  0  0
   59.9832   30.8978   47.6299 H   0  0  0  0  0  0  0  0  0  0  0  0
   58.2373   30.4496   47.6974 H   0  0  0  0  0  0  0  0  0  0  0  0
   59.9659   33.7963   47.7256 H   0  0  0  0  0  0  0  0  0  0  0  0
   59.5000   35.5763   46.0424 H   0  0  0  0  0  0  0  0  0  0  0  0
   57.9273   35.1347   44.1552 H   0  0  0  0  0  0  0  0  0  0  0  0
   56.8289   32.9051   43.9392 H   0  0  0  0  0  0  0  0  0  0  0  0
   58.4105   29.5775   51.3007 H   0  0  0  0  0  0  0  0  0  0  0  0
   59.2773   31.0889   51.7957 H   0  0  0  0  0  0  0  0  0  0  0  0
   57.6410   30.5530   53.4972 H   0  0  0  0  0  0  0  0  0  0  0  0
   57.0837   32.0140   52.5611 H   0  0  0  0  0  0  0  0  0  0  0  0
   55.6965   30.3488   51.1652 H   0  0  0  0  0  0  0  0  0  0  0  0
   55.9938   29.1861   52.5114 H   0  0  0  0  0  0  0  0  0  0  0  0
   50.9916   31.6160   53.7836 H   0  0  0  0  0  0  0  0  0  0  0  0
   53.3406   31.3545   50.1707 H   0  0  0  0  0  0  0  0  0  0  0  0
  1  2  2  0
  2  3  1  0
  3  4  1  0
  4  5  2  0
  5  6  1  0
  6  7  2  0
  7  8  1  0
  8  9  2  0
  9 10  1  0
  2 11  1  0
 11 12  1  0
 12 13  1  0
 13 14  1  0
 14 15  1  0
 15 16  1  0
 16 17  2  0
 16 18  1  0
 18 19  2  0
 19 20  1  0
 20 21  1  0
 21 22  1  0
 21 23  2  0
  9  4  1  0
 23 18  1  0
  3 24  1  0
  3 25  1  0
  5 26  1  0
  6 27  1  0
  7 28  1  0
  8 29  1  0
 12 30  1  0
 12 31  1  0
 13 32  1  0
 13 33  1  0
 14 34  1  0
 14 35  1  0
 19 36  1  0
 23 37  1  0
M  CHG  5  10  -1  11  -1  15  -1  20  -1  22  -1
M  END
>  <UniqueID>  (87) 
82

>  <SMILES>  (87) 
O=C(Cc1ccccc1[O-])[N-]CCC[N-]C(=O)c1c[n-]c([O-])c1

>  <Energy>  (87) 
55.44120853522368

>  <Genealogy>  (87) 
O=C(Cc1ccccc1[O-])[N-]CCC[N-]C(=O)c1c[n-]c([O-])c1 (protonated)
O=C(Cc1ccccc1[O-])[N-]CCC[N-]C(=O)c1c[n-]c([O-])c1 (3D coordinates assigned)
O=C(Cc1ccccc1[O-])[N-]CCC[N-]C(=O)c1c[n-]c([O-])c1 (optimized conformer: 55.44120853522368 kcal/mol)

>  <smiles>  (87) 
O=C(Cc1ccccc1O)NCCCNC(=O)c1c[nH]c(O)c1

>  <score_type>  (87) 
oracle

>  <origin>  (87) 
adg

>  <m_score__min__energy>  (87) 
-18.41

>  <m_primary>  (87) 
energy

$$$$
87:0
     RDKit          3D

 61 64  0  0  0  0  0  0  0  0999 V2000
   53.8265   27.1881   54.0139 H   0  0  0  0  0  0  0  0  0  0  0  0
   53.4150   27.9890   53.3820 C   0  0  0  0  0  0  0  0  0  0  0  0
   52.3555   27.9675   53.0872 H   0  0  0  0  0  0  0  0  0  0  0  0
   54.2070   28.9940   52.9700 C   0  0  0  0  0  0  0  0  0  0  0  0
   53.8220   30.0760   52.1660 C   0  0  0  0  0  0  0  0  0  0  0  0
   52.5750   30.3550   51.7260 C   0  0  0  0  0  0  0  0  0  0  0  0
   52.1974   29.7647   50.8781 H   0  0  0  0  0  0  0  0  0  0  0  0
   51.6730   31.3870   52.2870 C   0  0  0  0  0  0  0  0  0  0  0  0
   51.4030   31.5740   53.5930 N   0  0  0  0  0  0  0  0  0  0  0  0
   50.5520   32.6260   53.5910 C   0  0  0  0  0  0  0  0  0  0  0  0
   50.0620   33.1030   54.6480 O   0  0  0  0  0  0  0  0  0  0  0  0
   50.2710   33.1270   52.3660 N   0  0  0  0  0  0  0  0  0  0  0  0
   50.9960   32.3370   51.5560 C   0  0  0  0  0  0  0  0  0  0  0  0
   51.0270   32.4750   50.1720 O   0  0  0  0  0  0  0  0  0  0  0  0
   54.9650   30.8460   51.9880 C   0  0  0  0  0  0  0  0  0  0  0  0
   55.0456   31.7707   51.3977 H   0  0  0  0  0  0  0  0  0  0  0  0
   55.9810   30.2300   52.6930 C   0  0  0  0  0  0  0  0  0  0  0  0
   57.3300   30.8230   52.8360 C   0  0  0  0  0  0  0  0  0  0  0  0
   57.6170   31.4450   53.8960 O   0  0  0  0  0  0  0  0  0  0  0  0
   58.3440   30.6440   51.8300 N   0  0  0  0  0  0  0  0  0  0  0  0
   58.2250   31.4330   50.5950 C   0  0  0  0  0  0  0  0  0  0  0  0
   57.2353   31.2555   50.1490 H   0  0  0  0  0  0  0  0  0  0  0  0
   58.3502   32.4967   50.8459 H   0  0  0  0  0  0  0  0  0  0  0  0
   59.3100   31.0390   49.5820 C   0  0  0  0  0  0  0  0  0  0  0  0
   58.9677   31.2816   48.5652 H   0  0  0  0  0  0  0  0  0  0  0  0
   60.2342   31.5943   49.8002 H   0  0  0  0  0  0  0  0  0  0  0  0
   59.5720   29.5910   49.6800 N   0  0  0  0  0  0  0  0  0  0  0  0
   60.3870   29.1260   48.5390 C   0  0  0  0  0  0  0  0  0  0  0  0
   61.2658   28.5895   48.9262 H   0  0  0  0  0  0  0  0  0  0  0  0
   59.7588   28.4688   47.9198 H   0  0  0  0  0  0  0  0  0  0  0  0
   60.8680   30.2950   47.6540 C   0  0  0  0  0  0  0  0  0  0  0  0
   60.8712   31.2115   48.2622 H   0  0  0  0  0  0  0  0  0  0  0  0
   61.8705   30.0278   47.2885 H   0  0  0  0  0  0  0  0  0  0  0  0
   59.9910   30.5390   46.4150 C   0  0  0  0  0  0  0  0  0  0  0  0
   60.5890   30.3391   45.5136 H   0  0  0  0  0  0  0  0  0  0  0  0
   59.1234   29.8659   46.4796 H   0  0  0  0  0  0  0  0  0  0  0  0
   59.4730   31.9530   46.3490 C   0  0  0  0  0  0  0  0  0  0  0  0
   58.1820   32.2200   45.8580 C   0  0  0  0  0  0  0  0  0  0  0  0
   57.5424   31.3922   45.5180 H   0  0  0  0  0  0  0  0  0  0  0  0
   57.7100   33.5340   45.8010 C   0  0  0  0  0  0  0  0  0  0  0  0
   56.7012   33.7391   45.4133 H   0  0  0  0  0  0  0  0  0  0  0  0
   58.5200   34.5900   46.2370 C   0  0  0  0  0  0  0  0  0  0  0  0
   58.1507   35.6246   46.1806 H   0  0  0  0  0  0  0  0  0  0  0  0
   59.7950   34.3320   46.7430 C   0  0  0  0  0  0  0  0  0  0  0  0
   60.4247   35.1624   47.0950 H   0  0  0  0  0  0  0  0  0  0  0  0
   60.2730   33.0190   46.8030 C   0  0  0  0  0  0  0  0  0  0  0  0
   61.2767   32.8186   47.2060 H   0  0  0  0  0  0  0  0  0  0  0  0
   60.1970   29.2350   50.9790 C   0  0  0  0  0  0  0  0  0  0  0  0
   59.9798   28.1785   51.1951 H   0  0  0  0  0  0  0  0  0  0  0  0
   61.2774   29.4205   50.8872 H   0  0  0  0  0  0  0  0  0  0  0  0
   59.6760   30.0970   52.1550 C   0  0  2  0  0  0  0  0  0  0  0  0
   60.3370   30.9634   52.3048 H   0  0  0  0  0  0  0  0  0  0  0  0
   59.7290   29.3110   53.4780 C   0  0  0  0  0  0  0  0  0  0  0  0
   59.6817   30.0129   54.3236 H   0  0  0  0  0  0  0  0  0  0  0  0
   58.8755   28.6189   53.5277 H   0  0  0  0  0  0  0  0  0  0  0  0
   60.6677   28.7397   53.5277 H   0  0  0  0  0  0  0  0  0  0  0  0
   55.5190   29.1080   53.3010 N   0  0  0  0  0  0  0  0  0  0  0  0
   56.2880   28.1330   54.0800 C   0  0  0  0  0  0  0  0  0  0  0  0
   56.1390   28.3219   55.1534 H   0  0  0  0  0  0  0  0  0  0  0  0
   55.9458   27.1166   53.8356 H   0  0  0  0  0  0  0  0  0  0  0  0
   57.3562   28.2290   53.8356 H   0  0  0  0  0  0  0  0  0  0  0  0
  1  2  1  0
  2  3  1  0
  2  4  2  0
  4  5  1  0
  5  6  2  0
  6  7  1  0
  6  8  1  0
  8  9  1  0
  9 10  1  0
 10 11  2  0
 10 12  1  0
 12 13  1  0
 13 14  1  0
  5 15  1  0
 15 16  1  0
 15 17  2  0
 17 18  1  0
 18 19  2  0
 18 20  1  0
 20 21  1  0
 21 22  1  0
 21 23  1  0
 21 24  1  0
 24 25  1  0
 24 26  1  0
 24 27  1  0
 27 28  1  0
 28 29  1  0
 28 30  1  0
 28 31  1  0
 31 32  1  0
 31 33  1  0
 31 34  1  0
 34 35  1  0
 34 36  1  0
 34 37  1  0
 37 38  2  0
 38 39  1  0
 38 40  1  0
 40 41  1  0
 40 42  2  0
 42 43  1  0
 42 44  1  0
 44 45  1  0
 44 46  2  0
 46 47  1  0
 27 48  1  0
 48 49  1  0
 48 50  1  0
 48 51  1  0
 51 52  1  1
 51 53  1  0
 53 54  1  0
 53 55  1  0
 53 56  1  0
 17 57  1  0
 57 58  1  0
 58 59  1  0
 58 60  1  0
 58 61  1  0
 57  4  1  0
 13  8  2  0
 51 20  1  0
 46 37  1  0
M  CHG  3   9  -1  12  -1  14  -1
M  END
>  <UniqueID>  (88) 
83

>  <SMILES>  (88) 
C=c1/c(=C/c2[n-]c(=O)[n-]c2[O-])cc(C(=O)N2CCN(CCCc3ccccc3)C[C@@H]2C)n1C

>  <Energy>  (88) 
137.77674539663676

>  <Genealogy>  (88) 
C=c1c(=Cc2[n-]c(=O)[n-]c2[O-])cc(C(=O)N2CCN(CCCc3ccccc3)CC2C)n1C (protonated)
C=c1c(=Cc2[n-]c(=O)[n-]c2[O-])cc(C(=O)N2CCN(CCCc3ccccc3)C[C@@H]2C)n1C (chirality)
C=c1/c(=C/c2[n-]c(=O)[n-]c2[O-])cc(C(=O)N2CCN(CCCc3ccccc3)C[C@@H]2C)n1C (cis-trans isomerization)
C=c1/c(=C/c2[n-]c(=O)[n-]c2[O-])cc(C(=O)N2CCN(CCCc3ccccc3)C[C@@H]2C)n1C (3D coordinates assigned)
C=c1/c(=C/c2[n-]c(=O)[n-]c2[O-])cc(C(=O)N2CCN(CCCc3ccccc3)C[C@@H]2C)n1C (nonaromatic ring conformer: 137.77674539663676 kcal/mol)

>  <smiles>  (88) 
C=c1c(=Cc2[nH]c(=O)[nH]c2O)cc(C(=O)N2CCN(CCCc3ccccc3)CC2C)n1C

>  <score_type>  (88) 
oracle

>  <origin>  (88) 
adg

>  <m_score__min__energy>  (88) 
-18.82

>  <m_primary>  (88) 
energy

$$$$
