0:0
     RDKit          3D

 43 45  0  0  0  0  0  0  0  0999 V2000
   55.1620   29.2170   44.8780 O   0  0  0  0  0  0  0  0  0  0  0  0
   56.2900   29.7580   44.7410 C   0  0  0  0  0  0  0  0  0  0  0  0
   57.4910   28.8990   44.4850 C   0  0  0  0  0  0  0  0  0  0  0  0
   58.5550   29.2730   45.4060 N   0  0  0  0  0  0  0  0  0  0  0  0
   58.8360   28.5570   46.6090 C   0  0  0  0  0  0  0  0  0  0  0  0
   59.1410   27.3340   46.5650 O   0  0  0  0  0  0  0  0  0  0  0  0
   58.7450   29.2570   47.9310 C   0  0  0  0  0  0  0  0  0  0  0  0
   59.7680   30.3710   48.0070 C   0  0  0  0  0  0  0  0  0  0  0  0
   60.8630   30.3130   47.1260 C   0  0  0  0  0  0  0  0  0  0  0  0
   61.8580   31.2880   47.1500 C   0  0  0  0  0  0  0  0  0  0  0  0
   61.7870   32.3410   48.0560 C   0  0  0  0  0  0  0  0  0  0  0  0
   60.7200   32.4260   48.9600 C   0  0  0  0  0  0  0  0  0  0  0  0
   60.6640   33.4910   49.8720 C   0  0  0  0  0  0  0  0  0  0  0  0
   59.6180   33.5770   50.7900 C   0  0  0  0  0  0  0  0  0  0  0  0
   58.6270   32.5970   50.8160 C   0  0  0  0  0  0  0  0  0  0  0  0
   58.6650   31.5310   49.9120 C   0  0  0  0  0  0  0  0  0  0  0  0
   59.7020   31.4310   48.9570 C   0  0  0  0  0  0  0  0  0  0  0  0
   56.3880   31.1850   44.8120 N   0  0  0  0  0  0  0  0  0  0  0  0
   57.4020   31.9740   44.1190 C   0  0  0  0  0  0  0  0  0  0  0  0
   58.0370   32.9410   45.0770 C   0  0  0  0  0  0  0  0  0  0  0  0
   59.0030   33.8600   44.6360 C   0  0  0  0  0  0  0  0  0  0  0  0
   59.5670   34.7730   45.5330 C   0  0  0  0  0  0  0  0  0  0  0  0
   59.1700   34.7730   46.8740 C   0  0  0  0  0  0  0  0  0  0  0  0
   58.2120   33.8570   47.3210 C   0  0  0  0  0  0  0  0  0  0  0  0
   57.6510   32.9420   46.4270 C   0  0  0  0  0  0  0  0  0  0  0  0
   57.2266   27.8424   44.6386 H   0  0  0  0  0  0  0  0  0  0  0  0
   57.8327   29.0424   43.4493 H   0  0  0  0  0  0  0  0  0  0  0  0
   57.7369   29.6813   48.0484 H   0  0  0  0  0  0  0  0  0  0  0  0
   58.9445   28.5324   48.7342 H   0  0  0  0  0  0  0  0  0  0  0  0
   60.9349   29.4843   46.4063 H   0  0  0  0  0  0  0  0  0  0  0  0
   62.7036   31.2247   46.4493 H   0  0  0  0  0  0  0  0  0  0  0  0
   62.5726   33.1109   48.0628 H   0  0  0  0  0  0  0  0  0  0  0  0
   61.4489   34.2616   49.8627 H   0  0  0  0  0  0  0  0  0  0  0  0
   59.5747   34.4201   51.4953 H   0  0  0  0  0  0  0  0  0  0  0  0
   57.8113   32.6626   51.5511 H   0  0  0  0  0  0  0  0  0  0  0  0
   57.8793   30.7619   49.9445 H   0  0  0  0  0  0  0  0  0  0  0  0
   58.1730   31.3024   43.7133 H   0  0  0  0  0  0  0  0  0  0  0  0
   56.9288   32.5335   43.2986 H   0  0  0  0  0  0  0  0  0  0  0  0
   59.3171   33.8618   43.5818 H   0  0  0  0  0  0  0  0  0  0  0  0
   60.3232   35.4914   45.1835 H   0  0  0  0  0  0  0  0  0  0  0  0
   59.6115   35.4939   47.5778 H   0  0  0  0  0  0  0  0  0  0  0  0
   57.9006   33.8572   48.3760 H   0  0  0  0  0  0  0  0  0  0  0  0
   56.9028   32.2183   46.7825 H   0  0  0  0  0  0  0  0  0  0  0  0
  1  2  2  0
  2  3  1  0
  3  4  1  0
  4  5  1  0
  5  6  2  0
  5  7  1  0
  7  8  1  0
  8  9  2  0
  9 10  1  0
 10 11  2  0
 11 12  1  0
 12 13  2  0
 13 14  1  0
 14 15  2  0
 15 16  1  0
 16 17  2  0
  2 18  1  0
 18 19  1  0
 19 20  1  0
 20 21  2  0
 21 22  1  0
 22 23  2  0
 23 24  1  0
 24 25  2  0
 17  8  1  0
 25 20  1  0
 17 12  1  0
  3 26  1  0
  3 27  1  0
  7 28  1  0
  7 29  1  0
  9 30  1  0
 10 31  1  0
 11 32  1  0
 13 33  1  0
 14 34  1  0
 15 35  1  0
 16 36  1  0
 19 37  1  0
 19 38  1  0
 21 39  1  0
 22 40  1  0
 23 41  1  0
 24 42  1  0
 25 43  1  0
M  CHG  2   4  -1  18  -1
M  END
>  <UniqueID>  (1) 
1

>  <SMILES>  (1) 
O=C(C[N-]C(=O)Cc1cccc2ccccc12)[N-]Cc1ccccc1

>  <Energy>  (1) 
40.23079980838332

>  <Genealogy>  (1) 
O=C(C[N-]C(=O)Cc1cccc2ccccc12)[N-]Cc1ccccc1 (protonated)
O=C(C[N-]C(=O)Cc1cccc2ccccc12)[N-]Cc1ccccc1 (3D coordinates assigned)
O=C(C[N-]C(=O)Cc1cccc2ccccc12)[N-]Cc1ccccc1 (optimized conformer: 40.23079980838332 kcal/mol)

>  <smiles>  (1) 
O=C(CNC(=O)Cc1cccc2ccccc12)NCc1ccccc1

>  <score_type>  (1) 
oracle

>  <origin>  (1) 
adg

>  <m_score__min__energy>  (1) 
-13.44

>  <m_primary>  (1) 
energy

$$$$
1:0
     RDKit          3D

 48 50  0  0  0  0  0  0  0  0999 V2000
   60.1800   29.1920   44.8550 C   0  0  0  0  0  0  0  0  0  0  0  0
   58.7320   29.3040   44.6280 N   0  0  0  0  0  0  0  0  0  0  0  0
   58.2830   30.3160   43.8200 C   0  0  0  0  0  0  0  0  0  0  0  0
   56.9230   30.5010   43.5850 C   0  0  0  0  0  0  0  0  0  0  0  0
   56.0030   29.6500   44.1860 C   0  0  0  0  0  0  0  0  0  0  0  0
   54.7700   29.8120   43.9800 O   0  0  0  0  0  0  0  0  0  0  0  0
   56.4500   28.6210   45.0160 C   0  0  0  0  0  0  0  0  0  0  0  0
   55.5220   27.7730   45.6170 O   0  0  0  0  0  0  0  0  0  0  0  0
   57.8330   28.4480   45.2360 C   0  0  0  0  0  0  0  0  0  0  0  0
   58.2800   27.2910   46.1170 C   0  0  0  0  0  0  0  0  0  0  0  0
   59.0620   27.7810   47.3130 C   0  0  0  0  0  0  0  0  0  0  0  0
   59.7250   26.8670   48.1480 C   0  0  0  0  0  0  0  0  0  0  0  0
   60.4450   27.3190   49.2570 C   0  0  0  0  0  0  0  0  0  0  0  0
   60.5000   28.6830   49.5510 C   0  0  0  0  0  0  0  0  0  0  0  0
   59.8210   29.6080   48.7420 C   0  0  0  0  0  0  0  0  0  0  0  0
   59.8780   31.0190   49.0080 N   0  0  0  0  0  0  0  0  0  0  0  0
   60.8810   31.8950   48.4670 C   0  0  0  0  0  0  0  0  0  0  0  0
   61.7490   31.4630   47.6610 O   0  0  0  0  0  0  0  0  0  0  0  0
   60.9670   33.3140   48.9490 C   0  0  0  0  0  0  0  0  0  0  0  0
   59.6070   34.0210   48.8610 C   0  0  0  0  0  0  0  0  0  0  0  0
   59.0310   33.9620   47.4680 C   0  0  0  0  0  0  0  0  0  0  0  0
   57.9310   33.1320   47.1880 C   0  0  0  0  0  0  0  0  0  0  0  0
   57.4360   33.0340   45.8840 C   0  0  0  0  0  0  0  0  0  0  0  0
   58.0390   33.7560   44.8510 C   0  0  0  0  0  0  0  0  0  0  0  0
   59.1370   34.5780   45.1190 C   0  0  0  0  0  0  0  0  0  0  0  0
   59.6330   34.6810   46.4220 C   0  0  0  0  0  0  0  0  0  0  0  0
   59.1140   29.1510   47.6200 C   0  0  0  0  0  0  0  0  0  0  0  0
   60.3815   29.1764   45.9363 H   0  0  0  0  0  0  0  0  0  0  0  0
   60.5518   28.2624   44.3993 H   0  0  0  0  0  0  0  0  0  0  0  0
   60.6903   30.0534   44.3993 H   0  0  0  0  0  0  0  0  0  0  0  0
   59.0098   30.9940   43.3488 H   0  0  0  0  0  0  0  0  0  0  0  0
   56.5795   31.3143   42.9288 H   0  0  0  0  0  0  0  0  0  0  0  0
   57.3923   26.7449   46.4688 H   0  0  0  0  0  0  0  0  0  0  0  0
   58.9314   26.6337   45.5223 H   0  0  0  0  0  0  0  0  0  0  0  0
   59.6773   25.7903   47.9280 H   0  0  0  0  0  0  0  0  0  0  0  0
   60.9702   26.5979   49.9006 H   0  0  0  0  0  0  0  0  0  0  0  0
   61.0772   29.0339   50.4192 H   0  0  0  0  0  0  0  0  0  0  0  0
   59.2750   31.3890   49.7780 H   0  0  0  0  0  0  0  0  0  0  0  0
   61.3040   33.3161   49.9961 H   0  0  0  0  0  0  0  0  0  0  0  0
   61.6791   33.8540   48.3077 H   0  0  0  0  0  0  0  0  0  0  0  0
   58.9073   33.5337   49.5560 H   0  0  0  0  0  0  0  0  0  0  0  0
   59.7552   35.0788   49.1239 H   0  0  0  0  0  0  0  0  0  0  0  0
   57.4580   32.5575   47.9981 H   0  0  0  0  0  0  0  0  0  0  0  0
   56.5714   32.3881   45.6713 H   0  0  0  0  0  0  0  0  0  0  0  0
   57.6490   33.6774   43.8255 H   0  0  0  0  0  0  0  0  0  0  0  0
   59.6114   35.1444   44.3040 H   0  0  0  0  0  0  0  0  0  0  0  0
   60.4983   35.3278   46.6291 H   0  0  0  0  0  0  0  0  0  0  0  0
   58.5945   29.8734   46.9732 H   0  0  0  0  0  0  0  0  0  0  0  0
  1  2  1  0
  2  3  1  0
  3  4  2  0
  4  5  1  0
  5  6  2  0
  5  7  1  0
  7  8  1  0
  7  9  2  0
  9 10  1  0
 10 11  1  0
 11 12  2  0
 12 13  1  0
 13 14  2  0
 14 15  1  0
 15 16  1  0
 16 17  1  0
 17 18  2  0
 17 19  1  0
 19 20  1  0
 20 21  1  0
 21 22  2  0
 22 23  1  0
 23 24  2  0
 24 25  1  0
 25 26  2  0
 15 27  2  0
  9  2  1  0
 27 11  1  0
 26 21  1  0
  1 28  1  0
  1 29  1  0
  1 30  1  0
  3 31  1  0
  4 32  1  0
 10 33  1  0
 10 34  1  0
 12 35  1  0
 13 36  1  0
 14 37  1  0
 16 38  1  0
 19 39  1  0
 19 40  1  0
 20 41  1  0
 20 42  1  0
 22 43  1  0
 23 44  1  0
 24 45  1  0
 25 46  1  0
 26 47  1  0
 27 48  1  0
M  CHG  1   8  -1
M  END
>  <UniqueID>  (2) 
2

>  <SMILES>  (2) 
Cn1ccc(=O)c([O-])c1Cc1cccc(NC(=O)CCc2ccccc2)c1

>  <Energy>  (2) 
52.046996703344234

>  <Genealogy>  (2) 
Cn1ccc(=O)c([O-])c1Cc1cccc(NC(=O)CCc2ccccc2)c1 (protonated)
Cn1ccc(=O)c([O-])c1Cc1cccc(NC(=O)CCc2ccccc2)c1 (3D coordinates assigned)
Cn1ccc(=O)c([O-])c1Cc1cccc(NC(=O)CCc2ccccc2)c1 (optimized conformer: 52.046996703344234 kcal/mol)

>  <smiles>  (2) 
Cn1ccc(=O)c(O)c1Cc1cccc(NC(=O)CCc2ccccc2)c1

>  <score_type>  (2) 
oracle

>  <origin>  (2) 
adg

>  <m_score__min__energy>  (2) 
-12.630000000000001

>  <m_primary>  (2) 
energy

$$$$
2:0
     RDKit          3D

 49 52  0  0  0  0  0  0  0  0999 V2000
   56.7460   30.9350   42.2820 C   0  0  0  0  0  0  0  0  0  0  0  0
   57.2880   30.0370   43.3680 C   0  0  0  0  0  0  0  0  0  0  0  0
   57.3910   28.6710   43.1160 C   0  0  0  0  0  0  0  0  0  0  0  0
   57.8790   27.8050   44.0880 C   0  0  0  0  0  0  0  0  0  0  0  0
   57.9710   26.5800   43.8000 O   0  0  0  0  0  0  0  0  0  0  0  0
   58.2530   28.2700   45.3280 N   0  0  0  0  0  0  0  0  0  0  0  0
   58.7480   27.2860   46.3210 C   0  0  0  0  0  0  0  0  0  0  0  0
   57.5800   26.6930   47.1150 C   0  0  0  0  0  0  0  0  0  0  0  0
   56.3450   26.7720   46.3390 N   0  0  0  0  0  0  0  0  0  0  0  0
   55.6060   25.6510   45.8410 C   0  0  0  0  0  0  0  0  0  0  0  0
   54.3550   25.6400   45.9870 O   0  0  0  0  0  0  0  0  0  0  0  0
   56.2520   24.5270   45.1360 C   0  0  0  0  0  0  0  0  0  0  0  0
   57.5460   24.0610   45.4250 C   0  0  0  0  0  0  0  0  0  0  0  0
   57.9780   23.0560   44.5720 C   0  0  0  0  0  0  0  0  0  0  0  0
   56.7660   22.7680   43.4450 S   0  0  0  0  0  0  0  0  0  0  0  0
   55.6770   23.9030   44.0320 C   0  0  0  0  0  0  0  0  0  0  0  0
   58.2050   29.6290   45.6020 C   0  0  0  0  0  0  0  0  0  0  0  0
   58.6490   30.1620   46.8400 C   0  0  0  0  0  0  0  0  0  0  0  0
   58.5750   31.5380   47.1160 C   0  0  0  0  0  0  0  0  0  0  0  0
   59.0190   32.0670   48.4280 C   0  0  0  0  0  0  0  0  0  0  0  0
   58.6440   31.4970   49.4880 O   0  0  0  0  0  0  0  0  0  0  0  0
   59.7940   33.2770   48.4890 N   0  0  0  0  0  0  0  0  0  0  0  0
   61.0320   33.4760   48.1250 C   0  0  0  0  0  0  0  0  0  0  0  0
   62.0070   33.5790   49.1270 C   0  0  0  0  0  0  0  0  0  0  0  0
   63.3420   33.7980   48.7810 C   0  0  0  0  0  0  0  0  0  0  0  0
   63.6960   33.9260   47.4760 N   0  0  0  0  0  0  0  0  0  0  0  0
   62.7760   33.8500   46.4800 C   0  0  0  0  0  0  0  0  0  0  0  0
   61.4290   33.6310   46.7800 C   0  0  0  0  0  0  0  0  0  0  0  0
   58.0760   32.4040   46.1390 C   0  0  0  0  0  0  0  0  0  0  0  0
   57.6500   31.9130   44.9100 C   0  0  0  0  0  0  0  0  0  0  0  0
   57.7070   30.5350   44.6200 C   0  0  0  0  0  0  0  0  0  0  0  0
   56.2289   31.7917   42.7387 H   0  0  0  0  0  0  0  0  0  0  0  0
   57.5760   31.2979   41.6580 H   0  0  0  0  0  0  0  0  0  0  0  0
   56.0382   30.3696   41.6580 H   0  0  0  0  0  0  0  0  0  0  0  0
   57.0830   28.2733   42.1378 H   0  0  0  0  0  0  0  0  0  0  0  0
   59.2772   26.4769   45.7963 H   0  0  0  0  0  0  0  0  0  0  0  0
   59.4302   27.7952   47.0176 H   0  0  0  0  0  0  0  0  0  0  0  0
   57.7964   25.6395   47.3458 H   0  0  0  0  0  0  0  0  0  0  0  0
   57.4540   27.2655   48.0458 H   0  0  0  0  0  0  0  0  0  0  0  0
   58.1581   24.4557   46.2493 H   0  0  0  0  0  0  0  0  0  0  0  0
   58.9466   22.5374   44.6245 H   0  0  0  0  0  0  0  0  0  0  0  0
   54.6813   24.1168   43.6163 H   0  0  0  0  0  0  0  0  0  0  0  0
   59.0605   29.4826   47.6010 H   0  0  0  0  0  0  0  0  0  0  0  0
   61.7206   33.4874   50.1851 H   0  0  0  0  0  0  0  0  0  0  0  0
   64.1085   33.8670   49.5669 H   0  0  0  0  0  0  0  0  0  0  0  0
   63.0926   33.9613   45.4324 H   0  0  0  0  0  0  0  0  0  0  0  0
   60.6832   33.5798   45.9731 H   0  0  0  0  0  0  0  0  0  0  0  0
   58.0198   33.4832   46.3442 H   0  0  0  0  0  0  0  0  0  0  0  0
   57.2627   32.6105   44.1527 H   0  0  0  0  0  0  0  0  0  0  0  0
  1  2  1  0
  2  3  2  0
  3  4  1  0
  4  5  2  0
  4  6  1  0
  6  7  1  0
  7  8  1  0
  8  9  1  0
  9 10  1  0
 10 11  2  0
 10 12  1  0
 12 13  1  0
 13 14  2  0
 14 15  1  0
 15 16  1  0
  6 17  1  0
 17 18  2  0
 18 19  1  0
 19 20  1  0
 20 21  2  0
 20 22  1  0
 22 23  2  3
 23 24  1  0
 24 25  2  0
 25 26  1  0
 26 27  1  0
 27 28  2  0
 19 29  2  0
 29 30  1  0
 30 31  2  0
 31  2  1  0
 16 12  2  0
 31 17  1  0
 28 23  1  0
  1 32  1  0
  1 33  1  0
  1 34  1  0
  3 35  1  0
  7 36  1  0
  7 37  1  0
  8 38  1  0
  8 39  1  0
 13 40  1  0
 14 41  1  0
 16 42  1  0
 18 43  1  0
 24 44  1  0
 25 45  1  0
 27 46  1  0
 28 47  1  0
 29 48  1  0
 30 49  1  0
M  CHG  2   9  -1  26  -1
M  END
>  <UniqueID>  (3) 
3

>  <SMILES>  (3) 
Cc1cc(=O)n(CC[N-]C(=O)c2ccsc2)c2cc(C(=O)N=c3cc[n-]cc3)ccc12

>  <Energy>  (3) 
100.73163352513453

>  <Genealogy>  (3) 
Cc1cc(=O)n(CC[N-]C(=O)c2ccsc2)c2cc(C(=O)N=c3cc[n-]cc3)ccc12 (protonated)
Cc1cc(=O)n(CC[N-]C(=O)c2ccsc2)c2cc(C(=O)N=c3cc[n-]cc3)ccc12 (3D coordinates assigned)
Cc1cc(=O)n(CC[N-]C(=O)c2ccsc2)c2cc(C(=O)N=c3cc[n-]cc3)ccc12 (optimized conformer: 100.73163352513453 kcal/mol)

>  <smiles>  (3) 
Cc1cc(=O)n(CCNC(=O)c2ccsc2)c2cc(C(=O)N=c3cc[nH]cc3)ccc12

>  <score_type>  (3) 
oracle

>  <origin>  (3) 
adg

>  <m_score__min__energy>  (3) 
-10.779999999999999

>  <m_primary>  (3) 
energy

$$$$
3:0
     RDKit          3D

 56 60  0  0  0  0  0  0  0  0999 V2000
   57.6570   33.3990   46.8090 O   0  0  0  0  0  0  0  0  0  0  0  0
   58.3280   33.2650   45.7500 C   0  0  0  0  0  0  0  0  0  0  0  0
   57.6270   32.8730   44.4860 C   0  0  0  0  0  0  0  0  0  0  0  0
   57.1950   31.4440   44.5640 C   0  0  0  0  0  0  0  0  0  0  0  0
   55.9120   31.0610   44.7480 N   0  0  0  0  0  0  0  0  0  0  0  0
   55.7620   29.7410   44.8380 N   0  0  0  0  0  0  0  0  0  0  0  0
   56.9290   29.0680   44.7370 C   0  0  0  0  0  0  0  0  0  0  0  0
   56.9910   27.7730   44.8030 N   0  0  0  0  0  0  0  0  0  0  0  0
   57.0650   27.0150   46.0180 C   0  0  0  0  0  0  0  0  0  0  0  0
   56.0450   26.3920   46.4150 O   0  0  0  0  0  0  0  0  0  0  0  0
   58.2960   27.0300   46.8820 C   0  0  0  0  0  0  0  0  0  0  0  0
   58.0740   27.7290   48.1180 O   0  0  0  0  0  0  0  0  0  0  0  0
   58.9990   28.7520   48.2010 C   0  0  0  0  0  0  0  0  0  0  0  0
   59.1650   29.6910   49.2140 C   0  0  0  0  0  0  0  0  0  0  0  0
   60.1750   30.6590   49.0510 C   0  0  0  0  0  0  0  0  0  0  0  0
   60.9840   30.6580   47.8900 C   0  0  0  0  0  0  0  0  0  0  0  0
   60.7820   29.6940   46.8840 C   0  0  0  0  0  0  0  0  0  0  0  0
   59.7710   28.7560   47.0810 C   0  0  0  0  0  0  0  0  0  0  0  0
   59.3640   27.7410   46.2370 O   0  0  0  0  0  0  0  0  0  0  0  0
   58.2320   30.1160   44.5030 S   0  0  0  0  0  0  0  0  0  0  0  0
   59.7280   33.5800   45.7230 N   0  0  0  0  0  0  0  0  0  0  0  0
   60.5520   33.7800   46.8850 C   0  0  0  0  0  0  0  0  0  0  0  0
   59.9950   34.0730   48.1440 C   0  0  0  0  0  0  0  0  0  0  0  0
   60.8200   34.2230   49.2630 C   0  0  0  0  0  0  0  0  0  0  0  0
   62.2090   34.0700   49.1440 C   0  0  0  0  0  0  0  0  0  0  0  0
   63.2520   34.2670   50.5560 S   0  0  0  0  0  0  0  0  0  0  0  0
   63.3930   35.7360   50.8720 O   0  0  0  0  0  0  0  0  0  0  0  0
   62.6040   33.5960   51.7400 O   0  0  0  0  0  0  0  0  0  0  0  0
   64.8350   33.5680   50.2910 N   0  0  0  0  0  0  0  0  0  0  0  0
   65.8030   34.1170   51.2500 C   0  0  0  0  0  0  0  0  0  0  0  0
   67.2060   33.5340   50.9680 C   0  0  0  0  0  0  0  0  0  0  0  0
   67.1710   32.4320   50.0800 O   0  0  0  0  0  0  0  0  0  0  0  0
   66.1950   31.5000   50.5060 C   0  0  0  0  0  0  0  0  0  0  0  0
   64.7780   32.1000   50.4020 C   0  0  0  0  0  0  0  0  0  0  0  0
   62.7640   33.7570   47.8980 C   0  0  0  0  0  0  0  0  0  0  0  0
   61.9410   33.6090   46.7790 C   0  0  0  0  0  0  0  0  0  0  0  0
   56.7439   33.5135   44.3454 H   0  0  0  0  0  0  0  0  0  0  0  0
   58.3159   32.9965   43.6374 H   0  0  0  0  0  0  0  0  0  0  0  0
   58.5453   25.9735   47.0599 H   0  0  0  0  0  0  0  0  0  0  0  0
   58.5292   29.6779   50.1115 H   0  0  0  0  0  0  0  0  0  0  0  0
   60.3357   31.4192   49.8297 H   0  0  0  0  0  0  0  0  0  0  0  0
   61.7744   31.4140   47.7729 H   0  0  0  0  0  0  0  0  0  0  0  0
   61.4006   29.6819   45.9745 H   0  0  0  0  0  0  0  0  0  0  0  0
   60.1630   33.7420   44.7870 H   0  0  0  0  0  0  0  0  0  0  0  0
   58.9056   34.1845   48.2481 H   0  0  0  0  0  0  0  0  0  0  0  0
   60.3775   34.4621   50.2412 H   0  0  0  0  0  0  0  0  0  0  0  0
   65.8355   35.2120   51.1500 H   0  0  0  0  0  0  0  0  0  0  0  0
   65.4958   33.8475   52.2713 H   0  0  0  0  0  0  0  0  0  0  0  0
   67.8325   34.3226   50.5257 H   0  0  0  0  0  0  0  0  0  0  0  0
   67.6161   33.1774   51.9243 H   0  0  0  0  0  0  0  0  0  0  0  0
   66.2534   30.6026   49.8726 H   0  0  0  0  0  0  0  0  0  0  0  0
   66.3909   31.2420   51.5572 H   0  0  0  0  0  0  0  0  0  0  0  0
   64.2782   31.6907   49.5117 H   0  0  0  0  0  0  0  0  0  0  0  0
   64.2180   31.8380   51.3118 H   0  0  0  0  0  0  0  0  0  0  0  0
   63.8518   33.6271   47.7995 H   0  0  0  0  0  0  0  0  0  0  0  0
   62.3859   33.3560   45.8053 H   0  0  0  0  0  0  0  0  0  0  0  0
  1  2  2  0
  2  3  1  0
  3  4  1  0
  4  5  2  0
  5  6  1  0
  6  7  1  0
  7  8  2  3
  8  9  1  0
  9 10  2  0
  9 11  1  0
 11 12  1  0
 12 13  1  0
 13 14  2  0
 14 15  1  0
 15 16  2  0
 16 17  1  0
 17 18  2  0
 18 19  1  0
  7 20  1  0
  2 21  1  0
 21 22  1  0
 22 23  2  0
 23 24  1  0
 24 25  2  0
 25 26  1  0
 26 27  2  0
 26 28  2  0
 26 29  1  0
 29 30  1  0
 30 31  1  0
 31 32  1  0
 32 33  1  0
 33 34  1  0
 25 35  1  0
 35 36  2  0
 20  4  1  0
 36 22  1  0
 19 11  1  0
 34 29  1  0
 18 13  1  0
  3 37  1  0
  3 38  1  0
 11 39  1  0
 14 40  1  0
 15 41  1  0
 16 42  1  0
 17 43  1  0
 21 44  1  0
 23 45  1  0
 24 46  1  0
 30 47  1  0
 30 48  1  0
 31 49  1  0
 31 50  1  0
 33 51  1  0
 33 52  1  0
 34 53  1  0
 34 54  1  0
 35 55  1  0
 36 56  1  0
M  CHG  1   6  -1
M  END
>  <UniqueID>  (4) 
4

>  <SMILES>  (4) 
O=C(Cc1n[n-]c(=NC(=O)C2Oc3ccccc3O2)s1)Nc1ccc(S(=O)(=O)N2CCOCC2)cc1

>  <Energy>  (4) 
137.80930021821877

>  <Genealogy>  (4) 
O=C(Cc1n[n-]c(=NC(=O)C2Oc3ccccc3O2)s1)Nc1ccc(S(=O)(=O)N2CCOCC2)cc1 (protonated)
O=C(Cc1n[n-]c(=NC(=O)C2Oc3ccccc3O2)s1)Nc1ccc(S(=O)(=O)N2CCOCC2)cc1 (3D coordinates assigned)
O=C(Cc1n[n-]c(=NC(=O)C2Oc3ccccc3O2)s1)Nc1ccc(S(=O)(=O)N2CCOCC2)cc1 (nonaromatic ring conformer: 137.80930021821877 kcal/mol)

>  <smiles>  (4) 
O=C(Cc1n[nH]c(=NC(=O)C2Oc3ccccc3O2)s1)Nc1ccc(S(=O)(=O)N2CCOCC2)cc1

>  <score_type>  (4) 
oracle

>  <origin>  (4) 
adg

>  <m_score__min__energy>  (4) 
-13.02

>  <m_primary>  (4) 
energy

$$$$
4:0
     RDKit          3D

 46 48  0  0  0  0  0  0  0  0999 V2000
   58.5370   31.7880   49.2520 H   0  0  0  0  0  0  0  0  0  0  0  0
   58.5560   32.7550   48.9520 O   0  0  0  0  0  0  0  0  0  0  0  0
   58.5490   33.1000   47.6020 C   0  0  0  0  0  0  0  0  0  0  0  0
   59.2250   34.2500   47.1800 C   0  0  0  0  0  0  0  0  0  0  0  0
   59.7454   34.8818   47.9148 H   0  0  0  0  0  0  0  0  0  0  0  0
   59.2400   34.5970   45.8270 C   0  0  0  0  0  0  0  0  0  0  0  0
   59.7800   35.4968   45.4971 H   0  0  0  0  0  0  0  0  0  0  0  0
   58.5700   33.8030   44.8910 C   0  0  0  0  0  0  0  0  0  0  0  0
   58.5983   34.0721   43.8248 H   0  0  0  0  0  0  0  0  0  0  0  0
   57.8620   32.6650   45.3050 C   0  0  0  0  0  0  0  0  0  0  0  0
   57.2010   31.8170   44.2910 C   0  0  0  0  0  0  0  0  0  0  0  0
   56.6465   32.3264   43.4891 H   0  0  0  0  0  0  0  0  0  0  0  0
   57.2230   30.4750   44.2700 C   0  0  0  0  0  0  0  0  0  0  0  0
   58.2070   29.9854   44.2255 H   0  0  0  0  0  0  0  0  0  0  0  0
   56.0290   29.6020   44.3020 C   0  0  0  0  0  0  0  0  0  0  0  0
   55.1290   29.7290   43.4310 O   0  0  0  0  0  0  0  0  0  0  0  0
   55.9320   28.5220   45.2380 N   0  0  0  0  0  0  0  0  0  0  0  0
   57.0200   27.7280   45.7320 C   0  0  0  0  0  0  0  0  0  0  0  0
   57.3650   26.4990   45.1410 C   0  0  0  0  0  0  0  0  0  0  0  0
   56.7749   26.1109   44.2977 H   0  0  0  0  0  0  0  0  0  0  0  0
   58.4540   25.7710   45.6220 C   0  0  0  0  0  0  0  0  0  0  0  0
   58.7167   24.8081   45.1597 H   0  0  0  0  0  0  0  0  0  0  0  0
   59.2120   26.2610   46.6890 C   0  0  0  0  0  0  0  0  0  0  0  0
   60.0717   25.6848   47.0618 H   0  0  0  0  0  0  0  0  0  0  0  0
   58.8780   27.4890   47.2870 C   0  0  0  0  0  0  0  0  0  0  0  0
   59.6500   28.0470   48.3610 N   0  0  0  0  0  0  0  0  0  0  0  0
   59.5550   29.3820   48.8760 C   0  0  0  0  0  0  0  0  0  0  0  0
   58.5160   29.7470   49.4900 O   0  0  0  0  0  0  0  0  0  0  0  0
   60.6480   30.3540   48.6070 C   0  0  0  0  0  0  0  0  0  0  0  0
   61.2770   30.9740   49.7030 C   0  0  0  0  0  0  0  0  0  0  0  0
   60.9380   30.7447   50.7240 H   0  0  0  0  0  0  0  0  0  0  0  0
   62.3240   31.8750   49.5120 C   0  0  0  0  0  0  0  0  0  0  0  0
   62.8047   32.3503   50.3797 H   0  0  0  0  0  0  0  0  0  0  0  0
   62.7620   32.1740   48.2240 C   0  0  0  0  0  0  0  0  0  0  0  0
   63.5941   32.8781   48.0759 H   0  0  0  0  0  0  0  0  0  0  0  0
   62.1460   31.5810   47.1220 C   0  0  0  0  0  0  0  0  0  0  0  0
   62.4990   31.8202   46.1080 H   0  0  0  0  0  0  0  0  0  0  0  0
   61.0790   30.6810   47.2920 C   0  0  0  0  0  0  0  0  0  0  0  0
   60.4270   30.1000   46.0630 C   0  0  0  0  0  0  0  0  0  0  0  0
   59.6373   29.3963   46.3648 H   0  0  0  0  0  0  0  0  0  0  0  0
   59.9865   30.9105   45.4637 H   0  0  0  0  0  0  0  0  0  0  0  0
   61.1815   29.5694   45.4637 H   0  0  0  0  0  0  0  0  0  0  0  0
   57.7990   28.2270   46.7830 C   0  0  0  0  0  0  0  0  0  0  0  0
   57.5613   29.2091   47.2177 H   0  0  0  0  0  0  0  0  0  0  0  0
   57.8770   32.3020   46.6650 C   0  0  0  0  0  0  0  0  0  0  0  0
   57.3595   31.3888   46.9940 H   0  0  0  0  0  0  0  0  0  0  0  0
  1  2  1  0
  2  3  1  0
  3  4  2  0
  4  5  1  0
  4  6  1  0
  6  7  1  0
  6  8  2  0
  8  9  1  0
  8 10  1  0
 10 11  1  0
 11 12  1  0
 11 13  2  0
 13 14  1  0
 13 15  1  0
 15 16  2  0
 15 17  1  0
 17 18  1  0
 18 19  2  0
 19 20  1  0
 19 21  1  0
 21 22  1  0
 21 23  2  0
 23 24  1  0
 23 25  1  0
 25 26  1  0
 26 27  1  0
 27 28  2  0
 27 29  1  0
 29 30  2  0
 30 31  1  0
 30 32  1  0
 32 33  1  0
 32 34  2  0
 34 35  1  0
 34 36  1  0
 36 37  1  0
 36 38  2  0
 38 39  1  0
 39 40  1  0
 39 41  1  0
 39 42  1  0
 25 43  2  0
 43 44  1  0
 10 45  2  0
 45 46  1  0
 45  3  1  0
 43 18  1  0
 38 29  1  0
M  CHG  2  17  -1  26  -1
M  END
>  <UniqueID>  (5) 
5

>  <SMILES>  (5) 
Cc1ccccc1C(=O)[N-]c1cccc([N-]C(=O)/C=C\c2cccc(O)c2)c1

>  <Energy>  (5) 
67.91704609930107

>  <Genealogy>  (5) 
Cc1ccccc1C(=O)[N-]c1cccc([N-]C(=O)C=Cc2cccc(O)c2)c1 (protonated)
Cc1ccccc1C(=O)[N-]c1cccc([N-]C(=O)/C=C\c2cccc(O)c2)c1 (cis-trans isomerization)
Cc1ccccc1C(=O)[N-]c1cccc([N-]C(=O)/C=C\c2cccc(O)c2)c1 (3D coordinates assigned)
Cc1ccccc1C(=O)[N-]c1cccc([N-]C(=O)/C=C\c2cccc(O)c2)c1 (optimized conformer: 67.91704609930107 kcal/mol)

>  <smiles>  (5) 
Cc1ccccc1C(=O)Nc1cccc(NC(=O)C=Cc2cccc(O)c2)c1

>  <score_type>  (5) 
oracle

>  <origin>  (5) 
adg

>  <m_score__min__energy>  (5) 
-11.869999999999999

>  <m_primary>  (5) 
energy

$$$$
5:0
     RDKit          3D

 59 62  0  0  1  0  0  0  0  0999 V2000
   54.1620   30.1190   53.6730 C   0  0  0  0  0  0  0  0  0  0  0  0
   55.5060   29.5600   54.1510 C   0  0  0  0  0  0  0  0  0  0  0  0
   56.5920   30.4870   53.8730 N   0  0  0  0  0  0  0  0  0  0  0  0
   57.2390   31.1140   54.9990 C   0  0  0  0  0  0  0  0  0  0  0  0
   58.6330   30.5760   55.2590 C   0  0  0  0  0  0  0  0  0  0  0  0
   56.9330   30.7100   52.5150 C   0  0  0  0  0  0  0  0  0  0  0  0
   56.2970   30.1120   51.6310 O   0  0  0  0  0  0  0  0  0  0  0  0
   58.0000   31.6150   52.0920 C   0  0  0  0  0  0  0  0  0  0  0  0
   57.8110   32.9640   52.3600 C   0  0  0  0  0  0  0  0  0  0  0  0
   58.7750   33.8770   52.0020 C   0  0  0  0  0  0  0  0  0  0  0  0
   59.9450   33.5100   51.3790 C   0  0  0  0  0  0  0  0  0  0  0  0
   60.1510   32.1360   51.1010 C   0  0  0  0  0  0  0  0  0  0  0  0
   61.3400   31.7140   50.6130 N   0  0  0  0  0  0  0  0  0  0  0  0
   62.3080   32.1950   50.0470 C   0  0  0  0  0  0  0  0  0  0  0  0
   63.5120   32.1950   50.6790 N   0  0  0  0  0  0  0  0  0  0  0  0
   64.6260   32.7130   50.1360 C   0  0  0  0  0  0  0  0  0  0  0  0
   64.5260   33.2530   48.9090 N   0  0  0  0  0  0  0  0  0  0  0  0
   63.3480   33.2630   48.2670 C   0  0  0  0  0  0  0  0  0  0  0  0
   63.3220   33.8330   47.0170 C   0  0  0  0  0  0  0  0  0  0  0  0
   62.1050   33.8350   46.3740 C   0  0  0  0  0  0  0  0  0  0  0  0
   60.9470   33.3300   46.8610 C   0  0  0  0  0  0  0  0  0  0  0  0
   59.7300   33.4150   46.0660 C   0  0  0  0  0  0  0  0  0  0  0  0
   59.1720   34.5880   45.6330 C   0  0  0  0  0  0  0  0  0  0  0  0
   58.0050   34.5960   44.8820 C   0  0  0  0  0  0  0  0  0  0  0  0
   57.4260   33.3760   44.5880 C   0  0  0  0  0  0  0  0  0  0  0  0
   57.9510   32.1700   45.0030 C   0  0  0  0  0  0  0  0  0  0  0  0
   57.1980   30.6280   44.6170 S   0  0  0  0  0  0  0  0  0  0  0  0
   57.4230   30.1550   42.9980 N   0  0  0  0  0  0  0  0  0  0  0  0
   57.6460   29.5350   45.5270 O   0  0  0  0  0  0  0  0  0  0  0  0
   55.7050   30.8240   44.8420 O   0  0  0  0  0  0  0  0  0  0  0  0
   59.1200   32.1950   45.7520 C   0  0  0  0  0  0  0  0  0  0  0  0
   60.9800   32.7510   48.1370 C   0  0  0  0  0  0  0  0  0  0  0  0
   62.1820   32.7420   48.7880 C   0  0  0  0  0  0  0  0  0  0  0  0
   59.1470   31.2120   51.4750 C   0  0  0  0  0  0  0  0  0  0  0  0
   53.5416   30.3770   54.5439 H   0  0  0  0  0  0  0  0  0  0  0  0
   54.3346   31.0199   53.0659 H   0  0  0  0  0  0  0  0  0  0  0  0
   53.6448   29.3614   53.0659 H   0  0  0  0  0  0  0  0  0  0  0  0
   55.4551   29.3823   55.2354 H   0  0  0  0  0  0  0  0  0  0  0  0
   55.7035   28.6216   53.6122 H   0  0  0  0  0  0  0  0  0  0  0  0
   57.3112   32.1942   54.8044 H   0  0  0  0  0  0  0  0  0  0  0  0
   56.6316   30.8959   55.8898 H   0  0  0  0  0  0  0  0  0  0  0  0
   58.8041   30.5099   56.3436 H   0  0  0  0  0  0  0  0  0  0  0  0
   58.7296   29.5760   54.8110 H   0  0  0  0  0  0  0  0  0  0  0  0
   59.3763   31.2518   54.8110 H   0  0  0  0  0  0  0  0  0  0  0  0
   56.8906   33.3024   52.8584 H   0  0  0  0  0  0  0  0  0  0  0  0
   58.6039   34.9411   52.2222 H   0  0  0  0  0  0  0  0  0  0  0  0
   60.6995   34.2619   51.1043 H   0  0  0  0  0  0  0  0  0  0  0  0
   63.6190   31.7790   51.6320 H   0  0  0  0  0  0  0  0  0  0  0  0
   65.5846   32.6960   50.6753 H   0  0  0  0  0  0  0  0  0  0  0  0
   64.2232   34.2635   46.5561 H   0  0  0  0  0  0  0  0  0  0  0  0
   62.0700   34.2885   45.3725 H   0  0  0  0  0  0  0  0  0  0  0  0
   59.6579   35.5421   45.8852 H   0  0  0  0  0  0  0  0  0  0  0  0
   57.5574   35.5385   44.5336 H   0  0  0  0  0  0  0  0  0  0  0  0
   56.5005   33.3663   43.9935 H   0  0  0  0  0  0  0  0  0  0  0  0
   58.0180   30.8370   42.5060 H   0  0  0  0  0  0  0  0  0  0  0  0
   57.7810   29.1790   42.9420 H   0  0  0  0  0  0  0  0  0  0  0  0
   59.5683   31.2526   46.0998 H   0  0  0  0  0  0  0  0  0  0  0  0
   60.0767   32.3219   48.5953 H   0  0  0  0  0  0  0  0  0  0  0  0
   59.2954   30.1429   51.2629 H   0  0  0  0  0  0  0  0  0  0  0  0
  1  2  1  0
  2  3  1  0
  3  4  1  0
  4  5  1  0
  3  6  1  0
  6  7  2  0
  6  8  1  0
  8  9  2  0
  9 10  1  0
 10 11  2  0
 11 12  1  0
 12 13  1  0
 13 14  2  0
 14 15  1  0
 15 16  1  0
 16 17  2  0
 17 18  1  0
 18 19  2  0
 19 20  1  0
 20 21  2  0
 21 22  1  0
 22 23  2  0
 23 24  1  0
 24 25  2  0
 25 26  1  0
 26 27  1  0
 27 28  1  0
 27 29  2  0
 27 30  2  0
 26 31  2  0
 21 32  1  0
 32 33  2  0
 12 34  2  0
 34  8  1  0
 33 14  1  0
 33 18  1  0
 31 22  1  0
  1 35  1  0
  1 36  1  0
  1 37  1  0
  2 38  1  0
  2 39  1  0
  4 40  1  0
  4 41  1  0
  5 42  1  0
  5 43  1  0
  5 44  1  0
  9 45  1  0
 10 46  1  0
 11 47  1  0
 15 48  1  0
 16 49  1  0
 19 50  1  0
 20 51  1  0
 23 52  1  0
 24 53  1  0
 25 54  1  0
 28 55  1  0
 28 56  1  0
 31 57  1  0
 32 58  1  0
 34 59  1  0
M  END
>  <smiles>  (6) 
CCN(CC)C(=O)c1cccc(N=c2[nH]cnc3ccc(-c4cccc(S(N)(=O)=O)c4)cc23)c1

>  <score_type>  (6) 
oracle

>  <origin>  (6) 
adg

>  <m_score__min__energy>  (6) 
-10.16

>  <m_primary>  (6) 
energy

$$$$
6:0
     RDKit          3D

 43 45  0  0  0  0  0  0  0  0999 V2000
   60.0700   30.7760   48.6750 C   0  0  0  0  0  0  0  0  0  0  0  0
   59.8940   30.0930   47.5450 C   0  0  0  0  0  0  0  0  0  0  0  0
   59.2430   30.6690   46.3490 C   0  0  0  0  0  0  0  0  0  0  0  0
   58.9690   32.0020   46.3720 N   0  0  0  0  0  0  0  0  0  0  0  0
   58.3360   32.6450   45.3560 C   0  0  0  0  0  0  0  0  0  0  0  0
   58.0910   34.0190   45.4850 O   0  0  0  0  0  0  0  0  0  0  0  0
   58.9870   34.9570   46.0130 C   0  0  0  0  0  0  0  0  0  0  0  0
   59.5920   35.7730   45.2660 O   0  0  0  0  0  0  0  0  0  0  0  0
   59.3150   34.9100   47.4710 C   0  0  0  0  0  0  0  0  0  0  0  0
   60.6780   34.3110   47.6730 C   0  0  0  0  0  0  0  0  0  0  0  0
   61.2270   34.2160   48.9640 C   0  0  0  0  0  0  0  0  0  0  0  0
   62.5090   33.6880   49.1460 C   0  0  0  0  0  0  0  0  0  0  0  0
   63.2550   33.2610   48.0450 C   0  0  0  0  0  0  0  0  0  0  0  0
   62.7210   33.3650   46.7570 C   0  0  0  0  0  0  0  0  0  0  0  0
   61.4390   33.8920   46.5690 C   0  0  0  0  0  0  0  0  0  0  0  0
   57.9100   31.9100   44.2410 C   0  0  0  0  0  0  0  0  0  0  0  0
   58.1940   30.5480   44.1680 C   0  0  0  0  0  0  0  0  0  0  0  0
   58.8920   29.9100   45.2020 C   0  0  0  0  0  0  0  0  0  0  0  0
   59.2660   28.4870   45.0260 C   0  0  0  0  0  0  0  0  0  0  0  0
   60.3800   28.2180   44.5000 O   0  0  0  0  0  0  0  0  0  0  0  0
   58.3870   27.3780   45.4760 C   0  0  0  0  0  0  0  0  0  0  0  0
   58.9250   26.1300   45.8430 C   0  0  0  0  0  0  0  0  0  0  0  0
   58.0860   25.0940   46.2660 C   0  0  0  0  0  0  0  0  0  0  0  0
   56.7040   25.2890   46.3190 C   0  0  0  0  0  0  0  0  0  0  0  0
   56.1570   26.5190   45.9470 C   0  0  0  0  0  0  0  0  0  0  0  0
   54.7820   26.7110   45.9970 O   0  0  0  0  0  0  0  0  0  0  0  0
   56.9920   27.5580   45.5230 C   0  0  0  0  0  0  0  0  0  0  0  0
   60.5611   30.2983   49.5356 H   0  0  0  0  0  0  0  0  0  0  0  0
   59.7243   31.8177   48.7475 H   0  0  0  0  0  0  0  0  0  0  0  0
   60.2492   29.0529   47.4996 H   0  0  0  0  0  0  0  0  0  0  0  0
   59.3017   35.9309   47.8803 H   0  0  0  0  0  0  0  0  0  0  0  0
   58.5683   34.2902   47.9889 H   0  0  0  0  0  0  0  0  0  0  0  0
   60.6463   34.5580   49.8334 H   0  0  0  0  0  0  0  0  0  0  0  0
   62.9310   33.6087   50.1587 H   0  0  0  0  0  0  0  0  0  0  0  0
   64.2620   32.8432   48.1912 H   0  0  0  0  0  0  0  0  0  0  0  0
   63.3102   33.0318   45.8899 H   0  0  0  0  0  0  0  0  0  0  0  0
   61.0254   33.9786   45.5534 H   0  0  0  0  0  0  0  0  0  0  0  0
   57.3557   32.4048   43.4299 H   0  0  0  0  0  0  0  0  0  0  0  0
   57.8677   29.9688   43.2916 H   0  0  0  0  0  0  0  0  0  0  0  0
   60.0121   25.9686   45.7968 H   0  0  0  0  0  0  0  0  0  0  0  0
   58.5153   24.1240   46.5574 H   0  0  0  0  0  0  0  0  0  0  0  0
   56.0461   24.4735   46.6539 H   0  0  0  0  0  0  0  0  0  0  0  0
   56.5553   28.5224   45.2242 H   0  0  0  0  0  0  0  0  0  0  0  0
  1  2  2  0
  2  3  1  0
  3  4  2  0
  4  5  1  0
  5  6  1  0
  6  7  1  0
  7  8  2  0
  7  9  1  0
  9 10  1  0
 10 11  2  0
 11 12  1  0
 12 13  2  0
 13 14  1  0
 14 15  2  0
  5 16  2  0
 16 17  1  0
 17 18  2  0
 18 19  1  0
 19 20  2  0
 19 21  1  0
 21 22  2  0
 22 23  1  0
 23 24  2  0
 24 25  1  0
 25 26  1  0
 25 27  2  0
 18  3  1  0
 27 21  1  0
 15 10  1  0
  1 28  1  0
  1 29  1  0
  2 30  1  0
  9 31  1  0
  9 32  1  0
 11 33  1  0
 12 34  1  0
 13 35  1  0
 14 36  1  0
 15 37  1  0
 16 38  1  0
 17 39  1  0
 22 40  1  0
 23 41  1  0
 24 42  1  0
 27 43  1  0
M  CHG  1  26  -1
M  END
>  <UniqueID>  (7) 
6

>  <SMILES>  (7) 
C=Cc1nc(OC(=O)Cc2ccccc2)ccc1C(=O)c1cccc([O-])c1

>  <Energy>  (7) 
60.612521538220165

>  <Genealogy>  (7) 
C=Cc1nc(OC(=O)Cc2ccccc2)ccc1C(=O)c1cccc([O-])c1 (protonated)
C=Cc1nc(OC(=O)Cc2ccccc2)ccc1C(=O)c1cccc([O-])c1 (3D coordinates assigned)
C=Cc1nc(OC(=O)Cc2ccccc2)ccc1C(=O)c1cccc([O-])c1 (optimized conformer: 60.612521538220165 kcal/mol)

>  <smiles>  (7) 
C=Cc1nc(OC(=O)Cc2ccccc2)ccc1C(=O)c1cccc(O)c1

>  <score_type>  (7) 
oracle

>  <origin>  (7) 
adg

>  <m_score__min__energy>  (7) 
-13.08

>  <m_primary>  (7) 
energy

$$$$
7:0
     RDKit          3D

 57 60  0  0  0  0  0  0  0  0999 V2000
   64.5350   31.0220   51.1600 C   0  0  0  0  0  0  0  0  0  0  0  0
   65.0080   32.2180   50.3330 C   0  0  0  0  0  0  0  0  0  0  0  0
   63.9000   33.1970   50.0240 C   0  0  0  0  0  0  0  0  0  0  0  0
   63.6560   34.1400   50.8330 O   0  0  0  0  0  0  0  0  0  0  0  0
   63.1580   33.1100   48.7870 N   0  0  0  0  0  0  0  0  0  0  0  0
   63.2510   34.1940   47.7900 C   0  0  0  0  0  0  0  0  0  0  0  0
   63.6370   33.6290   46.4220 C   0  0  0  0  0  0  0  0  0  0  0  0
   62.2120   32.0340   48.5970 C   0  0  0  0  0  0  0  0  0  0  0  0
   61.2490   31.7280   49.5050 N   0  0  0  0  0  0  0  0  0  0  0  0
   60.5170   30.6610   49.1000 C   0  0  0  0  0  0  0  0  0  0  0  0
   59.4770   30.0970   49.8370 C   0  0  0  0  0  0  0  0  0  0  0  0
   58.8190   28.9650   49.3250 C   0  0  0  0  0  0  0  0  0  0  0  0
   59.1810   28.4250   48.0700 C   0  0  0  0  0  0  0  0  0  0  0  0
   58.5000   27.2510   47.6080 N   0  0  0  0  0  0  0  0  0  0  0  0
   57.6370   27.1720   46.4650 C   0  0  0  0  0  0  0  0  0  0  0  0
   57.0020   26.1080   46.2250 O   0  0  0  0  0  0  0  0  0  0  0  0
   57.5230   28.3250   45.5430 C   0  0  0  0  0  0  0  0  0  0  0  0
   58.6730   28.9110   44.9860 C   0  0  0  0  0  0  0  0  0  0  0  0
   58.5600   30.0090   44.1270 C   0  0  0  0  0  0  0  0  0  0  0  0
   57.3060   30.5340   43.7990 C   0  0  0  0  0  0  0  0  0  0  0  0
   57.2550   31.6380   42.9320 O   0  0  0  0  0  0  0  0  0  0  0  0
   58.1270   32.7700   42.9840 C   0  0  0  0  0  0  0  0  0  0  0  0
   58.2740   33.2620   44.3990 C   0  0  0  0  0  0  0  0  0  0  0  0
   59.4440   33.9410   44.7870 C   0  0  0  0  0  0  0  0  0  0  0  0
   59.5940   34.3920   46.1020 C   0  0  0  0  0  0  0  0  0  0  0  0
   58.5800   34.1640   47.0390 C   0  0  0  0  0  0  0  0  0  0  0  0
   57.4190   33.4810   46.6650 C   0  0  0  0  0  0  0  0  0  0  0  0
   57.2670   33.0280   45.3500 C   0  0  0  0  0  0  0  0  0  0  0  0
   56.1540   29.9480   44.3510 C   0  0  0  0  0  0  0  0  0  0  0  0
   56.2630   28.8570   45.2200 C   0  0  0  0  0  0  0  0  0  0  0  0
   60.2470   29.0020   47.3410 C   0  0  0  0  0  0  0  0  0  0  0  0
   60.8890   30.1130   47.8820 C   0  0  0  0  0  0  0  0  0  0  0  0
   62.1890   30.9740   47.2680 S   0  0  0  0  0  0  0  0  0  0  0  0
   64.6279   31.2568   52.2306 H   0  0  0  0  0  0  0  0  0  0  0  0
   63.4832   30.8047   50.9222 H   0  0  0  0  0  0  0  0  0  0  0  0
   65.1536   30.1441   50.9222 H   0  0  0  0  0  0  0  0  0  0  0  0
   65.7939   32.7439   50.8950 H   0  0  0  0  0  0  0  0  0  0  0  0
   65.3799   31.8284   49.3739 H   0  0  0  0  0  0  0  0  0  0  0  0
   62.2769   34.6990   47.7118 H   0  0  0  0  0  0  0  0  0  0  0  0
   64.0228   34.9089   48.1113 H   0  0  0  0  0  0  0  0  0  0  0  0
   64.2528   32.7277   46.5580 H   0  0  0  0  0  0  0  0  0  0  0  0
   62.7263   33.3698   45.8621 H   0  0  0  0  0  0  0  0  0  0  0  0
   64.2095   34.3831   45.8621 H   0  0  0  0  0  0  0  0  0  0  0  0
   59.1763   30.5301   50.8024 H   0  0  0  0  0  0  0  0  0  0  0  0
   58.0134   28.4943   49.9077 H   0  0  0  0  0  0  0  0  0  0  0  0
   59.6662   28.5042   45.2268 H   0  0  0  0  0  0  0  0  0  0  0  0
   59.4677   30.4647   43.7047 H   0  0  0  0  0  0  0  0  0  0  0  0
   59.1157   32.4826   42.5968 H   0  0  0  0  0  0  0  0  0  0  0  0
   57.6976   33.5764   42.3713 H   0  0  0  0  0  0  0  0  0  0  0  0
   60.2438   34.1177   44.0528 H   0  0  0  0  0  0  0  0  0  0  0  0
   60.5086   34.9257   46.3998 H   0  0  0  0  0  0  0  0  0  0  0  0
   58.6967   34.5230   48.0722 H   0  0  0  0  0  0  0  0  0  0  0  0
   56.6251   33.2997   47.4045 H   0  0  0  0  0  0  0  0  0  0  0  0
   56.3548   32.4862   45.0595 H   0  0  0  0  0  0  0  0  0  0  0  0
   55.1614   30.3493   44.0985 H   0  0  0  0  0  0  0  0  0  0  0  0
   55.3553   28.4121   45.6538 H   0  0  0  0  0  0  0  0  0  0  0  0
   60.5604   28.5844   46.3728 H   0  0  0  0  0  0  0  0  0  0  0  0
  1  2  1  0
  2  3  1  0
  3  4  2  0
  3  5  1  0
  5  6  1  0
  6  7  1  0
  5  8  1  0
  8  9  2  0
  9 10  1  0
 10 11  2  0
 11 12  1  0
 12 13  2  0
 13 14  1  0
 14 15  1  0
 15 16  2  0
 15 17  1  0
 17 18  2  0
 18 19  1  0
 19 20  2  0
 20 21  1  0
 21 22  1  0
 22 23  1  0
 23 24  2  0
 24 25  1  0
 25 26  2  0
 26 27  1  0
 27 28  2  0
 20 29  1  0
 29 30  2  0
 13 31  1  0
 31 32  2  0
 32 33  1  0
 33  8  1  0
 32 10  1  0
 30 17  1  0
 28 23  1  0
  1 34  1  0
  1 35  1  0
  1 36  1  0
  2 37  1  0
  2 38  1  0
  6 39  1  0
  6 40  1  0
  7 41  1  0
  7 42  1  0
  7 43  1  0
 11 44  1  0
 12 45  1  0
 18 46  1  0
 19 47  1  0
 22 48  1  0
 22 49  1  0
 24 50  1  0
 25 51  1  0
 26 52  1  0
 27 53  1  0
 28 54  1  0
 29 55  1  0
 30 56  1  0
 31 57  1  0
M  CHG  1  14  -1
M  END
>  <UniqueID>  (8) 
7

>  <SMILES>  (8) 
CCC(=O)N(CC)c1nc2ccc([N-]C(=O)c3ccc(OCc4ccccc4)cc3)cc2s1

>  <Energy>  (8) 
98.62627745733197

>  <Genealogy>  (8) 
CCC(=O)N(CC)c1nc2ccc([N-]C(=O)c3ccc(OCc4ccccc4)cc3)cc2s1 (protonated)
CCC(=O)N(CC)c1nc2ccc([N-]C(=O)c3ccc(OCc4ccccc4)cc3)cc2s1 (3D coordinates assigned)
CCC(=O)N(CC)c1nc2ccc([N-]C(=O)c3ccc(OCc4ccccc4)cc3)cc2s1 (optimized conformer: 98.62627745733197 kcal/mol)

>  <smiles>  (8) 
CCC(=O)N(CC)c1nc2ccc(NC(=O)c3ccc(OCc4ccccc4)cc3)cc2s1

>  <score_type>  (8) 
oracle

>  <origin>  (8) 
adg

>  <m_score__min__energy>  (8) 
-10.140000000000001

>  <m_primary>  (8) 
energy

$$$$
8:0
     RDKit          3D

 51 53  0  0  0  0  0  0  0  0999 V2000
   61.1410   30.3150   47.1100 O   0  0  0  0  0  0  0  0  0  0  0  0
   60.4700   29.6560   47.9480 C   0  0  0  0  0  0  0  0  0  0  0  0
   59.9030   30.3660   49.1470 C   0  0  0  0  0  0  0  0  0  0  0  0
   58.7580   31.2070   48.8090 N   0  0  0  0  0  0  0  0  0  0  0  0
   58.7820   32.6300   48.6440 C   0  0  0  0  0  0  0  0  0  0  0  0
   58.9060   33.3610   49.6610 O   0  0  0  0  0  0  0  0  0  0  0  0
   58.6210   33.2560   47.3220 C   0  0  0  0  0  0  0  0  0  0  0  0
   57.5570   32.8740   46.4920 C   0  0  0  0  0  0  0  0  0  0  0  0
   57.3550   33.5160   45.2680 C   0  0  0  0  0  0  0  0  0  0  0  0
   58.2080   34.5500   44.8700 C   0  0  0  0  0  0  0  0  0  0  0  0
   59.2700   34.9380   45.6920 C   0  0  0  0  0  0  0  0  0  0  0  0
   59.4900   34.2870   46.9110 C   0  0  0  0  0  0  0  0  0  0  0  0
   60.5500   34.6980   47.7240 O   0  0  0  0  0  0  0  0  0  0  0  0
   61.6870   33.9180   47.9770 C   0  0  0  0  0  0  0  0  0  0  0  0
   62.0810   33.5800   49.2840 C   0  0  0  0  0  0  0  0  0  0  0  0
   63.2170   32.7910   49.4920 C   0  0  0  0  0  0  0  0  0  0  0  0
   63.9620   32.3340   48.4030 C   0  0  0  0  0  0  0  0  0  0  0  0
   63.5740   32.6660   47.1010 C   0  0  0  0  0  0  0  0  0  0  0  0
   62.4400   33.4560   46.8900 C   0  0  0  0  0  0  0  0  0  0  0  0
   60.3450   28.2410   47.7630 N   0  0  0  0  0  0  0  0  0  0  0  0
   60.2890   27.5580   46.4760 C   0  0  0  0  0  0  0  0  0  0  0  0
   58.8470   27.1630   46.1340 C   0  0  0  0  0  0  0  0  0  0  0  0
   57.7990   28.2410   46.4620 C   0  0  0  0  0  0  0  0  0  0  0  0
   57.5170   29.1580   45.2990 C   0  0  0  0  0  0  0  0  0  0  0  0
   56.2360   29.2040   44.7220 C   0  0  0  0  0  0  0  0  0  0  0  0
   55.9680   30.0870   43.6720 C   0  0  0  0  0  0  0  0  0  0  0  0
   56.9770   30.9210   43.1840 C   0  0  0  0  0  0  0  0  0  0  0  0
   58.2570   30.8740   43.7440 C   0  0  0  0  0  0  0  0  0  0  0  0
   58.5270   29.9950   44.7980 C   0  0  0  0  0  0  0  0  0  0  0  0
   59.5833   29.6142   49.8836 H   0  0  0  0  0  0  0  0  0  0  0  0
   60.6899   31.0195   49.5516 H   0  0  0  0  0  0  0  0  0  0  0  0
   56.8794   32.0663   46.8059 H   0  0  0  0  0  0  0  0  0  0  0  0
   56.5240   33.2078   44.6165 H   0  0  0  0  0  0  0  0  0  0  0  0
   58.0431   35.0588   43.9088 H   0  0  0  0  0  0  0  0  0  0  0  0
   59.9345   35.7572   45.3798 H   0  0  0  0  0  0  0  0  0  0  0  0
   61.4950   33.9366   50.1439 H   0  0  0  0  0  0  0  0  0  0  0  0
   63.5241   32.5300   50.5155 H   0  0  0  0  0  0  0  0  0  0  0  0
   64.8544   31.7127   48.5692 H   0  0  0  0  0  0  0  0  0  0  0  0
   64.1609   32.3057   46.2432 H   0  0  0  0  0  0  0  0  0  0  0  0
   62.1375   33.7161   45.8649 H   0  0  0  0  0  0  0  0  0  0  0  0
   60.6747   28.2288   45.6942 H   0  0  0  0  0  0  0  0  0  0  0  0
   60.9014   26.6460   46.5328 H   0  0  0  0  0  0  0  0  0  0  0  0
   58.7951   26.9490   45.0563 H   0  0  0  0  0  0  0  0  0  0  0  0
   58.6044   26.2890   46.7563 H   0  0  0  0  0  0  0  0  0  0  0  0
   56.8619   27.7430   46.7516 H   0  0  0  0  0  0  0  0  0  0  0  0
   58.2039   28.8576   47.2780 H   0  0  0  0  0  0  0  0  0  0  0  0
   55.4415   28.5427   45.0981 H   0  0  0  0  0  0  0  0  0  0  0  0
   54.9616   30.1252   43.2295 H   0  0  0  0  0  0  0  0  0  0  0  0
   56.7640   31.6155   42.3580 H   0  0  0  0  0  0  0  0  0  0  0  0
   59.0517   31.5281   43.3559 H   0  0  0  0  0  0  0  0  0  0  0  0
   59.5352   29.9593   45.2364 H   0  0  0  0  0  0  0  0  0  0  0  0
  1  2  2  0
  2  3  1  0
  3  4  1  0
  4  5  1  0
  5  6  2  0
  5  7  1  0
  7  8  2  0
  8  9  1  0
  9 10  2  0
 10 11  1  0
 11 12  2  0
 12 13  1  0
 13 14  1  0
 14 15  2  0
 15 16  1  0
 16 17  2  0
 17 18  1  0
 18 19  2  0
  2 20  1  0
 20 21  1  0
 21 22  1  0
 22 23  1  0
 23 24  1  0
 24 25  2  0
 25 26  1  0
 26 27  2  0
 27 28  1  0
 28 29  2  0
 12  7  1  0
 19 14  1  0
 29 24  1  0
  3 30  1  0
  3 31  1  0
  8 32  1  0
  9 33  1  0
 10 34  1  0
 11 35  1  0
 15 36  1  0
 16 37  1  0
 17 38  1  0
 18 39  1  0
 19 40  1  0
 21 41  1  0
 21 42  1  0
 22 43  1  0
 22 44  1  0
 23 45  1  0
 23 46  1  0
 25 47  1  0
 26 48  1  0
 27 49  1  0
 28 50  1  0
 29 51  1  0
M  CHG  2   4  -1  20  -1
M  END
>  <UniqueID>  (9) 
8

>  <SMILES>  (9) 
O=C(C[N-]C(=O)c1ccccc1Oc1ccccc1)[N-]CCCc1ccccc1

>  <Energy>  (9) 
57.75162348765166

>  <Genealogy>  (9) 
O=C(C[N-]C(=O)c1ccccc1Oc1ccccc1)[N-]CCCc1ccccc1 (protonated)
O=C(C[N-]C(=O)c1ccccc1Oc1ccccc1)[N-]CCCc1ccccc1 (3D coordinates assigned)
O=C(C[N-]C(=O)c1ccccc1Oc1ccccc1)[N-]CCCc1ccccc1 (optimized conformer: 57.75162348765166 kcal/mol)

>  <smiles>  (9) 
O=C(CNC(=O)c1ccccc1Oc1ccccc1)NCCCc1ccccc1

>  <score_type>  (9) 
oracle

>  <origin>  (9) 
adg

>  <m_score__min__energy>  (9) 
-12.01

>  <m_primary>  (9) 
energy

$$$$
9:0
     RDKit          3D

 58 60  0  0  0  0  0  0  0  0999 V2000
   56.1630   31.9670   50.9240 H   0  0  0  0  0  0  0  0  0  0  0  0
   57.0560   32.3650   51.1840 O   0  0  0  0  0  0  0  0  0  0  0  0
   58.2140   31.5930   51.2370 C   0  0  0  0  0  0  0  0  0  0  0  0
   59.4160   31.8610   50.6130 C   0  0  0  0  0  0  0  0  0  0  0  0
   59.7160   32.9920   49.6760 C   0  0  0  0  0  0  0  0  0  0  0  0
   59.2498   33.9155   50.0501 H   0  0  0  0  0  0  0  0  0  0  0  0
   60.8036   33.1415   49.6071 H   0  0  0  0  0  0  0  0  0  0  0  0
   59.1600   32.6590   48.3210 C   0  0  0  0  0  0  0  0  0  0  0  0
   58.6710   33.6710   47.4820 C   0  0  0  0  0  0  0  0  0  0  0  0
   58.8430   34.7265   47.7394 H   0  0  0  0  0  0  0  0  0  0  0  0
   57.9660   33.3440   46.3200 C   0  0  0  0  0  0  0  0  0  0  0  0
   57.6034   34.1436   45.6573 H   0  0  0  0  0  0  0  0  0  0  0  0
   57.7190   32.0070   45.9950 C   0  0  0  0  0  0  0  0  0  0  0  0
   56.8560   31.7300   44.9210 O   0  0  0  0  0  0  0  0  0  0  0  0
   56.9760   30.6070   44.0450 C   0  0  0  0  0  0  0  0  0  0  0  0
   56.9289   30.9613   43.0047 H   0  0  0  0  0  0  0  0  0  0  0  0
   57.9368   30.1139   44.2538 H   0  0  0  0  0  0  0  0  0  0  0  0
   55.8790   29.6010   44.2660 C   0  0  0  0  0  0  0  0  0  0  0  0
   54.7940   29.7260   43.6390 O   0  0  0  0  0  0  0  0  0  0  0  0
   56.0540   28.5300   45.2040 N   0  0  0  0  0  0  0  0  0  0  0  0
   57.2640   27.7970   45.4530 C   0  0  0  0  0  0  0  0  0  0  0  0
   58.5200   28.3930   45.2240 C   0  0  0  0  0  0  0  0  0  0  0  0
   58.5725   29.4241   44.8444 H   0  0  0  0  0  0  0  0  0  0  0  0
   59.6980   27.6880   45.4740 C   0  0  0  0  0  0  0  0  0  0  0  0
   60.6726   28.1622   45.2861 H   0  0  0  0  0  0  0  0  0  0  0  0
   59.6410   26.3850   45.9610 C   0  0  0  0  0  0  0  0  0  0  0  0
   60.5704   25.8224   46.1334 H   0  0  0  0  0  0  0  0  0  0  0  0
   58.4070   25.7910   46.2310 C   0  0  0  0  0  0  0  0  0  0  0  0
   58.3726   24.7648   46.6257 H   0  0  0  0  0  0  0  0  0  0  0  0
   57.2050   26.4900   46.0040 C   0  0  0  0  0  0  0  0  0  0  0  0
   55.9160   25.8350   46.3560 C   0  0  0  0  0  0  0  0  0  0  0  0
   55.9050   24.8160   47.0940 O   0  0  0  0  0  0  0  0  0  0  0  0
   54.7000   26.3330   45.8980 O   0  0  0  0  0  0  0  0  0  0  0  0
   58.2840   30.9910   46.7880 C   0  0  0  0  0  0  0  0  0  0  0  0
   58.1693   29.9374   46.4934 H   0  0  0  0  0  0  0  0  0  0  0  0
   58.9900   31.3170   47.9480 C   0  0  0  0  0  0  0  0  0  0  0  0
   59.4151   30.5175   48.5726 H   0  0  0  0  0  0  0  0  0  0  0  0
   60.2620   30.8940   50.8760 O   0  0  0  0  0  0  0  0  0  0  0  0
   59.6750   29.9950   51.6390 C   0  0  0  0  0  0  0  0  0  0  0  0
   60.2920   28.8580   51.9670 C   0  0  0  0  0  0  0  0  0  0  0  0
   59.7834   28.1207   52.6055 H   0  0  0  0  0  0  0  0  0  0  0  0
   61.3091   28.6582   51.5988 H   0  0  0  0  0  0  0  0  0  0  0  0
   58.3640   30.4050   51.9300 C   0  0  0  0  0  0  0  0  0  0  0  0
   57.3900   29.8440   52.6740 C   0  0  0  0  0  0  0  0  0  0  0  0
   57.2768   28.7525   52.5984 H   0  0  0  0  0  0  0  0  0  0  0  0
   56.4630   30.5440   53.5770 C   0  0  0  0  0  0  0  0  0  0  0  0
   56.8691   31.2610   54.3057 H   0  0  0  0  0  0  0  0  0  0  0  0
   55.1410   30.3360   53.5400 C   0  0  0  0  0  0  0  0  0  0  0  0
   54.6567   29.8260   54.3858 H   0  0  0  0  0  0  0  0  0  0  0  0
   54.3130   30.7720   52.3950 C   0  0  0  0  0  0  0  0  0  0  0  0
   54.8170   30.8350   51.2420 O   0  0  0  0  0  0  0  0  0  0  0  0
   52.9350   31.1340   52.5570 N   0  0  0  0  0  0  0  0  0  0  0  0
   51.8740   30.9030   51.5820 C   0  0  0  0  0  0  0  0  0  0  0  0
   52.3102   30.4582   50.6754 H   0  0  0  0  0  0  0  0  0  0  0  0
   51.1321   30.2243   52.0281 H   0  0  0  0  0  0  0  0  0  0  0  0
   51.1880   32.1820   51.2170 C   0  0  0  0  0  0  0  0  0  0  0  0
   51.4020   32.7080   50.0920 O   0  0  0  0  0  0  0  0  0  0  0  0
   50.2520   32.7530   52.0690 O   0  0  0  0  0  0  0  0  0  0  0  0
  1  2  1  0
  2  3  1  0
  3  4  2  0
  4  5  1  0
  5  6  1  0
  5  7  1  0
  5  8  1  0
  8  9  2  0
  9 10  1  0
  9 11  1  0
 11 12  1  0
 11 13  2  0
 13 14  1  0
 14 15  1  0
 15 16  1  0
 15 17  1  0
 15 18  1  0
 18 19  2  0
 18 20  1  0
 20 21  1  0
 21 22  2  0
 22 23  1  0
 22 24  1  0
 24 25  1  0
 24 26  2  0
 26 27  1  0
 26 28  1  0
 28 29  1  0
 28 30  2  0
 30 31  1  0
 31 32  2  0
 31 33  1  0
 13 34  1  0
 34 35  1  0
 34 36  2  0
 36 37  1  0
  4 38  1  0
 38 39  1  0
 39 40  2  0
 40 41  1  0
 40 42  1  0
 39 43  1  0
 43 44  2  0
 44 45  1  0
 44 46  1  0
 46 47  1  0
 46 48  2  3
 48 49  1  0
 48 50  1  0
 50 51  2  0
 50 52  1  0
 52 53  1  0
 53 54  1  0
 53 55  1  0
 53 56  1  0
 56 57  2  0
 56 58  1  0
 43  3  1  0
 36  8  1  0
 30 21  1  0
M  CHG  4  20  -1  33  -1  52  -1  58  -1
M  END
>  <UniqueID>  (10) 
9

>  <SMILES>  (10) 
C=c1oc(Cc2ccc(OCC(=O)[N-]c3ccccc3C(=O)[O-])cc2)c(O)/c1=C/C=CC(=O)[N-]CC(=O)[O-]

>  <Energy>  (10) 
97.75837119932524

>  <Genealogy>  (10) 
C=c1oc(Cc2ccc(OCC(=O)[N-]c3ccccc3C(=O)[O-])cc2)c(O)c1=CC=CC(=O)[N-]CC(=O)[O-] (protonated)
C=c1oc(Cc2ccc(OCC(=O)[N-]c3ccccc3C(=O)[O-])cc2)c(O)/c1=C/C=CC(=O)[N-]CC(=O)[O-] (cis-trans isomerization)
C=c1oc(Cc2ccc(OCC(=O)[N-]c3ccccc3C(=O)[O-])cc2)c(O)/c1=C/C=CC(=O)[N-]CC(=O)[O-] (3D coordinates assigned)
C=c1oc(Cc2ccc(OCC(=O)[N-]c3ccccc3C(=O)[O-])cc2)c(O)/c1=C/C=CC(=O)[N-]CC(=O)[O-] (optimized conformer: 97.75837119932524 kcal/mol)

>  <smiles>  (10) 
C=c1oc(Cc2ccc(OCC(=O)Nc3ccccc3C(=O)O)cc2)c(O)c1=CC=CC(=O)NCC(=O)O

>  <score_type>  (10) 
oracle

>  <origin>  (10) 
adg

>  <m_score__min__energy>  (10) 
-20.73

>  <m_primary>  (10) 
energy

$$$$
10:0
     RDKit          3D

 45 47  0  0  0  0  0  0  0  0999 V2000
   56.3790   21.4700   45.4360 C   0  0  0  0  0  0  0  0  0  0  0  0
   56.8170   22.7100   45.6590 C   0  0  0  0  0  0  0  0  0  0  0  0
   56.0390   23.6930   46.1570 N   0  0  0  0  0  0  0  0  0  0  0  0
   56.8100   24.7970   46.2440 C   0  0  0  0  0  0  0  0  0  0  0  0
   56.3660   25.9630   46.7180 C   0  0  0  0  0  0  0  0  0  0  0  0
   58.1000   24.5200   45.8050 C   0  0  0  0  0  0  0  0  0  0  0  0
   59.2320   25.4630   45.7220 C   0  0  0  0  0  0  0  0  0  0  0  0
   60.3900   25.0570   46.0170 O   0  0  0  0  0  0  0  0  0  0  0  0
   59.0340   26.8290   45.3110 N   0  0  0  0  0  0  0  0  0  0  0  0
   59.9880   27.8630   45.7360 C   0  0  0  0  0  0  0  0  0  0  0  0
   59.2630   29.1940   45.9690 C   0  0  0  0  0  0  0  0  0  0  0  0
   58.3150   29.4960   44.8850 N   0  0  0  0  0  0  0  0  0  0  0  0
   57.4090   30.6050   45.0230 C   0  0  0  0  0  0  0  0  0  0  0  0
   56.1770   30.4240   44.8200 O   0  0  0  0  0  0  0  0  0  0  0  0
   57.8940   31.9500   45.4020 C   0  0  0  0  0  0  0  0  0  0  0  0
   58.1470   32.2590   46.7500 C   0  0  0  0  0  0  0  0  0  0  0  0
   58.5870   33.5360   47.1110 C   0  0  0  0  0  0  0  0  0  0  0  0
   58.7690   34.5180   46.1340 C   0  0  0  0  0  0  0  0  0  0  0  0
   58.5040   34.2260   44.7930 C   0  0  0  0  0  0  0  0  0  0  0  0
   58.0630   32.9490   44.4270 C   0  0  0  0  0  0  0  0  0  0  0  0
   58.1650   28.5630   43.7610 C   0  0  0  0  0  0  0  0  0  0  0  0
   58.0160   27.1360   44.2910 C   0  0  0  0  0  0  0  0  0  0  0  0
   58.1010   23.1830   45.4200 C   0  0  0  0  0  0  0  0  0  0  0  0
   59.2380   22.4150   44.8070 C   0  0  0  0  0  0  0  0  0  0  0  0
   57.0621   20.7105   45.0278 H   0  0  0  0  0  0  0  0  0  0  0  0
   55.3347   21.2069   45.6603 H   0  0  0  0  0  0  0  0  0  0  0  0
   55.0320   23.6130   46.4270 H   0  0  0  0  0  0  0  0  0  0  0  0
   57.0409   26.8303   46.7653 H   0  0  0  0  0  0  0  0  0  0  0  0
   55.3252   26.0567   47.0613 H   0  0  0  0  0  0  0  0  0  0  0  0
   60.4738   27.5461   46.6707 H   0  0  0  0  0  0  0  0  0  0  0  0
   60.7417   28.0000   44.9466 H   0  0  0  0  0  0  0  0  0  0  0  0
   58.7115   29.1377   46.9191 H   0  0  0  0  0  0  0  0  0  0  0  0
   60.0172   29.9943   45.9970 H   0  0  0  0  0  0  0  0  0  0  0  0
   57.9980   31.4922   47.5245 H   0  0  0  0  0  0  0  0  0  0  0  0
   58.7904   33.7681   48.1668 H   0  0  0  0  0  0  0  0  0  0  0  0
   59.1206   35.5203   46.4199 H   0  0  0  0  0  0  0  0  0  0  0  0
   58.6422   35.0007   44.0244 H   0  0  0  0  0  0  0  0  0  0  0  0
   57.8476   32.7259   43.3716 H   0  0  0  0  0  0  0  0  0  0  0  0
   57.2710   28.8321   43.1794 H   0  0  0  0  0  0  0  0  0  0  0  0
   59.0557   28.6214   43.1181 H   0  0  0  0  0  0  0  0  0  0  0  0
   57.0172   27.0233   44.7378 H   0  0  0  0  0  0  0  0  0  0  0  0
   58.1499   26.4400   43.4498 H   0  0  0  0  0  0  0  0  0  0  0  0
   59.8660   21.9908   45.6043 H   0  0  0  0  0  0  0  0  0  0  0  0
   58.8374   21.6017   44.1840 H   0  0  0  0  0  0  0  0  0  0  0  0
   59.8429   23.0903   44.1840 H   0  0  0  0  0  0  0  0  0  0  0  0
  1  2  2  0
  2  3  1  0
  3  4  1  0
  4  5  2  0
  4  6  1  0
  6  7  1  0
  7  8  2  0
  7  9  1  0
  9 10  1  0
 10 11  1  0
 11 12  1  0
 12 13  1  0
 13 14  2  0
 13 15  1  0
 15 16  2  0
 16 17  1  0
 17 18  2  0
 18 19  1  0
 19 20  2  0
 12 21  1  0
 21 22  1  0
  6 23  2  0
 23 24  1  0
 23  2  1  0
 22  9  1  0
 20 15  1  0
  1 25  1  0
  1 26  1  0
  3 27  1  0
  5 28  1  0
  5 29  1  0
 10 30  1  0
 10 31  1  0
 11 32  1  0
 11 33  1  0
 16 34  1  0
 17 35  1  0
 18 36  1  0
 19 37  1  0
 20 38  1  0
 21 39  1  0
 21 40  1  0
 22 41  1  0
 22 42  1  0
 24 43  1  0
 24 44  1  0
 24 45  1  0
M  END
>  <UniqueID>  (11) 
10

>  <SMILES>  (11) 
C=c1[nH]c(=C)c(C(=O)N2CCN(C(=O)c3ccccc3)CC2)c1C

>  <Energy>  (11) 
83.26304571996137

>  <Genealogy>  (11) 
C=c1[nH]c(=C)c(C(=O)N2CCN(C(=O)c3ccccc3)CC2)c1C (3D coordinates assigned)
C=c1[nH]c(=C)c(C(=O)N2CCN(C(=O)c3ccccc3)CC2)c1C (nonaromatic ring conformer: 83.26304571996137 kcal/mol)

>  <smiles>  (11) 
C=c1[nH]c(=C)c(C(=O)N2CCN(C(=O)c3ccccc3)CC2)c1C

>  <score_type>  (11) 
oracle

>  <origin>  (11) 
adg

>  <m_score__min__energy>  (11) 
-7.6799999999999997

>  <m_primary>  (11) 
energy

$$$$
11:0
     RDKit          3D

 65 68  0  0  0  0  0  0  0  0999 V2000
   58.8890   25.9820   47.8570 C   0  0  0  0  0  0  0  0  0  0  0  0
   58.8550   26.9970   46.7630 C   0  0  0  0  0  0  0  0  0  0  0  0
   59.5910   28.1240   46.7680 N   0  0  0  0  0  0  0  0  0  0  0  0
   59.3030   28.8060   45.6690 N   0  0  0  0  0  0  0  0  0  0  0  0
   59.9140   30.0970   45.3400 C   0  0  0  0  0  0  0  0  0  0  0  0
   58.9090   31.2100   45.5240 C   0  0  0  0  0  0  0  0  0  0  0  0
   58.2560   31.6940   44.3750 C   0  0  0  0  0  0  0  0  0  0  0  0
   57.3540   32.7540   44.4580 C   0  0  0  0  0  0  0  0  0  0  0  0
   57.0940   33.3550   45.6880 C   0  0  0  0  0  0  0  0  0  0  0  0
   57.7290   32.8900   46.8410 C   0  0  0  0  0  0  0  0  0  0  0  0
   58.6270   31.8100   46.7820 C   0  0  0  0  0  0  0  0  0  0  0  0
   59.2490   31.3680   48.0550 C   0  0  0  0  0  0  0  0  0  0  0  0
   58.6900   30.4360   48.6980 O   0  0  0  0  0  0  0  0  0  0  0  0
   60.5620   31.8400   48.4500 N   0  0  0  0  0  0  0  0  0  0  0  0
   61.1110   32.8300   47.4810 C   0  0  0  0  0  0  0  0  0  0  0  0
   62.0860   33.8400   48.1210 C   0  0  0  0  0  0  0  0  0  0  0  0
   62.7550   33.2440   49.2840 N   0  0  0  0  0  0  0  0  0  0  0  0
   64.1950   33.1540   49.3440 C   0  0  0  0  0  0  0  0  0  0  0  0
   64.8860   33.3730   48.3110 O   0  0  0  0  0  0  0  0  0  0  0  0
   64.8580   32.7590   50.5520 N   0  0  0  0  0  0  0  0  0  0  0  0
   64.7880   33.5970   51.7500 C   0  0  0  0  0  0  0  0  0  0  0  0
   64.7980   32.7230   53.0260 C   0  0  0  0  0  0  0  0  0  0  0  0
   65.1340   31.3630   52.7860 O   0  0  0  0  0  0  0  0  0  0  0  0
   66.2510   31.2770   51.9250 C   0  0  0  0  0  0  0  0  0  0  0  0
   65.8320   31.6650   50.5050 C   0  0  0  0  0  0  0  0  0  0  0  0
   61.9210   32.6540   50.3420 C   0  0  0  0  0  0  0  0  0  0  0  0
   60.5010   32.3740   49.8260 C   0  0  0  0  0  0  0  0  0  0  0  0
   58.3880   28.1220   44.9410 C   0  0  0  0  0  0  0  0  0  0  0  0
   57.8220   28.5780   43.6290 C   0  0  0  0  0  0  0  0  0  0  0  0
   58.0630   26.9610   45.6260 C   0  0  0  0  0  0  0  0  0  0  0  0
   57.1190   25.8690   45.2090 C   0  0  0  0  0  0  0  0  0  0  0  0
   55.9260   25.8370   46.1100 C   0  0  0  0  0  0  0  0  0  0  0  0
   55.0280   26.7130   46.0050 O   0  0  0  0  0  0  0  0  0  0  0  0
   55.8080   24.8430   47.0740 O   0  0  0  0  0  0  0  0  0  0  0  0
   58.8719   26.4923   48.8313 H   0  0  0  0  0  0  0  0  0  0  0  0
   58.0124   25.3228   47.7729 H   0  0  0  0  0  0  0  0  0  0  0  0
   59.8077   25.3829   47.7729 H   0  0  0  0  0  0  0  0  0  0  0  0
   60.7749   30.2712   46.0022 H   0  0  0  0  0  0  0  0  0  0  0  0
   60.2452   30.0813   44.2912 H   0  0  0  0  0  0  0  0  0  0  0  0
   58.4599   31.2300   43.3987 H   0  0  0  0  0  0  0  0  0  0  0  0
   56.8471   33.1162   43.5515 H   0  0  0  0  0  0  0  0  0  0  0  0
   56.3880   34.1963   45.7505 H   0  0  0  0  0  0  0  0  0  0  0  0
   57.5243   33.3744   47.8071 H   0  0  0  0  0  0  0  0  0  0  0  0
   61.2120   31.0220   48.4710 H   0  0  0  0  0  0  0  0  0  0  0  0
   61.6451   32.2837   46.6896 H   0  0  0  0  0  0  0  0  0  0  0  0
   60.2598   33.4055   47.0882 H   0  0  0  0  0  0  0  0  0  0  0  0
   62.8431   34.1323   47.3785 H   0  0  0  0  0  0  0  0  0  0  0  0
   61.5178   34.7221   48.4513 H   0  0  0  0  0  0  0  0  0  0  0  0
   65.6546   34.2743   51.7687 H   0  0  0  0  0  0  0  0  0  0  0  0
   63.8533   34.1763   51.7239 H   0  0  0  0  0  0  0  0  0  0  0  0
   65.5327   33.1432   53.7286 H   0  0  0  0  0  0  0  0  0  0  0  0
   63.7751   32.7342   53.4305 H   0  0  0  0  0  0  0  0  0  0  0  0
   67.0374   31.9618   52.2752 H   0  0  0  0  0  0  0  0  0  0  0  0
   66.6354   30.2463   51.9251 H   0  0  0  0  0  0  0  0  0  0  0  0
   66.7179   31.9898   49.9396 H   0  0  0  0  0  0  0  0  0  0  0  0
   65.3742   30.7944   50.0126 H   0  0  0  0  0  0  0  0  0  0  0  0
   62.3762   31.7097   50.6753 H   0  0  0  0  0  0  0  0  0  0  0  0
   61.8579   33.3654   51.1787 H   0  0  0  0  0  0  0  0  0  0  0  0
   60.0133   31.6376   50.4817 H   0  0  0  0  0  0  0  0  0  0  0  0
   59.9246   33.3109   49.8255 H   0  0  0  0  0  0  0  0  0  0  0  0
   56.9772   29.2586   43.8108 H   0  0  0  0  0  0  0  0  0  0  0  0
   58.6003   29.1043   43.0570 H   0  0  0  0  0  0  0  0  0  0  0  0
   57.4734   27.7055   43.0570 H   0  0  0  0  0  0  0  0  0  0  0  0
   56.7879   26.0514   44.1760 H   0  0  0  0  0  0  0  0  0  0  0  0
   57.6408   24.9029   45.2745 H   0  0  0  0  0  0  0  0  0  0  0  0
  1  2  1  0
  2  3  2  0
  3  4  1  0
  4  5  1  0
  5  6  1  0
  6  7  2  0
  7  8  1  0
  8  9  2  0
  9 10  1  0
 10 11  2  0
 11 12  1  0
 12 13  2  0
 12 14  1  0
 14 15  1  0
 15 16  1  0
 16 17  1  0
 17 18  1  0
 18 19  2  0
 18 20  1  0
 20 21  1  0
 21 22  1  0
 22 23  1  0
 23 24  1  0
 24 25  1  0
 17 26  1  0
 26 27  1  0
  4 28  1  0
 28 29  1  0
 28 30  2  0
 30 31  1  0
 31 32  1  0
 32 33  2  0
 32 34  1  0
 30  2  1  0
 11  6  1  0
 27 14  1  0
 25 20  1  0
  1 35  1  0
  1 36  1  0
  1 37  1  0
  5 38  1  0
  5 39  1  0
  7 40  1  0
  8 41  1  0
  9 42  1  0
 10 43  1  0
 14 44  1  0
 15 45  1  0
 15 46  1  0
 16 47  1  0
 16 48  1  0
 21 49  1  0
 21 50  1  0
 22 51  1  0
 22 52  1  0
 24 53  1  0
 24 54  1  0
 25 55  1  0
 25 56  1  0
 26 57  1  0
 26 58  1  0
 27 59  1  0
 27 60  1  0
 29 61  1  0
 29 62  1  0
 29 63  1  0
 31 64  1  0
 31 65  1  0
M  CHG  2  14   1  34  -1
M  END
>  <UniqueID>  (12) 
11

>  <SMILES>  (12) 
Cc1nn(Cc2ccccc2C(=O)[NH+]2CCN(C(=O)N3CCOCC3)CC2)c(C)c1CC(=O)[O-]

>  <Energy>  (12) 
117.74731495094157

>  <Genealogy>  (12) 
Cc1nn(Cc2ccccc2C(=O)[NH+]2CCN(C(=O)N3CCOCC3)CC2)c(C)c1CC(=O)[O-] (protonated)
Cc1nn(Cc2ccccc2C(=O)[NH+]2CCN(C(=O)N3CCOCC3)CC2)c(C)c1CC(=O)[O-] (3D coordinates assigned)
Cc1nn(Cc2ccccc2C(=O)[NH+]2CCN(C(=O)N3CCOCC3)CC2)c(C)c1CC(=O)[O-] (nonaromatic ring conformer: 117.74731495094157 kcal/mol)

>  <smiles>  (12) 
Cc1nn(Cc2ccccc2C(=O)N2CCN(C(=O)N3CCOCC3)CC2)c(C)c1CC(=O)O

>  <score_type>  (12) 
oracle

>  <origin>  (12) 
adg

>  <m_score__min__energy>  (12) 
-10.880000000000001

>  <m_primary>  (12) 
energy

$$$$
12:0
     RDKit          3D

 59 63  0  0  0  0  0  0  0  0999 V2000
   56.7600   24.4630   44.1000 C   0  0  0  0  0  0  0  0  0  0  0  0
   57.7860   25.3850   44.5900 N   0  0  0  0  0  0  0  0  0  0  0  0
   58.1030   26.6070   43.8370 C   0  0  0  0  0  0  0  0  0  0  0  0
   58.5470   27.7130   44.7600 C   0  0  0  0  0  0  0  0  0  0  0  0
   58.2900   29.0520   44.4330 C   0  0  0  0  0  0  0  0  0  0  0  0
   58.7440   30.0900   45.2550 C   0  0  0  0  0  0  0  0  0  0  0  0
   58.4150   31.4400   44.8980 N   0  0  0  0  0  0  0  0  0  0  0  0
   57.8710   32.4510   45.7600 C   0  0  0  0  0  0  0  0  0  0  0  0
   56.6750   32.8250   45.6180 O   0  0  0  0  0  0  0  0  0  0  0  0
   58.7040   33.0270   46.8420 C   0  0  0  0  0  0  0  0  0  0  0  0
   59.8110   33.8380   46.5380 C   0  0  0  0  0  0  0  0  0  0  0  0
   60.6160   34.3480   47.5590 C   0  0  0  0  0  0  0  0  0  0  0  0
   60.3280   34.0570   48.8940 C   0  0  0  0  0  0  0  0  0  0  0  0
   59.2190   33.2610   49.2190 C   0  0  0  0  0  0  0  0  0  0  0  0
   58.9260   32.9040   50.6510 C   0  0  0  0  0  0  0  0  0  0  0  0
   57.7490   32.0420   50.7130 N   0  0  0  0  0  0  0  0  0  0  0  0
   57.6680   30.9230   51.6110 C   0  0  0  0  0  0  0  0  0  0  0  0
   58.7290   30.3470   51.9790 O   0  0  0  0  0  0  0  0  0  0  0  0
   56.3620   30.4320   52.1140 C   0  0  0  0  0  0  0  0  0  0  0  0
   56.2800   29.2600   52.8870 C   0  0  0  0  0  0  0  0  0  0  0  0
   55.0420   28.7960   53.3350 C   0  0  0  0  0  0  0  0  0  0  0  0
   53.8720   29.4850   53.0100 C   0  0  0  0  0  0  0  0  0  0  0  0
   53.9230   30.6510   52.2250 C   0  0  0  0  0  0  0  0  0  0  0  0
   52.6750   31.3740   51.8640 C   0  0  0  0  0  0  0  0  0  0  0  0
   51.7370   31.9250   52.7170 C   0  0  0  0  0  0  0  0  0  0  0  0
   50.7510   32.4840   51.9900 N   0  0  0  0  0  0  0  0  0  0  0  0
   51.0210   32.3100   50.7060 N   0  0  0  0  0  0  0  0  0  0  0  0
   52.1840   31.6400   50.5980 C   0  0  0  0  0  0  0  0  0  0  0  0
   55.1770   31.1160   51.7830 C   0  0  0  0  0  0  0  0  0  0  0  0
   58.4120   32.7500   48.1900 C   0  0  0  0  0  0  0  0  0  0  0  0
   59.4510   29.7780   46.4290 C   0  0  0  0  0  0  0  0  0  0  0  0
   59.7280   28.4470   46.7530 C   0  0  0  0  0  0  0  0  0  0  0  0
   59.2750   27.4070   45.9280 C   0  0  0  0  0  0  0  0  0  0  0  0
   59.6170   25.9790   46.2630 C   0  0  0  0  0  0  0  0  0  0  0  0
   58.5620   25.0400   45.7530 C   0  0  0  0  0  0  0  0  0  0  0  0
   58.3860   23.9340   46.3320 O   0  0  0  0  0  0  0  0  0  0  0  0
   56.2448   24.0000   44.9545 H   0  0  0  0  0  0  0  0  0  0  0  0
   56.0318   25.0161   43.4886 H   0  0  0  0  0  0  0  0  0  0  0  0
   57.2324   23.6800   43.4886 H   0  0  0  0  0  0  0  0  0  0  0  0
   58.9105   26.3894   43.1224 H   0  0  0  0  0  0  0  0  0  0  0  0
   57.1968   26.9363   43.3076 H   0  0  0  0  0  0  0  0  0  0  0  0
   57.7249   29.2896   43.5196 H   0  0  0  0  0  0  0  0  0  0  0  0
   60.0449   34.0726   45.4890 H   0  0  0  0  0  0  0  0  0  0  0  0
   61.4803   34.9814   47.3105 H   0  0  0  0  0  0  0  0  0  0  0  0
   60.9722   34.4528   49.6930 H   0  0  0  0  0  0  0  0  0  0  0  0
   59.7897   32.3747   51.0799 H   0  0  0  0  0  0  0  0  0  0  0  0
   58.7344   33.8235   51.2235 H   0  0  0  0  0  0  0  0  0  0  0  0
   56.9020   32.3370   50.1770 H   0  0  0  0  0  0  0  0  0  0  0  0
   57.1961   28.7061   53.1399 H   0  0  0  0  0  0  0  0  0  0  0  0
   54.9880   27.8834   53.9468 H   0  0  0  0  0  0  0  0  0  0  0  0
   52.9019   29.1127   53.3710 H   0  0  0  0  0  0  0  0  0  0  0  0
   51.7880   31.9093   53.8157 H   0  0  0  0  0  0  0  0  0  0  0  0
   52.6671   31.3501   49.6532 H   0  0  0  0  0  0  0  0  0  0  0  0
   55.2311   32.0276   51.1698 H   0  0  0  0  0  0  0  0  0  0  0  0
   57.5415   32.1260   48.4407 H   0  0  0  0  0  0  0  0  0  0  0  0
   59.7879   30.5852   47.0960 H   0  0  0  0  0  0  0  0  0  0  0  0
   60.3046   28.2137   47.6602 H   0  0  0  0  0  0  0  0  0  0  0  0
   60.5815   25.7220   45.8007 H   0  0  0  0  0  0  0  0  0  0  0  0
   59.6759   25.8797   47.3569 H   0  0  0  0  0  0  0  0  0  0  0  0
  1  2  1  0
  2  3  1  0
  3  4  1  0
  4  5  2  0
  5  6  1  0
  6  7  1  0
  7  8  1  0
  8  9  2  0
  8 10  1  0
 10 11  2  0
 11 12  1  0
 12 13  2  0
 13 14  1  0
 14 15  1  0
 15 16  1  0
 16 17  1  0
 17 18  2  0
 17 19  1  0
 19 20  2  0
 20 21  1  0
 21 22  2  0
 22 23  1  0
 23 24  1  0
 24 25  1  0
 25 26  2  0
 26 27  1  0
 27 28  1  0
 23 29  2  0
 14 30  2  0
  6 31  2  0
 31 32  1  0
 32 33  2  0
 33 34  1  0
 34 35  1  0
 35 36  2  0
 35  2  1  0
 33  4  1  0
 30 10  1  0
 29 19  1  0
 28 24  2  0
  1 37  1  0
  1 38  1  0
  1 39  1  0
  3 40  1  0
  3 41  1  0
  5 42  1  0
 11 43  1  0
 12 44  1  0
 13 45  1  0
 15 46  1  0
 15 47  1  0
 16 48  1  0
 20 49  1  0
 21 50  1  0
 22 51  1  0
 25 52  1  0
 28 53  1  0
 29 54  1  0
 30 55  1  0
 31 56  1  0
 32 57  1  0
 34 58  1  0
 34 59  1  0
M  CHG  2   7  -1  27  -1
M  END
>  <UniqueID>  (13) 
12

>  <SMILES>  (13) 
CN1Cc2cc([N-]C(=O)c3cccc(CNC(=O)c4cccc(-c5cn[n-]c5)c4)c3)ccc2CC1=O

>  <Energy>  (13) 
102.15708127105943

>  <Genealogy>  (13) 
CN1Cc2cc([N-]C(=O)c3cccc(CNC(=O)c4cccc(-c5cn[n-]c5)c4)c3)ccc2CC1=O (protonated)
CN1Cc2cc([N-]C(=O)c3cccc(CNC(=O)c4cccc(-c5cn[n-]c5)c4)c3)ccc2CC1=O (3D coordinates assigned)
CN1Cc2cc([N-]C(=O)c3cccc(CNC(=O)c4cccc(-c5cn[n-]c5)c4)c3)ccc2CC1=O (nonaromatic ring conformer: 102.15708127105943 kcal/mol)

>  <smiles>  (13) 
CN1Cc2cc(NC(=O)c3cccc(CNC(=O)c4cccc(-c5cn[nH]c5)c4)c3)ccc2CC1=O

>  <score_type>  (13) 
oracle

>  <origin>  (13) 
adg

>  <m_score__min__energy>  (13) 
-15.17

>  <m_primary>  (13) 
energy

$$$$
13:0
     RDKit          3D

 32 33  0  0  0  0  0  0  0  0999 V2000
   58.8536   34.2658   52.7174 H   0  0  0  0  0  0  0  0  0  0  0  0
   58.5410   33.4600   52.0370 C   0  0  0  0  0  0  0  0  0  0  0  0
   59.1336   33.2393   51.1369 H   0  0  0  0  0  0  0  0  0  0  0  0
   57.4410   32.7490   52.3040 C   0  0  0  0  0  0  0  0  0  0  0  0
   56.8601   32.9830   53.2084 H   0  0  0  0  0  0  0  0  0  0  0  0
   56.9750   31.6390   51.4040 C   0  0  0  0  0  0  0  0  0  0  0  0
   56.4960   32.0749   50.5149 H   0  0  0  0  0  0  0  0  0  0  0  0
   57.8473   31.0336   51.1166 H   0  0  0  0  0  0  0  0  0  0  0  0
   55.9800   30.7420   52.1120 C   0  0  0  0  0  0  0  0  0  0  0  0
   54.6140   30.9640   51.9190 C   0  0  0  0  0  0  0  0  0  0  0  0
   54.2936   31.7954   51.2740 H   0  0  0  0  0  0  0  0  0  0  0  0
   53.6340   30.1520   52.5280 C   0  0  0  0  0  0  0  0  0  0  0  0
   52.3160   30.3640   52.2640 C   0  0  0  0  0  0  0  0  0  0  0  0
   51.5996   30.1613   53.0738 H   0  0  0  0  0  0  0  0  0  0  0  0
   51.7690   30.8440   50.9790 C   0  0  0  0  0  0  0  0  0  0  0  0
   51.6530   30.0670   49.8880 N   0  0  0  0  0  0  0  0  0  0  0  0
   51.0210   30.8650   49.0000 C   0  0  0  0  0  0  0  0  0  0  0  0
   50.7410   30.4900   47.8320 O   0  0  0  0  0  0  0  0  0  0  0  0
   50.7020   32.0920   49.4660 N   0  0  0  0  0  0  0  0  0  0  0  0
   51.1700   32.0590   50.7240 C   0  0  0  0  0  0  0  0  0  0  0  0
   51.0200   33.1020   51.6280 O   0  0  0  0  0  0  0  0  0  0  0  0
   54.0930   29.0810   53.3630 C   0  0  0  0  0  0  0  0  0  0  0  0
   53.2600   28.2780   54.0560 C   0  0  0  0  0  0  0  0  0  0  0  0
   53.6683   27.4708   54.6818 H   0  0  0  0  0  0  0  0  0  0  0  0
   52.1723   28.4303   53.9954 H   0  0  0  0  0  0  0  0  0  0  0  0
   55.4390   28.8740   53.5080 N   0  0  0  0  0  0  0  0  0  0  0  0
   55.7700   28.0880   54.1150 H   0  0  0  0  0  0  0  0  0  0  0  0
   56.3830   29.6560   52.9110 C   0  0  0  0  0  0  0  0  0  0  0  0
   57.8420   29.3590   53.1480 C   0  0  0  0  0  0  0  0  0  0  0  0
   58.0371   29.3193   54.2298 H   0  0  0  0  0  0  0  0  0  0  0  0
   58.0976   28.3904   52.6935 H   0  0  0  0  0  0  0  0  0  0  0  0
   58.4559   30.1506   52.6935 H   0  0  0  0  0  0  0  0  0  0  0  0
  1  2  1  0
  2  3  1  0
  2  4  2  0
  4  5  1  0
  4  6  1  0
  6  7  1  0
  6  8  1  0
  6  9  1  0
  9 10  2  0
 10 11  1  0
 10 12  1  0
 12 13  2  0
 13 14  1  0
 13 15  1  0
 15 16  1  0
 16 17  1  0
 17 18  2  0
 17 19  1  0
 19 20  1  0
 20 21  1  0
 12 22  1  0
 22 23  2  0
 23 24  1  0
 23 25  1  0
 22 26  1  0
 26 27  1  0
 26 28  2  0
 28 29  1  0
 29 30  1  0
 29 31  1  0
 29 32  1  0
 28  9  1  0
 20 15  2  0
M  CHG  4  16  -1  19  -1  21  -1  26   1
M  END
>  <UniqueID>  (14) 
13

>  <SMILES>  (14) 
C=CCc1c/c(=C\c2[n-]c(=O)[n-]c2[O-])c(=C)[nH+]c1C

>  <Energy>  (14) 
76.26968881959529

>  <Genealogy>  (14) 
C=CCc1cc(=Cc2[n-]c(=O)[n-]c2[O-])c(=C)[nH+]c1C (protonated)
C=CCc1c/c(=C\c2[n-]c(=O)[n-]c2[O-])c(=C)[nH+]c1C (cis-trans isomerization)
C=CCc1c/c(=C\c2[n-]c(=O)[n-]c2[O-])c(=C)[nH+]c1C (3D coordinates assigned)
C=CCc1c/c(=C\c2[n-]c(=O)[n-]c2[O-])c(=C)[nH+]c1C (optimized conformer: 76.26968881959529 kcal/mol)

>  <smiles>  (14) 
C=CCc1cc(=Cc2[nH]c(=O)[nH]c2O)c(=C)nc1C

>  <score_type>  (14) 
oracle

>  <origin>  (14) 
adg

>  <m_score__min__energy>  (14) 
-14.609999999999999

>  <m_primary>  (14) 
energy

$$$$
14:0
     RDKit          3D

 54 55  0  0  0  0  0  0  0  0999 V2000
   56.6720   34.5870   44.8670 C   0  0  0  0  0  0  0  0  0  0  0  0
   57.5250   33.3150   45.0180 C   0  0  0  0  0  0  0  0  0  0  0  0
   58.8290   33.4910   44.2210 C   0  0  0  0  0  0  0  0  0  0  0  0
   57.8160   33.0010   46.5140 C   0  0  2  0  0  0  0  0  0  0  0  0
   58.4180   34.1510   47.1990 N   0  0  0  0  0  0  0  0  0  0  0  0
   59.7000   34.7240   46.9130 C   0  0  0  0  0  0  0  0  0  0  0  0
   59.7630   35.7250   46.1510 O   0  0  0  0  0  0  0  0  0  0  0  0
   60.9380   34.2040   47.5150 C   0  0  0  0  0  0  0  0  0  0  0  0
   61.9940   33.7730   46.6970 C   0  0  0  0  0  0  0  0  0  0  0  0
   63.1840   33.3130   47.2650 C   0  0  0  0  0  0  0  0  0  0  0  0
   63.3360   33.2980   48.6560 C   0  0  0  0  0  0  0  0  0  0  0  0
   64.8340   32.7290   49.3740 Cl  0  0  0  0  0  0  0  0  0  0  0  0
   62.2960   33.7480   49.4780 C   0  0  0  0  0  0  0  0  0  0  0  0
   61.1030   34.2030   48.9090 C   0  0  0  0  0  0  0  0  0  0  0  0
   58.6580   31.7570   46.7100 C   0  0  0  0  0  0  0  0  0  0  0  0
   59.3460   31.6260   47.7120 O   0  0  0  0  0  0  0  0  0  0  0  0
   58.6670   30.6810   45.6650 C   0  0  0  0  0  0  0  0  0  0  0  0
   57.3410   30.4840   45.1850 O   0  0  0  0  0  0  0  0  0  0  0  0
   56.6780   29.2590   45.2770 C   0  0  0  0  0  0  0  0  0  0  0  0
   55.4950   29.1330   44.8610 O   0  0  0  0  0  0  0  0  0  0  0  0
   57.3950   28.0830   45.8590 C   0  0  0  0  0  0  0  0  0  0  0  0
   57.1830   26.9000   45.0230 N   0  0  0  0  0  0  0  0  0  0  0  0
   56.3010   25.6770   45.8920 S   0  0  0  0  0  0  0  0  0  0  0  0
   54.8450   26.0500   45.9410 O   0  0  0  0  0  0  0  0  0  0  0  0
   56.8170   25.6030   47.3040 O   0  0  0  0  0  0  0  0  0  0  0  0
   56.4780   24.1050   45.0880 C   0  0  0  0  0  0  0  0  0  0  0  0
   56.6050   24.0880   43.6880 C   0  0  0  0  0  0  0  0  0  0  0  0
   56.6770   22.8830   42.9910 C   0  0  0  0  0  0  0  0  0  0  0  0
   56.6170   21.6740   43.6800 C   0  0  0  0  0  0  0  0  0  0  0  0
   56.4970   21.6650   45.0690 C   0  0  0  0  0  0  0  0  0  0  0  0
   56.4370   22.8690   45.7970 C   0  0  0  0  0  0  0  0  0  0  0  0
   56.3390   22.7740   47.2760 C   0  0  0  0  0  0  0  0  0  0  0  0
   55.3600   23.2660   47.8960 O   0  0  0  0  0  0  0  0  0  0  0  0
   57.3670   22.1900   48.0040 O   0  0  0  0  0  0  0  0  0  0  0  0
   56.4121   34.9746   45.8631 H   0  0  0  0  0  0  0  0  0  0  0  0
   57.2431   35.3480   44.3150 H   0  0  0  0  0  0  0  0  0  0  0  0
   55.7512   34.3476   44.3150 H   0  0  0  0  0  0  0  0  0  0  0  0
   56.9668   32.4562   44.6169 H   0  0  0  0  0  0  0  0  0  0  0  0
   59.6723   33.6048   44.9181 H   0  0  0  0  0  0  0  0  0  0  0  0
   58.9937   32.6069   43.5875 H   0  0  0  0  0  0  0  0  0  0  0  0
   58.7534   34.3871   43.5875 H   0  0  0  0  0  0  0  0  0  0  0  0
   56.8377   32.7948   46.9728 H   0  0  0  0  0  0  0  0  0  0  0  0
   61.8837   33.7977   45.6028 H   0  0  0  0  0  0  0  0  0  0  0  0
   64.0021   32.9623   46.6187 H   0  0  0  0  0  0  0  0  0  0  0  0
   62.4176   33.7436   50.5713 H   0  0  0  0  0  0  0  0  0  0  0  0
   60.2896   34.5620   49.5567 H   0  0  0  0  0  0  0  0  0  0  0  0
   59.3189   30.9826   44.8319 H   0  0  0  0  0  0  0  0  0  0  0  0
   59.0451   29.7448   46.1015 H   0  0  0  0  0  0  0  0  0  0  0  0
   58.4715   28.3029   45.9118 H   0  0  0  0  0  0  0  0  0  0  0  0
   57.0032   27.8857   46.8678 H   0  0  0  0  0  0  0  0  0  0  0  0
   56.6481   25.0381   43.1353 H   0  0  0  0  0  0  0  0  0  0  0  0
   56.7813   22.8869   41.8960 H   0  0  0  0  0  0  0  0  0  0  0  0
   56.6644   20.7243   43.1271 H   0  0  0  0  0  0  0  0  0  0  0  0
   56.4485   20.7047   45.6033 H   0  0  0  0  0  0  0  0  0  0  0  0
  1  2  1  0
  2  3  1  0
  2  4  1  0
  4  5  1  0
  5  6  1  0
  6  7  2  0
  6  8  1  0
  8  9  2  0
  9 10  1  0
 10 11  2  0
 11 12  1  0
 11 13  1  0
 13 14  2  0
  4 15  1  0
 15 16  2  0
 15 17  1  0
 17 18  1  0
 18 19  1  0
 19 20  2  0
 19 21  1  0
 21 22  1  0
 22 23  1  0
 23 24  2  0
 23 25  2  0
 23 26  1  0
 26 27  2  0
 27 28  1  0
 28 29  2  0
 29 30  1  0
 30 31  2  0
 31 32  1  0
 32 33  2  0
 32 34  1  0
 14  8  1  0
 31 26  1  0
  1 35  1  0
  1 36  1  0
  1 37  1  0
  2 38  1  0
  3 39  1  0
  3 40  1  0
  3 41  1  0
  4 42  1  1
  9 43  1  0
 10 44  1  0
 13 45  1  0
 14 46  1  0
 17 47  1  0
 17 48  1  0
 21 49  1  0
 21 50  1  0
 27 51  1  0
 28 52  1  0
 29 53  1  0
 30 54  1  0
M  CHG  3   5  -1  22  -1  34  -1
M  END
>  <UniqueID>  (15) 
14

>  <SMILES>  (15) 
CC(C)[C@H]([N-]C(=O)c1ccc(Cl)cc1)C(=O)COC(=O)C[N-]S(=O)(=O)c1ccccc1C(=O)[O-]

>  <Energy>  (15) 
59.81163041569185

>  <Genealogy>  (15) 
CC(C)C([N-]C(=O)c1ccc(Cl)cc1)C(=O)COC(=O)C[N-]S(=O)(=O)c1ccccc1C(=O)[O-] (protonated)
CC(C)[C@H]([N-]C(=O)c1ccc(Cl)cc1)C(=O)COC(=O)C[N-]S(=O)(=O)c1ccccc1C(=O)[O-] (chirality)
CC(C)[C@H]([N-]C(=O)c1ccc(Cl)cc1)C(=O)COC(=O)C[N-]S(=O)(=O)c1ccccc1C(=O)[O-] (3D coordinates assigned)
CC(C)[C@H]([N-]C(=O)c1ccc(Cl)cc1)C(=O)COC(=O)C[N-]S(=O)(=O)c1ccccc1C(=O)[O-] (optimized conformer: 59.81163041569185 kcal/mol)

>  <smiles>  (15) 
CC(C)C(NC(=O)c1ccc(Cl)cc1)C(=O)COC(=O)CNS(=O)(=O)c1ccccc1C(=O)O

>  <score_type>  (15) 
oracle

>  <origin>  (15) 
adg

>  <m_score__min__energy>  (15) 
-15.449999999999999

>  <m_primary>  (15) 
energy

$$$$
15:0
     RDKit          3D

 56 59  0  0  0  0  0  0  0  0999 V2000
   60.1070   26.0730   46.7500 C   0  0  0  0  0  0  0  0  0  0  0  0
   59.2690   26.6640   45.8940 C   0  0  0  0  0  0  0  0  0  0  0  0
   59.4970   28.2300   45.3190 S   0  0  0  0  0  0  0  0  0  0  0  0
   58.1310   28.2650   44.3460 C   0  0  0  0  0  0  0  0  0  0  0  0
   57.6650   29.4420   43.5490 C   0  0  0  0  0  0  0  0  0  0  0  0
   56.5200   30.1560   44.2170 C   0  0  0  0  0  0  0  0  0  0  0  0
   55.5160   29.4970   44.6010 O   0  0  0  0  0  0  0  0  0  0  0  0
   56.6250   31.5350   44.5890 N   0  0  0  0  0  0  0  0  0  0  0  0
   57.3930   32.0160   45.6950 C   0  0  0  0  0  0  0  0  0  0  0  0
   58.1010   31.1060   46.4890 C   0  0  0  0  0  0  0  0  0  0  0  0
   58.8600   31.5610   47.5710 C   0  0  0  0  0  0  0  0  0  0  0  0
   58.8940   32.9270   47.8860 C   0  0  0  0  0  0  0  0  0  0  0  0
   59.8090   33.4800   49.2860 S   0  0  0  0  0  0  0  0  0  0  0  0
   59.2560   32.8410   50.5290 O   0  0  0  0  0  0  0  0  0  0  0  0
   59.6520   34.9710   49.3850 O   0  0  0  0  0  0  0  0  0  0  0  0
   61.5060   33.0900   49.1330 N   0  0  0  0  0  0  0  0  0  0  0  0
   62.0030   33.4390   47.7880 C   0  0  0  0  0  0  0  0  0  0  0  0
   63.3360   32.7300   47.4550 C   0  0  0  0  0  0  0  0  0  0  0  0
   64.0460   32.2570   48.6590 N   0  0  0  0  0  0  0  0  0  0  0  0
   64.6130   33.3690   49.4420 C   0  0  0  0  0  0  0  0  0  0  0  0
   63.2150   31.3540   49.4910 C   0  0  0  0  0  0  0  0  0  0  0  0
   61.7110   31.6610   49.4000 C   0  0  0  0  0  0  0  0  0  0  0  0
   58.1420   33.8300   47.1210 C   0  0  0  0  0  0  0  0  0  0  0  0
   57.4070   33.3810   46.0200 C   0  0  0  0  0  0  0  0  0  0  0  0
   57.4760   27.0440   44.4380 C   0  0  0  0  0  0  0  0  0  0  0  0
   58.1000   26.1280   45.3150 C   0  0  0  0  0  0  0  0  0  0  0  0
   57.5960   24.9080   45.6000 C   0  0  0  0  0  0  0  0  0  0  0  0
   56.1630   24.5680   45.5170 C   0  0  0  0  0  0  0  0  0  0  0  0
   55.6860   23.3240   45.3240 N   0  0  0  0  0  0  0  0  0  0  0  0
   54.3490   23.4840   45.4240 C   0  0  0  0  0  0  0  0  0  0  0  0
   53.5410   22.5230   45.3050 O   0  0  0  0  0  0  0  0  0  0  0  0
   53.9450   24.7460   45.6830 N   0  0  0  0  0  0  0  0  0  0  0  0
   55.1060   25.4200   45.7510 C   0  0  0  0  0  0  0  0  0  0  0  0
   55.1860   26.7870   46.0030 O   0  0  0  0  0  0  0  0  0  0  0  0
   59.9093   25.0468   47.0934 H   0  0  0  0  0  0  0  0  0  0  0  0
   60.9948   26.6125   47.1116 H   0  0  0  0  0  0  0  0  0  0  0  0
   58.5024   30.1455   43.4313 H   0  0  0  0  0  0  0  0  0  0  0  0
   57.3144   29.0750   42.5731 H   0  0  0  0  0  0  0  0  0  0  0  0
   58.0599   30.0307   46.2609 H   0  0  0  0  0  0  0  0  0  0  0  0
   59.4330   30.8445   48.1779 H   0  0  0  0  0  0  0  0  0  0  0  0
   61.2489   33.1428   47.0440 H   0  0  0  0  0  0  0  0  0  0  0  0
   62.1832   34.5239   47.7659 H   0  0  0  0  0  0  0  0  0  0  0  0
   63.1229   31.8651   46.8097 H   0  0  0  0  0  0  0  0  0  0  0  0
   63.9852   33.4623   46.9528 H   0  0  0  0  0  0  0  0  0  0  0  0
   64.5038   33.1547   50.5154 H   0  0  0  0  0  0  0  0  0  0  0  0
   65.6794   33.4832   49.1976 H   0  0  0  0  0  0  0  0  0  0  0  0
   64.0791   34.2992   49.1976 H   0  0  0  0  0  0  0  0  0  0  0  0
   63.3815   30.3191   49.1574 H   0  0  0  0  0  0  0  0  0  0  0  0
   63.5168   31.5038   50.5381 H   0  0  0  0  0  0  0  0  0  0  0  0
   61.2673   31.0707   48.5847 H   0  0  0  0  0  0  0  0  0  0  0  0
   61.2304   31.3991   50.3542 H   0  0  0  0  0  0  0  0  0  0  0  0
   58.1304   34.8969   47.3886 H   0  0  0  0  0  0  0  0  0  0  0  0
   56.8395   34.0978   45.4083 H   0  0  0  0  0  0  0  0  0  0  0  0
   56.5569   26.8113   43.8802 H   0  0  0  0  0  0  0  0  0  0  0  0
   58.2966   24.1199   45.9131 H   0  0  0  0  0  0  0  0  0  0  0  0
   55.1310   27.4660   45.2530 H   0  0  0  0  0  0  0  0  0  0  0  0
  1  2  2  0
  2  3  1  0
  3  4  1  0
  4  5  1  0
  5  6  1  0
  6  7  2  0
  6  8  1  0
  8  9  1  0
  9 10  2  0
 10 11  1  0
 11 12  2  0
 12 13  1  0
 13 14  2  0
 13 15  2  0
 13 16  1  0
 16 17  1  0
 17 18  1  0
 18 19  1  0
 19 20  1  0
 19 21  1  0
 21 22  1  0
 12 23  1  0
 23 24  2  0
  4 25  2  0
 25 26  1  0
 26 27  2  3
 27 28  1  0
 28 29  1  0
 29 30  1  0
 30 31  2  0
 30 32  1  0
 32 33  1  0
 33 34  1  0
 26  2  1  0
 33 28  2  0
 24  9  1  0
 22 16  1  0
  1 35  1  0
  1 36  1  0
  5 37  1  0
  5 38  1  0
 10 39  1  0
 11 40  1  0
 17 41  1  0
 17 42  1  0
 18 43  1  0
 18 44  1  0
 20 45  1  0
 20 46  1  0
 20 47  1  0
 21 48  1  0
 21 49  1  0
 22 50  1  0
 22 51  1  0
 23 52  1  0
 24 53  1  0
 25 54  1  0
 27 55  1  0
 34 56  1  0
M  CHG  3   8  -1  29  -1  32  -1
M  END
>  <UniqueID>  (16) 
15

>  <SMILES>  (16) 
C=c1sc(CC(=O)[N-]c2ccc(S(=O)(=O)N3CCN(C)CC3)cc2)cc1=Cc1[n-]c(=O)[n-]c1O

>  <Energy>  (16) 
136.04581284251873

>  <Genealogy>  (16) 
C=c1sc(CC(=O)[N-]c2ccc(S(=O)(=O)N3CCN(C)CC3)cc2)cc1=Cc1[n-]c(=O)[n-]c1O (protonated)
C=c1sc(CC(=O)[N-]c2ccc(S(=O)(=O)N3CCN(C)CC3)cc2)cc1=Cc1[n-]c(=O)[n-]c1O (3D coordinates assigned)
C=c1sc(CC(=O)[N-]c2ccc(S(=O)(=O)N3CCN(C)CC3)cc2)cc1=Cc1[n-]c(=O)[n-]c1O (nonaromatic ring conformer: 136.04581284251873 kcal/mol)

>  <smiles>  (16) 
C=c1sc(CC(=O)Nc2ccc(S(=O)(=O)N3CCN(C)CC3)cc2)cc1=Cc1[nH]c(=O)[nH]c1O

>  <score_type>  (16) 
oracle

>  <origin>  (16) 
adg

>  <m_score__min__energy>  (16) 
-16.359999999999999

>  <m_primary>  (16) 
energy

$$$$
16:0
     RDKit          3D

 60 64  0  0  0  0  0  0  0  0999 V2000
   53.1460   21.8470   46.3130 C   0  0  0  0  0  0  0  0  0  0  0  0
   53.6670   22.7030   45.2530 N   0  0  0  0  0  0  0  0  0  0  0  0
   53.8180   24.1250   45.2950 C   0  0  0  0  0  0  0  0  0  0  0  0
   52.7720   24.8250   45.2280 O   0  0  0  0  0  0  0  0  0  0  0  0
   55.1360   24.7990   45.4440 C   0  0  0  0  0  0  0  0  0  0  0  0
   56.3130   24.1750   44.9920 C   0  0  0  0  0  0  0  0  0  0  0  0
   57.5380   24.8410   45.0970 C   0  0  0  0  0  0  0  0  0  0  0  0
   57.5950   26.1210   45.6760 C   0  0  0  0  0  0  0  0  0  0  0  0
   58.7960   26.9100   45.6990 N   0  0  0  0  0  0  0  0  0  0  0  0
   58.9800   28.0930   46.2100 C   0  0  0  0  0  0  0  0  0  0  0  0
   59.4350   28.2300   47.4860 N   0  0  0  0  0  0  0  0  0  0  0  0
   59.6250   29.4420   48.0650 C   0  0  0  0  0  0  0  0  0  0  0  0
   59.3420   30.6090   47.3530 C   0  0  0  0  0  0  0  0  0  0  0  0
   59.5660   31.9340   47.9510 C   0  0  0  0  0  0  0  0  0  0  0  0
   58.5630   32.6520   48.2070 O   0  0  0  0  0  0  0  0  0  0  0  0
   60.8950   32.3960   48.2720 N   0  0  0  0  0  0  0  0  0  0  0  0
   62.0750   31.6780   47.7530 C   0  0  0  0  0  0  0  0  0  0  0  0
   63.3850   32.3820   48.1300 C   0  0  0  0  0  0  0  0  0  0  0  0
   63.3660   32.7620   49.5490 N   0  0  0  0  0  0  0  0  0  0  0  0
   64.5540   32.6210   50.3580 C   0  0  0  0  0  0  0  0  0  0  0  0
   64.4470   32.3200   51.5850 O   0  0  0  0  0  0  0  0  0  0  0  0
   65.9190   32.7820   49.7700 C   0  0  0  0  0  0  0  0  0  0  0  0
   66.9210   33.5040   50.6610 C   0  0  0  0  0  0  0  0  0  0  0  0
   66.9960   31.9920   50.4930 C   0  0  0  0  0  0  0  0  0  0  0  0
   62.1670   33.3710   50.1410 C   0  0  0  0  0  0  0  0  0  0  0  0
   61.0810   33.6080   49.0850 C   0  0  0  0  0  0  0  0  0  0  0  0
   58.8700   30.5040   46.0470 C   0  0  0  0  0  0  0  0  0  0  0  0
   58.6780   29.2530   45.4550 C   0  0  0  0  0  0  0  0  0  0  0  0
   58.2060   29.2380   44.1320 O   0  0  0  0  0  0  0  0  0  0  0  0
   57.3520   30.2070   43.5350 C   0  0  0  0  0  0  0  0  0  0  0  0
   55.9300   30.0850   44.0440 C   0  0  0  0  0  0  0  0  0  0  0  0
   56.2750   29.6220   42.6380 C   0  0  0  0  0  0  0  0  0  0  0  0
   56.4010   26.7070   46.1150 C   0  0  0  0  0  0  0  0  0  0  0  0
   55.2220   26.0420   45.9930 N   0  0  0  0  0  0  0  0  0  0  0  0
   53.4069   22.2756   47.2919 H   0  0  0  0  0  0  0  0  0  0  0  0
   52.0519   21.7769   46.2232 H   0  0  0  0  0  0  0  0  0  0  0  0
   53.5863   20.8430   46.2232 H   0  0  0  0  0  0  0  0  0  0  0  0
   56.2698   23.1656   44.5570 H   0  0  0  0  0  0  0  0  0  0  0  0
   58.4571   24.3635   44.7266 H   0  0  0  0  0  0  0  0  0  0  0  0
   60.0023   29.5053   49.0963 H   0  0  0  0  0  0  0  0  0  0  0  0
   62.0848   30.6608   48.1716 H   0  0  0  0  0  0  0  0  0  0  0  0
   62.0043   31.6547   46.6555 H   0  0  0  0  0  0  0  0  0  0  0  0
   64.2292   31.7009   47.9474 H   0  0  0  0  0  0  0  0  0  0  0  0
   63.4949   33.2886   47.5168 H   0  0  0  0  0  0  0  0  0  0  0  0
   65.5929   32.8924   48.7253 H   0  0  0  0  0  0  0  0  0  0  0  0
   67.6931   34.1467   50.2129 H   0  0  0  0  0  0  0  0  0  0  0  0
   66.8486   34.1898   51.5180 H   0  0  0  0  0  0  0  0  0  0  0  0
   67.8233   31.5424   49.9243 H   0  0  0  0  0  0  0  0  0  0  0  0
   67.0009   31.1329   51.1799 H   0  0  0  0  0  0  0  0  0  0  0  0
   61.7709   32.7000   50.9175 H   0  0  0  0  0  0  0  0  0  0  0  0
   62.4490   34.3429   50.5720 H   0  0  0  0  0  0  0  0  0  0  0  0
   60.1345   33.8590   49.5861 H   0  0  0  0  0  0  0  0  0  0  0  0
   61.3889   34.4371   48.4310 H   0  0  0  0  0  0  0  0  0  0  0  0
   58.6458   31.4164   45.4749 H   0  0  0  0  0  0  0  0  0  0  0  0
   58.0897   31.0147   43.4189 H   0  0  0  0  0  0  0  0  0  0  0  0
   55.6858   29.3464   44.8217 H   0  0  0  0  0  0  0  0  0  0  0  0
   55.1960   30.7818   44.4750 H   0  0  0  0  0  0  0  0  0  0  0  0
   56.2816   28.5485   42.3980 H   0  0  0  0  0  0  0  0  0  0  0  0
   55.8956   29.8443   41.6297 H   0  0  0  0  0  0  0  0  0  0  0  0
   56.4176   27.7122   46.5615 H   0  0  0  0  0  0  0  0  0  0  0  0
  1  2  1  0
  2  3  1  0
  3  4  2  0
  3  5  1  0
  5  6  2  0
  6  7  1  0
  7  8  2  0
  8  9  1  0
  9 10  2  3
 10 11  1  0
 11 12  1  0
 12 13  2  0
 13 14  1  0
 14 15  2  0
 14 16  1  0
 16 17  1  0
 17 18  1  0
 18 19  1  0
 19 20  1  0
 20 21  2  0
 20 22  1  0
 22 23  1  0
 23 24  1  0
 19 25  1  0
 25 26  1  0
 13 27  1  0
 27 28  2  0
 28 29  1  0
 29 30  1  0
 30 31  1  0
 31 32  1  0
  8 33  1  0
 33 34  2  0
 34  5  1  0
 28 10  1  0
 32 30  1  0
 26 16  1  0
 24 22  1  0
  1 35  1  0
  1 36  1  0
  1 37  1  0
  6 38  1  0
  7 39  1  0
 12 40  1  0
 17 41  1  0
 17 42  1  0
 18 43  1  0
 18 44  1  0
 22 45  1  0
 23 46  1  0
 23 47  1  0
 24 48  1  0
 24 49  1  0
 25 50  1  0
 25 51  1  0
 26 52  1  0
 26 53  1  0
 27 54  1  0
 30 55  1  0
 31 56  1  0
 31 57  1  0
 32 58  1  0
 32 59  1  0
 33 60  1  0
M  CHG  2   2  -1  11  -1
M  END
>  <UniqueID>  (17) 
16

>  <SMILES>  (17) 
C[N-]C(=O)c1ccc(N=c2[n-]cc(C(=O)N3CCN(C(=O)C4CC4)CC3)cc2OC2CC2)cn1

>  <Energy>  (17) 
610.4007641281755

>  <Genealogy>  (17) 
C[N-]C(=O)c1ccc(N=c2[n-]cc(C(=O)N3CCN(C(=O)C4CC4)CC3)cc2OC2CC2)cn1 (protonated)
C[N-]C(=O)c1ccc(N=c2[n-]cc(C(=O)N3CCN(C(=O)C4CC4)CC3)cc2OC2CC2)cn1 (3D coordinates assigned)
C[N-]C(=O)c1ccc(N=c2[n-]cc(C(=O)N3CCN(C(=O)C4CC4)CC3)cc2OC2CC2)cn1 (nonaromatic ring conformer: 610.4007641281755 kcal/mol)

>  <smiles>  (17) 
CNC(=O)c1ccc(N=c2[nH]cc(C(=O)N3CCN(C(=O)C4CC4)CC3)cc2OC2CC2)cn1

>  <score_type>  (17) 
oracle

>  <origin>  (17) 
adg

>  <m_score__min__energy>  (17) 
-11.25

>  <m_primary>  (17) 
energy

$$$$
17:0
     RDKit          3D

 49 51  0  0  0  0  0  0  0  0999 V2000
   56.3010   30.1110   44.3760 C   0  0  0  0  0  0  0  0  0  0  0  0
   56.6720   28.9680   45.2620 C   0  0  0  0  0  0  0  0  0  0  0  0
   57.7820   29.0430   46.0370 N   0  0  0  0  0  0  0  0  0  0  0  0
   58.1720   28.0110   46.8330 C   0  0  0  0  0  0  0  0  0  0  0  0
   59.4090   28.2000   47.6830 C   0  0  0  0  0  0  0  0  0  0  0  0
   59.7330   29.6350   47.8750 N   0  0  0  0  0  0  0  0  0  0  0  0
   58.9100   30.1970   48.9650 C   0  0  0  0  0  0  0  0  0  0  0  0
   59.0500   31.7220   48.9880 C   0  0  0  0  0  0  0  0  0  0  0  0
   60.4520   32.1320   48.8190 N   0  0  0  0  0  0  0  0  0  0  0  0
   60.7940   33.5360   48.8000 C   0  0  0  0  0  0  0  0  0  0  0  0
   61.9880   33.8930   49.0060 O   0  0  0  0  0  0  0  0  0  0  0  0
   59.7360   34.5900   48.5600 C   0  0  0  0  0  0  0  0  0  0  0  0
   59.0710   34.4460   47.2140 C   0  0  0  0  0  0  0  0  0  0  0  0
   59.7130   34.9080   46.0520 C   0  0  0  0  0  0  0  0  0  0  0  0
   59.1080   34.7430   44.8020 C   0  0  0  0  0  0  0  0  0  0  0  0
   57.8660   34.1090   44.7020 C   0  0  0  0  0  0  0  0  0  0  0  0
   57.2290   33.6350   45.8520 C   0  0  0  0  0  0  0  0  0  0  0  0
   57.8300   33.7970   47.1040 C   0  0  0  0  0  0  0  0  0  0  0  0
   61.5150   31.1220   48.9290 C   0  0  0  0  0  0  0  0  0  0  0  0
   61.1840   29.8340   48.1380 C   0  0  0  0  0  0  0  0  0  0  0  0
   57.3970   26.8260   46.8600 C   0  0  0  0  0  0  0  0  0  0  0  0
   57.8030   25.6310   47.6930 C   0  0  0  0  0  0  0  0  0  0  0  0
   56.2690   26.7630   46.0170 C   0  0  0  0  0  0  0  0  0  0  0  0
   55.5590   25.7240   45.9640 O   0  0  0  0  0  0  0  0  0  0  0  0
   55.9370   27.8280   45.2450 N   0  0  0  0  0  0  0  0  0  0  0  0
   56.0199   30.9771   44.9931 H   0  0  0  0  0  0  0  0  0  0  0  0
   57.1592   30.3763   43.7410 H   0  0  0  0  0  0  0  0  0  0  0  0
   55.4506   29.8217   43.7410 H   0  0  0  0  0  0  0  0  0  0  0  0
   59.2384   27.7390   48.6670 H   0  0  0  0  0  0  0  0  0  0  0  0
   60.2552   27.7253   47.1647 H   0  0  0  0  0  0  0  0  0  0  0  0
   59.4880   30.1450   46.9930 H   0  0  0  0  0  0  0  0  0  0  0  0
   57.8556   29.9296   48.8015 H   0  0  0  0  0  0  0  0  0  0  0  0
   59.2518   29.7865   49.9266 H   0  0  0  0  0  0  0  0  0  0  0  0
   58.4506   32.1493   48.1706 H   0  0  0  0  0  0  0  0  0  0  0  0
   58.6959   32.0887   49.9628 H   0  0  0  0  0  0  0  0  0  0  0  0
   58.9686   34.5041   49.3434 H   0  0  0  0  0  0  0  0  0  0  0  0
   60.2313   35.5719   48.5844 H   0  0  0  0  0  0  0  0  0  0  0  0
   60.6938   35.4006   46.1261 H   0  0  0  0  0  0  0  0  0  0  0  0
   59.6102   35.1127   43.8959 H   0  0  0  0  0  0  0  0  0  0  0  0
   57.3902   33.9833   43.7182 H   0  0  0  0  0  0  0  0  0  0  0  0
   56.2532   33.1336   45.7721 H   0  0  0  0  0  0  0  0  0  0  0  0
   57.3294   33.4150   48.0059 H   0  0  0  0  0  0  0  0  0  0  0  0
   62.4500   31.5481   48.5363 H   0  0  0  0  0  0  0  0  0  0  0  0
   61.6127   30.8499   49.9903 H   0  0  0  0  0  0  0  0  0  0  0  0
   61.7067   29.8791   47.1712 H   0  0  0  0  0  0  0  0  0  0  0  0
   61.5111   28.9882   48.7606 H   0  0  0  0  0  0  0  0  0  0  0  0
   57.7177   25.8822   48.7605 H   0  0  0  0  0  0  0  0  0  0  0  0
   57.1429   24.7819   47.4622 H   0  0  0  0  0  0  0  0  0  0  0  0
   58.8437   25.3597   47.4622 H   0  0  0  0  0  0  0  0  0  0  0  0
  1  2  1  0
  2  3  2  0
  3  4  1  0
  4  5  1  0
  5  6  1  0
  6  7  1  0
  7  8  1  0
  8  9  1  0
  9 10  1  0
 10 11  2  0
 10 12  1  0
 12 13  1  0
 13 14  2  0
 14 15  1  0
 15 16  2  0
 16 17  1  0
 17 18  2  0
  9 19  1  0
 19 20  1  0
  4 21  2  0
 21 22  1  0
 21 23  1  0
 23 24  2  0
 23 25  1  0
 25  2  1  0
 20  6  1  0
 18 13  1  0
  1 26  1  0
  1 27  1  0
  1 28  1  0
  5 29  1  0
  5 30  1  0
  6 31  1  0
  7 32  1  0
  7 33  1  0
  8 34  1  0
  8 35  1  0
 12 36  1  0
 12 37  1  0
 14 38  1  0
 15 39  1  0
 16 40  1  0
 17 41  1  0
 18 42  1  0
 19 43  1  0
 19 44  1  0
 20 45  1  0
 20 46  1  0
 22 47  1  0
 22 48  1  0
 22 49  1  0
M  CHG  2   6   1  25  -1
M  END
>  <UniqueID>  (18) 
17

>  <SMILES>  (18) 
Cc1nc(C[NH+]2CCN(C(=O)Cc3ccccc3)CC2)c(C)c(=O)[n-]1

>  <Energy>  (18) 
58.85854514957863

>  <Genealogy>  (18) 
Cc1nc(C[NH+]2CCN(C(=O)Cc3ccccc3)CC2)c(C)c(=O)[n-]1 (protonated)
Cc1nc(C[NH+]2CCN(C(=O)Cc3ccccc3)CC2)c(C)c(=O)[n-]1 (3D coordinates assigned)
Cc1nc(C[NH+]2CCN(C(=O)Cc3ccccc3)CC2)c(C)c(=O)[n-]1 (nonaromatic ring conformer: 58.85854514957863 kcal/mol)

>  <smiles>  (18) 
Cc1nc(CN2CCN(C(=O)Cc3ccccc3)CC2)c(C)c(=O)[nH]1

>  <score_type>  (18) 
oracle

>  <origin>  (18) 
adg

>  <m_score__min__energy>  (18) 
-7.8399999999999999

>  <m_primary>  (18) 
energy

$$$$
18:0
     RDKit          3D

 68 72  0  0  0  0  0  0  0  0999 V2000
   58.2336   28.9344   44.0109 H   0  0  0  0  0  0  0  0  0  0  0  0
   58.0010   27.8660   44.1310 C   0  0  0  0  0  0  0  0  0  0  0  0
   57.5775   27.2974   43.2900 H   0  0  0  0  0  0  0  0  0  0  0  0
   58.2340   27.2560   45.3040 C   0  0  0  0  0  0  0  0  0  0  0  0
   57.9930   25.9080   45.6140 C   0  0  0  0  0  0  0  0  0  0  0  0
   57.2680   24.9710   44.9730 C   0  0  0  0  0  0  0  0  0  0  0  0
   57.7864   24.3646   44.2157 H   0  0  0  0  0  0  0  0  0  0  0  0
   55.8390   24.6890   45.2000 C   0  0  0  0  0  0  0  0  0  0  0  0
   55.2170   23.5450   44.8580 N   0  0  0  0  0  0  0  0  0  0  0  0
   53.9180   23.8050   45.1180 C   0  0  0  0  0  0  0  0  0  0  0  0
   53.0070   22.9560   44.9390 O   0  0  0  0  0  0  0  0  0  0  0  0
   53.6710   25.0510   45.5760 N   0  0  0  0  0  0  0  0  0  0  0  0
   54.8950   25.6000   45.6050 C   0  0  0  0  0  0  0  0  0  0  0  0
   55.1450   26.9110   45.9860 O   0  0  0  0  0  0  0  0  0  0  0  0
   58.6450   25.6640   46.8110 C   0  0  0  0  0  0  0  0  0  0  0  0
   58.7243   24.6967   47.3286 H   0  0  0  0  0  0  0  0  0  0  0  0
   59.1760   26.8660   47.2300 C   0  0  0  0  0  0  0  0  0  0  0  0
   59.9350   27.0580   48.5080 C   0  0  0  0  0  0  0  0  0  0  0  0
   59.2634   26.8881   49.3624 H   0  0  0  0  0  0  0  0  0  0  0  0
   60.7696   26.3427   48.5498 H   0  0  0  0  0  0  0  0  0  0  0  0
   60.3291   28.0841   48.5498 H   0  0  0  0  0  0  0  0  0  0  0  0
   58.9280   27.8350   46.3190 N   0  0  0  0  0  0  0  0  0  0  0  0
   59.3090   29.2190   46.4370 C   0  0  0  0  0  0  0  0  0  0  0  0
   58.4210   30.2370   46.0660 C   0  0  0  0  0  0  0  0  0  0  0  0
   57.4052   29.9823   45.7294 H   0  0  0  0  0  0  0  0  0  0  0  0
   58.8210   31.5750   46.1220 C   0  0  0  0  0  0  0  0  0  0  0  0
   58.1140   32.3690   45.8398 H   0  0  0  0  0  0  0  0  0  0  0  0
   60.1190   31.9120   46.5360 C   0  0  0  0  0  0  0  0  0  0  0  0
   60.5200   33.3370   46.5630 C   0  0  0  0  0  0  0  0  0  0  0  0
   59.9670   34.1190   45.7400 O   0  0  0  0  0  0  0  0  0  0  0  0
   61.5340   33.8650   47.4620 N   0  0  2  0  0  0  0  0  0  0  0  0
   61.4890   34.9080   47.3590 H   0  0  0  0  0  0  0  0  0  0  0  0
   62.9290   33.4920   47.0870 C   0  0  0  0  0  0  0  0  0  0  0  0
   62.9289   33.1513   46.0411 H   0  0  0  0  0  0  0  0  0  0  0  0
   63.5533   34.3855   47.2353 H   0  0  0  0  0  0  0  0  0  0  0  0
   63.5250   32.3720   47.9650 C   0  0  0  0  0  0  0  0  0  0  0  0
   62.9588   31.4472   47.7803 H   0  0  0  0  0  0  0  0  0  0  0  0
   64.5855   32.2762   47.6889 H   0  0  0  0  0  0  0  0  0  0  0  0
   63.4770   32.6830   49.4960 C   0  0  1  0  0  0  0  0  0  0  0  0
   63.1804   31.7737   50.0394 H   0  0  0  0  0  0  0  0  0  0  0  0
   64.8340   33.0440   50.0230 N   0  0  0  0  0  0  0  0  0  0  0  0
   65.6740   31.8210   50.2010 C   0  0  0  0  0  0  0  0  0  0  0  0
   65.0171   30.9893   50.4953 H   0  0  0  0  0  0  0  0  0  0  0  0
   66.1810   31.6391   49.2419 H   0  0  0  0  0  0  0  0  0  0  0  0
   66.7770   31.9710   51.2700 C   0  0  0  0  0  0  0  0  0  0  0  0
   66.3680   31.6735   52.2468 H   0  0  0  0  0  0  0  0  0  0  0  0
   67.6213   31.3281   50.9805 H   0  0  0  0  0  0  0  0  0  0  0  0
   67.2690   33.3550   51.3620 N   0  0  0  0  0  0  0  0  0  0  0  0
   68.0150   33.7480   50.1550 C   0  0  0  0  0  0  0  0  0  0  0  0
   68.9530   34.2421   50.4483 H   0  0  0  0  0  0  0  0  0  0  0  0
   68.2433   32.8531   49.5575 H   0  0  0  0  0  0  0  0  0  0  0  0
   67.4061   34.4424   49.5575 H   0  0  0  0  0  0  0  0  0  0  0  0
   66.1830   34.3090   51.6830 C   0  0  0  0  0  0  0  0  0  0  0  0
   66.1960   34.4985   52.7665 H   0  0  0  0  0  0  0  0  0  0  0  0
   66.3709   35.2200   51.0958 H   0  0  0  0  0  0  0  0  0  0  0  0
   64.7800   33.8030   51.2940 C   0  0  0  0  0  0  0  0  0  0  0  0
   64.3982   33.1476   52.0907 H   0  0  0  0  0  0  0  0  0  0  0  0
   64.1144   34.6688   51.1623 H   0  0  0  0  0  0  0  0  0  0  0  0
   62.3960   33.7590   49.7900 C   0  0  0  0  0  0  0  0  0  0  0  0
   62.0723   33.6675   50.8373 H   0  0  0  0  0  0  0  0  0  0  0  0
   62.8308   34.7528   49.6075 H   0  0  0  0  0  0  0  0  0  0  0  0
   61.1830   33.5800   48.8730 C   0  0  0  0  0  0  0  0  0  0  0  0
   60.8233   32.5434   48.9514 H   0  0  0  0  0  0  0  0  0  0  0  0
   60.4002   34.2858   49.1876 H   0  0  0  0  0  0  0  0  0  0  0  0
   60.9880   30.8940   46.9590 C   0  0  0  0  0  0  0  0  0  0  0  0
   61.9859   31.1508   47.3441 H   0  0  0  0  0  0  0  0  0  0  0  0
   60.5910   29.5560   46.8930 C   0  0  0  0  0  0  0  0  0  0  0  0
   61.2882   28.7627   47.2005 H   0  0  0  0  0  0  0  0  0  0  0  0
  1  2  1  0
  2  3  1  0
  2  4  2  0
  4  5  1  0
  5  6  2  0
  6  7  1  0
  6  8  1  0
  8  9  1  0
  9 10  1  0
 10 11  2  0
 10 12  1  0
 12 13  1  0
 13 14  1  0
  5 15  1  0
 15 16  1  0
 15 17  2  0
 17 18  1  0
 18 19  1  0
 18 20  1  0
 18 21  1  0
 17 22  1  0
 22 23  1  0
 23 24  2  0
 24 25  1  0
 24 26  1  0
 26 27  1  0
 26 28  2  0
 28 29  1  0
 29 30  2  0
 29 31  1  0
 31 32  1  6
 31 33  1  0
 33 34  1  0
 33 35  1  0
 33 36  1  0
 36 37  1  0
 36 38  1  0
 36 39  1  0
 39 40  1  6
 39 41  1  0
 41 42  1  0
 42 43  1  0
 42 44  1  0
 42 45  1  0
 45 46  1  0
 45 47  1  0
 45 48  1  0
 48 49  1  0
 49 50  1  0
 49 51  1  0
 49 52  1  0
 48 53  1  0
 53 54  1  0
 53 55  1  0
 53 56  1  0
 56 57  1  0
 56 58  1  0
 39 59  1  0
 59 60  1  0
 59 61  1  0
 59 62  1  0
 62 63  1  0
 62 64  1  0
 28 65  1  0
 65 66  1  0
 65 67  2  0
 67 68  1  0
 22  4  1  0
 67 23  1  0
 13  8  2  0
 62 31  1  0
 56 41  1  0
M  CHG  4   9  -1  12  -1  14  -1  31   1
M  END
>  <UniqueID>  (19) 
18

>  <SMILES>  (19) 
C=c1/c(=C\c2[n-]c(=O)[n-]c2[O-])cc(C)n1-c1ccc(C(=O)[NH+]2CCC(N3CCN(C)CC3)CC2)cc1

>  <Energy>  (19) 
184.08094685221837

>  <Genealogy>  (19) 
C=c1c(=Cc2[n-]c(=O)[n-]c2[O-])cc(C)n1-c1ccc(C(=O)[NH+]2CCC(N3CCN(C)CC3)CC2)cc1 (protonated)
C=c1/c(=C\c2[n-]c(=O)[n-]c2[O-])cc(C)n1-c1ccc(C(=O)[NH+]2CCC(N3CCN(C)CC3)CC2)cc1 (cis-trans isomerization)
C=c1/c(=C\c2[n-]c(=O)[n-]c2[O-])cc(C)n1-c1ccc(C(=O)[NH+]2CCC(N3CCN(C)CC3)CC2)cc1 (3D coordinates assigned)
C=c1/c(=C\c2[n-]c(=O)[n-]c2[O-])cc(C)n1-c1ccc(C(=O)[NH+]2CCC(N3CCN(C)CC3)CC2)cc1 (nonaromatic ring conformer: 184.08094685221837 kcal/mol)

>  <smiles>  (19) 
C=c1c(=Cc2[nH]c(=O)[nH]c2O)cc(C)n1-c1ccc(C(=O)N2CCC(N3CCN(C)CC3)CC2)cc1

>  <score_type>  (19) 
oracle

>  <origin>  (19) 
adg

>  <m_score__min__energy>  (19) 
-15.779999999999999

>  <m_primary>  (19) 
energy

$$$$
19:0
     RDKit          3D

 53 56  0  0  0  0  0  0  0  0999 V2000
   59.9180   33.6080   50.8130 C   0  0  0  0  0  0  0  0  0  0  0  0
   59.6340   33.5390   49.5090 C   0  0  0  0  0  0  0  0  0  0  0  0
   59.8270   34.5940   48.6250 C   0  0  0  0  0  0  0  0  0  0  0  0
   59.3510   34.1390   47.4180 C   0  0  0  0  0  0  0  0  0  0  0  0
   59.2840   34.7860   46.1910 C   0  0  0  0  0  0  0  0  0  0  0  0
   58.7340   34.0890   45.1040 C   0  0  0  0  0  0  0  0  0  0  0  0
   58.2490   32.7560   45.2500 C   0  0  0  0  0  0  0  0  0  0  0  0
   57.7190   32.0890   44.1920 C   0  0  0  0  0  0  0  0  0  0  0  0
   56.7950   30.9180   44.3050 C   0  0  0  0  0  0  0  0  0  0  0  0
   56.6230   30.4040   42.8800 C   0  0  0  0  0  0  0  0  0  0  0  0
   57.0400   31.5430   41.9570 C   0  0  0  0  0  0  0  0  0  0  0  0
   57.9870   32.4250   42.7590 C   0  0  0  0  0  0  0  0  0  0  0  0
   58.3330   32.1420   46.5310 C   0  0  0  0  0  0  0  0  0  0  0  0
   58.9000   32.8570   47.5940 C   0  0  0  0  0  0  0  0  0  0  0  0
   59.0870   32.4600   48.8780 N   0  0  0  0  0  0  0  0  0  0  0  0
   58.7360   31.1600   49.4740 C   0  0  0  0  0  0  0  0  0  0  0  0
   59.9270   30.2330   49.5300 C   0  0  0  0  0  0  0  0  0  0  0  0
   60.4900   30.0650   50.6460 O   0  0  0  0  0  0  0  0  0  0  0  0
   60.4260   29.5320   48.3650 N   0  0  0  0  0  0  0  0  0  0  0  0
   60.3710   28.0700   48.2790 C   0  0  0  0  0  0  0  0  0  0  0  0
   61.0790   30.2760   47.2770 C   0  0  0  0  0  0  0  0  0  0  0  0
   62.0190   31.3080   47.8420 C   0  0  0  0  0  0  0  0  0  0  0  0
   62.3330   32.4570   47.1000 C   0  0  0  0  0  0  0  0  0  0  0  0
   63.2310   33.3880   47.6240 C   0  0  0  0  0  0  0  0  0  0  0  0
   63.8140   33.1650   48.8710 C   0  0  0  0  0  0  0  0  0  0  0  0
   63.4840   32.0090   49.5820 C   0  0  0  0  0  0  0  0  0  0  0  0
   62.6030   31.1110   49.0600 N   0  0  0  0  0  0  0  0  0  0  0  0
   59.7423   32.7367   51.4610 H   0  0  0  0  0  0  0  0  0  0  0  0
   60.3275   34.5361   51.2383 H   0  0  0  0  0  0  0  0  0  0  0  0
   60.2653   35.5790   48.8435 H   0  0  0  0  0  0  0  0  0  0  0  0
   59.6518   35.8161   46.0743 H   0  0  0  0  0  0  0  0  0  0  0  0
   58.6760   34.5800   44.1214 H   0  0  0  0  0  0  0  0  0  0  0  0
   57.2357   30.1395   44.9451 H   0  0  0  0  0  0  0  0  0  0  0  0
   55.8330   31.1964   44.7600 H   0  0  0  0  0  0  0  0  0  0  0  0
   57.2633   29.5253   42.7129 H   0  0  0  0  0  0  0  0  0  0  0  0
   55.5838   30.0975   42.6899 H   0  0  0  0  0  0  0  0  0  0  0  0
   57.5524   31.1443   41.0691 H   0  0  0  0  0  0  0  0  0  0  0  0
   56.1659   32.1124   41.6080 H   0  0  0  0  0  0  0  0  0  0  0  0
   59.0328   32.2030   42.5001 H   0  0  0  0  0  0  0  0  0  0  0  0
   57.8281   33.4934   42.5511 H   0  0  0  0  0  0  0  0  0  0  0  0
   57.9577   31.1195   46.6845 H   0  0  0  0  0  0  0  0  0  0  0  0
   58.3639   31.3249   50.4959 H   0  0  0  0  0  0  0  0  0  0  0  0
   57.9648   30.6909   48.8454 H   0  0  0  0  0  0  0  0  0  0  0  0
   60.3550   27.6434   49.2928 H   0  0  0  0  0  0  0  0  0  0  0  0
   59.4609   27.7684   47.7398 H   0  0  0  0  0  0  0  0  0  0  0  0
   61.2559   27.7009   47.7398 H   0  0  0  0  0  0  0  0  0  0  0  0
   61.6458   29.5749   46.6468 H   0  0  0  0  0  0  0  0  0  0  0  0
   60.3089   30.7830   46.6770 H   0  0  0  0  0  0  0  0  0  0  0  0
   61.8752   32.6225   46.1136 H   0  0  0  0  0  0  0  0  0  0  0  0
   63.4784   34.2960   47.0545 H   0  0  0  0  0  0  0  0  0  0  0  0
   64.5258   33.8914   49.2900 H   0  0  0  0  0  0  0  0  0  0  0  0
   63.9372   31.8232   50.5669 H   0  0  0  0  0  0  0  0  0  0  0  0
   62.3780   30.2560   49.6160 H   0  0  0  0  0  0  0  0  0  0  0  0
  1  2  2  0
  2  3  1  0
  3  4  2  0
  4  5  1  0
  5  6  2  0
  6  7  1  0
  7  8  2  3
  8  9  1  0
  9 10  1  0
 10 11  1  0
 11 12  1  0
  7 13  1  0
 13 14  2  0
 14 15  1  0
 15 16  1  0
 16 17  1  0
 17 18  2  0
 17 19  1  0
 19 20  1  0
 19 21  1  0
 21 22  1  0
 22 23  2  0
 23 24  1  0
 24 25  2  0
 25 26  1  0
 26 27  2  0
 15  2  1  0
 27 22  1  0
 14  4  1  0
 12  8  1  0
  1 28  1  0
  1 29  1  0
  3 30  1  0
  5 31  1  0
  6 32  1  0
  9 33  1  0
  9 34  1  0
 10 35  1  0
 10 36  1  0
 11 37  1  0
 11 38  1  0
 12 39  1  0
 12 40  1  0
 13 41  1  0
 16 42  1  0
 16 43  1  0
 20 44  1  0
 20 45  1  0
 20 46  1  0
 21 47  1  0
 21 48  1  0
 23 49  1  0
 24 50  1  0
 25 51  1  0
 26 52  1  0
 27 53  1  0
M  CHG  1  27   1
M  END
>  <UniqueID>  (20) 
19

>  <SMILES>  (20) 
C=c1cc2ccc(=C3CCCC3)cc2n1CC(=O)N(C)Cc1cccc[nH+]1

>  <Energy>  (20) 
91.82589980058499

>  <Genealogy>  (20) 
C=c1cc2ccc(=C3CCCC3)cc2n1CC(=O)N(C)Cc1cccc[nH+]1 (protonated)
C=c1cc2ccc(=C3CCCC3)cc2n1CC(=O)N(C)Cc1cccc[nH+]1 (3D coordinates assigned)
C=c1cc2ccc(=C3CCCC3)cc2n1CC(=O)N(C)Cc1cccc[nH+]1 (nonaromatic ring conformer: 91.82589980058499 kcal/mol)

>  <smiles>  (20) 
C=c1cc2ccc(=C3CCCC3)cc2n1CC(=O)N(C)Cc1ccccn1

>  <score_type>  (20) 
oracle

>  <origin>  (20) 
adg

>  <m_score__min__energy>  (20) 
-7.2699999999999996

>  <m_primary>  (20) 
energy

$$$$
20:0
     RDKit          3D

 44 46  0  0  0  0  0  0  0  0999 V2000
   56.7870   22.0180   43.3840 C   0  0  0  0  0  0  0  0  0  0  0  0
   56.3130   23.1970   44.1820 C   0  0  0  0  0  0  0  0  0  0  0  0
   54.9420   23.4260   44.3660 C   0  0  0  0  0  0  0  0  0  0  0  0
   54.5070   24.5400   45.0890 C   0  0  0  0  0  0  0  0  0  0  0  0
   55.4330   25.4450   45.6160 C   0  0  0  0  0  0  0  0  0  0  0  0
   54.9770   26.5210   46.3710 O   0  0  0  0  0  0  0  0  0  0  0  0
   56.8100   25.2500   45.3990 C   0  0  0  0  0  0  0  0  0  0  0  0
   57.8100   26.2060   45.9220 C   0  0  0  0  0  0  0  0  0  0  0  0
   58.9100   25.7580   46.3490 O   0  0  0  0  0  0  0  0  0  0  0  0
   57.5640   27.6270   45.9400 N   0  0  0  0  0  0  0  0  0  0  0  0
   56.6300   28.2460   44.9850 C   0  0  0  0  0  0  0  0  0  0  0  0
   57.1340   29.6180   44.4790 C   0  0  0  0  0  0  0  0  0  0  0  0
   58.1710   30.2230   45.3420 N   0  0  0  0  0  0  0  0  0  0  0  0
   58.2270   31.9490   45.0940 S   0  0  0  0  0  0  0  0  0  0  0  0
   56.8650   32.5390   45.3350 O   0  0  0  0  0  0  0  0  0  0  0  0
   58.6390   32.2550   43.6800 O   0  0  0  0  0  0  0  0  0  0  0  0
   59.3670   32.6780   46.2230 C   0  0  0  0  0  0  0  0  0  0  0  0
   60.4340   31.9310   46.7430 C   0  0  0  0  0  0  0  0  0  0  0  0
   61.3230   32.5140   47.6510 C   0  0  0  0  0  0  0  0  0  0  0  0
   61.1480   33.8450   48.0490 C   0  0  0  0  0  0  0  0  0  0  0  0
   62.2620   34.5730   49.1910 Cl  0  0  0  0  0  0  0  0  0  0  0  0
   60.0790   34.5890   47.5390 C   0  0  0  0  0  0  0  0  0  0  0  0
   59.1900   34.0080   46.6300 C   0  0  0  0  0  0  0  0  0  0  0  0
   57.9330   29.9280   46.7600 C   0  0  0  0  0  0  0  0  0  0  0  0
   58.1890   28.4400   46.9920 C   0  0  0  0  0  0  0  0  0  0  0  0
   57.2430   24.1160   44.6940 C   0  0  0  0  0  0  0  0  0  0  0  0
   57.1086   21.2182   44.0673 H   0  0  0  0  0  0  0  0  0  0  0  0
   55.9666   21.6507   42.7499 H   0  0  0  0  0  0  0  0  0  0  0  0
   57.6333   22.3208   42.7499 H   0  0  0  0  0  0  0  0  0  0  0  0
   54.2070   22.7271   43.9402 H   0  0  0  0  0  0  0  0  0  0  0  0
   53.4307   24.7056   45.2442 H   0  0  0  0  0  0  0  0  0  0  0  0
   56.5079   27.5738   44.1229 H   0  0  0  0  0  0  0  0  0  0  0  0
   55.6744   28.4086   45.5051 H   0  0  0  0  0  0  0  0  0  0  0  0
   57.5549   29.4838   43.4716 H   0  0  0  0  0  0  0  0  0  0  0  0
   56.2713   30.3005   44.4847 H   0  0  0  0  0  0  0  0  0  0  0  0
   60.5718   30.8838   46.4357 H   0  0  0  0  0  0  0  0  0  0  0  0
   62.1612   31.9262   48.0533 H   0  0  0  0  0  0  0  0  0  0  0  0
   59.9375   35.6334   47.8538 H   0  0  0  0  0  0  0  0  0  0  0  0
   58.3493   34.5959   46.2329 H   0  0  0  0  0  0  0  0  0  0  0  0
   58.6158   30.5241   47.3832 H   0  0  0  0  0  0  0  0  0  0  0  0
   56.8968   30.1800   47.0299 H   0  0  0  0  0  0  0  0  0  0  0  0
   59.2737   28.2573   46.9908 H   0  0  0  0  0  0  0  0  0  0  0  0
   57.7510   28.1563   47.9603 H   0  0  0  0  0  0  0  0  0  0  0  0
   58.3190   23.9460   44.5415 H   0  0  0  0  0  0  0  0  0  0  0  0
  1  2  1  0
  2  3  2  0
  3  4  1  0
  4  5  2  0
  5  6  1  0
  5  7  1  0
  7  8  1  0
  8  9  2  0
  8 10  1  0
 10 11  1  0
 11 12  1  0
 12 13  1  0
 13 14  1  0
 14 15  2  0
 14 16  2  0
 14 17  1  0
 17 18  2  0
 18 19  1  0
 19 20  2  0
 20 21  1  0
 20 22  1  0
 22 23  2  0
 13 24  1  0
 24 25  1  0
  7 26  2  0
 26  2  1  0
 25 10  1  0
 23 17  1  0
  1 27  1  0
  1 28  1  0
  1 29  1  0
  3 30  1  0
  4 31  1  0
 11 32  1  0
 11 33  1  0
 12 34  1  0
 12 35  1  0
 18 36  1  0
 19 37  1  0
 22 38  1  0
 23 39  1  0
 24 40  1  0
 24 41  1  0
 25 42  1  0
 25 43  1  0
 26 44  1  0
M  CHG  1   6  -1
M  END
>  <UniqueID>  (21) 
20

>  <SMILES>  (21) 
Cc1ccc([O-])c(C(=O)N2CCN(S(=O)(=O)c3ccc(Cl)cc3)CC2)c1

>  <Energy>  (21) 
54.81985742122654

>  <Genealogy>  (21) 
Cc1ccc([O-])c(C(=O)N2CCN(S(=O)(=O)c3ccc(Cl)cc3)CC2)c1 (protonated)
Cc1ccc([O-])c(C(=O)N2CCN(S(=O)(=O)c3ccc(Cl)cc3)CC2)c1 (3D coordinates assigned)
Cc1ccc([O-])c(C(=O)N2CCN(S(=O)(=O)c3ccc(Cl)cc3)CC2)c1 (nonaromatic ring conformer: 54.81985742122654 kcal/mol)

>  <smiles>  (21) 
Cc1ccc(O)c(C(=O)N2CCN(S(=O)(=O)c3ccc(Cl)cc3)CC2)c1

>  <score_type>  (21) 
oracle

>  <origin>  (21) 
adg

>  <m_score__min__energy>  (21) 
-14.06

>  <m_primary>  (21) 
energy

$$$$
21:0
     RDKit          3D

 48 50  0  0  0  0  0  0  0  0999 V2000
   57.5940   34.5310   45.0090 O   0  0  0  0  0  0  0  0  0  0  0  0
   58.3160   33.5030   44.8930 C   0  0  0  0  0  0  0  0  0  0  0  0
   58.1580   32.6290   43.6850 C   0  0  0  0  0  0  0  0  0  0  0  0
   57.5430   31.3550   44.0440 N   0  0  0  0  0  0  0  0  0  0  0  0
   58.2850   30.2890   44.6560 C   0  0  0  0  0  0  0  0  0  0  0  0
   59.4870   30.4740   44.9910 O   0  0  0  0  0  0  0  0  0  0  0  0
   57.6690   28.9690   44.8870 C   0  0  0  0  0  0  0  0  0  0  0  0
   56.4070   28.7470   45.4110 C   0  0  0  0  0  0  0  0  0  0  0  0
   56.2710   27.3780   45.4850 C   0  0  0  0  0  0  0  0  0  0  0  0
   55.1620   26.7280   46.0120 O   0  0  0  0  0  0  0  0  0  0  0  0
   57.3750   26.7510   45.0180 N   0  0  0  0  0  0  0  0  0  0  0  0
   57.6160   25.3320   44.9410 C   0  0  0  0  0  0  0  0  0  0  0  0
   58.5680   24.7140   45.7770 C   0  0  0  0  0  0  0  0  0  0  0  0
   58.7890   23.3350   45.7010 C   0  0  0  0  0  0  0  0  0  0  0  0
   58.0590   22.5560   44.8000 C   0  0  0  0  0  0  0  0  0  0  0  0
   57.1050   23.1540   43.9730 C   0  0  0  0  0  0  0  0  0  0  0  0
   56.8820   24.5320   44.0430 C   0  0  0  0  0  0  0  0  0  0  0  0
   58.2380   27.7250   44.6560 C   0  0  0  0  0  0  0  0  0  0  0  0
   59.2580   33.1480   45.9170 N   0  0  0  0  0  0  0  0  0  0  0  0
   59.3460   33.8080   47.1900 C   0  0  0  0  0  0  0  0  0  0  0  0
   58.5600   34.7510   47.4770 O   0  0  0  0  0  0  0  0  0  0  0  0
   60.3200   33.3710   48.1470 N   0  0  0  0  0  0  0  0  0  0  0  0
   60.4640   33.9910   49.4620 C   0  0  0  0  0  0  0  0  0  0  0  0
   59.4580   33.4210   50.4250 C   0  0  0  0  0  0  0  0  0  0  0  0
   58.7520   32.2520   50.0930 C   0  0  0  0  0  0  0  0  0  0  0  0
   57.8160   31.7190   50.9870 C   0  0  0  0  0  0  0  0  0  0  0  0
   57.5820   32.3460   52.2140 C   0  0  0  0  0  0  0  0  0  0  0  0
   58.2860   33.5040   52.5540 C   0  0  0  0  0  0  0  0  0  0  0  0
   59.2240   34.0390   51.6640 C   0  0  0  0  0  0  0  0  0  0  0  0
   57.5213   33.1422   42.9493 H   0  0  0  0  0  0  0  0  0  0  0  0
   59.1531   32.4326   43.2593 H   0  0  0  0  0  0  0  0  0  0  0  0
   56.5420   31.2090   43.7790 H   0  0  0  0  0  0  0  0  0  0  0  0
   55.6671   29.5054   45.7066 H   0  0  0  0  0  0  0  0  0  0  0  0
   59.1409   25.3204   46.4940 H   0  0  0  0  0  0  0  0  0  0  0  0
   59.5393   22.8628   46.3522 H   0  0  0  0  0  0  0  0  0  0  0  0
   58.2353   21.4718   44.7417 H   0  0  0  0  0  0  0  0  0  0  0  0
   56.5286   22.5395   43.2658 H   0  0  0  0  0  0  0  0  0  0  0  0
   56.1269   24.9959   43.3914 H   0  0  0  0  0  0  0  0  0  0  0  0
   59.2423   27.5569   44.2400 H   0  0  0  0  0  0  0  0  0  0  0  0
   59.9070   32.3500   45.7330 H   0  0  0  0  0  0  0  0  0  0  0  0
   60.9360   32.5610   47.9090 H   0  0  0  0  0  0  0  0  0  0  0  0
   61.4782   33.8009   49.8430 H   0  0  0  0  0  0  0  0  0  0  0  0
   60.2922   35.0733   49.3664 H   0  0  0  0  0  0  0  0  0  0  0  0
   58.9353   31.7550   49.1289 H   0  0  0  0  0  0  0  0  0  0  0  0
   57.2636   30.8050   50.7234 H   0  0  0  0  0  0  0  0  0  0  0  0
   56.8428   31.9273   52.9128 H   0  0  0  0  0  0  0  0  0  0  0  0
   58.1029   33.9950   53.5211 H   0  0  0  0  0  0  0  0  0  0  0  0
   59.7806   34.9479   51.9362 H   0  0  0  0  0  0  0  0  0  0  0  0
  1  2  2  0
  2  3  1  0
  3  4  1  0
  4  5  1  0
  5  6  2  0
  5  7  1  0
  7  8  1  0
  8  9  2  0
  9 10  1  0
  9 11  1  0
 11 12  1  0
 12 13  2  0
 13 14  1  0
 14 15  2  0
 15 16  1  0
 16 17  2  0
 11 18  1  0
  2 19  1  0
 19 20  1  0
 20 21  2  0
 20 22  1  0
 22 23  1  0
 23 24  1  0
 24 25  2  0
 25 26  1  0
 26 27  2  0
 27 28  1  0
 28 29  2  0
 18  7  2  0
 29 24  1  0
 17 12  1  0
  3 30  1  0
  3 31  1  0
  4 32  1  0
  8 33  1  0
 13 34  1  0
 14 35  1  0
 15 36  1  0
 16 37  1  0
 17 38  1  0
 18 39  1  0
 19 40  1  0
 22 41  1  0
 23 42  1  0
 23 43  1  0
 25 44  1  0
 26 45  1  0
 27 46  1  0
 28 47  1  0
 29 48  1  0
M  CHG  1  10  -1
M  END
>  <UniqueID>  (22) 
21

>  <SMILES>  (22) 
O=C(CNC(=O)c1cc([O-])n(-c2ccccc2)c1)NC(=O)NCc1ccccc1

>  <Energy>  (22) 
76.48844744781903

>  <Genealogy>  (22) 
O=C(CNC(=O)c1cc([O-])n(-c2ccccc2)c1)NC(=O)NCc1ccccc1 (protonated)
O=C(CNC(=O)c1cc([O-])n(-c2ccccc2)c1)NC(=O)NCc1ccccc1 (3D coordinates assigned)
O=C(CNC(=O)c1cc([O-])n(-c2ccccc2)c1)NC(=O)NCc1ccccc1 (optimized conformer: 76.48844744781903 kcal/mol)

>  <smiles>  (22) 
O=C(CNC(=O)c1cc(O)n(-c2ccccc2)c1)NC(=O)NCc1ccccc1

>  <score_type>  (22) 
oracle

>  <origin>  (22) 
adg

>  <m_score__min__energy>  (22) 
-10.359999999999999

>  <m_primary>  (22) 
energy

$$$$
22:0
     RDKit          3D

 41 43  0  0  1  0  0  0  0  0999 V2000
   64.7420   32.4740   49.7130 C   0  0  0  0  0  0  0  0  0  0  0  0
   63.7650   31.5440   49.3760 O   0  0  0  0  0  0  0  0  0  0  0  0
   62.7100   31.8250   48.4860 C   0  0  0  0  0  0  0  0  0  0  0  0
   62.4640   33.1020   48.0850 N   0  0  0  0  0  0  0  0  0  0  0  0
   61.4530   33.3780   47.2320 C   0  0  0  0  0  0  0  0  0  0  0  0
   61.2260   34.5900   46.8560 N   0  0  0  0  0  0  0  0  0  0  0  0
   59.9230   35.1830   47.1080 C   0  0  0  0  0  0  0  0  0  0  0  0
   58.8870   34.5630   46.2520 C   0  0  0  0  0  0  0  0  0  0  0  0
   58.7930   34.5050   44.8770 C   0  0  0  0  0  0  0  0  0  0  0  0
   57.6170   33.8000   44.6070 C   0  0  0  0  0  0  0  0  0  0  0  0
   57.0600   33.4660   45.8400 C   0  0  0  0  0  0  0  0  0  0  0  0
   57.8380   33.9330   46.7770 O   0  0  0  0  0  0  0  0  0  0  0  0
   60.6780   32.3050   46.7800 C   0  0  0  0  0  0  0  0  0  0  0  0
   60.9110   31.0100   47.1730 C   0  0  0  0  0  0  0  0  0  0  0  0
   60.0900   29.9090   46.6890 C   0  0  0  0  0  0  0  0  0  0  0  0
   60.4170   28.5840   46.9420 C   0  0  0  0  0  0  0  0  0  0  0  0
   59.6300   27.5370   46.4780 C   0  0  0  0  0  0  0  0  0  0  0  0
   58.4860   27.7590   45.7460 C   0  0  0  0  0  0  0  0  0  0  0  0
   58.1510   29.0690   45.4890 C   0  0  0  0  0  0  0  0  0  0  0  0
   56.7050   29.3800   44.5640 S   0  0  0  0  0  0  0  0  0  0  0  0
   57.0200   28.8680   42.9440 N   0  0  0  0  0  0  0  0  0  0  0  0
   56.3840   30.8460   44.4950 O   0  0  0  0  0  0  0  0  0  0  0  0
   55.5200   28.6270   45.1130 O   0  0  0  0  0  0  0  0  0  0  0  0
   58.9430   30.1210   45.9570 C   0  0  0  0  0  0  0  0  0  0  0  0
   61.9330   30.8060   48.0250 N   0  0  0  0  0  0  0  0  0  0  0  0
   64.8176   32.5459   50.8080 H   0  0  0  0  0  0  0  0  0  0  0  0
   65.7099   32.1554   49.2988 H   0  0  0  0  0  0  0  0  0  0  0  0
   64.4715   33.4565   49.2988 H   0  0  0  0  0  0  0  0  0  0  0  0
   59.6561   35.0308   48.1642 H   0  0  0  0  0  0  0  0  0  0  0  0
   59.9745   36.2570   46.8760 H   0  0  0  0  0  0  0  0  0  0  0  0
   59.4976   34.9263   44.1449 H   0  0  0  0  0  0  0  0  0  0  0  0
   57.2102   33.5562   43.6145 H   0  0  0  0  0  0  0  0  0  0  0  0
   56.1263   32.9058   45.9960 H   0  0  0  0  0  0  0  0  0  0  0  0
   59.8507   32.5060   46.0835 H   0  0  0  0  0  0  0  0  0  0  0  0
   61.3220   28.3570   47.5246 H   0  0  0  0  0  0  0  0  0  0  0  0
   59.9296   26.5025   46.7019 H   0  0  0  0  0  0  0  0  0  0  0  0
   57.8665   26.9260   45.3822 H   0  0  0  0  0  0  0  0  0  0  0  0
   56.9030   27.8560   42.7980 H   0  0  0  0  0  0  0  0  0  0  0  0
   57.9830   29.1700   42.6900 H   0  0  0  0  0  0  0  0  0  0  0  0
   58.6396   31.1543   45.7329 H   0  0  0  0  0  0  0  0  0  0  0  0
   62.1920   29.8630   48.3830 H   0  0  0  0  0  0  0  0  0  0  0  0
  1  2  1  0
  2  3  1  0
  3  4  2  0
  4  5  1  0
  5  6  2  0
  6  7  1  0
  7  8  1  0
  8  9  2  0
  9 10  1  0
 10 11  2  0
 11 12  1  0
  5 13  1  0
 13 14  2  0
 14 15  1  0
 15 16  2  0
 16 17  1  0
 17 18  2  0
 18 19  1  0
 19 20  1  0
 20 21  1  0
 20 22  2  0
 20 23  2  0
 19 24  2  0
 14 25  1  0
 25  3  1  0
 12  8  1  0
 24 15  1  0
  1 26  1  0
  1 27  1  0
  1 28  1  0
  7 29  1  0
  7 30  1  0
  9 31  1  0
 10 32  1  0
 11 33  1  0
 13 34  1  0
 16 35  1  0
 17 36  1  0
 18 37  1  0
 21 38  1  0
 21 39  1  0
 24 40  1  0
 25 41  1  0
M  END
>  <smiles>  (23) 
COc1nc(=NCc2ccco2)cc(-c2cccc(S(N)(=O)=O)c2)[nH]1

>  <score_type>  (23) 
oracle

>  <origin>  (23) 
adg

>  <m_score__min__energy>  (23) 
-8.0700000000000003

>  <m_primary>  (23) 
energy

$$$$
23:0
     RDKit          3D

 64 68  0  0  0  0  0  0  0  0999 V2000
   60.1320   29.9240   49.4890 O   0  0  0  0  0  0  0  0  0  0  0  0
   60.3420   28.6900   49.3310 C   0  0  0  0  0  0  0  0  0  0  0  0
   59.9230   28.0480   48.1150 N   0  0  0  0  0  0  0  0  0  0  0  0
   59.0850   28.7100   47.1550 C   0  0  0  0  0  0  0  0  0  0  0  0
   59.0880   30.1110   47.1210 C   0  0  0  0  0  0  0  0  0  0  0  0
   58.2400   30.8130   46.2520 C   0  0  0  0  0  0  0  0  0  0  0  0
   58.2560   32.2530   46.2210 N   0  0  0  0  0  0  0  0  0  0  0  0
   58.0950   33.0440   47.4440 C   0  0  0  0  0  0  0  0  0  0  0  0
   59.3210   33.9550   47.6570 C   0  0  0  0  0  0  0  0  0  0  0  0
   60.0050   34.3490   46.3950 N   0  0  0  0  0  0  0  0  0  0  0  0
   61.2180   33.5410   46.1330 C   0  0  0  0  0  0  0  0  0  0  0  0
   61.8960   33.1790   47.4280 C   0  0  0  0  0  0  0  0  0  0  0  0
   62.0240   31.8350   47.8180 C   0  0  0  0  0  0  0  0  0  0  0  0
   62.6470   31.5090   49.0270 C   0  0  0  0  0  0  0  0  0  0  0  0
   63.1460   32.5200   49.8530 C   0  0  0  0  0  0  0  0  0  0  0  0
   63.0210   33.8590   49.4720 C   0  0  0  0  0  0  0  0  0  0  0  0
   62.3990   34.1890   48.2640 C   0  0  0  0  0  0  0  0  0  0  0  0
   59.0890   34.3590   45.2340 C   0  0  0  0  0  0  0  0  0  0  0  0
   58.5080   32.9600   44.9600 C   0  0  0  0  0  0  0  0  0  0  0  0
   57.3960   30.0960   45.3940 C   0  0  0  0  0  0  0  0  0  0  0  0
   57.4000   28.7000   45.4010 C   0  0  0  0  0  0  0  0  0  0  0  0
   58.2520   27.9880   46.2640 C   0  0  0  0  0  0  0  0  0  0  0  0
   58.2930   26.5100   46.1630 C   0  0  0  0  0  0  0  0  0  0  0  0
   58.8610   25.8280   47.0590 O   0  0  0  0  0  0  0  0  0  0  0  0
   57.6680   25.8550   45.0520 N   0  0  0  0  0  0  0  0  0  0  0  0
   56.4760   25.0580   45.1130 C   0  0  0  0  0  0  0  0  0  0  0  0
   56.5340   23.7180   44.7230 C   0  0  0  0  0  0  0  0  0  0  0  0
   55.4220   22.9400   44.7830 N   0  0  0  0  0  0  0  0  0  0  0  0
   54.2460   23.4400   45.2410 C   0  0  0  0  0  0  0  0  0  0  0  0
   53.2250   22.7050   45.2840 O   0  0  0  0  0  0  0  0  0  0  0  0
   54.1710   24.7290   45.6590 N   0  0  0  0  0  0  0  0  0  0  0  0
   55.2560   25.5460   45.6180 C   0  0  0  0  0  0  0  0  0  0  0  0
   55.1610   26.7190   46.0630 O   0  0  0  0  0  0  0  0  0  0  0  0
   61.0330   27.9250   50.3970 C   0  0  0  0  0  0  0  0  0  0  0  0
   60.7860   26.5480   50.5530 C   0  0  0  0  0  0  0  0  0  0  0  0
   61.4390   25.8200   51.5520 C   0  0  0  0  0  0  0  0  0  0  0  0
   62.3520   26.4520   52.3990 C   0  0  0  0  0  0  0  0  0  0  0  0
   62.6150   27.8160   52.2470 C   0  0  0  0  0  0  0  0  0  0  0  0
   63.7730   28.6070   53.3020 Cl  0  0  0  0  0  0  0  0  0  0  0  0
   61.9630   28.5500   51.2500 C   0  0  0  0  0  0  0  0  0  0  0  0
   60.4310   27.1900   47.8050 H   0  0  0  0  0  0  0  0  0  0  0  0
   59.7651   30.6680   47.7853 H   0  0  0  0  0  0  0  0  0  0  0  0
   57.1915   33.6656   47.3579 H   0  0  0  0  0  0  0  0  0  0  0  0
   58.0025   32.3618   48.3020 H   0  0  0  0  0  0  0  0  0  0  0  0
   58.9885   34.8690   48.1708 H   0  0  0  0  0  0  0  0  0  0  0  0
   60.0482   33.3794   48.2485 H   0  0  0  0  0  0  0  0  0  0  0  0
   60.9329   32.6202   45.6031 H   0  0  0  0  0  0  0  0  0  0  0  0
   61.9139   34.1303   45.5179 H   0  0  0  0  0  0  0  0  0  0  0  0
   61.6329   31.0366   47.1702 H   0  0  0  0  0  0  0  0  0  0  0  0
   62.7444   30.4555   49.3282 H   0  0  0  0  0  0  0  0  0  0  0  0
   63.6371   32.2620   50.8029 H   0  0  0  0  0  0  0  0  0  0  0  0
   63.4125   34.6542   50.1234 H   0  0  0  0  0  0  0  0  0  0  0  0
   62.3033   35.2439   47.9673 H   0  0  0  0  0  0  0  0  0  0  0  0
   58.2623   35.0556   45.4373 H   0  0  0  0  0  0  0  0  0  0  0  0
   59.6592   34.6749   44.3479 H   0  0  0  0  0  0  0  0  0  0  0  0
   57.5626   33.0624   44.4071 H   0  0  0  0  0  0  0  0  0  0  0  0
   59.2331   32.3832   44.3671 H   0  0  0  0  0  0  0  0  0  0  0  0
   56.7254   30.6368   44.7100 H   0  0  0  0  0  0  0  0  0  0  0  0
   56.7292   28.1508   44.7239 H   0  0  0  0  0  0  0  0  0  0  0  0
   57.4830   23.2914   44.3662 H   0  0  0  0  0  0  0  0  0  0  0  0
   60.0744   26.0414   49.8844 H   0  0  0  0  0  0  0  0  0  0  0  0
   61.2330   24.7461   51.6713 H   0  0  0  0  0  0  0  0  0  0  0  0
   62.8635   25.8768   53.1848 H   0  0  0  0  0  0  0  0  0  0  0  0
   62.1783   29.6222   51.1317 H   0  0  0  0  0  0  0  0  0  0  0  0
  1  2  2  0
  2  3  1  0
  3  4  1  0
  4  5  2  0
  5  6  1  0
  6  7  1  0
  7  8  1  0
  8  9  1  0
  9 10  1  0
 10 11  1  0
 11 12  1  0
 12 13  2  0
 13 14  1  0
 14 15  2  0
 15 16  1  0
 16 17  2  0
 10 18  1  0
 18 19  1  0
  6 20  2  0
 20 21  1  0
 21 22  2  0
 22 23  1  0
 23 24  2  0
 23 25  1  0
 25 26  1  0
 26 27  2  0
 27 28  1  0
 28 29  1  0
 29 30  2  0
 29 31  1  0
 31 32  1  0
 32 33  2  0
  2 34  1  0
 34 35  2  0
 35 36  1  0
 36 37  2  0
 37 38  1  0
 38 39  1  0
 38 40  2  0
 22  4  1  0
 32 26  1  0
 40 34  1  0
 19  7  1  0
 17 12  1  0
  3 41  1  0
  5 42  1  0
  8 43  1  0
  8 44  1  0
  9 45  1  0
  9 46  1  0
 11 47  1  0
 11 48  1  0
 13 49  1  0
 14 50  1  0
 15 51  1  0
 16 52  1  0
 17 53  1  0
 18 54  1  0
 18 55  1  0
 19 56  1  0
 19 57  1  0
 20 58  1  0
 21 59  1  0
 27 60  1  0
 35 61  1  0
 36 62  1  0
 37 63  1  0
 40 64  1  0
M  CHG  3  25  -1  28  -1  31  -1
M  END
>  <UniqueID>  (24) 
22

>  <SMILES>  (24) 
O=C(Nc1cc(N2CCN(Cc3ccccc3)CC2)ccc1C(=O)[N-]c1c[n-]c(=O)[n-]c1=O)c1cccc(Cl)c1

>  <Energy>  (24) 
99.03878650268119

>  <Genealogy>  (24) 
O=C(Nc1cc(N2CCN(Cc3ccccc3)CC2)ccc1C(=O)[N-]c1c[n-]c(=O)[n-]c1=O)c1cccc(Cl)c1 (protonated)
O=C(Nc1cc(N2CCN(Cc3ccccc3)CC2)ccc1C(=O)[N-]c1c[n-]c(=O)[n-]c1=O)c1cccc(Cl)c1 (3D coordinates assigned)
O=C(Nc1cc(N2CCN(Cc3ccccc3)CC2)ccc1C(=O)[N-]c1c[n-]c(=O)[n-]c1=O)c1cccc(Cl)c1 (nonaromatic ring conformer: 99.03878650268119 kcal/mol)

>  <smiles>  (24) 
O=C(Nc1cc(N2CCN(Cc3ccccc3)CC2)ccc1C(=O)Nc1c[nH]c(=O)[nH]c1=O)c1cccc(Cl)c1

>  <score_type>  (24) 
oracle

>  <origin>  (24) 
adg

>  <m_score__min__energy>  (24) 
-14.69

>  <m_primary>  (24) 
energy

$$$$
24:0
     RDKit          3D

 59 62  0  0  0  0  0  0  0  0999 V2000
   55.1450   29.3210   44.8020 N   0  0  0  0  0  0  0  0  0  0  0  0
   56.2300   29.8780   44.0660 C   0  0  0  0  0  0  0  0  0  0  0  0
   56.1400   29.9890   42.8160 O   0  0  0  0  0  0  0  0  0  0  0  0
   57.4220   30.3870   44.7620 C   0  0  0  0  0  0  0  0  0  0  0  0
   57.5340   31.6650   45.2730 C   0  0  0  0  0  0  0  0  0  0  0  0
   58.6270   31.7200   46.0630 N   0  0  0  0  0  0  0  0  0  0  0  0
   59.0690   32.8660   46.8630 C   0  0  1  0  0  0  0  0  0  0  0  0
   59.6110   32.3900   48.2210 C   0  0  0  0  0  0  0  0  0  0  0  0
   60.2440   33.5490   49.0050 C   0  0  0  0  0  0  0  0  0  0  0  0
   61.3280   34.3510   48.2140 C   0  0  1  0  0  0  0  0  0  0  0  0
   62.6190   34.3380   48.9730 N   0  0  0  0  0  0  0  0  0  0  0  0
   62.5810   33.8140   50.3590 C   0  0  0  0  0  0  0  0  0  0  0  0
   62.4220   32.2900   50.3900 C   0  0  0  0  0  0  0  0  0  0  0  0
   63.5990   31.6340   49.6730 C   0  0  0  0  0  0  0  0  0  0  0  0
   63.7460   32.1760   48.2500 C   0  0  1  0  0  0  0  0  0  0  0  0
   62.7500   31.6610   47.4390 F   0  0  0  0  0  0  0  0  0  0  0  0
   63.7430   33.7210   48.2180 C   0  0  0  0  0  0  0  0  0  0  0  0
   61.4580   33.8280   46.7570 C   0  0  0  0  0  0  0  0  0  0  0  0
   60.0870   33.7280   46.0740 C   0  0  0  0  0  0  0  0  0  0  0  0
   59.2280   30.5400   46.0850 N   0  0  0  0  0  0  0  0  0  0  0  0
   58.5270   29.7130   45.2870 C   0  0  0  0  0  0  0  0  0  0  0  0
   58.9120   28.4860   45.0690 N   0  0  0  0  0  0  0  0  0  0  0  0
   58.3820   27.2890   45.6520 C   0  0  0  0  0  0  0  0  0  0  0  0
   58.6460   27.0070   46.9970 C   0  0  0  0  0  0  0  0  0  0  0  0
   58.1770   25.8230   47.5750 C   0  0  0  0  0  0  0  0  0  0  0  0
   57.4590   24.8980   46.8040 C   0  0  0  0  0  0  0  0  0  0  0  0
   56.8600   23.4030   47.5170 S   0  0  0  0  0  0  0  0  0  0  0  0
   55.1310   23.4230   47.5500 N   0  0  0  0  0  0  0  0  0  0  0  0
   57.3690   23.2550   48.9240 O   0  0  0  0  0  0  0  0  0  0  0  0
   57.3370   22.2350   46.7010 O   0  0  0  0  0  0  0  0  0  0  0  0
   57.2330   25.1590   45.4470 C   0  0  0  0  0  0  0  0  0  0  0  0
   57.7010   26.3420   44.8680 C   0  0  0  0  0  0  0  0  0  0  0  0
   55.3080   28.8070   45.6960 H   0  0  0  0  0  0  0  0  0  0  0  0
   56.8467   32.4995   45.0700 H   0  0  0  0  0  0  0  0  0  0  0  0
   58.2076   33.5173   47.0720 H   0  0  0  0  0  0  0  0  0  0  0  0
   60.3720   31.6141   48.0513 H   0  0  0  0  0  0  0  0  0  0  0  0
   58.7722   31.9895   48.8092 H   0  0  0  0  0  0  0  0  0  0  0  0
   60.7143   33.1356   49.9094 H   0  0  0  0  0  0  0  0  0  0  0  0
   59.4317   34.2566   49.2276 H   0  0  0  0  0  0  0  0  0  0  0  0
   61.0189   35.4027   48.1223 H   0  0  0  0  0  0  0  0  0  0  0  0
   63.5185   34.0841   50.8671 H   0  0  0  0  0  0  0  0  0  0  0  0
   61.7122   34.2577   50.8673 H   0  0  0  0  0  0  0  0  0  0  0  0
   62.3932   31.9468   51.4347 H   0  0  0  0  0  0  0  0  0  0  0  0
   61.4863   32.0115   49.8831 H   0  0  0  0  0  0  0  0  0  0  0  0
   64.5224   31.8410   50.2338 H   0  0  0  0  0  0  0  0  0  0  0  0
   63.4158   30.5508   49.6180 H   0  0  0  0  0  0  0  0  0  0  0  0
   64.7228   31.8495   47.8637 H   0  0  0  0  0  0  0  0  0  0  0  0
   64.6887   34.0781   48.6517 H   0  0  0  0  0  0  0  0  0  0  0  0
   63.6217   34.0181   47.1658 H   0  0  0  0  0  0  0  0  0  0  0  0
   61.9227   32.8312   46.7746 H   0  0  0  0  0  0  0  0  0  0  0  0
   62.0774   34.5372   46.1883 H   0  0  0  0  0  0  0  0  0  0  0  0
   60.2250   33.2811   45.0784 H   0  0  0  0  0  0  0  0  0  0  0  0
   59.6763   34.7469   46.0184 H   0  0  0  0  0  0  0  0  0  0  0  0
   59.2251   27.7199   47.6024 H   0  0  0  0  0  0  0  0  0  0  0  0
   58.3720   25.6169   48.6378 H   0  0  0  0  0  0  0  0  0  0  0  0
   54.8300   24.4120   47.3960 H   0  0  0  0  0  0  0  0  0  0  0  0
   54.8380   23.1650   48.5200 H   0  0  0  0  0  0  0  0  0  0  0  0
   56.6843   24.4293   44.8334 H   0  0  0  0  0  0  0  0  0  0  0  0
   57.5361   26.5321   43.7972 H   0  0  0  0  0  0  0  0  0  0  0  0
  1  2  1  0
  2  3  2  0
  2  4  1  0
  4  5  2  0
  5  6  1  0
  6  7  1  0
  7  8  1  0
  8  9  1  0
  9 10  1  0
 10 11  1  0
 11 12  1  0
 12 13  1  0
 13 14  1  0
 14 15  1  0
 15 16  1  0
 15 17  1  0
 10 18  1  0
 18 19  1  0
  6 20  1  0
 20 21  1  0
 21 22  2  3
 22 23  1  0
 23 24  2  0
 24 25  1  0
 25 26  2  0
 26 27  1  0
 27 28  1  0
 27 29  2  0
 27 30  2  0
 26 31  1  0
 31 32  2  0
 21  4  1  0
 32 23  1  0
 19  7  1  0
 17 11  1  0
  1 33  1  0
  5 34  1  0
  7 35  1  1
  8 36  1  0
  8 37  1  0
  9 38  1  0
  9 39  1  0
 10 40  1  6
 12 41  1  0
 12 42  1  0
 13 43  1  0
 13 44  1  0
 14 45  1  0
 14 46  1  0
 15 47  1  6
 17 48  1  0
 17 49  1  0
 18 50  1  0
 18 51  1  0
 19 52  1  0
 19 53  1  0
 24 54  1  0
 25 55  1  0
 28 56  1  0
 28 57  1  0
 31 58  1  0
 32 59  1  0
M  CHG  2   1  -1  20  -1
M  END
>  <UniqueID>  (25) 
23

>  <SMILES>  (25) 
[NH-]C(=O)c1cn(C2CCC(N3CCC[C@@H](F)C3)CC2)[n-]c1=Nc1ccc(S(N)(=O)=O)cc1

>  <Energy>  (25) 
116.66674237704218

>  <Genealogy>  (25) 
[NH-]C(=O)c1cn(C2CCC(N3CCCC(F)C3)CC2)[n-]c1=Nc1ccc(S(N)(=O)=O)cc1 (protonated)
[NH-]C(=O)c1cn(C2CCC(N3CCC[C@@H](F)C3)CC2)[n-]c1=Nc1ccc(S(N)(=O)=O)cc1 (chirality)
[NH-]C(=O)c1cn(C2CCC(N3CCC[C@@H](F)C3)CC2)[n-]c1=Nc1ccc(S(N)(=O)=O)cc1 (3D coordinates assigned)
[NH-]C(=O)c1cn(C2CCC(N3CCC[C@@H](F)C3)CC2)[n-]c1=Nc1ccc(S(N)(=O)=O)cc1 (nonaromatic ring conformer: 116.66674237704218 kcal/mol)

>  <smiles>  (25) 
NC(=O)c1cn(C2CCC(N3CCCC(F)C3)CC2)[nH]c1=Nc1ccc(S(N)(=O)=O)cc1

>  <score_type>  (25) 
oracle

>  <origin>  (25) 
adg

>  <m_score__min__energy>  (25) 
-13.77

>  <m_primary>  (25) 
energy

$$$$
25:0
     RDKit          3D

 64 67  0  0  0  0  0  0  0  0999 V2000
   58.1320   32.3740   41.5470 C   0  0  0  0  0  0  0  0  0  0  0  0
   57.0220   31.4870   42.0970 C   0  0  0  0  0  0  0  0  0  0  0  0
   57.2420   31.2160   43.5280 N   0  0  0  0  0  0  0  0  0  0  0  0
   56.5030   30.1200   44.1270 C   0  0  0  0  0  0  0  0  0  0  0  0
   55.3360   30.3360   44.5590 O   0  0  0  0  0  0  0  0  0  0  0  0
   57.0150   28.6960   44.1230 C   0  0  0  0  0  0  0  0  0  0  0  0
   58.2360   28.5320   44.9960 C   0  0  0  0  0  0  0  0  0  0  0  0
   59.5000   28.3040   44.4340 C   0  0  0  0  0  0  0  0  0  0  0  0
   60.6190   28.1630   45.2580 C   0  0  0  0  0  0  0  0  0  0  0  0
   60.4860   28.2560   46.6460 C   0  0  0  0  0  0  0  0  0  0  0  0
   59.2350   28.4990   47.2200 C   0  0  0  0  0  0  0  0  0  0  0  0
   59.1320   28.5890   48.6170 O   0  0  0  0  0  0  0  0  0  0  0  0
   59.5040   29.7090   49.3770 C   0  0  0  0  0  0  0  0  0  0  0  0
   58.5220   30.6400   49.7390 C   0  0  0  0  0  0  0  0  0  0  0  0
   58.8660   31.7780   50.4760 C   0  0  0  0  0  0  0  0  0  0  0  0
   60.1950   31.9840   50.8670 C   0  0  0  0  0  0  0  0  0  0  0  0
   61.1760   31.0480   50.5280 C   0  0  0  0  0  0  0  0  0  0  0  0
   60.8320   29.9050   49.8000 C   0  0  0  0  0  0  0  0  0  0  0  0
   58.1090   28.6080   46.3900 C   0  0  0  0  0  0  0  0  0  0  0  0
   58.1060   32.1350   44.3030 C   0  0  0  0  0  0  0  0  0  0  0  0
   58.7510   31.4250   45.5180 C   0  0  0  0  0  0  0  0  0  0  0  0
   58.9460   32.3750   46.7060 C   0  0  0  0  0  0  0  0  0  0  0  0
   59.3640   33.6980   46.2100 N   0  0  0  0  0  0  0  0  0  0  0  0
   60.0140   34.5370   47.2380 C   0  0  0  0  0  0  0  0  0  0  0  0
   61.3760   34.0340   47.6700 C   0  0  0  0  0  0  0  0  0  0  0  0
   61.7980   34.1880   49.0020 C   0  0  0  0  0  0  0  0  0  0  0  0
   63.0540   33.7200   49.4050 C   0  0  0  0  0  0  0  0  0  0  0  0
   63.9000   33.0970   48.4830 C   0  0  0  0  0  0  0  0  0  0  0  0
   63.4960   32.9560   47.1530 C   0  0  0  0  0  0  0  0  0  0  0  0
   62.2450   33.4290   46.7440 C   0  0  0  0  0  0  0  0  0  0  0  0
   58.2870   34.4020   45.4760 C   0  0  0  0  0  0  0  0  0  0  0  0
   57.3790   33.4430   44.6750 C   0  0  0  0  0  0  0  0  0  0  0  0
   58.6916   32.8212   42.3818 H   0  0  0  0  0  0  0  0  0  0  0  0
   58.8136   31.7690   40.9311 H   0  0  0  0  0  0  0  0  0  0  0  0
   57.6922   33.1723   40.9311 H   0  0  0  0  0  0  0  0  0  0  0  0
   56.0550   31.9954   41.9690 H   0  0  0  0  0  0  0  0  0  0  0  0
   57.0234   30.5331   41.5491 H   0  0  0  0  0  0  0  0  0  0  0  0
   56.2208   28.0319   44.4947 H   0  0  0  0  0  0  0  0  0  0  0  0
   57.2977   28.4392   43.0914 H   0  0  0  0  0  0  0  0  0  0  0  0
   59.6108   28.2360   43.3417 H   0  0  0  0  0  0  0  0  0  0  0  0
   61.6079   27.9782   44.8130 H   0  0  0  0  0  0  0  0  0  0  0  0
   61.3700   28.1374   47.2898 H   0  0  0  0  0  0  0  0  0  0  0  0
   57.4756   30.4754   49.4424 H   0  0  0  0  0  0  0  0  0  0  0  0
   58.0926   32.5112   50.7485 H   0  0  0  0  0  0  0  0  0  0  0  0
   60.4667   32.8823   51.4408 H   0  0  0  0  0  0  0  0  0  0  0  0
   62.2199   31.2108   50.8343 H   0  0  0  0  0  0  0  0  0  0  0  0
   61.6012   29.1570   49.5572 H   0  0  0  0  0  0  0  0  0  0  0  0
   57.1153   28.7548   46.8383 H   0  0  0  0  0  0  0  0  0  0  0  0
   58.9373   32.4360   43.6485 H   0  0  0  0  0  0  0  0  0  0  0  0
   58.0997   30.5955   45.8306 H   0  0  0  0  0  0  0  0  0  0  0  0
   59.7422   31.0607   45.2099 H   0  0  0  0  0  0  0  0  0  0  0  0
   57.9994   32.4720   47.2578 H   0  0  0  0  0  0  0  0  0  0  0  0
   59.7198   31.9721   47.3760 H   0  0  0  0  0  0  0  0  0  0  0  0
   60.1326   35.5524   46.8320 H   0  0  0  0  0  0  0  0  0  0  0  0
   59.3672   34.5105   48.1273 H   0  0  0  0  0  0  0  0  0  0  0  0
   61.1374   34.6791   49.7317 H   0  0  0  0  0  0  0  0  0  0  0  0
   63.3761   33.8427   50.4496 H   0  0  0  0  0  0  0  0  0  0  0  0
   64.8817   32.7186   48.8039 H   0  0  0  0  0  0  0  0  0  0  0  0
   64.1638   32.4716   46.4254 H   0  0  0  0  0  0  0  0  0  0  0  0
   61.9389   33.3273   45.6923 H   0  0  0  0  0  0  0  0  0  0  0  0
   57.6667   34.9483   46.2018 H   0  0  0  0  0  0  0  0  0  0  0  0
   58.7675   35.0803   44.7556 H   0  0  0  0  0  0  0  0  0  0  0  0
   56.4964   33.1979   45.2841 H   0  0  0  0  0  0  0  0  0  0  0  0
   57.0904   33.9486   43.7417 H   0  0  0  0  0  0  0  0  0  0  0  0
  1  2  1  0
  2  3  1  0
  3  4  1  0
  4  5  2  0
  4  6  1  0
  6  7  1  0
  7  8  2  0
  8  9  1  0
  9 10  2  0
 10 11  1  0
 11 12  1  0
 12 13  1  0
 13 14  2  0
 14 15  1  0
 15 16  2  0
 16 17  1  0
 17 18  2  0
 11 19  2  0
  3 20  1  0
 20 21  1  0
 21 22  1  0
 22 23  1  0
 23 24  1  0
 24 25  1  0
 25 26  2  0
 26 27  1  0
 27 28  2  0
 28 29  1  0
 29 30  2  0
 23 31  1  0
 31 32  1  0
 19  7  1  0
 32 20  1  0
 18 13  1  0
 30 25  1  0
  1 33  1  0
  1 34  1  0
  1 35  1  0
  2 36  1  0
  2 37  1  0
  6 38  1  0
  6 39  1  0
  8 40  1  0
  9 41  1  0
 10 42  1  0
 14 43  1  0
 15 44  1  0
 16 45  1  0
 17 46  1  0
 18 47  1  0
 19 48  1  0
 20 49  1  0
 21 50  1  0
 21 51  1  0
 22 52  1  0
 22 53  1  0
 24 54  1  0
 24 55  1  0
 26 56  1  0
 27 57  1  0
 28 58  1  0
 29 59  1  0
 30 60  1  0
 31 61  1  0
 31 62  1  0
 32 63  1  0
 32 64  1  0
M  END
>  <UniqueID>  (26) 
24

>  <SMILES>  (26) 
CCN(C(=O)Cc1cccc(Oc2ccccc2)c1)C1CCN(Cc2ccccc2)CC1

>  <Energy>  (26) 
81.62450562435242

>  <Genealogy>  (26) 
CCN(C(=O)Cc1cccc(Oc2ccccc2)c1)C1CCN(Cc2ccccc2)CC1 (3D coordinates assigned)
CCN(C(=O)Cc1cccc(Oc2ccccc2)c1)C1CCN(Cc2ccccc2)CC1 (nonaromatic ring conformer: 81.62450562435242 kcal/mol)

>  <smiles>  (26) 
CCN(C(=O)Cc1cccc(Oc2ccccc2)c1)C1CCN(Cc2ccccc2)CC1

>  <score_type>  (26) 
oracle

>  <origin>  (26) 
adg

>  <m_score__min__energy>  (26) 
-10.5

>  <m_primary>  (26) 
energy

$$$$
26:0
     RDKit          3D

 52 55  0  0  0  0  0  0  0  0999 V2000
   61.5110   34.9550   48.9580 O   0  0  0  0  0  0  0  0  0  0  0  0
   60.8920   33.9000   48.6490 C   0  0  0  0  0  0  0  0  0  0  0  0
   61.3250   32.6090   49.2300 C   0  0  0  0  0  0  0  0  0  0  0  0
   60.7160   31.4110   48.8240 C   0  0  0  0  0  0  0  0  0  0  0  0
   61.1230   30.1780   49.3590 C   0  0  0  0  0  0  0  0  0  0  0  0
   60.5190   28.9480   48.9130 N   0  0  0  0  0  0  0  0  0  0  0  0
   60.7350   27.6480   49.5290 C   0  0  0  0  0  0  0  0  0  0  0  0
   60.0970   26.6160   48.5810 C   0  0  0  0  0  0  0  0  0  0  0  0
   59.2410   27.3970   47.5750 C   0  0  0  0  0  0  0  0  0  0  0  0
   59.6210   28.8010   47.8260 C   0  0  0  0  0  0  0  0  0  0  0  0
   59.1390   29.7740   47.1860 O   0  0  0  0  0  0  0  0  0  0  0  0
   62.1580   30.1560   50.3090 C   0  0  0  0  0  0  0  0  0  0  0  0
   62.7470   31.3470   50.7610 C   0  0  0  0  0  0  0  0  0  0  0  0
   63.8780   31.3100   51.7600 C   0  0  0  0  0  0  0  0  0  0  0  0
   63.4410   31.7100   53.0100 F   0  0  0  0  0  0  0  0  0  0  0  0
   64.3660   30.0180   51.8440 F   0  0  0  0  0  0  0  0  0  0  0  0
   64.9040   32.1540   51.3700 F   0  0  0  0  0  0  0  0  0  0  0  0
   62.3330   32.5680   50.2060 C   0  0  0  0  0  0  0  0  0  0  0  0
   59.7950   33.9730   47.7200 N   0  0  0  0  0  0  0  0  0  0  0  0
   58.5120   33.3210   48.0250 C   0  0  0  0  0  0  0  0  0  0  0  0
   57.9460   32.6430   46.7690 C   0  0  0  0  0  0  0  0  0  0  0  0
   58.1650   33.4550   45.5600 N   0  0  0  0  0  0  0  0  0  0  0  0
   58.1360   32.8450   44.2490 C   0  0  0  0  0  0  0  0  0  0  0  0
   58.8480   33.3240   43.3240 O   0  0  0  0  0  0  0  0  0  0  0  0
   57.3010   31.6620   43.9490 C   0  0  0  0  0  0  0  0  0  0  0  0
   57.0870   31.1460   42.6820 C   0  0  0  0  0  0  0  0  0  0  0  0
   56.2390   30.0730   42.8360 C   0  0  0  0  0  0  0  0  0  0  0  0
   55.9780   29.9980   44.1870 C   0  0  0  0  0  0  0  0  0  0  0  0
   55.1570   29.0510   44.7880 O   0  0  0  0  0  0  0  0  0  0  0  0
   56.6140   30.9630   44.8760 N   0  0  0  0  0  0  0  0  0  0  0  0
   58.6240   34.8430   45.7170 C   0  0  0  0  0  0  0  0  0  0  0  0
   59.9030   34.8670   46.5580 C   0  0  0  0  0  0  0  0  0  0  0  0
   59.9092   31.4385   48.0768 H   0  0  0  0  0  0  0  0  0  0  0  0
   61.8117   27.4515   49.6386 H   0  0  0  0  0  0  0  0  0  0  0  0
   60.2901   27.6001   50.5339 H   0  0  0  0  0  0  0  0  0  0  0  0
   60.8809   26.0534   48.0529 H   0  0  0  0  0  0  0  0  0  0  0  0
   59.4831   25.8958   49.1418 H   0  0  0  0  0  0  0  0  0  0  0  0
   59.4793   27.1026   46.5423 H   0  0  0  0  0  0  0  0  0  0  0  0
   58.1627   27.2145   47.6933 H   0  0  0  0  0  0  0  0  0  0  0  0
   62.5115   29.1921   50.7039 H   0  0  0  0  0  0  0  0  0  0  0  0
   62.8042   33.5042   50.5400 H   0  0  0  0  0  0  0  0  0  0  0  0
   58.6670   32.5635   48.8074 H   0  0  0  0  0  0  0  0  0  0  0  0
   57.7981   34.0821   48.3729 H   0  0  0  0  0  0  0  0  0  0  0  0
   58.4401   31.6691   46.6375 H   0  0  0  0  0  0  0  0  0  0  0  0
   56.8613   32.5223   46.9065 H   0  0  0  0  0  0  0  0  0  0  0  0
   57.5111   31.5199   41.7385 H   0  0  0  0  0  0  0  0  0  0  0  0
   55.8508   29.4133   42.0460 H   0  0  0  0  0  0  0  0  0  0  0  0
   54.1830   28.9610   44.5220 H   0  0  0  0  0  0  0  0  0  0  0  0
   58.8286   35.2755   44.7265 H   0  0  0  0  0  0  0  0  0  0  0  0
   57.8434   35.4319   46.2209 H   0  0  0  0  0  0  0  0  0  0  0  0
   60.7485   34.5426   45.9336 H   0  0  0  0  0  0  0  0  0  0  0  0
   60.0596   35.8929   46.9226 H   0  0  0  0  0  0  0  0  0  0  0  0
  1  2  2  0
  2  3  1  0
  3  4  2  0
  4  5  1  0
  5  6  1  0
  6  7  1  0
  7  8  1  0
  8  9  1  0
  9 10  1  0
 10 11  2  0
  5 12  2  0
 12 13  1  0
 13 14  1  0
 14 15  1  0
 14 16  1  0
 14 17  1  0
 13 18  2  0
  2 19  1  0
 19 20  1  0
 20 21  1  0
 21 22  1  0
 22 23  1  0
 23 24  2  0
 23 25  1  0
 25 26  2  0
 26 27  1  0
 27 28  2  0
 28 29  1  0
 28 30  1  0
 22 31  1  0
 31 32  1  0
 18  3  1  0
 32 19  1  0
 10  6  1  0
 30 25  1  0
  4 33  1  0
  7 34  1  0
  7 35  1  0
  8 36  1  0
  8 37  1  0
  9 38  1  0
  9 39  1  0
 12 40  1  0
 18 41  1  0
 20 42  1  0
 20 43  1  0
 21 44  1  0
 21 45  1  0
 26 46  1  0
 27 47  1  0
 29 48  1  0
 31 49  1  0
 31 50  1  0
 32 51  1  0
 32 52  1  0
M  CHG  1  30  -1
M  END
>  <UniqueID>  (27) 
25

>  <SMILES>  (27) 
O=C(c1cc(N2CCCC2=O)cc(C(F)(F)F)c1)N1CCN(C(=O)c2ccc(O)[n-]2)CC1

>  <Energy>  (27) 
97.3067229470644

>  <Genealogy>  (27) 
O=C(c1cc(N2CCCC2=O)cc(C(F)(F)F)c1)N1CCN(C(=O)c2ccc(O)[n-]2)CC1 (protonated)
O=C(c1cc(N2CCCC2=O)cc(C(F)(F)F)c1)N1CCN(C(=O)c2ccc(O)[n-]2)CC1 (3D coordinates assigned)
O=C(c1cc(N2CCCC2=O)cc(C(F)(F)F)c1)N1CCN(C(=O)c2ccc(O)[n-]2)CC1 (nonaromatic ring conformer: 97.3067229470644 kcal/mol)

>  <smiles>  (27) 
O=C(c1cc(N2CCCC2=O)cc(C(F)(F)F)c1)N1CCN(C(=O)c2ccc(O)[nH]2)CC1

>  <score_type>  (27) 
oracle

>  <origin>  (27) 
adg

>  <m_score__min__energy>  (27) 
-11.16

>  <m_primary>  (27) 
energy

$$$$
27:0
     RDKit          3D

 52 55  0  0  0  0  0  0  0  0999 V2000
   56.5010   29.7090   42.8740 C   0  0  0  0  0  0  0  0  0  0  0  0
   57.2820   29.4330   44.0910 N   0  0  0  0  0  0  0  0  0  0  0  0
   57.4660   30.4280   45.0250 C   0  0  0  0  0  0  0  0  0  0  0  0
   56.9490   31.5670   44.8710 O   0  0  0  0  0  0  0  0  0  0  0  0
   58.2470   30.1480   46.1420 C   0  0  0  0  0  0  0  0  0  0  0  0
   58.8000   28.9210   46.2970 C   0  0  0  0  0  0  0  0  0  0  0  0
   59.4990   28.8480   47.4460 N   0  0  0  0  0  0  0  0  0  0  0  0
   59.3470   30.0920   47.9640 C   0  0  0  0  0  0  0  0  0  0  0  0
   59.9060   30.4650   49.2310 N   0  0  0  0  0  0  0  0  0  0  0  0
   59.0300   30.7080   50.3820 C   0  0  0  0  0  0  0  0  0  0  0  0
   59.4890   31.9550   51.1470 C   0  0  0  0  0  0  0  0  0  0  0  0
   60.9430   31.9600   51.3620 N   0  0  0  0  0  0  0  0  0  0  0  0
   61.5390   32.9560   52.2090 C   0  0  0  0  0  0  0  0  0  0  0  0
   60.8380   33.8700   52.7190 O   0  0  0  0  0  0  0  0  0  0  0  0
   61.7870   30.9110   50.7790 C   0  0  0  0  0  0  0  0  0  0  0  0
   61.3590   30.6330   49.3360 C   0  0  0  0  0  0  0  0  0  0  0  0
   58.5800   30.9160   47.2000 N   0  0  0  0  0  0  0  0  0  0  0  0
   58.1440   32.2830   47.5030 C   0  0  0  0  0  0  0  0  0  0  0  0
   58.9970   33.3030   46.7440 C   0  0  0  0  0  0  0  0  0  0  0  0
   59.5700   34.6310   47.8590 S   0  0  0  0  0  0  0  0  0  0  0  0
   61.2340   33.9860   48.0140 C   0  0  0  0  0  0  0  0  0  0  0  0
   61.7610   33.2160   47.0260 N   0  0  0  0  0  0  0  0  0  0  0  0
   63.0160   32.7060   47.1330 C   0  0  0  0  0  0  0  0  0  0  0  0
   63.7810   32.9750   48.2680 C   0  0  0  0  0  0  0  0  0  0  0  0
   63.2260   33.7740   49.2670 C   0  0  0  0  0  0  0  0  0  0  0  0
   61.9690   34.2650   49.1240 N   0  0  0  0  0  0  0  0  0  0  0  0
   58.6310   27.9250   45.3850 N   0  0  0  0  0  0  0  0  0  0  0  0
   59.2900   26.6240   45.5630 C   0  0  0  0  0  0  0  0  0  0  0  0
   57.8900   28.2010   44.2560 C   0  0  0  0  0  0  0  0  0  0  0  0
   57.7710   27.3170   43.3600 O   0  0  0  0  0  0  0  0  0  0  0  0
   55.4981   30.0634   43.1544 H   0  0  0  0  0  0  0  0  0  0  0  0
   57.0099   30.4817   42.2791 H   0  0  0  0  0  0  0  0  0  0  0  0
   56.4114   28.7881   42.2791 H   0  0  0  0  0  0  0  0  0  0  0  0
   57.9994   30.8584   50.0281 H   0  0  0  0  0  0  0  0  0  0  0  0
   59.0746   29.8391   51.0550 H   0  0  0  0  0  0  0  0  0  0  0  0
   59.2116   32.8491   50.5694 H   0  0  0  0  0  0  0  0  0  0  0  0
   58.9982   31.9517   52.1314 H   0  0  0  0  0  0  0  0  0  0  0  0
   62.6191   32.9200   52.4143 H   0  0  0  0  0  0  0  0  0  0  0  0
   62.8365   31.2403   50.7902 H   0  0  0  0  0  0  0  0  0  0  0  0
   61.6773   29.9903   51.3708 H   0  0  0  0  0  0  0  0  0  0  0  0
   61.6683   31.4772   48.7022 H   0  0  0  0  0  0  0  0  0  0  0  0
   61.8397   29.7002   49.0063 H   0  0  0  0  0  0  0  0  0  0  0  0
   57.0913   32.4005   47.2064 H   0  0  0  0  0  0  0  0  0  0  0  0
   58.2580   32.4598   48.5827 H   0  0  0  0  0  0  0  0  0  0  0  0
   59.8708   32.7923   46.3132 H   0  0  0  0  0  0  0  0  0  0  0  0
   58.3838   33.7518   45.9487 H   0  0  0  0  0  0  0  0  0  0  0  0
   63.4279   32.0822   46.3260 H   0  0  0  0  0  0  0  0  0  0  0  0
   64.7971   32.5668   48.3724 H   0  0  0  0  0  0  0  0  0  0  0  0
   63.8074   34.0064   50.1714 H   0  0  0  0  0  0  0  0  0  0  0  0
   59.3977   26.4114   46.6369 H   0  0  0  0  0  0  0  0  0  0  0  0
   58.6816   25.8374   45.0927 H   0  0  0  0  0  0  0  0  0  0  0  0
   60.2841   26.6491   45.0927 H   0  0  0  0  0  0  0  0  0  0  0  0
  1  2  1  0
  2  3  1  0
  3  4  2  0
  3  5  1  0
  5  6  2  0
  6  7  1  0
  7  8  2  0
  8  9  1  0
  9 10  1  0
 10 11  1  0
 11 12  1  0
 12 13  1  0
 13 14  2  0
 12 15  1  0
 15 16  1  0
  8 17  1  0
 17 18  1  0
 18 19  1  0
 19 20  1  0
 20 21  1  0
 21 22  2  0
 22 23  1  0
 23 24  2  0
 24 25  1  0
 25 26  2  0
  6 27  1  0
 27 28  1  0
 27 29  1  0
 29 30  2  0
 29  2  1  0
 17  5  1  0
 26 21  1  0
 16  9  1  0
  1 31  1  0
  1 32  1  0
  1 33  1  0
 10 34  1  0
 10 35  1  0
 11 36  1  0
 11 37  1  0
 13 38  1  0
 15 39  1  0
 15 40  1  0
 16 41  1  0
 16 42  1  0
 18 43  1  0
 18 44  1  0
 19 45  1  0
 19 46  1  0
 23 47  1  0
 24 48  1  0
 25 49  1  0
 28 50  1  0
 28 51  1  0
 28 52  1  0
M  END
>  <UniqueID>  (28) 
26

>  <SMILES>  (28) 
Cn1c(=O)c2c(nc(N3CCN(C=O)CC3)n2CCSc2ncccn2)n(C)c1=O

>  <Energy>  (28) 
97.89790090084593

>  <Genealogy>  (28) 
Cn1c(=O)c2c(nc(N3CCN(C=O)CC3)n2CCSc2ncccn2)n(C)c1=O (3D coordinates assigned)
Cn1c(=O)c2c(nc(N3CCN(C=O)CC3)n2CCSc2ncccn2)n(C)c1=O (nonaromatic ring conformer: 97.89790090084593 kcal/mol)

>  <smiles>  (28) 
Cn1c(=O)c2c(nc(N3CCN(C=O)CC3)n2CCSc2ncccn2)n(C)c1=O

>  <score_type>  (28) 
oracle

>  <origin>  (28) 
adg

>  <m_score__min__energy>  (28) 
-7.0899999999999999

>  <m_primary>  (28) 
energy

$$$$
28:0
     RDKit          3D

 54 57  0  0  0  0  0  0  0  0999 V2000
   59.5160   27.1490   45.1830 O   0  0  0  0  0  0  0  0  0  0  0  0
   58.8020   27.4090   46.1890 C   0  0  0  0  0  0  0  0  0  0  0  0
   59.1440   26.8050   47.5170 C   0  0  0  0  0  0  0  0  0  0  0  0
   60.0620   27.7140   48.3460 C   0  0  0  0  0  0  0  0  0  0  0  0
   59.5740   29.1700   48.4270 C   0  0  0  0  0  0  0  0  0  0  0  0
   60.6950   30.1070   48.4470 N   0  0  0  0  0  0  0  0  0  0  0  0
   61.2060   30.8800   47.3570 C   0  0  0  0  0  0  0  0  0  0  0  0
   60.7640   30.8260   46.1790 O   0  0  0  0  0  0  0  0  0  0  0  0
   62.3080   31.7170   47.8160 C   0  0  0  0  0  0  0  0  0  0  0  0
   63.1070   32.6300   47.1280 C   0  0  0  0  0  0  0  0  0  0  0  0
   64.1130   33.2990   47.8460 C   0  0  0  0  0  0  0  0  0  0  0  0
   64.3000   33.0460   49.2230 C   0  0  0  0  0  0  0  0  0  0  0  0
   63.4800   32.1210   49.8950 C   0  0  0  0  0  0  0  0  0  0  0  0
   62.4900   31.4700   49.1610 C   0  0  0  0  0  0  0  0  0  0  0  0
   61.5040   30.4750   49.5670 C   0  0  0  0  0  0  0  0  0  0  0  0
   61.3850   29.9880   50.7220 O   0  0  0  0  0  0  0  0  0  0  0  0
   57.6350   28.2330   46.0690 N   0  0  0  0  0  0  0  0  0  0  0  0
   57.4820   29.3850   45.2270 C   0  0  0  0  0  0  0  0  0  0  0  0
   56.8410   29.2320   43.9910 C   0  0  0  0  0  0  0  0  0  0  0  0
   56.6590   30.3310   43.1480 C   0  0  0  0  0  0  0  0  0  0  0  0
   57.1020   31.5970   43.5410 C   0  0  0  0  0  0  0  0  0  0  0  0
   57.7220   31.7710   44.7850 C   0  0  0  0  0  0  0  0  0  0  0  0
   58.2740   33.3710   45.2890 S   0  0  0  0  0  0  0  0  0  0  0  0
   57.0870   34.2860   45.4090 O   0  0  0  0  0  0  0  0  0  0  0  0
   59.1900   33.9330   44.2370 O   0  0  0  0  0  0  0  0  0  0  0  0
   59.1160   33.3150   46.8180 N   0  0  0  0  0  0  0  0  0  0  0  0
   59.5560   34.6590   47.2150 C   0  0  0  0  0  0  0  0  0  0  0  0
   60.3250   34.5850   48.5520 C   0  0  0  0  0  0  0  0  0  0  0  0
   60.2440   33.3030   49.1500 O   0  0  0  0  0  0  0  0  0  0  0  0
   58.8910   32.9060   49.2550 C   0  0  0  0  0  0  0  0  0  0  0  0
   58.2540   32.7320   47.8610 C   0  0  0  0  0  0  0  0  0  0  0  0
   57.9010   30.6670   45.6310 C   0  0  0  0  0  0  0  0  0  0  0  0
   58.2139   26.6333   48.0786 H   0  0  0  0  0  0  0  0  0  0  0  0
   59.6788   25.8617   47.3322 H   0  0  0  0  0  0  0  0  0  0  0  0
   60.1220   27.3097   49.3673 H   0  0  0  0  0  0  0  0  0  0  0  0
   61.0409   27.7286   47.8445 H   0  0  0  0  0  0  0  0  0  0  0  0
   58.9430   29.3853   47.5521 H   0  0  0  0  0  0  0  0  0  0  0  0
   59.0032   29.2927   49.3592 H   0  0  0  0  0  0  0  0  0  0  0  0
   62.9543   32.8207   46.0555 H   0  0  0  0  0  0  0  0  0  0  0  0
   64.7597   34.0252   47.3317 H   0  0  0  0  0  0  0  0  0  0  0  0
   65.0917   33.5755   49.7734 H   0  0  0  0  0  0  0  0  0  0  0  0
   63.6161   31.9177   50.9674 H   0  0  0  0  0  0  0  0  0  0  0  0
   56.4787   28.2403   43.6822 H   0  0  0  0  0  0  0  0  0  0  0  0
   56.1662   30.1998   42.1733 H   0  0  0  0  0  0  0  0  0  0  0  0
   56.9634   32.4589   42.8717 H   0  0  0  0  0  0  0  0  0  0  0  0
   60.2152   35.0719   46.4372 H   0  0  0  0  0  0  0  0  0  0  0  0
   58.6759   35.3073   47.3381 H   0  0  0  0  0  0  0  0  0  0  0  0
   61.3828   34.8216   48.3649 H   0  0  0  0  0  0  0  0  0  0  0  0
   59.8672   35.3078   49.2434 H   0  0  0  0  0  0  0  0  0  0  0  0
   58.8380   31.9498   49.7962 H   0  0  0  0  0  0  0  0  0  0  0  0
   58.3384   33.6877   49.7968 H   0  0  0  0  0  0  0  0  0  0  0  0
   58.1166   31.6596   47.6581 H   0  0  0  0  0  0  0  0  0  0  0  0
   57.2838   33.2502   47.8484 H   0  0  0  0  0  0  0  0  0  0  0  0
   58.3715   30.8034   46.6159 H   0  0  0  0  0  0  0  0  0  0  0  0
  1  2  2  0
  2  3  1  0
  3  4  1  0
  4  5  1  0
  5  6  1  0
  6  7  1  0
  7  8  2  0
  7  9  1  0
  9 10  2  0
 10 11  1  0
 11 12  2  0
 12 13  1  0
 13 14  2  0
 14 15  1  0
 15 16  2  0
  2 17  1  0
 17 18  1  0
 18 19  2  0
 19 20  1  0
 20 21  2  0
 21 22  1  0
 22 23  1  0
 23 24  2  0
 23 25  2  0
 23 26  1  0
 26 27  1  0
 27 28  1  0
 28 29  1  0
 29 30  1  0
 30 31  1  0
 22 32  2  0
 15  6  1  0
 32 18  1  0
 14  9  1  0
 31 26  1  0
  3 33  1  0
  3 34  1  0
  4 35  1  0
  4 36  1  0
  5 37  1  0
  5 38  1  0
 10 39  1  0
 11 40  1  0
 12 41  1  0
 13 42  1  0
 19 43  1  0
 20 44  1  0
 21 45  1  0
 27 46  1  0
 27 47  1  0
 28 48  1  0
 28 49  1  0
 30 50  1  0
 30 51  1  0
 31 52  1  0
 31 53  1  0
 32 54  1  0
M  CHG  1  17  -1
M  END
>  <UniqueID>  (29) 
27

>  <SMILES>  (29) 
O=C(CCCN1C(=O)c2ccccc2C1=O)[N-]c1cccc(S(=O)(=O)N2CCOCC2)c1

>  <Energy>  (29) 
93.60281082129079

>  <Genealogy>  (29) 
O=C(CCCN1C(=O)c2ccccc2C1=O)[N-]c1cccc(S(=O)(=O)N2CCOCC2)c1 (protonated)
O=C(CCCN1C(=O)c2ccccc2C1=O)[N-]c1cccc(S(=O)(=O)N2CCOCC2)c1 (3D coordinates assigned)
O=C(CCCN1C(=O)c2ccccc2C1=O)[N-]c1cccc(S(=O)(=O)N2CCOCC2)c1 (nonaromatic ring conformer: 93.60281082129079 kcal/mol)

>  <smiles>  (29) 
O=C(CCCN1C(=O)c2ccccc2C1=O)Nc1cccc(S(=O)(=O)N2CCOCC2)c1

>  <score_type>  (29) 
oracle

>  <origin>  (29) 
adg

>  <m_score__min__energy>  (29) 
-12.449999999999999

>  <m_primary>  (29) 
energy

$$$$
29:0
     RDKit          3D

 53 55  0  0  0  0  0  0  0  0999 V2000
   55.6040   30.0810   44.6670 O   0  0  0  0  0  0  0  0  0  0  0  0
   56.7440   29.5420   44.6390 C   0  0  0  0  0  0  0  0  0  0  0  0
   56.9230   28.1650   45.2020 C   0  0  0  0  0  0  0  0  0  0  0  0
   58.2280   27.5510   44.7040 C   0  0  0  0  0  0  0  0  0  0  0  0
   59.2970   27.8390   45.6530 N   0  0  0  0  0  0  0  0  0  0  0  0
   60.0790   29.0410   45.6640 C   0  0  0  0  0  0  0  0  0  0  0  0
   60.7880   29.3110   44.6590 O   0  0  0  0  0  0  0  0  0  0  0  0
   60.1130   29.9460   46.8310 C   0  0  0  0  0  0  0  0  0  0  0  0
   59.4210   29.6270   48.0100 C   0  0  0  0  0  0  0  0  0  0  0  0
   59.4550   30.4960   49.1040 C   0  0  0  0  0  0  0  0  0  0  0  0
   60.1660   31.6970   49.0250 C   0  0  0  0  0  0  0  0  0  0  0  0
   60.8400   32.0380   47.8450 C   0  0  0  0  0  0  0  0  0  0  0  0
   61.7160   33.5610   47.7140 S   0  0  0  0  0  0  0  0  0  0  0  0
   61.7250   34.0330   46.2850 O   0  0  0  0  0  0  0  0  0  0  0  0
   61.0140   34.5860   48.5610 O   0  0  0  0  0  0  0  0  0  0  0  0
   63.3580   33.3430   48.2860 N   0  0  0  0  0  0  0  0  0  0  0  0
   63.5010   33.8630   49.6490 C   0  0  0  0  0  0  0  0  0  0  0  0
   63.2650   32.7160   50.6200 C   0  0  0  0  0  0  0  0  0  0  0  0
   63.4040   31.4510   49.7950 C   0  0  0  0  0  0  0  0  0  0  0  0
   63.6860   31.9170   48.3730 C   0  0  0  0  0  0  0  0  0  0  0  0
   60.8040   31.1660   46.7480 C   0  0  0  0  0  0  0  0  0  0  0  0
   57.8500   30.2140   44.0190 N   0  0  0  0  0  0  0  0  0  0  0  0
   57.7340   31.5540   43.4500 C   0  0  0  0  0  0  0  0  0  0  0  0
   58.0600   32.5920   44.4900 C   0  0  0  0  0  0  0  0  0  0  0  0
   58.8030   33.7360   44.1510 C   0  0  0  0  0  0  0  0  0  0  0  0
   59.0860   34.7050   45.1210 C   0  0  0  0  0  0  0  0  0  0  0  0
   58.6270   34.5390   46.4310 C   0  0  0  0  0  0  0  0  0  0  0  0
   58.9020   35.4800   47.3690 F   0  0  0  0  0  0  0  0  0  0  0  0
   57.8800   33.4070   46.7740 C   0  0  0  0  0  0  0  0  0  0  0  0
   57.5970   32.4360   45.8080 C   0  0  0  0  0  0  0  0  0  0  0  0
   56.9458   28.2228   46.3002 H   0  0  0  0  0  0  0  0  0  0  0  0
   56.0841   27.5339   44.8735 H   0  0  0  0  0  0  0  0  0  0  0  0
   58.1071   26.4619   44.6081 H   0  0  0  0  0  0  0  0  0  0  0  0
   58.4836   27.9806   43.7241 H   0  0  0  0  0  0  0  0  0  0  0  0
   58.8496   28.6892   48.0730 H   0  0  0  0  0  0  0  0  0  0  0  0
   58.9210   30.2343   50.0294 H   0  0  0  0  0  0  0  0  0  0  0  0
   60.1963   32.3753   49.8905 H   0  0  0  0  0  0  0  0  0  0  0  0
   64.5142   34.2676   49.7892 H   0  0  0  0  0  0  0  0  0  0  0  0
   62.7739   34.6689   49.8275 H   0  0  0  0  0  0  0  0  0  0  0  0
   64.0141   32.7339   51.4253 H   0  0  0  0  0  0  0  0  0  0  0  0
   62.2772   32.7840   51.0993 H   0  0  0  0  0  0  0  0  0  0  0  0
   64.2366   30.8377   50.1701 H   0  0  0  0  0  0  0  0  0  0  0  0
   62.4975   30.8300   49.8471 H   0  0  0  0  0  0  0  0  0  0  0  0
   64.7489   31.7640   48.1347 H   0  0  0  0  0  0  0  0  0  0  0  0
   63.0795   31.3428   47.6572 H   0  0  0  0  0  0  0  0  0  0  0  0
   61.3204   31.4390   45.8159 H   0  0  0  0  0  0  0  0  0  0  0  0
   58.7720   29.7240   43.9570 H   0  0  0  0  0  0  0  0  0  0  0  0
   58.4338   31.6523   42.6071 H   0  0  0  0  0  0  0  0  0  0  0  0
   56.7018   31.7073   43.1020 H   0  0  0  0  0  0  0  0  0  0  0  0
   59.1632   33.8703   43.1204 H   0  0  0  0  0  0  0  0  0  0  0  0
   59.6699   35.5976   44.8522 H   0  0  0  0  0  0  0  0  0  0  0  0
   57.5150   33.2805   47.8040 H   0  0  0  0  0  0  0  0  0  0  0  0
   57.0098   31.5467   46.0807 H   0  0  0  0  0  0  0  0  0  0  0  0
  1  2  2  0
  2  3  1  0
  3  4  1  0
  4  5  1  0
  5  6  1  0
  6  7  2  0
  6  8  1  0
  8  9  2  0
  9 10  1  0
 10 11  2  0
 11 12  1  0
 12 13  1  0
 13 14  2  0
 13 15  2  0
 13 16  1  0
 16 17  1  0
 17 18  1  0
 18 19  1  0
 19 20  1  0
 12 21  2  0
  2 22  1  0
 22 23  1  0
 23 24  1  0
 24 25  2  0
 25 26  1  0
 26 27  2  0
 27 28  1  0
 27 29  1  0
 29 30  2  0
 21  8  1  0
 30 24  1  0
 20 16  1  0
  3 31  1  0
  3 32  1  0
  4 33  1  0
  4 34  1  0
  9 35  1  0
 10 36  1  0
 11 37  1  0
 17 38  1  0
 17 39  1  0
 18 40  1  0
 18 41  1  0
 19 42  1  0
 19 43  1  0
 20 44  1  0
 20 45  1  0
 21 46  1  0
 22 47  1  0
 23 48  1  0
 23 49  1  0
 25 50  1  0
 26 51  1  0
 29 52  1  0
 30 53  1  0
M  CHG  1   5  -1
M  END
>  <UniqueID>  (30) 
28

>  <SMILES>  (30) 
O=C(CC[N-]C(=O)c1cccc(S(=O)(=O)N2CCCC2)c1)NCc1ccc(F)cc1

>  <Energy>  (30) 
52.24775508362061

>  <Genealogy>  (30) 
O=C(CC[N-]C(=O)c1cccc(S(=O)(=O)N2CCCC2)c1)NCc1ccc(F)cc1 (protonated)
O=C(CC[N-]C(=O)c1cccc(S(=O)(=O)N2CCCC2)c1)NCc1ccc(F)cc1 (3D coordinates assigned)
O=C(CC[N-]C(=O)c1cccc(S(=O)(=O)N2CCCC2)c1)NCc1ccc(F)cc1 (nonaromatic ring conformer: 52.24775508362061 kcal/mol)

>  <smiles>  (30) 
O=C(CCNC(=O)c1cccc(S(=O)(=O)N2CCCC2)c1)NCc1ccc(F)cc1

>  <score_type>  (30) 
oracle

>  <origin>  (30) 
adg

>  <m_score__min__energy>  (30) 
-10.9

>  <m_primary>  (30) 
energy

$$$$
30:0
     RDKit          3D

 58 62  0  0  0  0  0  0  0  0999 V2000
   64.2430   31.6000   48.8880 O   0  0  0  0  0  0  0  0  0  0  0  0
   63.5580   32.1980   49.7610 C   0  0  0  0  0  0  0  0  0  0  0  0
   62.1560   31.9090   49.9000 N   0  0  0  0  0  0  0  0  0  0  0  0
   61.3910   31.1710   48.9310 C   0  0  0  0  0  0  0  0  0  0  0  0
   61.1060   31.7540   47.6890 C   0  0  0  0  0  0  0  0  0  0  0  0
   60.3780   31.0520   46.7250 C   0  0  0  0  0  0  0  0  0  0  0  0
   59.9380   29.7430   46.9790 C   0  0  0  0  0  0  0  0  0  0  0  0
   59.1720   29.0250   45.9930 N   0  0  0  0  0  0  0  0  0  0  0  0
   59.7640   27.9030   45.2510 C   0  0  0  0  0  0  0  0  0  0  0  0
   58.8880   26.6590   45.4180 C   0  0  0  0  0  0  0  0  0  0  0  0
   57.4630   26.9810   45.2450 N   0  0  0  0  0  0  0  0  0  0  0  0
   56.4580   26.0360   45.6460 C   0  0  0  0  0  0  0  0  0  0  0  0
   55.6940   26.3270   46.6040 O   0  0  0  0  0  0  0  0  0  0  0  0
   56.2640   24.7050   44.9520 C   0  0  0  0  0  0  0  0  0  0  0  0
   57.0270   23.5420   45.5790 C   0  0  0  0  0  0  0  0  0  0  0  0
   57.7540   23.3130   44.2580 C   0  0  0  0  0  0  0  0  0  0  0  0
   57.0300   24.5060   43.6450 C   0  0  0  0  0  0  0  0  0  0  0  0
   57.0580   28.3440   44.8780 C   0  0  0  0  0  0  0  0  0  0  0  0
   57.7530   29.3630   45.7910 C   0  0  0  0  0  0  0  0  0  0  0  0
   60.2420   29.1490   48.2150 C   0  0  0  0  0  0  0  0  0  0  0  0
   60.9690   29.8520   49.1810 C   0  0  0  0  0  0  0  0  0  0  0  0
   64.2000   33.1400   50.6360 N   0  0  0  0  0  0  0  0  0  0  0  0
   63.5120   33.9140   51.6720 C   0  0  0  0  0  0  0  0  0  0  0  0
   64.5970   34.7510   52.2380 C   0  0  0  0  0  0  0  0  0  0  0  0
   64.5070   35.6870   53.2700 C   0  0  0  0  0  0  0  0  0  0  0  0
   65.6720   36.3710   53.6570 C   0  0  0  0  0  0  0  0  0  0  0  0
   66.8960   36.1100   53.0120 C   0  0  0  0  0  0  0  0  0  0  0  0
   66.9630   35.1630   51.9770 C   0  0  0  0  0  0  0  0  0  0  0  0
   65.7930   34.4950   51.6080 C   0  0  0  0  0  0  0  0  0  0  0  0
   65.6250   33.4650   50.5560 C   0  0  0  0  0  0  0  0  0  0  0  0
   61.6850   32.1560   50.7990 H   0  0  0  0  0  0  0  0  0  0  0  0
   61.4584   32.7730   47.4712 H   0  0  0  0  0  0  0  0  0  0  0  0
   60.1479   31.5281   45.7604 H   0  0  0  0  0  0  0  0  0  0  0  0
   59.8304   28.1637   44.1844 H   0  0  0  0  0  0  0  0  0  0  0  0
   60.7710   27.6964   45.6425 H   0  0  0  0  0  0  0  0  0  0  0  0
   59.1802   25.9115   44.6658 H   0  0  0  0  0  0  0  0  0  0  0  0
   59.0339   26.2658   46.4349 H   0  0  0  0  0  0  0  0  0  0  0  0
   55.1642   24.7178   44.9383 H   0  0  0  0  0  0  0  0  0  0  0  0
   57.6859   23.8325   46.4105 H   0  0  0  0  0  0  0  0  0  0  0  0
   56.4862   22.7187   46.0687 H   0  0  0  0  0  0  0  0  0  0  0  0
   58.8455   23.4349   44.3202 H   0  0  0  0  0  0  0  0  0  0  0  0
   57.7158   22.3292   43.7673 H   0  0  0  0  0  0  0  0  0  0  0  0
   57.6902   25.3445   43.3782 H   0  0  0  0  0  0  0  0  0  0  0  0
   56.4910   24.4029   42.6916 H   0  0  0  0  0  0  0  0  0  0  0  0
   57.3410   28.5390   43.8330 H   0  0  0  0  0  0  0  0  0  0  0  0
   55.9684   28.4400   44.9941 H   0  0  0  0  0  0  0  0  0  0  0  0
   57.6847   30.3600   45.3314 H   0  0  0  0  0  0  0  0  0  0  0  0
   57.2515   29.3486   46.7699 H   0  0  0  0  0  0  0  0  0  0  0  0
   59.9056   28.1229   48.4248 H   0  0  0  0  0  0  0  0  0  0  0  0
   61.2120   29.3718   50.1404 H   0  0  0  0  0  0  0  0  0  0  0  0
   62.7172   34.5379   51.2372 H   0  0  0  0  0  0  0  0  0  0  0  0
   63.0126   33.2849   52.4236 H   0  0  0  0  0  0  0  0  0  0  0  0
   63.5466   35.8845   53.7686 H   0  0  0  0  0  0  0  0  0  0  0  0
   65.6274   37.1135   54.4674 H   0  0  0  0  0  0  0  0  0  0  0  0
   67.8035   36.6500   53.3200 H   0  0  0  0  0  0  0  0  0  0  0  0
   67.9153   34.9521   51.4684 H   0  0  0  0  0  0  0  0  0  0  0  0
   65.8837   33.8665   49.5651 H   0  0  0  0  0  0  0  0  0  0  0  0
   66.2771   32.5906   50.6982 H   0  0  0  0  0  0  0  0  0  0  0  0
  1  2  2  0
  2  3  1  0
  3  4  1  0
  4  5  2  0
  5  6  1  0
  6  7  2  0
  7  8  1  0
  8  9  1  0
  9 10  1  0
 10 11  1  0
 11 12  1  0
 12 13  2  0
 12 14  1  0
 14 15  1  0
 15 16  1  0
 16 17  1  0
 11 18  1  0
 18 19  1  0
  7 20  1  0
 20 21  2  0
  2 22  1  0
 22 23  1  0
 23 24  1  0
 24 25  2  0
 25 26  1  0
 26 27  2  0
 27 28  1  0
 28 29  2  0
 29 30  1  0
 21  4  1  0
 30 22  1  0
 19  8  1  0
 29 24  1  0
 17 14  1  0
  3 31  1  0
  5 32  1  0
  6 33  1  0
  9 34  1  0
  9 35  1  0
 10 36  1  0
 10 37  1  0
 14 38  1  0
 15 39  1  0
 15 40  1  0
 16 41  1  0
 16 42  1  0
 17 43  1  0
 17 44  1  0
 18 45  1  0
 18 46  1  0
 19 47  1  0
 19 48  1  0
 20 49  1  0
 21 50  1  0
 23 51  1  0
 23 52  1  0
 25 53  1  0
 26 54  1  0
 27 55  1  0
 28 56  1  0
 30 57  1  0
 30 58  1  0
M  END
>  <UniqueID>  (31) 
29

>  <SMILES>  (31) 
O=C(Nc1ccc(N2CCN(C(=O)C3CCC3)CC2)cc1)N1Cc2ccccc2C1

>  <Energy>  (31) 
144.4065950535351

>  <Genealogy>  (31) 
O=C(Nc1ccc(N2CCN(C(=O)C3CCC3)CC2)cc1)N1Cc2ccccc2C1 (3D coordinates assigned)
O=C(Nc1ccc(N2CCN(C(=O)C3CCC3)CC2)cc1)N1Cc2ccccc2C1 (nonaromatic ring conformer: 144.4065950535351 kcal/mol)

>  <smiles>  (31) 
O=C(Nc1ccc(N2CCN(C(=O)C3CCC3)CC2)cc1)N1Cc2ccccc2C1

>  <score_type>  (31) 
oracle

>  <origin>  (31) 
adg

>  <m_score__min__energy>  (31) 
-7.3600000000000003

>  <m_primary>  (31) 
energy

$$$$
31:0
     RDKit          3D

 47 49  0  0  0  0  0  0  0  0999 V2000
   61.0580   30.0870   49.6170 C   0  0  0  0  0  0  0  0  0  0  0  0
   59.7820   30.3560   48.9310 N   0  0  0  0  0  0  0  0  0  0  0  0
   58.8780   31.0800   49.8450 C   0  0  0  0  0  0  0  0  0  0  0  0
   59.1700   29.0900   48.4740 C   0  0  0  0  0  0  0  0  0  0  0  0
   60.2460   28.0250   48.2320 C   0  0  0  0  0  0  0  0  0  0  0  0
   60.2130   27.5830   46.8410 N   0  0  0  0  0  0  0  0  0  0  0  0
   59.7020   28.3630   45.7510 C   0  0  0  0  0  0  0  0  0  0  0  0
   60.5080   28.8690   44.9270 O   0  0  0  0  0  0  0  0  0  0  0  0
   58.2550   28.5660   45.5520 C   0  0  0  0  0  0  0  0  0  0  0  0
   57.3700   27.5170   45.8320 C   0  0  0  0  0  0  0  0  0  0  0  0
   56.0030   27.6940   45.6160 C   0  0  0  0  0  0  0  0  0  0  0  0
   55.1140   26.6650   45.8980 O   0  0  0  0  0  0  0  0  0  0  0  0
   55.5400   28.8720   45.1230 N   0  0  0  0  0  0  0  0  0  0  0  0
   56.3700   29.9150   44.8510 C   0  0  0  0  0  0  0  0  0  0  0  0
   55.8890   30.9720   44.3640 O   0  0  0  0  0  0  0  0  0  0  0  0
   57.7540   29.7970   45.0930 C   0  0  0  0  0  0  0  0  0  0  0  0
   58.6560   30.9020   44.9130 N   0  0  0  0  0  0  0  0  0  0  0  0
   58.4700   32.2180   45.4540 C   0  0  0  0  0  0  0  0  0  0  0  0
   57.4820   32.9180   45.0930 O   0  0  0  0  0  0  0  0  0  0  0  0
   59.3940   32.7380   46.4890 C   0  0  0  0  0  0  0  0  0  0  0  0
   58.9650   33.7140   47.4080 C   0  0  0  0  0  0  0  0  0  0  0  0
   59.8460   34.2210   48.3700 C   0  0  0  0  0  0  0  0  0  0  0  0
   61.1740   33.7760   48.4180 C   0  0  0  0  0  0  0  0  0  0  0  0
   62.0720   34.2960   49.3650 C   0  0  0  0  0  0  0  0  0  0  0  0
   63.4000   33.8540   49.3890 C   0  0  0  0  0  0  0  0  0  0  0  0
   63.8380   32.8920   48.4760 C   0  0  0  0  0  0  0  0  0  0  0  0
   62.9510   32.3590   47.5350 C   0  0  0  0  0  0  0  0  0  0  0  0
   61.6160   32.7960   47.4970 C   0  0  0  0  0  0  0  0  0  0  0  0
   60.7220   32.2780   46.5490 C   0  0  0  0  0  0  0  0  0  0  0  0
   60.9031   30.1197   50.7055 H   0  0  0  0  0  0  0  0  0  0  0  0
   61.4265   29.0914   49.3288 H   0  0  0  0  0  0  0  0  0  0  0  0
   61.7970   30.8491   49.3288 H   0  0  0  0  0  0  0  0  0  0  0  0
   59.1548   30.8583   50.8863 H   0  0  0  0  0  0  0  0  0  0  0  0
   58.9640   32.1618   49.6651 H   0  0  0  0  0  0  0  0  0  0  0  0
   57.8412   30.7597   49.6651 H   0  0  0  0  0  0  0  0  0  0  0  0
   58.4707   28.7288   49.2424 H   0  0  0  0  0  0  0  0  0  0  0  0
   58.6368   29.2753   47.5299 H   0  0  0  0  0  0  0  0  0  0  0  0
   61.2355   28.4508   48.4547 H   0  0  0  0  0  0  0  0  0  0  0  0
   60.0523   27.1631   48.8875 H   0  0  0  0  0  0  0  0  0  0  0  0
   57.7501   26.5603   46.2195 H   0  0  0  0  0  0  0  0  0  0  0  0
   57.9288   34.0813   47.3698 H   0  0  0  0  0  0  0  0  0  0  0  0
   59.4943   34.9726   49.0921 H   0  0  0  0  0  0  0  0  0  0  0  0
   61.7312   35.0513   50.0884 H   0  0  0  0  0  0  0  0  0  0  0  0
   64.1013   34.2659   50.1297 H   0  0  0  0  0  0  0  0  0  0  0  0
   64.8841   32.5524   48.4971 H   0  0  0  0  0  0  0  0  0  0  0  0
   63.2992   31.5961   46.8232 H   0  0  0  0  0  0  0  0  0  0  0  0
   61.0626   31.5042   45.8452 H   0  0  0  0  0  0  0  0  0  0  0  0
  1  2  1  0
  2  3  1  0
  2  4  1  0
  4  5  1  0
  5  6  1  0
  6  7  1  0
  7  8  2  0
  7  9  1  0
  9 10  1  0
 10 11  2  0
 11 12  1  0
 11 13  1  0
 13 14  1  0
 14 15  2  0
 14 16  1  0
 16 17  1  0
 17 18  1  0
 18 19  2  0
 18 20  1  0
 20 21  2  0
 21 22  1  0
 22 23  2  0
 23 24  1  0
 24 25  2  0
 25 26  1  0
 26 27  2  0
 27 28  1  0
 28 29  2  0
 16  9  2  0
 29 20  1  0
 28 23  1  0
  1 30  1  0
  1 31  1  0
  1 32  1  0
  3 33  1  0
  3 34  1  0
  3 35  1  0
  4 36  1  0
  4 37  1  0
  5 38  1  0
  5 39  1  0
 10 40  1  0
 21 41  1  0
 22 42  1  0
 24 43  1  0
 25 44  1  0
 26 45  1  0
 27 46  1  0
 29 47  1  0
M  CHG  4   6  -1  12  -1  13  -1  17  -1
M  END
>  <UniqueID>  (32) 
30

>  <SMILES>  (32) 
CN(C)CC[N-]C(=O)c1cc([O-])[n-]c(=O)c1[N-]C(=O)c1ccc2ccccc2c1

>  <Energy>  (32) 
63.62889704713933

>  <Genealogy>  (32) 
CN(C)CC[N-]C(=O)c1cc([O-])[n-]c(=O)c1[N-]C(=O)c1ccc2ccccc2c1 (protonated)
CN(C)CC[N-]C(=O)c1cc([O-])[n-]c(=O)c1[N-]C(=O)c1ccc2ccccc2c1 (3D coordinates assigned)
CN(C)CC[N-]C(=O)c1cc([O-])[n-]c(=O)c1[N-]C(=O)c1ccc2ccccc2c1 (optimized conformer: 63.62889704713933 kcal/mol)

>  <smiles>  (32) 
CN(C)CCNC(=O)c1cc(O)[nH]c(=O)c1NC(=O)c1ccc2ccccc2c1

>  <score_type>  (32) 
oracle

>  <origin>  (32) 
adg

>  <m_score__min__energy>  (32) 
-15.34

>  <m_primary>  (32) 
energy

$$$$
32:0
     RDKit          3D

 34 36  0  0  0  0  0  0  0  0999 V2000
   55.5680   29.7660   43.0480 O   0  0  0  0  0  0  0  0  0  0  0  0
   56.2360   30.0070   44.0880 C   0  0  0  0  0  0  0  0  0  0  0  0
   56.0540   29.1650   45.2340 N   0  0  0  0  0  0  0  0  0  0  0  0
   56.7950   27.9720   45.5300 C   0  0  0  0  0  0  0  0  0  0  0  0
   58.1950   28.0270   45.4940 C   0  0  0  0  0  0  0  0  0  0  0  0
   58.9550   26.8870   45.7700 C   0  0  0  0  0  0  0  0  0  0  0  0
   58.3230   25.6870   46.1010 C   0  0  0  0  0  0  0  0  0  0  0  0
   56.9280   25.6300   46.1730 C   0  0  0  0  0  0  0  0  0  0  0  0
   56.1610   26.7700   45.9040 C   0  0  0  0  0  0  0  0  0  0  0  0
   54.7800   26.7020   46.0470 O   0  0  0  0  0  0  0  0  0  0  0  0
   57.1520   31.1750   44.1120 C   0  0  0  0  0  0  0  0  0  0  0  0
   57.3990   31.9250   42.9530 C   0  0  0  0  0  0  0  0  0  0  0  0
   56.8240   31.5750   41.7370 O   0  0  0  0  0  0  0  0  0  0  0  0
   58.2290   32.9940   43.0050 N   0  0  0  0  0  0  0  0  0  0  0  0
   58.8460   33.3610   44.1540 C   0  0  0  0  0  0  0  0  0  0  0  0
   59.5960   34.3760   44.1490 O   0  0  0  0  0  0  0  0  0  0  0  0
   58.6510   32.6410   45.3040 N   0  0  0  0  0  0  0  0  0  0  0  0
   59.3120   33.0350   46.5230 C   0  0  0  0  0  0  0  0  0  0  0  0
   60.3420   32.2440   47.0600 C   0  0  0  0  0  0  0  0  0  0  0  0
   60.9820   32.6270   48.2420 C   0  0  0  0  0  0  0  0  0  0  0  0
   60.5990   33.8010   48.8970 C   0  0  0  0  0  0  0  0  0  0  0  0
   61.2210   34.1720   50.0430 F   0  0  0  0  0  0  0  0  0  0  0  0
   59.5760   34.5940   48.3680 C   0  0  0  0  0  0  0  0  0  0  0  0
   58.9330   34.2140   47.1860 C   0  0  0  0  0  0  0  0  0  0  0  0
   57.8180   31.5510   45.2940 C   0  0  0  0  0  0  0  0  0  0  0  0
   57.6380   30.8810   46.3510 O   0  0  0  0  0  0  0  0  0  0  0  0
   58.6987   28.9732   45.2470 H   0  0  0  0  0  0  0  0  0  0  0  0
   60.0531   26.9354   45.7263 H   0  0  0  0  0  0  0  0  0  0  0  0
   58.9220   24.7872   46.3050 H   0  0  0  0  0  0  0  0  0  0  0  0
   56.4312   24.6861   46.4420 H   0  0  0  0  0  0  0  0  0  0  0  0
   60.6459   31.3192   46.5477 H   0  0  0  0  0  0  0  0  0  0  0  0
   61.7879   32.0040   48.6572 H   0  0  0  0  0  0  0  0  0  0  0  0
   59.2765   35.5188   48.8829 H   0  0  0  0  0  0  0  0  0  0  0  0
   58.1279   34.8402   46.7740 H   0  0  0  0  0  0  0  0  0  0  0  0
  1  2  2  0
  2  3  1  0
  3  4  1  0
  4  5  2  0
  5  6  1  0
  6  7  2  0
  7  8  1  0
  8  9  2  0
  9 10  1  0
  2 11  1  0
 11 12  2  0
 12 13  1  0
 12 14  1  0
 14 15  1  0
 15 16  2  0
 15 17  1  0
 17 18  1  0
 18 19  2  0
 19 20  1  0
 20 21  2  0
 21 22  1  0
 21 23  1  0
 23 24  2  0
 17 25  1  0
 25 26  2  0
  9  4  1  0
 25 11  1  0
 24 18  1  0
  5 27  1  0
  6 28  1  0
  7 29  1  0
  8 30  1  0
 19 31  1  0
 20 32  1  0
 23 33  1  0
 24 34  1  0
M  CHG  4   3  -1  10  -1  13  -1  14  -1
M  END
>  <UniqueID>  (33) 
31

>  <SMILES>  (33) 
O=C([N-]c1ccccc1[O-])c1c([O-])[n-]c(=O)n(-c2ccc(F)cc2)c1=O

>  <Energy>  (33) 
59.94402113203756

>  <Genealogy>  (33) 
O=C([N-]c1ccccc1[O-])c1c([O-])[n-]c(=O)n(-c2ccc(F)cc2)c1=O (protonated)
O=C([N-]c1ccccc1[O-])c1c([O-])[n-]c(=O)n(-c2ccc(F)cc2)c1=O (3D coordinates assigned)
O=C([N-]c1ccccc1[O-])c1c([O-])[n-]c(=O)n(-c2ccc(F)cc2)c1=O (optimized conformer: 59.94402113203756 kcal/mol)

>  <smiles>  (33) 
O=C(Nc1ccccc1O)c1c(O)[nH]c(=O)n(-c2ccc(F)cc2)c1=O

>  <score_type>  (33) 
oracle

>  <origin>  (33) 
adg

>  <m_score__min__energy>  (33) 
-16.010000000000002

>  <m_primary>  (33) 
energy

$$$$
33:0
     RDKit          3D

 71 75  0  0  0  0  0  0  0  0999 V2000
   60.0180   28.1010   45.7960 O   0  0  0  0  0  0  0  0  0  0  0  0
   58.7580   28.1240   45.8560 C   0  0  0  0  0  0  0  0  0  0  0  0
   58.0550   27.1630   46.6580 N   0  0  0  0  0  0  0  0  0  0  0  0
   57.6360   25.8160   46.2610 C   0  0  2  0  0  0  0  0  0  0  0  0
   58.1450   25.4540   44.8500 C   0  0  0  0  0  0  0  0  0  0  0  0
   57.6560   24.0950   44.4180 C   0  0  0  0  0  0  0  0  0  0  0  0
   58.2020   22.9290   44.9810 C   0  0  0  0  0  0  0  0  0  0  0  0
   57.7740   21.6700   44.5480 C   0  0  0  0  0  0  0  0  0  0  0  0
   56.8020   21.5660   43.5500 C   0  0  0  0  0  0  0  0  0  0  0  0
   56.2580   22.7200   42.9800 C   0  0  0  0  0  0  0  0  0  0  0  0
   56.6850   23.9810   43.4090 C   0  0  0  0  0  0  0  0  0  0  0  0
   56.1410   25.6570   46.3730 C   0  0  0  0  0  0  0  0  0  0  0  0
   55.3930   26.5940   45.9820 O   0  0  0  0  0  0  0  0  0  0  0  0
   55.5800   24.4360   46.8800 N   0  0  0  0  0  0  0  0  0  0  0  0
   54.6070   23.7180   46.3930 C   0  0  0  0  0  0  0  0  0  0  0  0
   53.7590   24.3090   45.4460 C   0  0  0  0  0  0  0  0  0  0  0  0
   52.7140   23.5700   44.8890 C   0  0  0  0  0  0  0  0  0  0  0  0
   52.5280   22.2740   45.2500 N   0  0  0  0  0  0  0  0  0  0  0  0
   53.3400   21.6630   46.1510 C   0  0  0  0  0  0  0  0  0  0  0  0
   54.3960   22.3670   46.7390 C   0  0  0  0  0  0  0  0  0  0  0  0
   58.0160   29.1720   45.1170 C   0  0  0  0  0  0  0  0  0  0  0  0
   57.4180   28.8340   43.8910 C   0  0  0  0  0  0  0  0  0  0  0  0
   56.7240   29.7920   43.1550 C   0  0  0  0  0  0  0  0  0  0  0  0
   56.6220   31.0880   43.6480 C   0  0  0  0  0  0  0  0  0  0  0  0
   57.1800   31.4050   44.8430 N   0  0  0  0  0  0  0  0  0  0  0  0
   57.8620   30.4980   45.6020 C   0  0  0  0  0  0  0  0  0  0  0  0
   58.4210   30.9300   46.9420 C   0  0  0  0  0  0  0  0  0  0  0  0
   59.4160   32.0590   46.8260 C   0  0  0  0  0  0  0  0  0  0  0  0
   59.2360   32.9100   45.9130 O   0  0  0  0  0  0  0  0  0  0  0  0
   60.5710   32.1730   47.6980 N   0  0  0  0  0  0  0  0  0  0  0  0
   60.6890   31.4050   48.9490 C   0  0  0  0  0  0  0  0  0  0  0  0
   62.1250   30.9130   49.1430 C   0  0  0  0  0  0  0  0  0  0  0  0
   63.0730   32.0120   48.9270 N   0  0  0  0  0  0  0  0  0  0  0  0
   64.2880   32.0870   49.6990 C   0  0  0  0  0  0  0  0  0  0  0  0
   65.2800   33.0330   49.3870 C   0  0  0  0  0  0  0  0  0  0  0  0
   66.4540   33.1000   50.1450 C   0  0  0  0  0  0  0  0  0  0  0  0
   66.6480   32.2240   51.2150 C   0  0  0  0  0  0  0  0  0  0  0  0
   65.6700   31.2770   51.5300 C   0  0  0  0  0  0  0  0  0  0  0  0
   64.4940   31.2080   50.7750 C   0  0  0  0  0  0  0  0  0  0  0  0
   62.9560   32.7780   47.6820 C   0  0  0  0  0  0  0  0  0  0  0  0
   61.5230   33.2790   47.5090 C   0  0  0  0  0  0  0  0  0  0  0  0
   58.0981   25.1041   46.9608 H   0  0  0  0  0  0  0  0  0  0  0  0
   57.7833   26.2078   44.1352 H   0  0  0  0  0  0  0  0  0  0  0  0
   59.2445   25.4334   44.8745 H   0  0  0  0  0  0  0  0  0  0  0  0
   58.9692   23.0069   45.7655 H   0  0  0  0  0  0  0  0  0  0  0  0
   58.2032   20.7606   44.9938 H   0  0  0  0  0  0  0  0  0  0  0  0
   56.4646   20.5749   43.2126 H   0  0  0  0  0  0  0  0  0  0  0  0
   55.4935   22.6367   42.1935 H   0  0  0  0  0  0  0  0  0  0  0  0
   56.2587   24.8874   42.9544 H   0  0  0  0  0  0  0  0  0  0  0  0
   53.9170   25.3543   45.1421 H   0  0  0  0  0  0  0  0  0  0  0  0
   52.0400   24.0381   44.1564 H   0  0  0  0  0  0  0  0  0  0  0  0
   53.1666   20.6104   46.4194 H   0  0  0  0  0  0  0  0  0  0  0  0
   55.0566   21.8710   47.4654 H   0  0  0  0  0  0  0  0  0  0  0  0
   57.4985   27.8054   43.5096 H   0  0  0  0  0  0  0  0  0  0  0  0
   56.2613   29.5256   42.1933 H   0  0  0  0  0  0  0  0  0  0  0  0
   56.0888   31.8563   43.0689 H   0  0  0  0  0  0  0  0  0  0  0  0
   57.5880   31.2603   47.5800 H   0  0  0  0  0  0  0  0  0  0  0  0
   58.9493   30.0670   47.3734 H   0  0  0  0  0  0  0  0  0  0  0  0
   60.4093   32.0483   49.7963 H   0  0  0  0  0  0  0  0  0  0  0  0
   60.0189   30.5343   48.8962 H   0  0  0  0  0  0  0  0  0  0  0  0
   62.2418   30.5289   50.1671 H   0  0  0  0  0  0  0  0  0  0  0  0
   62.3311   30.1142   48.4154 H   0  0  0  0  0  0  0  0  0  0  0  0
   65.1325   33.7234   48.5434 H   0  0  0  0  0  0  0  0  0  0  0  0
   67.2255   33.8440   49.8977 H   0  0  0  0  0  0  0  0  0  0  0  0
   67.5713   32.2795   51.8103 H   0  0  0  0  0  0  0  0  0  0  0  0
   65.8246   30.5857   52.3716 H   0  0  0  0  0  0  0  0  0  0  0  0
   63.7264   30.4610   51.0256 H   0  0  0  0  0  0  0  0  0  0  0  0
   63.6407   33.6382   47.7179 H   0  0  0  0  0  0  0  0  0  0  0  0
   63.2164   32.1288   46.8330 H   0  0  0  0  0  0  0  0  0  0  0  0
   61.3203   34.0638   48.2527 H   0  0  0  0  0  0  0  0  0  0  0  0
   61.4049   33.6842   46.4932 H   0  0  0  0  0  0  0  0  0  0  0  0
  1  2  2  0
  2  3  1  0
  3  4  1  0
  4  5  1  0
  5  6  1  0
  6  7  2  0
  7  8  1  0
  8  9  2  0
  9 10  1  0
 10 11  2  0
  4 12  1  0
 12 13  2  0
 12 14  1  0
 14 15  2  3
 15 16  1  0
 16 17  2  0
 17 18  1  0
 18 19  1  0
 19 20  2  0
  2 21  1  0
 21 22  2  0
 22 23  1  0
 23 24  2  0
 24 25  1  0
 25 26  2  0
 26 27  1  0
 27 28  1  0
 28 29  2  0
 28 30  1  0
 30 31  1  0
 31 32  1  0
 32 33  1  0
 33 34  1  0
 34 35  2  0
 35 36  1  0
 36 37  2  0
 37 38  1  0
 38 39  2  0
 33 40  1  0
 40 41  1  0
 11  6  1  0
 20 15  1  0
 26 21  1  0
 41 30  1  0
 39 34  1  0
  4 42  1  1
  5 43  1  0
  5 44  1  0
  7 45  1  0
  8 46  1  0
  9 47  1  0
 10 48  1  0
 11 49  1  0
 16 50  1  0
 17 51  1  0
 19 52  1  0
 20 53  1  0
 22 54  1  0
 23 55  1  0
 24 56  1  0
 27 57  1  0
 27 58  1  0
 31 59  1  0
 31 60  1  0
 32 61  1  0
 32 62  1  0
 35 63  1  0
 36 64  1  0
 37 65  1  0
 38 66  1  0
 39 67  1  0
 40 68  1  0
 40 69  1  0
 41 70  1  0
 41 71  1  0
M  CHG  2   3  -1  18  -1
M  END
>  <UniqueID>  (34) 
32

>  <SMILES>  (34) 
O=C([N-][C@H](Cc1ccccc1)C(=O)N=c1cc[n-]cc1)c1cccnc1CC(=O)N1CCN(c2ccccc2)CC1

>  <Energy>  (34) 
92.69562108440967

>  <Genealogy>  (34) 
O=C([N-]C(Cc1ccccc1)C(=O)N=c1cc[n-]cc1)c1cccnc1CC(=O)N1CCN(c2ccccc2)CC1 (protonated)
O=C([N-][C@H](Cc1ccccc1)C(=O)N=c1cc[n-]cc1)c1cccnc1CC(=O)N1CCN(c2ccccc2)CC1 (chirality)
O=C([N-][C@H](Cc1ccccc1)C(=O)N=c1cc[n-]cc1)c1cccnc1CC(=O)N1CCN(c2ccccc2)CC1 (3D coordinates assigned)
O=C([N-][C@H](Cc1ccccc1)C(=O)N=c1cc[n-]cc1)c1cccnc1CC(=O)N1CCN(c2ccccc2)CC1 (nonaromatic ring conformer: 92.69562108440967 kcal/mol)

>  <smiles>  (34) 
O=C(NC(Cc1ccccc1)C(=O)N=c1cc[nH]cc1)c1cccnc1CC(=O)N1CCN(c2ccccc2)CC1

>  <score_type>  (34) 
oracle

>  <origin>  (34) 
adg

>  <m_score__min__energy>  (34) 
-13.76

>  <m_primary>  (34) 
energy

$$$$
34:0
     RDKit          3D

 33 35  0  0  0  0  0  0  0  0999 V2000
   55.8670   23.8370   45.2800 C   0  0  0  0  0  0  0  0  0  0  0  0
   56.6800   24.8520   45.5610 C   0  0  0  0  0  0  0  0  0  0  0  0
   58.1340   24.8380   45.5260 C   0  0  0  0  0  0  0  0  0  0  0  0
   58.5580   26.0510   45.8580 C   0  0  0  0  0  0  0  0  0  0  0  0
   57.4030   26.9170   46.1580 C   0  0  0  0  0  0  0  0  0  0  0  0
   57.4560   28.4100   46.4270 C   0  0  2  0  0  0  0  0  0  0  0  0
   56.9060   29.2460   45.2980 C   0  0  0  0  0  0  0  0  0  0  0  0
   57.4370   30.4270   44.8040 C   0  0  0  0  0  0  0  0  0  0  0  0
   56.5520   30.8800   43.8450 C   0  0  0  0  0  0  0  0  0  0  0  0
   55.5160   29.9700   43.8050 C   0  0  0  0  0  0  0  0  0  0  0  0
   55.7310   28.9840   44.6930 N   0  0  0  0  0  0  0  0  0  0  0  0
   58.8430   28.9010   46.7850 C   0  0  0  0  0  0  0  0  0  0  0  0
   59.9930   28.9880   46.0070 C   0  0  0  0  0  0  0  0  0  0  0  0
   60.1560   28.6270   44.5640 C   0  0  0  0  0  0  0  0  0  0  0  0
   60.9680   29.5650   46.7390 N   0  0  0  0  0  0  0  0  0  0  0  0
   60.5150   29.8520   47.9490 N   0  0  0  0  0  0  0  0  0  0  0  0
   59.2300   29.4590   47.9890 C   0  0  0  0  0  0  0  0  0  0  0  0
   58.4920   29.6020   49.0000 O   0  0  0  0  0  0  0  0  0  0  0  0
   56.3000   26.2030   45.9360 C   0  0  0  0  0  0  0  0  0  0  0  0
   54.9960   26.6800   46.0110 O   0  0  0  0  0  0  0  0  0  0  0  0
   54.7771   23.9717   45.3427 H   0  0  0  0  0  0  0  0  0  0  0  0
   56.2848   22.8631   44.9849 H   0  0  0  0  0  0  0  0  0  0  0  0
   58.7684   23.9765   45.2702 H   0  0  0  0  0  0  0  0  0  0  0  0
   59.6118   26.3631   45.9026 H   0  0  0  0  0  0  0  0  0  0  0  0
   56.8012   28.5433   47.3007 H   0  0  0  0  0  0  0  0  0  0  0  0
   58.3764   30.9080   45.1140 H   0  0  0  0  0  0  0  0  0  0  0  0
   56.6535   31.7884   43.2331 H   0  0  0  0  0  0  0  0  0  0  0  0
   54.6408   30.0409   43.1425 H   0  0  0  0  0  0  0  0  0  0  0  0
   55.0960   28.1780   44.8840 H   0  0  0  0  0  0  0  0  0  0  0  0
   60.6075   27.6271   44.4849 H   0  0  0  0  0  0  0  0  0  0  0  0
   59.1716   28.6247   44.0731 H   0  0  0  0  0  0  0  0  0  0  0  0
   60.8087   29.3639   44.0731 H   0  0  0  0  0  0  0  0  0  0  0  0
   61.9370   29.7790   46.4140 H   0  0  0  0  0  0  0  0  0  0  0  0
  1  2  2  0
  2  3  1  0
  3  4  2  0
  4  5  1  0
  5  6  1  0
  6  7  1  0
  7  8  2  0
  8  9  1  0
  9 10  2  0
 10 11  1  0
  6 12  1  0
 12 13  2  0
 13 14  1  0
 13 15  1  0
 15 16  1  0
 16 17  1  0
 17 18  2  0
  5 19  2  0
 19 20  1  0
 19  2  1  0
 11  7  1  0
 17 12  1  0
  1 21  1  0
  1 22  1  0
  3 23  1  0
  4 24  1  0
  6 25  1  1
  8 26  1  0
  9 27  1  0
 10 28  1  0
 11 29  1  0
 14 30  1  0
 14 31  1  0
 14 32  1  0
 15 33  1  0
M  CHG  2  16  -1  20  -1
M  END
>  <UniqueID>  (35) 
33

>  <SMILES>  (35) 
C=C1C=CC([C@H](c2ccc[nH]2)c2c(C)[nH][n-]c2=O)=C1[O-]

>  <Energy>  (35) 
113.32312830477393

>  <Genealogy>  (35) 
C=C1C=CC(C(c2ccc[nH]2)c2c(C)[nH][n-]c2=O)=C1[O-] (protonated)
C=C1C=CC([C@H](c2ccc[nH]2)c2c(C)[nH][n-]c2=O)=C1[O-] (chirality)
C=C1C=CC([C@H](c2ccc[nH]2)c2c(C)[nH][n-]c2=O)=C1[O-] (3D coordinates assigned)
C=C1C=CC([C@H](c2ccc[nH]2)c2c(C)[nH][n-]c2=O)=C1[O-] (nonaromatic ring conformer: 113.32312830477393 kcal/mol)

>  <smiles>  (35) 
C=C1C=CC(C(c2ccc[nH]2)c2c(C)[nH][nH]c2=O)=C1O

>  <score_type>  (35) 
oracle

>  <origin>  (35) 
adg

>  <m_score__min__energy>  (35) 
-11.94

>  <m_primary>  (35) 
energy

$$$$
35:0
     RDKit          3D

 48 49  0  0  0  0  0  0  0  0999 V2000
   59.6180   34.6710   45.5860 C   0  0  0  0  0  0  0  0  0  0  0  0
   58.8350   33.4620   45.1640 C   0  0  0  0  0  0  0  0  0  0  0  0
   58.5100   33.2660   43.8140 C   0  0  0  0  0  0  0  0  0  0  0  0
   57.8110   32.1220   43.4160 C   0  0  0  0  0  0  0  0  0  0  0  0
   57.4450   31.1550   44.3610 C   0  0  0  0  0  0  0  0  0  0  0  0
   56.5410   29.7300   43.8520 S   0  0  0  0  0  0  0  0  0  0  0  0
   55.8950   29.9800   42.5170 O   0  0  0  0  0  0  0  0  0  0  0  0
   55.4600   29.4500   44.8570 O   0  0  0  0  0  0  0  0  0  0  0  0
   57.5930   28.3510   43.7450 N   0  0  0  0  0  0  0  0  0  0  0  0
   58.8970   28.6740   44.3310 C   0  0  0  0  0  0  0  0  0  0  0  0
   59.2720   27.6220   45.3800 C   0  0  0  0  0  0  0  0  0  0  0  0
   58.3650   27.6410   46.5900 C   0  0  0  0  0  0  0  0  0  0  0  0
   57.1610   27.2890   46.4730 O   0  0  0  0  0  0  0  0  0  0  0  0
   58.8220   28.0500   47.8930 N   0  0  0  0  0  0  0  0  0  0  0  0
   59.1780   29.2380   48.2890 C   0  0  0  0  0  0  0  0  0  0  0  0
   58.6490   29.8870   49.3490 N   0  0  0  0  0  0  0  0  0  0  0  0
   59.2100   31.1150   49.5230 C   0  0  0  0  0  0  0  0  0  0  0  0
   58.7260   32.0290   50.6060 C   0  0  0  0  0  0  0  0  0  0  0  0
   60.2130   31.4300   48.5970 C   0  0  0  0  0  0  0  0  0  0  0  0
   60.9840   32.6810   48.5040 C   0  0  0  0  0  0  0  0  0  0  0  0
   60.3640   33.7770   48.5390 O   0  0  0  0  0  0  0  0  0  0  0  0
   62.4140   32.6720   48.3460 N   0  0  0  0  0  0  0  0  0  0  0  0
   63.0520   31.6460   47.5150 C   0  0  0  0  0  0  0  0  0  0  0  0
   63.1980   33.7790   48.8980 C   0  0  0  0  0  0  0  0  0  0  0  0
   60.3570   30.1480   47.5160 S   0  0  0  0  0  0  0  0  0  0  0  0
   57.7790   31.3430   45.7090 C   0  0  0  0  0  0  0  0  0  0  0  0
   58.4780   32.4870   46.1080 C   0  0  0  0  0  0  0  0  0  0  0  0
   59.6508   34.7216   46.6843 H   0  0  0  0  0  0  0  0  0  0  0  0
   60.6424   34.6005   45.1915 H   0  0  0  0  0  0  0  0  0  0  0  0
   59.1347   35.5769   45.1915 H   0  0  0  0  0  0  0  0  0  0  0  0
   58.8061   34.0152   43.0650 H   0  0  0  0  0  0  0  0  0  0  0  0
   57.5477   31.9811   42.3573 H   0  0  0  0  0  0  0  0  0  0  0  0
   57.1550   27.5940   44.3190 H   0  0  0  0  0  0  0  0  0  0  0  0
   59.6599   28.6871   43.5386 H   0  0  0  0  0  0  0  0  0  0  0  0
   58.8434   29.6619   44.8118 H   0  0  0  0  0  0  0  0  0  0  0  0
   59.2137   26.6271   44.9144 H   0  0  0  0  0  0  0  0  0  0  0  0
   60.2890   27.8546   45.7288 H   0  0  0  0  0  0  0  0  0  0  0  0
   58.9585   31.5900   51.5874 H   0  0  0  0  0  0  0  0  0  0  0  0
   59.2257   33.0045   50.5130 H   0  0  0  0  0  0  0  0  0  0  0  0
   57.6383   32.1639   50.5130 H   0  0  0  0  0  0  0  0  0  0  0  0
   63.5219   30.8904   48.1617 H   0  0  0  0  0  0  0  0  0  0  0  0
   62.2936   31.1647   46.8800 H   0  0  0  0  0  0  0  0  0  0  0  0
   63.8191   32.1133   46.8800 H   0  0  0  0  0  0  0  0  0  0  0  0
   63.1684   33.7372   49.9968 H   0  0  0  0  0  0  0  0  0  0  0  0
   64.2402   33.6966   48.5559 H   0  0  0  0  0  0  0  0  0  0  0  0
   62.7743   34.7347   48.5559 H   0  0  0  0  0  0  0  0  0  0  0  0
   57.4905   30.5885   46.4557 H   0  0  0  0  0  0  0  0  0  0  0  0
   58.7488   32.6228   47.1655 H   0  0  0  0  0  0  0  0  0  0  0  0
  1  2  1  0
  2  3  2  0
  3  4  1  0
  4  5  2  0
  5  6  1  0
  6  7  2  0
  6  8  2  0
  6  9  1  0
  9 10  1  0
 10 11  1  0
 11 12  1  0
 12 13  2  0
 12 14  1  0
 14 15  2  3
 15 16  1  0
 16 17  1  0
 17 18  1  0
 17 19  2  0
 19 20  1  0
 20 21  2  0
 20 22  1  0
 22 23  1  0
 22 24  1  0
 19 25  1  0
  5 26  1  0
 26 27  2  0
 27  2  1  0
 25 15  1  0
  1 28  1  0
  1 29  1  0
  1 30  1  0
  3 31  1  0
  4 32  1  0
  9 33  1  0
 10 34  1  0
 10 35  1  0
 11 36  1  0
 11 37  1  0
 18 38  1  0
 18 39  1  0
 18 40  1  0
 23 41  1  0
 23 42  1  0
 23 43  1  0
 24 44  1  0
 24 45  1  0
 24 46  1  0
 26 47  1  0
 27 48  1  0
M  CHG  1  16  -1
M  END
>  <UniqueID>  (36) 
34

>  <SMILES>  (36) 
Cc1ccc(S(=O)(=O)NCCC(=O)N=c2[n-]c(C)c(C(=O)N(C)C)s2)cc1

>  <Energy>  (36) 
78.76428328040843

>  <Genealogy>  (36) 
Cc1ccc(S(=O)(=O)NCCC(=O)N=c2[n-]c(C)c(C(=O)N(C)C)s2)cc1 (protonated)
Cc1ccc(S(=O)(=O)NCCC(=O)N=c2[n-]c(C)c(C(=O)N(C)C)s2)cc1 (3D coordinates assigned)
Cc1ccc(S(=O)(=O)NCCC(=O)N=c2[n-]c(C)c(C(=O)N(C)C)s2)cc1 (optimized conformer: 78.76428328040843 kcal/mol)

>  <smiles>  (36) 
Cc1ccc(S(=O)(=O)NCCC(=O)N=c2[nH]c(C)c(C(=O)N(C)C)s2)cc1

>  <score_type>  (36) 
oracle

>  <origin>  (36) 
adg

>  <m_score__min__energy>  (36) 
-11.31

>  <m_primary>  (36) 
energy

$$$$
36:0
     RDKit          3D

 48 50  0  0  0  0  0  0  0  0999 V2000
   60.6280   33.5350   51.6310 C   0  0  0  0  0  0  0  0  0  0  0  0
   61.3340   33.6140   50.3070 C   0  0  0  0  0  0  0  0  0  0  0  0
   62.0660   34.5720   50.0920 O   0  0  0  0  0  0  0  0  0  0  0  0
   61.1630   32.5820   49.3000 N   0  0  0  0  0  0  0  0  0  0  0  0
   61.6630   31.2920   49.8040 C   0  0  0  0  0  0  0  0  0  0  0  0
   61.2920   30.1680   48.8250 C   0  0  0  0  0  0  0  0  0  0  0  0
   61.5030   30.5450   47.4050 N   0  0  0  0  0  0  0  0  0  0  0  0
   60.3790   30.3270   46.4590 C   0  0  0  0  0  0  0  0  0  0  0  0
   59.0300   30.8900   46.9610 C   0  0  0  0  0  0  0  0  0  0  0  0
   57.9200   30.6470   45.9310 C   0  0  0  0  0  0  0  0  0  0  0  0
   57.8870   29.2310   45.5460 N   0  0  0  0  0  0  0  0  0  0  0  0
   56.6250   28.6010   45.2700 C   0  0  0  0  0  0  0  0  0  0  0  0
   55.7050   29.2630   44.7160 O   0  0  0  0  0  0  0  0  0  0  0  0
   56.3740   27.2030   45.6590 C   0  0  0  0  0  0  0  0  0  0  0  0
   57.3110   26.1920   45.7030 C   0  0  0  0  0  0  0  0  0  0  0  0
   56.5820   25.0870   46.0830 C   0  0  0  0  0  0  0  0  0  0  0  0
   57.1330   23.7250   46.3490 C   0  0  0  0  0  0  0  0  0  0  0  0
   55.2920   25.4270   46.2680 N   0  0  0  0  0  0  0  0  0  0  0  0
   55.1620   26.7170   45.9990 N   0  0  0  0  0  0  0  0  0  0  0  0
   59.1340   28.6220   45.0670 C   0  0  0  0  0  0  0  0  0  0  0  0
   60.2470   28.8330   46.0980 C   0  0  0  0  0  0  0  0  0  0  0  0
   62.2960   31.7730   47.1800 C   0  0  0  0  0  0  0  0  0  0  0  0
   61.8310   32.9760   48.0350 C   0  0  0  0  0  0  0  0  0  0  0  0
   61.3639   33.6173   52.4444 H   0  0  0  0  0  0  0  0  0  0  0  0
   59.9017   34.3575   51.7089 H   0  0  0  0  0  0  0  0  0  0  0  0
   60.1015   32.5723   51.7089 H   0  0  0  0  0  0  0  0  0  0  0  0
   60.1410   32.4740   49.1070 H   0  0  0  0  0  0  0  0  0  0  0  0
   62.7572   31.3399   49.9063 H   0  0  0  0  0  0  0  0  0  0  0  0
   61.2063   31.0845   50.7830 H   0  0  0  0  0  0  0  0  0  0  0  0
   61.9120   29.2877   49.0502 H   0  0  0  0  0  0  0  0  0  0  0  0
   60.2200   29.9581   48.9547 H   0  0  0  0  0  0  0  0  0  0  0  0
   60.6302   30.8969   45.5523 H   0  0  0  0  0  0  0  0  0  0  0  0
   58.7609   30.3932   47.9048 H   0  0  0  0  0  0  0  0  0  0  0  0
   59.1363   31.9740   47.1150 H   0  0  0  0  0  0  0  0  0  0  0  0
   56.9505   30.9273   46.3686 H   0  0  0  0  0  0  0  0  0  0  0  0
   58.1193   31.2573   45.0378 H   0  0  0  0  0  0  0  0  0  0  0  0
   58.3876   26.2537   45.4857 H   0  0  0  0  0  0  0  0  0  0  0  0
   57.1990   23.5618   47.4348 H   0  0  0  0  0  0  0  0  0  0  0  0
   56.4704   22.9681   45.9041 H   0  0  0  0  0  0  0  0  0  0  0  0
   58.1355   23.6417   45.9041 H   0  0  0  0  0  0  0  0  0  0  0  0
   58.9781   27.5439   44.9141 H   0  0  0  0  0  0  0  0  0  0  0  0
   59.4260   29.0940   44.1173 H   0  0  0  0  0  0  0  0  0  0  0  0
   60.0101   28.2612   47.0074 H   0  0  0  0  0  0  0  0  0  0  0  0
   61.1984   28.4876   45.6674 H   0  0  0  0  0  0  0  0  0  0  0  0
   63.3467   31.5581   47.4244 H   0  0  0  0  0  0  0  0  0  0  0  0
   62.1611   32.0554   46.1255 H   0  0  0  0  0  0  0  0  0  0  0  0
   62.7110   33.5879   48.2822 H   0  0  0  0  0  0  0  0  0  0  0  0
   61.0913   33.5296   47.4381 H   0  0  0  0  0  0  0  0  0  0  0  0
  1  2  1  0
  2  3  2  0
  2  4  1  0
  4  5  1  0
  5  6  1  0
  6  7  1  0
  7  8  1  0
  8  9  1  0
  9 10  1  0
 10 11  1  0
 11 12  1  0
 12 13  2  0
 12 14  1  0
 14 15  2  0
 15 16  1  0
 16 17  1  0
 16 18  2  0
 18 19  1  0
 11 20  1  0
 20 21  1  0
  7 22  1  0
 22 23  1  0
 23  4  1  0
 21  8  1  0
 19 14  1  0
  1 24  1  0
  1 25  1  0
  1 26  1  0
  4 27  1  0
  5 28  1  0
  5 29  1  0
  6 30  1  0
  6 31  1  0
  8 32  1  0
  9 33  1  0
  9 34  1  0
 10 35  1  0
 10 36  1  0
 15 37  1  0
 17 38  1  0
 17 39  1  0
 17 40  1  0
 20 41  1  0
 20 42  1  0
 21 43  1  0
 21 44  1  0
 22 45  1  0
 22 46  1  0
 23 47  1  0
 23 48  1  0
M  CHG  2   4   1  19  -1
M  END
>  <UniqueID>  (37) 
35

>  <SMILES>  (37) 
CC(=O)[NH+]1CCN(C2CCN(C(=O)c3cc(C)n[n-]3)CC2)CC1

>  <Energy>  (37) 
92.65659594616424

>  <Genealogy>  (37) 
CC(=O)[NH+]1CCN(C2CCN(C(=O)c3cc(C)n[n-]3)CC2)CC1 (protonated)
CC(=O)[NH+]1CCN(C2CCN(C(=O)c3cc(C)n[n-]3)CC2)CC1 (3D coordinates assigned)
CC(=O)[NH+]1CCN(C2CCN(C(=O)c3cc(C)n[n-]3)CC2)CC1 (nonaromatic ring conformer: 92.65659594616424 kcal/mol)

>  <smiles>  (37) 
CC(=O)N1CCN(C2CCN(C(=O)c3cc(C)n[nH]3)CC2)CC1

>  <score_type>  (37) 
oracle

>  <origin>  (37) 
adg

>  <m_score__min__energy>  (37) 
-8.5600000000000005

>  <m_primary>  (37) 
energy

$$$$
37:0
     RDKit          3D

 58 61  0  0  0  0  0  0  0  0999 V2000
   64.5470   33.0770   49.6490 C   0  0  0  0  0  0  0  0  0  0  0  0
   64.3920   33.2210   48.2280 N   0  0  0  0  0  0  0  0  0  0  0  0
   62.7260   33.5340   47.8080 S   0  0  0  0  0  0  0  0  0  0  0  0
   62.6670   34.0140   46.3790 O   0  0  0  0  0  0  0  0  0  0  0  0
   62.1060   34.4820   48.7600 O   0  0  0  0  0  0  0  0  0  0  0  0
   61.9170   31.9830   47.8660 C   0  0  0  0  0  0  0  0  0  0  0  0
   61.3520   31.4200   46.7440 C   0  0  0  0  0  0  0  0  0  0  0  0
   60.7210   30.1930   46.8270 C   0  0  0  0  0  0  0  0  0  0  0  0
   60.6160   29.4720   47.9950 C   0  0  0  0  0  0  0  0  0  0  0  0
   59.9480   28.1760   48.0880 C   0  0  0  0  0  0  0  0  0  0  0  0
   59.0590   28.0140   46.9800 N   0  0  0  0  0  0  0  0  0  0  0  0
   59.7300   27.5830   45.8010 C   0  0  0  0  0  0  0  0  0  0  0  0
   58.8960   27.7070   44.5520 C   0  0  0  0  0  0  0  0  0  0  0  0
   57.5340   27.9970   45.0150 N   0  0  0  0  0  0  0  0  0  0  0  0
   56.7530   29.0440   44.4540 C   0  0  0  0  0  0  0  0  0  0  0  0
   55.5870   29.2480   44.8900 O   0  0  0  0  0  0  0  0  0  0  0  0
   57.3660   29.8530   43.3680 C   0  0  0  0  0  0  0  0  0  0  0  0
   56.8590   31.2680   43.5360 C   0  0  0  0  0  0  0  0  0  0  0  0
   57.4870   31.9060   44.7490 C   0  0  0  0  0  0  0  0  0  0  0  0
   57.5000   31.4650   46.0060 N   0  0  0  0  0  0  0  0  0  0  0  0
   58.1710   32.3430   46.7740 C   0  0  0  0  0  0  0  0  0  0  0  0
   58.5010   32.4360   48.0750 N   0  0  0  0  0  0  0  0  0  0  0  0
   59.2050   33.4740   48.5610 C   0  0  0  0  0  0  0  0  0  0  0  0
   59.4950   33.5280   49.7800 O   0  0  0  0  0  0  0  0  0  0  0  0
   59.5850   34.4420   47.7210 N   0  0  0  0  0  0  0  0  0  0  0  0
   59.3110   34.4520   46.4070 C   0  0  0  0  0  0  0  0  0  0  0  0
   59.6690   35.3600   45.6200 O   0  0  0  0  0  0  0  0  0  0  0  0
   58.5790   33.3640   45.9180 C   0  0  0  0  0  0  0  0  0  0  0  0
   58.1460   33.0800   44.6560 N   0  0  0  0  0  0  0  0  0  0  0  0
   57.0150   27.1460   46.0940 C   0  0  0  0  0  0  0  0  0  0  0  0
   57.9010   27.2310   47.3130 C   0  0  0  0  0  0  0  0  0  0  0  0
   61.1980   30.0640   49.1220 C   0  0  0  0  0  0  0  0  0  0  0  0
   61.8310   31.2890   49.0540 C   0  0  0  0  0  0  0  0  0  0  0  0
   63.8350   33.7384   50.1644 H   0  0  0  0  0  0  0  0  0  0  0  0
   64.3510   32.0332   49.9353 H   0  0  0  0  0  0  0  0  0  0  0  0
   65.5736   33.3492   49.9353 H   0  0  0  0  0  0  0  0  0  0  0  0
   64.7800   32.4200   47.6980 H   0  0  0  0  0  0  0  0  0  0  0  0
   61.4028   31.9474   45.7800 H   0  0  0  0  0  0  0  0  0  0  0  0
   60.2798   29.7707   45.9121 H   0  0  0  0  0  0  0  0  0  0  0  0
   60.7009   27.3742   48.0735 H   0  0  0  0  0  0  0  0  0  0  0  0
   59.3755   28.1266   49.0260 H   0  0  0  0  0  0  0  0  0  0  0  0
   60.6373   28.1920   45.6750 H   0  0  0  0  0  0  0  0  0  0  0  0
   59.9576   26.5148   45.9319 H   0  0  0  0  0  0  0  0  0  0  0  0
   59.2696   28.5265   43.9204 H   0  0  0  0  0  0  0  0  0  0  0  0
   58.9333   26.7906   43.9447 H   0  0  0  0  0  0  0  0  0  0  0  0
   58.4625   29.8313   43.4528 H   0  0  0  0  0  0  0  0  0  0  0  0
   57.0977   29.4530   42.3791 H   0  0  0  0  0  0  0  0  0  0  0  0
   57.1172   31.8549   42.6422 H   0  0  0  0  0  0  0  0  0  0  0  0
   55.7672   31.2446   43.6678 H   0  0  0  0  0  0  0  0  0  0  0  0
   58.1880   31.6590   48.7090 H   0  0  0  0  0  0  0  0  0  0  0  0
   60.1330   35.2500   48.1020 H   0  0  0  0  0  0  0  0  0  0  0  0
   58.3040   33.6740   43.7890 H   0  0  0  0  0  0  0  0  0  0  0  0
   56.0011   27.4789   46.3606 H   0  0  0  0  0  0  0  0  0  0  0  0
   56.9944   26.1035   45.7436 H   0  0  0  0  0  0  0  0  0  0  0  0
   57.3531   27.7106   48.1375 H   0  0  0  0  0  0  0  0  0  0  0  0
   58.2056   26.2224   47.6292 H   0  0  0  0  0  0  0  0  0  0  0  0
   61.1497   29.5392   50.0875 H   0  0  0  0  0  0  0  0  0  0  0  0
   62.2747   31.7190   49.9641 H   0  0  0  0  0  0  0  0  0  0  0  0
  1  2  1  0
  2  3  1  0
  3  4  2  0
  3  5  2  0
  3  6  1  0
  6  7  2  0
  7  8  1  0
  8  9  2  0
  9 10  1  0
 10 11  1  0
 11 12  1  0
 12 13  1  0
 13 14  1  0
 14 15  1  0
 15 16  2  0
 15 17  1  0
 17 18  1  0
 18 19  1  0
 19 20  2  0
 20 21  1  0
 21 22  1  0
 22 23  1  0
 23 24  2  0
 23 25  1  0
 25 26  1  0
 26 27  2  0
 26 28  1  0
 28 29  1  0
 14 30  1  0
 30 31  1  0
  9 32  1  0
 32 33  2  0
 33  6  1  0
 31 11  1  0
 29 19  1  0
 28 21  2  0
  1 34  1  0
  1 35  1  0
  1 36  1  0
  2 37  1  0
  7 38  1  0
  8 39  1  0
 10 40  1  0
 10 41  1  0
 12 42  1  0
 12 43  1  0
 13 44  1  0
 13 45  1  0
 17 46  1  0
 17 47  1  0
 18 48  1  0
 18 49  1  0
 22 50  1  0
 25 51  1  0
 29 52  1  0
 30 53  1  0
 30 54  1  0
 31 55  1  0
 31 56  1  0
 32 57  1  0
 33 58  1  0
M  END
>  <smiles>  (38) 
CNS(=O)(=O)c1ccc(CN2CCN(C(=O)CCc3nc4[nH]c(=O)[nH]c(=O)c4[nH]3)CC2)cc1

>  <score_type>  (38) 
oracle

>  <origin>  (38) 
adg

>  <m_score__min__energy>  (38) 
-9.3499999999999996

>  <m_primary>  (38) 
energy

$$$$
38:0
     RDKit          3D

 60 62  0  0  0  0  0  0  0  0999 V2000
   55.3620   28.9910   44.5960 O   0  0  0  0  0  0  0  0  0  0  0  0
   56.5990   29.2000   44.7140 C   0  0  0  0  0  0  0  0  0  0  0  0
   57.5760   28.3040   43.9840 C   0  0  0  0  0  0  0  0  0  0  0  0
   58.9790   28.6630   44.2430 N   0  0  0  0  0  0  0  0  0  0  0  0
   59.5080   27.9630   45.4200 C   0  0  0  0  0  0  0  0  0  0  0  0
   59.7270   28.9590   46.5620 C   0  0  0  0  0  0  0  0  0  0  0  0
   59.5710   28.2810   47.9270 C   0  0  0  0  0  0  0  0  0  0  0  0
   60.1440   29.3990   49.2590 S   0  0  0  0  0  0  0  0  0  0  0  0
   58.9000   30.7200   49.0040 C   0  0  0  0  0  0  0  0  0  0  0  0
   58.9350   31.7270   50.1210 C   0  0  0  0  0  0  0  0  0  0  0  0
   60.1090   32.4490   50.3970 C   0  0  0  0  0  0  0  0  0  0  0  0
   60.1510   33.3410   51.4730 C   0  0  0  0  0  0  0  0  0  0  0  0
   59.0220   33.5240   52.2760 C   0  0  0  0  0  0  0  0  0  0  0  0
   57.8490   32.8150   52.0040 C   0  0  0  0  0  0  0  0  0  0  0  0
   57.8030   31.9180   50.9320 C   0  0  0  0  0  0  0  0  0  0  0  0
   57.0390   30.2260   45.6140 N   0  0  0  0  0  0  0  0  0  0  0  0
   57.6440   31.4540   45.1990 C   0  0  0  0  0  0  0  0  0  0  0  0
   58.3530   32.2160   46.1360 C   0  0  0  0  0  0  0  0  0  0  0  0
   58.9730   33.4130   45.7530 C   0  0  0  0  0  0  0  0  0  0  0  0
   59.8600   34.3710   46.9400 S   0  0  0  0  0  0  0  0  0  0  0  0
   59.1200   34.3500   48.2490 O   0  0  0  0  0  0  0  0  0  0  0  0
   59.9300   35.7980   46.4700 O   0  0  0  0  0  0  0  0  0  0  0  0
   61.4810   33.7650   47.1830 N   0  0  0  0  0  0  0  0  0  0  0  0
   61.5050   32.3000   47.0760 C   0  0  0  0  0  0  0  0  0  0  0  0
   62.9480   31.7840   47.2630 C   0  0  0  0  0  0  0  0  0  0  0  0
   63.8360   32.8070   47.6810 O   0  0  0  0  0  0  0  0  0  0  0  0
   63.3160   33.4570   48.8250 C   0  0  0  0  0  0  0  0  0  0  0  0
   61.9990   34.1890   48.4950 C   0  0  0  0  0  0  0  0  0  0  0  0
   58.8790   33.8450   44.4230 C   0  0  0  0  0  0  0  0  0  0  0  0
   58.1610   33.0950   43.4900 C   0  0  0  0  0  0  0  0  0  0  0  0
   57.5300   31.9050   43.8710 C   0  0  0  0  0  0  0  0  0  0  0  0
   56.7920   31.1990   42.9210 O   0  0  0  0  0  0  0  0  0  0  0  0
   57.4125   27.2661   44.3098 H   0  0  0  0  0  0  0  0  0  0  0  0
   57.3959   28.4254   42.9057 H   0  0  0  0  0  0  0  0  0  0  0  0
   59.0510   29.6970   44.3940 H   0  0  0  0  0  0  0  0  0  0  0  0
   58.7905   27.1930   45.7398 H   0  0  0  0  0  0  0  0  0  0  0  0
   60.4674   27.4915   45.1609 H   0  0  0  0  0  0  0  0  0  0  0  0
   60.7412   29.3776   46.4833 H   0  0  0  0  0  0  0  0  0  0  0  0
   58.9713   29.7541   46.4800 H   0  0  0  0  0  0  0  0  0  0  0  0
   58.5117   28.0340   48.0908 H   0  0  0  0  0  0  0  0  0  0  0  0
   60.1779   27.3637   47.9431 H   0  0  0  0  0  0  0  0  0  0  0  0
   59.1107   31.2319   48.0534 H   0  0  0  0  0  0  0  0  0  0  0  0
   57.9020   30.2579   48.9844 H   0  0  0  0  0  0  0  0  0  0  0  0
   60.9981   32.3118   49.7641 H   0  0  0  0  0  0  0  0  0  0  0  0
   61.0740   33.8995   51.6877 H   0  0  0  0  0  0  0  0  0  0  0  0
   59.0567   34.2261   53.1221 H   0  0  0  0  0  0  0  0  0  0  0  0
   56.9598   32.9627   52.6345 H   0  0  0  0  0  0  0  0  0  0  0  0
   56.8782   31.3603   50.7229 H   0  0  0  0  0  0  0  0  0  0  0  0
   58.4236   31.8729   47.1787 H   0  0  0  0  0  0  0  0  0  0  0  0
   60.8589   31.8667   47.8537 H   0  0  0  0  0  0  0  0  0  0  0  0
   61.1398   32.0031   46.0818 H   0  0  0  0  0  0  0  0  0  0  0  0
   62.9433   30.9879   48.0221 H   0  0  0  0  0  0  0  0  0  0  0  0
   63.3000   31.4100   46.2903 H   0  0  0  0  0  0  0  0  0  0  0  0
   63.1249   32.7085   49.6081 H   0  0  0  0  0  0  0  0  0  0  0  0
   64.0514   34.1983   49.1711 H   0  0  0  0  0  0  0  0  0  0  0  0
   61.2532   33.9569   49.2696 H   0  0  0  0  0  0  0  0  0  0  0  0
   62.1944   35.2711   48.4646 H   0  0  0  0  0  0  0  0  0  0  0  0
   59.3726   34.7780   44.1134 H   0  0  0  0  0  0  0  0  0  0  0  0
   58.0906   33.4415   42.4484 H   0  0  0  0  0  0  0  0  0  0  0  0
   56.1100   30.4980   43.1790 H   0  0  0  0  0  0  0  0  0  0  0  0
  1  2  2  0
  2  3  1  0
  3  4  1  0
  4  5  1  0
  5  6  1  0
  6  7  1  0
  7  8  1  0
  8  9  1  0
  9 10  1  0
 10 11  2  0
 11 12  1  0
 12 13  2  0
 13 14  1  0
 14 15  2  0
  2 16  1  0
 16 17  1  0
 17 18  2  0
 18 19  1  0
 19 20  1  0
 20 21  2  0
 20 22  2  0
 20 23  1  0
 23 24  1  0
 24 25  1  0
 25 26  1  0
 26 27  1  0
 27 28  1  0
 19 29  2  0
 29 30  1  0
 30 31  2  0
 31 32  1  0
 15 10  1  0
 31 17  1  0
 28 23  1  0
  3 33  1  0
  3 34  1  0
  4 35  1  0
  5 36  1  0
  5 37  1  0
  6 38  1  0
  6 39  1  0
  7 40  1  0
  7 41  1  0
  9 42  1  0
  9 43  1  0
 11 44  1  0
 12 45  1  0
 13 46  1  0
 14 47  1  0
 15 48  1  0
 18 49  1  0
 24 50  1  0
 24 51  1  0
 25 52  1  0
 25 53  1  0
 27 54  1  0
 27 55  1  0
 28 56  1  0
 28 57  1  0
 29 58  1  0
 30 59  1  0
 32 60  1  0
M  CHG  1  16  -1
M  END
>  <UniqueID>  (39) 
36

>  <SMILES>  (39) 
O=C(CNCCCSCc1ccccc1)[N-]c1cc(S(=O)(=O)N2CCOCC2)ccc1O

>  <Energy>  (39) 
66.85631302009402

>  <Genealogy>  (39) 
O=C(CNCCCSCc1ccccc1)[N-]c1cc(S(=O)(=O)N2CCOCC2)ccc1O (protonated)
O=C(CNCCCSCc1ccccc1)[N-]c1cc(S(=O)(=O)N2CCOCC2)ccc1O (3D coordinates assigned)
O=C(CNCCCSCc1ccccc1)[N-]c1cc(S(=O)(=O)N2CCOCC2)ccc1O (nonaromatic ring conformer: 66.85631302009402 kcal/mol)

>  <smiles>  (39) 
O=C(CNCCCSCc1ccccc1)Nc1cc(S(=O)(=O)N2CCOCC2)ccc1O

>  <score_type>  (39) 
oracle

>  <origin>  (39) 
adg

>  <m_score__min__energy>  (39) 
-12.01

>  <m_primary>  (39) 
energy

$$$$
39:0
     RDKit          3D

 67 70  0  0  0  0  0  0  0  0999 V2000
   57.4380   28.7850   43.5140 N   0  0  0  0  0  0  0  0  0  0  0  0
   56.6650   30.3240   43.6680 S   0  0  0  0  0  0  0  0  0  0  0  0
   55.3880   30.1690   44.4460 O   0  0  0  0  0  0  0  0  0  0  0  0
   56.3340   30.8550   42.3020 O   0  0  0  0  0  0  0  0  0  0  0  0
   57.7370   31.4430   44.5040 C   0  0  0  0  0  0  0  0  0  0  0  0
   57.7530   32.7990   44.1580 C   0  0  0  0  0  0  0  0  0  0  0  0
   58.6190   33.6790   44.8100 C   0  0  0  0  0  0  0  0  0  0  0  0
   59.4720   33.2100   45.8120 C   0  0  0  0  0  0  0  0  0  0  0  0
   59.4650   31.8540   46.1760 C   0  0  0  0  0  0  0  0  0  0  0  0
   60.3730   31.3390   47.2280 C   0  0  0  0  0  0  0  0  0  0  0  0
   61.6110   31.2930   46.9860 O   0  0  0  0  0  0  0  0  0  0  0  0
   59.8780   30.8560   48.5010 N   0  0  0  0  0  0  0  0  0  0  0  0
   60.4580   29.6080   49.0410 C   0  0  0  0  0  0  0  0  0  0  0  0
   60.6970   28.5230   47.9670 C   0  0  0  0  0  0  0  0  0  0  0  0
   59.4460   27.7910   47.5420 C   0  0  0  0  0  0  0  0  0  0  0  0
   59.2570   26.4420   47.8870 C   0  0  0  0  0  0  0  0  0  0  0  0
   58.0970   25.7670   47.5000 C   0  0  0  0  0  0  0  0  0  0  0  0
   57.1100   26.4210   46.7420 C   0  0  0  0  0  0  0  0  0  0  0  0
   55.8760   25.7140   46.3340 C   0  0  0  0  0  0  0  0  0  0  0  0
   54.8570   26.3610   45.9770 O   0  0  0  0  0  0  0  0  0  0  0  0
   55.8260   24.3250   46.3400 O   0  0  0  0  0  0  0  0  0  0  0  0
   57.3160   27.7590   46.3680 C   0  0  0  0  0  0  0  0  0  0  0  0
   58.4750   28.4350   46.7580 C   0  0  0  0  0  0  0  0  0  0  0  0
   59.3610   31.8400   49.4700 C   0  0  0  0  0  0  0  0  0  0  0  0
   59.9240   33.2200   49.2640 C   0  0  0  0  0  0  0  0  0  0  0  0
   59.2460   34.0770   48.6360 O   0  0  0  0  0  0  0  0  0  0  0  0
   61.2560   33.5470   49.6870 N   0  0  0  0  0  0  0  0  0  0  0  0
   62.1940   34.1420   48.7330 C   0  0  0  0  0  0  0  0  0  0  0  0
   63.5650   33.4840   48.8920 C   0  0  0  0  0  0  0  0  0  0  0  0
   63.9750   33.4140   50.3040 N   0  0  0  0  0  0  0  0  0  0  0  0
   65.3040   32.9440   50.6120 C   0  0  0  0  0  0  0  0  0  0  0  0
   66.3540   33.8410   50.8860 C   0  0  0  0  0  0  0  0  0  0  0  0
   67.6270   33.3420   51.1730 C   0  0  0  0  0  0  0  0  0  0  0  0
   67.8500   31.9650   51.1790 C   0  0  0  0  0  0  0  0  0  0  0  0
   66.7930   31.1020   50.8890 C   0  0  0  0  0  0  0  0  0  0  0  0
   65.5600   31.6060   50.6120 N   0  0  0  0  0  0  0  0  0  0  0  0
   63.0630   33.8790   51.3630 C   0  0  0  0  0  0  0  0  0  0  0  0
   61.6320   33.3950   51.0960 C   0  0  0  0  0  0  0  0  0  0  0  0
   58.6010   30.9720   45.5030 C   0  0  0  0  0  0  0  0  0  0  0  0
   56.7010   28.1020   43.2260 H   0  0  0  0  0  0  0  0  0  0  0  0
   58.1080   28.8580   42.7160 H   0  0  0  0  0  0  0  0  0  0  0  0
   57.0818   33.1723   43.3706 H   0  0  0  0  0  0  0  0  0  0  0  0
   58.6296   34.7438   44.5341 H   0  0  0  0  0  0  0  0  0  0  0  0
   60.1540   33.9081   46.3194 H   0  0  0  0  0  0  0  0  0  0  0  0
   61.4219   29.8482   49.5135 H   0  0  0  0  0  0  0  0  0  0  0  0
   59.7318   29.1981   49.7583 H   0  0  0  0  0  0  0  0  0  0  0  0
   61.1336   29.0051   47.0799 H   0  0  0  0  0  0  0  0  0  0  0  0
   61.3662   27.7741   48.4156 H   0  0  0  0  0  0  0  0  0  0  0  0
   60.0285   25.9135   48.4663 H   0  0  0  0  0  0  0  0  0  0  0  0
   57.9546   24.7157   47.7905 H   0  0  0  0  0  0  0  0  0  0  0  0
   56.5587   28.2791   45.7630 H   0  0  0  0  0  0  0  0  0  0  0  0
   58.6280   29.4794   46.4486 H   0  0  0  0  0  0  0  0  0  0  0  0
   58.2667   31.8893   49.3695 H   0  0  0  0  0  0  0  0  0  0  0  0
   59.6667   31.5063   50.4726 H   0  0  0  0  0  0  0  0  0  0  0  0
   61.8266   33.9820   47.7086 H   0  0  0  0  0  0  0  0  0  0  0  0
   62.2797   35.2215   48.9262 H   0  0  0  0  0  0  0  0  0  0  0  0
   63.5204   32.4639   48.4828 H   0  0  0  0  0  0  0  0  0  0  0  0
   64.3030   34.0941   48.3506 H   0  0  0  0  0  0  0  0  0  0  0  0
   66.1735   34.9260   50.8742 H   0  0  0  0  0  0  0  0  0  0  0  0
   68.4527   34.0343   51.3940 H   0  0  0  0  0  0  0  0  0  0  0  0
   68.8480   31.5642   51.4098 H   0  0  0  0  0  0  0  0  0  0  0  0
   66.9564   30.0142   50.8843 H   0  0  0  0  0  0  0  0  0  0  0  0
   63.4031   33.4841   52.3317 H   0  0  0  0  0  0  0  0  0  0  0  0
   63.0680   34.9789   51.3767 H   0  0  0  0  0  0  0  0  0  0  0  0
   61.5592   32.3323   51.3706 H   0  0  0  0  0  0  0  0  0  0  0  0
   60.9470   34.0089   51.6992 H   0  0  0  0  0  0  0  0  0  0  0  0
   58.6029   29.9031   45.7625 H   0  0  0  0  0  0  0  0  0  0  0  0
  1  2  1  0
  2  3  2  0
  2  4  2  0
  2  5  1  0
  5  6  2  0
  6  7  1  0
  7  8  2  0
  8  9  1  0
  9 10  1  0
 10 11  2  0
 10 12  1  0
 12 13  1  0
 13 14  1  0
 14 15  1  0
 15 16  2  0
 16 17  1  0
 17 18  2  0
 18 19  1  0
 19 20  2  0
 19 21  1  0
 18 22  1  0
 22 23  2  0
 12 24  1  0
 24 25  1  0
 25 26  2  0
 25 27  1  0
 27 28  1  0
 28 29  1  0
 29 30  1  0
 30 31  1  0
 31 32  2  0
 32 33  1  0
 33 34  2  0
 34 35  1  0
 35 36  2  0
 30 37  1  0
 37 38  1  0
  9 39  2  0
 39  5  1  0
 23 15  1  0
 38 27  1  0
 36 31  1  0
  1 40  1  0
  1 41  1  0
  6 42  1  0
  7 43  1  0
  8 44  1  0
 13 45  1  0
 13 46  1  0
 14 47  1  0
 14 48  1  0
 16 49  1  0
 17 50  1  0
 22 51  1  0
 23 52  1  0
 24 53  1  0
 24 54  1  0
 28 55  1  0
 28 56  1  0
 29 57  1  0
 29 58  1  0
 32 59  1  0
 33 60  1  0
 34 61  1  0
 35 62  1  0
 37 63  1  0
 37 64  1  0
 38 65  1  0
 38 66  1  0
 39 67  1  0
M  CHG  1  21  -1
M  END
>  <UniqueID>  (40) 
37

>  <SMILES>  (40) 
NS(=O)(=O)c1cccc(C(=O)N(CCc2ccc(C(=O)[O-])cc2)CC(=O)N2CCN(c3ccccn3)CC2)c1

>  <Energy>  (40) 
77.60935676757528

>  <Genealogy>  (40) 
NS(=O)(=O)c1cccc(C(=O)N(CCc2ccc(C(=O)[O-])cc2)CC(=O)N2CCN(c3ccccn3)CC2)c1 (protonated)
NS(=O)(=O)c1cccc(C(=O)N(CCc2ccc(C(=O)[O-])cc2)CC(=O)N2CCN(c3ccccn3)CC2)c1 (3D coordinates assigned)
NS(=O)(=O)c1cccc(C(=O)N(CCc2ccc(C(=O)[O-])cc2)CC(=O)N2CCN(c3ccccn3)CC2)c1 (nonaromatic ring conformer: 77.60935676757528 kcal/mol)

>  <smiles>  (40) 
NS(=O)(=O)c1cccc(C(=O)N(CCc2ccc(C(=O)O)cc2)CC(=O)N2CCN(c3ccccn3)CC2)c1

>  <score_type>  (40) 
oracle

>  <origin>  (40) 
adg

>  <m_score__min__energy>  (40) 
-13.220000000000001

>  <m_primary>  (40) 
energy

$$$$
40:0
     RDKit          3D

 68 71  0  0  1  0  0  0  0  0999 V2000
   60.2360   32.5480   50.5790 C   0  0  0  0  0  0  0  0  0  0  0  0
   60.2150   31.1830   50.0670 N   0  0  0  0  0  0  0  0  0  0  0  0
   59.6280   30.1580   50.9380 C   0  0  0  0  0  0  0  0  0  0  0  0
   60.7280   30.8250   48.7970 C   0  0  0  0  0  0  0  0  0  0  0  0
   60.7150   29.6520   48.3390 O   0  0  0  0  0  0  0  0  0  0  0  0
   61.3020   31.9000   47.9880 C   0  0  0  0  0  0  0  0  0  0  0  0
   62.6730   32.0180   47.9800 C   0  0  0  0  0  0  0  0  0  0  0  0
   63.2000   33.0310   47.2110 C   0  0  0  0  0  0  0  0  0  0  0  0
   62.3450   33.8790   46.4870 C   0  0  0  0  0  0  0  0  0  0  0  0
   61.0010   33.7800   46.4870 C   0  0  0  0  0  0  0  0  0  0  0  0
   60.0030   34.6460   45.9370 C   0  0  0  0  0  0  0  0  0  0  0  0
   58.7160   34.5870   46.0310 C   0  0  0  0  0  0  0  0  0  0  0  0
   57.7510   33.9540   45.1940 C   0  0  0  0  0  0  0  0  0  0  0  0
   56.6650   34.6200   45.0100 O   0  0  0  0  0  0  0  0  0  0  0  0
   57.7710   32.7250   44.5140 N   0  0  0  0  0  0  0  0  0  0  0  0
   58.0820   31.6020   45.0850 C   0  0  0  0  0  0  0  0  0  0  0  0
   58.3850   30.4130   44.4620 C   0  0  0  0  0  0  0  0  0  0  0  0
   58.6570   29.4680   45.4180 C   0  0  0  0  0  0  0  0  0  0  0  0
   59.0210   28.0570   45.2710 C   0  0  1  0  0  0  0  0  0  0  0  0
   60.1360   27.6540   46.2220 C   0  0  0  0  0  0  0  0  0  0  0  0
   59.4910   27.3340   47.4740 N   0  0  0  0  0  0  0  0  0  0  0  0
   58.1410   26.9690   47.1840 C   0  0  0  0  0  0  0  0  0  0  0  0
   57.9140   27.1350   45.6920 C   0  0  1  0  0  0  0  0  0  0  0  0
   56.7010   27.7100   45.4080 O   0  0  0  0  0  0  0  0  0  0  0  0
   58.1290   25.8100   45.0170 C   0  0  0  0  0  0  0  0  0  0  0  0
   56.8730   25.3160   44.5250 N   0  0  0  0  0  0  0  0  0  0  0  0
   57.0460   24.4610   43.3610 C   0  0  0  0  0  0  0  0  0  0  0  0
   57.2000   23.0200   43.7410 C   0  0  0  0  0  0  0  0  0  0  0  0
   55.9810   22.4940   44.4680 C   0  0  0  0  0  0  0  0  0  0  0  0
   55.1300   23.6970   44.8010 C   0  0  0  0  0  0  0  0  0  0  0  0
   56.0480   24.6840   45.5310 C   0  0  0  0  0  0  0  0  0  0  0  0
   58.5150   30.1040   46.5990 N   0  0  0  0  0  0  0  0  0  0  0  0
   58.1740   31.3660   46.4110 N   0  0  0  0  0  0  0  0  0  0  0  0
   60.4780   32.7300   47.2820 C   0  0  0  0  0  0  0  0  0  0  0  0
   60.2357   32.5271   51.6788 H   0  0  0  0  0  0  0  0  0  0  0  0
   61.1421   33.0595   50.2222 H   0  0  0  0  0  0  0  0  0  0  0  0
   59.3460   33.0872   50.2222 H   0  0  0  0  0  0  0  0  0  0  0  0
   59.7872   30.4360   51.9903 H   0  0  0  0  0  0  0  0  0  0  0  0
   58.5490   30.0812   50.7383 H   0  0  0  0  0  0  0  0  0  0  0  0
   60.1078   29.1885   50.7383 H   0  0  0  0  0  0  0  0  0  0  0  0
   63.3151   31.3376   48.5586 H   0  0  0  0  0  0  0  0  0  0  0  0
   64.2893   33.1764   47.1634 H   0  0  0  0  0  0  0  0  0  0  0  0
   62.8022   34.6751   45.8811 H   0  0  0  0  0  0  0  0  0  0  0  0
   60.3901   35.4886   45.3452 H   0  0  0  0  0  0  0  0  0  0  0  0
   58.2949   35.1122   46.9010 H   0  0  0  0  0  0  0  0  0  0  0  0
   58.4057   30.2475   43.3747 H   0  0  0  0  0  0  0  0  0  0  0  0
   59.2877   27.9683   44.2075 H   0  0  0  0  0  0  0  0  0  0  0  0
   60.6726   26.7763   45.8326 H   0  0  0  0  0  0  0  0  0  0  0  0
   60.8753   28.4595   46.3425 H   0  0  0  0  0  0  0  0  0  0  0  0
   59.6140   28.0310   48.2140 H   0  0  0  0  0  0  0  0  0  0  0  0
   57.9684   25.9216   47.4725 H   0  0  0  0  0  0  0  0  0  0  0  0
   57.4454   27.6084   47.7473 H   0  0  0  0  0  0  0  0  0  0  0  0
   56.2740   27.4070   44.5920 H   0  0  0  0  0  0  0  0  0  0  0  0
   58.8285   25.9351   44.1773 H   0  0  0  0  0  0  0  0  0  0  0  0
   58.5484   25.0936   45.7387 H   0  0  0  0  0  0  0  0  0  0  0  0
   56.1652   24.5645   42.7103 H   0  0  0  0  0  0  0  0  0  0  0  0
   57.9634   24.7754   42.8418 H   0  0  0  0  0  0  0  0  0  0  0  0
   57.3532   22.4260   42.8280 H   0  0  0  0  0  0  0  0  0  0  0  0
   58.0628   22.9366   44.4182 H   0  0  0  0  0  0  0  0  0  0  0  0
   55.4228   21.8004   43.8220 H   0  0  0  0  0  0  0  0  0  0  0  0
   56.2657   21.9434   45.3767 H   0  0  0  0  0  0  0  0  0  0  0  0
   54.7368   24.1522   43.8800 H   0  0  0  0  0  0  0  0  0  0  0  0
   54.2678   23.4169   45.4240 H   0  0  0  0  0  0  0  0  0  0  0  0
   55.4473   25.4406   46.0571 H   0  0  0  0  0  0  0  0  0  0  0  0
   56.6671   24.1659   46.2782 H   0  0  0  0  0  0  0  0  0  0  0  0
   58.6540   29.6630   47.5510 H   0  0  0  0  0  0  0  0  0  0  0  0
   58.0070   32.0590   47.1740 H   0  0  0  0  0  0  0  0  0  0  0  0
   59.3893   32.5806   47.3315 H   0  0  0  0  0  0  0  0  0  0  0  0
  1  2  1  0
  2  3  1  0
  2  4  1  0
  4  5  2  0
  4  6  1  0
  6  7  2  0
  7  8  1  0
  8  9  2  0
  9 10  1  0
 10 11  1  0
 11 12  2  0
 12 13  1  0
 13 14  2  0
 13 15  1  0
 15 16  2  0
 16 17  1  0
 17 18  2  0
 18 19  1  0
 19 20  1  0
 20 21  1  0
 21 22  1  0
 22 23  1  0
 23 24  1  1
 23 25  1  0
 25 26  1  0
 26 27  1  0
 27 28  1  0
 28 29  1  0
 29 30  1  0
 30 31  1  0
 18 32  1  0
 32 33  1  0
 10 34  2  0
 34  6  1  0
 33 16  1  0
 23 19  1  0
 31 26  1  0
  1 35  1  0
  1 36  1  0
  1 37  1  0
  3 38  1  0
  3 39  1  0
  3 40  1  0
  7 41  1  0
  8 42  1  0
  9 43  1  0
 11 44  1  0
 12 45  1  0
 17 46  1  0
 19 47  1  6
 20 48  1  0
 20 49  1  0
 21 50  1  0
 22 51  1  0
 22 52  1  0
 24 53  1  0
 25 54  1  0
 25 55  1  0
 27 56  1  0
 27 57  1  0
 28 58  1  0
 28 59  1  0
 29 60  1  0
 29 61  1  0
 30 62  1  0
 30 63  1  0
 31 64  1  0
 31 65  1  0
 32 66  1  0
 33 67  1  0
 34 68  1  0
M  END
>  <smiles>  (41) 
CN(C)C(=O)c1cccc(C=CC(=O)N=c2cc(C3CNCC3(O)CN3CCCCC3)[nH][nH]2)c1

>  <score_type>  (41) 
oracle

>  <origin>  (41) 
adg

>  <m_score__min__energy>  (41) 
-11.300000000000001

>  <m_primary>  (41) 
energy

$$$$
41:0
     RDKit          3D

 48 50  0  0  0  0  0  0  0  0999 V2000
   60.1240   30.0720   49.7310 O   0  0  0  0  0  0  0  0  0  0  0  0
   60.9640   30.5960   48.9500 C   0  0  0  0  0  0  0  0  0  0  0  0
   62.1250   31.3460   49.5190 C   0  0  0  0  0  0  0  0  0  0  0  0
   63.0360   31.7030   48.4360 N   0  0  0  0  0  0  0  0  0  0  0  0
   62.5680   33.2250   47.7390 S   0  0  0  0  0  0  0  0  0  0  0  0
   63.7340   34.1690   47.8050 O   0  0  0  0  0  0  0  0  0  0  0  0
   62.1720   33.0390   46.3000 O   0  0  0  0  0  0  0  0  0  0  0  0
   61.1990   33.9260   48.6470 C   0  0  0  0  0  0  0  0  0  0  0  0
   59.9560   33.9240   47.8030 C   0  0  0  0  0  0  0  0  0  0  0  0
   59.8920   34.6950   46.6300 C   0  0  0  0  0  0  0  0  0  0  0  0
   58.7480   34.6600   45.8260 C   0  0  0  0  0  0  0  0  0  0  0  0
   57.6660   33.8510   46.1820 C   0  0  0  0  0  0  0  0  0  0  0  0
   57.7250   33.0750   47.3420 C   0  0  0  0  0  0  0  0  0  0  0  0
   58.8670   33.1070   48.1490 C   0  0  0  0  0  0  0  0  0  0  0  0
   60.8170   30.4730   47.5260 N   0  0  0  0  0  0  0  0  0  0  0  0
   59.8760   29.5940   46.8880 C   0  0  0  0  0  0  0  0  0  0  0  0
   60.0290   28.1980   46.9370 C   0  0  0  0  0  0  0  0  0  0  0  0
   59.1190   27.3660   46.2820 C   0  0  0  0  0  0  0  0  0  0  0  0
   58.0510   27.9160   45.5690 C   0  0  0  0  0  0  0  0  0  0  0  0
   57.8830   29.3080   45.5080 C   0  0  0  0  0  0  0  0  0  0  0  0
   56.7690   29.9030   44.7400 C   0  0  0  0  0  0  0  0  0  0  0  0
   55.5890   29.5570   45.0120 O   0  0  0  0  0  0  0  0  0  0  0  0
   57.0030   30.8470   43.6790 N   0  0  0  0  0  0  0  0  0  0  0  0
   57.8980   31.9700   43.7540 C   0  0  0  0  0  0  0  0  0  0  0  0
   58.1270   32.3250   42.2990 C   0  0  0  0  0  0  0  0  0  0  0  0
   57.1780   31.6410   41.5070 O   0  0  0  0  0  0  0  0  0  0  0  0
   56.6420   30.6040   42.2970 C   0  0  0  0  0  0  0  0  0  0  0  0
   58.8150   30.1410   46.1490 C   0  0  0  0  0  0  0  0  0  0  0  0
   61.7664   32.2596   50.0157 H   0  0  0  0  0  0  0  0  0  0  0  0
   62.6493   30.7179   50.2542 H   0  0  0  0  0  0  0  0  0  0  0  0
   61.0223   33.3296   49.5542 H   0  0  0  0  0  0  0  0  0  0  0  0
   61.4445   34.9632   48.9189 H   0  0  0  0  0  0  0  0  0  0  0  0
   60.7445   35.3282   46.3431 H   0  0  0  0  0  0  0  0  0  0  0  0
   58.7001   35.2703   44.9121 H   0  0  0  0  0  0  0  0  0  0  0  0
   56.7671   33.8251   45.5485 H   0  0  0  0  0  0  0  0  0  0  0  0
   56.8726   32.4382   47.6211 H   0  0  0  0  0  0  0  0  0  0  0  0
   58.9125   32.4898   49.0584 H   0  0  0  0  0  0  0  0  0  0  0  0
   61.3690   31.1240   46.9220 H   0  0  0  0  0  0  0  0  0  0  0  0
   60.8697   27.7587   47.4940 H   0  0  0  0  0  0  0  0  0  0  0  0
   59.2434   26.2740   46.3275 H   0  0  0  0  0  0  0  0  0  0  0  0
   57.3387   27.2553   45.0532 H   0  0  0  0  0  0  0  0  0  0  0  0
   57.4358   32.8077   44.2968 H   0  0  0  0  0  0  0  0  0  0  0  0
   58.8286   31.7457   44.2959 H   0  0  0  0  0  0  0  0  0  0  0  0
   58.0103   33.4100   42.1607 H   0  0  0  0  0  0  0  0  0  0  0  0
   59.1439   32.0318   41.9991 H   0  0  0  0  0  0  0  0  0  0  0  0
   55.5467   30.5889   42.1965 H   0  0  0  0  0  0  0  0  0  0  0  0
   57.0415   29.6335   41.9676 H   0  0  0  0  0  0  0  0  0  0  0  0
   58.7124   31.2334   46.0711 H   0  0  0  0  0  0  0  0  0  0  0  0
  1  2  2  0
  2  3  1  0
  3  4  1  0
  4  5  1  0
  5  6  2  0
  5  7  2  0
  5  8  1  0
  8  9  1  0
  9 10  2  0
 10 11  1  0
 11 12  2  0
 12 13  1  0
 13 14  2  0
  2 15  1  0
 15 16  1  0
 16 17  2  0
 17 18  1  0
 18 19  2  0
 19 20  1  0
 20 21  1  0
 21 22  2  0
 21 23  1  0
 23 24  1  0
 24 25  1  0
 25 26  1  0
 26 27  1  0
 20 28  2  0
 14  9  1  0
 28 16  1  0
 27 23  1  0
  3 29  1  0
  3 30  1  0
  8 31  1  0
  8 32  1  0
 10 33  1  0
 11 34  1  0
 12 35  1  0
 13 36  1  0
 14 37  1  0
 15 38  1  0
 17 39  1  0
 18 40  1  0
 19 41  1  0
 24 42  1  0
 24 43  1  0
 25 44  1  0
 25 45  1  0
 27 46  1  0
 27 47  1  0
 28 48  1  0
M  CHG  1   4  -1
M  END
>  <UniqueID>  (42) 
38

>  <SMILES>  (42) 
O=C(C[N-]S(=O)(=O)Cc1ccccc1)Nc1cccc(C(=O)N2CCOC2)c1

>  <Energy>  (42) 
48.55295448642638

>  <Genealogy>  (42) 
O=C(C[N-]S(=O)(=O)Cc1ccccc1)Nc1cccc(C(=O)N2CCOC2)c1 (protonated)
O=C(C[N-]S(=O)(=O)Cc1ccccc1)Nc1cccc(C(=O)N2CCOC2)c1 (3D coordinates assigned)
O=C(C[N-]S(=O)(=O)Cc1ccccc1)Nc1cccc(C(=O)N2CCOC2)c1 (nonaromatic ring conformer: 48.55295448642638 kcal/mol)

>  <smiles>  (42) 
O=C(CNS(=O)(=O)Cc1ccccc1)Nc1cccc(C(=O)N2CCOC2)c1

>  <score_type>  (42) 
oracle

>  <origin>  (42) 
adg

>  <m_score__min__energy>  (42) 
-10.630000000000001

>  <m_primary>  (42) 
energy

$$$$
42:0
     RDKit          3D

 42 44  0  0  0  0  0  0  0  0999 V2000
   55.1560   26.3140   45.9150 N   0  0  0  0  0  0  0  0  0  0  0  0
   56.8660   26.5530   45.8350 S   0  0  0  0  0  0  0  0  0  0  0  0
   57.4120   25.8620   44.6160 O   0  0  0  0  0  0  0  0  0  0  0  0
   57.5150   25.9590   47.0560 O   0  0  0  0  0  0  0  0  0  0  0  0
   57.2140   28.2780   45.7610 C   0  0  0  0  0  0  0  0  0  0  0  0
   56.7510   29.0370   44.6820 C   0  0  0  0  0  0  0  0  0  0  0  0
   57.0210   30.4050   44.6190 C   0  0  0  0  0  0  0  0  0  0  0  0
   57.7800   31.0270   45.6190 C   0  0  0  0  0  0  0  0  0  0  0  0
   58.0410   32.4370   45.5260 N   0  0  0  0  0  0  0  0  0  0  0  0
   58.4250   33.0270   44.2420 C   0  0  0  0  0  0  0  0  0  0  0  0
   59.3850   34.1950   44.4870 C   0  0  0  0  0  0  0  0  0  0  0  0
   58.8400   35.1080   45.4230 O   0  0  0  0  0  0  0  0  0  0  0  0
   58.7090   34.4820   46.6860 C   0  0  0  0  0  0  0  0  0  0  0  0
   57.6930   33.3380   46.6250 C   0  0  0  0  0  0  0  0  0  0  0  0
   58.2790   30.2620   46.6920 C   0  0  0  0  0  0  0  0  0  0  0  0
   58.9890   30.9120   47.7560 N   0  0  0  0  0  0  0  0  0  0  0  0
   59.8150   30.2730   48.7370 C   0  0  0  0  0  0  0  0  0  0  0  0
   59.2720   29.8020   49.7720 O   0  0  0  0  0  0  0  0  0  0  0  0
   61.3150   30.2730   48.6360 C   0  0  0  0  0  0  0  0  0  0  0  0
   61.7960   31.6100   48.1610 C   0  0  0  0  0  0  0  0  0  0  0  0
   63.1210   31.8400   47.1430 S   0  0  0  0  0  0  0  0  0  0  0  0
   62.8860   33.5020   47.0730 C   0  0  0  0  0  0  0  0  0  0  0  0
   63.6150   34.2930   46.4210 O   0  0  0  0  0  0  0  0  0  0  0  0
   61.8220   33.9080   47.7950 N   0  0  0  0  0  0  0  0  0  0  0  0
   61.2070   32.8570   48.4000 C   0  0  0  0  0  0  0  0  0  0  0  0
   60.0740   33.0450   49.1900 O   0  0  0  0  0  0  0  0  0  0  0  0
   57.9690   28.8940   46.7670 C   0  0  0  0  0  0  0  0  0  0  0  0
   54.7670   27.0880   46.5010 H   0  0  0  0  0  0  0  0  0  0  0  0
   56.1723   28.5547   43.8804 H   0  0  0  0  0  0  0  0  0  0  0  0
   56.6349   30.9993   43.7777 H   0  0  0  0  0  0  0  0  0  0  0  0
   58.9227   32.2664   43.6225 H   0  0  0  0  0  0  0  0  0  0  0  0
   57.5272   33.3916   43.7215 H   0  0  0  0  0  0  0  0  0  0  0  0
   60.3363   33.8039   44.8770 H   0  0  0  0  0  0  0  0  0  0  0  0
   59.5482   34.7220   43.5353 H   0  0  0  0  0  0  0  0  0  0  0  0
   59.6862   34.0801   46.9921 H   0  0  0  0  0  0  0  0  0  0  0  0
   58.3559   35.2278   47.4134 H   0  0  0  0  0  0  0  0  0  0  0  0
   57.7087   32.7823   47.5742 H   0  0  0  0  0  0  0  0  0  0  0  0
   56.6864   33.7491   46.4584 H   0  0  0  0  0  0  0  0  0  0  0  0
   61.7468   30.0608   49.6252 H   0  0  0  0  0  0  0  0  0  0  0  0
   61.6288   29.5004   47.9187 H   0  0  0  0  0  0  0  0  0  0  0  0
   59.4090   32.3020   49.3620 H   0  0  0  0  0  0  0  0  0  0  0  0
   58.3224   28.3012   47.6236 H   0  0  0  0  0  0  0  0  0  0  0  0
  1  2  1  0
  2  3  2  0
  2  4  2  0
  2  5  1  0
  5  6  2  0
  6  7  1  0
  7  8  2  0
  8  9  1  0
  9 10  1  0
 10 11  1  0
 11 12  1  0
 12 13  1  0
 13 14  1  0
  8 15  1  0
 15 16  1  0
 16 17  1  0
 17 18  2  0
 17 19  1  0
 19 20  1  0
 20 21  1  0
 21 22  1  0
 22 23  2  0
 22 24  1  0
 24 25  1  0
 25 26  1  0
 15 27  2  0
 27  5  1  0
 14  9  1  0
 25 20  2  0
  1 28  1  0
  6 29  1  0
  7 30  1  0
 10 31  1  0
 10 32  1  0
 11 33  1  0
 11 34  1  0
 13 35  1  0
 13 36  1  0
 14 37  1  0
 14 38  1  0
 19 39  1  0
 19 40  1  0
 26 41  1  0
 27 42  1  0
M  CHG  3   1  -1  16  -1  24  -1
M  END
>  <UniqueID>  (43) 
39

>  <SMILES>  (43) 
[NH-]S(=O)(=O)c1ccc(N2CCOCC2)c([N-]C(=O)Cc2sc(=O)[n-]c2O)c1

>  <Energy>  (43) 
82.58545265087363

>  <Genealogy>  (43) 
[NH-]S(=O)(=O)c1ccc(N2CCOCC2)c([N-]C(=O)Cc2sc(=O)[n-]c2O)c1 (protonated)
[NH-]S(=O)(=O)c1ccc(N2CCOCC2)c([N-]C(=O)Cc2sc(=O)[n-]c2O)c1 (3D coordinates assigned)
[NH-]S(=O)(=O)c1ccc(N2CCOCC2)c([N-]C(=O)Cc2sc(=O)[n-]c2O)c1 (nonaromatic ring conformer: 82.58545265087363 kcal/mol)

>  <smiles>  (43) 
NS(=O)(=O)c1ccc(N2CCOCC2)c(NC(=O)Cc2sc(=O)[nH]c2O)c1

>  <score_type>  (43) 
oracle

>  <origin>  (43) 
adg

>  <m_score__min__energy>  (43) 
-12.93

>  <m_primary>  (43) 
energy

$$$$
43:0
     RDKit          3D

 51 54  0  0  0  0  0  0  0  0999 V2000
   59.7511   31.3329   47.7108 H   0  0  0  0  0  0  0  0  0  0  0  0
   59.3970   30.3780   47.2950 C   0  0  0  0  0  0  0  0  0  0  0  0
   59.4728   29.4567   47.8912 H   0  0  0  0  0  0  0  0  0  0  0  0
   58.8720   30.3370   46.0590 C   0  0  0  0  0  0  0  0  0  0  0  0
   58.3840   29.2030   45.4040 C   0  0  0  0  0  0  0  0  0  0  0  0
   58.4120   27.9280   45.8500 C   0  0  0  0  0  0  0  0  0  0  0  0
   59.3946   27.4920   46.0833 H   0  0  0  0  0  0  0  0  0  0  0  0
   57.2210   27.0750   46.0480 C   0  0  0  0  0  0  0  0  0  0  0  0
   57.2360   25.7960   46.4790 N   0  0  0  0  0  0  0  0  0  0  0  0
   55.9430   25.4180   46.3840 C   0  0  0  0  0  0  0  0  0  0  0  0
   55.5520   24.2620   46.7010 O   0  0  0  0  0  0  0  0  0  0  0  0
   55.1100   26.3660   45.8970 N   0  0  0  0  0  0  0  0  0  0  0  0
   55.9350   27.4030   45.6790 C   0  0  0  0  0  0  0  0  0  0  0  0
   55.5220   28.6230   45.1470 O   0  0  0  0  0  0  0  0  0  0  0  0
   57.8740   29.6490   44.1900 C   0  0  0  0  0  0  0  0  0  0  0  0
   57.4153   29.0305   43.4044 H   0  0  0  0  0  0  0  0  0  0  0  0
   58.0540   31.0180   44.1600 C   0  0  0  0  0  0  0  0  0  0  0  0
   57.6490   31.8940   43.0160 C   0  0  0  0  0  0  0  0  0  0  0  0
   57.2171   32.8281   43.4045 H   0  0  0  0  0  0  0  0  0  0  0  0
   58.5313   32.1258   42.4014 H   0  0  0  0  0  0  0  0  0  0  0  0
   56.9009   31.3719   42.4014 H   0  0  0  0  0  0  0  0  0  0  0  0
   58.6820   31.4340   45.2810 N   0  0  0  0  0  0  0  0  0  0  0  0
   59.0120   32.7920   45.6170 C   0  0  0  0  0  0  0  0  0  0  0  0
   58.5790   33.7290   44.9010 O   0  0  0  0  0  0  0  0  0  0  0  0
   59.7660   33.0890   46.8010 N   0  0  0  0  0  0  0  0  0  0  0  0
   59.0420   33.1570   48.0660 C   0  0  0  0  0  0  0  0  0  0  0  0
   58.0492   33.5980   47.8932 H   0  0  0  0  0  0  0  0  0  0  0  0
   58.9357   32.1410   48.4739 H   0  0  0  0  0  0  0  0  0  0  0  0
   59.8100   34.0190   49.0680 C   0  0  0  0  0  0  0  0  0  0  0  0
   59.7687   35.0699   48.7457 H   0  0  0  0  0  0  0  0  0  0  0  0
   59.3474   33.9040   50.0593 H   0  0  0  0  0  0  0  0  0  0  0  0
   61.2170   33.5950   49.1520 N   0  0  0  0  0  0  0  0  0  0  0  0
   61.8980   33.6010   50.4310 C   0  0  0  0  0  0  0  0  0  0  0  0
   61.2340   33.6580   51.5050 O   0  0  0  0  0  0  0  0  0  0  0  0
   63.3740   33.5720   50.5300 C   0  0  0  0  0  0  0  0  0  0  0  0
   64.1120   32.7240   49.6900 C   0  0  0  0  0  0  0  0  0  0  0  0
   63.6005   32.0989   48.9432 H   0  0  0  0  0  0  0  0  0  0  0  0
   65.5020   32.6820   49.8120 C   0  0  0  0  0  0  0  0  0  0  0  0
   66.0951   32.0344   49.1496 H   0  0  0  0  0  0  0  0  0  0  0  0
   66.1370   33.4660   50.7790 C   0  0  0  0  0  0  0  0  0  0  0  0
   67.2316   33.4371   50.8845 H   0  0  0  0  0  0  0  0  0  0  0  0
   65.3710   34.2870   51.6110 C   0  0  0  0  0  0  0  0  0  0  0  0
   65.8631   34.9052   52.3763 H   0  0  0  0  0  0  0  0  0  0  0  0
   64.0170   34.3230   51.4760 N   0  0  0  0  0  0  0  0  0  0  0  0
   63.4610   34.9250   52.1280 H   0  0  0  0  0  0  0  0  0  0  0  0
   61.9570   33.4680   47.8870 C   0  0  0  0  0  0  0  0  0  0  0  0
   62.1516   34.4728   47.4840 H   0  0  0  0  0  0  0  0  0  0  0  0
   62.8998   32.9388   48.0895 H   0  0  0  0  0  0  0  0  0  0  0  0
   61.1650   32.6620   46.8540 C   0  0  0  0  0  0  0  0  0  0  0  0
   61.6205   32.8050   45.8630 H   0  0  0  0  0  0  0  0  0  0  0  0
   61.1923   31.6022   47.1473 H   0  0  0  0  0  0  0  0  0  0  0  0
  1  2  1  0
  2  3  1  0
  2  4  2  0
  4  5  1  0
  5  6  2  0
  6  7  1  0
  6  8  1  0
  8  9  1  0
  9 10  1  0
 10 11  2  0
 10 12  1  0
 12 13  1  0
 13 14  1  0
  5 15  1  0
 15 16  1  0
 15 17  2  0
 17 18  1  0
 18 19  1  0
 18 20  1  0
 18 21  1  0
 17 22  1  0
 22 23  1  0
 23 24  2  0
 23 25  1  0
 25 26  1  0
 26 27  1  0
 26 28  1  0
 26 29  1  0
 29 30  1  0
 29 31  1  0
 29 32  1  0
 32 33  1  0
 33 34  2  0
 33 35  1  0
 35 36  2  0
 36 37  1  0
 36 38  1  0
 38 39  1  0
 38 40  2  0
 40 41  1  0
 40 42  1  0
 42 43  1  0
 42 44  2  0
 44 45  1  0
 32 46  1  0
 46 47  1  0
 46 48  1  0
 46 49  1  0
 49 50  1  0
 49 51  1  0
 22  4  1  0
 49 25  1  0
 13  8  2  0
 44 35  1  0
M  CHG  4   9  -1  12  -1  14  -1  44   1
M  END
>  <UniqueID>  (44) 
40

>  <SMILES>  (44) 
C=c1/c(=C/c2[n-]c(=O)[n-]c2[O-])cc(C)n1C(=O)N1CCN(C(=O)c2cccc[nH+]2)CC1

>  <Energy>  (44) 
135.88589090054083

>  <Genealogy>  (44) 
C=c1c(=Cc2[n-]c(=O)[n-]c2[O-])cc(C)n1C(=O)N1CCN(C(=O)c2cccc[nH+]2)CC1 (protonated)
C=c1/c(=C/c2[n-]c(=O)[n-]c2[O-])cc(C)n1C(=O)N1CCN(C(=O)c2cccc[nH+]2)CC1 (cis-trans isomerization)
C=c1/c(=C/c2[n-]c(=O)[n-]c2[O-])cc(C)n1C(=O)N1CCN(C(=O)c2cccc[nH+]2)CC1 (3D coordinates assigned)
C=c1/c(=C/c2[n-]c(=O)[n-]c2[O-])cc(C)n1C(=O)N1CCN(C(=O)c2cccc[nH+]2)CC1 (nonaromatic ring conformer: 135.88589090054083 kcal/mol)

>  <smiles>  (44) 
C=c1c(=Cc2[nH]c(=O)[nH]c2O)cc(C)n1C(=O)N1CCN(C(=O)c2ccccn2)CC1

>  <score_type>  (44) 
oracle

>  <origin>  (44) 
adg

>  <m_score__min__energy>  (44) 
-15.16

>  <m_primary>  (44) 
energy

$$$$
44:0
     RDKit          3D

 73 76  0  0  0  0  0  0  0  0999 V2000
   56.7560   24.5400   44.7280 C   0  0  0  0  0  0  0  0  0  0  0  0
   56.1830   25.7540   45.9000 S   0  0  0  0  0  0  0  0  0  0  0  0
   56.4040   25.2380   47.2940 O   0  0  0  0  0  0  0  0  0  0  0  0
   54.7100   25.9660   45.6800 O   0  0  0  0  0  0  0  0  0  0  0  0
   57.0270   27.2690   45.6770 N   0  0  0  0  0  0  0  0  0  0  0  0
   57.8510   27.2160   44.4480 C   0  0  0  0  0  0  0  0  0  0  0  0
   58.9470   28.2860   44.4560 C   0  0  0  0  0  0  0  0  0  0  0  0
   59.9260   28.0700   45.6230 C   0  0  0  0  0  0  0  0  0  0  0  0
   59.2800   27.3190   46.8110 C   0  0  1  0  0  0  0  0  0  0  0  0
   59.9910   27.6460   48.1050 C   0  0  0  0  0  0  0  0  0  0  0  0
   60.5830   26.7210   48.7270 O   0  0  0  0  0  0  0  0  0  0  0  0
   60.0060   28.9830   48.6500 N   0  0  0  0  0  0  0  0  0  0  0  0
   61.0930   29.3760   49.5470 C   0  0  0  0  0  0  0  0  0  0  0  0
   61.1950   30.9010   49.6400 C   0  0  0  0  0  0  0  0  0  0  0  0
   59.9190   31.5100   50.1090 N   0  0  0  0  0  0  0  0  0  0  0  0
   59.9000   33.0190   50.1960 C   0  0  0  0  0  0  0  0  0  0  0  0
   59.3040   33.6190   48.8540 C   0  0  0  0  0  0  0  0  0  0  0  0
   60.0270   34.7540   48.2480 N   0  0  0  0  0  0  0  0  0  0  0  0
   60.1380   34.6850   46.7870 C   0  0  0  0  0  0  0  0  0  0  0  0
   59.1730   33.6620   46.2590 C   0  0  0  0  0  0  0  0  0  0  0  0
   59.5980   32.3440   46.0210 C   0  0  0  0  0  0  0  0  0  0  0  0
   58.7100   31.4010   45.4960 C   0  0  0  0  0  0  0  0  0  0  0  0
   57.3930   31.7690   45.1960 C   0  0  0  0  0  0  0  0  0  0  0  0
   56.5110   30.8300   44.6760 O   0  0  0  0  0  0  0  0  0  0  0  0
   56.9680   33.0820   45.4150 C   0  0  0  0  0  0  0  0  0  0  0  0
   57.8550   34.0290   45.9390 C   0  0  0  0  0  0  0  0  0  0  0  0
   61.3450   33.5650   50.4810 C   0  0  0  0  0  0  0  0  0  0  0  0
   61.9670   33.0270   51.7910 C   0  0  0  0  0  0  0  0  0  0  0  0
   60.9220   32.7490   52.8830 C   0  0  0  0  0  0  0  0  0  0  0  0
   59.7280   33.6880   52.7450 C   0  0  0  0  0  0  0  0  0  0  0  0
   58.9850   33.4530   51.4150 C   0  0  0  0  0  0  0  0  0  0  0  0
   58.7040   30.8970   49.4870 C   0  0  0  0  0  0  0  0  0  0  0  0
   58.9920   29.9780   48.2910 C   0  0  0  0  0  0  0  0  0  0  0  0
   57.7740   27.6450   46.9030 C   0  0  0  0  0  0  0  0  0  0  0  0
   57.1650   23.6734   45.2681 H   0  0  0  0  0  0  0  0  0  0  0  0
   55.9161   24.2153   44.0962 H   0  0  0  0  0  0  0  0  0  0  0  0
   57.5406   24.9820   44.0962 H   0  0  0  0  0  0  0  0  0  0  0  0
   58.3212   26.2242   44.3762 H   0  0  0  0  0  0  0  0  0  0  0  0
   57.1942   27.4034   43.5857 H   0  0  0  0  0  0  0  0  0  0  0  0
   59.5026   28.2378   43.5078 H   0  0  0  0  0  0  0  0  0  0  0  0
   58.4720   29.2707   44.5772 H   0  0  0  0  0  0  0  0  0  0  0  0
   60.7830   27.4837   45.2599 H   0  0  0  0  0  0  0  0  0  0  0  0
   60.2363   29.0613   45.9850 H   0  0  0  0  0  0  0  0  0  0  0  0
   59.3840   26.2379   46.6366 H   0  0  0  0  0  0  0  0  0  0  0  0
   60.9002   28.9654   50.5491 H   0  0  0  0  0  0  0  0  0  0  0  0
   62.0396   28.9824   49.1483 H   0  0  0  0  0  0  0  0  0  0  0  0
   61.9960   31.1624   50.3471 H   0  0  0  0  0  0  0  0  0  0  0  0
   61.4134   31.2924   48.6354 H   0  0  0  0  0  0  0  0  0  0  0  0
   59.2772   32.8081   48.1112 H   0  0  0  0  0  0  0  0  0  0  0  0
   58.3205   34.0240   49.1344 H   0  0  0  0  0  0  0  0  0  0  0  0
   59.6600   35.6800   48.5650 H   0  0  0  0  0  0  0  0  0  0  0  0
   59.9025   35.6686   46.3546 H   0  0  0  0  0  0  0  0  0  0  0  0
   61.1634   34.3987   46.5104 H   0  0  0  0  0  0  0  0  0  0  0  0
   60.6341   32.0531   46.2489 H   0  0  0  0  0  0  0  0  0  0  0  0
   59.0462   30.3688   45.3184 H   0  0  0  0  0  0  0  0  0  0  0  0
   55.9343   33.3717   45.1751 H   0  0  0  0  0  0  0  0  0  0  0  0
   57.5194   35.0640   46.1009 H   0  0  0  0  0  0  0  0  0  0  0  0
   61.9967   33.2762   49.6432 H   0  0  0  0  0  0  0  0  0  0  0  0
   61.2600   34.6562   50.5905 H   0  0  0  0  0  0  0  0  0  0  0  0
   62.4982   32.0900   51.5677 H   0  0  0  0  0  0  0  0  0  0  0  0
   62.6457   33.8027   52.1754 H   0  0  0  0  0  0  0  0  0  0  0  0
   60.5748   31.7091   52.7929 H   0  0  0  0  0  0  0  0  0  0  0  0
   61.3878   32.9146   53.8657 H   0  0  0  0  0  0  0  0  0  0  0  0
   59.0340   33.5111   53.5799 H   0  0  0  0  0  0  0  0  0  0  0  0
   60.0963   34.7244   52.7599 H   0  0  0  0  0  0  0  0  0  0  0  0
   58.2382   32.6619   51.5780 H   0  0  0  0  0  0  0  0  0  0  0  0
   58.5462   34.4224   51.1361 H   0  0  0  0  0  0  0  0  0  0  0  0
   58.1857   30.3061   50.2566 H   0  0  0  0  0  0  0  0  0  0  0  0
   58.0978   31.7298   49.1010 H   0  0  0  0  0  0  0  0  0  0  0  0
   58.0655   29.4629   47.9972 H   0  0  0  0  0  0  0  0  0  0  0  0
   59.3658   30.5854   47.4535 H   0  0  0  0  0  0  0  0  0  0  0  0
   57.3475   27.0970   47.7561 H   0  0  0  0  0  0  0  0  0  0  0  0
   57.6784   28.7337   47.0276 H   0  0  0  0  0  0  0  0  0  0  0  0
  1  2  1  0
  2  3  2  0
  2  4  2  0
  2  5  1  0
  5  6  1  0
  6  7  1  0
  7  8  1  0
  8  9  1  0
  9 10  1  0
 10 11  2  0
 10 12  1  0
 12 13  1  0
 13 14  1  0
 14 15  1  0
 15 16  1  0
 16 17  1  0
 17 18  1  0
 18 19  1  0
 19 20  1  0
 20 21  2  0
 21 22  1  0
 22 23  2  0
 23 24  1  0
 23 25  1  0
 25 26  2  0
 16 27  1  0
 27 28  1  0
 28 29  1  0
 29 30  1  0
 30 31  1  0
 15 32  1  0
 32 33  1  0
  9 34  1  0
 34  5  1  0
 33 12  1  0
 31 16  1  0
 26 20  1  0
  1 35  1  0
  1 36  1  0
  1 37  1  0
  6 38  1  0
  6 39  1  0
  7 40  1  0
  7 41  1  0
  8 42  1  0
  8 43  1  0
  9 44  1  6
 13 45  1  0
 13 46  1  0
 14 47  1  0
 14 48  1  0
 17 49  1  0
 17 50  1  0
 18 51  1  0
 19 52  1  0
 19 53  1  0
 21 54  1  0
 22 55  1  0
 25 56  1  0
 26 57  1  0
 27 58  1  0
 27 59  1  0
 28 60  1  0
 28 61  1  0
 29 62  1  0
 29 63  1  0
 30 64  1  0
 30 65  1  0
 31 66  1  0
 31 67  1  0
 32 68  1  0
 32 69  1  0
 33 70  1  0
 33 71  1  0
 34 72  1  0
 34 73  1  0
M  CHG  1  24  -1
M  END
>  <UniqueID>  (45) 
41

>  <SMILES>  (45) 
CS(=O)(=O)N1CCC[C@@H](C(=O)N2CCN(C3(CNCc4ccc([O-])cc4)CCCCC3)CC2)C1

>  <Energy>  (45) 
105.67162986321276

>  <Genealogy>  (45) 
CS(=O)(=O)N1CCCC(C(=O)N2CCN(C3(CNCc4ccc([O-])cc4)CCCCC3)CC2)C1 (protonated)
CS(=O)(=O)N1CCC[C@@H](C(=O)N2CCN(C3(CNCc4ccc([O-])cc4)CCCCC3)CC2)C1 (chirality)
CS(=O)(=O)N1CCC[C@@H](C(=O)N2CCN(C3(CNCc4ccc([O-])cc4)CCCCC3)CC2)C1 (3D coordinates assigned)
CS(=O)(=O)N1CCC[C@@H](C(=O)N2CCN(C3(CNCc4ccc([O-])cc4)CCCCC3)CC2)C1 (nonaromatic ring conformer: 105.67162986321276 kcal/mol)

>  <smiles>  (45) 
CS(=O)(=O)N1CCCC(C(=O)N2CCN(C3(CNCc4ccc(O)cc4)CCCCC3)CC2)C1

>  <score_type>  (45) 
oracle

>  <origin>  (45) 
adg

>  <m_score__min__energy>  (45) 
-15.039999999999999

>  <m_primary>  (45) 
energy

$$$$
45:0
     RDKit          3D

 57 60  0  0  0  0  0  0  0  0999 V2000
   65.5700   32.7440   49.7840 C   0  0  0  0  0  0  0  0  0  0  0  0
   64.1020   32.7380   50.0850 C   0  0  0  0  0  0  0  0  0  0  0  0
   63.7050   32.1360   51.1210 O   0  0  0  0  0  0  0  0  0  0  0  0
   63.1430   33.3830   49.2200 N   0  0  0  0  0  0  0  0  0  0  0  0
   61.7850   33.6280   49.7340 C   0  0  0  0  0  0  0  0  0  0  0  0
   60.9990   34.5770   48.8250 C   0  0  0  0  0  0  0  0  0  0  0  0
   61.0990   34.1280   47.4330 N   0  0  0  0  0  0  0  0  0  0  0  0
   59.9060   33.9340   46.6580 C   0  0  0  0  0  0  0  0  0  0  0  0
   59.5690   34.8830   45.6810 C   0  0  0  0  0  0  0  0  0  0  0  0
   58.4210   34.7230   44.9040 C   0  0  0  0  0  0  0  0  0  0  0  0
   57.5970   33.6140   45.0940 C   0  0  0  0  0  0  0  0  0  0  0  0
   57.9200   32.6600   46.0630 C   0  0  0  0  0  0  0  0  0  0  0  0
   59.0780   32.8010   46.8470 C   0  0  0  0  0  0  0  0  0  0  0  0
   59.3540   31.7750   47.9210 C   0  0  0  0  0  0  0  0  0  0  0  0
   60.7070   31.0970   47.6890 C   0  0  0  0  0  0  0  0  0  0  0  0
   61.0500   30.1960   48.8380 C   0  0  0  0  0  0  0  0  0  0  0  0
   61.8450   30.5510   49.8180 O   0  0  0  0  0  0  0  0  0  0  0  0
   61.8790   29.5420   50.6560 C   0  0  0  0  0  0  0  0  0  0  0  0
   62.5510   29.5520   51.7190 O   0  0  0  0  0  0  0  0  0  0  0  0
   61.1220   28.4950   50.2740 N   0  0  0  0  0  0  0  0  0  0  0  0
   60.6020   28.9070   49.0990 C   0  0  0  0  0  0  0  0  0  0  0  0
   59.6720   28.0820   48.2990 C   0  0  0  0  0  0  0  0  0  0  0  0
   59.7290   26.6790   48.3300 C   0  0  0  0  0  0  0  0  0  0  0  0
   58.8310   25.9170   47.5760 C   0  0  0  0  0  0  0  0  0  0  0  0
   57.8600   26.5480   46.7890 C   0  0  0  0  0  0  0  0  0  0  0  0
   56.7210   25.5880   45.8510 S   0  0  0  0  0  0  0  0  0  0  0  0
   55.1510   26.3040   45.9460 N   0  0  0  0  0  0  0  0  0  0  0  0
   56.6680   24.1870   46.3930 O   0  0  0  0  0  0  0  0  0  0  0  0
   57.1630   25.5340   44.4150 O   0  0  0  0  0  0  0  0  0  0  0  0
   57.7780   27.9450   46.7790 C   0  0  0  0  0  0  0  0  0  0  0  0
   58.6750   28.7090   47.5340 C   0  0  0  0  0  0  0  0  0  0  0  0
   62.3880   33.6870   46.8850 C   0  0  0  0  0  0  0  0  0  0  0  0
   63.5280   33.8880   47.8900 C   0  0  0  0  0  0  0  0  0  0  0  0
   66.1375   32.7463   50.7263 H   0  0  0  0  0  0  0  0  0  0  0  0
   65.8287   31.8469   49.2024 H   0  0  0  0  0  0  0  0  0  0  0  0
   65.8214   33.6432   49.2024 H   0  0  0  0  0  0  0  0  0  0  0  0
   61.2493   32.6694   49.7972 H   0  0  0  0  0  0  0  0  0  0  0  0
   61.8725   34.0963   50.7255 H   0  0  0  0  0  0  0  0  0  0  0  0
   59.9425   34.5845   49.1313 H   0  0  0  0  0  0  0  0  0  0  0  0
   61.4170   35.5909   48.9104 H   0  0  0  0  0  0  0  0  0  0  0  0
   60.2148   35.7600   45.5263 H   0  0  0  0  0  0  0  0  0  0  0  0
   58.1656   35.4726   44.1406 H   0  0  0  0  0  0  0  0  0  0  0  0
   56.6922   33.4900   44.4808 H   0  0  0  0  0  0  0  0  0  0  0  0
   57.2622   31.7913   46.2134 H   0  0  0  0  0  0  0  0  0  0  0  0
   59.3634   32.2729   48.9018 H   0  0  0  0  0  0  0  0  0  0  0  0
   58.5652   31.0091   47.8885 H   0  0  0  0  0  0  0  0  0  0  0  0
   60.6596   30.5022   46.7649 H   0  0  0  0  0  0  0  0  0  0  0  0
   61.4822   31.8727   47.6030 H   0  0  0  0  0  0  0  0  0  0  0  0
   60.4848   26.1764   48.9513 H   0  0  0  0  0  0  0  0  0  0  0  0
   58.8876   24.8188   47.6013 H   0  0  0  0  0  0  0  0  0  0  0  0
   55.1340   27.0950   45.2650 H   0  0  0  0  0  0  0  0  0  0  0  0
   57.0057   28.4443   46.1755 H   0  0  0  0  0  0  0  0  0  0  0  0
   58.5988   29.8063   47.5283 H   0  0  0  0  0  0  0  0  0  0  0  0
   62.3209   32.6189   46.6305 H   0  0  0  0  0  0  0  0  0  0  0  0
   62.6066   34.2911   45.9921 H   0  0  0  0  0  0  0  0  0  0  0  0
   64.4179   33.3440   47.5406 H   0  0  0  0  0  0  0  0  0  0  0  0
   63.7455   34.9634   47.9687 H   0  0  0  0  0  0  0  0  0  0  0  0
  1  2  1  0
  2  3  2  0
  2  4  1  0
  4  5  1  0
  5  6  1  0
  6  7  1  0
  7  8  1  0
  8  9  2  0
  9 10  1  0
 10 11  2  0
 11 12  1  0
 12 13  2  0
 13 14  1  0
 14 15  1  0
 15 16  1  0
 16 17  1  0
 17 18  1  0
 18 19  2  0
 18 20  1  0
 20 21  1  0
 21 22  1  0
 22 23  2  0
 23 24  1  0
 24 25  2  0
 25 26  1  0
 26 27  1  0
 26 28  2  0
 26 29  2  0
 25 30  1  0
 30 31  2  0
  7 32  1  0
 32 33  1  0
 33  4  1  0
 13  8  1  0
 21 16  2  0
 31 22  1  0
  1 34  1  0
  1 35  1  0
  1 36  1  0
  5 37  1  0
  5 38  1  0
  6 39  1  0
  6 40  1  0
  9 41  1  0
 10 42  1  0
 11 43  1  0
 12 44  1  0
 14 45  1  0
 14 46  1  0
 15 47  1  0
 15 48  1  0
 23 49  1  0
 24 50  1  0
 27 51  1  0
 30 52  1  0
 31 53  1  0
 32 54  1  0
 32 55  1  0
 33 56  1  0
 33 57  1  0
M  CHG  2  20  -1  27  -1
M  END
>  <UniqueID>  (46) 
42

>  <SMILES>  (46) 
CC(=O)N1CCN(c2ccccc2CCc2oc(=O)[n-]c2-c2ccc(S([NH-])(=O)=O)cc2)CC1

>  <Energy>  (46) 
96.60805200345541

>  <Genealogy>  (46) 
CC(=O)N1CCN(c2ccccc2CCc2oc(=O)[n-]c2-c2ccc(S([NH-])(=O)=O)cc2)CC1 (protonated)
CC(=O)N1CCN(c2ccccc2CCc2oc(=O)[n-]c2-c2ccc(S([NH-])(=O)=O)cc2)CC1 (3D coordinates assigned)
CC(=O)N1CCN(c2ccccc2CCc2oc(=O)[n-]c2-c2ccc(S([NH-])(=O)=O)cc2)CC1 (nonaromatic ring conformer: 96.60805200345541 kcal/mol)

>  <smiles>  (46) 
CC(=O)N1CCN(c2ccccc2CCc2oc(=O)[nH]c2-c2ccc(S(N)(=O)=O)cc2)CC1

>  <score_type>  (46) 
oracle

>  <origin>  (46) 
adg

>  <m_score__min__energy>  (46) 
-12.779999999999999

>  <m_primary>  (46) 
energy

$$$$
46:0
     RDKit          3D

 49 51  0  0  0  0  0  0  0  0999 V2000
   55.5010   29.7030   43.4320 C   0  0  0  0  0  0  0  0  0  0  0  0
   55.5290   28.9700   44.6520 O   0  0  0  0  0  0  0  0  0  0  0  0
   56.6970   28.6550   45.3630 C   0  0  0  0  0  0  0  0  0  0  0  0
   57.0800   27.3140   45.4430 C   0  0  0  0  0  0  0  0  0  0  0  0
   58.1990   26.9420   46.1870 C   0  0  0  0  0  0  0  0  0  0  0  0
   58.9750   27.9140   46.8240 C   0  0  0  0  0  0  0  0  0  0  0  0
   59.9830   27.5210   47.6420 N   0  0  0  0  0  0  0  0  0  0  0  0
   60.7190   28.4100   48.3510 C   0  0  0  0  0  0  0  0  0  0  0  0
   60.4940   29.7860   48.2240 C   0  0  0  0  0  0  0  0  0  0  0  0
   61.3360   30.7190   49.0170 C   0  0  0  0  0  0  0  0  0  0  0  0
   61.5230   30.4750   50.2430 O   0  0  0  0  0  0  0  0  0  0  0  0
   61.8680   31.9320   48.4300 N   0  0  0  0  0  0  0  0  0  0  0  0
   62.9030   31.6230   47.4180 C   0  0  0  0  0  0  0  0  0  0  0  0
   63.7440   32.8690   47.0700 C   0  0  0  0  0  0  0  0  0  0  0  0
   63.0790   34.0520   47.4630 O   0  0  0  0  0  0  0  0  0  0  0  0
   62.9890   34.1060   48.8760 C   0  0  0  0  0  0  0  0  0  0  0  0
   62.4160   32.8050   49.4860 C   0  0  0  0  0  0  0  0  0  0  0  0
   59.5440   30.2450   47.2790 C   0  0  0  0  0  0  0  0  0  0  0  0
   59.5790   31.5160   46.9670 N   0  0  0  0  0  0  0  0  0  0  0  0
   58.9080   32.6410   47.5560 C   0  0  0  0  0  0  0  0  0  0  0  0
   59.1320   32.9180   48.7630 O   0  0  0  0  0  0  0  0  0  0  0  0
   58.0230   33.5570   46.7480 C   0  0  0  0  0  0  0  0  0  0  0  0
   58.6550   33.8310   45.0530 S   0  0  0  0  0  0  0  0  0  0  0  0
   57.6510   32.5430   44.3020 C   0  0  0  0  0  0  0  0  0  0  0  0
   58.0190   31.9690   42.9710 C   0  0  0  0  0  0  0  0  0  0  0  0
   56.6720   32.1210   44.8950 O   0  0  0  0  0  0  0  0  0  0  0  0
   58.6810   29.2910   46.6620 C   0  0  0  0  0  0  0  0  0  0  0  0
   57.4820   29.6360   45.9980 C   0  0  0  0  0  0  0  0  0  0  0  0
   55.4599   30.7800   43.6522 H   0  0  0  0  0  0  0  0  0  0  0  0
   56.4082   29.4820   42.8506 H   0  0  0  0  0  0  0  0  0  0  0  0
   54.6133   29.4134   42.8506 H   0  0  0  0  0  0  0  0  0  0  0  0
   56.4948   26.5463   44.9155 H   0  0  0  0  0  0  0  0  0  0  0  0
   58.4719   25.8798   46.2728 H   0  0  0  0  0  0  0  0  0  0  0  0
   61.5015   28.0471   49.0336 H   0  0  0  0  0  0  0  0  0  0  0  0
   61.0910   32.4560   47.9610 H   0  0  0  0  0  0  0  0  0  0  0  0
   63.5685   30.8420   47.8144 H   0  0  0  0  0  0  0  0  0  0  0  0
   62.3988   31.2804   46.5024 H   0  0  0  0  0  0  0  0  0  0  0  0
   64.7103   32.8086   47.5921 H   0  0  0  0  0  0  0  0  0  0  0  0
   63.8968   32.8969   45.9810 H   0  0  0  0  0  0  0  0  0  0  0  0
   63.9954   34.2742   49.2869 H   0  0  0  0  0  0  0  0  0  0  0  0
   62.3027   34.9257   49.1349 H   0  0  0  0  0  0  0  0  0  0  0  0
   63.2182   32.2708   50.0162 H   0  0  0  0  0  0  0  0  0  0  0  0
   61.6070   33.0675   50.1836 H   0  0  0  0  0  0  0  0  0  0  0  0
   57.0201   33.1100   46.6821 H   0  0  0  0  0  0  0  0  0  0  0  0
   58.0000   34.5321   47.2567 H   0  0  0  0  0  0  0  0  0  0  0  0
   58.6074   31.0512   43.1175 H   0  0  0  0  0  0  0  0  0  0  0  0
   57.1040   31.7320   42.4082 H   0  0  0  0  0  0  0  0  0  0  0  0
   58.6162   32.7015   42.4082 H   0  0  0  0  0  0  0  0  0  0  0  0
   57.1573   30.6868   45.9771 H   0  0  0  0  0  0  0  0  0  0  0  0
  1  2  1  0
  2  3  1  0
  3  4  2  0
  4  5  1  0
  5  6  2  0
  6  7  1  0
  7  8  1  0
  8  9  2  0
  9 10  1  0
 10 11  2  0
 10 12  1  0
 12 13  1  0
 13 14  1  0
 14 15  1  0
 15 16  1  0
 16 17  1  0
  9 18  1  0
 18 19  2  3
 19 20  1  0
 20 21  2  0
 20 22  1  0
 22 23  1  0
 23 24  1  0
 24 25  1  0
 24 26  2  0
 18 27  1  0
 27 28  2  0
 28  3  1  0
 27  6  1  0
 17 12  1  0
  1 29  1  0
  1 30  1  0
  1 31  1  0
  4 32  1  0
  5 33  1  0
  8 34  1  0
 12 35  1  0
 13 36  1  0
 13 37  1  0
 14 38  1  0
 14 39  1  0
 16 40  1  0
 16 41  1  0
 17 42  1  0
 17 43  1  0
 22 44  1  0
 22 45  1  0
 25 46  1  0
 25 47  1  0
 25 48  1  0
 28 49  1  0
M  CHG  2   7  -1  12   1
M  END
>  <UniqueID>  (47) 
43

>  <SMILES>  (47) 
COc1ccc2[n-]cc(C(=O)[NH+]3CCOCC3)c(=NC(=O)CSC(C)=O)c2c1

>  <Energy>  (47) 
82.28998797473875

>  <Genealogy>  (47) 
COc1ccc2[n-]cc(C(=O)[NH+]3CCOCC3)c(=NC(=O)CSC(C)=O)c2c1 (protonated)
COc1ccc2[n-]cc(C(=O)[NH+]3CCOCC3)c(=NC(=O)CSC(C)=O)c2c1 (3D coordinates assigned)
COc1ccc2[n-]cc(C(=O)[NH+]3CCOCC3)c(=NC(=O)CSC(C)=O)c2c1 (nonaromatic ring conformer: 82.28998797473875 kcal/mol)

>  <smiles>  (47) 
COc1ccc2[nH]cc(C(=O)N3CCOCC3)c(=NC(=O)CSC(C)=O)c2c1

>  <score_type>  (47) 
oracle

>  <origin>  (47) 
adg

>  <m_score__min__energy>  (47) 
-6.9500000000000002

>  <m_primary>  (47) 
energy

$$$$
47:0
     RDKit          3D

 56 59  0  0  0  0  0  0  0  0999 V2000
   57.6490   23.0730   46.1740 C   0  0  0  0  0  0  0  0  0  0  0  0
   57.4420   24.5220   45.8410 C   0  0  0  0  0  0  0  0  0  0  0  0
   56.8180   25.3840   46.7560 C   0  0  0  0  0  0  0  0  0  0  0  0
   56.5950   26.7210   46.4220 C   0  0  0  0  0  0  0  0  0  0  0  0
   57.0200   27.2270   45.1830 C   0  0  0  0  0  0  0  0  0  0  0  0
   56.7940   28.6500   44.8770 C   0  0  0  0  0  0  0  0  0  0  0  0
   57.7190   29.5220   44.3420 C   0  0  0  0  0  0  0  0  0  0  0  0
   57.0390   30.7180   44.2660 C   0  0  0  0  0  0  0  0  0  0  0  0
   57.6230   32.0100   43.8560 C   0  0  0  0  0  0  0  0  0  0  0  0
   58.3710   32.0420   42.8430 O   0  0  0  0  0  0  0  0  0  0  0  0
   57.4000   33.2210   44.5860 N   0  0  0  0  0  0  0  0  0  0  0  0
   57.2540   33.3270   46.0350 C   0  0  0  0  0  0  0  0  0  0  0  0
   58.5980   33.4610   46.6920 C   0  0  0  0  0  0  0  0  0  0  0  0
   58.7180   34.1970   47.7110 O   0  0  0  0  0  0  0  0  0  0  0  0
   59.7520   32.8210   46.1200 N   0  0  0  0  0  0  0  0  0  0  0  0
   61.0440   32.8620   46.7500 C   0  0  0  0  0  0  0  0  0  0  0  0
   61.9590   33.8680   46.3980 C   0  0  0  0  0  0  0  0  0  0  0  0
   63.2180   33.9200   47.0010 C   0  0  0  0  0  0  0  0  0  0  0  0
   63.5840   32.9610   47.9440 C   0  0  0  0  0  0  0  0  0  0  0  0
   62.6830   31.9580   48.3050 C   0  0  0  0  0  0  0  0  0  0  0  0
   61.3940   31.9210   47.7430 C   0  0  0  0  0  0  0  0  0  0  0  0
   60.4460   30.8570   48.1530 C   0  0  0  0  0  0  0  0  0  0  0  0
   59.8860   30.9650   49.2820 O   0  0  0  0  0  0  0  0  0  0  0  0
   60.2050   29.6830   47.3380 N   0  0  0  0  0  0  0  0  0  0  0  0
   59.3800   28.5860   47.8820 C   0  0  0  0  0  0  0  0  0  0  0  0
   59.6840   27.2090   47.2400 C   0  0  0  0  0  0  0  0  0  0  0  0
   60.7390   27.2430   46.2970 O   0  0  0  0  0  0  0  0  0  0  0  0
   60.4760   28.2460   45.3420 C   0  0  0  0  0  0  0  0  0  0  0  0
   60.7400   29.6080   45.9650 C   0  0  0  0  0  0  0  0  0  0  0  0
   55.7890   30.5590   44.7400 N   0  0  0  0  0  0  0  0  0  0  0  0
   55.6380   29.2990   45.1190 N   0  0  0  0  0  0  0  0  0  0  0  0
   57.6550   26.3640   44.2620 C   0  0  0  0  0  0  0  0  0  0  0  0
   58.1410   26.9150   42.6570 Cl  0  0  0  0  0  0  0  0  0  0  0  0
   57.8560   25.0180   44.5920 C   0  0  0  0  0  0  0  0  0  0  0  0
   57.6670   22.9468   47.2666 H   0  0  0  0  0  0  0  0  0  0  0  0
   56.8267   22.4782   45.7497 H   0  0  0  0  0  0  0  0  0  0  0  0
   58.6049   22.7322   45.7497 H   0  0  0  0  0  0  0  0  0  0  0  0
   56.5036   25.0049   47.7396 H   0  0  0  0  0  0  0  0  0  0  0  0
   56.0823   27.3834   47.1350 H   0  0  0  0  0  0  0  0  0  0  0  0
   58.7572   29.3118   44.0453 H   0  0  0  0  0  0  0  0  0  0  0  0
   56.6450   34.2114   46.2735 H   0  0  0  0  0  0  0  0  0  0  0  0
   56.7644   32.4162   46.4102 H   0  0  0  0  0  0  0  0  0  0  0  0
   59.6660   32.3960   45.1690 H   0  0  0  0  0  0  0  0  0  0  0  0
   61.6826   34.6190   45.6433 H   0  0  0  0  0  0  0  0  0  0  0  0
   63.9227   34.7202   46.7308 H   0  0  0  0  0  0  0  0  0  0  0  0
   64.5828   32.9947   48.4036 H   0  0  0  0  0  0  0  0  0  0  0  0
   62.9830   31.1910   49.0342 H   0  0  0  0  0  0  0  0  0  0  0  0
   59.5650   28.5145   48.9640 H   0  0  0  0  0  0  0  0  0  0  0  0
   58.3309   28.8255   47.6538 H   0  0  0  0  0  0  0  0  0  0  0  0
   59.9556   26.5048   48.0402 H   0  0  0  0  0  0  0  0  0  0  0  0
   58.7780   26.8988   46.6988 H   0  0  0  0  0  0  0  0  0  0  0  0
   61.1325   28.1061   44.4706 H   0  0  0  0  0  0  0  0  0  0  0  0
   59.4265   28.1836   45.0186 H   0  0  0  0  0  0  0  0  0  0  0  0
   61.8254   29.7846   45.9933 H   0  0  0  0  0  0  0  0  0  0  0  0
   60.2368   30.3722   45.3544 H   0  0  0  0  0  0  0  0  0  0  0  0
   58.3407   24.3446   43.8698 H   0  0  0  0  0  0  0  0  0  0  0  0
  1  2  1  0
  2  3  2  0
  3  4  1  0
  4  5  2  0
  5  6  1  0
  6  7  2  0
  7  8  1  0
  8  9  1  0
  9 10  2  0
  9 11  1  0
 11 12  1  0
 12 13  1  0
 13 14  2  0
 13 15  1  0
 15 16  1  0
 16 17  2  0
 17 18  1  0
 18 19  2  0
 19 20  1  0
 20 21  2  0
 21 22  1  0
 22 23  2  0
 22 24  1  0
 24 25  1  0
 25 26  1  0
 26 27  1  0
 27 28  1  0
 28 29  1  0
  8 30  2  0
 30 31  1  0
  5 32  1  0
 32 33  1  0
 32 34  2  0
 34  2  1  0
 31  6  1  0
 21 16  1  0
 29 24  1  0
  1 35  1  0
  1 36  1  0
  1 37  1  0
  3 38  1  0
  4 39  1  0
  7 40  1  0
 12 41  1  0
 12 42  1  0
 15 43  1  0
 17 44  1  0
 18 45  1  0
 19 46  1  0
 20 47  1  0
 25 48  1  0
 25 49  1  0
 26 50  1  0
 26 51  1  0
 28 52  1  0
 28 53  1  0
 29 54  1  0
 29 55  1  0
 34 56  1  0
M  CHG  2  11  -1  31  -1
M  END
>  <UniqueID>  (48) 
44

>  <SMILES>  (48) 
Cc1ccc(-c2cc(C(=O)[N-]CC(=O)Nc3ccccc3C(=O)N3CCOCC3)n[n-]2)c(Cl)c1

>  <Energy>  (48) 
111.40815515042071

>  <Genealogy>  (48) 
Cc1ccc(-c2cc(C(=O)[N-]CC(=O)Nc3ccccc3C(=O)N3CCOCC3)n[n-]2)c(Cl)c1 (protonated)
Cc1ccc(-c2cc(C(=O)[N-]CC(=O)Nc3ccccc3C(=O)N3CCOCC3)n[n-]2)c(Cl)c1 (3D coordinates assigned)
Cc1ccc(-c2cc(C(=O)[N-]CC(=O)Nc3ccccc3C(=O)N3CCOCC3)n[n-]2)c(Cl)c1 (nonaromatic ring conformer: 111.40815515042071 kcal/mol)

>  <smiles>  (48) 
Cc1ccc(-c2cc(C(=O)NCC(=O)Nc3ccccc3C(=O)N3CCOCC3)n[nH]2)c(Cl)c1

>  <score_type>  (48) 
oracle

>  <origin>  (48) 
adg

>  <m_score__min__energy>  (48) 
-12.949999999999999

>  <m_primary>  (48) 
energy

$$$$
48:0
     RDKit          3D

 51 53  0  0  0  0  0  0  0  0999 V2000
   57.1850   21.1890   42.9900 C   0  0  0  0  0  0  0  0  0  0  0  0
   55.9460   21.8390   43.2580 O   0  0  0  0  0  0  0  0  0  0  0  0
   55.5990   22.4040   44.4940 C   0  0  0  0  0  0  0  0  0  0  0  0
   55.1500   21.5540   45.5120 C   0  0  0  0  0  0  0  0  0  0  0  0
   54.7880   22.0720   46.7570 C   0  0  0  0  0  0  0  0  0  0  0  0
   54.8890   23.4440   47.0030 C   0  0  0  0  0  0  0  0  0  0  0  0
   55.3650   24.3060   46.0080 C   0  0  0  0  0  0  0  0  0  0  0  0
   55.4480   25.7100   46.2880 N   0  0  0  0  0  0  0  0  0  0  0  0
   56.6460   26.4840   46.4560 C   0  0  0  0  0  0  0  0  0  0  0  0
   57.3750   26.2650   47.4580 O   0  0  0  0  0  0  0  0  0  0  0  0
   57.0850   27.5040   45.4470 C   0  0  0  0  0  0  0  0  0  0  0  0
   55.9930   28.4340   45.1890 N   0  0  0  0  0  0  0  0  0  0  0  0
   56.1180   29.6880   44.5070 C   0  0  0  0  0  0  0  0  0  0  0  0
   55.1460   30.4860   44.5250 O   0  0  0  0  0  0  0  0  0  0  0  0
   57.3740   30.0850   43.7800 C   0  0  0  0  0  0  0  0  0  0  0  0
   58.1750   31.0720   44.5870 C   0  0  0  0  0  0  0  0  0  0  0  0
   58.0710   32.4470   44.3240 C   0  0  0  0  0  0  0  0  0  0  0  0
   58.8090   33.3670   45.0730 C   0  0  0  0  0  0  0  0  0  0  0  0
   59.6720   32.9310   46.0850 C   0  0  0  0  0  0  0  0  0  0  0  0
   60.3920   33.9140   46.8420 N   0  0  0  0  0  0  0  0  0  0  0  0
   61.7650   33.8540   47.2490 C   0  0  0  0  0  0  0  0  0  0  0  0
   62.6860   33.8690   46.3900 O   0  0  0  0  0  0  0  0  0  0  0  0
   62.1130   33.8340   48.6820 C   0  0  0  0  0  0  0  0  0  0  0  0
   63.3950   33.8100   49.1990 C   0  0  0  0  0  0  0  0  0  0  0  0
   63.2500   33.7950   50.5710 C   0  0  0  0  0  0  0  0  0  0  0  0
   61.9750   33.8080   50.8860 O   0  0  0  0  0  0  0  0  0  0  0  0
   61.2650   33.8300   49.7810 C   0  0  0  0  0  0  0  0  0  0  0  0
   59.7710   33.8510   49.7700 C   0  0  0  0  0  0  0  0  0  0  0  0
   59.7600   31.5540   46.3660 C   0  0  0  0  0  0  0  0  0  0  0  0
   59.0240   30.6330   45.6150 C   0  0  0  0  0  0  0  0  0  0  0  0
   55.6850   23.7870   44.7420 C   0  0  0  0  0  0  0  0  0  0  0  0
   57.6767   20.9311   43.9396 H   0  0  0  0  0  0  0  0  0  0  0  0
   57.0003   20.2717   42.4117 H   0  0  0  0  0  0  0  0  0  0  0  0
   57.8348   21.8624   42.4117 H   0  0  0  0  0  0  0  0  0  0  0  0
   55.0820   20.4713   45.3298 H   0  0  0  0  0  0  0  0  0  0  0  0
   54.4224   21.3986   47.5462 H   0  0  0  0  0  0  0  0  0  0  0  0
   54.5933   23.8482   47.9824 H   0  0  0  0  0  0  0  0  0  0  0  0
   57.9524   28.0564   45.8376 H   0  0  0  0  0  0  0  0  0  0  0  0
   57.3638   26.9974   44.5112 H   0  0  0  0  0  0  0  0  0  0  0  0
   57.9845   29.1878   43.6001 H   0  0  0  0  0  0  0  0  0  0  0  0
   57.0932   30.5572   42.8270 H   0  0  0  0  0  0  0  0  0  0  0  0
   57.4049   32.8020   43.5239 H   0  0  0  0  0  0  0  0  0  0  0  0
   58.7110   34.4428   44.8657 H   0  0  0  0  0  0  0  0  0  0  0  0
   64.3378   33.8041   48.6324 H   0  0  0  0  0  0  0  0  0  0  0  0
   64.0791   33.7751   51.2937 H   0  0  0  0  0  0  0  0  0  0  0  0
   59.3968   33.8563   50.8044 H   0  0  0  0  0  0  0  0  0  0  0  0
   59.4208   34.7542   49.2488 H   0  0  0  0  0  0  0  0  0  0  0  0
   59.3956   32.9580   49.2488 H   0  0  0  0  0  0  0  0  0  0  0  0
   60.4107   31.2016   47.1799 H   0  0  0  0  0  0  0  0  0  0  0  0
   59.1107   29.5579   45.8309 H   0  0  0  0  0  0  0  0  0  0  0  0
   56.0052   24.4667   43.9385 H   0  0  0  0  0  0  0  0  0  0  0  0
  1  2  1  0
  2  3  1  0
  3  4  2  0
  4  5  1  0
  5  6  2  0
  6  7  1  0
  7  8  1  0
  8  9  1  0
  9 10  2  0
  9 11  1  0
 11 12  1  0
 12 13  1  0
 13 14  2  0
 13 15  1  0
 15 16  1  0
 16 17  2  0
 17 18  1  0
 18 19  2  0
 19 20  1  0
 20 21  1  0
 21 22  2  0
 21 23  1  0
 23 24  1  0
 24 25  2  0
 25 26  1  0
 26 27  1  0
 27 28  1  0
 19 29  1  0
 29 30  2  0
  7 31  2  0
 31  3  1  0
 30 16  1  0
 27 23  2  0
  1 32  1  0
  1 33  1  0
  1 34  1  0
  4 35  1  0
  5 36  1  0
  6 37  1  0
 11 38  1  0
 11 39  1  0
 15 40  1  0
 15 41  1  0
 17 42  1  0
 18 43  1  0
 24 44  1  0
 25 45  1  0
 28 46  1  0
 28 47  1  0
 28 48  1  0
 29 49  1  0
 30 50  1  0
 31 51  1  0
M  CHG  3   8  -1  12  -1  20  -1
M  END
>  <UniqueID>  (49) 
45

>  <SMILES>  (49) 
COc1cccc([N-]C(=O)C[N-]C(=O)Cc2ccc([N-]C(=O)c3ccoc3C)cc2)c1

>  <Energy>  (49) 
80.55655048407515

>  <Genealogy>  (49) 
COc1cccc([N-]C(=O)C[N-]C(=O)Cc2ccc([N-]C(=O)c3ccoc3C)cc2)c1 (protonated)
COc1cccc([N-]C(=O)C[N-]C(=O)Cc2ccc([N-]C(=O)c3ccoc3C)cc2)c1 (3D coordinates assigned)
COc1cccc([N-]C(=O)C[N-]C(=O)Cc2ccc([N-]C(=O)c3ccoc3C)cc2)c1 (optimized conformer: 80.55655048407515 kcal/mol)

>  <smiles>  (49) 
COc1cccc(NC(=O)CNC(=O)Cc2ccc(NC(=O)c3ccoc3C)cc2)c1

>  <score_type>  (49) 
oracle

>  <origin>  (49) 
adg

>  <m_score__min__energy>  (49) 
-13

>  <m_primary>  (49) 
energy

$$$$
49:0
     RDKit          3D

 75 79  0  0  0  0  0  0  0  0999 V2000
   58.4730   30.3000   49.1410 O   0  0  0  0  0  0  0  0  0  0  0  0
   59.3620   29.8500   48.3770 C   0  0  0  0  0  0  0  0  0  0  0  0
   60.6130   29.3730   48.9000 N   0  0  0  0  0  0  0  0  0  0  0  0
   61.0970   29.4740   50.2520 C   0  0  0  0  0  0  0  0  0  0  0  0
   61.8130   28.4420   50.8740 C   0  0  0  0  0  0  0  0  0  0  0  0
   62.3040   28.6100   52.1720 C   0  0  0  0  0  0  0  0  0  0  0  0
   62.0850   29.8050   52.8580 C   0  0  0  0  0  0  0  0  0  0  0  0
   61.3570   30.8350   52.2530 C   0  0  0  0  0  0  0  0  0  0  0  0
   61.1070   32.3670   53.0880 S   0  0  0  0  0  0  0  0  0  0  0  0
   62.1520   32.5380   54.1550 O   0  0  0  0  0  0  0  0  0  0  0  0
   61.2640   33.4740   52.0830 O   0  0  0  0  0  0  0  0  0  0  0  0
   59.4990   32.4420   53.7880 N   0  0  0  0  0  0  0  0  0  0  0  0
   58.9420   33.8080   53.7660 C   0  0  0  0  0  0  0  0  0  0  0  0
   58.4810   34.2350   52.3490 C   0  0  0  0  0  0  0  0  0  0  0  0
   58.3530   33.1590   51.4410 O   0  0  0  0  0  0  0  0  0  0  0  0
   57.7000   32.0730   52.0630 C   0  0  0  0  0  0  0  0  0  0  0  0
   58.5860   31.4570   53.1640 C   0  0  0  0  0  0  0  0  0  0  0  0
   60.8540   30.6590   50.9600 C   0  0  0  0  0  0  0  0  0  0  0  0
   59.1380   29.8090   46.9630 N   0  0  0  0  0  0  0  0  0  0  0  0
   57.8110   29.9170   46.3600 C   0  0  0  0  0  0  0  0  0  0  0  0
   57.8500   30.9200   45.2350 C   0  0  0  0  0  0  0  0  0  0  0  0
   57.6610   30.4550   43.9220 C   0  0  0  0  0  0  0  0  0  0  0  0
   57.6340   31.3500   42.8480 C   0  0  0  0  0  0  0  0  0  0  0  0
   57.7910   32.7200   43.0730 C   0  0  0  0  0  0  0  0  0  0  0  0
   57.9790   33.1970   44.3730 C   0  0  0  0  0  0  0  0  0  0  0  0
   58.0090   32.3120   45.4580 C   0  0  0  0  0  0  0  0  0  0  0  0
   58.2210   32.8740   46.8060 C   0  0  0  0  0  0  0  0  0  0  0  0
   57.2280   33.3530   47.4190 O   0  0  0  0  0  0  0  0  0  0  0  0
   59.5350   32.9040   47.4140 N   0  0  0  0  0  0  0  0  0  0  0  0
   60.6730   32.3020   46.6840 C   0  0  0  0  0  0  0  0  0  0  0  0
   62.0590   32.5960   47.3000 C   0  0  0  0  0  0  0  0  0  0  0  0
   62.0340   33.8020   48.1370 N   0  0  0  0  0  0  0  0  0  0  0  0
   63.3850   34.1980   48.5930 C   0  0  0  0  0  0  0  0  0  0  0  0
   63.8830   33.4310   49.8040 C   0  0  0  0  0  0  0  0  0  0  0  0
   64.0520   34.0820   51.0410 C   0  0  0  0  0  0  0  0  0  0  0  0
   64.5170   33.3730   52.1530 C   0  0  0  0  0  0  0  0  0  0  0  0
   64.8180   32.0130   52.0400 C   0  0  0  0  0  0  0  0  0  0  0  0
   64.6650   31.3620   50.8130 C   0  0  0  0  0  0  0  0  0  0  0  0
   64.2030   32.0660   49.7000 C   0  0  0  0  0  0  0  0  0  0  0  0
   61.0960   33.5930   49.2460 C   0  0  0  0  0  0  0  0  0  0  0  0
   59.6690   33.5910   48.7130 C   0  0  0  0  0  0  0  0  0  0  0  0
   61.9891   27.4970   50.3391 H   0  0  0  0  0  0  0  0  0  0  0  0
   62.8655   27.7965   52.6546 H   0  0  0  0  0  0  0  0  0  0  0  0
   62.4847   29.9372   53.8743 H   0  0  0  0  0  0  0  0  0  0  0  0
   58.0781   33.8483   54.4457 H   0  0  0  0  0  0  0  0  0  0  0  0
   59.7366   34.4995   54.0829 H   0  0  0  0  0  0  0  0  0  0  0  0
   57.5036   34.7319   52.4376 H   0  0  0  0  0  0  0  0  0  0  0  0
   59.2581   34.9018   51.9472 H   0  0  0  0  0  0  0  0  0  0  0  0
   56.7605   32.4270   52.5125 H   0  0  0  0  0  0  0  0  0  0  0  0
   57.4961   31.3035   51.3039 H   0  0  0  0  0  0  0  0  0  0  0  0
   57.9346   31.0383   53.9453 H   0  0  0  0  0  0  0  0  0  0  0  0
   59.2088   30.6830   52.6917 H   0  0  0  0  0  0  0  0  0  0  0  0
   60.2611   31.4595   50.4934 H   0  0  0  0  0  0  0  0  0  0  0  0
   59.9490   29.5810   46.3400 H   0  0  0  0  0  0  0  0  0  0  0  0
   57.5063   28.9361   45.9663 H   0  0  0  0  0  0  0  0  0  0  0  0
   57.0885   30.2474   47.1208 H   0  0  0  0  0  0  0  0  0  0  0  0
   57.5333   29.3781   43.7379 H   0  0  0  0  0  0  0  0  0  0  0  0
   57.4889   30.9748   41.8242 H   0  0  0  0  0  0  0  0  0  0  0  0
   57.7666   33.4228   42.2272 H   0  0  0  0  0  0  0  0  0  0  0  0
   58.1044   34.2761   44.5455 H   0  0  0  0  0  0  0  0  0  0  0  0
   60.5302   31.2115   46.6648 H   0  0  0  0  0  0  0  0  0  0  0  0
   60.6748   32.7541   45.6812 H   0  0  0  0  0  0  0  0  0  0  0  0
   62.3639   31.7388   47.9182 H   0  0  0  0  0  0  0  0  0  0  0  0
   62.7720   32.7619   46.4790 H   0  0  0  0  0  0  0  0  0  0  0  0
   64.0906   34.0321   47.7656 H   0  0  0  0  0  0  0  0  0  0  0  0
   63.3201   35.2543   48.8929 H   0  0  0  0  0  0  0  0  0  0  0  0
   63.8173   35.1527   51.1330 H   0  0  0  0  0  0  0  0  0  0  0  0
   64.6459   33.8862   53.1174 H   0  0  0  0  0  0  0  0  0  0  0  0
   65.1756   31.4545   52.9176 H   0  0  0  0  0  0  0  0  0  0  0  0
   64.9091   30.2931   50.7242 H   0  0  0  0  0  0  0  0  0  0  0  0
   64.0886   31.5497   48.7355 H   0  0  0  0  0  0  0  0  0  0  0  0
   61.3083   32.6274   49.7283 H   0  0  0  0  0  0  0  0  0  0  0  0
   61.2112   34.4038   49.9803 H   0  0  0  0  0  0  0  0  0  0  0  0
   59.0231   33.0840   49.4450 H   0  0  0  0  0  0  0  0  0  0  0  0
   59.3756   34.6400   48.5600 H   0  0  0  0  0  0  0  0  0  0  0  0
  1  2  2  0
  2  3  1  0
  3  4  1  0
  4  5  2  0
  5  6  1  0
  6  7  2  0
  7  8  1  0
  8  9  1  0
  9 10  2  0
  9 11  2  0
  9 12  1  0
 12 13  1  0
 13 14  1  0
 14 15  1  0
 15 16  1  0
 16 17  1  0
  8 18  2  0
  2 19  1  0
 19 20  1  0
 20 21  1  0
 21 22  2  0
 22 23  1  0
 23 24  2  0
 24 25  1  0
 25 26  2  0
 26 27  1  0
 27 28  2  0
 27 29  1  0
 29 30  1  0
 30 31  1  0
 31 32  1  0
 32 33  1  0
 33 34  1  0
 34 35  2  0
 35 36  1  0
 36 37  2  0
 37 38  1  0
 38 39  2  0
 32 40  1  0
 40 41  1  0
 18  4  1  0
 26 21  1  0
 41 29  1  0
 17 12  1  0
 39 34  1  0
  5 42  1  0
  6 43  1  0
  7 44  1  0
 13 45  1  0
 13 46  1  0
 14 47  1  0
 14 48  1  0
 16 49  1  0
 16 50  1  0
 17 51  1  0
 17 52  1  0
 18 53  1  0
 19 54  1  0
 20 55  1  0
 20 56  1  0
 22 57  1  0
 23 58  1  0
 24 59  1  0
 25 60  1  0
 30 61  1  0
 30 62  1  0
 31 63  1  0
 31 64  1  0
 33 65  1  0
 33 66  1  0
 35 67  1  0
 36 68  1  0
 37 69  1  0
 38 70  1  0
 39 71  1  0
 40 72  1  0
 40 73  1  0
 41 74  1  0
 41 75  1  0
M  CHG  1   3  -1
M  END
>  <UniqueID>  (50) 
46

>  <SMILES>  (50) 
O=C([N-]c1cccc(S(=O)(=O)N2CCOCC2)c1)NCc1ccccc1C(=O)N1CCN(Cc2ccccc2)CC1

>  <Energy>  (50) 
107.12420578218101

>  <Genealogy>  (50) 
O=C([N-]c1cccc(S(=O)(=O)N2CCOCC2)c1)NCc1ccccc1C(=O)N1CCN(Cc2ccccc2)CC1 (protonated)
O=C([N-]c1cccc(S(=O)(=O)N2CCOCC2)c1)NCc1ccccc1C(=O)N1CCN(Cc2ccccc2)CC1 (3D coordinates assigned)
O=C([N-]c1cccc(S(=O)(=O)N2CCOCC2)c1)NCc1ccccc1C(=O)N1CCN(Cc2ccccc2)CC1 (nonaromatic ring conformer: 107.12420578218101 kcal/mol)

>  <smiles>  (50) 
O=C(NCc1ccccc1C(=O)N1CCN(Cc2ccccc2)CC1)Nc1cccc(S(=O)(=O)N2CCOCC2)c1

>  <score_type>  (50) 
oracle

>  <origin>  (50) 
adg

>  <m_score__min__energy>  (50) 
-12.52

>  <m_primary>  (50) 
energy

$$$$
50:0
     RDKit          3D

 31 33  0  0  0  0  0  0  0  0999 V2000
   58.0290   27.5980   47.7640 O   0  0  0  0  0  0  0  0  0  0  0  0
   57.8840   27.8080   46.5290 C   0  0  0  0  0  0  0  0  0  0  0  0
   57.8560   26.7020   45.6100 N   0  0  0  0  0  0  0  0  0  0  0  0
   56.8940   25.8470   45.3930 C   0  0  0  0  0  0  0  0  0  0  0  0
   57.1960   24.6770   44.6830 C   0  0  0  0  0  0  0  0  0  0  0  0
   56.1930   23.7400   44.4340 C   0  0  0  0  0  0  0  0  0  0  0  0
   54.9000   23.9670   44.9000 C   0  0  0  0  0  0  0  0  0  0  0  0
   54.6320   25.1290   45.6240 C   0  0  0  0  0  0  0  0  0  0  0  0
   55.6190   26.0370   45.8630 N   0  0  0  0  0  0  0  0  0  0  0  0
   57.6410   29.1880   46.0290 C   0  0  0  0  0  0  0  0  0  0  0  0
   58.5750   30.2060   46.2940 C   0  0  0  0  0  0  0  0  0  0  0  0
   58.3750   31.5150   45.8270 C   0  0  0  0  0  0  0  0  0  0  0  0
   59.3880   32.5610   46.1180 C   0  0  0  0  0  0  0  0  0  0  0  0
   59.2750   33.9280   45.8700 C   0  0  0  0  0  0  0  0  0  0  0  0
   60.4150   34.6570   46.2330 C   0  0  0  0  0  0  0  0  0  0  0  0
   61.4330   33.8770   46.7630 C   0  0  0  0  0  0  0  0  0  0  0  0
   60.9160   32.2800   46.7740 S   0  0  0  0  0  0  0  0  0  0  0  0
   57.1970   31.7910   45.1040 C   0  0  0  0  0  0  0  0  0  0  0  0
   56.9410   32.9550   44.6980 O   0  0  0  0  0  0  0  0  0  0  0  0
   56.3050   30.7990   44.8580 N   0  0  0  0  0  0  0  0  0  0  0  0
   56.4890   29.5250   45.2880 C   0  0  0  0  0  0  0  0  0  0  0  0
   55.5210   28.5730   44.9900 O   0  0  0  0  0  0  0  0  0  0  0  0
   58.2201   24.4982   44.3234 H   0  0  0  0  0  0  0  0  0  0  0  0
   56.4227   22.8235   43.8707 H   0  0  0  0  0  0  0  0  0  0  0  0
   54.1001   23.2390   44.6996 H   0  0  0  0  0  0  0  0  0  0  0  0
   53.6165   25.3133   46.0046 H   0  0  0  0  0  0  0  0  0  0  0  0
   55.3680   26.8570   46.4550 H   0  0  0  0  0  0  0  0  0  0  0  0
   59.4779   29.9724   46.8773 H   0  0  0  0  0  0  0  0  0  0  0  0
   58.3778   34.3896   45.4318 H   0  0  0  0  0  0  0  0  0  0  0  0
   60.4957   35.7470   46.1093 H   0  0  0  0  0  0  0  0  0  0  0  0
   62.4093   34.2419   47.1148 H   0  0  0  0  0  0  0  0  0  0  0  0
  1  2  2  0
  2  3  1  0
  3  4  2  3
  4  5  1  0
  5  6  2  0
  6  7  1  0
  7  8  2  0
  8  9  1  0
  2 10  1  0
 10 11  1  0
 11 12  2  0
 12 13  1  0
 13 14  2  0
 14 15  1  0
 15 16  2  0
 16 17  1  0
 12 18  1  0
 18 19  2  0
 18 20  1  0
 20 21  1  0
 21 22  1  0
  9  4  1  0
 21 10  2  0
 17 13  1  0
  5 23  1  0
  6 24  1  0
  7 25  1  0
  8 26  1  0
  9 27  1  0
 11 28  1  0
 14 29  1  0
 15 30  1  0
 16 31  1  0
M  CHG  2  20  -1  22  -1
M  END
>  <UniqueID>  (51) 
47

>  <SMILES>  (51) 
O=C(N=c1cccc[nH]1)c1cc(-c2cccs2)c(=O)[n-]c1[O-]

>  <Energy>  (51) 
75.41409713565346

>  <Genealogy>  (51) 
O=C(N=c1cccc[nH]1)c1cc(-c2cccs2)c(=O)[n-]c1[O-] (protonated)
O=C(N=c1cccc[nH]1)c1cc(-c2cccs2)c(=O)[n-]c1[O-] (3D coordinates assigned)
O=C(N=c1cccc[nH]1)c1cc(-c2cccs2)c(=O)[n-]c1[O-] (optimized conformer: 75.41409713565346 kcal/mol)

>  <smiles>  (51) 
O=C(N=c1cccc[nH]1)c1cc(-c2cccs2)c(=O)[nH]c1O

>  <score_type>  (51) 
oracle

>  <origin>  (51) 
adg

>  <m_score__min__energy>  (51) 
-12.25

>  <m_primary>  (51) 
energy

$$$$
51:0
     RDKit          3D

 51 54  0  0  0  0  0  0  0  0999 V2000
   58.5210   29.3790   48.9390 C   0  0  0  0  0  0  0  0  0  0  0  0
   58.6510   30.0170   47.7640 C   0  0  0  0  0  0  0  0  0  0  0  0
   58.8140   29.4330   46.4980 C   0  0  0  0  0  0  0  0  0  0  0  0
   58.6950   28.1540   46.0900 C   0  0  0  0  0  0  0  0  0  0  0  0
   57.5040   27.3070   46.2540 C   0  0  0  0  0  0  0  0  0  0  0  0
   57.5220   26.1100   46.8660 N   0  0  0  0  0  0  0  0  0  0  0  0
   56.2690   25.6410   46.6740 C   0  0  0  0  0  0  0  0  0  0  0  0
   55.8850   24.5290   47.1220 O   0  0  0  0  0  0  0  0  0  0  0  0
   55.4650   26.4510   45.9530 N   0  0  0  0  0  0  0  0  0  0  0  0
   56.2660   27.4950   45.6810 C   0  0  0  0  0  0  0  0  0  0  0  0
   55.8850   28.5860   44.9050 O   0  0  0  0  0  0  0  0  0  0  0  0
   59.1400   30.4650   45.6350 C   0  0  0  0  0  0  0  0  0  0  0  0
   59.1130   31.6290   46.3740 C   0  0  0  0  0  0  0  0  0  0  0  0
   59.3750   32.9970   45.8050 C   0  0  0  0  0  0  0  0  0  0  0  0
   60.1760   33.8350   46.7680 C   0  0  0  0  0  0  0  0  0  0  0  0
   59.9590   35.0770   46.8230 O   0  0  0  0  0  0  0  0  0  0  0  0
   61.1840   33.2540   47.6190 N   0  0  0  0  0  0  0  0  0  0  0  0
   61.8630   32.0050   47.2470 C   0  0  0  0  0  0  0  0  0  0  0  0
   63.3240   32.0220   47.7100 C   0  0  0  0  0  0  0  0  0  0  0  0
   63.4560   32.4560   49.1090 N   0  0  0  0  0  0  0  0  0  0  0  0
   64.7180   32.2790   49.7840 C   0  0  0  0  0  0  0  0  0  0  0  0
   64.9450   31.1760   50.5530 N   0  0  0  0  0  0  0  0  0  0  0  0
   66.1280   30.9950   51.1950 C   0  0  0  0  0  0  0  0  0  0  0  0
   67.1380   31.9470   51.0710 C   0  0  0  0  0  0  0  0  0  0  0  0
   66.8980   33.0700   50.2820 C   0  0  0  0  0  0  0  0  0  0  0  0
   65.7020   33.2150   49.6560 N   0  0  0  0  0  0  0  0  0  0  0  0
   62.2870   32.9790   49.8280 C   0  0  0  0  0  0  0  0  0  0  0  0
   61.4630   33.8900   48.9140 C   0  0  0  0  0  0  0  0  0  0  0  0
   58.7910   31.3650   47.6620 N   0  0  0  0  0  0  0  0  0  0  0  0
   58.7270   32.3380   48.7600 C   0  0  0  0  0  0  0  0  0  0  0  0
   58.3988   29.9559   49.8675 H   0  0  0  0  0  0  0  0  0  0  0  0
   58.5368   28.2796   48.9726 H   0  0  0  0  0  0  0  0  0  0  0  0
   59.5655   27.7040   45.5903 H   0  0  0  0  0  0  0  0  0  0  0  0
   56.0260   28.5810   43.9030 H   0  0  0  0  0  0  0  0  0  0  0  0
   59.3756   30.3740   44.5644 H   0  0  0  0  0  0  0  0  0  0  0  0
   59.9356   32.8945   44.8641 H   0  0  0  0  0  0  0  0  0  0  0  0
   58.4102   33.4937   45.6249 H   0  0  0  0  0  0  0  0  0  0  0  0
   61.3445   31.1579   47.7198 H   0  0  0  0  0  0  0  0  0  0  0  0
   61.8410   31.9039   46.1519 H   0  0  0  0  0  0  0  0  0  0  0  0
   63.7388   31.0079   47.6126 H   0  0  0  0  0  0  0  0  0  0  0  0
   63.8707   32.7390   47.0799 H   0  0  0  0  0  0  0  0  0  0  0  0
   66.2886   30.0985   51.8118 H   0  0  0  0  0  0  0  0  0  0  0  0
   68.1021   31.8150   51.5840 H   0  0  0  0  0  0  0  0  0  0  0  0
   67.6767   33.8383   50.1664 H   0  0  0  0  0  0  0  0  0  0  0  0
   61.6609   32.1385   50.1622 H   0  0  0  0  0  0  0  0  0  0  0  0
   62.6320   33.5609   50.6953 H   0  0  0  0  0  0  0  0  0  0  0  0
   60.5089   34.1228   49.4095 H   0  0  0  0  0  0  0  0  0  0  0  0
   62.0448   34.8048   48.7278 H   0  0  0  0  0  0  0  0  0  0  0  0
   58.7619   31.8072   49.7228 H   0  0  0  0  0  0  0  0  0  0  0  0
   59.5818   33.0268   48.6898 H   0  0  0  0  0  0  0  0  0  0  0  0
   57.7894   32.9089   48.6898 H   0  0  0  0  0  0  0  0  0  0  0  0
  1  2  2  0
  2  3  1  0
  3  4  2  3
  4  5  1  0
  5  6  1  0
  6  7  1  0
  7  8  2  0
  7  9  1  0
  9 10  1  0
 10 11  1  0
  3 12  1  0
 12 13  2  0
 13 14  1  0
 14 15  1  0
 15 16  2  0
 15 17  1  0
 17 18  1  0
 18 19  1  0
 19 20  1  0
 20 21  1  0
 21 22  2  0
 22 23  1  0
 23 24  2  0
 24 25  1  0
 25 26  2  0
 20 27  1  0
 27 28  1  0
 13 29  1  0
 29 30  1  0
 29  2  1  0
 10  5  2  0
 28 17  1  0
 26 21  1  0
  1 31  1  0
  1 32  1  0
  4 33  1  0
 11 34  1  0
 12 35  1  0
 14 36  1  0
 14 37  1  0
 18 38  1  0
 18 39  1  0
 19 40  1  0
 19 41  1  0
 23 42  1  0
 24 43  1  0
 25 44  1  0
 27 45  1  0
 27 46  1  0
 28 47  1  0
 28 48  1  0
 30 49  1  0
 30 50  1  0
 30 51  1  0
M  CHG  2   6  -1   9  -1
M  END
>  <UniqueID>  (52) 
48

>  <SMILES>  (52) 
C=c1c(=Cc2[n-]c(=O)[n-]c2O)cc(CC(=O)N2CCN(c3ncccn3)CC2)n1C

>  <Energy>  (52) 
124.33658124719665

>  <Genealogy>  (52) 
C=c1c(=Cc2[n-]c(=O)[n-]c2O)cc(CC(=O)N2CCN(c3ncccn3)CC2)n1C (protonated)
C=c1c(=Cc2[n-]c(=O)[n-]c2O)cc(CC(=O)N2CCN(c3ncccn3)CC2)n1C (3D coordinates assigned)
C=c1c(=Cc2[n-]c(=O)[n-]c2O)cc(CC(=O)N2CCN(c3ncccn3)CC2)n1C (nonaromatic ring conformer: 124.33658124719665 kcal/mol)

>  <smiles>  (52) 
C=c1c(=Cc2[nH]c(=O)[nH]c2O)cc(CC(=O)N2CCN(c3ncccn3)CC2)n1C

>  <score_type>  (52) 
oracle

>  <origin>  (52) 
adg

>  <m_score__min__energy>  (52) 
-13.01

>  <m_primary>  (52) 
energy

$$$$
52:0
     RDKit          3D

 52 55  0  0  0  0  0  0  0  0999 V2000
   59.1570   22.1590   44.3790 C   0  0  0  0  0  0  0  0  0  0  0  0
   58.3040   22.8570   45.1360 C   0  0  0  0  0  0  0  0  0  0  0  0
   58.6760   24.0960   45.5530 N   0  0  0  0  0  0  0  0  0  0  0  0
   57.9110   24.8540   46.3860 C   0  0  0  0  0  0  0  0  0  0  0  0
   58.3260   26.0810   46.7510 C   0  0  0  0  0  0  0  0  0  0  0  0
   58.0710   27.2890   45.9410 C   0  0  0  0  0  0  0  0  0  0  0  0
   59.1410   27.9830   45.4870 N   0  0  0  0  0  0  0  0  0  0  0  0
   59.0050   29.1240   44.7660 C   0  0  0  0  0  0  0  0  0  0  0  0
   60.0430   29.7250   44.3810 O   0  0  0  0  0  0  0  0  0  0  0  0
   57.7570   29.6130   44.4690 N   0  0  0  0  0  0  0  0  0  0  0  0
   57.6190   30.8870   43.7360 C   0  0  0  0  0  0  0  0  0  0  0  0
   57.9460   32.0500   44.6370 C   0  0  0  0  0  0  0  0  0  0  0  0
   58.3780   33.2710   44.0920 C   0  0  0  0  0  0  0  0  0  0  0  0
   58.6460   34.3610   44.9260 C   0  0  0  0  0  0  0  0  0  0  0  0
   58.4850   34.2400   46.3100 C   0  0  0  0  0  0  0  0  0  0  0  0
   58.0550   33.0300   46.8600 C   0  0  0  0  0  0  0  0  0  0  0  0
   57.7830   31.9390   46.0290 C   0  0  0  0  0  0  0  0  0  0  0  0
   56.6450   28.9260   44.8890 C   0  0  0  0  0  0  0  0  0  0  0  0
   55.4900   29.3520   44.6080 O   0  0  0  0  0  0  0  0  0  0  0  0
   56.7750   27.7350   45.6240 C   0  0  0  0  0  0  0  0  0  0  0  0
   55.6090   26.9790   45.9930 N   0  0  0  0  0  0  0  0  0  0  0  0
   56.6880   24.3210   46.8380 C   0  0  0  0  0  0  0  0  0  0  0  0
   55.9420   24.9620   47.6260 O   0  0  0  0  0  0  0  0  0  0  0  0
   56.3000   23.0910   46.4140 N   0  0  0  0  0  0  0  0  0  0  0  0
   57.0510   22.3480   45.5580 C   0  0  0  0  0  0  0  0  0  0  0  0
   56.5090   21.0410   45.1270 C   0  0  0  0  0  0  0  0  0  0  0  0
   55.2690   20.6100   45.4050 C   0  0  0  0  0  0  0  0  0  0  0  0
   54.4870   21.0180   46.5920 C   0  0  0  0  0  0  0  0  0  0  0  0
   54.9350   20.6250   47.8640 C   0  0  0  0  0  0  0  0  0  0  0  0
   54.2160   20.9810   49.0080 C   0  0  0  0  0  0  0  0  0  0  0  0
   53.0550   21.7480   48.8940 C   0  0  0  0  0  0  0  0  0  0  0  0
   52.6190   22.1760   47.6380 C   0  0  0  0  0  0  0  0  0  0  0  0
   53.3370   21.8280   46.4880 C   0  0  0  0  0  0  0  0  0  0  0  0
   52.9150   22.3130   45.2540 O   0  0  0  0  0  0  0  0  0  0  0  0
   58.8836   21.1535   44.0266 H   0  0  0  0  0  0  0  0  0  0  0  0
   60.1321   22.5903   44.1087 H   0  0  0  0  0  0  0  0  0  0  0  0
   58.8801   26.1889   47.6951 H   0  0  0  0  0  0  0  0  0  0  0  0
   58.3079   30.8881   42.8784 H   0  0  0  0  0  0  0  0  0  0  0  0
   56.5806   30.9871   43.3871 H   0  0  0  0  0  0  0  0  0  0  0  0
   58.5060   33.3699   43.0040 H   0  0  0  0  0  0  0  0  0  0  0  0
   58.9837   35.3142   44.4932 H   0  0  0  0  0  0  0  0  0  0  0  0
   58.6970   35.0976   46.9654 H   0  0  0  0  0  0  0  0  0  0  0  0
   57.9302   32.9354   47.9488 H   0  0  0  0  0  0  0  0  0  0  0  0
   57.4400   30.9897   46.4662 H   0  0  0  0  0  0  0  0  0  0  0  0
   55.6060   25.9350   45.9470 H   0  0  0  0  0  0  0  0  0  0  0  0
   54.7540   27.4390   46.3740 H   0  0  0  0  0  0  0  0  0  0  0  0
   57.1644   20.3799   44.5410 H   0  0  0  0  0  0  0  0  0  0  0  0
   54.8021   19.9048   44.7017 H   0  0  0  0  0  0  0  0  0  0  0  0
   55.8574   20.0334   47.9601 H   0  0  0  0  0  0  0  0  0  0  0  0
   54.5651   20.6566   49.9994 H   0  0  0  0  0  0  0  0  0  0  0  0
   52.4829   22.0156   49.7946 H   0  0  0  0  0  0  0  0  0  0  0  0
   51.7091   22.7881   47.5524 H   0  0  0  0  0  0  0  0  0  0  0  0
  1  2  2  0
  2  3  1  0
  3  4  1  0
  4  5  2  3
  5  6  1  0
  6  7  1  0
  7  8  1  0
  8  9  2  0
  8 10  1  0
 10 11  1  0
 11 12  1  0
 12 13  2  0
 13 14  1  0
 14 15  2  0
 15 16  1  0
 16 17  2  0
 10 18  1  0
 18 19  2  0
 18 20  1  0
 20 21  1  0
  4 22  1  0
 22 23  2  0
 22 24  1  0
 24 25  2  0
 25 26  1  0
 26 27  2  3
 27 28  1  0
 28 29  2  0
 29 30  1  0
 30 31  2  0
 31 32  1  0
 32 33  2  0
 33 34  1  0
 25  2  1  0
 33 28  1  0
 20  6  2  0
 17 12  1  0
  1 35  1  0
  1 36  1  0
  5 37  1  0
 11 38  1  0
 11 39  1  0
 13 40  1  0
 14 41  1  0
 15 42  1  0
 16 43  1  0
 17 44  1  0
 21 45  1  0
 21 46  1  0
 26 47  1  0
 27 48  1  0
 29 49  1  0
 30 50  1  0
 31 51  1  0
 32 52  1  0
M  CHG  3   3  -1   7  -1  34  -1
M  END
>  <UniqueID>  (53) 
49

>  <SMILES>  (53) 
C=c1[n-]c(=Cc2[n-]c(=O)n(Cc3ccccc3)c(=O)c2N)c(=O)nc1C=Cc1ccccc1[O-]

>  <Energy>  (53) 
86.51839401886384

>  <Genealogy>  (53) 
C=c1[n-]c(=Cc2[n-]c(=O)n(Cc3ccccc3)c(=O)c2N)c(=O)nc1C=Cc1ccccc1[O-] (protonated)
C=c1[n-]c(=Cc2[n-]c(=O)n(Cc3ccccc3)c(=O)c2N)c(=O)nc1C=Cc1ccccc1[O-] (3D coordinates assigned)
C=c1[n-]c(=Cc2[n-]c(=O)n(Cc3ccccc3)c(=O)c2N)c(=O)nc1C=Cc1ccccc1[O-] (optimized conformer: 86.51839401886384 kcal/mol)

>  <smiles>  (53) 
C=c1[nH]c(=Cc2[nH]c(=O)n(Cc3ccccc3)c(=O)c2N)c(=O)nc1C=Cc1ccccc1O

>  <score_type>  (53) 
oracle

>  <origin>  (53) 
adg

>  <m_score__min__energy>  (53) 
-15.109999999999999

>  <m_primary>  (53) 
energy

$$$$
53:0
     RDKit          3D

 32 33  0  0  0  0  0  0  0  0999 V2000
   59.2600   35.3380   46.7440 N   0  0  0  0  0  0  0  0  0  0  0  0
   58.8540   34.0290   47.1490 C   0  0  0  0  0  0  0  0  0  0  0  0
   58.9370   33.7110   48.3660 O   0  0  0  0  0  0  0  0  0  0  0  0
   58.3080   33.0530   46.1740 C   0  0  0  0  0  0  0  0  0  0  0  0
   58.3130   31.6860   46.4790 C   0  0  0  0  0  0  0  0  0  0  0  0
   57.8030   30.7520   45.6150 N   0  0  0  0  0  0  0  0  0  0  0  0
   57.8750   29.3360   46.0600 C   0  0  1  0  0  0  0  0  0  0  0  0
   56.8220   28.5460   45.5540 O   0  0  0  0  0  0  0  0  0  0  0  0
   57.3650   27.2940   45.1790 C   0  0  2  0  0  0  0  0  0  0  0  0
   56.4860   26.1630   45.7280 C   0  0  0  0  0  0  0  0  0  0  0  0
   55.1940   26.6410   45.9840 O   0  0  0  0  0  0  0  0  0  0  0  0
   58.8360   27.2210   45.6140 C   0  0  2  0  0  0  0  0  0  0  0  0
   58.9680   26.5970   46.8680 O   0  0  0  0  0  0  0  0  0  0  0  0
   59.2140   28.6810   45.7250 C   0  0  1  0  0  0  0  0  0  0  0  0
   59.7760   29.1750   44.5300 O   0  0  0  0  0  0  0  0  0  0  0  0
   57.3140   31.1760   44.3920 C   0  0  0  0  0  0  0  0  0  0  0  0
   56.7250   30.1520   43.2510 S   0  0  0  0  0  0  0  0  0  0  0  0
   57.3270   32.4970   44.0790 N   0  0  0  0  0  0  0  0  0  0  0  0
   57.8050   33.4370   44.9260 C   0  0  0  0  0  0  0  0  0  0  0  0
   57.8180   34.6420   44.5590 O   0  0  0  0  0  0  0  0  0  0  0  0
   59.0440   35.7030   45.7900 H   0  0  0  0  0  0  0  0  0  0  0  0
   59.6940   35.9870   47.4360 H   0  0  0  0  0  0  0  0  0  0  0  0
   58.7376   31.3530   47.4376 H   0  0  0  0  0  0  0  0  0  0  0  0
   57.7736   29.3809   47.1544 H   0  0  0  0  0  0  0  0  0  0  0  0
   57.3636   27.1735   44.0856 H   0  0  0  0  0  0  0  0  0  0  0  0
   56.4338   25.3505   44.9883 H   0  0  0  0  0  0  0  0  0  0  0  0
   56.9241   25.7876   46.6645 H   0  0  0  0  0  0  0  0  0  0  0  0
   55.1420   27.5340   45.5560 H   0  0  0  0  0  0  0  0  0  0  0  0
   59.4616   26.6408   44.9197 H   0  0  0  0  0  0  0  0  0  0  0  0
   58.3120   27.0330   47.4720 H   0  0  0  0  0  0  0  0  0  0  0  0
   59.9928   28.8804   46.4758 H   0  0  0  0  0  0  0  0  0  0  0  0
   59.0410   29.4050   43.9050 H   0  0  0  0  0  0  0  0  0  0  0  0
  1  2  1  0
  2  3  2  0
  2  4  1  0
  4  5  2  0
  5  6  1  0
  6  7  1  0
  7  8  1  0
  8  9  1  0
  9 10  1  0
 10 11  1  0
  9 12  1  0
 12 13  1  0
 12 14  1  0
 14 15  1  0
  6 16  1  0
 16 17  2  0
 16 18  1  0
 18 19  1  0
 19 20  2  0
 19  4  1  0
 14  7  1  0
  1 21  1  0
  1 22  1  0
  5 23  1  0
  7 24  1  1
  9 25  1  6
 10 26  1  0
 10 27  1  0
 11 28  1  0
 12 29  1  6
 13 30  1  0
 14 31  1  1
 15 32  1  0
M  CHG  1  18  -1
M  END
>  <UniqueID>  (54) 
50

>  <SMILES>  (54) 
NC(=O)c1cn([C@H]2O[C@H](CO)C(O)C2O)c(=S)[n-]c1=O

>  <Energy>  (54) 
47.50170148965385

>  <Genealogy>  (54) 
NC(=O)c1cn(C2OC(CO)C(O)C2O)c(=S)[n-]c1=O (protonated)
NC(=O)c1cn([C@H]2O[C@H](CO)C(O)C2O)c(=S)[n-]c1=O (chirality)
NC(=O)c1cn([C@H]2O[C@H](CO)C(O)C2O)c(=S)[n-]c1=O (3D coordinates assigned)
NC(=O)c1cn([C@H]2O[C@H](CO)C(O)C2O)c(=S)[n-]c1=O (nonaromatic ring conformer: 47.50170148965385 kcal/mol)

>  <smiles>  (54) 
NC(=O)c1cn(C2OC(CO)C(O)C2O)c(=S)[nH]c1=O

>  <score_type>  (54) 
oracle

>  <origin>  (54) 
adg

>  <m_score__min__energy>  (54) 
-7.75

>  <m_primary>  (54) 
energy

$$$$
54:0
     RDKit          3D

 63 67  0  0  0  0  0  0  0  0999 V2000
   58.8940   29.8680   48.1090 C   0  0  0  0  0  0  0  0  0  0  0  0
   58.4150   29.5970   46.8850 C   0  0  0  0  0  0  0  0  0  0  0  0
   57.7850   28.4180   46.4580 C   0  0  0  0  0  0  0  0  0  0  0  0
   57.6720   27.2110   47.0460 C   0  0  0  0  0  0  0  0  0  0  0  0
   57.1640   25.9880   46.4040 C   0  0  0  0  0  0  0  0  0  0  0  0
   57.9340   24.9450   46.0190 N   0  0  0  0  0  0  0  0  0  0  0  0
   57.0790   24.1470   45.3420 C   0  0  0  0  0  0  0  0  0  0  0  0
   57.4340   23.0620   44.8100 O   0  0  0  0  0  0  0  0  0  0  0  0
   55.8230   24.6350   45.2720 N   0  0  0  0  0  0  0  0  0  0  0  0
   54.6990   24.1000   44.5130 C   0  0  0  0  0  0  0  0  0  0  0  0
   55.8890   25.8130   45.9120 C   0  0  0  0  0  0  0  0  0  0  0  0
   54.8360   26.7130   46.0230 O   0  0  0  0  0  0  0  0  0  0  0  0
   57.2600   28.6910   45.2030 C   0  0  0  0  0  0  0  0  0  0  0  0
   57.6360   29.9790   44.8850 C   0  0  0  0  0  0  0  0  0  0  0  0
   57.2860   30.6890   43.6130 C   0  0  0  0  0  0  0  0  0  0  0  0
   58.3490   30.5220   45.8940 N   0  0  0  0  0  0  0  0  0  0  0  0
   58.8060   31.8830   45.9440 C   0  0  0  0  0  0  0  0  0  0  0  0
   60.1280   32.1590   46.3130 C   0  0  0  0  0  0  0  0  0  0  0  0
   60.5810   33.4850   46.4060 C   0  0  0  0  0  0  0  0  0  0  0  0
   61.9710   33.7700   46.8250 C   0  0  0  0  0  0  0  0  0  0  0  0
   62.7810   34.2690   45.9970 O   0  0  0  0  0  0  0  0  0  0  0  0
   62.4150   33.4770   48.1610 N   0  0  0  0  0  0  0  0  0  0  0  0
   63.7120   32.8820   48.4200 C   0  0  0  0  0  0  0  0  0  0  0  0
   63.5080   31.5790   49.1810 C   0  0  0  0  0  0  0  0  0  0  0  0
   62.4590   31.6390   50.2280 N   0  0  0  0  0  0  0  0  0  0  0  0
   62.2910   30.4850   51.1120 C   0  0  0  0  0  0  0  0  0  0  0  0
   61.2550   29.5400   50.9020 C   0  0  0  0  0  0  0  0  0  0  0  0
   61.1020   28.4390   51.7490 C   0  0  0  0  0  0  0  0  0  0  0  0
   61.9720   28.2490   52.8200 C   0  0  0  0  0  0  0  0  0  0  0  0
   63.0020   29.1590   53.0480 C   0  0  0  0  0  0  0  0  0  0  0  0
   63.1640   30.2640   52.2070 C   0  0  0  0  0  0  0  0  0  0  0  0
   61.4790   32.7540   50.3270 C   0  0  0  0  0  0  0  0  0  0  0  0
   61.6710   33.9110   49.3330 C   0  0  0  0  0  0  0  0  0  0  0  0
   59.7010   34.5330   46.0840 C   0  0  0  0  0  0  0  0  0  0  0  0
   58.3820   34.2570   45.7100 C   0  0  0  0  0  0  0  0  0  0  0  0
   57.9300   32.9350   45.6470 C   0  0  0  0  0  0  0  0  0  0  0  0
   56.6480   32.6780   45.2870 F   0  0  0  0  0  0  0  0  0  0  0  0
   59.3687   30.8395   48.3112 H   0  0  0  0  0  0  0  0  0  0  0  0
   58.8119   29.1186   48.9101 H   0  0  0  0  0  0  0  0  0  0  0  0
   57.9868   27.1329   48.0971 H   0  0  0  0  0  0  0  0  0  0  0  0
   53.9288   23.7334   45.2076 H   0  0  0  0  0  0  0  0  0  0  0  0
   54.2741   24.8924   43.8794 H   0  0  0  0  0  0  0  0  0  0  0  0
   55.0461   23.2705   43.8794 H   0  0  0  0  0  0  0  0  0  0  0  0
   56.6594   28.0108   44.5813 H   0  0  0  0  0  0  0  0  0  0  0  0
   56.8110   31.6525   43.8496 H   0  0  0  0  0  0  0  0  0  0  0  0
   58.2006   30.8650   43.0277 H   0  0  0  0  0  0  0  0  0  0  0  0
   56.5894   30.0708   43.0277 H   0  0  0  0  0  0  0  0  0  0  0  0
   60.8176   31.3304   46.5319 H   0  0  0  0  0  0  0  0  0  0  0  0
   64.2227   32.6782   47.4673 H   0  0  0  0  0  0  0  0  0  0  0  0
   64.3285   33.5714   49.0156 H   0  0  0  0  0  0  0  0  0  0  0  0
   63.2284   30.7985   48.4581 H   0  0  0  0  0  0  0  0  0  0  0  0
   64.4554   31.3653   49.6975 H   0  0  0  0  0  0  0  0  0  0  0  0
   60.5610   29.6756   50.0594 H   0  0  0  0  0  0  0  0  0  0  0  0
   60.2903   27.7187   51.5689 H   0  0  0  0  0  0  0  0  0  0  0  0
   61.8460   27.3817   53.4848 H   0  0  0  0  0  0  0  0  0  0  0  0
   63.6902   29.0075   53.8927 H   0  0  0  0  0  0  0  0  0  0  0  0
   63.9824   30.9737   52.3981 H   0  0  0  0  0  0  0  0  0  0  0  0
   60.4749   32.3348   50.1654 H   0  0  0  0  0  0  0  0  0  0  0  0
   61.6289   33.1925   51.3246 H   0  0  0  0  0  0  0  0  0  0  0  0
   60.6843   34.2796   49.0159 H   0  0  0  0  0  0  0  0  0  0  0  0
   62.2401   34.7092   49.8320 H   0  0  0  0  0  0  0  0  0  0  0  0
   60.0515   35.5748   46.1264 H   0  0  0  0  0  0  0  0  0  0  0  0
   57.6977   35.0825   45.4645 H   0  0  0  0  0  0  0  0  0  0  0  0
  1  2  2  0
  2  3  1  0
  3  4  2  3
  4  5  1  0
  5  6  1  0
  6  7  1  0
  7  8  2  0
  7  9  1  0
  9 10  1  0
  9 11  1  0
 11 12  1  0
  3 13  1  0
 13 14  2  0
 14 15  1  0
 14 16  1  0
 16 17  1  0
 17 18  2  0
 18 19  1  0
 19 20  1  0
 20 21  2  0
 20 22  1  0
 22 23  1  0
 23 24  1  0
 24 25  1  0
 25 26  1  0
 26 27  2  0
 27 28  1  0
 28 29  2  0
 29 30  1  0
 30 31  2  0
 25 32  1  0
 32 33  1  0
 19 34  2  0
 34 35  1  0
 35 36  2  0
 36 37  1  0
 16  2  1  0
 36 17  1  0
 11  5  2  0
 33 22  1  0
 31 26  1  0
  1 38  1  0
  1 39  1  0
  4 40  1  0
 10 41  1  0
 10 42  1  0
 10 43  1  0
 13 44  1  0
 15 45  1  0
 15 46  1  0
 15 47  1  0
 18 48  1  0
 23 49  1  0
 23 50  1  0
 24 51  1  0
 24 52  1  0
 27 53  1  0
 28 54  1  0
 29 55  1  0
 30 56  1  0
 31 57  1  0
 32 58  1  0
 32 59  1  0
 33 60  1  0
 33 61  1  0
 34 62  1  0
 35 63  1  0
M  CHG  2   6  -1  12  -1
M  END
>  <UniqueID>  (55) 
51

>  <SMILES>  (55) 
C=c1c(=Cc2[n-]c(=O)n(C)c2[O-])cc(C)n1-c1cc(C(=O)N2CCN(c3ccccc3)CC2)ccc1F

>  <Energy>  (55) 
158.52559198166617

>  <Genealogy>  (55) 
C=c1c(=Cc2[n-]c(=O)n(C)c2[O-])cc(C)n1-c1cc(C(=O)N2CCN(c3ccccc3)CC2)ccc1F (protonated)
C=c1c(=Cc2[n-]c(=O)n(C)c2[O-])cc(C)n1-c1cc(C(=O)N2CCN(c3ccccc3)CC2)ccc1F (3D coordinates assigned)
C=c1c(=Cc2[n-]c(=O)n(C)c2[O-])cc(C)n1-c1cc(C(=O)N2CCN(c3ccccc3)CC2)ccc1F (nonaromatic ring conformer: 158.52559198166617 kcal/mol)

>  <smiles>  (55) 
C=c1c(=Cc2[nH]c(=O)n(C)c2O)cc(C)n1-c1cc(C(=O)N2CCN(c3ccccc3)CC2)ccc1F

>  <score_type>  (55) 
oracle

>  <origin>  (55) 
adg

>  <m_score__min__energy>  (55) 
-14.85

>  <m_primary>  (55) 
energy

$$$$
55:0
     RDKit          3D

 58 61  0  0  0  0  0  0  0  0999 V2000
   60.0330   27.1490   48.5800 C   0  0  0  0  0  0  0  0  0  0  0  0
   59.3530   27.8290   47.4200 C   0  0  0  0  0  0  0  0  0  0  0  0
   59.0570   27.1750   46.2130 C   0  0  0  0  0  0  0  0  0  0  0  0
   59.3570   25.7670   45.8600 C   0  0  0  0  0  0  0  0  0  0  0  0
   60.5280   25.3280   46.0160 O   0  0  0  0  0  0  0  0  0  0  0  0
   58.3400   24.8840   45.3480 N   0  0  0  0  0  0  0  0  0  0  0  0
   58.2890   23.4840   45.7800 C   0  0  0  0  0  0  0  0  0  0  0  0
   57.9170   22.5920   44.5930 C   0  0  0  0  0  0  0  0  0  0  0  0
   56.7420   23.0610   43.9570 O   0  0  0  0  0  0  0  0  0  0  0  0
   56.9820   24.3320   43.3840 C   0  0  0  0  0  0  0  0  0  0  0  0
   57.2710   25.3720   44.4710 C   0  0  0  0  0  0  0  0  0  0  0  0
   58.2370   28.2550   45.2130 S   0  0  0  0  0  0  0  0  0  0  0  0
   58.2400   29.5500   46.2820 C   0  0  0  0  0  0  0  0  0  0  0  0
   57.7810   30.8840   46.0140 N   0  0  0  0  0  0  0  0  0  0  0  0
   57.0640   31.3660   44.8690 C   0  0  0  0  0  0  0  0  0  0  0  0
   56.0950   30.6850   44.4410 O   0  0  0  0  0  0  0  0  0  0  0  0
   57.4300   32.6490   44.1720 C   0  0  0  0  0  0  0  0  0  0  0  0
   58.1330   33.5580   45.0760 N   0  0  0  0  0  0  0  0  0  0  0  0
   59.2790   34.2220   44.8240 C   0  0  0  0  0  0  0  0  0  0  0  0
   59.6350   34.9070   45.9670 C   0  0  0  0  0  0  0  0  0  0  0  0
   58.7150   34.6610   46.9190 N   0  0  0  0  0  0  0  0  0  0  0  0
   57.8170   33.8330   46.3550 C   0  0  0  0  0  0  0  0  0  0  0  0
   58.9150   29.1760   47.4390 C   0  0  0  0  0  0  0  0  0  0  0  0
   59.1580   30.1250   48.5430 C   0  0  0  0  0  0  0  0  0  0  0  0
   58.4320   30.0510   49.5700 O   0  0  0  0  0  0  0  0  0  0  0  0
   60.1920   31.1300   48.4650 N   0  0  0  0  0  0  0  0  0  0  0  0
   60.6350   31.6730   47.1690 C   0  0  0  0  0  0  0  0  0  0  0  0
   62.1660   31.7980   47.1170 C   0  0  0  0  0  0  0  0  0  0  0  0
   62.8020   32.2210   48.4610 C   0  0  0  0  0  0  0  0  0  0  0  0
   61.7740   32.7820   49.4480 C   0  0  0  0  0  0  0  0  0  0  0  0
   60.6710   31.7500   49.7110 C   0  0  0  0  0  0  0  0  0  0  0  0
   59.6339   27.5481   49.5242 H   0  0  0  0  0  0  0  0  0  0  0  0
   59.8457   26.0662   48.5313 H   0  0  0  0  0  0  0  0  0  0  0  0
   61.1158   27.3363   48.5313 H   0  0  0  0  0  0  0  0  0  0  0  0
   59.2739   23.1848   46.1679 H   0  0  0  0  0  0  0  0  0  0  0  0
   57.5320   23.3736   46.5704 H   0  0  0  0  0  0  0  0  0  0  0  0
   58.7442   22.5939   43.8679 H   0  0  0  0  0  0  0  0  0  0  0  0
   57.7331   21.5727   44.9635 H   0  0  0  0  0  0  0  0  0  0  0  0
   57.8478   24.2657   42.7088 H   0  0  0  0  0  0  0  0  0  0  0  0
   56.0858   24.6431   42.8272 H   0  0  0  0  0  0  0  0  0  0  0  0
   57.5856   26.3153   44.0006 H   0  0  0  0  0  0  0  0  0  0  0  0
   56.3608   25.5418   45.0648 H   0  0  0  0  0  0  0  0  0  0  0  0
   58.0812   32.4194   43.3157 H   0  0  0  0  0  0  0  0  0  0  0  0
   56.5049   33.1389   43.8343 H   0  0  0  0  0  0  0  0  0  0  0  0
   59.8329   34.2181   43.8736 H   0  0  0  0  0  0  0  0  0  0  0  0
   60.5221   35.5472   46.0817 H   0  0  0  0  0  0  0  0  0  0  0  0
   58.7100   35.0240   47.8990 H   0  0  0  0  0  0  0  0  0  0  0  0
   56.9346   33.4310   46.8744 H   0  0  0  0  0  0  0  0  0  0  0  0
   60.3017   31.0007   46.3647 H   0  0  0  0  0  0  0  0  0  0  0  0
   60.1977   32.6742   47.0412 H   0  0  0  0  0  0  0  0  0  0  0  0
   62.5842   30.8229   46.8268 H   0  0  0  0  0  0  0  0  0  0  0  0
   62.3990   32.5887   46.3887 H   0  0  0  0  0  0  0  0  0  0  0  0
   63.2834   31.3423   48.9150 H   0  0  0  0  0  0  0  0  0  0  0  0
   63.5300   33.0180   48.2490 H   0  0  0  0  0  0  0  0  0  0  0  0
   62.2763   33.0259   50.3957 H   0  0  0  0  0  0  0  0  0  0  0  0
   61.3216   33.6876   49.0176 H   0  0  0  0  0  0  0  0  0  0  0  0
   61.0690   30.9638   50.3694 H   0  0  0  0  0  0  0  0  0  0  0  0
   59.8231   32.2692   50.1816 H   0  0  0  0  0  0  0  0  0  0  0  0
  1  2  1  0
  2  3  2  0
  3  4  1  0
  4  5  2  0
  4  6  1  0
  6  7  1  0
  7  8  1  0
  8  9  1  0
  9 10  1  0
 10 11  1  0
  3 12  1  0
 12 13  1  0
 13 14  1  0
 14 15  1  0
 15 16  2  0
 15 17  1  0
 17 18  1  0
 18 19  1  0
 19 20  2  0
 20 21  1  0
 21 22  2  0
 13 23  2  0
 23 24  1  0
 24 25  2  0
 24 26  1  0
 26 27  1  0
 27 28  1  0
 28 29  1  0
 29 30  1  0
 30 31  1  0
 23  2  1  0
 31 26  1  0
 11  6  1  0
 22 18  1  0
  1 32  1  0
  1 33  1  0
  1 34  1  0
  7 35  1  0
  7 36  1  0
  8 37  1  0
  8 38  1  0
 10 39  1  0
 10 40  1  0
 11 41  1  0
 11 42  1  0
 17 43  1  0
 17 44  1  0
 19 45  1  0
 20 46  1  0
 21 47  1  0
 22 48  1  0
 27 49  1  0
 27 50  1  0
 28 51  1  0
 28 52  1  0
 29 53  1  0
 29 54  1  0
 30 55  1  0
 30 56  1  0
 31 57  1  0
 31 58  1  0
M  CHG  2  14  -1  21   1
M  END
>  <UniqueID>  (56) 
52

>  <SMILES>  (56) 
Cc1c(C(=O)N2CCOCC2)sc([N-]C(=O)Cn2cc[nH+]c2)c1C(=O)N1CCCCC1

>  <Energy>  (56) 
130.90316999974073

>  <Genealogy>  (56) 
Cc1c(C(=O)N2CCOCC2)sc([N-]C(=O)Cn2cc[nH+]c2)c1C(=O)N1CCCCC1 (protonated)
Cc1c(C(=O)N2CCOCC2)sc([N-]C(=O)Cn2cc[nH+]c2)c1C(=O)N1CCCCC1 (3D coordinates assigned)
Cc1c(C(=O)N2CCOCC2)sc([N-]C(=O)Cn2cc[nH+]c2)c1C(=O)N1CCCCC1 (nonaromatic ring conformer: 130.90316999974073 kcal/mol)

>  <smiles>  (56) 
Cc1c(C(=O)N2CCOCC2)sc(NC(=O)Cn2ccnc2)c1C(=O)N1CCCCC1

>  <score_type>  (56) 
oracle

>  <origin>  (56) 
adg

>  <m_score__min__energy>  (56) 
-9.1699999999999999

>  <m_primary>  (56) 
energy

$$$$
56:0
     RDKit          3D

 41 43  0  0  0  0  0  0  0  0999 V2000
   63.3880   33.8570   47.0200 C   0  0  0  0  0  0  0  0  0  0  0  0
   62.4370   32.8880   47.6560 C   0  0  0  0  0  0  0  0  0  0  0  0
   61.7150   33.2560   48.8020 C   0  0  0  0  0  0  0  0  0  0  0  0
   60.8550   32.3420   49.4180 C   0  0  0  0  0  0  0  0  0  0  0  0
   60.7160   31.0460   48.9010 C   0  0  0  0  0  0  0  0  0  0  0  0
   59.6480   29.8780   49.6710 S   0  0  0  0  0  0  0  0  0  0  0  0
   58.3050   30.5140   49.8940 O   0  0  0  0  0  0  0  0  0  0  0  0
   60.2020   29.4370   50.9970 O   0  0  0  0  0  0  0  0  0  0  0  0
   59.4630   28.4970   48.6430 N   0  0  0  0  0  0  0  0  0  0  0  0
   58.9900   28.6020   47.2990 C   0  0  0  0  0  0  0  0  0  0  0  0
   59.2390   27.6870   46.4690 O   0  0  0  0  0  0  0  0  0  0  0  0
   58.2580   29.7690   46.9050 N   0  0  0  0  0  0  0  0  0  0  0  0
   57.6170   29.9210   45.6280 C   0  0  0  0  0  0  0  0  0  0  0  0
   56.7850   28.7080   44.8050 S   0  0  0  0  0  0  0  0  0  0  0  0
   56.1940   29.6900   43.5760 C   0  0  0  0  0  0  0  0  0  0  0  0
   56.6300   30.9900   43.8040 C   0  0  0  0  0  0  0  0  0  0  0  0
   57.4270   31.1320   44.9540 C   0  0  0  0  0  0  0  0  0  0  0  0
   58.0140   32.4270   45.3630 C   0  0  0  0  0  0  0  0  0  0  0  0
   58.5280   33.3090   44.3960 C   0  0  0  0  0  0  0  0  0  0  0  0
   59.0970   34.5260   44.7810 C   0  0  0  0  0  0  0  0  0  0  0  0
   59.1700   34.8740   46.1330 C   0  0  0  0  0  0  0  0  0  0  0  0
   59.7400   36.0910   46.5010 O   0  0  0  0  0  0  0  0  0  0  0  0
   58.6720   33.9960   47.1040 C   0  0  0  0  0  0  0  0  0  0  0  0
   58.1020   32.7780   46.7230 C   0  0  0  0  0  0  0  0  0  0  0  0
   61.4500   30.6700   47.7680 C   0  0  0  0  0  0  0  0  0  0  0  0
   62.3110   31.5830   47.1520 C   0  0  0  0  0  0  0  0  0  0  0  0
   63.9287   34.4080   47.8036 H   0  0  0  0  0  0  0  0  0  0  0  0
   64.1075   33.3079   46.3949 H   0  0  0  0  0  0  0  0  0  0  0  0
   62.8255   34.5661   46.3949 H   0  0  0  0  0  0  0  0  0  0  0  0
   61.8264   34.2684   49.2174 H   0  0  0  0  0  0  0  0  0  0  0  0
   60.2858   32.6403   50.3107 H   0  0  0  0  0  0  0  0  0  0  0  0
   58.1900   30.5510   47.5950 H   0  0  0  0  0  0  0  0  0  0  0  0
   55.5681   29.3599   42.7338 H   0  0  0  0  0  0  0  0  0  0  0  0
   56.3746   31.8322   43.1441 H   0  0  0  0  0  0  0  0  0  0  0  0
   58.4820   33.0396   43.3305 H   0  0  0  0  0  0  0  0  0  0  0  0
   59.4892   35.2132   44.0168 H   0  0  0  0  0  0  0  0  0  0  0  0
   59.2610   36.7340   47.1200 H   0  0  0  0  0  0  0  0  0  0  0  0
   58.7296   34.2656   48.1689 H   0  0  0  0  0  0  0  0  0  0  0  0
   57.7198   32.0895   47.4910 H   0  0  0  0  0  0  0  0  0  0  0  0
   61.3483   29.6528   47.3619 H   0  0  0  0  0  0  0  0  0  0  0  0
   62.8921   31.2782   46.2691 H   0  0  0  0  0  0  0  0  0  0  0  0
  1  2  1  0
  2  3  2  0
  3  4  1  0
  4  5  2  0
  5  6  1  0
  6  7  2  0
  6  8  2  0
  6  9  1  0
  9 10  1  0
 10 11  2  0
 10 12  1  0
 12 13  1  0
 13 14  1  0
 14 15  1  0
 15 16  2  0
 16 17  1  0
 17 18  1  0
 18 19  2  0
 19 20  1  0
 20 21  2  0
 21 22  1  0
 21 23  1  0
 23 24  2  0
  5 25  1  0
 25 26  2  0
 26  2  1  0
 17 13  2  0
 24 18  1  0
  1 27  1  0
  1 28  1  0
  1 29  1  0
  3 30  1  0
  4 31  1  0
 12 32  1  0
 15 33  1  0
 16 34  1  0
 19 35  1  0
 20 36  1  0
 22 37  1  0
 23 38  1  0
 24 39  1  0
 25 40  1  0
 26 41  1  0
M  CHG  1   9  -1
M  END
>  <UniqueID>  (57) 
53

>  <SMILES>  (57) 
Cc1ccc(S(=O)(=O)[N-]C(=O)Nc2sccc2-c2ccc(O)cc2)cc1

>  <Energy>  (57) 
76.92145745369683

>  <Genealogy>  (57) 
Cc1ccc(S(=O)(=O)[N-]C(=O)Nc2sccc2-c2ccc(O)cc2)cc1 (protonated)
Cc1ccc(S(=O)(=O)[N-]C(=O)Nc2sccc2-c2ccc(O)cc2)cc1 (3D coordinates assigned)
Cc1ccc(S(=O)(=O)[N-]C(=O)Nc2sccc2-c2ccc(O)cc2)cc1 (optimized conformer: 76.92145745369683 kcal/mol)

>  <smiles>  (57) 
Cc1ccc(S(=O)(=O)NC(=O)Nc2sccc2-c2ccc(O)cc2)cc1

>  <score_type>  (57) 
oracle

>  <origin>  (57) 
adg

>  <m_score__min__energy>  (57) 
-8.9900000000000002

>  <m_primary>  (57) 
energy

$$$$
57:0
     RDKit          3D

 56 59  0  0  0  0  0  0  0  0999 V2000
   55.2646   23.3697   45.9385 H   0  0  0  0  0  0  0  0  0  0  0  0
   55.9080   24.2000   45.6120 C   0  0  0  0  0  0  0  0  0  0  0  0
   56.1030   25.2690   46.4270 N   0  0  0  0  0  0  0  0  0  0  0  0
   56.8850   26.3260   46.0640 C   0  0  0  0  0  0  0  0  0  0  0  0
   57.0610   27.3410   46.8630 N   0  0  0  0  0  0  0  0  0  0  0  0
   58.2850   27.7410   47.4990 C   0  0  0  0  0  0  0  0  0  0  0  0
   59.1690   26.8920   47.8010 O   0  0  0  0  0  0  0  0  0  0  0  0
   58.4650   29.1190   47.8400 N   0  0  0  0  0  0  0  0  0  0  0  0
   59.5590   29.6570   48.5950 C   0  0  0  0  0  0  0  0  0  0  0  0
   59.4010   29.8270   49.9780 C   0  0  0  0  0  0  0  0  0  0  0  0
   58.4552   29.5383   50.4597 H   0  0  0  0  0  0  0  0  0  0  0  0
   60.4380   30.3610   50.7480 C   0  0  0  0  0  0  0  0  0  0  0  0
   60.3118   30.4766   51.8346 H   0  0  0  0  0  0  0  0  0  0  0  0
   61.6340   30.7480   50.1400 C   0  0  0  0  0  0  0  0  0  0  0  0
   62.6370   31.2690   50.8880 F   0  0  0  0  0  0  0  0  0  0  0  0
   61.7890   30.6130   48.7580 C   0  0  0  0  0  0  0  0  0  0  0  0
   62.7274   30.9288   48.2788 H   0  0  0  0  0  0  0  0  0  0  0  0
   60.7560   30.0780   47.9810 C   0  0  0  0  0  0  0  0  0  0  0  0
   60.9060   30.0300   46.6330 F   0  0  0  0  0  0  0  0  0  0  0  0
   57.5090   26.3270   44.8050 C   0  0  0  0  0  0  0  0  0  0  0  0
   58.3290   27.4080   44.4410 O   0  0  0  0  0  0  0  0  0  0  0  0
   57.8780   28.6970   44.1240 C   0  0  0  0  0  0  0  0  0  0  0  0
   57.0930   28.8720   42.9810 C   0  0  0  0  0  0  0  0  0  0  0  0
   56.8312   28.0030   42.3595 H   0  0  0  0  0  0  0  0  0  0  0  0
   56.6390   30.1430   42.6230 C   0  0  0  0  0  0  0  0  0  0  0  0
   56.0170   30.2707   41.7248 H   0  0  0  0  0  0  0  0  0  0  0  0
   56.9730   31.2530   43.4030 C   0  0  0  0  0  0  0  0  0  0  0  0
   56.6084   32.2509   43.1178 H   0  0  0  0  0  0  0  0  0  0  0  0
   57.7720   31.1030   44.5500 C   0  0  0  0  0  0  0  0  0  0  0  0
   58.1510   32.2720   45.3790 C   0  0  0  0  0  0  0  0  0  0  0  0
   58.3500   33.3850   44.8200 O   0  0  0  0  0  0  0  0  0  0  0  0
   58.3190   32.1520   46.8010 N   0  0  0  0  0  0  0  0  0  0  0  0
   58.2880   31.2100   47.2520 H   0  0  0  0  0  0  0  0  0  0  0  0
   58.6100   33.3030   47.6550 C   0  0  0  0  0  0  0  0  0  0  0  0
   58.1670   33.1377   48.6482 H   0  0  0  0  0  0  0  0  0  0  0  0
   58.1819   34.2049   47.1933 H   0  0  0  0  0  0  0  0  0  0  0  0
   60.1060   33.4920   47.8020 C   0  0  0  0  0  0  0  0  0  0  0  0
   60.9060   33.3680   46.6520 C   0  0  0  0  0  0  0  0  0  0  0  0
   60.4350   33.1373   45.6851 H   0  0  0  0  0  0  0  0  0  0  0  0
   62.2900   33.5340   46.7220 C   0  0  0  0  0  0  0  0  0  0  0  0
   62.9018   33.4407   45.8126 H   0  0  0  0  0  0  0  0  0  0  0  0
   62.8970   33.8180   47.9440 C   0  0  0  0  0  0  0  0  0  0  0  0
   63.9874   33.9533   47.9968 H   0  0  0  0  0  0  0  0  0  0  0  0
   62.1250   33.9310   49.1000 C   0  0  0  0  0  0  0  0  0  0  0  0
   62.6128   34.1505   50.0612 H   0  0  0  0  0  0  0  0  0  0  0  0
   60.7280   33.7670   49.0490 C   0  0  0  0  0  0  0  0  0  0  0  0
   59.9370   33.8790   50.3270 C   0  0  0  0  0  0  0  0  0  0  0  0
   60.6153   33.7830   51.1876 H   0  0  0  0  0  0  0  0  0  0  0  0
   59.4351   34.8572   50.3631 H   0  0  0  0  0  0  0  0  0  0  0  0
   59.1833   33.0786   50.3631 H   0  0  0  0  0  0  0  0  0  0  0  0
   58.2350   29.8190   44.8940 C   0  0  0  0  0  0  0  0  0  0  0  0
   58.8826   29.6916   45.7740 H   0  0  0  0  0  0  0  0  0  0  0  0
   57.3310   25.2180   43.9610 C   0  0  0  0  0  0  0  0  0  0  0  0
   57.8304   25.1884   42.9814 H   0  0  0  0  0  0  0  0  0  0  0  0
   56.5230   24.1550   44.3620 C   0  0  0  0  0  0  0  0  0  0  0  0
   56.3725   23.2902   43.6991 H   0  0  0  0  0  0  0  0  0  0  0  0
  1  2  1  0
  2  3  1  0
  3  4  1  0
  4  5  2  0
  5  6  1  0
  6  7  2  0
  6  8  1  0
  8  9  1  0
  9 10  2  0
 10 11  1  0
 10 12  1  0
 12 13  1  0
 12 14  2  0
 14 15  1  0
 14 16  1  0
 16 17  1  0
 16 18  2  0
 18 19  1  0
  4 20  1  0
 20 21  1  0
 21 22  1  0
 22 23  2  0
 23 24  1  0
 23 25  1  0
 25 26  1  0
 25 27  2  0
 27 28  1  0
 27 29  1  0
 29 30  1  0
 30 31  2  0
 30 32  1  0
 32 33  1  0
 32 34  1  0
 34 35  1  0
 34 36  1  0
 34 37  1  0
 37 38  2  0
 38 39  1  0
 38 40  1  0
 40 41  1  0
 40 42  2  0
 42 43  1  0
 42 44  1  0
 44 45  1  0
 44 46  2  0
 46 47  1  0
 47 48  1  0
 47 49  1  0
 47 50  1  0
 29 51  2  0
 51 52  1  0
 20 53  2  0
 53 54  1  0
 53 55  1  0
 55 56  1  0
 55  2  2  0
 18  9  1  0
 51 22  1  0
 46 37  1  0
M  CHG  2   3  -1   8  -1
M  END
>  <UniqueID>  (58) 
54

>  <SMILES>  (58) 
Cc1ccccc1CNC(=O)c1cccc(Oc2ccc[n-]/c2=N\C(=O)[N-]c2ccc(F)cc2F)c1

>  <Energy>  (58) 
77.82956279511403

>  <Genealogy>  (58) 
Cc1ccccc1CNC(=O)c1cccc(Oc2ccc[n-]c2=NC(=O)[N-]c2ccc(F)cc2F)c1 (protonated)
Cc1ccccc1CNC(=O)c1cccc(Oc2ccc[n-]/c2=N\C(=O)[N-]c2ccc(F)cc2F)c1 (cis-trans isomerization)
Cc1ccccc1CNC(=O)c1cccc(Oc2ccc[n-]/c2=N\C(=O)[N-]c2ccc(F)cc2F)c1 (3D coordinates assigned)
Cc1ccccc1CNC(=O)c1cccc(Oc2ccc[n-]/c2=N\C(=O)[N-]c2ccc(F)cc2F)c1 (optimized conformer: 77.82956279511403 kcal/mol)

>  <smiles>  (58) 
Cc1ccccc1CNC(=O)c1cccc(Oc2ccc[nH]c2=NC(=O)Nc2ccc(F)cc2F)c1

>  <score_type>  (58) 
oracle

>  <origin>  (58) 
adg

>  <m_score__min__energy>  (58) 
-13.01

>  <m_primary>  (58) 
energy

$$$$
58:0
     RDKit          3D

 35 36  0  0  0  0  0  0  0  0999 V2000
   54.7550   26.3380   45.9920 N   0  0  0  0  0  0  0  0  0  0  0  0
   56.0290   25.1710   45.9830 S   0  0  0  0  0  0  0  0  0  0  0  0
   56.1040   24.5190   44.6310 O   0  0  0  0  0  0  0  0  0  0  0  0
   55.7500   24.1140   47.0150 O   0  0  0  0  0  0  0  0  0  0  0  0
   57.5550   25.9700   46.3440 C   0  0  0  0  0  0  0  0  0  0  0  0
   58.7700   25.3180   46.0910 C   0  0  0  0  0  0  0  0  0  0  0  0
   59.9800   25.9510   46.3820 C   0  0  0  0  0  0  0  0  0  0  0  0
   59.9860   27.2360   46.9330 C   0  0  0  0  0  0  0  0  0  0  0  0
   58.7750   27.8940   47.2030 C   0  0  0  0  0  0  0  0  0  0  0  0
   58.7710   29.2840   47.7780 C   0  0  0  0  0  0  0  0  0  0  0  0
   59.1060   30.2580   46.7460 N   0  0  0  0  0  0  0  0  0  0  0  0
   58.1300   30.9400   45.9480 C   0  0  0  0  0  0  0  0  0  0  0  0
   57.1290   30.3060   45.5140 O   0  0  0  0  0  0  0  0  0  0  0  0
   58.2890   32.3390   45.6430 N   0  0  0  0  0  0  0  0  0  0  0  0
   59.5230   33.0350   46.0300 C   0  0  0  0  0  0  0  0  0  0  0  0
   59.2760   34.5430   46.1420 C   0  0  0  0  0  0  0  0  0  0  0  0
   58.6420   35.0370   44.9790 O   0  0  0  0  0  0  0  0  0  0  0  0
   57.3460   34.4830   44.8770 C   0  0  0  0  0  0  0  0  0  0  0  0
   57.4150   32.9720   44.6460 C   0  0  0  0  0  0  0  0  0  0  0  0
   57.5610   27.2550   46.9040 C   0  0  0  0  0  0  0  0  0  0  0  0
   55.2050   27.2810   46.0320 H   0  0  0  0  0  0  0  0  0  0  0  0
   58.7701   24.3051   45.6621 H   0  0  0  0  0  0  0  0  0  0  0  0
   60.9310   25.4374   46.1772 H   0  0  0  0  0  0  0  0  0  0  0  0
   60.9418   27.7329   47.1556 H   0  0  0  0  0  0  0  0  0  0  0  0
   57.7714   29.5085   48.1784 H   0  0  0  0  0  0  0  0  0  0  0  0
   59.5198   29.3415   48.5818 H   0  0  0  0  0  0  0  0  0  0  0  0
   59.8654   32.6511   47.0023 H   0  0  0  0  0  0  0  0  0  0  0  0
   60.2886   32.8561   45.2607 H   0  0  0  0  0  0  0  0  0  0  0  0
   58.6340   34.7393   47.0134 H   0  0  0  0  0  0  0  0  0  0  0  0
   60.2450   35.0507   46.2572 H   0  0  0  0  0  0  0  0  0  0  0  0
   56.7956   34.6802   45.8088 H   0  0  0  0  0  0  0  0  0  0  0  0
   56.8319   34.9462   44.0219 H   0  0  0  0  0  0  0  0  0  0  0  0
   56.4040   32.5465   44.7286 H   0  0  0  0  0  0  0  0  0  0  0  0
   57.8246   32.7836   43.6427 H   0  0  0  0  0  0  0  0  0  0  0  0
   56.6089   27.7658   47.1104 H   0  0  0  0  0  0  0  0  0  0  0  0
  1  2  1  0
  2  3  2  0
  2  4  2  0
  2  5  1  0
  5  6  2  0
  6  7  1  0
  7  8  2  0
  8  9  1  0
  9 10  1  0
 10 11  1  0
 11 12  1  0
 12 13  2  0
 12 14  1  0
 14 15  1  0
 15 16  1  0
 16 17  1  0
 17 18  1  0
 18 19  1  0
  9 20  2  0
 20  5  1  0
 19 14  1  0
  1 21  1  0
  6 22  1  0
  7 23  1  0
  8 24  1  0
 10 25  1  0
 10 26  1  0
 15 27  1  0
 15 28  1  0
 16 29  1  0
 16 30  1  0
 18 31  1  0
 18 32  1  0
 19 33  1  0
 19 34  1  0
 20 35  1  0
M  CHG  2   1  -1  11  -1
M  END
>  <UniqueID>  (59) 
55

>  <SMILES>  (59) 
[NH-]S(=O)(=O)c1cccc(C[N-]C(=O)N2CCOCC2)c1

>  <Energy>  (59) 
32.65729384219692

>  <Genealogy>  (59) 
[NH-]S(=O)(=O)c1cccc(C[N-]C(=O)N2CCOCC2)c1 (protonated)
[NH-]S(=O)(=O)c1cccc(C[N-]C(=O)N2CCOCC2)c1 (3D coordinates assigned)
[NH-]S(=O)(=O)c1cccc(C[N-]C(=O)N2CCOCC2)c1 (nonaromatic ring conformer: 32.65729384219692 kcal/mol)

>  <smiles>  (59) 
NS(=O)(=O)c1cccc(CNC(=O)N2CCOCC2)c1

>  <score_type>  (59) 
oracle

>  <origin>  (59) 
adg

>  <m_score__min__energy>  (59) 
-12.699999999999999

>  <m_primary>  (59) 
energy

$$$$
59:0
     RDKit          3D

 65 67  0  0  0  0  0  0  0  0999 V2000
   56.7800   30.8530   51.6570 C   0  0  0  0  0  0  0  0  0  0  0  0
   57.8840   31.2430   50.7620 N   0  0  0  0  0  0  0  0  0  0  0  0
   58.5710   30.0320   50.2810 C   0  0  0  0  0  0  0  0  0  0  0  0
   58.8430   32.1300   51.4560 C   0  0  0  0  0  0  0  0  0  0  0  0
   59.2740   33.2840   50.5430 C   0  0  0  0  0  0  0  0  0  0  0  0
   58.9190   32.9980   49.1540 N   0  0  0  0  0  0  0  0  0  0  0  0
   59.2990   33.8610   48.0690 C   0  0  0  0  0  0  0  0  0  0  0  0
   60.0330   34.8610   48.2960 O   0  0  0  0  0  0  0  0  0  0  0  0
   58.8570   33.5890   46.6800 C   0  0  0  0  0  0  0  0  0  0  0  0
   59.5030   34.2240   45.6040 C   0  0  0  0  0  0  0  0  0  0  0  0
   59.1030   33.9690   44.2900 C   0  0  0  0  0  0  0  0  0  0  0  0
   58.0440   33.0960   44.0340 C   0  0  0  0  0  0  0  0  0  0  0  0
   57.3590   32.4880   45.0980 C   0  0  0  0  0  0  0  0  0  0  0  0
   56.2750   31.5760   44.8680 N   0  0  0  0  0  0  0  0  0  0  0  0
   56.3900   30.1860   44.5380 C   0  0  0  0  0  0  0  0  0  0  0  0
   55.3370   29.5130   44.3780 O   0  0  0  0  0  0  0  0  0  0  0  0
   57.7270   29.5250   44.3360 C   0  0  0  0  0  0  0  0  0  0  0  0
   57.9540   28.4510   45.3670 C   0  0  0  0  0  0  0  0  0  0  0  0
   59.1550   28.4140   46.0910 C   0  0  0  0  0  0  0  0  0  0  0  0
   59.3870   27.3950   47.0180 C   0  0  0  0  0  0  0  0  0  0  0  0
   58.4220   26.4090   47.2310 C   0  0  0  0  0  0  0  0  0  0  0  0
   57.2110   26.4360   46.5280 C   0  0  0  0  0  0  0  0  0  0  0  0
   56.2570   25.3900   46.7610 N   0  0  0  0  0  0  0  0  0  0  0  0
   55.1920   24.9900   45.8880 C   0  0  0  0  0  0  0  0  0  0  0  0
   54.2150   25.7580   45.6740 O   0  0  0  0  0  0  0  0  0  0  0  0
   55.1840   23.6030   45.3030 C   0  0  0  0  0  0  0  0  0  0  0  0
   55.0330   23.6390   43.7580 C   0  0  0  0  0  0  0  0  0  0  0  0
   56.3810   23.4840   43.0410 C   0  0  0  0  0  0  0  0  0  0  0  0
   57.0690   22.1520   43.4010 C   0  0  0  0  0  0  0  0  0  0  0  0
   56.7500   21.6600   44.8280 C   0  0  0  0  0  0  0  0  0  0  0  0
   56.4380   22.8250   45.7710 C   0  0  0  0  0  0  0  0  0  0  0  0
   56.9910   27.4490   45.5750 C   0  0  0  0  0  0  0  0  0  0  0  0
   57.7810   32.7200   46.4130 C   0  0  0  0  0  0  0  0  0  0  0  0
   57.0992   30.9658   52.7036 H   0  0  0  0  0  0  0  0  0  0  0  0
   55.9092   31.4979   51.4677 H   0  0  0  0  0  0  0  0  0  0  0  0
   56.5076   29.8042   51.4677 H   0  0  0  0  0  0  0  0  0  0  0  0
   58.9091   29.4360   51.1415 H   0  0  0  0  0  0  0  0  0  0  0  0
   57.8773   29.4347   49.6711 H   0  0  0  0  0  0  0  0  0  0  0  0
   59.4397   30.3210   49.6711 H   0  0  0  0  0  0  0  0  0  0  0  0
   58.3662   32.5419   52.3576 H   0  0  0  0  0  0  0  0  0  0  0  0
   59.7330   31.5437   51.7283 H   0  0  0  0  0  0  0  0  0  0  0  0
   58.7685   34.2070   50.8631 H   0  0  0  0  0  0  0  0  0  0  0  0
   60.3650   33.4051   50.6136 H   0  0  0  0  0  0  0  0  0  0  0  0
   58.3890   32.1190   48.9630 H   0  0  0  0  0  0  0  0  0  0  0  0
   60.3278   34.9254   45.7982 H   0  0  0  0  0  0  0  0  0  0  0  0
   59.6244   34.4579   43.4539 H   0  0  0  0  0  0  0  0  0  0  0  0
   57.7457   32.8841   42.9966 H   0  0  0  0  0  0  0  0  0  0  0  0
   57.7587   29.0745   43.3330 H   0  0  0  0  0  0  0  0  0  0  0  0
   58.5153   30.2852   44.4394 H   0  0  0  0  0  0  0  0  0  0  0  0
   59.9170   29.1904   45.9281 H   0  0  0  0  0  0  0  0  0  0  0  0
   60.3316   27.3695   47.5810 H   0  0  0  0  0  0  0  0  0  0  0  0
   58.6142   25.6048   47.9565 H   0  0  0  0  0  0  0  0  0  0  0  0
   54.3028   23.0605   45.6762 H   0  0  0  0  0  0  0  0  0  0  0  0
   54.3699   22.8181   43.4475 H   0  0  0  0  0  0  0  0  0  0  0  0
   54.6138   24.6178   43.4820 H   0  0  0  0  0  0  0  0  0  0  0  0
   56.2125   23.5158   41.9545 H   0  0  0  0  0  0  0  0  0  0  0  0
   57.0369   24.3064   43.3627 H   0  0  0  0  0  0  0  0  0  0  0  0
   56.7375   21.3846   42.6860 H   0  0  0  0  0  0  0  0  0  0  0  0
   58.1542   22.3255   43.3539 H   0  0  0  0  0  0  0  0  0  0  0  0
   55.8783   20.9903   44.7878 H   0  0  0  0  0  0  0  0  0  0  0  0
   57.6342   21.1324   45.2150 H   0  0  0  0  0  0  0  0  0  0  0  0
   56.2589   22.4303   46.7820 H   0  0  0  0  0  0  0  0  0  0  0  0
   57.2958   23.5135   45.7700 H   0  0  0  0  0  0  0  0  0  0  0  0
   56.0596   27.4560   44.9898 H   0  0  0  0  0  0  0  0  0  0  0  0
   57.2669   32.2184   47.2461 H   0  0  0  0  0  0  0  0  0  0  0  0
  1  2  1  0
  2  3  1  0
  2  4  1  0
  4  5  1  0
  5  6  1  0
  6  7  1  0
  7  8  2  0
  7  9  1  0
  9 10  2  0
 10 11  1  0
 11 12  2  0
 12 13  1  0
 13 14  1  0
 14 15  1  0
 15 16  2  0
 15 17  1  0
 17 18  1  0
 18 19  2  0
 19 20  1  0
 20 21  2  0
 21 22  1  0
 22 23  1  0
 23 24  1  0
 24 25  2  0
 24 26  1  0
 26 27  1  0
 27 28  1  0
 28 29  1  0
 29 30  1  0
 30 31  1  0
 22 32  2  0
 13 33  2  0
 33  9  1  0
 32 18  1  0
 31 26  1  0
  1 34  1  0
  1 35  1  0
  1 36  1  0
  3 37  1  0
  3 38  1  0
  3 39  1  0
  4 40  1  0
  4 41  1  0
  5 42  1  0
  5 43  1  0
  6 44  1  0
 10 45  1  0
 11 46  1  0
 12 47  1  0
 17 48  1  0
 17 49  1  0
 19 50  1  0
 20 51  1  0
 21 52  1  0
 26 53  1  0
 27 54  1  0
 27 55  1  0
 28 56  1  0
 28 57  1  0
 29 58  1  0
 29 59  1  0
 30 60  1  0
 30 61  1  0
 31 62  1  0
 31 63  1  0
 32 64  1  0
 33 65  1  0
M  CHG  2  14  -1  23  -1
M  END
>  <UniqueID>  (60) 
56

>  <SMILES>  (60) 
CN(C)CCNC(=O)c1cccc([N-]C(=O)Cc2cccc([N-]C(=O)C3CCCCC3)c2)c1

>  <Energy>  (60) 
73.31389176360422

>  <Genealogy>  (60) 
CN(C)CCNC(=O)c1cccc([N-]C(=O)Cc2cccc([N-]C(=O)C3CCCCC3)c2)c1 (protonated)
CN(C)CCNC(=O)c1cccc([N-]C(=O)Cc2cccc([N-]C(=O)C3CCCCC3)c2)c1 (3D coordinates assigned)
CN(C)CCNC(=O)c1cccc([N-]C(=O)Cc2cccc([N-]C(=O)C3CCCCC3)c2)c1 (nonaromatic ring conformer: 73.31389176360422 kcal/mol)

>  <smiles>  (60) 
CN(C)CCNC(=O)c1cccc(NC(=O)Cc2cccc(NC(=O)C3CCCCC3)c2)c1

>  <score_type>  (60) 
oracle

>  <origin>  (60) 
adg

>  <m_score__min__energy>  (60) 
-13.32

>  <m_primary>  (60) 
energy

$$$$
60:0
     RDKit          3D

 76 80  0  0  0  0  0  0  0  0999 V2000
   60.5259   27.7493   47.8229 H   0  0  0  0  0  0  0  0  0  0  0  0
   59.7780   27.5910   47.0320 C   0  0  0  0  0  0  0  0  0  0  0  0
   59.5849   26.5767   46.6527 H   0  0  0  0  0  0  0  0  0  0  0  0
   59.1000   28.6370   46.5290 C   0  0  0  0  0  0  0  0  0  0  0  0
   58.1220   28.5650   45.5190 C   0  0  0  0  0  0  0  0  0  0  0  0
   57.5290   27.5110   44.9230 C   0  0  0  0  0  0  0  0  0  0  0  0
   57.2829   27.6121   43.8557 H   0  0  0  0  0  0  0  0  0  0  0  0
   57.1830   26.2420   45.5710 C   0  0  0  0  0  0  0  0  0  0  0  0
   58.0370   25.2040   45.6810 N   0  0  0  0  0  0  0  0  0  0  0  0
   57.2880   24.2350   46.2480 C   0  0  0  0  0  0  0  0  0  0  0  0
   57.7460   23.0890   46.5120 O   0  0  0  0  0  0  0  0  0  0  0  0
   56.0080   24.6010   46.4920 N   0  0  0  0  0  0  0  0  0  0  0  0
   54.9230   23.7360   46.9840 C   0  0  0  0  0  0  0  0  0  0  0  0
   54.0804   24.3869   47.2602 H   0  0  0  0  0  0  0  0  0  0  0  0
   55.3670   22.9610   48.2460 C   0  0  0  0  0  0  0  0  0  0  0  0
   56.4195   22.6660   48.1229 H   0  0  0  0  0  0  0  0  0  0  0  0
   55.2234   23.6295   49.1077 H   0  0  0  0  0  0  0  0  0  0  0  0
   54.5280   21.6900   48.5060 C   0  0  0  0  0  0  0  0  0  0  0  0
   55.0446   20.8268   48.0610 H   0  0  0  0  0  0  0  0  0  0  0  0
   54.4194   21.5727   49.5943 H   0  0  0  0  0  0  0  0  0  0  0  0
   53.1220   21.7920   47.8990 C   0  0  0  0  0  0  0  0  0  0  0  0
   52.5718   20.8648   48.1171 H   0  0  0  0  0  0  0  0  0  0  0  0
   52.6196   22.6635   48.3440 H   0  0  0  0  0  0  0  0  0  0  0  0
   53.1720   21.9960   46.3670 C   0  0  0  0  0  0  0  0  0  0  0  0
   53.1755   21.0077   45.8839 H   0  0  0  0  0  0  0  0  0  0  0  0
   52.2896   22.5919   46.0906 H   0  0  0  0  0  0  0  0  0  0  0  0
   54.4150   22.7770   45.8910 C   0  0  0  0  0  0  0  0  0  0  0  0
   55.2134   22.0628   45.6410 H   0  0  0  0  0  0  0  0  0  0  0  0
   54.1358   23.3714   45.0086 H   0  0  0  0  0  0  0  0  0  0  0  0
   55.9410   25.8690   46.0380 C   0  0  0  0  0  0  0  0  0  0  0  0
   54.7900   26.6470   46.0050 O   0  0  0  0  0  0  0  0  0  0  0  0
   57.8640   29.8620   45.1370 C   0  0  0  0  0  0  0  0  0  0  0  0
   57.1744   30.1851   44.3432 H   0  0  0  0  0  0  0  0  0  0  0  0
   58.6300   30.6760   45.9340 C   0  0  0  0  0  0  0  0  0  0  0  0
   58.7860   32.1500   45.6780 C   0  0  0  0  0  0  0  0  0  0  0  0
   58.8426   32.6848   46.6376 H   0  0  0  0  0  0  0  0  0  0  0  0
   59.7079   32.3270   45.1046 H   0  0  0  0  0  0  0  0  0  0  0  0
   57.9216   32.5161   45.1046 H   0  0  0  0  0  0  0  0  0  0  0  0
   59.3600   29.9500   46.8250 N   0  0  0  0  0  0  0  0  0  0  0  0
   60.4490   30.5530   47.6310 C   0  0  0  0  0  0  0  0  0  0  0  0
   61.0609   29.7327   48.0344 H   0  0  0  0  0  0  0  0  0  0  0  0
   60.9850   31.2243   46.9439 H   0  0  0  0  0  0  0  0  0  0  0  0
   60.0160   31.4330   48.8060 C   0  0  0  0  0  0  0  0  0  0  0  0
   59.2220   30.8290   49.8390 C   0  0  0  0  0  0  0  0  0  0  0  0
   58.8550   29.3580   49.9040 C   0  0  0  0  0  0  0  0  0  0  0  0
   57.8711   29.2560   50.3852 H   0  0  0  0  0  0  0  0  0  0  0  0
   58.8318   28.9623   48.8779 H   0  0  0  0  0  0  0  0  0  0  0  0
   59.8440   28.5900   50.6720 N   0  0  0  0  0  0  0  0  0  0  0  0
   60.0380   28.5670   52.0150 C   0  0  0  0  0  0  0  0  0  0  0  0
   59.2210   29.3230   53.0140 C   0  0  0  0  0  0  0  0  0  0  0  0
   59.5291   29.0379   54.0307 H   0  0  0  0  0  0  0  0  0  0  0  0
   59.3765   30.4028   52.8730 H   0  0  0  0  0  0  0  0  0  0  0  0
   58.1565   29.0844   52.8730 H   0  0  0  0  0  0  0  0  0  0  0  0
   61.0420   27.7420   52.3790 N   0  0  0  0  0  0  0  0  0  0  0  0
   61.5130   27.2530   51.2120 C   0  0  0  0  0  0  0  0  0  0  0  0
   62.3469   26.5425   51.1132 H   0  0  0  0  0  0  0  0  0  0  0  0
   60.7920   27.7780   50.1660 C   0  0  0  0  0  0  0  0  0  0  0  0
   60.9604   27.5706   49.0989 H   0  0  0  0  0  0  0  0  0  0  0  0
   58.6960   31.6050   50.8130 N   0  0  0  0  0  0  0  0  0  0  0  0
   58.8690   32.9170   50.8460 N   0  0  0  0  0  0  0  0  0  0  0  0
   59.6320   33.5520   49.9340 C   0  0  0  0  0  0  0  0  0  0  0  0
   59.7076   34.6489   49.9662 H   0  0  0  0  0  0  0  0  0  0  0  0
   60.3380   32.8390   48.9360 C   0  0  0  0  0  0  0  0  0  0  0  0
   61.3260   33.6850   48.0610 C   0  0  0  0  0  0  0  0  0  0  0  0
   62.3240   32.8590   47.2230 C   0  0  0  0  0  0  0  0  0  0  0  0
   62.9951   32.3036   47.8946 H   0  0  0  0  0  0  0  0  0  0  0  0
   61.7716   32.1504   46.5885 H   0  0  0  0  0  0  0  0  0  0  0  0
   62.9169   33.5342   46.5885 H   0  0  0  0  0  0  0  0  0  0  0  0
   62.2220   34.5920   48.9610 C   0  0  0  0  0  0  0  0  0  0  0  0
   62.0122   34.3796   50.0197 H   0  0  0  0  0  0  0  0  0  0  0  0
   63.2816   34.3866   48.7488 H   0  0  0  0  0  0  0  0  0  0  0  0
   62.0037   35.6490   48.7488 H   0  0  0  0  0  0  0  0  0  0  0  0
   60.5130   34.5980   47.1240 C   0  0  0  0  0  0  0  0  0  0  0  0
   59.8999   35.2865   47.7241 H   0  0  0  0  0  0  0  0  0  0  0  0
   61.2000   35.1770   46.4894 H   0  0  0  0  0  0  0  0  0  0  0  0
   59.8585   33.9825   46.4894 H   0  0  0  0  0  0  0  0  0  0  0  0
  1  2  1  0
  2  3  1  0
  2  4  2  0
  4  5  1  0
  5  6  2  0
  6  7  1  0
  6  8  1  0
  8  9  1  0
  9 10  1  0
 10 11  2  0
 10 12  1  0
 12 13  1  0
 13 14  1  0
 13 15  1  0
 15 16  1  0
 15 17  1  0
 15 18  1  0
 18 19  1  0
 18 20  1  0
 18 21  1  0
 21 22  1  0
 21 23  1  0
 21 24  1  0
 24 25  1  0
 24 26  1  0
 24 27  1  0
 27 28  1  0
 27 29  1  0
 12 30  1  0
 30 31  1  0
  5 32  1  0
 32 33  1  0
 32 34  2  0
 34 35  1  0
 35 36  1  0
 35 37  1  0
 35 38  1  0
 34 39  1  0
 39 40  1  0
 40 41  1  0
 40 42  1  0
 40 43  1  0
 43 44  1  0
 44 45  1  0
 45 46  1  0
 45 47  1  0
 45 48  1  0
 48 49  1  0
 49 50  1  0
 50 51  1  0
 50 52  1  0
 50 53  1  0
 49 54  2  0
 54 55  1  0
 55 56  1  0
 55 57  2  0
 57 58  1  0
 44 59  2  0
 59 60  1  0
 60 61  2  0
 61 62  1  0
 61 63  1  0
 63 64  1  0
 64 65  1  0
 65 66  1  0
 65 67  1  0
 65 68  1  0
 64 69  1  0
 69 70  1  0
 69 71  1  0
 69 72  1  0
 64 73  1  0
 73 74  1  0
 73 75  1  0
 73 76  1  0
 39  4  1  0
 63 43  2  0
 30  8  2  0
 57 48  1  0
 27 13  1  0
M  CHG  2   9  -1  31  -1
M  END
>  <UniqueID>  (61) 
57

>  <SMILES>  (61) 
C=c1/c(=C\c2[n-]c(=O)n(C3CCCCC3)c2[O-])cc(C)n1Cc1c(C(C)(C)C)cnnc1Cn1ccnc1C

>  <Energy>  (61) 
207.2103841821823

>  <Genealogy>  (61) 
C=c1c(=Cc2[n-]c(=O)n(C3CCCCC3)c2[O-])cc(C)n1Cc1c(C(C)(C)C)cnnc1Cn1ccnc1C (protonated)
C=c1/c(=C\c2[n-]c(=O)n(C3CCCCC3)c2[O-])cc(C)n1Cc1c(C(C)(C)C)cnnc1Cn1ccnc1C (cis-trans isomerization)
C=c1/c(=C\c2[n-]c(=O)n(C3CCCCC3)c2[O-])cc(C)n1Cc1c(C(C)(C)C)cnnc1Cn1ccnc1C (3D coordinates assigned)
C=c1/c(=C\c2[n-]c(=O)n(C3CCCCC3)c2[O-])cc(C)n1Cc1c(C(C)(C)C)cnnc1Cn1ccnc1C (nonaromatic ring conformer: 207.2103841821823 kcal/mol)

>  <smiles>  (61) 
C=c1c(=Cc2[nH]c(=O)n(C3CCCCC3)c2O)cc(C)n1Cc1c(C(C)(C)C)cnnc1Cn1ccnc1C

>  <score_type>  (61) 
oracle

>  <origin>  (61) 
adg

>  <m_score__min__energy>  (61) 
-14.470000000000001

>  <m_primary>  (61) 
energy

$$$$
61:0
     RDKit          3D

 47 50  0  0  0  0  0  0  0  0999 V2000
   57.8220   26.9030   43.1760 O   0  0  0  0  0  0  0  0  0  0  0  0
   57.6010   27.1840   44.3870 C   0  0  0  0  0  0  0  0  0  0  0  0
   57.3850   26.0620   45.3390 C   0  0  0  0  0  0  0  0  0  0  0  0
   58.4130   25.1230   45.5260 C   0  0  0  0  0  0  0  0  0  0  0  0
   58.2400   24.0480   46.3980 C   0  0  0  0  0  0  0  0  0  0  0  0
   57.0370   23.9210   47.0940 C   0  0  0  0  0  0  0  0  0  0  0  0
   56.8610   22.9560   47.8820 O   0  0  0  0  0  0  0  0  0  0  0  0
   56.0550   24.8430   46.9240 N   0  0  0  0  0  0  0  0  0  0  0  0
   56.1940   25.9020   46.0800 C   0  0  0  0  0  0  0  0  0  0  0  0
   55.1590   26.8220   45.9900 O   0  0  0  0  0  0  0  0  0  0  0  0
   57.5130   28.6400   44.8160 C   0  0  0  0  0  0  0  0  0  0  0  0
   58.8100   29.4200   44.5130 C   0  0  0  0  0  0  0  0  0  0  0  0
   58.7170   30.8950   44.9660 C   0  0  0  0  0  0  0  0  0  0  0  0
   57.3250   31.3010   45.2540 N   0  0  0  0  0  0  0  0  0  0  0  0
   57.1980   32.7340   45.6020 C   0  0  0  0  0  0  0  0  0  0  0  0
   58.2920   33.2390   46.5200 C   0  0  0  0  0  0  0  0  0  0  0  0
   58.8710   34.4990   46.3020 C   0  0  0  0  0  0  0  0  0  0  0  0
   59.8840   34.9500   47.1450 C   0  0  0  0  0  0  0  0  0  0  0  0
   60.3150   34.1490   48.2080 C   0  0  0  0  0  0  0  0  0  0  0  0
   61.3350   34.5790   49.0710 C   0  0  0  0  0  0  0  0  0  0  0  0
   61.7470   33.7620   50.1280 C   0  0  0  0  0  0  0  0  0  0  0  0
   62.7330   34.1790   50.9600 F   0  0  0  0  0  0  0  0  0  0  0  0
   61.1450   32.5160   50.3290 C   0  0  0  0  0  0  0  0  0  0  0  0
   60.1280   32.0810   49.4750 C   0  0  0  0  0  0  0  0  0  0  0  0
   59.7050   32.8900   48.4090 C   0  0  0  0  0  0  0  0  0  0  0  0
   58.7140   32.4720   47.5690 N   0  0  0  0  0  0  0  0  0  0  0  0
   56.4070   30.8760   44.1810 C   0  0  0  0  0  0  0  0  0  0  0  0
   56.3070   29.3390   44.1410 C   0  0  0  0  0  0  0  0  0  0  0  0
   59.3616   25.2363   44.9807 H   0  0  0  0  0  0  0  0  0  0  0  0
   59.0428   23.3087   46.5355 H   0  0  0  0  0  0  0  0  0  0  0  0
   57.3705   28.6411   45.9067 H   0  0  0  0  0  0  0  0  0  0  0  0
   59.6460   28.9382   45.0412 H   0  0  0  0  0  0  0  0  0  0  0  0
   58.9677   29.4078   43.4244 H   0  0  0  0  0  0  0  0  0  0  0  0
   59.3202   31.0252   45.8766 H   0  0  0  0  0  0  0  0  0  0  0  0
   59.0913   31.5256   44.1461 H   0  0  0  0  0  0  0  0  0  0  0  0
   57.2272   33.3207   44.6720 H   0  0  0  0  0  0  0  0  0  0  0  0
   56.2471   32.8495   46.1427 H   0  0  0  0  0  0  0  0  0  0  0  0
   58.5259   35.1281   45.4682 H   0  0  0  0  0  0  0  0  0  0  0  0
   60.3444   35.9345   46.9752 H   0  0  0  0  0  0  0  0  0  0  0  0
   61.8102   35.5588   48.9157 H   0  0  0  0  0  0  0  0  0  0  0  0
   61.4729   31.8764   51.1617 H   0  0  0  0  0  0  0  0  0  0  0  0
   59.6571   31.1005   49.6389 H   0  0  0  0  0  0  0  0  0  0  0  0
   58.2650   31.5410   47.7300 H   0  0  0  0  0  0  0  0  0  0  0  0
   55.4093   31.2999   44.3679 H   0  0  0  0  0  0  0  0  0  0  0  0
   56.7939   31.2348   43.2158 H   0  0  0  0  0  0  0  0  0  0  0  0
   55.3874   29.0332   44.6615 H   0  0  0  0  0  0  0  0  0  0  0  0
   56.2984   29.0357   43.0837 H   0  0  0  0  0  0  0  0  0  0  0  0
  1  2  2  0
  2  3  1  0
  3  4  1  0
  4  5  2  0
  5  6  1  0
  6  7  2  0
  6  8  1  0
  8  9  1  0
  9 10  1  0
  2 11  1  0
 11 12  1  0
 12 13  1  0
 13 14  1  0
 14 15  1  0
 15 16  1  0
 16 17  2  0
 17 18  1  0
 18 19  2  0
 19 20  1  0
 20 21  2  0
 21 22  1  0
 21 23  1  0
 23 24  2  0
 24 25  1  0
 25 26  2  0
 14 27  1  0
 27 28  1  0
  9  3  2  0
 28 11  1  0
 26 16  1  0
 25 19  1  0
  4 29  1  0
  5 30  1  0
 11 31  1  0
 12 32  1  0
 12 33  1  0
 13 34  1  0
 13 35  1  0
 15 36  1  0
 15 37  1  0
 17 38  1  0
 18 39  1  0
 20 40  1  0
 23 41  1  0
 24 42  1  0
 26 43  1  0
 27 44  1  0
 27 45  1  0
 28 46  1  0
 28 47  1  0
M  CHG  3   8  -1  10  -1  26   1
M  END
>  <UniqueID>  (62) 
58

>  <SMILES>  (62) 
O=C(c1ccc(=O)[n-]c1[O-])C1CCN(Cc2ccc3cc(F)ccc3[nH+]2)CC1

>  <Energy>  (62) 
69.17715224241623

>  <Genealogy>  (62) 
O=C(c1ccc(=O)[n-]c1[O-])C1CCN(Cc2ccc3cc(F)ccc3[nH+]2)CC1 (protonated)
O=C(c1ccc(=O)[n-]c1[O-])C1CCN(Cc2ccc3cc(F)ccc3[nH+]2)CC1 (3D coordinates assigned)
O=C(c1ccc(=O)[n-]c1[O-])C1CCN(Cc2ccc3cc(F)ccc3[nH+]2)CC1 (nonaromatic ring conformer: 69.17715224241623 kcal/mol)

>  <smiles>  (62) 
O=C(c1ccc(=O)[nH]c1O)C1CCN(Cc2ccc3cc(F)ccc3n2)CC1

>  <score_type>  (62) 
oracle

>  <origin>  (62) 
adg

>  <m_score__min__energy>  (62) 
-13.65

>  <m_primary>  (62) 
energy

$$$$
62:0
     RDKit          3D

 51 54  0  0  0  0  0  0  0  0999 V2000
   59.9160   34.8960   46.1600 O   0  0  0  0  0  0  0  0  0  0  0  0
   60.0280   33.6530   46.3270 C   0  0  0  0  0  0  0  0  0  0  0  0
   58.9970   32.7310   45.7910 C   0  0  0  0  0  0  0  0  0  0  0  0
   59.2100   31.3460   45.8320 C   0  0  0  0  0  0  0  0  0  0  0  0
   58.2200   30.4560   45.3900 C   0  0  0  0  0  0  0  0  0  0  0  0
   58.4090   29.0370   45.4540 N   0  0  0  0  0  0  0  0  0  0  0  0
   59.8910   28.3050   45.9770 S   0  0  0  0  0  0  0  0  0  0  0  0
   61.0440   28.9970   45.2980 O   0  0  0  0  0  0  0  0  0  0  0  0
   59.9200   26.8370   45.6110 O   0  0  0  0  0  0  0  0  0  0  0  0
   60.0270   28.5420   47.7210 C   0  0  0  0  0  0  0  0  0  0  0  0
   60.7570   27.6460   48.5190 C   0  0  0  0  0  0  0  0  0  0  0  0
   60.7630   27.7990   49.9140 C   0  0  0  0  0  0  0  0  0  0  0  0
   60.0360   28.8400   50.5130 C   0  0  0  0  0  0  0  0  0  0  0  0
   59.3030   29.7290   49.7180 C   0  0  0  0  0  0  0  0  0  0  0  0
   58.3760   31.0150   50.4690 Cl  0  0  0  0  0  0  0  0  0  0  0  0
   59.3000   29.5790   48.3250 C   0  0  0  0  0  0  0  0  0  0  0  0
   57.0230   30.9750   44.8870 C   0  0  0  0  0  0  0  0  0  0  0  0
   56.1020   30.2060   44.5000 O   0  0  0  0  0  0  0  0  0  0  0  0
   56.8520   32.3200   44.8000 N   0  0  0  0  0  0  0  0  0  0  0  0
   57.7950   33.2040   45.2300 C   0  0  0  0  0  0  0  0  0  0  0  0
   57.5430   34.5690   45.1270 O   0  0  0  0  0  0  0  0  0  0  0  0
   61.1760   33.1380   47.0210 N   0  0  0  0  0  0  0  0  0  0  0  0
   60.9770   32.2780   48.1990 C   0  0  0  0  0  0  0  0  0  0  0  0
   62.3050   31.7240   48.7260 C   0  0  0  0  0  0  0  0  0  0  0  0
   63.3180   32.7870   48.8210 N   0  0  0  0  0  0  0  0  0  0  0  0
   64.2330   32.7900   49.9320 C   0  0  0  0  0  0  0  0  0  0  0  0
   63.8060   32.5540   51.0990 O   0  0  0  0  0  0  0  0  0  0  0  0
   65.6880   33.0950   49.7380 C   0  0  0  0  0  0  0  0  0  0  0  0
   66.3930   33.5180   51.0260 C   0  0  0  0  0  0  0  0  0  0  0  0
   66.6580   32.1510   50.4250 C   0  0  0  0  0  0  0  0  0  0  0  0
   63.4110   33.8280   47.7830 C   0  0  0  0  0  0  0  0  0  0  0  0
   62.5220   33.5040   46.5760 C   0  0  0  0  0  0  0  0  0  0  0  0
   60.1635   30.9531   46.2148 H   0  0  0  0  0  0  0  0  0  0  0  0
   61.3226   26.8264   48.0518 H   0  0  0  0  0  0  0  0  0  0  0  0
   61.3389   27.1014   50.5398 H   0  0  0  0  0  0  0  0  0  0  0  0
   60.0424   28.9570   51.6067 H   0  0  0  0  0  0  0  0  0  0  0  0
   58.7242   30.2784   47.7011 H   0  0  0  0  0  0  0  0  0  0  0  0
   58.2700   35.2440   45.3200 H   0  0  0  0  0  0  0  0  0  0  0  0
   60.4960   32.8673   48.9936 H   0  0  0  0  0  0  0  0  0  0  0  0
   60.3448   31.4286   47.9011 H   0  0  0  0  0  0  0  0  0  0  0  0
   62.1434   31.2905   49.7240 H   0  0  0  0  0  0  0  0  0  0  0  0
   62.6669   30.9558   48.0268 H   0  0  0  0  0  0  0  0  0  0  0  0
   65.5947   33.4888   48.7151 H   0  0  0  0  0  0  0  0  0  0  0  0
   67.1735   34.2926   50.9975 H   0  0  0  0  0  0  0  0  0  0  0  0
   66.0644   33.8863   52.0090 H   0  0  0  0  0  0  0  0  0  0  0  0
   67.6326   31.9342   49.9633 H   0  0  0  0  0  0  0  0  0  0  0  0
   66.6017   31.1170   50.7962 H   0  0  0  0  0  0  0  0  0  0  0  0
   63.0931   34.7895   48.2125 H   0  0  0  0  0  0  0  0  0  0  0  0
   64.4544   33.8771   47.4380 H   0  0  0  0  0  0  0  0  0  0  0  0
   62.4608   34.3869   45.9228 H   0  0  0  0  0  0  0  0  0  0  0  0
   62.9597   32.6581   46.0256 H   0  0  0  0  0  0  0  0  0  0  0  0
  1  2  2  0
  2  3  1  0
  3  4  1  0
  4  5  2  0
  5  6  1  0
  6  7  1  0
  7  8  2  0
  7  9  2  0
  7 10  1  0
 10 11  2  0
 11 12  1  0
 12 13  2  0
 13 14  1  0
 14 15  1  0
 14 16  2  0
  5 17  1  0
 17 18  2  0
 17 19  1  0
 19 20  1  0
 20 21  1  0
  2 22  1  0
 22 23  1  0
 23 24  1  0
 24 25  1  0
 25 26  1  0
 26 27  2  0
 26 28  1  0
 28 29  1  0
 29 30  1  0
 25 31  1  0
 31 32  1  0
 20  3  2  0
 32 22  1  0
 16 10  1  0
 30 28  1  0
  4 33  1  0
 11 34  1  0
 12 35  1  0
 13 36  1  0
 16 37  1  0
 21 38  1  0
 23 39  1  0
 23 40  1  0
 24 41  1  0
 24 42  1  0
 28 43  1  0
 29 44  1  0
 29 45  1  0
 30 46  1  0
 30 47  1  0
 31 48  1  0
 31 49  1  0
 32 50  1  0
 32 51  1  0
M  CHG  2   6  -1  19  -1
M  END
>  <UniqueID>  (63) 
59

>  <SMILES>  (63) 
O=C(c1cc([N-]S(=O)(=O)c2cccc(Cl)c2)c(=O)[n-]c1O)N1CCN(C(=O)C2CC2)CC1

>  <Energy>  (63) 
332.4572715636094

>  <Genealogy>  (63) 
O=C(c1cc([N-]S(=O)(=O)c2cccc(Cl)c2)c(=O)[n-]c1O)N1CCN(C(=O)C2CC2)CC1 (protonated)
O=C(c1cc([N-]S(=O)(=O)c2cccc(Cl)c2)c(=O)[n-]c1O)N1CCN(C(=O)C2CC2)CC1 (3D coordinates assigned)
O=C(c1cc([N-]S(=O)(=O)c2cccc(Cl)c2)c(=O)[n-]c1O)N1CCN(C(=O)C2CC2)CC1 (nonaromatic ring conformer: 332.4572715636094 kcal/mol)

>  <smiles>  (63) 
O=C(c1cc(NS(=O)(=O)c2cccc(Cl)c2)c(=O)[nH]c1O)N1CCN(C(=O)C2CC2)CC1

>  <score_type>  (63) 
oracle

>  <origin>  (63) 
adg

>  <m_score__min__energy>  (63) 
-11.789999999999999

>  <m_primary>  (63) 
energy

$$$$
63:0
     RDKit          3D

 55 58  0  0  0  0  0  0  0  0999 V2000
   60.4003   29.1930   46.7834 H   0  0  0  0  0  0  0  0  0  0  0  0
   59.6450   29.8720   46.3610 C   0  0  0  0  0  0  0  0  0  0  0  0
   59.8880   31.2080   46.3120 N   0  0  0  0  0  0  0  0  0  0  0  0
   58.9880   32.0910   45.7960 C   0  0  0  0  0  0  0  0  0  0  0  0
   59.2390   33.3680   45.7650 N   0  0  0  0  0  0  0  0  0  0  0  0
   59.8110   34.1440   46.8300 C   0  0  0  0  0  0  0  0  0  0  0  0
   59.2350   35.2090   47.1750 O   0  0  0  0  0  0  0  0  0  0  0  0
   61.0820   33.7650   47.4940 C   0  0  0  0  0  0  0  0  0  0  0  0
   61.4410   34.3310   48.7290 C   0  0  0  0  0  0  0  0  0  0  0  0
   60.7775   35.0623   49.2137 H   0  0  0  0  0  0  0  0  0  0  0  0
   62.6460   33.9620   49.3420 C   0  0  0  0  0  0  0  0  0  0  0  0
   63.0360   34.5520   50.6700 C   0  0  0  0  0  0  0  0  0  0  0  0
   62.1951   34.4494   51.3717 H   0  0  0  0  0  0  0  0  0  0  0  0
   63.2853   35.6136   50.5259 H   0  0  0  0  0  0  0  0  0  0  0  0
   64.2550   33.8350   51.2410 C   0  0  0  0  0  0  0  0  0  0  0  0
   64.2134   33.8595   52.3399 H   0  0  0  0  0  0  0  0  0  0  0  0
   64.2601   32.7900   50.8974 H   0  0  0  0  0  0  0  0  0  0  0  0
   65.1708   34.3384   50.8974 H   0  0  0  0  0  0  0  0  0  0  0  0
   63.4560   32.9990   48.7280 C   0  0  0  0  0  0  0  0  0  0  0  0
   64.3982   32.6851   49.2009 H   0  0  0  0  0  0  0  0  0  0  0  0
   63.0600   32.4400   47.5120 C   0  0  0  0  0  0  0  0  0  0  0  0
   63.6932   31.6836   47.0253 H   0  0  0  0  0  0  0  0  0  0  0  0
   61.8950   32.8260   46.9260 N   0  0  0  0  0  0  0  0  0  0  0  0
   61.6340   32.3920   46.0120 H   0  0  0  0  0  0  0  0  0  0  0  0
   57.7620   31.6220   45.3150 C   0  0  0  0  0  0  0  0  0  0  0  0
   57.0194   32.3259   44.9112 H   0  0  0  0  0  0  0  0  0  0  0  0
   57.4870   30.2530   45.3510 C   0  0  0  0  0  0  0  0  0  0  0  0
   56.5267   29.8770   44.9684 H   0  0  0  0  0  0  0  0  0  0  0  0
   58.4320   29.3540   45.8740 C   0  0  0  0  0  0  0  0  0  0  0  0
   58.1570   27.8940   45.9090 C   0  0  0  0  0  0  0  0  0  0  0  0
   58.2920   27.1130   44.7490 C   0  0  0  0  0  0  0  0  0  0  0  0
   58.5961   27.5876   43.8044 H   0  0  0  0  0  0  0  0  0  0  0  0
   58.0430   25.7370   44.7850 C   0  0  0  0  0  0  0  0  0  0  0  0
   58.1450   25.1392   43.8673 H   0  0  0  0  0  0  0  0  0  0  0  0
   57.6640   25.1140   45.9840 C   0  0  0  0  0  0  0  0  0  0  0  0
   57.3950   23.6560   46.0180 C   0  0  0  0  0  0  0  0  0  0  0  0
   57.6070   23.0110   47.0800 O   0  0  0  0  0  0  0  0  0  0  0  0
   56.9150   22.9610   44.8540 N   0  0  0  0  0  0  0  0  0  0  0  0
   55.6810   23.4040   44.1990 C   0  0  0  0  0  0  0  0  0  0  0  0
   54.8147   22.9563   44.7079 H   0  0  0  0  0  0  0  0  0  0  0  0
   55.6111   24.5005   44.2520 H   0  0  0  0  0  0  0  0  0  0  0  0
   55.6950   22.9640   42.7330 C   0  0  0  0  0  0  0  0  0  0  0  0
   54.7208   23.1950   42.2774 H   0  0  0  0  0  0  0  0  0  0  0  0
   56.4986   23.5030   42.2098 H   0  0  0  0  0  0  0  0  0  0  0  0
   55.9380   21.5730   42.6300 O   0  0  0  0  0  0  0  0  0  0  0  0
   57.2380   21.2780   43.1050 C   0  0  0  0  0  0  0  0  0  0  0  0
   57.4471   20.2104   42.9419 H   0  0  0  0  0  0  0  0  0  0  0  0
   57.9613   21.8999   42.5572 H   0  0  0  0  0  0  0  0  0  0  0  0
   57.3590   21.5900   44.6010 C   0  0  0  0  0  0  0  0  0  0  0  0
   56.7314   20.8906   45.1728 H   0  0  0  0  0  0  0  0  0  0  0  0
   58.4084   21.4825   44.9129 H   0  0  0  0  0  0  0  0  0  0  0  0
   57.5140   25.8950   47.1410 C   0  0  0  0  0  0  0  0  0  0  0  0
   57.1989   25.4211   48.0823 H   0  0  0  0  0  0  0  0  0  0  0  0
   57.7620   27.2700   47.1060 C   0  0  0  0  0  0  0  0  0  0  0  0
   57.6474   27.8688   48.0216 H   0  0  0  0  0  0  0  0  0  0  0  0
  1  2  1  0
  2  3  1  0
  3  4  1  0
  4  5  2  0
  5  6  1  0
  6  7  2  0
  6  8  1  0
  8  9  2  0
  9 10  1  0
  9 11  1  0
 11 12  1  0
 12 13  1  0
 12 14  1  0
 12 15  1  0
 15 16  1  0
 15 17  1  0
 15 18  1  0
 11 19  2  0
 19 20  1  0
 19 21  1  0
 21 22  1  0
 21 23  2  0
 23 24  1  0
  4 25  1  0
 25 26  1  0
 25 27  2  0
 27 28  1  0
 27 29  1  0
 29 30  1  0
 30 31  2  0
 31 32  1  0
 31 33  1  0
 33 34  1  0
 33 35  2  0
 35 36  1  0
 36 37  2  0
 36 38  1  0
 38 39  1  0
 39 40  1  0
 39 41  1  0
 39 42  1  0
 42 43  1  0
 42 44  1  0
 42 45  1  0
 45 46  1  0
 46 47  1  0
 46 48  1  0
 46 49  1  0
 49 50  1  0
 49 51  1  0
 35 52  1  0
 52 53  1  0
 52 54  2  0
 54 55  1  0
 29  2  2  0
 54 30  1  0
 23  8  1  0
 49 38  1  0
M  CHG  2   3  -1  23   1
M  END
>  <UniqueID>  (64) 
60

>  <SMILES>  (64) 
CCc1cc[nH+]c(C(=O)/N=c2/ccc(-c3ccc(C(=O)N4CCOCC4)cc3)c[n-]2)c1

>  <Energy>  (64) 
74.15423682628865

>  <Genealogy>  (64) 
CCc1cc[nH+]c(C(=O)N=c2ccc(-c3ccc(C(=O)N4CCOCC4)cc3)c[n-]2)c1 (protonated)
CCc1cc[nH+]c(C(=O)/N=c2/ccc(-c3ccc(C(=O)N4CCOCC4)cc3)c[n-]2)c1 (cis-trans isomerization)
CCc1cc[nH+]c(C(=O)/N=c2/ccc(-c3ccc(C(=O)N4CCOCC4)cc3)c[n-]2)c1 (3D coordinates assigned)
CCc1cc[nH+]c(C(=O)/N=c2/ccc(-c3ccc(C(=O)N4CCOCC4)cc3)c[n-]2)c1 (nonaromatic ring conformer: 74.15423682628865 kcal/mol)

>  <smiles>  (64) 
CCc1ccnc(C(=O)N=c2ccc(-c3ccc(C(=O)N4CCOCC4)cc3)c[nH]2)c1

>  <score_type>  (64) 
oracle

>  <origin>  (64) 
adg

>  <m_score__min__energy>  (64) 
-8.9299999999999997

>  <m_primary>  (64) 
energy

$$$$
64:0
     RDKit          3D

 37 39  0  0  0  0  0  0  0  0999 V2000
   57.7780   26.4350   46.8870 O   0  0  0  0  0  0  0  0  0  0  0  0
   56.9450   26.8650   45.7120 S   0  0  0  0  0  0  0  0  0  0  0  0
   57.4140   26.1190   44.4950 O   0  0  0  0  0  0  0  0  0  0  0  0
   55.2750   26.4830   46.0280 N   0  0  0  0  0  0  0  0  0  0  0  0
   54.9330   25.1390   45.5570 C   0  0  0  0  0  0  0  0  0  0  0  0
   55.7720   24.0910   46.2390 C   0  0  0  0  0  0  0  0  0  0  0  0
   55.9070   24.0810   47.6360 C   0  0  0  0  0  0  0  0  0  0  0  0
   56.6820   23.0910   48.2450 C   0  0  0  0  0  0  0  0  0  0  0  0
   57.3040   22.1500   47.4870 N   0  0  0  0  0  0  0  0  0  0  0  0
   57.1940   22.1370   46.1320 C   0  0  0  0  0  0  0  0  0  0  0  0
   56.4270   23.1090   45.4830 C   0  0  0  0  0  0  0  0  0  0  0  0
   57.1670   28.5880   45.4670 C   0  0  0  0  0  0  0  0  0  0  0  0
   56.6050   29.3320   44.4380 C   0  0  0  0  0  0  0  0  0  0  0  0
   56.9820   30.6800   44.4680 C   0  0  0  0  0  0  0  0  0  0  0  0
   57.8400   30.9810   45.5230 C   0  0  0  0  0  0  0  0  0  0  0  0
   58.4030   32.2710   45.7970 N   0  0  0  0  0  0  0  0  0  0  0  0
   59.3700   32.5330   46.8570 C   0  0  0  0  0  0  0  0  0  0  0  0
   59.6020   34.0590   46.9460 C   0  0  0  0  0  0  0  0  0  0  0  0
   59.2960   34.7230   45.5970 C   0  0  0  0  0  0  0  0  0  0  0  0
   58.1350   33.6510   44.8190 S   0  0  0  0  0  0  0  0  0  0  0  0
   56.7260   34.1530   44.9570 O   0  0  0  0  0  0  0  0  0  0  0  0
   58.4940   33.3900   43.3830 O   0  0  0  0  0  0  0  0  0  0  0  0
   58.1350   29.5820   46.4160 S   0  0  0  0  0  0  0  0  0  0  0  0
   53.8718   24.9435   45.7707 H   0  0  0  0  0  0  0  0  0  0  0  0
   55.1273   25.0899   44.4754 H   0  0  0  0  0  0  0  0  0  0  0  0
   55.4064   24.8468   48.2467 H   0  0  0  0  0  0  0  0  0  0  0  0
   56.7889   23.0731   49.3396 H   0  0  0  0  0  0  0  0  0  0  0  0
   57.7088   21.3613   45.5461 H   0  0  0  0  0  0  0  0  0  0  0  0
   56.3381   23.1033   44.3866 H   0  0  0  0  0  0  0  0  0  0  0  0
   55.9332   28.9064   43.6780 H   0  0  0  0  0  0  0  0  0  0  0  0
   56.6366   31.4238   43.7348 H   0  0  0  0  0  0  0  0  0  0  0  0
   58.9792   32.1609   47.8156 H   0  0  0  0  0  0  0  0  0  0  0  0
   60.3181   32.0207   46.6362 H   0  0  0  0  0  0  0  0  0  0  0  0
   58.9414   34.4822   47.7171 H   0  0  0  0  0  0  0  0  0  0  0  0
   60.6540   34.2467   47.2071 H   0  0  0  0  0  0  0  0  0  0  0  0
   58.8606   35.7220   45.7470 H   0  0  0  0  0  0  0  0  0  0  0  0
   60.2020   34.8641   44.9893 H   0  0  0  0  0  0  0  0  0  0  0  0
  1  2  2  0
  2  3  2  0
  2  4  1  0
  4  5  1  0
  5  6  1  0
  6  7  2  0
  7  8  1  0
  8  9  2  0
  9 10  1  0
 10 11  2  0
  2 12  1  0
 12 13  2  0
 13 14  1  0
 14 15  2  0
 15 16  1  0
 16 17  1  0
 17 18  1  0
 18 19  1  0
 19 20  1  0
 20 21  2  0
 20 22  2  0
 15 23  1  0
 11  6  1  0
 23 12  1  0
 20 16  1  0
  5 24  1  0
  5 25  1  0
  7 26  1  0
  8 27  1  0
 10 28  1  0
 11 29  1  0
 13 30  1  0
 14 31  1  0
 17 32  1  0
 17 33  1  0
 18 34  1  0
 18 35  1  0
 19 36  1  0
 19 37  1  0
M  CHG  1   4  -1
M  END
>  <UniqueID>  (65) 
61

>  <SMILES>  (65) 
O=S(=O)([N-]Cc1ccncc1)c1ccc(N2CCCS2(=O)=O)s1

>  <Energy>  (65) 
68.36542512150713

>  <Genealogy>  (65) 
O=S(=O)([N-]Cc1ccncc1)c1ccc(N2CCCS2(=O)=O)s1 (protonated)
O=S(=O)([N-]Cc1ccncc1)c1ccc(N2CCCS2(=O)=O)s1 (3D coordinates assigned)
O=S(=O)([N-]Cc1ccncc1)c1ccc(N2CCCS2(=O)=O)s1 (nonaromatic ring conformer: 68.36542512150713 kcal/mol)

>  <smiles>  (65) 
O=S(=O)(NCc1ccncc1)c1ccc(N2CCCS2(=O)=O)s1

>  <score_type>  (65) 
oracle

>  <origin>  (65) 
adg

>  <m_score__min__energy>  (65) 
-9.5199999999999996

>  <m_primary>  (65) 
energy

$$$$
65:0
     RDKit          3D

 64 68  0  0  0  0  0  0  0  0999 V2000
   60.0890   24.8030   45.9700 O   0  0  0  0  0  0  0  0  0  0  0  0
   58.8830   25.1540   46.0120 C   0  0  0  0  0  0  0  0  0  0  0  0
   57.9030   24.2160   46.4750 N   0  0  0  0  0  0  0  0  0  0  0  0
   57.2940   23.2160   45.6020 C   0  0  0  0  0  0  0  0  0  0  0  0
   57.1300   23.6650   44.1600 C   0  0  0  0  0  0  0  0  0  0  0  0
   58.2510   22.7140   44.5360 C   0  0  0  0  0  0  0  0  0  0  0  0
   58.5130   26.5250   45.6140 C   0  0  0  0  0  0  0  0  0  0  0  0
   57.1630   26.9040   45.5340 C   0  0  0  0  0  0  0  0  0  0  0  0
   56.8170   28.2190   45.2140 C   0  0  0  0  0  0  0  0  0  0  0  0
   57.8160   29.1720   44.9680 C   0  0  0  0  0  0  0  0  0  0  0  0
   57.3740   30.8510   44.6730 S   0  0  0  0  0  0  0  0  0  0  0  0
   58.0680   31.3130   43.4200 O   0  0  0  0  0  0  0  0  0  0  0  0
   55.8880   30.9510   44.4490 O   0  0  0  0  0  0  0  0  0  0  0  0
   57.8510   31.8560   46.0270 N   0  0  0  0  0  0  0  0  0  0  0  0
   58.6920   32.9890   45.5580 C   0  0  0  0  0  0  0  0  0  0  0  0
   59.7520   33.4520   46.5470 C   0  0  0  0  0  0  0  0  0  0  0  0
   59.8630   32.9550   47.7930 C   0  0  0  0  0  0  0  0  0  0  0  0
   60.9090   33.4640   48.7300 C   0  0  0  0  0  0  0  0  0  0  0  0
   60.7820   34.5980   49.2630 O   0  0  0  0  0  0  0  0  0  0  0  0
   62.0860   32.6960   49.0200 N   0  0  0  0  0  0  0  0  0  0  0  0
   62.4600   32.4230   50.4070 C   0  0  0  0  0  0  0  0  0  0  0  0
   63.7470   33.1820   50.7280 C   0  0  0  0  0  0  0  0  0  0  0  0
   64.8010   32.7670   49.7690 N   0  0  0  0  0  0  0  0  0  0  0  0
   66.1990   33.1890   50.0720 C   0  0  0  0  0  0  0  0  0  0  0  0
   66.4210   34.0160   51.3450 C   0  0  0  0  0  0  0  0  0  0  0  0
   67.2950   32.9000   51.9050 C   0  0  0  0  0  0  0  0  0  0  0  0
   67.0760   32.0730   50.6390 C   0  0  0  0  0  0  0  0  0  0  0  0
   64.4200   33.1470   48.3900 C   0  0  0  0  0  0  0  0  0  0  0  0
   63.1030   32.4550   47.9930 C   0  0  0  0  0  0  0  0  0  0  0  0
   58.9190   31.8630   48.2350 C   0  0  0  0  0  0  0  0  0  0  0  0
   58.5160   31.0120   47.0330 C   0  0  0  0  0  0  0  0  0  0  0  0
   59.1650   28.7870   45.0070 C   0  0  0  0  0  0  0  0  0  0  0  0
   59.5120   27.4670   45.3160 C   0  0  0  0  0  0  0  0  0  0  0  0
   56.6290   22.7562   46.3479 H   0  0  0  0  0  0  0  0  0  0  0  0
   56.2785   23.3035   43.5648 H   0  0  0  0  0  0  0  0  0  0  0  0
   57.0735   24.6379   43.6498 H   0  0  0  0  0  0  0  0  0  0  0  0
   58.2121   21.6632   44.2130 H   0  0  0  0  0  0  0  0  0  0  0  0
   59.3439   22.7123   44.4109 H   0  0  0  0  0  0  0  0  0  0  0  0
   56.3740   26.1615   45.7243 H   0  0  0  0  0  0  0  0  0  0  0  0
   55.7573   28.5080   45.1548 H   0  0  0  0  0  0  0  0  0  0  0  0
   59.2000   32.6777   44.6333 H   0  0  0  0  0  0  0  0  0  0  0  0
   58.0106   33.8406   45.4147 H   0  0  0  0  0  0  0  0  0  0  0  0
   60.4614   34.2300   46.2284 H   0  0  0  0  0  0  0  0  0  0  0  0
   61.6561   32.7572   51.0794 H   0  0  0  0  0  0  0  0  0  0  0  0
   62.6180   31.3433   50.5462 H   0  0  0  0  0  0  0  0  0  0  0  0
   63.5702   34.2639   50.6372 H   0  0  0  0  0  0  0  0  0  0  0  0
   64.0674   32.9551   51.7556 H   0  0  0  0  0  0  0  0  0  0  0  0
   66.4128   33.6521   49.0974 H   0  0  0  0  0  0  0  0  0  0  0  0
   66.9527   34.9646   51.1791 H   0  0  0  0  0  0  0  0  0  0  0  0
   65.5654   34.3996   51.9201 H   0  0  0  0  0  0  0  0  0  0  0  0
   68.3420   33.1933   52.0717 H   0  0  0  0  0  0  0  0  0  0  0  0
   67.0729   32.4677   52.8918 H   0  0  0  0  0  0  0  0  0  0  0  0
   67.9925   31.8829   50.0611 H   0  0  0  0  0  0  0  0  0  0  0  0
   66.6980   31.0419   50.7026 H   0  0  0  0  0  0  0  0  0  0  0  0
   64.2878   34.2377   48.3369 H   0  0  0  0  0  0  0  0  0  0  0  0
   65.2145   32.8312   47.6979 H   0  0  0  0  0  0  0  0  0  0  0  0
   62.7537   32.8591   47.0314 H   0  0  0  0  0  0  0  0  0  0  0  0
   63.2754   31.3726   47.8998 H   0  0  0  0  0  0  0  0  0  0  0  0
   59.4187   31.2279   48.9813 H   0  0  0  0  0  0  0  0  0  0  0  0
   58.0198   32.3164   48.6776 H   0  0  0  0  0  0  0  0  0  0  0  0
   59.4138   30.5553   46.5911 H   0  0  0  0  0  0  0  0  0  0  0  0
   57.8233   30.2232   47.3615 H   0  0  0  0  0  0  0  0  0  0  0  0
   59.9522   29.5252   44.7940 H   0  0  0  0  0  0  0  0  0  0  0  0
   60.5700   27.1660   45.3256 H   0  0  0  0  0  0  0  0  0  0  0  0
  1  2  2  0
  2  3  1  0
  3  4  1  0
  4  5  1  0
  5  6  1  0
  2  7  1  0
  7  8  2  0
  8  9  1  0
  9 10  2  0
 10 11  1  0
 11 12  2  0
 11 13  2  0
 11 14  1  0
 14 15  1  0
 15 16  1  0
 16 17  2  0
 17 18  1  0
 18 19  2  0
 18 20  1  0
 20 21  1  0
 21 22  1  0
 22 23  1  0
 23 24  1  0
 24 25  1  0
 25 26  1  0
 26 27  1  0
 23 28  1  0
 28 29  1  0
 17 30  1  0
 30 31  1  0
 10 32  1  0
 32 33  2  0
  6  4  1  0
 33  7  1  0
 31 14  1  0
 29 20  1  0
 27 24  1  0
  4 34  1  0
  5 35  1  0
  5 36  1  0
  6 37  1  0
  6 38  1  0
  8 39  1  0
  9 40  1  0
 15 41  1  0
 15 42  1  0
 16 43  1  0
 21 44  1  0
 21 45  1  0
 22 46  1  0
 22 47  1  0
 24 48  1  0
 25 49  1  0
 25 50  1  0
 26 51  1  0
 26 52  1  0
 27 53  1  0
 27 54  1  0
 28 55  1  0
 28 56  1  0
 29 57  1  0
 29 58  1  0
 30 59  1  0
 30 60  1  0
 31 61  1  0
 31 62  1  0
 32 63  1  0
 33 64  1  0
M  CHG  1   3  -1
M  END
>  <UniqueID>  (66) 
62

>  <SMILES>  (66) 
O=C([N-]C1CC1)c1ccc(S(=O)(=O)N2CC=C(C(=O)N3CCN(C4CCC4)CC3)CC2)cc1

>  <Energy>  (66) 
412.4566139164194

>  <Genealogy>  (66) 
O=C([N-]C1CC1)c1ccc(S(=O)(=O)N2CC=C(C(=O)N3CCN(C4CCC4)CC3)CC2)cc1 (protonated)
O=C([N-]C1CC1)c1ccc(S(=O)(=O)N2CC=C(C(=O)N3CCN(C4CCC4)CC3)CC2)cc1 (3D coordinates assigned)
O=C([N-]C1CC1)c1ccc(S(=O)(=O)N2CC=C(C(=O)N3CCN(C4CCC4)CC3)CC2)cc1 (nonaromatic ring conformer: 412.4566139164194 kcal/mol)

>  <smiles>  (66) 
O=C(NC1CC1)c1ccc(S(=O)(=O)N2CC=C(C(=O)N3CCN(C4CCC4)CC3)CC2)cc1

>  <score_type>  (66) 
oracle

>  <origin>  (66) 
adg

>  <m_score__min__energy>  (66) 
-11.1

>  <m_primary>  (66) 
energy

$$$$
66:0
     RDKit          3D

 64 66  0  0  0  0  0  0  0  0999 V2000
   58.5490   34.1150   44.9200 C   0  0  0  0  0  0  0  0  0  0  0  0
   57.4060   33.2960   44.5510 N   0  0  0  0  0  0  0  0  0  0  0  0
   57.3100   31.9110   44.8900 C   0  0  0  0  0  0  0  0  0  0  0  0
   56.2300   31.2870   44.6990 O   0  0  0  0  0  0  0  0  0  0  0  0
   58.4350   31.2540   45.4900 N   0  0  0  0  0  0  0  0  0  0  0  0
   58.3980   29.8870   45.9280 C   0  0  0  0  0  0  0  0  0  0  0  0
   58.2680   28.8540   44.9840 C   0  0  0  0  0  0  0  0  0  0  0  0
   58.3100   27.5110   45.3830 C   0  0  0  0  0  0  0  0  0  0  0  0
   58.2110   26.4140   44.3610 C   0  0  0  0  0  0  0  0  0  0  0  0
   58.0250   24.8300   45.1620 S   0  0  0  0  0  0  0  0  0  0  0  0
   59.2390   24.5490   46.0010 O   0  0  0  0  0  0  0  0  0  0  0  0
   57.8740   23.7380   44.1390 O   0  0  0  0  0  0  0  0  0  0  0  0
   56.6300   24.8630   46.1860 N   0  0  0  0  0  0  0  0  0  0  0  0
   55.2980   24.9870   45.6780 C   0  0  0  0  0  0  0  0  0  0  0  0
   54.6120   26.0050   45.9600 O   0  0  0  0  0  0  0  0  0  0  0  0
   54.7200   23.9720   44.8440 N   0  0  0  0  0  0  0  0  0  0  0  0
   53.5520   23.4120   44.9750 C   0  0  0  0  0  0  0  0  0  0  0  0
   52.4710   23.8540   44.2780 N   0  0  0  0  0  0  0  0  0  0  0  0
   51.2630   23.2520   44.4260 C   0  0  0  0  0  0  0  0  0  0  0  0
   50.1680   23.7260   43.6990 O   0  0  0  0  0  0  0  0  0  0  0  0
   50.0560   25.0780   43.2680 C   0  0  0  0  0  0  0  0  0  0  0  0
   51.1370   22.1990   45.2750 N   0  0  0  0  0  0  0  0  0  0  0  0
   52.2100   21.7490   45.9730 C   0  0  0  0  0  0  0  0  0  0  0  0
   52.0600   20.6630   46.8370 O   0  0  0  0  0  0  0  0  0  0  0  0
   51.5640   20.7970   48.1630 C   0  0  0  0  0  0  0  0  0  0  0  0
   53.4160   22.3590   45.8200 N   0  0  0  0  0  0  0  0  0  0  0  0
   58.5220   27.2010   46.7330 C   0  0  0  0  0  0  0  0  0  0  0  0
   58.6590   28.2200   47.6780 C   0  0  0  0  0  0  0  0  0  0  0  0
   58.5760   29.5630   47.2930 C   0  0  0  0  0  0  0  0  0  0  0  0
   58.6990   30.5450   48.2880 O   0  0  0  0  0  0  0  0  0  0  0  0
   59.3770   31.7650   48.1390 C   0  0  0  0  0  0  0  0  0  0  0  0
   58.6500   32.9520   48.2560 C   0  0  0  0  0  0  0  0  0  0  0  0
   59.2940   34.1840   48.1490 C   0  0  0  0  0  0  0  0  0  0  0  0
   60.6700   34.2420   47.9230 C   0  0  0  0  0  0  0  0  0  0  0  0
   61.4280   33.0610   47.7740 C   0  0  0  0  0  0  0  0  0  0  0  0
   62.8630   33.1170   47.5550 N   0  0  0  0  0  0  0  0  0  0  0  0
   63.4150   33.8080   46.3830 C   0  0  0  0  0  0  0  0  0  0  0  0
   63.7860   32.4530   48.4850 C   0  0  0  0  0  0  0  0  0  0  0  0
   60.7550   31.8230   47.8600 C   0  0  0  0  0  0  0  0  0  0  0  0
   58.6233   34.1682   46.0162 H   0  0  0  0  0  0  0  0  0  0  0  0
   59.4674   33.6682   44.5115 H   0  0  0  0  0  0  0  0  0  0  0  0
   58.4212   35.1283   44.5115 H   0  0  0  0  0  0  0  0  0  0  0  0
   59.2590   31.8410   45.7520 H   0  0  0  0  0  0  0  0  0  0  0  0
   58.1319   29.1020   43.9210 H   0  0  0  0  0  0  0  0  0  0  0  0
   57.3395   26.5980   43.7155 H   0  0  0  0  0  0  0  0  0  0  0  0
   59.1321   26.4031   43.7598 H   0  0  0  0  0  0  0  0  0  0  0  0
   50.0012   25.7392   44.1454 H   0  0  0  0  0  0  0  0  0  0  0  0
   50.9352   25.3439   42.6628 H   0  0  0  0  0  0  0  0  0  0  0  0
   49.1450   25.1956   42.6628 H   0  0  0  0  0  0  0  0  0  0  0  0
   52.3697   20.5793   48.8796 H   0  0  0  0  0  0  0  0  0  0  0  0
   51.2036   21.8247   48.3175 H   0  0  0  0  0  0  0  0  0  0  0  0
   50.7351   20.0906   48.3175 H   0  0  0  0  0  0  0  0  0  0  0  0
   58.5808   26.1493   47.0501 H   0  0  0  0  0  0  0  0  0  0  0  0
   58.8336   27.9650   48.7337 H   0  0  0  0  0  0  0  0  0  0  0  0
   57.5650   32.9146   48.4333 H   0  0  0  0  0  0  0  0  0  0  0  0
   58.7149   35.1145   48.2431 H   0  0  0  0  0  0  0  0  0  0  0  0
   61.1697   35.2200   47.8603 H   0  0  0  0  0  0  0  0  0  0  0  0
   64.0695   34.6274   46.7150 H   0  0  0  0  0  0  0  0  0  0  0  0
   63.9962   33.0966   45.7780 H   0  0  0  0  0  0  0  0  0  0  0  0
   62.5928   34.2177   45.7780 H   0  0  0  0  0  0  0  0  0  0  0  0
   63.4834   32.6707   49.5199 H   0  0  0  0  0  0  0  0  0  0  0  0
   63.7584   31.3664   48.3158 H   0  0  0  0  0  0  0  0  0  0  0  0
   64.8074   32.8246   48.3158 H   0  0  0  0  0  0  0  0  0  0  0  0
   61.3163   30.8895   47.7066 H   0  0  0  0  0  0  0  0  0  0  0  0
  1  2  1  0
  2  3  1  0
  3  4  2  0
  3  5  1  0
  5  6  1  0
  6  7  2  0
  7  8  1  0
  8  9  1  0
  9 10  1  0
 10 11  2  0
 10 12  2  0
 10 13  1  0
 13 14  1  0
 14 15  2  0
 14 16  1  0
 16 17  2  3
 17 18  1  0
 18 19  2  0
 19 20  1  0
 20 21  1  0
 19 22  1  0
 22 23  1  0
 23 24  1  0
 24 25  1  0
 23 26  2  0
  8 27  2  0
 27 28  1  0
 28 29  2  0
 29 30  1  0
 30 31  1  0
 31 32  2  0
 32 33  1  0
 33 34  2  0
 34 35  1  0
 35 36  1  0
 36 37  1  0
 36 38  1  0
 35 39  2  0
 29  6  1  0
 39 31  1  0
 26 17  1  0
  1 40  1  0
  1 41  1  0
  1 42  1  0
  5 43  1  0
  7 44  1  0
  9 45  1  0
  9 46  1  0
 21 47  1  0
 21 48  1  0
 21 49  1  0
 25 50  1  0
 25 51  1  0
 25 52  1  0
 27 53  1  0
 28 54  1  0
 32 55  1  0
 33 56  1  0
 34 57  1  0
 37 58  1  0
 37 59  1  0
 37 60  1  0
 38 61  1  0
 38 62  1  0
 38 63  1  0
 39 64  1  0
M  CHG  3   2  -1  13  -1  22  -1
M  END
>  <UniqueID>  (67) 
63

>  <SMILES>  (67) 
C[N-]C(=O)Nc1cc(CS(=O)(=O)[N-]C(=O)N=c2nc(OC)[n-]c(OC)n2)ccc1Oc1cccc(N(C)C)c1

>  <Energy>  (67) 
69.16847244234712

>  <Genealogy>  (67) 
C[N-]C(=O)Nc1cc(CS(=O)(=O)[N-]C(=O)N=c2nc(OC)[n-]c(OC)n2)ccc1Oc1cccc(N(C)C)c1 (protonated)
C[N-]C(=O)Nc1cc(CS(=O)(=O)[N-]C(=O)N=c2nc(OC)[n-]c(OC)n2)ccc1Oc1cccc(N(C)C)c1 (3D coordinates assigned)
C[N-]C(=O)Nc1cc(CS(=O)(=O)[N-]C(=O)N=c2nc(OC)[n-]c(OC)n2)ccc1Oc1cccc(N(C)C)c1 (optimized conformer: 69.16847244234712 kcal/mol)

>  <smiles>  (67) 
CNC(=O)Nc1cc(CS(=O)(=O)NC(=O)N=c2nc(OC)[nH]c(OC)n2)ccc1Oc1cccc(N(C)C)c1

>  <score_type>  (67) 
oracle

>  <origin>  (67) 
adg

>  <m_score__min__energy>  (67) 
-13.82

>  <m_primary>  (67) 
energy

$$$$
67:0
     RDKit          3D

 70 74  0  0  0  0  0  0  0  0999 V2000
   62.3680   34.8570   50.3970 H   0  0  0  0  0  0  0  0  0  0  0  0
   62.2950   34.9730   49.3950 O   0  0  0  0  0  0  0  0  0  0  0  0
   61.6770   34.0440   48.5520 C   0  0  0  0  0  0  0  0  0  0  0  0
   60.4020   34.2860   48.1590 N   0  0  0  0  0  0  0  0  0  0  0  0
   59.7200   33.4510   47.3360 C   0  0  0  0  0  0  0  0  0  0  0  0
   58.4030   33.7520   46.9830 C   0  0  0  0  0  0  0  0  0  0  0  0
   57.9293   34.6690   47.3634 H   0  0  0  0  0  0  0  0  0  0  0  0
   57.6850   32.8920   46.1480 C   0  0  0  0  0  0  0  0  0  0  0  0
   56.6472   33.1345   45.8755 H   0  0  0  0  0  0  0  0  0  0  0  0
   58.2790   31.7230   45.6560 C   0  0  0  0  0  0  0  0  0  0  0  0
   57.3290   30.5850   44.6950 S   0  0  0  0  0  0  0  0  0  0  0  0
   57.7280   30.7000   43.2500 O   0  0  0  0  0  0  0  0  0  0  0  0
   55.8690   30.9410   44.8030 O   0  0  0  0  0  0  0  0  0  0  0  0
   57.5710   28.9420   45.2480 N   0  0  0  0  0  0  0  0  0  0  0  0
   58.5660   28.2640   44.3990 C   0  0  0  0  0  0  0  0  0  0  0  0
   58.2111   28.2571   43.3579 H   0  0  0  0  0  0  0  0  0  0  0  0
   59.5224   28.8033   44.4660 H   0  0  0  0  0  0  0  0  0  0  0  0
   58.7720   26.8140   44.8760 C   0  0  0  0  0  0  0  0  0  0  0  0
   57.8389   26.2538   44.7164 H   0  0  0  0  0  0  0  0  0  0  0  0
   59.6036   26.3857   44.2972 H   0  0  0  0  0  0  0  0  0  0  0  0
   59.1330   26.7370   46.3080 N   0  0  0  0  0  0  0  0  0  0  0  0
   60.5410   27.1070   46.5500 C   0  0  0  0  0  0  0  0  0  0  0  0
   60.7263   27.1557   47.6332 H   0  0  0  0  0  0  0  0  0  0  0  0
   61.2013   26.3519   46.0986 H   0  0  0  0  0  0  0  0  0  0  0  0
   60.7448   28.0892   46.0986 H   0  0  0  0  0  0  0  0  0  0  0  0
   58.1870   27.5050   47.1480 C   0  0  0  0  0  0  0  0  0  0  0  0
   57.2080   27.0037   47.1295 H   0  0  0  0  0  0  0  0  0  0  0  0
   58.5944   27.5448   48.1690 H   0  0  0  0  0  0  0  0  0  0  0  0
   58.0150   28.9480   46.6490 C   0  0  0  0  0  0  0  0  0  0  0  0
   57.2640   29.4610   47.2677 H   0  0  0  0  0  0  0  0  0  0  0  0
   58.9782   29.4742   46.7219 H   0  0  0  0  0  0  0  0  0  0  0  0
   59.6100   31.4270   45.9880 C   0  0  0  0  0  0  0  0  0  0  0  0
   60.0865   30.5219   45.5833 H   0  0  0  0  0  0  0  0  0  0  0  0
   60.3400   32.2840   46.8380 C   0  0  0  0  0  0  0  0  0  0  0  0
   61.6680   32.0050   47.2240 C   0  0  0  0  0  0  0  0  0  0  0  0
   62.2620   30.9930   46.7590 O   0  0  0  0  0  0  0  0  0  0  0  0
   62.3370   32.8710   48.1200 C   0  0  0  0  0  0  0  0  0  0  0  0
   63.7620   32.6660   48.4640 C   0  0  0  0  0  0  0  0  0  0  0  0
   64.5006   33.0169   47.7282 H   0  0  0  0  0  0  0  0  0  0  0  0
   64.2510   32.0950   49.5830 C   0  0  0  0  0  0  0  0  0  0  0  0
   63.5910   31.4440   50.6510 C   0  0  0  0  0  0  0  0  0  0  0  0
   62.2970   31.4050   51.0270 C   0  0  0  0  0  0  0  0  0  0  0  0
   61.8355   32.3472   51.3575 H   0  0  0  0  0  0  0  0  0  0  0  0
   61.4740   30.2260   51.0290 N   0  0  0  0  0  0  0  0  0  0  0  0
   60.4130   30.1410   52.0450 C   0  0  0  0  0  0  0  0  0  0  0  0
   60.7086   29.4090   52.8111 H   0  0  0  0  0  0  0  0  0  0  0  0
   60.2783   31.1380   52.4898 H   0  0  0  0  0  0  0  0  0  0  0  0
   59.0730   29.7020   51.4220 C   0  0  0  0  0  0  0  0  0  0  0  0
   59.0575   28.6042   51.3538 H   0  0  0  0  0  0  0  0  0  0  0  0
   58.2638   30.0761   52.0664 H   0  0  0  0  0  0  0  0  0  0  0  0
   58.8710   30.2660   50.0680 N   0  0  0  0  0  0  0  0  0  0  0  0
   58.5840   31.7120   50.1210 C   0  0  0  0  0  0  0  0  0  0  0  0
   58.5199   32.0349   51.1706 H   0  0  0  0  0  0  0  0  0  0  0  0
   59.3900   32.2645   49.6160 H   0  0  0  0  0  0  0  0  0  0  0  0
   57.6281   31.9148   49.6160 H   0  0  0  0  0  0  0  0  0  0  0  0
   59.9630   29.9420   49.1080 C   0  0  0  0  0  0  0  0  0  0  0  0
   59.6138   29.1374   48.4441 H   0  0  0  0  0  0  0  0  0  0  0  0
   60.1944   30.8681   48.5614 H   0  0  0  0  0  0  0  0  0  0  0  0
   61.2650   29.4830   49.7820 C   0  0  0  0  0  0  0  0  0  0  0  0
   61.2001   28.4078   50.0052 H   0  0  0  0  0  0  0  0  0  0  0  0
   62.1092   29.6731   49.1029 H   0  0  0  0  0  0  0  0  0  0  0  0
   64.5860   30.8370   51.4010 C   0  0  0  0  0  0  0  0  0  0  0  0
   64.4426   30.1753   52.2679 H   0  0  0  0  0  0  0  0  0  0  0  0
   65.7860   31.2210   50.8530 C   0  0  0  0  0  0  0  0  0  0  0  0
   67.1320   30.7740   51.3220 C   0  0  0  0  0  0  0  0  0  0  0  0
   67.1534   30.7669   52.4218 H   0  0  0  0  0  0  0  0  0  0  0  0
   67.3338   29.7606   50.9448 H   0  0  0  0  0  0  0  0  0  0  0  0
   67.9000   31.4653   50.9448 H   0  0  0  0  0  0  0  0  0  0  0  0
   65.5850   31.9870   49.7690 N   0  0  0  0  0  0  0  0  0  0  0  0
   66.3300   32.3560   49.1360 H   0  0  0  0  0  0  0  0  0  0  0  0
  1  2  1  0
  2  3  1  0
  3  4  1  0
  4  5  1  0
  5  6  2  0
  6  7  1  0
  6  8  1  0
  8  9  1  0
  8 10  2  0
 10 11  1  0
 11 12  2  0
 11 13  2  0
 11 14  1  0
 14 15  1  0
 15 16  1  0
 15 17  1  0
 15 18  1  0
 18 19  1  0
 18 20  1  0
 18 21  1  0
 21 22  1  0
 22 23  1  0
 22 24  1  0
 22 25  1  0
 21 26  1  0
 26 27  1  0
 26 28  1  0
 26 29  1  0
 29 30  1  0
 29 31  1  0
 10 32  1  0
 32 33  1  0
 32 34  2  0
 34 35  1  0
 35 36  2  0
 35 37  1  0
 37 38  1  0
 38 39  1  0
 38 40  2  0
 40 41  1  0
 41 42  2  0
 42 43  1  0
 42 44  1  0
 44 45  1  0
 45 46  1  0
 45 47  1  0
 45 48  1  0
 48 49  1  0
 48 50  1  0
 48 51  1  0
 51 52  1  0
 52 53  1  0
 52 54  1  0
 52 55  1  0
 51 56  1  0
 56 57  1  0
 56 58  1  0
 56 59  1  0
 59 60  1  0
 59 61  1  0
 41 62  1  0
 62 63  1  0
 62 64  2  0
 64 65  1  0
 65 66  1  0
 65 67  1  0
 65 68  1  0
 64 69  1  0
 69 70  1  0
 37  3  2  0
 69 40  1  0
 34  5  1  0
 59 44  1  0
 29 14  1  0
M  CHG  1   4  -1
M  END
>  <UniqueID>  (68) 
64

>  <SMILES>  (68) 
Cc1cc(=CN2CCN(C)CC2)/c(=C\c2c(O)[n-]c3ccc(S(=O)(=O)N4CCN(C)CC4)cc3c2=O)[nH]1

>  <Energy>  (68) 
134.0182893592579

>  <Genealogy>  (68) 
Cc1cc(=CN2CCN(C)CC2)c(=Cc2c(O)[n-]c3ccc(S(=O)(=O)N4CCN(C)CC4)cc3c2=O)[nH]1 (protonated)
Cc1cc(=CN2CCN(C)CC2)/c(=C\c2c(O)[n-]c3ccc(S(=O)(=O)N4CCN(C)CC4)cc3c2=O)[nH]1 (cis-trans isomerization)
Cc1cc(=CN2CCN(C)CC2)/c(=C\c2c(O)[n-]c3ccc(S(=O)(=O)N4CCN(C)CC4)cc3c2=O)[nH]1 (3D coordinates assigned)
Cc1cc(=CN2CCN(C)CC2)/c(=C\c2c(O)[n-]c3ccc(S(=O)(=O)N4CCN(C)CC4)cc3c2=O)[nH]1 (nonaromatic ring conformer: 134.0182893592579 kcal/mol)

>  <smiles>  (68) 
Cc1cc(=CN2CCN(C)CC2)c(=Cc2c(O)[nH]c3ccc(S(=O)(=O)N4CCN(C)CC4)cc3c2=O)[nH]1

>  <score_type>  (68) 
oracle

>  <origin>  (68) 
adg

>  <m_score__min__energy>  (68) 
-11.390000000000001

>  <m_primary>  (68) 
energy

$$$$
68:0
     RDKit          3D

 70 74  0  0  0  0  0  0  0  0999 V2000
   64.8543   32.3775   48.4347 H   0  0  0  0  0  0  0  0  0  0  0  0
   63.8660   32.8330   48.2740 C   0  0  0  0  0  0  0  0  0  0  0  0
   63.2710   32.7820   47.0120 C   0  0  0  0  0  0  0  0  0  0  0  0
   63.7953   32.2940   46.1772 H   0  0  0  0  0  0  0  0  0  0  0  0
   62.0080   33.3510   46.8070 C   0  0  0  0  0  0  0  0  0  0  0  0
   61.5451   33.3117   45.8099 H   0  0  0  0  0  0  0  0  0  0  0  0
   61.3280   33.9730   47.8710 C   0  0  0  0  0  0  0  0  0  0  0  0
   59.9620   34.5990   47.6530 C   0  0  0  0  0  0  0  0  0  0  0  0
   60.1061   35.6490   47.3586 H   0  0  0  0  0  0  0  0  0  0  0  0
   59.4106   34.4952   48.5991 H   0  0  0  0  0  0  0  0  0  0  0  0
   59.1500   33.9300   46.6090 N   0  0  0  0  0  0  0  0  0  0  0  0
   59.3760   34.4520   45.2520 C   0  0  0  0  0  0  0  0  0  0  0  0
   60.4488   34.6433   45.1022 H   0  0  0  0  0  0  0  0  0  0  0  0
   58.8241   35.3935   45.1143 H   0  0  0  0  0  0  0  0  0  0  0  0
   58.8930   33.4110   44.2440 C   0  0  0  0  0  0  0  0  0  0  0  0
   59.6836   32.6599   44.0998 H   0  0  0  0  0  0  0  0  0  0  0  0
   58.6642   33.9266   43.2996 H   0  0  0  0  0  0  0  0  0  0  0  0
   57.6690   32.7340   44.7080 N   0  0  0  0  0  0  0  0  0  0  0  0
   57.1980   31.5870   43.9650 C   0  0  0  0  0  0  0  0  0  0  0  0
   57.7280   31.3040   42.8540 O   0  0  0  0  0  0  0  0  0  0  0  0
   56.0960   30.7030   44.4910 C   0  0  0  0  0  0  0  0  0  0  0  0
   55.4259   30.4342   43.6611 H   0  0  0  0  0  0  0  0  0  0  0  0
   55.5505   31.2561   45.2698 H   0  0  0  0  0  0  0  0  0  0  0  0
   56.6330   29.4760   45.0870 N   0  0  0  0  0  0  0  0  0  0  0  0
   55.8820   28.3900   45.1980 N   0  0  0  0  0  0  0  0  0  0  0  0
   56.6510   27.3920   45.6800 C   0  0  0  0  0  0  0  0  0  0  0  0
   56.1320   26.0420   45.9600 C   0  0  0  0  0  0  0  0  0  0  0  0
   54.8820   25.8710   45.9830 O   0  0  0  0  0  0  0  0  0  0  0  0
   57.0070   24.9180   46.1750 N   0  0  0  0  0  0  0  0  0  0  0  0
   56.8120   23.9190   47.1600 C   0  0  0  0  0  0  0  0  0  0  0  0
   56.0840   24.0660   48.1770 O   0  0  0  0  0  0  0  0  0  0  0  0
   57.4970   22.7620   46.8880 O   0  0  0  0  0  0  0  0  0  0  0  0
   58.2030   22.9060   45.6620 C   0  0  0  0  0  0  0  0  0  0  0  0
   57.8496   22.1679   44.9269 H   0  0  0  0  0  0  0  0  0  0  0  0
   59.2824   22.7396   45.7930 H   0  0  0  0  0  0  0  0  0  0  0  0
   57.9020   24.3420   45.1720 C   0  0  0  0  0  0  0  0  0  0  0  0
   57.4113   24.3173   44.1878 H   0  0  0  0  0  0  0  0  0  0  0  0
   58.8214   24.9349   45.0571 H   0  0  0  0  0  0  0  0  0  0  0  0
   57.9350   27.8530   45.9020 C   0  0  0  0  0  0  0  0  0  0  0  0
   58.7989   27.2905   46.2858 H   0  0  0  0  0  0  0  0  0  0  0  0
   57.8840   29.1790   45.5320 C   0  0  0  0  0  0  0  0  0  0  0  0
   58.9230   29.9680   45.5920 N   0  0  0  0  0  0  0  0  0  0  0  0
   60.3100   29.6270   45.6590 C   0  0  0  0  0  0  0  0  0  0  0  0
   60.8650   29.0230   44.7040 O   0  0  0  0  0  0  0  0  0  0  0  0
   61.1360   30.1190   46.8050 C   0  0  0  0  0  0  0  0  0  0  0  0
   62.1833   29.8245   46.6421 H   0  0  0  0  0  0  0  0  0  0  0  0
   61.0377   31.2135   46.8539 H   0  0  0  0  0  0  0  0  0  0  0  0
   60.6570   29.5350   48.1410 C   0  0  0  0  0  0  0  0  0  0  0  0
   59.8304   28.8346   47.9507 H   0  0  0  0  0  0  0  0  0  0  0  0
   61.5021   29.0170   48.6178 H   0  0  0  0  0  0  0  0  0  0  0  0
   60.1880   30.5970   49.0490 N   0  0  0  0  0  0  0  0  0  0  0  0
   59.0000   31.2260   48.7890 C   0  0  0  0  0  0  0  0  0  0  0  0
   58.4080   30.9318   47.9098 H   0  0  0  0  0  0  0  0  0  0  0  0
   58.5340   32.2370   49.6300 C   0  0  0  0  0  0  0  0  0  0  0  0
   57.5830   32.7486   49.4205 H   0  0  0  0  0  0  0  0  0  0  0  0
   59.2990   32.5840   50.7400 C   0  0  0  0  0  0  0  0  0  0  0  0
   58.9060   33.4870   51.5260 O   0  0  0  0  0  0  0  0  0  0  0  0
   60.4700   31.9440   50.9780 N   0  0  0  0  0  0  0  0  0  0  0  0
   60.9250   30.9670   50.1470 C   0  0  0  0  0  0  0  0  0  0  0  0
   62.0230   30.4050   50.4050 O   0  0  0  0  0  0  0  0  0  0  0  0
   56.8490   33.3740   45.7520 C   0  0  0  0  0  0  0  0  0  0  0  0
   56.1143   32.6449   46.1243 H   0  0  0  0  0  0  0  0  0  0  0  0
   56.3495   34.2470   45.3067 H   0  0  0  0  0  0  0  0  0  0  0  0
   57.7110   33.8670   46.9390 C   0  0  0  0  0  0  0  0  0  0  0  0
   57.5734   33.1772   47.7847 H   0  0  0  0  0  0  0  0  0  0  0  0
   57.3817   34.8863   47.1890 H   0  0  0  0  0  0  0  0  0  0  0  0
   61.9460   34.0380   49.1340 C   0  0  0  0  0  0  0  0  0  0  0  0
   61.4362   34.5431   49.9676 H   0  0  0  0  0  0  0  0  0  0  0  0
   63.2060   33.4630   49.3340 C   0  0  0  0  0  0  0  0  0  0  0  0
   63.6782   33.5066   50.3266 H   0  0  0  0  0  0  0  0  0  0  0  0
  1  2  1  0
  2  3  2  0
  3  4  1  0
  3  5  1  0
  5  6  1  0
  5  7  2  0
  7  8  1  0
  8  9  1  0
  8 10  1  0
  8 11  1  0
 11 12  1  0
 12 13  1  0
 12 14  1  0
 12 15  1  0
 15 16  1  0
 15 17  1  0
 15 18  1  0
 18 19  1  0
 19 20  2  0
 19 21  1  0
 21 22  1  0
 21 23  1  0
 21 24  1  0
 24 25  1  0
 25 26  1  0
 26 27  1  0
 27 28  2  0
 27 29  1  0
 29 30  1  0
 30 31  2  0
 30 32  1  0
 32 33  1  0
 33 34  1  0
 33 35  1  0
 33 36  1  0
 36 37  1  0
 36 38  1  0
 26 39  2  0
 39 40  1  0
 39 41  1  0
 41 42  2  0
 42 43  1  0
 43 44  2  0
 43 45  1  0
 45 46  1  0
 45 47  1  0
 45 48  1  0
 48 49  1  0
 48 50  1  0
 48 51  1  0
 51 52  1  0
 52 53  1  0
 52 54  2  0
 54 55  1  0
 54 56  1  0
 56 57  2  0
 56 58  1  0
 58 59  1  0
 59 60  2  0
 18 61  1  0
 61 62  1  0
 61 63  1  0
 61 64  1  0
 64 65  1  0
 64 66  1  0
  7 67  1  0
 67 68  1  0
 67 69  2  0
 69 70  1  0
 69  2  1  0
 64 11  1  0
 41 24  1  0
 59 51  1  0
 36 29  1  0
M  CHG  2  25  -1  58  -1
M  END
>  <UniqueID>  (69) 
65

>  <SMILES>  (69) 
O=C(CCn1ccc(=O)[n-]c1=O)/N=c1/cc(C(=O)N2CCOC2=O)[n-]n1CC(=O)N1CCN(Cc2ccccc2)CC1

>  <Energy>  (69) 
144.21899808905005

>  <Genealogy>  (69) 
O=C(CCn1ccc(=O)[n-]c1=O)N=c1cc(C(=O)N2CCOC2=O)[n-]n1CC(=O)N1CCN(Cc2ccccc2)CC1 (protonated)
O=C(CCn1ccc(=O)[n-]c1=O)/N=c1/cc(C(=O)N2CCOC2=O)[n-]n1CC(=O)N1CCN(Cc2ccccc2)CC1 (cis-trans isomerization)
O=C(CCn1ccc(=O)[n-]c1=O)/N=c1/cc(C(=O)N2CCOC2=O)[n-]n1CC(=O)N1CCN(Cc2ccccc2)CC1 (3D coordinates assigned)
O=C(CCn1ccc(=O)[n-]c1=O)/N=c1/cc(C(=O)N2CCOC2=O)[n-]n1CC(=O)N1CCN(Cc2ccccc2)CC1 (nonaromatic ring conformer: 144.21899808905005 kcal/mol)

>  <smiles>  (69) 
O=C(CCn1ccc(=O)[nH]c1=O)N=c1cc(C(=O)N2CCOC2=O)[nH]n1CC(=O)N1CCN(Cc2ccccc2)CC1

>  <score_type>  (69) 
oracle

>  <origin>  (69) 
adg

>  <m_score__min__energy>  (69) 
-13.859999999999999

>  <m_primary>  (69) 
energy

$$$$
69:0
     RDKit          3D

 53 56  0  0  0  0  0  0  0  0999 V2000
   60.4370   34.5750   48.9950 C   0  0  0  0  0  0  0  0  0  0  0  0
   59.4940   34.0820   48.1980 C   0  0  0  0  0  0  0  0  0  0  0  0
   58.5040   33.1430   48.5960 N   0  0  0  0  0  0  0  0  0  0  0  0
   57.7220   32.8780   47.4290 C   0  0  0  0  0  0  0  0  0  0  0  0
   58.1390   33.5850   46.3770 C   0  0  0  0  0  0  0  0  0  0  0  0
   57.5860   33.4970   44.9860 C   0  0  0  0  0  0  0  0  0  0  0  0
   58.1500   32.2720   44.2580 C   0  0  0  0  0  0  0  0  0  0  0  0
   57.5550   30.9890   44.7790 C   0  0  0  0  0  0  0  0  0  0  0  0
   56.3020   30.8380   44.7610 O   0  0  0  0  0  0  0  0  0  0  0  0
   58.3920   29.9240   45.2740 N   0  0  0  0  0  0  0  0  0  0  0  0
   59.5460   29.4410   44.5010 C   0  0  0  0  0  0  0  0  0  0  0  0
   59.4820   27.9170   44.3590 C   0  0  0  0  0  0  0  0  0  0  0  0
   59.2960   27.2410   45.7220 C   0  0  0  0  0  0  0  0  0  0  0  0
   58.0610   27.8010   46.4440 C   0  0  0  0  0  0  0  0  0  0  0  0
   58.1410   29.3350   46.6030 C   0  0  1  0  0  0  0  0  0  0  0  0
   59.1720   29.8500   47.6110 C   0  0  0  0  0  0  0  0  0  0  0  0
   59.1240   29.5480   48.9890 C   0  0  0  0  0  0  0  0  0  0  0  0
   60.0710   30.0800   49.8670 C   0  0  0  0  0  0  0  0  0  0  0  0
   61.0690   30.9320   49.3980 C   0  0  0  0  0  0  0  0  0  0  0  0
   61.1260   31.2720   48.0380 C   0  0  0  0  0  0  0  0  0  0  0  0
   62.1520   32.1560   47.5440 N   0  0  0  0  0  0  0  0  0  0  0  0
   63.4460   32.1780   47.9250 C   0  0  0  0  0  0  0  0  0  0  0  0
   64.0970   33.1710   47.2180 C   0  0  0  0  0  0  0  0  0  0  0  0
   63.1280   33.7250   46.4040 C   0  0  0  0  0  0  0  0  0  0  0  0
   61.9630   33.0910   46.6240 N   0  0  0  0  0  0  0  0  0  0  0  0
   60.1660   30.7430   47.1610 C   0  0  0  0  0  0  0  0  0  0  0  0
   59.2890   34.3790   46.7950 C   0  0  0  0  0  0  0  0  0  0  0  0
   59.9700   35.1570   46.0760 O   0  0  0  0  0  0  0  0  0  0  0  0
   61.1653   35.2999   48.6024 H   0  0  0  0  0  0  0  0  0  0  0  0
   60.4889   34.2580   50.0471 H   0  0  0  0  0  0  0  0  0  0  0  0
   58.3860   32.7140   49.5400 H   0  0  0  0  0  0  0  0  0  0  0  0
   56.8767   32.1746   47.4015 H   0  0  0  0  0  0  0  0  0  0  0  0
   56.4903   33.4145   45.0371 H   0  0  0  0  0  0  0  0  0  0  0  0
   57.8739   34.4026   44.4319 H   0  0  0  0  0  0  0  0  0  0  0  0
   57.9236   32.3597   43.1851 H   0  0  0  0  0  0  0  0  0  0  0  0
   59.2358   32.2408   44.4313 H   0  0  0  0  0  0  0  0  0  0  0  0
   59.5330   29.9006   43.5017 H   0  0  0  0  0  0  0  0  0  0  0  0
   60.4725   29.7157   45.0265 H   0  0  0  0  0  0  0  0  0  0  0  0
   58.6352   27.6524   43.7087 H   0  0  0  0  0  0  0  0  0  0  0  0
   60.4296   27.5675   43.9231 H   0  0  0  0  0  0  0  0  0  0  0  0
   59.1671   26.1587   45.5733 H   0  0  0  0  0  0  0  0  0  0  0  0
   60.1852   27.4393   46.3385 H   0  0  0  0  0  0  0  0  0  0  0  0
   57.1625   27.5491   45.8616 H   0  0  0  0  0  0  0  0  0  0  0  0
   58.0175   27.3533   47.4478 H   0  0  0  0  0  0  0  0  0  0  0  0
   57.1749   29.6495   47.0246 H   0  0  0  0  0  0  0  0  0  0  0  0
   58.3335   28.8876   49.3749 H   0  0  0  0  0  0  0  0  0  0  0  0
   60.0287   29.8247   50.9361 H   0  0  0  0  0  0  0  0  0  0  0  0
   61.8147   31.3394   50.0965 H   0  0  0  0  0  0  0  0  0  0  0  0
   63.9061   31.5161   48.6734 H   0  0  0  0  0  0  0  0  0  0  0  0
   65.1566   33.4580   47.2881 H   0  0  0  0  0  0  0  0  0  0  0  0
   63.2840   34.5494   45.6927 H   0  0  0  0  0  0  0  0  0  0  0  0
   61.0640   33.2820   46.1300 H   0  0  0  0  0  0  0  0  0  0  0  0
   60.1897   31.0314   46.0997 H   0  0  0  0  0  0  0  0  0  0  0  0
  1  2  2  0
  2  3  1  0
  3  4  1  0
  4  5  2  0
  5  6  1  0
  6  7  1  0
  7  8  1  0
  8  9  2  0
  8 10  1  0
 10 11  1  0
 11 12  1  0
 12 13  1  0
 13 14  1  0
 14 15  1  0
 15 16  1  0
 16 17  2  0
 17 18  1  0
 18 19  2  0
 19 20  1  0
 20 21  1  0
 21 22  1  0
 22 23  2  0
 23 24  1  0
 24 25  2  0
 20 26  2  0
  5 27  1  0
 27 28  2  0
 27  2  1  0
 15 10  1  0
 26 16  1  0
 25 21  1  0
  1 29  1  0
  1 30  1  0
  3 31  1  0
  4 32  1  0
  6 33  1  0
  6 34  1  0
  7 35  1  0
  7 36  1  0
 11 37  1  0
 11 38  1  0
 12 39  1  0
 12 40  1  0
 13 41  1  0
 13 42  1  0
 14 43  1  0
 14 44  1  0
 15 45  1  1
 17 46  1  0
 18 47  1  0
 19 48  1  0
 22 49  1  0
 23 50  1  0
 24 51  1  0
 25 52  1  0
 26 53  1  0
M  CHG  1  25   1
M  END
>  <UniqueID>  (70) 
66

>  <SMILES>  (70) 
C=C1NC=C(CCC(=O)N2CCCC[C@H]2c2cccc(-n3ccc[nH+]3)c2)C1=O

>  <Energy>  (70) 
112.11205448167182

>  <Genealogy>  (70) 
C=C1NC=C(CCC(=O)N2CCCCC2c2cccc(-n3ccc[nH+]3)c2)C1=O (protonated)
C=C1NC=C(CCC(=O)N2CCCC[C@H]2c2cccc(-n3ccc[nH+]3)c2)C1=O (chirality)
C=C1NC=C(CCC(=O)N2CCCC[C@H]2c2cccc(-n3ccc[nH+]3)c2)C1=O (3D coordinates assigned)
C=C1NC=C(CCC(=O)N2CCCC[C@H]2c2cccc(-n3ccc[nH+]3)c2)C1=O (nonaromatic ring conformer: 112.11205448167182 kcal/mol)

>  <smiles>  (70) 
C=C1NC=C(CCC(=O)N2CCCCC2c2cccc(-n3cccn3)c2)C1=O

>  <score_type>  (70) 
oracle

>  <origin>  (70) 
adg

>  <m_score__min__energy>  (70) 
-8.0700000000000003

>  <m_primary>  (70) 
energy

$$$$
70:0
     RDKit          3D

 53 55  0  0  0  0  0  0  0  0999 V2000
   54.7670   27.0920   46.4490 H   0  0  0  0  0  0  0  0  0  0  0  0
   54.5690   26.1760   45.9910 N   0  0  0  0  0  0  0  0  0  0  0  0
   56.0300   25.2550   46.0490 S   0  0  0  0  0  0  0  0  0  0  0  0
   56.0220   24.2470   44.9340 O   0  0  0  0  0  0  0  0  0  0  0  0
   56.1220   24.5290   47.3610 O   0  0  0  0  0  0  0  0  0  0  0  0
   57.4060   26.3410   45.8820 C   0  0  0  0  0  0  0  0  0  0  0  0
   58.0860   26.8170   47.0110 C   0  0  0  0  0  0  0  0  0  0  0  0
   57.7558   26.5173   48.0165 H   0  0  0  0  0  0  0  0  0  0  0  0
   59.1820   27.6710   46.8640 C   0  0  0  0  0  0  0  0  0  0  0  0
   59.7103   28.0407   47.7552 H   0  0  0  0  0  0  0  0  0  0  0  0
   59.6130   28.0600   45.5860 C   0  0  0  0  0  0  0  0  0  0  0  0
   60.7890   28.9880   45.4360 C   0  0  0  0  0  0  0  0  0  0  0  0
   61.2162   28.8704   44.4292 H   0  0  0  0  0  0  0  0  0  0  0  0
   61.5394   28.7357   46.1997 H   0  0  0  0  0  0  0  0  0  0  0  0
   60.3750   30.3780   45.6230 N   0  0  0  0  0  0  0  0  0  0  0  0
   59.8190   30.8570   46.7000 C   0  0  0  0  0  0  0  0  0  0  0  0
   59.9940   30.4070   47.9950 C   0  0  0  0  0  0  0  0  0  0  0  0
   60.6336   29.5843   48.3474 H   0  0  0  0  0  0  0  0  0  0  0  0
   59.1730   31.2370   48.7470 C   0  0  0  0  0  0  0  0  0  0  0  0
   58.9910   31.1780   50.2540 C   0  0  0  0  0  0  0  0  0  0  0  0
   60.2510   31.7320   50.9480 C   0  0  0  0  0  0  0  0  0  0  0  0
   60.1233   31.6758   52.0391 H   0  0  0  0  0  0  0  0  0  0  0  0
   61.1259   31.1356   50.6501 H   0  0  0  0  0  0  0  0  0  0  0  0
   60.4029   32.7799   50.6501 H   0  0  0  0  0  0  0  0  0  0  0  0
   58.7670   29.7220   50.7160 C   0  0  0  0  0  0  0  0  0  0  0  0
   58.7610   29.6829   51.8153 H   0  0  0  0  0  0  0  0  0  0  0  0
   57.8025   29.3594   50.3309 H   0  0  0  0  0  0  0  0  0  0  0  0
   59.5779   29.0863   50.3309 H   0  0  0  0  0  0  0  0  0  0  0  0
   57.7660   32.0240   50.6500 C   0  0  0  0  0  0  0  0  0  0  0  0
   57.6938   32.0739   51.7465 H   0  0  0  0  0  0  0  0  0  0  0  0
   57.8751   33.0401   50.2431 H   0  0  0  0  0  0  0  0  0  0  0  0
   56.8544   31.5621   50.2431 H   0  0  0  0  0  0  0  0  0  0  0  0
   58.5560   32.1260   47.9370 N   0  0  0  0  0  0  0  0  0  0  0  0
   58.9580   31.8920   46.6980 N   0  0  0  0  0  0  0  0  0  0  0  0
   58.4630   32.6240   45.5320 C   0  0  0  0  0  0  0  0  0  0  0  0
   58.1264   33.6222   45.8486 H   0  0  0  0  0  0  0  0  0  0  0  0
   59.2771   32.7107   44.7974 H   0  0  0  0  0  0  0  0  0  0  0  0
   57.2900   31.8800   44.8820 C   0  0  2  0  0  0  0  0  0  0  0  0
   56.4082   32.5307   44.9769 H   0  0  0  0  0  0  0  0  0  0  0  0
   57.0930   30.6500   45.5350 O   0  0  0  0  0  0  0  0  0  0  0  0
   56.5170   29.7910   44.5830 C   0  0  0  0  0  0  0  0  0  0  0  0
   55.4211   29.8800   44.6171 H   0  0  0  0  0  0  0  0  0  0  0  0
   56.7941   28.7484   44.7978 H   0  0  0  0  0  0  0  0  0  0  0  0
   57.0210   30.1920   43.2100 C   0  0  0  0  0  0  0  0  0  0  0  0
   56.2068   30.1619   42.4710 H   0  0  0  0  0  0  0  0  0  0  0  0
   57.8012   29.5148   42.8322 H   0  0  0  0  0  0  0  0  0  0  0  0
   57.5200   31.6010   43.3990 C   0  0  0  0  0  0  0  0  0  0  0  0
   56.9487   32.3047   42.7758 H   0  0  0  0  0  0  0  0  0  0  0  0
   58.5733   31.7195   43.1049 H   0  0  0  0  0  0  0  0  0  0  0  0
   58.9330   27.5760   44.4560 C   0  0  0  0  0  0  0  0  0  0  0  0
   59.2640   27.8722   43.4497 H   0  0  0  0  0  0  0  0  0  0  0  0
   57.8380   26.7200   44.6040 C   0  0  0  0  0  0  0  0  0  0  0  0
   57.3134   26.3424   43.7139 H   0  0  0  0  0  0  0  0  0  0  0  0
  1  2  1  0
  2  3  1  0
  3  4  2  0
  3  5  2  0
  3  6  1  0
  6  7  2  0
  7  8  1  0
  7  9  1  0
  9 10  1  0
  9 11  2  0
 11 12  1  0
 12 13  1  0
 12 14  1  0
 12 15  1  0
 15 16  2  0
 16 17  1  0
 17 18  1  0
 17 19  2  0
 19 20  1  0
 20 21  1  0
 21 22  1  0
 21 23  1  0
 21 24  1  0
 20 25  1  0
 25 26  1  0
 25 27  1  0
 25 28  1  0
 20 29  1  0
 29 30  1  0
 29 31  1  0
 29 32  1  0
 19 33  1  0
 33 34  1  0
 34 35  1  0
 35 36  1  0
 35 37  1  0
 35 38  1  0
 38 39  1  6
 38 40  1  0
 40 41  1  0
 41 42  1  0
 41 43  1  0
 41 44  1  0
 44 45  1  0
 44 46  1  0
 44 47  1  0
 47 48  1  0
 47 49  1  0
 11 50  1  0
 50 51  1  0
 50 52  2  0
 52 53  1  0
 52  6  1  0
 34 16  1  0
 47 38  1  0
M  CHG  2   2  -1  33  -1
M  END
>  <UniqueID>  (71) 
67

>  <SMILES>  (71) 
CC(C)(C)c1c/c(=N\Cc2ccc(S([NH-])(=O)=O)cc2)n(C[C@H]2CCCO2)[n-]1

>  <Energy>  (71) 
76.61056012096417

>  <Genealogy>  (71) 
CC(C)(C)c1cc(=NCc2ccc(S([NH-])(=O)=O)cc2)n(CC2CCCO2)[n-]1 (protonated)
CC(C)(C)c1cc(=NCc2ccc(S([NH-])(=O)=O)cc2)n(C[C@H]2CCCO2)[n-]1 (chirality)
CC(C)(C)c1c/c(=N\Cc2ccc(S([NH-])(=O)=O)cc2)n(C[C@H]2CCCO2)[n-]1 (cis-trans isomerization)
CC(C)(C)c1c/c(=N\Cc2ccc(S([NH-])(=O)=O)cc2)n(C[C@H]2CCCO2)[n-]1 (3D coordinates assigned)
CC(C)(C)c1c/c(=N\Cc2ccc(S([NH-])(=O)=O)cc2)n(C[C@H]2CCCO2)[n-]1 (nonaromatic ring conformer: 76.61056012096417 kcal/mol)

>  <smiles>  (71) 
CC(C)(C)c1cc(=NCc2ccc(S(N)(=O)=O)cc2)n(CC2CCCO2)[nH]1

>  <score_type>  (71) 
oracle

>  <origin>  (71) 
adg

>  <m_score__min__energy>  (71) 
-11.880000000000001

>  <m_primary>  (71) 
energy

$$$$
71:0
     RDKit          3D

 28 29  0  0  0  0  0  0  0  0999 V2000
   54.3880   26.6760   46.7550 H   0  0  0  0  0  0  0  0  0  0  0  0
   55.1260   26.4520   46.0980 O   0  0  0  0  0  0  0  0  0  0  0  0
   56.0900   25.5010   46.4110 C   0  0  0  0  0  0  0  0  0  0  0  0
   55.8800   24.4680   47.2450 N   0  0  0  0  0  0  0  0  0  0  0  0
   57.0890   23.8680   47.2840 C   0  0  0  0  0  0  0  0  0  0  0  0
   57.3140   22.8420   47.9770 O   0  0  0  0  0  0  0  0  0  0  0  0
   58.0410   24.4610   46.5320 N   0  0  0  0  0  0  0  0  0  0  0  0
   57.3910   25.4870   45.9550 C   0  0  0  0  0  0  0  0  0  0  0  0
   58.0550   26.4980   45.1070 C   0  0  0  0  0  0  0  0  0  0  0  0
   58.8168   26.1421   44.3977 H   0  0  0  0  0  0  0  0  0  0  0  0
   57.8000   27.8330   45.1330 C   0  0  0  0  0  0  0  0  0  0  0  0
   57.3860   28.5010   43.9570 C   0  0  0  0  0  0  0  0  0  0  0  0
   57.2435   27.9212   43.0331 H   0  0  0  0  0  0  0  0  0  0  0  0
   57.1530   29.8810   43.9390 C   0  0  0  0  0  0  0  0  0  0  0  0
   56.6770   30.5470   42.6700 C   0  0  0  0  0  0  0  0  0  0  0  0
   56.7128   29.8202   41.8451 H   0  0  0  0  0  0  0  0  0  0  0  0
   55.6467   30.9015   42.8209 H   0  0  0  0  0  0  0  0  0  0  0  0
   57.5610   31.7400   42.3250 C   0  0  0  0  0  0  0  0  0  0  0  0
   57.9134   32.2155   43.2522 H   0  0  0  0  0  0  0  0  0  0  0  0
   58.4254   31.3979   41.7369 H   0  0  0  0  0  0  0  0  0  0  0  0
   56.9821   32.4674   41.7369 H   0  0  0  0  0  0  0  0  0  0  0  0
   57.3280   30.6040   45.1240 C   0  0  0  0  0  0  0  0  0  0  0  0
   57.1090   31.8440   45.1610 O   0  0  0  0  0  0  0  0  0  0  0  0
   57.7350   29.9690   46.2490 N   0  0  0  0  0  0  0  0  0  0  0  0
   57.9810   28.6320   46.3090 C   0  0  0  0  0  0  0  0  0  0  0  0
   58.3480   28.1430   47.5050 C   0  0  0  0  0  0  0  0  0  0  0  0
   58.5609   27.0698   47.6186 H   0  0  0  0  0  0  0  0  0  0  0  0
   58.4356   28.8158   48.3709 H   0  0  0  0  0  0  0  0  0  0  0  0
  1  2  1  0
  2  3  1  0
  3  4  1  0
  4  5  1  0
  5  6  2  0
  5  7  1  0
  7  8  1  0
  8  9  1  0
  9 10  1  0
  9 11  2  0
 11 12  1  0
 12 13  1  0
 12 14  2  0
 14 15  1  0
 15 16  1  0
 15 17  1  0
 15 18  1  0
 18 19  1  0
 18 20  1  0
 18 21  1  0
 14 22  1  0
 22 23  2  0
 22 24  1  0
 24 25  1  0
 25 26  2  0
 26 27  1  0
 26 28  1  0
  8  3  2  0
 25 11  1  0
M  CHG  3   4  -1   7  -1  24  -1
M  END
>  <UniqueID>  (72) 
68

>  <SMILES>  (72) 
C=c1[n-]c(=O)c(CC)c/c1=C\c1[n-]c(=O)[n-]c1O

>  <Energy>  (72) 
70.38962347117173

>  <Genealogy>  (72) 
C=c1[n-]c(=O)c(CC)cc1=Cc1[n-]c(=O)[n-]c1O (protonated)
C=c1[n-]c(=O)c(CC)c/c1=C\c1[n-]c(=O)[n-]c1O (cis-trans isomerization)
C=c1[n-]c(=O)c(CC)c/c1=C\c1[n-]c(=O)[n-]c1O (3D coordinates assigned)
C=c1[n-]c(=O)c(CC)c/c1=C\c1[n-]c(=O)[n-]c1O (optimized conformer: 70.38962347117173 kcal/mol)

>  <smiles>  (72) 
C=c1[nH]c(=O)c(CC)cc1=Cc1[nH]c(=O)[nH]c1O

>  <score_type>  (72) 
oracle

>  <origin>  (72) 
adg

>  <m_score__min__energy>  (72) 
-12.390000000000001

>  <m_primary>  (72) 
energy

$$$$
72:0
     RDKit          3D

 53 55  0  0  0  0  0  0  0  0999 V2000
   58.1360   32.4470   42.0030 C   0  0  0  0  0  0  0  0  0  0  0  0
   57.3300   31.2190   42.4180 C   0  0  0  0  0  0  0  0  0  0  0  0
   57.4950   30.9500   43.8450 N   0  0  0  0  0  0  0  0  0  0  0  0
   56.7540   31.7570   44.8260 C   0  0  0  0  0  0  0  0  0  0  0  0
   57.6840   32.5080   45.7340 C   0  0  0  0  0  0  0  0  0  0  0  0
   57.3860   33.6610   46.1330 O   0  0  0  0  0  0  0  0  0  0  0  0
   58.9460   31.9370   46.0820 N   0  0  0  0  0  0  0  0  0  0  0  0
   59.8160   32.5730   47.0230 C   0  0  0  0  0  0  0  0  0  0  0  0
   59.8270   33.9690   47.1240 C   0  0  0  0  0  0  0  0  0  0  0  0
   60.6830   34.5990   48.0260 C   0  0  0  0  0  0  0  0  0  0  0  0
   61.5310   33.8420   48.8360 C   0  0  0  0  0  0  0  0  0  0  0  0
   61.5200   32.4480   48.7520 C   0  0  0  0  0  0  0  0  0  0  0  0
   60.6700   31.8080   47.8420 C   0  0  0  0  0  0  0  0  0  0  0  0
   60.6160   30.3370   47.8090 C   0  0  0  0  0  0  0  0  0  0  0  0
   60.7270   29.7580   46.6940 O   0  0  0  0  0  0  0  0  0  0  0  0
   60.4800   29.5580   49.0200 N   0  0  0  0  0  0  0  0  0  0  0  0
   59.9350   30.1730   50.2420 C   0  0  0  0  0  0  0  0  0  0  0  0
   60.3500   29.3740   51.4800 C   0  0  0  0  0  0  0  0  0  0  0  0
   60.0630   28.0010   51.3070 O   0  0  0  0  0  0  0  0  0  0  0  0
   60.8670   27.4750   50.2740 C   0  0  0  0  0  0  0  0  0  0  0  0
   60.4890   28.0940   48.9310 C   0  0  0  0  0  0  0  0  0  0  0  0
   58.2880   29.8260   44.2700 C   0  0  0  0  0  0  0  0  0  0  0  0
   59.5290   29.8390   44.0640 O   0  0  0  0  0  0  0  0  0  0  0  0
   57.6910   28.6660   44.9700 C   0  0  0  0  0  0  0  0  0  0  0  0
   58.4970   27.6590   45.5210 C   0  0  0  0  0  0  0  0  0  0  0  0
   57.9100   26.5560   46.1390 C   0  0  0  0  0  0  0  0  0  0  0  0
   56.5200   26.4590   46.1920 C   0  0  0  0  0  0  0  0  0  0  0  0
   55.9740   25.4720   46.7460 O   0  0  0  0  0  0  0  0  0  0  0  0
   55.7510   27.4370   45.6470 N   0  0  0  0  0  0  0  0  0  0  0  0
   56.2990   28.5210   45.0400 C   0  0  0  0  0  0  0  0  0  0  0  0
   58.4843   32.9777   42.9013 H   0  0  0  0  0  0  0  0  0  0  0  0
   59.0031   32.1313   41.4043 H   0  0  0  0  0  0  0  0  0  0  0  0
   57.5014   33.1170   41.4043 H   0  0  0  0  0  0  0  0  0  0  0  0
   56.2656   31.3969   42.2049 H   0  0  0  0  0  0  0  0  0  0  0  0
   57.6931   30.3496   41.8503 H   0  0  0  0  0  0  0  0  0  0  0  0
   56.1187   32.4773   44.2897 H   0  0  0  0  0  0  0  0  0  0  0  0
   56.1436   31.0790   45.4407 H   0  0  0  0  0  0  0  0  0  0  0  0
   59.1500   30.9560   45.7980 H   0  0  0  0  0  0  0  0  0  0  0  0
   59.1587   34.5703   46.4902 H   0  0  0  0  0  0  0  0  0  0  0  0
   60.6902   35.6965   48.0997 H   0  0  0  0  0  0  0  0  0  0  0  0
   62.2091   34.3442   49.5417 H   0  0  0  0  0  0  0  0  0  0  0  0
   62.1793   31.8528   49.4009 H   0  0  0  0  0  0  0  0  0  0  0  0
   60.3170   31.2007   50.3305 H   0  0  0  0  0  0  0  0  0  0  0  0
   58.8370   30.1789   50.1760 H   0  0  0  0  0  0  0  0  0  0  0  0
   61.4303   29.4992   51.6453 H   0  0  0  0  0  0  0  0  0  0  0  0
   59.7858   29.7470   52.3475 H   0  0  0  0  0  0  0  0  0  0  0  0
   61.9228   27.6959   50.4895 H   0  0  0  0  0  0  0  0  0  0  0  0
   60.7091   26.3877   50.2204 H   0  0  0  0  0  0  0  0  0  0  0  0
   61.2208   27.7828   48.1710 H   0  0  0  0  0  0  0  0  0  0  0  0
   59.4817   27.7500   48.6536 H   0  0  0  0  0  0  0  0  0  0  0  0
   59.5926   27.7397   45.4654 H   0  0  0  0  0  0  0  0  0  0  0  0
   58.5381   25.7686   46.5812 H   0  0  0  0  0  0  0  0  0  0  0  0
   55.6464   29.2898   44.6007 H   0  0  0  0  0  0  0  0  0  0  0  0
  1  2  1  0
  2  3  1  0
  3  4  1  0
  4  5  1  0
  5  6  2  0
  5  7  1  0
  7  8  1  0
  8  9  2  0
  9 10  1  0
 10 11  2  0
 11 12  1  0
 12 13  2  0
 13 14  1  0
 14 15  2  0
 14 16  1  0
 16 17  1  0
 17 18  1  0
 18 19  1  0
 19 20  1  0
 20 21  1  0
  3 22  1  0
 22 23  2  0
 22 24  1  0
 24 25  1  0
 25 26  2  0
 26 27  1  0
 27 28  2  0
 27 29  1  0
 29 30  1  0
 13  8  1  0
 21 16  1  0
 30 24  2  0
  1 31  1  0
  1 32  1  0
  1 33  1  0
  2 34  1  0
  2 35  1  0
  4 36  1  0
  4 37  1  0
  7 38  1  0
  9 39  1  0
 10 40  1  0
 11 41  1  0
 12 42  1  0
 17 43  1  0
 17 44  1  0
 18 45  1  0
 18 46  1  0
 20 47  1  0
 20 48  1  0
 21 49  1  0
 21 50  1  0
 25 51  1  0
 26 52  1  0
 30 53  1  0
M  CHG  1  29  -1
M  END
>  <UniqueID>  (73) 
69

>  <SMILES>  (73) 
CCN(CC(=O)Nc1ccccc1C(=O)N1CCOCC1)C(=O)c1ccc(=O)[n-]c1

>  <Energy>  (73) 
68.7989046677807

>  <Genealogy>  (73) 
CCN(CC(=O)Nc1ccccc1C(=O)N1CCOCC1)C(=O)c1ccc(=O)[n-]c1 (protonated)
CCN(CC(=O)Nc1ccccc1C(=O)N1CCOCC1)C(=O)c1ccc(=O)[n-]c1 (3D coordinates assigned)
CCN(CC(=O)Nc1ccccc1C(=O)N1CCOCC1)C(=O)c1ccc(=O)[n-]c1 (nonaromatic ring conformer: 68.7989046677807 kcal/mol)

>  <smiles>  (73) 
CCN(CC(=O)Nc1ccccc1C(=O)N1CCOCC1)C(=O)c1ccc(=O)[nH]c1

>  <score_type>  (73) 
oracle

>  <origin>  (73) 
adg

>  <m_score__min__energy>  (73) 
-11.08

>  <m_primary>  (73) 
energy

$$$$
73:0
     RDKit          3D

 50 53  0  0  0  0  0  0  0  0999 V2000
   54.7440   27.4650   46.4200 H   0  0  0  0  0  0  0  0  0  0  0  0
   55.4920   27.0670   45.8680 O   0  0  0  0  0  0  0  0  0  0  0  0
   56.3980   26.1580   46.4110 C   0  0  0  0  0  0  0  0  0  0  0  0
   56.0480   24.9320   46.8310 N   0  0  0  0  0  0  0  0  0  0  0  0
   57.2280   24.3920   47.2010 C   0  0  0  0  0  0  0  0  0  0  0  0
   57.3250   23.2220   47.6530 O   0  0  0  0  0  0  0  0  0  0  0  0
   58.2970   25.2020   47.0400 N   0  0  0  0  0  0  0  0  0  0  0  0
   57.7600   26.3360   46.5560 C   0  0  0  0  0  0  0  0  0  0  0  0
   58.5640   27.5120   46.1840 C   0  0  0  0  0  0  0  0  0  0  0  0
   59.0117   27.5395   45.1796 H   0  0  0  0  0  0  0  0  0  0  0  0
   58.7810   28.5560   47.0070 C   0  0  0  0  0  0  0  0  0  0  0  0
   58.3310   29.8550   46.8170 C   0  0  0  0  0  0  0  0  0  0  0  0
   57.7488   30.2296   45.9622 H   0  0  0  0  0  0  0  0  0  0  0  0
   58.7550   30.5850   47.9070 C   0  0  0  0  0  0  0  0  0  0  0  0
   58.4760   32.0230   48.0840 C   0  0  0  0  0  0  0  0  0  0  0  0
   58.0470   32.4150   49.2030 O   0  0  0  0  0  0  0  0  0  0  0  0
   58.6300   32.9980   46.9750 C   0  0  0  0  0  0  0  0  0  0  0  0
   59.5380   34.0670   47.0960 C   0  0  0  0  0  0  0  0  0  0  0  0
   60.1332   34.1771   48.0145 H   0  0  0  0  0  0  0  0  0  0  0  0
   59.6880   34.9890   46.0570 C   0  0  0  0  0  0  0  0  0  0  0  0
   60.4037   35.8181   46.1586 H   0  0  0  0  0  0  0  0  0  0  0  0
   58.9320   34.8610   44.8900 C   0  0  0  0  0  0  0  0  0  0  0  0
   59.0533   35.5876   44.0730 H   0  0  0  0  0  0  0  0  0  0  0  0
   58.0220   33.8100   44.7610 C   0  0  0  0  0  0  0  0  0  0  0  0
   57.4261   33.7102   43.8418 H   0  0  0  0  0  0  0  0  0  0  0  0
   57.8660   32.8840   45.7970 C   0  0  0  0  0  0  0  0  0  0  0  0
   57.1427   32.0620   45.6916 H   0  0  0  0  0  0  0  0  0  0  0  0
   59.4310   29.7950   48.7780 N   0  0  0  0  0  0  0  0  0  0  0  0
   59.9050   30.1720   50.1190 C   0  0  0  0  0  0  0  0  0  0  0  0
   59.0451   30.2343   50.8021 H   0  0  0  0  0  0  0  0  0  0  0  0
   60.6161   29.4101   50.4709 H   0  0  0  0  0  0  0  0  0  0  0  0
   60.6030   31.5060   50.0790 C   0  0  0  0  0  0  0  0  0  0  0  0
   60.2920   32.3800   50.9340 O   0  0  0  0  0  0  0  0  0  0  0  0
   61.5590   31.8310   49.0530 N   0  0  0  0  0  0  0  0  0  0  0  0
   61.9910   30.9170   48.0070 C   0  0  0  0  0  0  0  0  0  0  0  0
   62.4154   30.0029   48.4478 H   0  0  0  0  0  0  0  0  0  0  0  0
   61.1519   30.6073   47.3667 H   0  0  0  0  0  0  0  0  0  0  0  0
   63.0540   31.6680   47.2160 C   0  0  0  0  0  0  0  0  0  0  0  0
   64.0563   31.2959   47.4745 H   0  0  0  0  0  0  0  0  0  0  0  0
   62.9226   31.5284   46.1328 H   0  0  0  0  0  0  0  0  0  0  0  0
   62.9160   33.1360   47.6100 C   0  0  0  0  0  0  0  0  0  0  0  0
   63.9087   33.5941   47.7317 H   0  0  0  0  0  0  0  0  0  0  0  0
   62.3835   33.7120   46.8388 H   0  0  0  0  0  0  0  0  0  0  0  0
   62.1630   33.1460   48.9330 C   0  0  0  0  0  0  0  0  0  0  0  0
   62.8566   33.3268   49.7674 H   0  0  0  0  0  0  0  0  0  0  0  0
   61.4063   33.9439   48.9627 H   0  0  0  0  0  0  0  0  0  0  0  0
   59.4460   28.5480   48.2360 C   0  0  0  0  0  0  0  0  0  0  0  0
   60.0160   27.4810   48.8210 C   0  0  0  0  0  0  0  0  0  0  0  0
   60.5157   27.5893   49.7950 H   0  0  0  0  0  0  0  0  0  0  0  0
   59.9829   26.4993   48.3259 H   0  0  0  0  0  0  0  0  0  0  0  0
  1  2  1  0
  2  3  1  0
  3  4  1  0
  4  5  1  0
  5  6  2  0
  5  7  1  0
  7  8  1  0
  8  9  1  0
  9 10  1  0
  9 11  2  0
 11 12  1  0
 12 13  1  0
 12 14  2  0
 14 15  1  0
 15 16  2  0
 15 17  1  0
 17 18  2  0
 18 19  1  0
 18 20  1  0
 20 21  1  0
 20 22  2  0
 22 23  1  0
 22 24  1  0
 24 25  1  0
 24 26  2  0
 26 27  1  0
 14 28  1  0
 28 29  1  0
 29 30  1  0
 29 31  1  0
 29 32  1  0
 32 33  2  0
 32 34  1  0
 34 35  1  0
 35 36  1  0
 35 37  1  0
 35 38  1  0
 38 39  1  0
 38 40  1  0
 38 41  1  0
 41 42  1  0
 41 43  1  0
 41 44  1  0
 44 45  1  0
 44 46  1  0
 28 47  1  0
 47 48  2  0
 48 49  1  0
 48 50  1  0
  8  3  2  0
 47 11  1  0
 26 17  1  0
 44 34  1  0
M  CHG  2   4  -1   7  -1
M  END
>  <UniqueID>  (74) 
70

>  <SMILES>  (74) 
C=c1/c(=C/c2[n-]c(=O)[n-]c2O)cc(C(=O)c2ccccc2)n1CC(=O)N1CCCC1

>  <Energy>  (74) 
123.81951551581427

>  <Genealogy>  (74) 
C=c1c(=Cc2[n-]c(=O)[n-]c2O)cc(C(=O)c2ccccc2)n1CC(=O)N1CCCC1 (protonated)
C=c1/c(=C/c2[n-]c(=O)[n-]c2O)cc(C(=O)c2ccccc2)n1CC(=O)N1CCCC1 (cis-trans isomerization)
C=c1/c(=C/c2[n-]c(=O)[n-]c2O)cc(C(=O)c2ccccc2)n1CC(=O)N1CCCC1 (3D coordinates assigned)
C=c1/c(=C/c2[n-]c(=O)[n-]c2O)cc(C(=O)c2ccccc2)n1CC(=O)N1CCCC1 (nonaromatic ring conformer: 123.81951551581427 kcal/mol)

>  <smiles>  (74) 
C=c1c(=Cc2[nH]c(=O)[nH]c2O)cc(C(=O)c2ccccc2)n1CC(=O)N1CCCC1

>  <score_type>  (74) 
oracle

>  <origin>  (74) 
adg

>  <m_score__min__energy>  (74) 
-14.18

>  <m_primary>  (74) 
energy

$$$$
74:0
     RDKit          3D

 39 41  0  0  0  0  0  0  0  0999 V2000
   60.3880   30.5950   46.8120 C   0  0  0  0  0  0  0  0  0  0  0  0
   59.2950   30.1700   46.1760 C   0  0  0  0  0  0  0  0  0  0  0  0
   59.0660   28.8560   45.9450 N   0  0  0  0  0  0  0  0  0  0  0  0
   57.8470   28.8230   45.3660 C   0  0  0  0  0  0  0  0  0  0  0  0
   57.2300   27.7100   44.9420 C   0  0  0  0  0  0  0  0  0  0  0  0
   57.1820   26.4560   45.7290 C   0  0  0  0  0  0  0  0  0  0  0  0
   55.9590   26.0030   46.2470 C   0  0  0  0  0  0  0  0  0  0  0  0
   54.7840   26.7070   46.0050 O   0  0  0  0  0  0  0  0  0  0  0  0
   55.9100   24.8620   46.9800 N   0  0  0  0  0  0  0  0  0  0  0  0
   57.0340   24.1470   47.2390 C   0  0  0  0  0  0  0  0  0  0  0  0
   56.9630   23.0880   47.9160 O   0  0  0  0  0  0  0  0  0  0  0  0
   58.2340   24.5750   46.7740 N   0  0  0  0  0  0  0  0  0  0  0  0
   58.3380   25.7110   46.0370 C   0  0  0  0  0  0  0  0  0  0  0  0
   59.4770   26.0970   45.6620 O   0  0  0  0  0  0  0  0  0  0  0  0
   57.3720   30.1110   45.2520 C   0  0  0  0  0  0  0  0  0  0  0  0
   56.2700   30.4550   44.7470 O   0  0  0  0  0  0  0  0  0  0  0  0
   58.2800   30.9670   45.7530 N   0  0  0  0  0  0  0  0  0  0  0  0
   58.1530   32.3990   45.7930 C   0  0  0  0  0  0  0  0  0  0  0  0
   58.2910   33.0580   44.7260 O   0  0  0  0  0  0  0  0  0  0  0  0
   58.0590   33.1290   47.1080 C   0  0  0  0  0  0  0  0  0  0  0  0
   58.8950   34.4180   47.1450 C   0  0  0  0  0  0  0  0  0  0  0  0
   60.3440   34.1430   47.4520 C   0  0  0  0  0  0  0  0  0  0  0  0
   60.8060   34.1870   48.7790 C   0  0  0  0  0  0  0  0  0  0  0  0
   62.1580   33.9720   49.0610 C   0  0  0  0  0  0  0  0  0  0  0  0
   63.0590   33.7180   48.0230 C   0  0  0  0  0  0  0  0  0  0  0  0
   62.6080   33.6770   46.7000 C   0  0  0  0  0  0  0  0  0  0  0  0
   61.2560   33.8890   46.4140 C   0  0  0  0  0  0  0  0  0  0  0  0
   60.5418   31.6708   46.9826 H   0  0  0  0  0  0  0  0  0  0  0  0
   61.1354   29.8697   47.1659 H   0  0  0  0  0  0  0  0  0  0  0  0
   56.7345   27.7295   43.9601 H   0  0  0  0  0  0  0  0  0  0  0  0
   57.0058   33.3899   47.2887 H   0  0  0  0  0  0  0  0  0  0  0  0
   58.4571   32.4584   47.8838 H   0  0  0  0  0  0  0  0  0  0  0  0
   58.8275   34.9132   46.1651 H   0  0  0  0  0  0  0  0  0  0  0  0
   58.4946   35.0595   47.9438 H   0  0  0  0  0  0  0  0  0  0  0  0
   60.1010   34.3913   49.5983 H   0  0  0  0  0  0  0  0  0  0  0  0
   62.5135   34.0027   50.1015 H   0  0  0  0  0  0  0  0  0  0  0  0
   64.1229   33.5504   48.2469 H   0  0  0  0  0  0  0  0  0  0  0  0
   63.3177   33.4777   45.8835 H   0  0  0  0  0  0  0  0  0  0  0  0
   60.9049   33.8568   45.3720 H   0  0  0  0  0  0  0  0  0  0  0  0
  1  2  2  0
  2  3  1  0
  3  4  1  0
  4  5  2  3
  5  6  1  0
  6  7  2  0
  7  8  1  0
  7  9  1  0
  9 10  1  0
 10 11  2  0
 10 12  1  0
 12 13  1  0
 13 14  2  0
  4 15  1  0
 15 16  2  0
 15 17  1  0
 17 18  1  0
 18 19  2  0
 18 20  1  0
 20 21  1  0
 21 22  1  0
 22 23  2  0
 23 24  1  0
 24 25  2  0
 25 26  1  0
 26 27  2  0
 17  2  1  0
 27 22  1  0
 13  6  1  0
  1 28  1  0
  1 29  1  0
  5 30  1  0
 20 31  1  0
 20 32  1  0
 21 33  1  0
 21 34  1  0
 23 35  1  0
 24 36  1  0
 25 37  1  0
 26 38  1  0
 27 39  1  0
M  CHG  4   3  -1   8  -1   9  -1  12  -1
M  END
>  <UniqueID>  (75) 
71

>  <SMILES>  (75) 
C=c1[n-]c(=Cc2c([O-])[n-]c(=O)[n-]c2=O)c(=O)n1C(=O)CCc1ccccc1

>  <Energy>  (75) 
86.1191338120621

>  <Genealogy>  (75) 
C=c1[n-]c(=Cc2c([O-])[n-]c(=O)[n-]c2=O)c(=O)n1C(=O)CCc1ccccc1 (protonated)
C=c1[n-]c(=Cc2c([O-])[n-]c(=O)[n-]c2=O)c(=O)n1C(=O)CCc1ccccc1 (3D coordinates assigned)
C=c1[n-]c(=Cc2c([O-])[n-]c(=O)[n-]c2=O)c(=O)n1C(=O)CCc1ccccc1 (optimized conformer: 86.1191338120621 kcal/mol)

>  <smiles>  (75) 
C=c1[nH]c(=Cc2c(O)[nH]c(=O)[nH]c2=O)c(=O)n1C(=O)CCc1ccccc1

>  <score_type>  (75) 
oracle

>  <origin>  (75) 
adg

>  <m_score__min__energy>  (75) 
-17.629999999999999

>  <m_primary>  (75) 
energy

$$$$
75:0
     RDKit          3D

 58 61  0  0  0  0  0  0  0  0999 V2000
   53.6646   27.3432   53.9662 H   0  0  0  0  0  0  0  0  0  0  0  0
   53.3800   28.3200   53.5480 C   0  0  0  0  0  0  0  0  0  0  0  0
   52.3183   28.5664   53.3992 H   0  0  0  0  0  0  0  0  0  0  0  0
   54.3290   29.2120   53.2190 C   0  0  0  0  0  0  0  0  0  0  0  0
   54.1360   30.4940   52.6780 C   0  0  0  0  0  0  0  0  0  0  0  0
   53.0170   31.2290   52.5200 C   0  0  0  0  0  0  0  0  0  0  0  0
   52.7143   31.8697   53.3613 H   0  0  0  0  0  0  0  0  0  0  0  0
   52.1650   31.2490   51.3200 C   0  0  0  0  0  0  0  0  0  0  0  0
   52.2410   30.3360   50.3370 N   0  0  0  0  0  0  0  0  0  0  0  0
   51.3880   30.8100   49.4020 C   0  0  0  0  0  0  0  0  0  0  0  0
   51.1710   30.2120   48.3140 O   0  0  0  0  0  0  0  0  0  0  0  0
   50.7950   31.9820   49.7170 N   0  0  0  0  0  0  0  0  0  0  0  0
   51.3110   32.2560   50.9270 C   0  0  0  0  0  0  0  0  0  0  0  0
   51.0290   33.4150   51.6430 O   0  0  0  0  0  0  0  0  0  0  0  0
   55.3870   30.9470   52.3030 C   0  0  0  0  0  0  0  0  0  0  0  0
   55.6135   31.8962   51.7953 H   0  0  0  0  0  0  0  0  0  0  0  0
   56.2990   29.9830   52.6860 C   0  0  0  0  0  0  0  0  0  0  0  0
   57.7860   30.0990   52.4750 C   0  0  0  0  0  0  0  0  0  0  0  0
   58.2064   30.7325   53.2699 H   0  0  0  0  0  0  0  0  0  0  0  0
   58.2068   29.0830   52.5013 H   0  0  0  0  0  0  0  0  0  0  0  0
   58.1350   30.7030   51.1420 C   0  0  0  0  0  0  0  0  0  0  0  0
   58.0690   30.0100   50.0900 O   0  0  0  0  0  0  0  0  0  0  0  0
   58.6450   32.0430   51.0960 N   0  0  0  0  0  0  0  0  0  0  0  0
   58.9690   32.4710   51.9930 H   0  0  0  0  0  0  0  0  0  0  0  0
   58.8460   32.7870   49.8820 C   0  0  0  0  0  0  0  0  0  0  0  0
   59.7030   33.9010   49.8390 C   0  0  0  0  0  0  0  0  0  0  0  0
   60.2066   34.2403   50.7562 H   0  0  0  0  0  0  0  0  0  0  0  0
   59.9180   34.5800   48.6340 C   0  0  0  0  0  0  0  0  0  0  0  0
   60.5821   35.4566   48.6092 H   0  0  0  0  0  0  0  0  0  0  0  0
   59.2910   34.1470   47.4620 C   0  0  0  0  0  0  0  0  0  0  0  0
   59.4636   34.6810   46.5160 H   0  0  0  0  0  0  0  0  0  0  0  0
   58.4430   33.0330   47.4930 C   0  0  0  0  0  0  0  0  0  0  0  0
   57.7800   32.5720   46.2640 C   0  0  0  0  0  0  0  0  0  0  0  0
   57.0290   33.3800   45.6520 O   0  0  0  0  0  0  0  0  0  0  0  0
   57.9690   31.2290   45.7630 N   0  0  0  0  0  0  0  0  0  0  0  0
   59.0720   30.4170   46.3130 C   0  0  0  0  0  0  0  0  0  0  0  0
   59.1583   30.6164   47.3913 H   0  0  0  0  0  0  0  0  0  0  0  0
   59.9973   30.6931   45.7862 H   0  0  0  0  0  0  0  0  0  0  0  0
   58.8360   28.9500   46.1070 C   0  0  0  0  0  0  0  0  0  0  0  0
   59.3170   28.1180   46.9260 O   0  0  0  0  0  0  0  0  0  0  0  0
   58.0970   28.5040   44.9600 N   0  0  0  0  0  0  0  0  0  0  0  0
   57.7660   27.0870   44.7910 C   0  0  0  0  0  0  0  0  0  0  0  0
   57.6559   26.6158   45.7789 H   0  0  0  0  0  0  0  0  0  0  0  0
   56.8222   26.9949   44.2336 H   0  0  0  0  0  0  0  0  0  0  0  0
   58.5714   26.5863   44.2336 H   0  0  0  0  0  0  0  0  0  0  0  0
   57.6960   29.5050   43.9710 C   0  0  0  0  0  0  0  0  0  0  0  0
   56.9440   29.0701   43.2962 H   0  0  0  0  0  0  0  0  0  0  0  0
   58.5785   29.8166   43.3931 H   0  0  0  0  0  0  0  0  0  0  0  0
   57.0990   30.7260   44.6770 C   0  0  0  0  0  0  0  0  0  0  0  0
   56.1252   30.4458   45.1051 H   0  0  0  0  0  0  0  0  0  0  0  0
   56.9948   31.5278   43.9312 H   0  0  0  0  0  0  0  0  0  0  0  0
   58.2280   32.3520   48.7000 C   0  0  0  0  0  0  0  0  0  0  0  0
   57.5702   31.4706   48.7201 H   0  0  0  0  0  0  0  0  0  0  0  0
   55.6580   28.9280   53.2450 N   0  0  0  0  0  0  0  0  0  0  0  0
   56.2680   27.6700   53.6970 C   0  0  0  0  0  0  0  0  0  0  0  0
   56.2810   27.6431   54.7966 H   0  0  0  0  0  0  0  0  0  0  0  0
   55.6817   26.8207   53.3164 H   0  0  0  0  0  0  0  0  0  0  0  0
   57.2980   27.6044   53.3164 H   0  0  0  0  0  0  0  0  0  0  0  0
  1  2  1  0
  2  3  1  0
  2  4  2  0
  4  5  1  0
  5  6  2  0
  6  7  1  0
  6  8  1  0
  8  9  1  0
  9 10  1  0
 10 11  2  0
 10 12  1  0
 12 13  1  0
 13 14  1  0
  5 15  1  0
 15 16  1  0
 15 17  2  0
 17 18  1  0
 18 19  1  0
 18 20  1  0
 18 21  1  0
 21 22  2  0
 21 23  1  0
 23 24  1  0
 23 25  1  0
 25 26  2  0
 26 27  1  0
 26 28  1  0
 28 29  1  0
 28 30  2  0
 30 31  1  0
 30 32  1  0
 32 33  1  0
 33 34  2  0
 33 35  1  0
 35 36  1  0
 36 37  1  0
 36 38  1  0
 36 39  1  0
 39 40  2  0
 39 41  1  0
 41 42  1  0
 42 43  1  0
 42 44  1  0
 42 45  1  0
 41 46  1  0
 46 47  1  0
 46 48  1  0
 46 49  1  0
 49 50  1  0
 49 51  1  0
 32 52  2  0
 52 53  1  0
 17 54  1  0
 54 55  1  0
 55 56  1  0
 55 57  1  0
 55 58  1  0
 54  4  1  0
 13  8  2  0
 52 25  1  0
 49 35  1  0
M  CHG  3   9  -1  12  -1  14  -1
M  END
>  <UniqueID>  (76) 
72

>  <SMILES>  (76) 
C=c1/c(=C\c2[n-]c(=O)[n-]c2[O-])cc(CC(=O)Nc2cccc(C(=O)N3CCN(C)C(=O)C3)c2)n1C

>  <Energy>  (76) 
140.1723769399196

>  <Genealogy>  (76) 
C=c1c(=Cc2[n-]c(=O)[n-]c2[O-])cc(CC(=O)Nc2cccc(C(=O)N3CCN(C)C(=O)C3)c2)n1C (protonated)
C=c1/c(=C\c2[n-]c(=O)[n-]c2[O-])cc(CC(=O)Nc2cccc(C(=O)N3CCN(C)C(=O)C3)c2)n1C (cis-trans isomerization)
C=c1/c(=C\c2[n-]c(=O)[n-]c2[O-])cc(CC(=O)Nc2cccc(C(=O)N3CCN(C)C(=O)C3)c2)n1C (3D coordinates assigned)
C=c1/c(=C\c2[n-]c(=O)[n-]c2[O-])cc(CC(=O)Nc2cccc(C(=O)N3CCN(C)C(=O)C3)c2)n1C (nonaromatic ring conformer: 140.1723769399196 kcal/mol)

>  <smiles>  (76) 
C=c1c(=Cc2[nH]c(=O)[nH]c2O)cc(CC(=O)Nc2cccc(C(=O)N3CCN(C)C(=O)C3)c2)n1C

>  <score_type>  (76) 
oracle

>  <origin>  (76) 
adg

>  <m_score__min__energy>  (76) 
-18.93

>  <m_primary>  (76) 
energy

$$$$
76:0
     RDKit          3D

 58 61  0  0  0  0  0  0  0  0999 V2000
   64.6053   32.1054   47.1390 H   0  0  0  0  0  0  0  0  0  0  0  0
   63.7570   32.6710   47.5520 C   0  0  0  0  0  0  0  0  0  0  0  0
   62.8360   33.2190   46.7170 N   0  0  0  0  0  0  0  0  0  0  0  0
   61.7700   33.9320   47.1850 C   0  0  0  0  0  0  0  0  0  0  0  0
   60.8950   34.4540   46.3740 N   0  0  0  0  0  0  0  0  0  0  0  0
   59.4800   34.5810   46.5960 C   0  0  0  0  0  0  0  0  0  0  0  0
   59.0110   35.5250   47.2900 O   0  0  0  0  0  0  0  0  0  0  0  0
   58.5500   33.5570   46.0040 C   0  0  0  0  0  0  0  0  0  0  0  0
   57.5197   33.8783   46.2169 H   0  0  0  0  0  0  0  0  0  0  0  0
   58.7190   33.4760   44.4780 C   0  0  0  0  0  0  0  0  0  0  0  0
   58.5178   34.4662   44.0431 H   0  0  0  0  0  0  0  0  0  0  0  0
   59.7486   33.1549   44.2615 H   0  0  0  0  0  0  0  0  0  0  0  0
   57.7490   32.4470   43.8540 C   0  0  0  0  0  0  0  0  0  0  0  0
   56.9171   32.9888   43.3803 H   0  0  0  0  0  0  0  0  0  0  0  0
   58.3165   31.8552   43.1207 H   0  0  0  0  0  0  0  0  0  0  0  0
   57.1960   31.5110   44.8540 N   0  0  0  0  0  0  0  0  0  0  0  0
   56.4130   30.1690   44.0550 S   0  0  0  0  0  0  0  0  0  0  0  0
   56.3730   30.4250   42.5740 O   0  0  0  0  0  0  0  0  0  0  0  0
   54.9970   30.0530   44.5460 O   0  0  0  0  0  0  0  0  0  0  0  0
   57.2570   28.6480   44.3650 C   0  0  0  0  0  0  0  0  0  0  0  0
   57.7970   27.9110   43.3030 C   0  0  0  0  0  0  0  0  0  0  0  0
   57.6866   28.2745   42.2707 H   0  0  0  0  0  0  0  0  0  0  0  0
   58.4750   26.7160   43.5520 C   0  0  0  0  0  0  0  0  0  0  0  0
   58.8990   26.1411   42.7156 H   0  0  0  0  0  0  0  0  0  0  0  0
   58.6160   26.2490   44.8610 C   0  0  0  0  0  0  0  0  0  0  0  0
   59.1557   25.3096   45.0515 H   0  0  0  0  0  0  0  0  0  0  0  0
   58.0720   26.9730   45.9360 C   0  0  0  0  0  0  0  0  0  0  0  0
   58.2330   26.4930   47.3290 C   0  0  0  0  0  0  0  0  0  0  0  0
   57.3820   25.7020   47.8120 O   0  0  0  0  0  0  0  0  0  0  0  0
   59.3080   26.9420   48.1650 N   0  0  0  0  0  0  0  0  0  0  0  0
   59.6960   28.3080   48.3700 C   0  0  0  0  0  0  0  0  0  0  0  0
   60.7620   28.8860   47.6560 C   0  0  0  0  0  0  0  0  0  0  0  0
   61.3082   28.2911   46.9091 H   0  0  0  0  0  0  0  0  0  0  0  0
   61.1290   30.2140   47.8930 C   0  0  0  0  0  0  0  0  0  0  0  0
   61.9555   30.6651   47.3243 H   0  0  0  0  0  0  0  0  0  0  0  0
   60.4470   30.9700   48.8520 C   0  0  0  0  0  0  0  0  0  0  0  0
   60.7342   32.0161   49.0340 H   0  0  0  0  0  0  0  0  0  0  0  0
   59.3990   30.3950   49.5800 C   0  0  0  0  0  0  0  0  0  0  0  0
   58.5510   31.3380   50.7910 Cl  0  0  0  0  0  0  0  0  0  0  0  0
   59.0310   29.0640   49.3440 C   0  0  0  0  0  0  0  0  0  0  0  0
   58.2157   28.6102   49.9265 H   0  0  0  0  0  0  0  0  0  0  0  0
   57.3980   28.1780   45.6780 C   0  0  0  0  0  0  0  0  0  0  0  0
   56.9774   28.7575   46.5130 H   0  0  0  0  0  0  0  0  0  0  0  0
   58.2470   31.0230   45.7620 C   0  0  0  0  0  0  0  0  0  0  0  0
   57.8355   30.2247   46.3971 H   0  0  0  0  0  0  0  0  0  0  0  0
   59.0845   30.6355   45.1633 H   0  0  0  0  0  0  0  0  0  0  0  0
   58.7590   32.1690   46.6550 C   0  0  0  0  0  0  0  0  0  0  0  0
   58.2169   32.1415   47.6118 H   0  0  0  0  0  0  0  0  0  0  0  0
   59.8396   32.0248   46.8020 H   0  0  0  0  0  0  0  0  0  0  0  0
   61.6100   34.1050   48.5660 C   0  0  0  0  0  0  0  0  0  0  0  0
   60.7612   34.6865   48.9550 H   0  0  0  0  0  0  0  0  0  0  0  0
   62.5360   33.5340   49.4500 C   0  0  0  0  0  0  0  0  0  0  0  0
   62.3970   33.7410   50.9300 C   0  0  0  0  0  0  0  0  0  0  0  0
   62.9332   32.9425   51.4639 H   0  0  0  0  0  0  0  0  0  0  0  0
   62.8236   34.7168   51.2054 H   0  0  0  0  0  0  0  0  0  0  0  0
   61.3323   33.7154   51.2054 H   0  0  0  0  0  0  0  0  0  0  0  0
   63.6280   32.8250   48.9340 C   0  0  0  0  0  0  0  0  0  0  0  0
   64.3784   32.3927   49.6122 H   0  0  0  0  0  0  0  0  0  0  0  0
  1  2  1  0
  2  3  1  0
  3  4  1  0
  4  5  2  0
  5  6  1  0
  6  7  2  0
  6  8  1  0
  8  9  1  0
  8 10  1  0
 10 11  1  0
 10 12  1  0
 10 13  1  0
 13 14  1  0
 13 15  1  0
 13 16  1  0
 16 17  1  0
 17 18  2  0
 17 19  2  0
 17 20  1  0
 20 21  2  0
 21 22  1  0
 21 23  1  0
 23 24  1  0
 23 25  2  0
 25 26  1  0
 25 27  1  0
 27 28  1  0
 28 29  2  0
 28 30  1  0
 30 31  1  0
 31 32  2  0
 32 33  1  0
 32 34  1  0
 34 35  1  0
 34 36  2  0
 36 37  1  0
 36 38  1  0
 38 39  1  0
 38 40  2  0
 40 41  1  0
 27 42  2  0
 42 43  1  0
 16 44  1  0
 44 45  1  0
 44 46  1  0
 44 47  1  0
 47 48  1  0
 47 49  1  0
  4 50  1  0
 50 51  1  0
 50 52  2  0
 52 53  1  0
 53 54  1  0
 53 55  1  0
 53 56  1  0
 52 57  1  0
 57 58  1  0
 57  2  2  0
 47  8  1  0
 42 20  1  0
 40 31  1  0
M  CHG  2   3  -1  30  -1
M  END
>  <UniqueID>  (77) 
73

>  <SMILES>  (77) 
Cc1cc[n-]/c(=N\C(=O)C2CCN(S(=O)(=O)c3cccc(C(=O)[N-]c4cccc(Cl)c4)c3)CC2)c1

>  <Energy>  (77) 
73.67843395289574

>  <Genealogy>  (77) 
Cc1cc[n-]c(=NC(=O)C2CCN(S(=O)(=O)c3cccc(C(=O)[N-]c4cccc(Cl)c4)c3)CC2)c1 (protonated)
Cc1cc[n-]/c(=N\C(=O)C2CCN(S(=O)(=O)c3cccc(C(=O)[N-]c4cccc(Cl)c4)c3)CC2)c1 (cis-trans isomerization)
Cc1cc[n-]/c(=N\C(=O)C2CCN(S(=O)(=O)c3cccc(C(=O)[N-]c4cccc(Cl)c4)c3)CC2)c1 (3D coordinates assigned)
Cc1cc[n-]/c(=N\C(=O)C2CCN(S(=O)(=O)c3cccc(C(=O)[N-]c4cccc(Cl)c4)c3)CC2)c1 (nonaromatic ring conformer: 73.67843395289574 kcal/mol)

>  <smiles>  (77) 
Cc1cc[nH]c(=NC(=O)C2CCN(S(=O)(=O)c3cccc(C(=O)Nc4cccc(Cl)c4)c3)CC2)c1

>  <score_type>  (77) 
oracle

>  <origin>  (77) 
adg

>  <m_score__min__energy>  (77) 
-13.58

>  <m_primary>  (77) 
energy

$$$$
77:0
     RDKit          3D

 47 49  0  0  0  0  0  0  0  0999 V2000
   63.4990   31.5480   49.0680 C   0  0  0  0  0  0  0  0  0  0  0  0
   63.9700   32.9400   48.9740 N   0  0  0  0  0  0  0  0  0  0  0  0
   63.3960   33.8030   50.0350 C   0  0  0  0  0  0  0  0  0  0  0  0
   62.1640   34.6050   49.5690 C   0  0  0  0  0  0  0  0  0  0  0  0
   61.4430   33.8610   48.5250 N   0  0  0  0  0  0  0  0  0  0  0  0
   60.1380   34.4910   48.2370 C   0  0  0  0  0  0  0  0  0  0  0  0
   59.5280   33.9100   46.9770 C   0  0  0  0  0  0  0  0  0  0  0  0
   59.4430   34.7390   45.8420 C   0  0  0  0  0  0  0  0  0  0  0  0
   58.9460   34.2510   44.6370 C   0  0  0  0  0  0  0  0  0  0  0  0
   58.5230   32.9260   44.5400 C   0  0  0  0  0  0  0  0  0  0  0  0
   57.9260   32.2900   42.9740 S   0  0  0  0  0  0  0  0  0  0  0  0
   57.2630   30.8170   43.7420 C   0  0  0  0  0  0  0  0  0  0  0  0
   55.9310   30.6120   44.0760 C   0  0  0  0  0  0  0  0  0  0  0  0
   55.7100   29.3830   44.7070 C   0  0  0  0  0  0  0  0  0  0  0  0
   56.8710   28.6360   44.8580 C   0  0  0  0  0  0  0  0  0  0  0  0
   56.9720   27.0630   45.6250 S   0  0  0  0  0  0  0  0  0  0  0  0
   55.3880   26.5300   46.0650 N   0  0  0  0  0  0  0  0  0  0  0  0
   57.8240   27.1590   46.8590 O   0  0  0  0  0  0  0  0  0  0  0  0
   57.5950   26.0800   44.6740 O   0  0  0  0  0  0  0  0  0  0  0  0
   58.1740   29.4880   44.2230 S   0  0  0  0  0  0  0  0  0  0  0  0
   58.5840   32.0890   45.6580 C   0  0  0  0  0  0  0  0  0  0  0  0
   59.0970   32.5560   46.8860 C   0  0  0  0  0  0  0  0  0  0  0  0
   59.1300   31.6220   48.0840 C   0  0  0  0  0  0  0  0  0  0  0  0
   60.4420   31.3810   48.4460 F   0  0  0  0  0  0  0  0  0  0  0  0
   58.4760   32.1650   49.1770 F   0  0  0  0  0  0  0  0  0  0  0  0
   58.5110   30.4250   47.7800 F   0  0  0  0  0  0  0  0  0  0  0  0
   62.2740   33.7430   47.3030 C   0  0  0  0  0  0  0  0  0  0  0  0
   63.7660   33.5020   47.6250 C   0  0  0  0  0  0  0  0  0  0  0  0
   63.4029   31.2641   50.1264 H   0  0  0  0  0  0  0  0  0  0  0  0
   62.5203   31.4579   48.5739 H   0  0  0  0  0  0  0  0  0  0  0  0
   64.2219   30.8822   48.5739 H   0  0  0  0  0  0  0  0  0  0  0  0
   63.0982   33.1655   50.8805 H   0  0  0  0  0  0  0  0  0  0  0  0
   64.1708   34.5309   50.3175 H   0  0  0  0  0  0  0  0  0  0  0  0
   61.4939   34.7728   50.4250 H   0  0  0  0  0  0  0  0  0  0  0  0
   62.4962   35.5703   49.1594 H   0  0  0  0  0  0  0  0  0  0  0  0
   59.4571   34.3136   49.0826 H   0  0  0  0  0  0  0  0  0  0  0  0
   60.2915   35.5703   48.0899 H   0  0  0  0  0  0  0  0  0  0  0  0
   59.7737   35.7860   45.9085 H   0  0  0  0  0  0  0  0  0  0  0  0
   58.8868   34.9118   43.7596 H   0  0  0  0  0  0  0  0  0  0  0  0
   55.1331   31.3396   43.8665 H   0  0  0  0  0  0  0  0  0  0  0  0
   54.7206   29.0440   45.0477 H   0  0  0  0  0  0  0  0  0  0  0  0
   54.7650   26.7150   45.2470 H   0  0  0  0  0  0  0  0  0  0  0  0
   58.2269   31.0516   45.5789 H   0  0  0  0  0  0  0  0  0  0  0  0
   61.9016   32.8997   46.7029 H   0  0  0  0  0  0  0  0  0  0  0  0
   62.1991   34.6932   46.7540 H   0  0  0  0  0  0  0  0  0  0  0  0
   64.1776   32.8002   46.8847 H   0  0  0  0  0  0  0  0  0  0  0  0
   64.2771   34.4754   47.5880 H   0  0  0  0  0  0  0  0  0  0  0  0
  1  2  1  0
  2  3  1  0
  3  4  1  0
  4  5  1  0
  5  6  1  0
  6  7  1  0
  7  8  2  0
  8  9  1  0
  9 10  2  0
 10 11  1  0
 11 12  1  0
 12 13  2  0
 13 14  1  0
 14 15  2  0
 15 16  1  0
 16 17  1  0
 16 18  2  0
 16 19  2  0
 15 20  1  0
 10 21  1  0
 21 22  2  0
 22 23  1  0
 23 24  1  0
 23 25  1  0
 23 26  1  0
  5 27  1  0
 27 28  1  0
 28  2  1  0
 22  7  1  0
 20 12  1  0
  1 29  1  0
  1 30  1  0
  1 31  1  0
  3 32  1  0
  3 33  1  0
  4 34  1  0
  4 35  1  0
  6 36  1  0
  6 37  1  0
  8 38  1  0
  9 39  1  0
 13 40  1  0
 14 41  1  0
 17 42  1  0
 21 43  1  0
 27 44  1  0
 27 45  1  0
 28 46  1  0
 28 47  1  0
M  CHG  1  17  -1
M  END
>  <UniqueID>  (78) 
74

>  <SMILES>  (78) 
CN1CCN(Cc2ccc(Sc3ccc(S([NH-])(=O)=O)s3)cc2C(F)(F)F)CC1

>  <Energy>  (78) 
82.67536221471694

>  <Genealogy>  (78) 
CN1CCN(Cc2ccc(Sc3ccc(S([NH-])(=O)=O)s3)cc2C(F)(F)F)CC1 (protonated)
CN1CCN(Cc2ccc(Sc3ccc(S([NH-])(=O)=O)s3)cc2C(F)(F)F)CC1 (3D coordinates assigned)
CN1CCN(Cc2ccc(Sc3ccc(S([NH-])(=O)=O)s3)cc2C(F)(F)F)CC1 (nonaromatic ring conformer: 82.67536221471694 kcal/mol)

>  <smiles>  (78) 
CN1CCN(Cc2ccc(Sc3ccc(S(N)(=O)=O)s3)cc2C(F)(F)F)CC1

>  <score_type>  (78) 
oracle

>  <origin>  (78) 
adg

>  <m_score__min__energy>  (78) 
-12.140000000000001

>  <m_primary>  (78) 
energy

$$$$
78:0
     RDKit          3D

 62 65  0  0  0  0  0  0  0  0999 V2000
   60.3770   26.8050   48.2570 C   0  0  0  0  0  0  0  0  0  0  0  0
   60.0620   28.0280   49.0110 N   0  0  0  0  0  0  0  0  0  0  0  0
   59.1690   28.9390   48.5060 C   0  0  0  0  0  0  0  0  0  0  0  0
   58.4970   28.7050   47.3050 O   0  0  0  0  0  0  0  0  0  0  0  0
   57.7270   27.5370   47.0470 C   0  0  0  0  0  0  0  0  0  0  0  0
   56.9500   27.6900   45.7700 C   0  0  0  0  0  0  0  0  0  0  0  0
   55.8800   27.0350   45.6360 O   0  0  0  0  0  0  0  0  0  0  0  0
   57.3650   28.5860   44.7190 N   0  0  0  0  0  0  0  0  0  0  0  0
   56.3350   29.3390   43.9840 C   0  0  0  0  0  0  0  0  0  0  0  0
   56.9220   30.6230   43.3810 C   0  0  0  0  0  0  0  0  0  0  0  0
   57.9110   31.1850   44.3120 N   0  0  0  0  0  0  0  0  0  0  0  0
   57.5720   32.3300   45.1270 C   0  0  0  0  0  0  0  0  0  0  0  0
   56.3620   32.6650   45.2610 O   0  0  0  0  0  0  0  0  0  0  0  0
   58.6060   33.1070   45.8440 C   0  0  0  0  0  0  0  0  0  0  0  0
   59.3210   32.5350   46.9080 C   0  0  0  0  0  0  0  0  0  0  0  0
   60.3100   33.2690   47.5680 C   0  0  0  0  0  0  0  0  0  0  0  0
   60.5980   34.5770   47.1660 C   0  0  0  0  0  0  0  0  0  0  0  0
   59.8890   35.1550   46.1100 C   0  0  0  0  0  0  0  0  0  0  0  0
   58.9010   34.4220   45.4450 C   0  0  0  0  0  0  0  0  0  0  0  0
   59.0800   30.3520   44.6560 C   0  0  0  0  0  0  0  0  0  0  0  0
   58.7820   28.8580   44.4300 C   0  0  0  0  0  0  0  0  0  0  0  0
   58.8700   30.0640   49.2030 N   0  0  0  0  0  0  0  0  0  0  0  0
   59.4260   30.3280   50.4110 C   0  0  0  0  0  0  0  0  0  0  0  0
   59.0650   31.5690   51.1380 C   0  0  0  0  0  0  0  0  0  0  0  0
   59.5900   32.7910   50.6710 C   0  0  0  0  0  0  0  0  0  0  0  0
   59.2650   33.9950   51.2950 C   0  0  0  0  0  0  0  0  0  0  0  0
   58.4050   34.0010   52.3890 C   0  0  0  0  0  0  0  0  0  0  0  0
   57.8740   32.8030   52.8720 C   0  0  0  0  0  0  0  0  0  0  0  0
   58.1990   31.5760   52.2680 C   0  0  0  0  0  0  0  0  0  0  0  0
   57.5410   30.0900   52.9950 S   0  0  0  0  0  0  0  0  0  0  0  0
   56.5670   30.4440   54.4440 C   0  0  0  0  0  0  0  0  0  0  0  0
   58.6600   29.1460   53.3390 O   0  0  0  0  0  0  0  0  0  0  0  0
   56.6370   29.4050   52.0090 O   0  0  0  0  0  0  0  0  0  0  0  0
   60.3620   29.4330   50.9340 C   0  0  0  0  0  0  0  0  0  0  0  0
   60.6780   28.2830   50.2100 C   0  0  0  0  0  0  0  0  0  0  0  0
   61.5350   27.4830   50.6790 O   0  0  0  0  0  0  0  0  0  0  0  0
   60.5881   25.9853   48.9595 H   0  0  0  0  0  0  0  0  0  0  0  0
   59.5195   26.5335   47.6238 H   0  0  0  0  0  0  0  0  0  0  0  0
   61.2590   26.9816   47.6238 H   0  0  0  0  0  0  0  0  0  0  0  0
   58.4004   26.6716   46.9595 H   0  0  0  0  0  0  0  0  0  0  0  0
   57.0210   27.3860   47.8769 H   0  0  0  0  0  0  0  0  0  0  0  0
   55.9377   28.7095   43.1741 H   0  0  0  0  0  0  0  0  0  0  0  0
   55.5331   29.6141   44.6849 H   0  0  0  0  0  0  0  0  0  0  0  0
   57.4093   30.3902   42.4227 H   0  0  0  0  0  0  0  0  0  0  0  0
   56.1172   31.3534   43.2110 H   0  0  0  0  0  0  0  0  0  0  0  0
   59.1017   31.5043   47.2236 H   0  0  0  0  0  0  0  0  0  0  0  0
   60.8628   32.8173   48.4049 H   0  0  0  0  0  0  0  0  0  0  0  0
   61.3826   35.1507   47.6811 H   0  0  0  0  0  0  0  0  0  0  0  0
   60.1082   36.1878   45.8013 H   0  0  0  0  0  0  0  0  0  0  0  0
   58.3527   34.8763   44.6065 H   0  0  0  0  0  0  0  0  0  0  0  0
   59.9305   30.6482   44.0245 H   0  0  0  0  0  0  0  0  0  0  0  0
   59.3166   30.5041   45.7194 H   0  0  0  0  0  0  0  0  0  0  0  0
   58.9987   28.5960   43.3839 H   0  0  0  0  0  0  0  0  0  0  0  0
   59.4128   28.2552   45.0999 H   0  0  0  0  0  0  0  0  0  0  0  0
   60.2652   32.7949   49.8026 H   0  0  0  0  0  0  0  0  0  0  0  0
   59.6882   34.9396   50.9226 H   0  0  0  0  0  0  0  0  0  0  0  0
   58.1426   34.9523   52.8749 H   0  0  0  0  0  0  0  0  0  0  0  0
   57.1930   32.8198   53.7357 H   0  0  0  0  0  0  0  0  0  0  0  0
   57.1593   30.2287   55.3455 H   0  0  0  0  0  0  0  0  0  0  0  0
   56.2769   31.5051   54.4406 H   0  0  0  0  0  0  0  0  0  0  0  0
   55.6633   29.8168   54.4406 H   0  0  0  0  0  0  0  0  0  0  0  0
   60.8432   29.6320   51.9029 H   0  0  0  0  0  0  0  0  0  0  0  0
  1  2  1  0
  2  3  1  0
  3  4  1  0
  4  5  1  0
  5  6  1  0
  6  7  2  0
  6  8  1  0
  8  9  1  0
  9 10  1  0
 10 11  1  0
 11 12  1  0
 12 13  2  0
 12 14  1  0
 14 15  2  0
 15 16  1  0
 16 17  2  0
 17 18  1  0
 18 19  2  0
 11 20  1  0
 20 21  1  0
  3 22  2  0
 22 23  1  0
 23 24  1  0
 24 25  2  0
 25 26  1  0
 26 27  2  0
 27 28  1  0
 28 29  2  0
 29 30  1  0
 30 31  1  0
 30 32  2  0
 30 33  2  0
 23 34  2  0
 34 35  1  0
 35 36  2  0
 35  2  1  0
 21  8  1  0
 29 24  1  0
 19 14  1  0
  1 37  1  0
  1 38  1  0
  1 39  1  0
  5 40  1  0
  5 41  1  0
  9 42  1  0
  9 43  1  0
 10 44  1  0
 10 45  1  0
 15 46  1  0
 16 47  1  0
 17 48  1  0
 18 49  1  0
 19 50  1  0
 20 51  1  0
 20 52  1  0
 21 53  1  0
 21 54  1  0
 25 55  1  0
 26 56  1  0
 27 57  1  0
 28 58  1  0
 31 59  1  0
 31 60  1  0
 31 61  1  0
 34 62  1  0
M  END
>  <UniqueID>  (79) 
75

>  <SMILES>  (79) 
Cn1c(OCC(=O)N2CCN(C(=O)c3ccccc3)CC2)nc(-c2ccccc2S(C)(=O)=O)cc1=O

>  <Energy>  (79) 
86.0968037101392

>  <Genealogy>  (79) 
Cn1c(OCC(=O)N2CCN(C(=O)c3ccccc3)CC2)nc(-c2ccccc2S(C)(=O)=O)cc1=O (3D coordinates assigned)
Cn1c(OCC(=O)N2CCN(C(=O)c3ccccc3)CC2)nc(-c2ccccc2S(C)(=O)=O)cc1=O (nonaromatic ring conformer: 86.0968037101392 kcal/mol)

>  <smiles>  (79) 
Cn1c(OCC(=O)N2CCN(C(=O)c3ccccc3)CC2)nc(-c2ccccc2S(C)(=O)=O)cc1=O

>  <score_type>  (79) 
oracle

>  <origin>  (79) 
adg

>  <m_score__min__energy>  (79) 
-9.7400000000000002

>  <m_primary>  (79) 
energy

$$$$
79:0
     RDKit          3D

 45 46  0  0  0  0  0  0  0  0999 V2000
   58.7200   29.0110   52.8580 C   0  0  0  0  0  0  0  0  0  0  0  0
   58.1510   29.8740   51.7850 C   0  0  0  0  0  0  0  0  0  0  0  0
   56.9010   29.9890   51.6730 O   0  0  0  0  0  0  0  0  0  0  0  0
   59.0130   30.4930   50.8730 O   0  0  0  0  0  0  0  0  0  0  0  0
   58.5690   31.1290   49.6750 C   0  0  1  0  0  0  0  0  0  0  0  0
   59.2360   32.4960   49.5170 C   0  0  0  0  0  0  0  0  0  0  0  0
   58.9080   30.2600   48.5020 C   0  0  0  0  0  0  0  0  0  0  0  0
   59.1960   28.9450   48.6110 N   0  0  0  0  0  0  0  0  0  0  0  0
   59.4120   28.3620   47.3990 C   0  0  0  0  0  0  0  0  0  0  0  0
   59.8310   26.9560   47.3140 C   0  0  0  0  0  0  0  0  0  0  0  0
   60.2850   26.3680   48.3310 O   0  0  0  0  0  0  0  0  0  0  0  0
   59.6700   26.2460   46.0830 N   0  0  0  0  0  0  0  0  0  0  0  0
   59.3490   24.8250   46.0170 C   0  0  0  0  0  0  0  0  0  0  0  0
   57.8570   24.6390   46.0240 C   0  0  0  0  0  0  0  0  0  0  0  0
   57.2970   23.3530   45.9350 C   0  0  0  0  0  0  0  0  0  0  0  0
   55.9090   23.1920   45.8750 C   0  0  0  0  0  0  0  0  0  0  0  0
   55.0710   24.3110   45.9020 C   0  0  0  0  0  0  0  0  0  0  0  0
   53.6920   24.1430   45.8410 O   0  0  0  0  0  0  0  0  0  0  0  0
   55.6210   25.5950   45.9860 C   0  0  0  0  0  0  0  0  0  0  0  0
   54.7920   26.7110   46.0050 O   0  0  0  0  0  0  0  0  0  0  0  0
   57.0090   25.7590   46.0410 C   0  0  0  0  0  0  0  0  0  0  0  0
   59.2680   29.2240   46.3030 C   0  0  0  0  0  0  0  0  0  0  0  0
   59.2630   28.8930   44.8640 C   0  0  0  0  0  0  0  0  0  0  0  0
   60.2000   29.3240   44.1420 O   0  0  0  0  0  0  0  0  0  0  0  0
   58.1390   28.1230   44.2180 C   0  0  0  0  0  0  0  0  0  0  0  0
   57.0930   29.0430   43.6540 C   0  0  0  0  0  0  0  0  0  0  0  0
   56.9150   29.0880   42.4070 O   0  0  0  0  0  0  0  0  0  0  0  0
   56.2600   29.8740   44.5360 C   0  0  0  0  0  0  0  0  0  0  0  0
   56.5630   31.0780   44.7420 O   0  0  0  0  0  0  0  0  0  0  0  0
   55.1320   29.3410   45.1470 O   0  0  0  0  0  0  0  0  0  0  0  0
   58.8800   30.7510   46.8930 S   0  0  0  0  0  0  0  0  0  0  0  0
   58.4489   29.4222   53.8416 H   0  0  0  0  0  0  0  0  0  0  0  0
   58.3158   27.9925   52.7623 H   0  0  0  0  0  0  0  0  0  0  0  0
   59.8154   28.9812   52.7623 H   0  0  0  0  0  0  0  0  0  0  0  0
   57.4801   31.2762   49.7271 H   0  0  0  0  0  0  0  0  0  0  0  0
   59.4429   32.9201   50.5107 H   0  0  0  0  0  0  0  0  0  0  0  0
   60.1796   32.3818   48.9633 H   0  0  0  0  0  0  0  0  0  0  0  0
   58.5653   33.1695   48.9633 H   0  0  0  0  0  0  0  0  0  0  0  0
   59.7658   24.3990   45.0924 H   0  0  0  0  0  0  0  0  0  0  0  0
   59.7828   24.3138   46.8890 H   0  0  0  0  0  0  0  0  0  0  0  0
   57.9527   22.4701   45.9125 H   0  0  0  0  0  0  0  0  0  0  0  0
   55.4758   22.1832   45.8064 H   0  0  0  0  0  0  0  0  0  0  0  0
   57.4388   26.7700   46.0979 H   0  0  0  0  0  0  0  0  0  0  0  0
   58.5494   27.5070   43.4042 H   0  0  0  0  0  0  0  0  0  0  0  0
   57.6663   27.4933   44.9862 H   0  0  0  0  0  0  0  0  0  0  0  0
  1  2  1  0
  2  3  2  0
  2  4  1  0
  4  5  1  0
  5  6  1  0
  5  7  1  0
  7  8  2  0
  8  9  1  0
  9 10  1  0
 10 11  2  0
 10 12  1  0
 12 13  1  0
 13 14  1  0
 14 15  2  0
 15 16  1  0
 16 17  2  0
 17 18  1  0
 17 19  1  0
 19 20  1  0
 19 21  2  0
  9 22  2  0
 22 23  1  0
 23 24  2  0
 23 25  1  0
 25 26  1  0
 26 27  2  0
 26 28  1  0
 28 29  2  0
 28 30  1  0
 22 31  1  0
 31  7  1  0
 21 14  1  0
  1 32  1  0
  1 33  1  0
  1 34  1  0
  5 35  1  1
  6 36  1  0
  6 37  1  0
  6 38  1  0
 13 39  1  0
 13 40  1  0
 15 41  1  0
 16 42  1  0
 21 43  1  0
 25 44  1  0
 25 45  1  0
M  CHG  4  12  -1  18  -1  20  -1  30  -1
M  END
>  <UniqueID>  (80) 
76

>  <SMILES>  (80) 
CC(=O)O[C@@H](C)c1nc(C(=O)[N-]Cc2ccc([O-])c([O-])c2)c(C(=O)CC(=O)C(=O)[O-])s1

>  <Energy>  (80) 
68.99946134473399

>  <Genealogy>  (80) 
CC(=O)OC(C)c1nc(C(=O)[N-]Cc2ccc([O-])c([O-])c2)c(C(=O)CC(=O)C(=O)[O-])s1 (protonated)
CC(=O)O[C@@H](C)c1nc(C(=O)[N-]Cc2ccc([O-])c([O-])c2)c(C(=O)CC(=O)C(=O)[O-])s1 (chirality)
CC(=O)O[C@@H](C)c1nc(C(=O)[N-]Cc2ccc([O-])c([O-])c2)c(C(=O)CC(=O)C(=O)[O-])s1 (3D coordinates assigned)
CC(=O)O[C@@H](C)c1nc(C(=O)[N-]Cc2ccc([O-])c([O-])c2)c(C(=O)CC(=O)C(=O)[O-])s1 (optimized conformer: 68.99946134473399 kcal/mol)

>  <smiles>  (80) 
CC(=O)OC(C)c1nc(C(=O)NCc2ccc(O)c(O)c2)c(C(=O)CC(=O)C(=O)O)s1

>  <score_type>  (80) 
oracle

>  <origin>  (80) 
adg

>  <m_score__min__energy>  (80) 
-16.859999999999999

>  <m_primary>  (80) 
energy

$$$$
80:0
     RDKit          3D

 70 74  0  0  0  0  0  0  0  0999 V2000
   57.4750   30.2490   50.9010 O   0  0  0  0  0  0  0  0  0  0  0  0
   58.4310   30.7270   50.3090 C   0  0  0  0  0  0  0  0  0  0  0  0
   59.1140   29.9460   49.2170 C   0  0  0  0  0  0  0  0  0  0  0  0
   60.6360   30.1040   49.3200 C   0  0  0  0  0  0  0  0  0  0  0  0
   60.9870   31.5140   49.5220 N   0  0  0  0  0  0  0  0  0  0  0  0
   61.7040   32.2510   48.5160 C   0  0  0  0  0  0  0  0  0  0  0  0
   63.0810   32.0400   48.3460 C   0  0  0  0  0  0  0  0  0  0  0  0
   63.7810   32.7150   47.3460 C   0  0  0  0  0  0  0  0  0  0  0  0
   63.1100   33.5980   46.5000 C   0  0  0  0  0  0  0  0  0  0  0  0
   61.7430   33.8260   46.6650 C   0  0  0  0  0  0  0  0  0  0  0  0
   61.0320   33.1760   47.6930 C   0  0  0  0  0  0  0  0  0  0  0  0
   59.6290   33.4060   47.9040 N   0  0  0  0  0  0  0  0  0  0  0  0
   58.5920   33.4610   46.9120 C   0  0  0  0  0  0  0  0  0  0  0  0
   57.8180   34.4550   46.8510 O   0  0  0  0  0  0  0  0  0  0  0  0
   58.4070   32.3310   45.9740 C   0  0  0  0  0  0  0  0  0  0  0  0
   59.1140   31.1310   46.1780 C   0  0  0  0  0  0  0  0  0  0  0  0
   58.9100   30.0250   45.3360 C   0  0  0  0  0  0  0  0  0  0  0  0
   59.6010   28.7490   45.6180 C   0  0  0  0  0  0  0  0  0  0  0  0
   60.8540   28.6890   45.4850 O   0  0  0  0  0  0  0  0  0  0  0  0
   58.8750   27.5880   46.0630 N   0  0  0  0  0  0  0  0  0  0  0  0
   59.3790   26.2490   45.7160 C   0  0  0  0  0  0  0  0  0  0  0  0
   58.6350   25.1470   46.4820 C   0  0  0  0  0  0  0  0  0  0  0  0
   57.1880   25.3920   46.4380 N   0  0  0  0  0  0  0  0  0  0  0  0
   56.2590   24.3020   46.2700 C   0  0  0  0  0  0  0  0  0  0  0  0
   55.1160   24.3680   46.8020 O   0  0  0  0  0  0  0  0  0  0  0  0
   56.6130   23.1370   45.5090 N   0  0  0  0  0  0  0  0  0  0  0  0
   56.2000   21.8150   45.9890 C   0  0  0  0  0  0  0  0  0  0  0  0
   56.8390   20.7190   45.1310 C   0  0  0  0  0  0  0  0  0  0  0  0
   58.1460   21.1080   44.7640 O   0  0  0  0  0  0  0  0  0  0  0  0
   58.0990   22.1410   43.7920 C   0  0  0  0  0  0  0  0  0  0  0  0
   57.1050   23.2760   44.1350 C   0  0  0  0  0  0  0  0  0  0  0  0
   56.6650   26.7300   46.7540 C   0  0  0  0  0  0  0  0  0  0  0  0
   57.7940   27.7250   47.0530 C   0  0  0  0  0  0  0  0  0  0  0  0
   58.0320   30.1430   44.2440 C   0  0  0  0  0  0  0  0  0  0  0  0
   57.8600   29.1130   43.3780 F   0  0  0  0  0  0  0  0  0  0  0  0
   57.3410   31.3360   44.0250 C   0  0  0  0  0  0  0  0  0  0  0  0
   57.5160   32.4230   44.8850 C   0  0  0  0  0  0  0  0  0  0  0  0
   56.8420   33.5710   44.6260 F   0  0  0  0  0  0  0  0  0  0  0  0
   60.3980   32.2090   50.6730 C   0  0  0  0  0  0  0  0  0  0  0  0
   58.8700   32.1380   50.5950 C   0  0  0  0  0  0  0  0  0  0  0  0
   58.8525   28.8820   49.3142 H   0  0  0  0  0  0  0  0  0  0  0  0
   58.7802   30.3291   48.2414 H   0  0  0  0  0  0  0  0  0  0  0  0
   61.0059   29.5122   50.1702 H   0  0  0  0  0  0  0  0  0  0  0  0
   61.0974   29.7497   48.3864 H   0  0  0  0  0  0  0  0  0  0  0  0
   63.6117   31.3377   49.0057 H   0  0  0  0  0  0  0  0  0  0  0  0
   64.8619   32.5510   47.2246 H   0  0  0  0  0  0  0  0  0  0  0  0
   63.6598   34.1161   45.7005 H   0  0  0  0  0  0  0  0  0  0  0  0
   61.2180   34.5168   45.9889 H   0  0  0  0  0  0  0  0  0  0  0  0
   59.8344   31.0584   47.0061 H   0  0  0  0  0  0  0  0  0  0  0  0
   59.2444   26.0860   44.6365 H   0  0  0  0  0  0  0  0  0  0  0  0
   60.4427   26.2006   45.9921 H   0  0  0  0  0  0  0  0  0  0  0  0
   58.8533   24.1724   46.0211 H   0  0  0  0  0  0  0  0  0  0  0  0
   58.9690   25.1481   47.5301 H   0  0  0  0  0  0  0  0  0  0  0  0
   56.5199   21.6914   47.0342 H   0  0  0  0  0  0  0  0  0  0  0  0
   55.1052   21.7333   45.9199 H   0  0  0  0  0  0  0  0  0  0  0  0
   56.8835   19.7826   45.7064 H   0  0  0  0  0  0  0  0  0  0  0  0
   56.2350   20.5652   44.2246 H   0  0  0  0  0  0  0  0  0  0  0  0
   59.1048   22.5768   43.7001 H   0  0  0  0  0  0  0  0  0  0  0  0
   57.7514   21.6831   42.8542 H   0  0  0  0  0  0  0  0  0  0  0  0
   57.6140   24.2455   44.0302 H   0  0  0  0  0  0  0  0  0  0  0  0
   56.2498   23.2171   43.4457 H   0  0  0  0  0  0  0  0  0  0  0  0
   56.0841   27.0976   45.8952 H   0  0  0  0  0  0  0  0  0  0  0  0
   56.0338   26.6482   47.6511 H   0  0  0  0  0  0  0  0  0  0  0  0
   57.3943   28.7491   47.0137 H   0  0  0  0  0  0  0  0  0  0  0  0
   58.1986   27.5150   48.0541 H   0  0  0  0  0  0  0  0  0  0  0  0
   56.6543   31.4207   43.1698 H   0  0  0  0  0  0  0  0  0  0  0  0
   60.7389   31.7299   51.6026 H   0  0  0  0  0  0  0  0  0  0  0  0
   60.7139   33.2626   50.6619 H   0  0  0  0  0  0  0  0  0  0  0  0
   58.4413   32.4650   51.5538 H   0  0  0  0  0  0  0  0  0  0  0  0
   58.5203   32.7948   49.7848 H   0  0  0  0  0  0  0  0  0  0  0  0
  1  2  2  0
  2  3  1  0
  3  4  1  0
  4  5  1  0
  5  6  1  0
  6  7  2  0
  7  8  1  0
  8  9  2  0
  9 10  1  0
 10 11  2  0
 11 12  1  0
 12 13  1  0
 13 14  2  0
 13 15  1  0
 15 16  2  0
 16 17  1  0
 17 18  1  0
 18 19  2  0
 18 20  1  0
 20 21  1  0
 21 22  1  0
 22 23  1  0
 23 24  1  0
 24 25  2  0
 24 26  1  0
 26 27  1  0
 27 28  1  0
 28 29  1  0
 29 30  1  0
 30 31  1  0
 23 32  1  0
 32 33  1  0
 17 34  2  0
 34 35  1  0
 34 36  1  0
 36 37  2  0
 37 38  1  0
  5 39  1  0
 39 40  1  0
 40  2  1  0
 11  6  1  0
 37 15  1  0
 33 20  1  0
 31 26  1  0
  3 41  1  0
  3 42  1  0
  4 43  1  0
  4 44  1  0
  7 45  1  0
  8 46  1  0
  9 47  1  0
 10 48  1  0
 16 49  1  0
 21 50  1  0
 21 51  1  0
 22 52  1  0
 22 53  1  0
 27 54  1  0
 27 55  1  0
 28 56  1  0
 28 57  1  0
 30 58  1  0
 30 59  1  0
 31 60  1  0
 31 61  1  0
 32 62  1  0
 32 63  1  0
 33 64  1  0
 33 65  1  0
 36 66  1  0
 39 67  1  0
 39 68  1  0
 40 69  1  0
 40 70  1  0
M  CHG  1  12  -1
M  END
>  <UniqueID>  (81) 
77

>  <SMILES>  (81) 
O=C1CCN(c2ccccc2[N-]C(=O)c2cc(C(=O)N3CCN(C(=O)N4CCOCC4)CC3)c(F)cc2F)CC1

>  <Energy>  (81) 
99.0388076145921

>  <Genealogy>  (81) 
O=C1CCN(c2ccccc2[N-]C(=O)c2cc(C(=O)N3CCN(C(=O)N4CCOCC4)CC3)c(F)cc2F)CC1 (protonated)
O=C1CCN(c2ccccc2[N-]C(=O)c2cc(C(=O)N3CCN(C(=O)N4CCOCC4)CC3)c(F)cc2F)CC1 (3D coordinates assigned)
O=C1CCN(c2ccccc2[N-]C(=O)c2cc(C(=O)N3CCN(C(=O)N4CCOCC4)CC3)c(F)cc2F)CC1 (nonaromatic ring conformer: 99.0388076145921 kcal/mol)

>  <smiles>  (81) 
O=C1CCN(c2ccccc2NC(=O)c2cc(C(=O)N3CCN(C(=O)N4CCOCC4)CC3)c(F)cc2F)CC1

>  <score_type>  (81) 
oracle

>  <origin>  (81) 
adg

>  <m_score__min__energy>  (81) 
-11.32

>  <m_primary>  (81) 
energy

$$$$
81:0
     RDKit          3D

 58 60  0  0  0  0  0  0  0  0999 V2000
   65.5510   33.2970   52.3720 C   0  0  0  0  0  0  0  0  0  0  0  0
   64.7990   33.6900   51.1680 N   0  0  0  0  0  0  0  0  0  0  0  0
   63.4840   34.2790   51.5010 C   0  0  0  0  0  0  0  0  0  0  0  0
   62.5640   33.3110   52.2720 C   0  0  0  0  0  0  0  0  0  0  0  0
   61.5110   32.7670   51.4150 N   0  0  0  0  0  0  0  0  0  0  0  0
   60.2870   33.4810   51.1820 C   0  0  0  0  0  0  0  0  0  0  0  0
   59.7700   34.1370   52.1260 O   0  0  0  0  0  0  0  0  0  0  0  0
   59.6850   33.5500   49.8280 C   0  0  0  0  0  0  0  0  0  0  0  0
   60.1000   34.5560   48.9360 C   0  0  0  0  0  0  0  0  0  0  0  0
   59.6170   34.5880   47.6250 C   0  0  0  0  0  0  0  0  0  0  0  0
   58.7060   33.6200   47.1840 C   0  0  0  0  0  0  0  0  0  0  0  0
   58.1310   33.6340   45.5160 S   0  0  0  0  0  0  0  0  0  0  0  0
   56.6290   33.7260   45.5110 O   0  0  0  0  0  0  0  0  0  0  0  0
   58.6720   34.8480   44.8130 O   0  0  0  0  0  0  0  0  0  0  0  0
   58.6290   32.1950   44.6570 N   0  0  0  0  0  0  0  0  0  0  0  0
   57.7530   31.9210   43.4880 C   0  0  0  0  0  0  0  0  0  0  0  0
   56.8260   30.7160   43.6980 C   0  0  0  0  0  0  0  0  0  0  0  0
   57.6420   29.4480   43.9990 C   0  0  0  0  0  0  0  0  0  0  0  0
   58.8970   29.7340   44.8460 C   0  0  0  0  0  0  0  0  0  0  0  0
   58.7760   31.0640   45.5970 C   0  0  0  0  0  0  0  0  0  0  0  0
   58.2650   32.6340   48.0750 C   0  0  0  0  0  0  0  0  0  0  0  0
   58.7550   32.5940   49.3830 C   0  0  0  0  0  0  0  0  0  0  0  0
   64.5410   32.2700   50.1780 S   0  0  0  0  0  0  0  0  0  0  0  0
   65.8670   31.6860   49.7800 O   0  0  0  0  0  0  0  0  0  0  0  0
   63.7990   31.2290   50.9700 O   0  0  0  0  0  0  0  0  0  0  0  0
   63.6030   32.6780   48.7340 C   0  0  0  0  0  0  0  0  0  0  0  0
   63.9950   33.7660   47.9390 C   0  0  0  0  0  0  0  0  0  0  0  0
   63.3030   34.0670   46.7630 C   0  0  0  0  0  0  0  0  0  0  0  0
   62.2110   33.2880   46.3750 C   0  0  0  0  0  0  0  0  0  0  0  0
   61.8110   32.2060   47.1620 C   0  0  0  0  0  0  0  0  0  0  0  0
   62.5030   31.8970   48.3380 C   0  0  0  0  0  0  0  0  0  0  0  0
   62.1090   30.8240   49.0700 F   0  0  0  0  0  0  0  0  0  0  0  0
   64.9869   33.5918   53.2691 H   0  0  0  0  0  0  0  0  0  0  0  0
   65.6979   32.2068   52.3730 H   0  0  0  0  0  0  0  0  0  0  0  0
   66.5299   33.7988   52.3730 H   0  0  0  0  0  0  0  0  0  0  0  0
   63.6479   35.1735   52.1199 H   0  0  0  0  0  0  0  0  0  0  0  0
   62.9834   34.5203   50.5517 H   0  0  0  0  0  0  0  0  0  0  0  0
   63.1692   32.4803   52.6640 H   0  0  0  0  0  0  0  0  0  0  0  0
   62.0858   33.8706   53.0894 H   0  0  0  0  0  0  0  0  0  0  0  0
   61.6990   31.8670   50.9230 H   0  0  0  0  0  0  0  0  0  0  0  0
   60.8111   35.3243   49.2737 H   0  0  0  0  0  0  0  0  0  0  0  0
   59.9538   35.3769   46.9364 H   0  0  0  0  0  0  0  0  0  0  0  0
   57.1336   32.8101   43.2990 H   0  0  0  0  0  0  0  0  0  0  0  0
   58.4079   31.6858   42.6361 H   0  0  0  0  0  0  0  0  0  0  0  0
   56.1529   30.9213   44.5435 H   0  0  0  0  0  0  0  0  0  0  0  0
   56.2450   30.5525   42.7784 H   0  0  0  0  0  0  0  0  0  0  0  0
   57.0024   28.7398   44.5461 H   0  0  0  0  0  0  0  0  0  0  0  0
   57.9784   29.0339   43.0370 H   0  0  0  0  0  0  0  0  0  0  0  0
   59.0282   28.9218   45.5761 H   0  0  0  0  0  0  0  0  0  0  0  0
   59.7627   29.7965   44.1703 H   0  0  0  0  0  0  0  0  0  0  0  0
   57.8948   31.0264   46.2543 H   0  0  0  0  0  0  0  0  0  0  0  0
   59.6921   31.2167   46.1864 H   0  0  0  0  0  0  0  0  0  0  0  0
   57.5289   31.8869   47.7435 H   0  0  0  0  0  0  0  0  0  0  0  0
   58.4101   31.8077   50.0706 H   0  0  0  0  0  0  0  0  0  0  0  0
   64.8517   34.3852   48.2433 H   0  0  0  0  0  0  0  0  0  0  0  0
   63.6188   34.9185   46.1423 H   0  0  0  0  0  0  0  0  0  0  0  0
   61.6660   33.5266   45.4497 H   0  0  0  0  0  0  0  0  0  0  0  0
   60.9491   31.5947   46.8563 H   0  0  0  0  0  0  0  0  0  0  0  0
  1  2  1  0
  2  3  1  0
  3  4  1  0
  4  5  1  0
  5  6  1  0
  6  7  2  0
  6  8  1  0
  8  9  2  0
  9 10  1  0
 10 11  2  0
 11 12  1  0
 12 13  2  0
 12 14  2  0
 12 15  1  0
 15 16  1  0
 16 17  1  0
 17 18  1  0
 18 19  1  0
 19 20  1  0
 11 21  1  0
 21 22  2  0
  2 23  1  0
 23 24  2  0
 23 25  2  0
 23 26  1  0
 26 27  2  0
 27 28  1  0
 28 29  2  0
 29 30  1  0
 30 31  2  0
 31 32  1  0
 22  8  1  0
 31 26  1  0
 20 15  1  0
  1 33  1  0
  1 34  1  0
  1 35  1  0
  3 36  1  0
  3 37  1  0
  4 38  1  0
  4 39  1  0
  5 40  1  0
  9 41  1  0
 10 42  1  0
 16 43  1  0
 16 44  1  0
 17 45  1  0
 17 46  1  0
 18 47  1  0
 18 48  1  0
 19 49  1  0
 19 50  1  0
 20 51  1  0
 20 52  1  0
 21 53  1  0
 22 54  1  0
 27 55  1  0
 28 56  1  0
 29 57  1  0
 30 58  1  0
M  END
>  <UniqueID>  (82) 
78

>  <SMILES>  (82) 
CN(CCNC(=O)c1ccc(S(=O)(=O)N2CCCCC2)cc1)S(=O)(=O)c1ccccc1F

>  <Energy>  (82) 
62.16589837101266

>  <Genealogy>  (82) 
CN(CCNC(=O)c1ccc(S(=O)(=O)N2CCCCC2)cc1)S(=O)(=O)c1ccccc1F (3D coordinates assigned)
CN(CCNC(=O)c1ccc(S(=O)(=O)N2CCCCC2)cc1)S(=O)(=O)c1ccccc1F (nonaromatic ring conformer: 62.16589837101266 kcal/mol)

>  <smiles>  (82) 
CN(CCNC(=O)c1ccc(S(=O)(=O)N2CCCCC2)cc1)S(=O)(=O)c1ccccc1F

>  <score_type>  (82) 
oracle

>  <origin>  (82) 
adg

>  <m_score__min__energy>  (82) 
-9.8800000000000008

>  <m_primary>  (82) 
energy

$$$$
82:0
     RDKit          3D

 62 65  0  0  0  0  0  0  0  0999 V2000
   57.3330   24.4940   46.9830 C   0  0  0  0  0  0  0  0  0  0  0  0
   57.6880   25.8840   46.5420 C   0  0  0  0  0  0  0  0  0  0  0  0
   58.1630   26.8230   47.4650 C   0  0  0  0  0  0  0  0  0  0  0  0
   58.5330   28.1110   47.0480 C   0  0  0  0  0  0  0  0  0  0  0  0
   59.0630   29.0970   48.0530 C   0  0  0  0  0  0  0  0  0  0  0  0
   58.4630   28.4520   45.6820 C   0  0  0  0  0  0  0  0  0  0  0  0
   58.8840   29.7630   45.2720 N   0  0  0  0  0  0  0  0  0  0  0  0
   58.0680   30.9370   45.3560 C   0  0  0  0  0  0  0  0  0  0  0  0
   56.8990   30.9210   44.8840 O   0  0  0  0  0  0  0  0  0  0  0  0
   58.6260   32.2010   45.8860 C   0  0  0  0  0  0  0  0  0  0  0  0
   59.8140   32.1440   46.6370 C   0  0  0  0  0  0  0  0  0  0  0  0
   60.3590   33.2970   47.2280 C   0  0  0  0  0  0  0  0  0  0  0  0
   61.5690   33.2180   48.0120 N   0  0  0  0  0  0  0  0  0  0  0  0
   61.5500   33.5710   49.4400 C   0  0  0  0  0  0  0  0  0  0  0  0
   62.8670   34.2420   49.8520 C   0  0  0  0  0  0  0  0  0  0  0  0
   64.1380   33.4700   49.3730 C   0  0  0  0  0  0  0  0  0  0  0  0
   65.0490   33.0660   50.4750 N   0  0  0  0  0  0  0  0  0  0  0  0
   66.4890   33.1110   50.1600 C   0  0  0  0  0  0  0  0  0  0  0  0
   67.0800   31.7500   50.4900 C   0  0  0  0  0  0  0  0  0  0  0  0
   66.0700   31.1030   51.4090 C   0  0  0  0  0  0  0  0  0  0  0  0
   64.7490   31.7330   51.0180 C   0  0  0  0  0  0  0  0  0  0  0  0
   63.8070   32.2530   48.4870 C   0  0  0  0  0  0  0  0  0  0  0  0
   62.7780   32.6250   47.4160 C   0  0  0  0  0  0  0  0  0  0  0  0
   59.6950   34.5220   47.0630 C   0  0  0  0  0  0  0  0  0  0  0  0
   58.5260   34.5960   46.3060 C   0  0  0  0  0  0  0  0  0  0  0  0
   57.9940   33.4560   45.6970 C   0  0  0  0  0  0  0  0  0  0  0  0
   56.8650   33.6190   44.8920 O   0  0  0  0  0  0  0  0  0  0  0  0
   57.9470   27.5170   44.7510 C   0  0  0  0  0  0  0  0  0  0  0  0
   57.7780   27.8500   43.2920 C   0  0  0  0  0  0  0  0  0  0  0  0
   57.5940   26.2320   45.1900 C   0  0  0  0  0  0  0  0  0  0  0  0
   57.3217   24.4497   48.0820 H   0  0  0  0  0  0  0  0  0  0  0  0
   56.3384   24.2290   46.5951 H   0  0  0  0  0  0  0  0  0  0  0  0
   58.0788   23.7845   46.5951 H   0  0  0  0  0  0  0  0  0  0  0  0
   58.2471   26.5489   48.5270 H   0  0  0  0  0  0  0  0  0  0  0  0
   58.8641   28.7271   49.0697 H   0  0  0  0  0  0  0  0  0  0  0  0
   60.1473   29.2172   47.9121 H   0  0  0  0  0  0  0  0  0  0  0  0
   58.5651   30.0677   47.9121 H   0  0  0  0  0  0  0  0  0  0  0  0
   60.3262   31.1789   46.7642 H   0  0  0  0  0  0  0  0  0  0  0  0
   60.7172   34.2643   49.6292 H   0  0  0  0  0  0  0  0  0  0  0  0
   61.4231   32.6509   50.0294 H   0  0  0  0  0  0  0  0  0  0  0  0
   62.8916   35.2538   49.4212 H   0  0  0  0  0  0  0  0  0  0  0  0
   62.8925   34.2552   50.9516 H   0  0  0  0  0  0  0  0  0  0  0  0
   64.6768   34.2063   48.7585 H   0  0  0  0  0  0  0  0  0  0  0  0
   66.6316   33.3318   49.0919 H   0  0  0  0  0  0  0  0  0  0  0  0
   66.9860   33.8979   50.7463 H   0  0  0  0  0  0  0  0  0  0  0  0
   67.2107   31.1524   49.5758 H   0  0  0  0  0  0  0  0  0  0  0  0
   68.0733   31.8306   50.9557 H   0  0  0  0  0  0  0  0  0  0  0  0
   66.0434   30.0143   51.2537 H   0  0  0  0  0  0  0  0  0  0  0  0
   66.3102   31.2566   52.4714 H   0  0  0  0  0  0  0  0  0  0  0  0
   64.2493   31.1185   50.2547 H   0  0  0  0  0  0  0  0  0  0  0  0
   64.0781   31.8063   51.8867 H   0  0  0  0  0  0  0  0  0  0  0  0
   64.7273   31.9026   47.9968 H   0  0  0  0  0  0  0  0  0  0  0  0
   63.3853   31.4592   49.1210 H   0  0  0  0  0  0  0  0  0  0  0  0
   63.2289   33.3518   46.7243 H   0  0  0  0  0  0  0  0  0  0  0  0
   62.4861   31.7073   46.8843 H   0  0  0  0  0  0  0  0  0  0  0  0
   60.0992   35.4302   47.5339 H   0  0  0  0  0  0  0  0  0  0  0  0
   58.0164   35.5635   46.1868 H   0  0  0  0  0  0  0  0  0  0  0  0
   56.3610   32.8510   44.4740 H   0  0  0  0  0  0  0  0  0  0  0  0
   57.2822   28.8270   43.1939 H   0  0  0  0  0  0  0  0  0  0  0  0
   58.7651   27.8896   42.8082 H   0  0  0  0  0  0  0  0  0  0  0  0
   57.1633   27.0766   42.8082 H   0  0  0  0  0  0  0  0  0  0  0  0
   57.2386   25.4882   44.4616 H   0  0  0  0  0  0  0  0  0  0  0  0
  1  2  1  0
  2  3  2  0
  3  4  1  0
  4  5  1  0
  4  6  2  0
  6  7  1  0
  7  8  1  0
  8  9  2  0
  8 10  1  0
 10 11  2  0
 11 12  1  0
 12 13  1  0
 13 14  1  0
 14 15  1  0
 15 16  1  0
 16 17  1  0
 17 18  1  0
 18 19  1  0
 19 20  1  0
 20 21  1  0
 16 22  1  0
 22 23  1  0
 12 24  2  0
 24 25  1  0
 25 26  2  0
 26 27  1  0
  6 28  1  0
 28 29  1  0
 28 30  2  0
 30  2  1  0
 26 10  1  0
 23 13  1  0
 21 17  1  0
  1 31  1  0
  1 32  1  0
  1 33  1  0
  3 34  1  0
  5 35  1  0
  5 36  1  0
  5 37  1  0
 11 38  1  0
 14 39  1  0
 14 40  1  0
 15 41  1  0
 15 42  1  0
 16 43  1  0
 18 44  1  0
 18 45  1  0
 19 46  1  0
 19 47  1  0
 20 48  1  0
 20 49  1  0
 21 50  1  0
 21 51  1  0
 22 52  1  0
 22 53  1  0
 23 54  1  0
 23 55  1  0
 24 56  1  0
 25 57  1  0
 27 58  1  0
 29 59  1  0
 29 60  1  0
 29 61  1  0
 30 62  1  0
M  CHG  1   7  -1
M  END
>  <UniqueID>  (83) 
79

>  <SMILES>  (83) 
Cc1cc(C)c([N-]C(=O)c2cc(N3CCC(N4CCCC4)CC3)ccc2O)c(C)c1

>  <Energy>  (83) 
87.09479667263881

>  <Genealogy>  (83) 
Cc1cc(C)c([N-]C(=O)c2cc(N3CCC(N4CCCC4)CC3)ccc2O)c(C)c1 (protonated)
Cc1cc(C)c([N-]C(=O)c2cc(N3CCC(N4CCCC4)CC3)ccc2O)c(C)c1 (3D coordinates assigned)
Cc1cc(C)c([N-]C(=O)c2cc(N3CCC(N4CCCC4)CC3)ccc2O)c(C)c1 (nonaromatic ring conformer: 87.09479667263881 kcal/mol)

>  <smiles>  (83) 
Cc1cc(C)c(NC(=O)c2cc(N3CCC(N4CCCC4)CC3)ccc2O)c(C)c1

>  <score_type>  (83) 
oracle

>  <origin>  (83) 
adg

>  <m_score__min__energy>  (83) 
-10.460000000000001

>  <m_primary>  (83) 
energy

$$$$
83:0
     RDKit          3D

 74 78  0  0  0  0  0  0  0  0999 V2000
   50.6640   25.8440   51.7080 C   0  0  0  0  0  0  0  0  0  0  0  0
   51.3350   24.6140   52.3120 C   0  0  0  0  0  0  0  0  0  0  0  0
   51.6050   23.6450   51.3000 O   0  0  0  0  0  0  0  0  0  0  0  0
   52.3980   22.5070   51.5100 C   0  0  0  0  0  0  0  0  0  0  0  0
   52.3850   21.9240   52.6300 O   0  0  0  0  0  0  0  0  0  0  0  0
   53.2200   22.0040   50.4410 N   0  0  0  0  0  0  0  0  0  0  0  0
   54.1450   20.8820   50.6630 C   0  0  0  0  0  0  0  0  0  0  0  0
   55.4820   21.1390   49.9540 C   0  0  0  0  0  0  0  0  0  0  0  0
   55.2930   21.6910   48.6030 N   0  0  0  0  0  0  0  0  0  0  0  0
   56.4450   21.8840   47.7620 C   0  0  0  0  0  0  0  0  0  0  0  0
   57.4200   21.0870   47.8550 O   0  0  0  0  0  0  0  0  0  0  0  0
   56.5270   23.0060   46.8010 C   0  0  0  0  0  0  0  0  0  0  0  0
   56.2580   22.8000   45.4370 C   0  0  0  0  0  0  0  0  0  0  0  0
   56.3560   23.8590   44.5300 C   0  0  0  0  0  0  0  0  0  0  0  0
   56.7100   25.1330   44.9780 C   0  0  0  0  0  0  0  0  0  0  0  0
   56.9450   25.3660   46.3410 C   0  0  0  0  0  0  0  0  0  0  0  0
   57.3400   26.6770   46.7770 N   0  0  0  0  0  0  0  0  0  0  0  0
   58.7060   27.1170   46.8270 C   0  0  0  0  0  0  0  0  0  0  0  0
   59.6400   26.2720   46.8330 O   0  0  0  0  0  0  0  0  0  0  0  0
   59.0040   28.5630   46.8910 C   0  0  0  0  0  0  0  0  0  0  0  0
   60.0900   29.0490   47.5210 N   0  0  0  0  0  0  0  0  0  0  0  0
   60.0390   30.3820   47.3250 C   0  0  0  0  0  0  0  0  0  0  0  0
   61.0780   31.2940   47.8550 C   0  0  0  0  0  0  0  0  0  0  0  0
   62.2520   31.5650   47.1310 C   0  0  0  0  0  0  0  0  0  0  0  0
   63.2060   32.4520   47.6400 C   0  0  0  0  0  0  0  0  0  0  0  0
   62.9900   33.0860   48.8670 C   0  0  0  0  0  0  0  0  0  0  0  0
   61.8150   32.8420   49.5840 C   0  0  0  0  0  0  0  0  0  0  0  0
   60.8620   31.9520   49.0790 C   0  0  0  0  0  0  0  0  0  0  0  0
   58.9630   30.7580   46.5880 N   0  0  0  0  0  0  0  0  0  0  0  0
   58.7270   32.0440   45.9940 C   0  0  0  0  0  0  0  0  0  0  0  0
   58.7350   33.1960   46.7940 C   0  0  0  0  0  0  0  0  0  0  0  0
   58.5070   34.4500   46.2220 C   0  0  0  0  0  0  0  0  0  0  0  0
   58.2680   34.5590   44.8480 C   0  0  0  0  0  0  0  0  0  0  0  0
   58.2580   33.4140   44.0460 C   0  0  0  0  0  0  0  0  0  0  0  0
   58.4890   32.1590   44.6150 C   0  0  0  0  0  0  0  0  0  0  0  0
   58.3030   29.6110   46.3080 C   0  0  0  0  0  0  0  0  0  0  0  0
   57.0820   29.5100   45.4260 C   0  0  0  0  0  0  0  0  0  0  0  0
   57.4320   28.9280   44.0580 C   0  0  0  0  0  0  0  0  0  0  0  0
   56.8540   24.2950   47.2500 C   0  0  0  0  0  0  0  0  0  0  0  0
   53.9350   21.8520   48.0680 C   0  0  0  0  0  0  0  0  0  0  0  0
   53.0590   22.5740   49.0950 C   0  0  0  0  0  0  0  0  0  0  0  0
   50.3061   26.5000   52.5152 H   0  0  0  0  0  0  0  0  0  0  0  0
   51.3895   26.3895   51.0867 H   0  0  0  0  0  0  0  0  0  0  0  0
   49.8126   25.5293   51.0867 H   0  0  0  0  0  0  0  0  0  0  0  0
   52.2805   24.9141   52.7874 H   0  0  0  0  0  0  0  0  0  0  0  0
   50.6596   24.1705   53.0584 H   0  0  0  0  0  0  0  0  0  0  0  0
   54.3237   20.7683   51.7424 H   0  0  0  0  0  0  0  0  0  0  0  0
   53.6961   19.9647   50.2542 H   0  0  0  0  0  0  0  0  0  0  0  0
   56.0686   21.8532   50.5505 H   0  0  0  0  0  0  0  0  0  0  0  0
   56.0056   20.1764   49.8573 H   0  0  0  0  0  0  0  0  0  0  0  0
   55.9688   21.8001   45.0813 H   0  0  0  0  0  0  0  0  0  0  0  0
   56.1540   23.6884   43.4622 H   0  0  0  0  0  0  0  0  0  0  0  0
   56.8052   25.9590   44.2578 H   0  0  0  0  0  0  0  0  0  0  0  0
   56.5990   27.3150   47.1490 H   0  0  0  0  0  0  0  0  0  0  0  0
   62.4211   31.0772   46.1597 H   0  0  0  0  0  0  0  0  0  0  0  0
   64.1279   32.6511   47.0739 H   0  0  0  0  0  0  0  0  0  0  0  0
   63.7453   33.7775   49.2687 H   0  0  0  0  0  0  0  0  0  0  0  0
   61.6403   33.3495   50.5442 H   0  0  0  0  0  0  0  0  0  0  0  0
   59.9365   31.7652   49.6433 H   0  0  0  0  0  0  0  0  0  0  0  0
   58.9213   33.1119   47.8748 H   0  0  0  0  0  0  0  0  0  0  0  0
   58.5154   35.3517   46.8520 H   0  0  0  0  0  0  0  0  0  0  0  0
   58.0878   35.5465   44.3982 H   0  0  0  0  0  0  0  0  0  0  0  0
   58.0681   33.5012   42.9660 H   0  0  0  0  0  0  0  0  0  0  0  0
   58.4844   31.2596   43.9817 H   0  0  0  0  0  0  0  0  0  0  0  0
   56.3409   28.8593   45.9132 H   0  0  0  0  0  0  0  0  0  0  0  0
   56.6752   30.5214   45.2792 H   0  0  0  0  0  0  0  0  0  0  0  0
   57.9948   27.9922   44.1907 H   0  0  0  0  0  0  0  0  0  0  0  0
   56.5070   28.7234   43.4990 H   0  0  0  0  0  0  0  0  0  0  0  0
   58.0463   29.6492   43.4990 H   0  0  0  0  0  0  0  0  0  0  0  0
   57.0405   24.4696   48.3199 H   0  0  0  0  0  0  0  0  0  0  0  0
   53.9747   22.4430   47.1411 H   0  0  0  0  0  0  0  0  0  0  0  0
   53.5068   20.8612   47.8558 H   0  0  0  0  0  0  0  0  0  0  0  0
   53.3421   23.6366   49.1213 H   0  0  0  0  0  0  0  0  0  0  0  0
   52.0076   22.4544   48.7946 H   0  0  0  0  0  0  0  0  0  0  0  0
  1  2  1  0
  2  3  1  0
  3  4  1  0
  4  5  2  0
  4  6  1  0
  6  7  1  0
  7  8  1  0
  8  9  1  0
  9 10  1  0
 10 11  2  0
 10 12  1  0
 12 13  2  0
 13 14  1  0
 14 15  2  0
 15 16  1  0
 16 17  1  0
 17 18  1  0
 18 19  2  0
 18 20  1  0
 20 21  1  0
 21 22  2  0
 22 23  1  0
 23 24  2  0
 24 25  1  0
 25 26  2  0
 26 27  1  0
 27 28  2  0
 22 29  1  0
 29 30  1  0
 30 31  2  0
 31 32  1  0
 32 33  2  0
 33 34  1  0
 34 35  2  0
 29 36  1  0
 36 37  1  0
 37 38  1  0
 16 39  2  0
  9 40  1  0
 40 41  1  0
 41  6  1  0
 39 12  1  0
 36 20  2  0
 28 23  1  0
 35 30  1  0
  1 42  1  0
  1 43  1  0
  1 44  1  0
  2 45  1  0
  2 46  1  0
  7 47  1  0
  7 48  1  0
  8 49  1  0
  8 50  1  0
 13 51  1  0
 14 52  1  0
 15 53  1  0
 17 54  1  0
 24 55  1  0
 25 56  1  0
 26 57  1  0
 27 58  1  0
 28 59  1  0
 31 60  1  0
 32 61  1  0
 33 62  1  0
 34 63  1  0
 35 64  1  0
 37 65  1  0
 37 66  1  0
 38 67  1  0
 38 68  1  0
 38 69  1  0
 39 70  1  0
 40 71  1  0
 40 72  1  0
 41 73  1  0
 41 74  1  0
M  END
>  <UniqueID>  (84) 
80

>  <SMILES>  (84) 
CCOC(=O)N1CCN(C(=O)c2cccc(NC(=O)c3nc(-c4ccccc4)n(-c4ccccc4)c3CC)c2)CC1

>  <Energy>  (84) 
120.8559761025108

>  <Genealogy>  (84) 
CCOC(=O)N1CCN(C(=O)c2cccc(NC(=O)c3nc(-c4ccccc4)n(-c4ccccc4)c3CC)c2)CC1 (3D coordinates assigned)
CCOC(=O)N1CCN(C(=O)c2cccc(NC(=O)c3nc(-c4ccccc4)n(-c4ccccc4)c3CC)c2)CC1 (nonaromatic ring conformer: 120.8559761025108 kcal/mol)

>  <smiles>  (84) 
CCOC(=O)N1CCN(C(=O)c2cccc(NC(=O)c3nc(-c4ccccc4)n(-c4ccccc4)c3CC)c2)CC1

>  <score_type>  (84) 
oracle

>  <origin>  (84) 
adg

>  <m_score__min__energy>  (84) 
-8.6999999999999993

>  <m_primary>  (84) 
energy

$$$$
84:0
     RDKit          3D

 66 69  0  0  0  0  0  0  0  0999 V2000
   57.6230   33.0910   47.8540 C   0  0  0  0  0  0  0  0  0  0  0  0
   59.0710   33.3760   47.5590 C   0  0  0  0  0  0  0  0  0  0  0  0
   60.0040   33.3470   48.6100 C   0  0  0  0  0  0  0  0  0  0  0  0
   61.3600   33.5710   48.3620 C   0  0  0  0  0  0  0  0  0  0  0  0
   61.8010   33.8280   47.0650 C   0  0  0  0  0  0  0  0  0  0  0  0
   60.8860   33.8690   46.0110 C   0  0  0  0  0  0  0  0  0  0  0  0
   59.5170   33.6500   46.2430 C   0  0  0  0  0  0  0  0  0  0  0  0
   58.5790   33.7250   45.1010 C   0  0  0  0  0  0  0  0  0  0  0  0
   58.2360   34.8500   44.6530 O   0  0  0  0  0  0  0  0  0  0  0  0
   58.0360   32.5020   44.4790 C   0  0  0  0  0  0  0  0  0  0  0  0
   58.1970   32.1110   43.1630 C   0  0  0  0  0  0  0  0  0  0  0  0
   57.4710   31.0040   42.9250 N   0  0  0  0  0  0  0  0  0  0  0  0
   56.8400   30.6910   44.0740 C   0  0  0  0  0  0  0  0  0  0  0  0
   55.7990   29.6600   44.1860 C   0  0  0  0  0  0  0  0  0  0  0  0
   54.7760   29.7140   43.4530 O   0  0  0  0  0  0  0  0  0  0  0  0
   55.8880   28.6700   45.2140 N   0  0  0  0  0  0  0  0  0  0  0  0
   57.0850   27.8480   45.3690 C   0  0  0  0  0  0  0  0  0  0  0  0
   58.0630   28.5320   46.3440 C   0  0  2  0  0  0  0  0  0  0  0  0
   59.3190   29.0380   45.6280 C   0  0  0  0  0  0  0  0  0  0  0  0
   60.1890   29.8760   46.5860 C   0  0  0  0  0  0  0  0  0  0  0  0
   60.1780   29.4070   48.0070 N   0  0  1  0  0  0  0  0  0  0  0  0
   59.3300   30.2180   48.9250 C   0  0  0  0  0  0  0  0  0  0  0  0
   59.6490   29.9910   50.4400 C   0  0  0  0  0  0  0  0  0  0  0  0
   58.3620   29.7780   51.2680 C   0  0  0  0  0  0  0  0  0  0  0  0
   57.4820   31.0440   51.3390 C   0  0  0  0  0  0  0  0  0  0  0  0
   58.2900   32.3570   51.3170 C   0  0  0  0  0  0  0  0  0  0  0  0
   59.7020   32.1660   51.8740 C   0  0  0  0  0  0  0  0  0  0  0  0
   60.5070   31.1460   51.0460 C   0  0  0  0  0  0  0  0  0  0  0  0
   59.8460   27.9630   48.1130 C   0  0  0  0  0  0  0  0  0  0  0  0
   58.4630   27.6080   47.5140 C   0  0  0  0  0  0  0  0  0  0  0  0
   57.1750   31.5930   45.0650 C   0  0  0  0  0  0  0  0  0  0  0  0
   57.4697   33.0608   48.9428 H   0  0  0  0  0  0  0  0  0  0  0  0
   56.9970   33.8832   47.4174 H   0  0  0  0  0  0  0  0  0  0  0  0
   57.3439   32.1207   47.4174 H   0  0  0  0  0  0  0  0  0  0  0  0
   59.6632   33.1462   49.6364 H   0  0  0  0  0  0  0  0  0  0  0  0
   62.0815   33.5446   49.1919 H   0  0  0  0  0  0  0  0  0  0  0  0
   62.8703   33.9986   46.8716 H   0  0  0  0  0  0  0  0  0  0  0  0
   61.2397   34.0745   44.9899 H   0  0  0  0  0  0  0  0  0  0  0  0
   58.8245   32.6275   42.4218 H   0  0  0  0  0  0  0  0  0  0  0  0
   57.3680   30.5220   42.0030 H   0  0  0  0  0  0  0  0  0  0  0  0
   56.8024   26.8620   45.7665 H   0  0  0  0  0  0  0  0  0  0  0  0
   57.5722   27.7263   44.3903 H   0  0  0  0  0  0  0  0  0  0  0  0
   57.5236   29.3961   46.7592 H   0  0  0  0  0  0  0  0  0  0  0  0
   59.9024   28.1771   45.2694 H   0  0  0  0  0  0  0  0  0  0  0  0
   59.0141   29.6702   44.7810 H   0  0  0  0  0  0  0  0  0  0  0  0
   61.2268   29.8458   46.2225 H   0  0  0  0  0  0  0  0  0  0  0  0
   59.7628   30.8901   46.5886 H   0  0  0  0  0  0  0  0  0  0  0  0
   61.1580   29.4970   48.3670 H   0  0  0  0  0  0  0  0  0  0  0  0
   59.4858   31.2819   48.6928 H   0  0  0  0  0  0  0  0  0  0  0  0
   58.2887   29.9018   48.7646 H   0  0  0  0  0  0  0  0  0  0  0  0
   60.2492   29.0708   50.4944 H   0  0  0  0  0  0  0  0  0  0  0  0
   57.7771   28.9685   50.8070 H   0  0  0  0  0  0  0  0  0  0  0  0
   58.6658   29.5270   52.2950 H   0  0  0  0  0  0  0  0  0  0  0  0
   56.7983   31.0415   50.4773 H   0  0  0  0  0  0  0  0  0  0  0  0
   56.9446   31.0110   52.2982 H   0  0  0  0  0  0  0  0  0  0  0  0
   58.3622   32.7130   50.2787 H   0  0  0  0  0  0  0  0  0  0  0  0
   57.7689   33.0892   51.9513 H   0  0  0  0  0  0  0  0  0  0  0  0
   60.2262   33.1329   51.8563 H   0  0  0  0  0  0  0  0  0  0  0  0
   59.6168   31.7831   52.9017 H   0  0  0  0  0  0  0  0  0  0  0  0
   60.9959   31.6823   50.2194 H   0  0  0  0  0  0  0  0  0  0  0  0
   61.2250   30.6772   51.7350 H   0  0  0  0  0  0  0  0  0  0  0  0
   60.6162   27.3873   47.5788 H   0  0  0  0  0  0  0  0  0  0  0  0
   59.8114   27.7140   49.1839 H   0  0  0  0  0  0  0  0  0  0  0  0
   58.4941   26.5711   47.1482 H   0  0  0  0  0  0  0  0  0  0  0  0
   57.7143   27.7377   48.3094 H   0  0  0  0  0  0  0  0  0  0  0  0
   56.8273   31.5889   46.1086 H   0  0  0  0  0  0  0  0  0  0  0  0
  1  2  1  0
  2  3  2  0
  3  4  1  0
  4  5  2  0
  5  6  1  0
  6  7  2  0
  7  8  1  0
  8  9  2  0
  8 10  1  0
 10 11  2  0
 11 12  1  0
 12 13  1  0
 13 14  1  0
 14 15  2  0
 14 16  1  0
 16 17  1  0
 17 18  1  0
 18 19  1  0
 19 20  1  0
 20 21  1  0
 21 22  1  0
 22 23  1  0
 23 24  1  0
 24 25  1  0
 25 26  1  0
 26 27  1  0
 27 28  1  0
 21 29  1  0
 29 30  1  0
 13 31  2  0
  7  2  1  0
 31 10  1  0
 30 18  1  0
 28 23  1  0
  1 32  1  0
  1 33  1  0
  1 34  1  0
  3 35  1  0
  4 36  1  0
  5 37  1  0
  6 38  1  0
 11 39  1  0
 12 40  1  0
 17 41  1  0
 17 42  1  0
 18 43  1  1
 19 44  1  0
 19 45  1  0
 20 46  1  0
 20 47  1  0
 21 48  1  1
 22 49  1  0
 22 50  1  0
 23 51  1  0
 24 52  1  0
 24 53  1  0
 25 54  1  0
 25 55  1  0
 26 56  1  0
 26 57  1  0
 27 58  1  0
 27 59  1  0
 28 60  1  0
 28 61  1  0
 29 62  1  0
 29 63  1  0
 30 64  1  0
 30 65  1  0
 31 66  1  0
M  CHG  2  16  -1  21   1
M  END
>  <UniqueID>  (85) 
81

>  <SMILES>  (85) 
Cc1ccccc1C(=O)c1c[nH]c(C(=O)[N-]CC2CC[NH+](CC3CCCCC3)CC2)c1

>  <Energy>  (85) 
114.26994810056947

>  <Genealogy>  (85) 
Cc1ccccc1C(=O)c1c[nH]c(C(=O)[N-]CC2CC[NH+](CC3CCCCC3)CC2)c1 (protonated)
Cc1ccccc1C(=O)c1c[nH]c(C(=O)[N-]CC2CC[NH+](CC3CCCCC3)CC2)c1 (3D coordinates assigned)
Cc1ccccc1C(=O)c1c[nH]c(C(=O)[N-]CC2CC[NH+](CC3CCCCC3)CC2)c1 (nonaromatic ring conformer: 114.26994810056947 kcal/mol)

>  <smiles>  (85) 
Cc1ccccc1C(=O)c1c[nH]c(C(=O)NCC2CCN(CC3CCCCC3)CC2)c1

>  <score_type>  (85) 
oracle

>  <origin>  (85) 
adg

>  <m_score__min__energy>  (85) 
-10.130000000000001

>  <m_primary>  (85) 
energy

$$$$
85:0
     RDKit          3D

 52 55  0  0  0  0  0  0  0  0999 V2000
   55.6660   20.5060   49.6360 C   0  0  0  0  0  0  0  0  0  0  0  0
   56.8190   21.1880   48.9630 C   0  0  0  0  0  0  0  0  0  0  0  0
   57.7650   21.6320   49.6680 O   0  0  0  0  0  0  0  0  0  0  0  0
   56.8400   21.4240   47.5460 N   0  0  0  0  0  0  0  0  0  0  0  0
   57.0490   22.6830   46.8900 C   0  0  0  0  0  0  0  0  0  0  0  0
   56.3010   23.7910   47.3030 C   0  0  0  0  0  0  0  0  0  0  0  0
   56.5000   25.0400   46.7120 C   0  0  0  0  0  0  0  0  0  0  0  0
   57.4740   25.2090   45.7120 C   0  0  0  0  0  0  0  0  0  0  0  0
   57.6660   26.5000   45.0940 N   0  0  0  0  0  0  0  0  0  0  0  0
   57.7650   27.7500   45.8280 C   0  0  0  0  0  0  0  0  0  0  0  0
   57.7780   28.8800   44.7650 C   0  0  2  0  0  0  0  0  0  0  0  0
   57.8760   28.1960   43.3810 C   0  0  0  0  0  0  0  0  0  0  0  0
   57.7730   26.7630   43.7020 C   0  0  0  0  0  0  0  0  0  0  0  0
   57.8380   25.8610   42.8280 O   0  0  0  0  0  0  0  0  0  0  0  0
   58.8730   29.9500   45.0090 C   0  0  0  0  0  0  0  0  0  0  0  0
   58.0560   31.1900   45.2110 C   0  0  0  0  0  0  0  0  0  0  0  0
   58.6150   32.5350   45.4940 C   0  0  0  0  0  0  0  0  0  0  0  0
   58.0870   33.6680   44.8530 C   0  0  0  0  0  0  0  0  0  0  0  0
   58.6130   34.9340   45.1060 C   0  0  0  0  0  0  0  0  0  0  0  0
   59.6700   35.0870   46.0010 C   0  0  0  0  0  0  0  0  0  0  0  0
   60.2190   33.9740   46.6570 C   0  0  0  0  0  0  0  0  0  0  0  0
   61.2990   34.1800   47.5860 N   0  0  0  0  0  0  0  0  0  0  0  0
   62.8570   33.4070   47.4720 S   0  0  0  0  0  0  0  0  0  0  0  0
   63.7210   33.4930   49.0340 C   0  0  0  0  0  0  0  0  0  0  0  0
   63.6810   34.0500   46.3910 O   0  0  0  0  0  0  0  0  0  0  0  0
   62.6490   31.9570   47.1180 O   0  0  0  0  0  0  0  0  0  0  0  0
   59.6800   32.6960   46.4040 C   0  0  0  0  0  0  0  0  0  0  0  0
   56.7920   30.9630   45.1110 N   0  0  0  0  0  0  0  0  0  0  0  0
   56.5760   29.6360   44.8510 O   0  0  0  0  0  0  0  0  0  0  0  0
   58.2370   24.0950   45.3130 C   0  0  0  0  0  0  0  0  0  0  0  0
   58.0350   22.8480   45.9090 C   0  0  0  0  0  0  0  0  0  0  0  0
   55.7847   20.5762   50.7273 H   0  0  0  0  0  0  0  0  0  0  0  0
   54.7264   20.9937   49.3372 H   0  0  0  0  0  0  0  0  0  0  0  0
   55.6409   19.4476   49.3372 H   0  0  0  0  0  0  0  0  0  0  0  0
   55.5506   23.6771   48.0992 H   0  0  0  0  0  0  0  0  0  0  0  0
   55.8904   25.8983   47.0310 H   0  0  0  0  0  0  0  0  0  0  0  0
   56.9006   27.8676   46.4981 H   0  0  0  0  0  0  0  0  0  0  0  0
   58.6713   27.7769   46.4509 H   0  0  0  0  0  0  0  0  0  0  0  0
   57.0513   28.5131   42.7257 H   0  0  0  0  0  0  0  0  0  0  0  0
   58.7996   28.4502   42.8402 H   0  0  0  0  0  0  0  0  0  0  0  0
   59.4701   29.7146   45.9024 H   0  0  0  0  0  0  0  0  0  0  0  0
   59.6059   30.0294   44.1925 H   0  0  0  0  0  0  0  0  0  0  0  0
   57.2520   33.5554   44.1459 H   0  0  0  0  0  0  0  0  0  0  0  0
   58.1926   35.8144   44.5978 H   0  0  0  0  0  0  0  0  0  0  0  0
   60.0782   36.0898   46.1954 H   0  0  0  0  0  0  0  0  0  0  0  0
   61.1940   34.9050   48.3310 H   0  0  0  0  0  0  0  0  0  0  0  0
   62.9963   33.4209   49.8584 H   0  0  0  0  0  0  0  0  0  0  0  0
   64.4382   32.6618   49.1025 H   0  0  0  0  0  0  0  0  0  0  0  0
   64.2603   34.4493   49.1025 H   0  0  0  0  0  0  0  0  0  0  0  0
   60.0936   31.8174   46.9207 H   0  0  0  0  0  0  0  0  0  0  0  0
   58.9976   24.2075   44.5263 H   0  0  0  0  0  0  0  0  0  0  0  0
   58.6539   21.9905   45.6062 H   0  0  0  0  0  0  0  0  0  0  0  0
  1  2  1  0
  2  3  2  0
  2  4  1  0
  4  5  1  0
  5  6  2  0
  6  7  1  0
  7  8  2  0
  8  9  1  0
  9 10  1  0
 10 11  1  0
 11 12  1  0
 12 13  1  0
 13 14  2  0
 11 15  1  0
 15 16  1  0
 16 17  1  0
 17 18  2  0
 18 19  1  0
 19 20  2  0
 20 21  1  0
 21 22  1  0
 22 23  1  0
 23 24  1  0
 23 25  2  0
 23 26  2  0
 21 27  2  0
 16 28  2  0
 28 29  1  0
  8 30  1  0
 30 31  2  0
 31  5  1  0
 13  9  1  0
 27 17  1  0
 11 29  1  6
  1 32  1  0
  1 33  1  0
  1 34  1  0
  6 35  1  0
  7 36  1  0
 10 37  1  0
 10 38  1  0
 12 39  1  0
 12 40  1  0
 15 41  1  0
 15 42  1  0
 18 43  1  0
 19 44  1  0
 20 45  1  0
 22 46  1  0
 24 47  1  0
 24 48  1  0
 24 49  1  0
 27 50  1  0
 30 51  1  0
 31 52  1  0
M  CHG  1   4  -1
M  END
>  <UniqueID>  (86) 
82

>  <SMILES>  (86) 
CC(=O)[N-]c1ccc(N2C[C@]3(CC2=O)CC(c2cccc(NS(C)(=O)=O)c2)=NO3)cc1

>  <Energy>  (86) 
85.49492559674809

>  <Genealogy>  (86) 
CC(=O)[N-]c1ccc(N2CC3(CC2=O)CC(c2cccc(NS(C)(=O)=O)c2)=NO3)cc1 (protonated)
CC(=O)[N-]c1ccc(N2C[C@]3(CC2=O)CC(c2cccc(NS(C)(=O)=O)c2)=NO3)cc1 (chirality)
CC(=O)[N-]c1ccc(N2C[C@]3(CC2=O)CC(c2cccc(NS(C)(=O)=O)c2)=NO3)cc1 (3D coordinates assigned)
CC(=O)[N-]c1ccc(N2C[C@]3(CC2=O)CC(c2cccc(NS(C)(=O)=O)c2)=NO3)cc1 (nonaromatic ring conformer: 85.49492559674809 kcal/mol)

>  <smiles>  (86) 
CC(=O)Nc1ccc(N2CC3(CC2=O)CC(c2cccc(NS(C)(=O)=O)c2)=NO3)cc1

>  <score_type>  (86) 
oracle

>  <origin>  (86) 
adg

>  <m_score__min__energy>  (86) 
-11.24

>  <m_primary>  (86) 
energy

$$$$
86:0
     RDKit          3D

 44 46  0  0  0  0  0  0  0  0999 V2000
   59.7850   30.7120   47.9830 C   0  0  0  0  0  0  0  0  0  0  0  0
   58.8970   30.3060   47.0740 C   0  0  0  0  0  0  0  0  0  0  0  0
   58.7120   28.9970   46.7820 N   0  0  0  0  0  0  0  0  0  0  0  0
   57.7700   28.9980   45.8140 C   0  0  0  0  0  0  0  0  0  0  0  0
   57.2640   27.8980   45.2360 C   0  0  0  0  0  0  0  0  0  0  0  0
   57.2200   26.5760   45.9020 C   0  0  0  0  0  0  0  0  0  0  0  0
   55.9820   26.0090   46.2460 C   0  0  0  0  0  0  0  0  0  0  0  0
   54.7970   26.6890   45.9930 O   0  0  0  0  0  0  0  0  0  0  0  0
   55.9340   24.7900   46.8420 N   0  0  0  0  0  0  0  0  0  0  0  0
   57.0680   24.0930   47.1040 C   0  0  0  0  0  0  0  0  0  0  0  0
   56.9990   22.9670   47.6620 O   0  0  0  0  0  0  0  0  0  0  0  0
   58.2770   24.6040   46.7570 N   0  0  0  0  0  0  0  0  0  0  0  0
   58.3800   25.8170   46.1570 C   0  0  0  0  0  0  0  0  0  0  0  0
   59.5160   26.2370   45.8110 O   0  0  0  0  0  0  0  0  0  0  0  0
   57.4010   30.2980   45.5510 C   0  0  0  0  0  0  0  0  0  0  0  0
   56.5520   30.6730   44.6980 O   0  0  0  0  0  0  0  0  0  0  0  0
   58.0990   31.1290   46.3460 N   0  0  0  0  0  0  0  0  0  0  0  0
   58.0520   32.5950   46.3350 C   0  0  0  0  0  0  0  0  0  0  0  0
   59.1410   33.1510   45.4090 C   0  0  0  0  0  0  0  0  0  0  0  0
   60.1210   34.1370   46.0920 C   0  0  0  0  0  0  0  0  0  0  0  0
   61.2120   33.5470   46.9170 N   0  0  0  0  0  0  0  0  0  0  0  0
   61.1370   33.8760   48.3560 C   0  0  0  0  0  0  0  0  0  0  0  0
   62.2100   33.0910   49.1490 C   0  0  0  0  0  0  0  0  0  0  0  0
   63.2390   32.5660   48.3260 O   0  0  0  0  0  0  0  0  0  0  0  0
   63.6670   33.5420   47.3990 C   0  0  0  0  0  0  0  0  0  0  0  0
   62.5600   33.8190   46.3630 C   0  0  0  0  0  0  0  0  0  0  0  0
   59.9063   31.7850   48.1924 H   0  0  0  0  0  0  0  0  0  0  0  0
   60.3959   29.9737   48.5231 H   0  0  0  0  0  0  0  0  0  0  0  0
   56.8615   27.9824   44.2158 H   0  0  0  0  0  0  0  0  0  0  0  0
   57.0660   32.9246   45.9757 H   0  0  0  0  0  0  0  0  0  0  0  0
   58.2227   32.9681   47.3556 H   0  0  0  0  0  0  0  0  0  0  0  0
   59.7232   32.3045   45.0159 H   0  0  0  0  0  0  0  0  0  0  0  0
   58.6233   33.7185   44.6217 H   0  0  0  0  0  0  0  0  0  0  0  0
   60.5922   34.7377   45.3001 H   0  0  0  0  0  0  0  0  0  0  0  0
   59.5032   34.7062   46.8022 H   0  0  0  0  0  0  0  0  0  0  0  0
   61.0790   32.5070   46.8500 H   0  0  0  0  0  0  0  0  0  0  0  0
   61.3053   34.9548   48.4898 H   0  0  0  0  0  0  0  0  0  0  0  0
   60.1418   33.5975   48.7329 H   0  0  0  0  0  0  0  0  0  0  0  0
   62.6640   33.7680   49.8876 H   0  0  0  0  0  0  0  0  0  0  0  0
   61.7054   32.2380   49.6263 H   0  0  0  0  0  0  0  0  0  0  0  0
   63.9029   34.4729   47.9354 H   0  0  0  0  0  0  0  0  0  0  0  0
   64.5609   33.1708   46.8763 H   0  0  0  0  0  0  0  0  0  0  0  0
   62.6137   34.8742   46.0570 H   0  0  0  0  0  0  0  0  0  0  0  0
   62.7192   33.1515   45.5033 H   0  0  0  0  0  0  0  0  0  0  0  0
  1  2  2  0
  2  3  1  0
  3  4  1  0
  4  5  2  3
  5  6  1  0
  6  7  2  0
  7  8  1  0
  7  9  1  0
  9 10  1  0
 10 11  2  0
 10 12  1  0
 12 13  1  0
 13 14  2  0
  4 15  1  0
 15 16  2  0
 15 17  1  0
 17 18  1  0
 18 19  1  0
 19 20  1  0
 20 21  1  0
 21 22  1  0
 22 23  1  0
 23 24  1  0
 24 25  1  0
 25 26  1  0
 17  2  1  0
 26 21  1  0
 13  6  1  0
  1 27  1  0
  1 28  1  0
  5 29  1  0
 18 30  1  0
 18 31  1  0
 19 32  1  0
 19 33  1  0
 20 34  1  0
 20 35  1  0
 21 36  1  0
 22 37  1  0
 22 38  1  0
 23 39  1  0
 23 40  1  0
 25 41  1  0
 25 42  1  0
 26 43  1  0
 26 44  1  0
M  CHG  5   3  -1   8  -1   9  -1  12  -1  21   1
M  END
>  <UniqueID>  (87) 
83

>  <SMILES>  (87) 
C=c1[n-]c(=Cc2c([O-])[n-]c(=O)[n-]c2=O)c(=O)n1CCC[NH+]1CCOCC1

>  <Energy>  (87) 
99.98591853016518

>  <Genealogy>  (87) 
C=c1[n-]c(=Cc2c([O-])[n-]c(=O)[n-]c2=O)c(=O)n1CCC[NH+]1CCOCC1 (protonated)
C=c1[n-]c(=Cc2c([O-])[n-]c(=O)[n-]c2=O)c(=O)n1CCC[NH+]1CCOCC1 (3D coordinates assigned)
C=c1[n-]c(=Cc2c([O-])[n-]c(=O)[n-]c2=O)c(=O)n1CCC[NH+]1CCOCC1 (nonaromatic ring conformer: 99.98591853016518 kcal/mol)

>  <smiles>  (87) 
C=c1[nH]c(=Cc2c(O)[nH]c(=O)[nH]c2=O)c(=O)n1CCCN1CCOCC1

>  <score_type>  (87) 
oracle

>  <origin>  (87) 
adg

>  <m_score__min__energy>  (87) 
-14.800000000000001

>  <m_primary>  (87) 
energy

$$$$
87:0
     RDKit          3D

 34 36  0  0  0  0  0  0  0  0999 V2000
   60.0835   36.4651   46.5087 H   0  0  0  0  0  0  0  0  0  0  0  0
   59.6550   35.4690   46.3240 C   0  0  0  0  0  0  0  0  0  0  0  0
   59.3700   35.0630   45.0190 C   0  0  0  0  0  0  0  0  0  0  0  0
   59.5759   35.7392   44.1762 H   0  0  0  0  0  0  0  0  0  0  0  0
   58.8240   33.8000   44.7820 C   0  0  0  0  0  0  0  0  0  0  0  0
   58.6082   33.4831   43.7510 H   0  0  0  0  0  0  0  0  0  0  0  0
   58.5480   32.9300   45.8520 C   0  0  0  0  0  0  0  0  0  0  0  0
   57.9970   31.5870   45.5750 C   0  0  0  0  0  0  0  0  0  0  0  0
   56.8240   31.3890   44.9430 N   0  0  0  0  0  0  0  0  0  0  0  0
   56.6040   30.1060   44.9280 O   0  0  0  0  0  0  0  0  0  0  0  0
   57.5740   29.4490   45.5220 C   0  0  0  0  0  0  0  0  0  0  0  0
   57.6050   27.9610   45.6540 C   0  0  0  0  0  0  0  0  0  0  0  0
   57.6107   27.6875   46.7194 H   0  0  0  0  0  0  0  0  0  0  0  0
   56.7156   27.5313   45.1699 H   0  0  0  0  0  0  0  0  0  0  0  0
   58.5115   27.5688   45.1699 H   0  0  0  0  0  0  0  0  0  0  0  0
   58.5170   30.3610   45.9690 C   0  0  0  0  0  0  0  0  0  0  0  0
   59.8070   30.0840   46.6350 C   0  0  0  0  0  0  0  0  0  0  0  0
   59.8790   29.1640   47.4920 O   0  0  0  0  0  0  0  0  0  0  0  0
   60.9390   30.9310   46.3770 N   0  0  0  0  0  0  0  0  0  0  0  0
   61.7120   31.5500   47.2280 C   0  0  0  0  0  0  0  0  0  0  0  0
   62.3430   32.7790   46.9350 C   0  0  0  0  0  0  0  0  0  0  0  0
   62.1996   33.2549   45.9537 H   0  0  0  0  0  0  0  0  0  0  0  0
   63.1500   33.3860   47.8990 C   0  0  0  0  0  0  0  0  0  0  0  0
   63.6515   34.3392   47.6757 H   0  0  0  0  0  0  0  0  0  0  0  0
   63.3200   32.7840   49.1440 C   0  0  0  0  0  0  0  0  0  0  0  0
   63.9600   33.2533   49.9057 H   0  0  0  0  0  0  0  0  0  0  0  0
   62.6700   31.5800   49.4140 C   0  0  0  0  0  0  0  0  0  0  0  0
   62.7926   31.0985   50.3954 H   0  0  0  0  0  0  0  0  0  0  0  0
   61.8840   30.9990   48.4660 N   0  0  0  0  0  0  0  0  0  0  0  0
   61.4090   30.0980   48.7010 H   0  0  0  0  0  0  0  0  0  0  0  0
   58.8480   33.3420   47.1690 C   0  0  0  0  0  0  0  0  0  0  0  0
   58.5080   32.3180   48.5610 Cl  0  0  0  0  0  0  0  0  0  0  0  0
   59.3960   34.6100   47.3960 C   0  0  0  0  0  0  0  0  0  0  0  0
   59.6239   34.9320   48.4228 H   0  0  0  0  0  0  0  0  0  0  0  0
  1  2  1  0
  2  3  2  0
  3  4  1  0
  3  5  1  0
  5  6  1  0
  5  7  2  0
  7  8  1  0
  8  9  2  0
  9 10  1  0
 10 11  1  0
 11 12  1  0
 12 13  1  0
 12 14  1  0
 12 15  1  0
 11 16  2  0
 16 17  1  0
 17 18  2  0
 17 19  1  0
 19 20  2  0
 20 21  1  0
 21 22  1  0
 21 23  2  0
 23 24  1  0
 23 25  1  0
 25 26  1  0
 25 27  2  0
 27 28  1  0
 27 29  1  0
 29 30  1  0
  7 31  1  0
 31 32  1  0
 31 33  2  0
 33 34  1  0
 33  2  1  0
 16  8  1  0
 29 20  1  0
M  END
>  <UniqueID>  (88) 
84

>  <SMILES>  (88) 
Cc1onc(-c2ccccc2Cl)c1C(=O)/N=c1\cccc[nH]1

>  <Energy>  (88) 
81.86557562795178

>  <Genealogy>  (88) 
Cc1onc(-c2ccccc2Cl)c1C(=O)/N=c1\cccc[nH]1 (cis-trans isomerization)
Cc1onc(-c2ccccc2Cl)c1C(=O)/N=c1\cccc[nH]1 (3D coordinates assigned)
Cc1onc(-c2ccccc2Cl)c1C(=O)/N=c1\cccc[nH]1 (optimized conformer: 81.86557562795178 kcal/mol)

>  <smiles>  (88) 
Cc1onc(-c2ccccc2Cl)c1C(=O)N=c1cccc[nH]1

>  <score_type>  (88) 
oracle

>  <origin>  (88) 
adg

>  <m_score__min__energy>  (88) 
-7.6600000000000001

>  <m_primary>  (88) 
energy

$$$$
88:0
     RDKit          3D

 57 60  0  0  0  0  0  0  0  0999 V2000
   57.8680   27.1590   43.2320 C   0  0  0  0  0  0  0  0  0  0  0  0
   58.3440   26.7740   44.4280 C   0  0  0  0  0  0  0  0  0  0  0  0
   57.9430   25.6520   45.1720 C   0  0  0  0  0  0  0  0  0  0  0  0
   57.1690   24.6000   44.8400 C   0  0  0  0  0  0  0  0  0  0  0  0
   55.7340   24.4650   45.1280 C   0  0  0  0  0  0  0  0  0  0  0  0
   55.0010   23.3970   44.7690 N   0  0  0  0  0  0  0  0  0  0  0  0
   53.7440   23.7510   45.1160 C   0  0  0  0  0  0  0  0  0  0  0  0
   52.7560   22.9890   44.9500 O   0  0  0  0  0  0  0  0  0  0  0  0
   53.6280   24.9880   45.6450 N   0  0  0  0  0  0  0  0  0  0  0  0
   54.8950   25.4330   45.6310 C   0  0  0  0  0  0  0  0  0  0  0  0
   55.2750   26.7050   46.0470 O   0  0  0  0  0  0  0  0  0  0  0  0
   58.5070   25.7990   46.4250 C   0  0  0  0  0  0  0  0  0  0  0  0
   59.2770   26.9450   46.3910 C   0  0  0  0  0  0  0  0  0  0  0  0
   60.0020   27.4870   47.5580 C   0  0  0  0  0  0  0  0  0  0  0  0
   60.7660   26.7300   48.2180 O   0  0  0  0  0  0  0  0  0  0  0  0
   59.8870   28.8750   47.9220 N   0  0  0  0  0  0  0  0  0  0  0  0
   58.5590   29.5000   47.9570 C   0  0  0  0  0  0  0  0  0  0  0  0
   58.6560   30.9820   48.3480 C   0  0  0  0  0  0  0  0  0  0  0  0
   59.8270   31.6240   47.7200 N   0  0  0  0  0  0  0  0  0  0  0  0
   59.7220   31.6890   46.2420 C   0  0  0  0  0  0  0  0  0  0  0  0
   58.4140   32.3680   45.8230 C   0  0  0  0  0  0  0  0  0  0  0  0
   57.9180   31.8420   44.5520 N   0  0  0  0  0  0  0  0  0  0  0  0
   58.1540   32.4590   43.2590 C   0  0  0  0  0  0  0  0  0  0  0  0
   57.3740   31.6110   42.2330 C   0  0  0  0  0  0  0  0  0  0  0  0
   56.6770   30.4760   43.0030 C   0  0  0  0  0  0  0  0  0  0  0  0
   57.0810   30.7130   44.4020 C   0  0  0  0  0  0  0  0  0  0  0  0
   56.7110   29.9940   45.3680 O   0  0  0  0  0  0  0  0  0  0  0  0
   61.1070   31.0310   48.1860 C   0  0  0  0  0  0  0  0  0  0  0  0
   61.0100   29.5440   48.5900 C   0  0  0  0  0  0  0  0  0  0  0  0
   59.1990   27.5260   45.1700 N   0  0  0  0  0  0  0  0  0  0  0  0
   59.8550   28.7750   44.7650 C   0  0  0  0  0  0  0  0  0  0  0  0
   58.2654   28.0627   42.7469 H   0  0  0  0  0  0  0  0  0  0  0  0
   57.0809   26.5705   42.7380 H   0  0  0  0  0  0  0  0  0  0  0  0
   57.6538   23.7692   44.3065 H   0  0  0  0  0  0  0  0  0  0  0  0
   55.5610   26.8710   47.0030 H   0  0  0  0  0  0  0  0  0  0  0  0
   58.3687   25.1296   47.2868 H   0  0  0  0  0  0  0  0  0  0  0  0
   58.0981   29.4205   46.9614 H   0  0  0  0  0  0  0  0  0  0  0  0
   57.9474   28.9795   48.7087 H   0  0  0  0  0  0  0  0  0  0  0  0
   57.7432   31.5004   48.0191 H   0  0  0  0  0  0  0  0  0  0  0  0
   58.7669   31.0475   49.4404 H   0  0  0  0  0  0  0  0  0  0  0  0
   60.5712   32.2640   45.8443 H   0  0  0  0  0  0  0  0  0  0  0  0
   59.7341   30.6650   45.8405 H   0  0  0  0  0  0  0  0  0  0  0  0
   57.6563   32.1944   46.6013 H   0  0  0  0  0  0  0  0  0  0  0  0
   58.6091   33.4433   45.6979 H   0  0  0  0  0  0  0  0  0  0  0  0
   57.7852   33.4953   43.2572 H   0  0  0  0  0  0  0  0  0  0  0  0
   59.2271   32.4937   43.0196 H   0  0  0  0  0  0  0  0  0  0  0  0
   56.6244   32.2343   41.7234 H   0  0  0  0  0  0  0  0  0  0  0  0
   58.0550   31.2011   41.4726 H   0  0  0  0  0  0  0  0  0  0  0  0
   55.5843   30.5389   42.8929 H   0  0  0  0  0  0  0  0  0  0  0  0
   56.9558   29.4761   42.6392 H   0  0  0  0  0  0  0  0  0  0  0  0
   61.8434   31.1197   47.3737 H   0  0  0  0  0  0  0  0  0  0  0  0
   61.3988   31.5843   49.0908 H   0  0  0  0  0  0  0  0  0  0  0  0
   61.9451   29.0364   48.3108 H   0  0  0  0  0  0  0  0  0  0  0  0
   60.8444   29.4926   49.6762 H   0  0  0  0  0  0  0  0  0  0  0  0
   60.1519   29.3404   45.6607 H   0  0  0  0  0  0  0  0  0  0  0  0
   60.7475   28.5427   44.1654 H   0  0  0  0  0  0  0  0  0  0  0  0
   59.1572   29.3780   44.1654 H   0  0  0  0  0  0  0  0  0  0  0  0
  1  2  2  0
  2  3  1  0
  3  4  2  3
  4  5  1  0
  5  6  1  0
  6  7  1  0
  7  8  2  0
  7  9  1  0
  9 10  1  0
 10 11  1  0
  3 12  1  0
 12 13  2  0
 13 14  1  0
 14 15  2  0
 14 16  1  0
 16 17  1  0
 17 18  1  0
 18 19  1  0
 19 20  1  0
 20 21  1  0
 21 22  1  0
 22 23  1  0
 23 24  1  0
 24 25  1  0
 25 26  1  0
 26 27  2  0
 19 28  1  0
 28 29  1  0
 13 30  1  0
 30 31  1  0
 30  2  1  0
 10  5  2  0
 29 16  1  0
 26 22  1  0
  1 32  1  0
  1 33  1  0
  4 34  1  0
 11 35  1  0
 12 36  1  0
 17 37  1  0
 17 38  1  0
 18 39  1  0
 18 40  1  0
 20 41  1  0
 20 42  1  0
 21 43  1  0
 21 44  1  0
 23 45  1  0
 23 46  1  0
 24 47  1  0
 24 48  1  0
 25 49  1  0
 25 50  1  0
 28 51  1  0
 28 52  1  0
 29 53  1  0
 29 54  1  0
 31 55  1  0
 31 56  1  0
 31 57  1  0
M  CHG  2   6  -1   9  -1
M  END
>  <UniqueID>  (89) 
85

>  <SMILES>  (89) 
C=c1c(=Cc2[n-]c(=O)[n-]c2O)cc(C(=O)N2CCN(CCN3CCCC3=O)CC2)n1C

>  <Energy>  (89) 
144.4722145829395

>  <Genealogy>  (89) 
C=c1c(=Cc2[n-]c(=O)[n-]c2O)cc(C(=O)N2CCN(CCN3CCCC3=O)CC2)n1C (protonated)
C=c1c(=Cc2[n-]c(=O)[n-]c2O)cc(C(=O)N2CCN(CCN3CCCC3=O)CC2)n1C (3D coordinates assigned)
C=c1c(=Cc2[n-]c(=O)[n-]c2O)cc(C(=O)N2CCN(CCN3CCCC3=O)CC2)n1C (nonaromatic ring conformer: 144.4722145829395 kcal/mol)

>  <smiles>  (89) 
C=c1c(=Cc2[nH]c(=O)[nH]c2O)cc(C(=O)N2CCN(CCN3CCCC3=O)CC2)n1C

>  <score_type>  (89) 
oracle

>  <origin>  (89) 
adg

>  <m_score__min__energy>  (89) 
-13.56

>  <m_primary>  (89) 
energy

$$$$
