0:0
     RDKit          3D

 45 48  0  0  0  0  0  0  0  0999 V2000
   56.9211   29.1113   52.4272 H   0  0  0  0  0  0  0  0  0  0  0  0
   57.2590   30.1050   52.0980 C   0  0  0  0  0  0  0  0  0  0  0  0
   57.7510   30.2730   50.8420 N   0  0  0  0  0  0  0  0  0  0  0  0
   58.1910   31.4830   50.3920 C   0  0  0  0  0  0  0  0  0  0  0  0
   58.6820   31.6030   49.0430 N   0  0  0  0  0  0  0  0  0  0  0  0
   58.9030   32.9160   48.4200 C   0  0  0  0  0  0  0  0  0  0  0  0
   59.9836   33.1020   48.3322 H   0  0  0  0  0  0  0  0  0  0  0  0
   58.4435   33.6973   49.0433 H   0  0  0  0  0  0  0  0  0  0  0  0
   58.2680   32.9390   47.0280 C   0  0  0  0  0  0  0  0  0  0  0  0
   58.6594   33.8019   46.4692 H   0  0  0  0  0  0  0  0  0  0  0  0
   57.1768   33.0150   47.1438 H   0  0  0  0  0  0  0  0  0  0  0  0
   58.5730   31.7080   46.2850 N   0  0  0  0  0  0  0  0  0  0  0  0
   58.0390   31.5340   44.9630 C   0  0  0  0  0  0  0  0  0  0  0  0
   58.2890   32.5010   43.9790 C   0  0  0  0  0  0  0  0  0  0  0  0
   58.8916   33.3880   44.2242 H   0  0  0  0  0  0  0  0  0  0  0  0
   57.7770   32.3440   42.6890 C   0  0  0  0  0  0  0  0  0  0  0  0
   57.9718   33.1093   41.9233 H   0  0  0  0  0  0  0  0  0  0  0  0
   57.0180   31.2160   42.3710 C   0  0  0  0  0  0  0  0  0  0  0  0
   56.6251   31.0878   41.3516 H   0  0  0  0  0  0  0  0  0  0  0  0
   56.7570   30.2500   43.3460 C   0  0  0  0  0  0  0  0  0  0  0  0
   56.1665   29.3585   43.0883 H   0  0  0  0  0  0  0  0  0  0  0  0
   57.2450   30.4110   44.6550 C   0  0  0  0  0  0  0  0  0  0  0  0
   56.9880   29.4320   45.6740 N   0  0  0  0  0  0  0  0  0  0  0  0
   57.3580   28.0500   45.6330 C   0  0  0  0  0  0  0  0  0  0  0  0
   58.3350   27.7080   44.9160 O   0  0  0  0  0  0  0  0  0  0  0  0
   56.6630   27.0910   46.4490 N   0  0  0  0  0  0  0  0  0  0  0  0
   56.0190   26.0320   46.0570 C   0  0  0  0  0  0  0  0  0  0  0  0
   54.6720   26.0050   45.9780 N   0  0  0  0  0  0  0  0  0  0  0  0
   54.2130   24.8010   45.5410 C   0  0  0  0  0  0  0  0  0  0  0  0
   53.1411   24.5899   45.4130 H   0  0  0  0  0  0  0  0  0  0  0  0
   55.1960   23.8570   45.2680 C   0  0  0  0  0  0  0  0  0  0  0  0
   55.0253   22.8319   44.9073 H   0  0  0  0  0  0  0  0  0  0  0  0
   56.6930   24.5570   45.5860 S   0  0  0  0  0  0  0  0  0  0  0  0
   59.4580   30.6880   46.8630 C   0  0  0  0  0  0  0  0  0  0  0  0
   60.4932   31.0599   46.8594 H   0  0  0  0  0  0  0  0  0  0  0  0
   59.3892   29.7688   46.2627 H   0  0  0  0  0  0  0  0  0  0  0  0
   59.0340   30.3800   48.3050 C   0  0  0  0  0  0  0  0  0  0  0  0
   59.8660   29.8791   48.8217 H   0  0  0  0  0  0  0  0  0  0  0  0
   58.1447   29.7336   48.2697 H   0  0  0  0  0  0  0  0  0  0  0  0
   58.1100   32.6010   51.2400 C   0  0  0  0  0  0  0  0  0  0  0  0
   58.4394   33.5894   50.8872 H   0  0  0  0  0  0  0  0  0  0  0  0
   57.6080   32.4470   52.5340 C   0  0  0  0  0  0  0  0  0  0  0  0
   57.5483   33.3138   53.2086 H   0  0  0  0  0  0  0  0  0  0  0  0
   57.1820   31.1910   52.9700 C   0  0  0  0  0  0  0  0  0  0  0  0
   56.7902   31.0593   53.9894 H   0  0  0  0  0  0  0  0  0  0  0  0
  1  2  1  0
  2  3  2  0
  3  4  1  0
  4  5  1  0
  5  6  1  0
  6  7  1  0
  6  8  1  0
  6  9  1  0
  9 10  1  0
  9 11  1  0
  9 12  1  0
 12 13  1  0
 13 14  2  0
 14 15  1  0
 14 16  1  0
 16 17  1  0
 16 18  2  0
 18 19  1  0
 18 20  1  0
 20 21  1  0
 20 22  2  0
 22 23  1  0
 23 24  1  0
 24 25  2  0
 24 26  1  0
 26 27  2  0
 27 28  1  0
 28 29  1  0
 29 30  1  0
 29 31  2  0
 31 32  1  0
 31 33  1  0
 12 34  1  0
 34 35  1  0
 34 36  1  0
 34 37  1  0
 37 38  1  0
 37 39  1  0
  4 40  2  0
 40 41  1  0
 40 42  1  0
 42 43  1  0
 42 44  2  0
 44 45  1  0
 44  2  1  0
 37  5  1  0
 22 13  1  0
 33 27  1  0
M  CHG  2  23  -1  28  -1
M  END
>  <UniqueID>  (1) 
1

>  <SMILES>  (1) 
O=C(/N=c1/[n-]ccs1)[N-]c1ccccc1N1CCN(c2ccccn2)CC1

>  <Energy>  (1) 
94.80124590749675

>  <Genealogy>  (1) 
O=C(N=c1[n-]ccs1)[N-]c1ccccc1N1CCN(c2ccccn2)CC1 (protonated)
O=C(/N=c1/[n-]ccs1)[N-]c1ccccc1N1CCN(c2ccccn2)CC1 (cis-trans isomerization)
O=C(/N=c1/[n-]ccs1)[N-]c1ccccc1N1CCN(c2ccccn2)CC1 (3D coordinates assigned)
O=C(/N=c1/[n-]ccs1)[N-]c1ccccc1N1CCN(c2ccccn2)CC1 (nonaromatic ring conformer: 94.80124590749675 kcal/mol)

>  <smiles>  (1) 
O=C(N=c1[nH]ccs1)Nc1ccccc1N1CCN(c2ccccn2)CC1

>  <score_type>  (1) 
oracle

>  <origin>  (1) 
adg

>  <m_score__min__energy>  (1) 
-11.140000000000001

>  <m_primary>  (1) 
energy

$$$$
1:0
     RDKit          3D

 37 39  0  0  0  0  0  0  0  0999 V2000
   61.6130   26.0140   52.0880 N   0  0  0  0  0  0  0  0  0  0  0  0
   60.6180   26.0690   53.1110 C   0  0  0  0  0  0  0  0  0  0  0  0
   60.6990   26.9580   54.0010 O   0  0  0  0  0  0  0  0  0  0  0  0
   59.4940   25.1020   53.1340 C   0  0  0  0  0  0  0  0  0  0  0  0
   58.2870   25.4070   53.8060 C   0  0  0  0  0  0  0  0  0  0  0  0
   58.0760   26.7080   54.3840 N   0  0  0  0  0  0  0  0  0  0  0  0
   57.0130   27.5970   53.9950 C   0  0  0  0  0  0  0  0  0  0  0  0
   55.6870   27.2620   54.3030 C   0  0  0  0  0  0  0  0  0  0  0  0
   54.6360   28.0980   53.9180 C   0  0  0  0  0  0  0  0  0  0  0  0
   54.8890   29.2820   53.2050 C   0  0  0  0  0  0  0  0  0  0  0  0
   53.7730   30.1730   52.7970 C   0  0  0  0  0  0  0  0  0  0  0  0
   52.6950   30.4170   53.6690 C   0  0  0  0  0  0  0  0  0  0  0  0
   51.6460   31.2550   53.2810 C   0  0  0  0  0  0  0  0  0  0  0  0
   51.6590   31.8610   52.0230 C   0  0  0  0  0  0  0  0  0  0  0  0
   50.6150   32.6940   51.6400 O   0  0  0  0  0  0  0  0  0  0  0  0
   52.7240   31.6280   51.1480 C   0  0  0  0  0  0  0  0  0  0  0  0
   53.7760   30.7890   51.5300 C   0  0  0  0  0  0  0  0  0  0  0  0
   56.2180   29.6080   52.8800 C   0  0  0  0  0  0  0  0  0  0  0  0
   57.2690   28.7700   53.2650 C   0  0  0  0  0  0  0  0  0  0  0  0
   57.2500   24.4610   53.8200 C   0  0  0  0  0  0  0  0  0  0  0  0
   57.4280   23.2290   53.1980 C   0  0  0  0  0  0  0  0  0  0  0  0
   58.5990   22.9430   52.5750 N   0  0  0  0  0  0  0  0  0  0  0  0
   59.6260   23.8330   52.5290 C   0  0  0  0  0  0  0  0  0  0  0  0
   60.6980   23.4970   51.9590 O   0  0  0  0  0  0  0  0  0  0  0  0
   61.5160   25.3630   51.2770 H   0  0  0  0  0  0  0  0  0  0  0  0
   62.4210   26.6750   52.1050 H   0  0  0  0  0  0  0  0  0  0  0  0
   58.7550   27.0390   55.1060 H   0  0  0  0  0  0  0  0  0  0  0  0
   55.4724   26.3334   54.8522 H   0  0  0  0  0  0  0  0  0  0  0  0
   53.6014   27.8270   54.1753 H   0  0  0  0  0  0  0  0  0  0  0  0
   52.6783   29.9449   54.6624 H   0  0  0  0  0  0  0  0  0  0  0  0
   50.8073   31.4378   53.9689 H   0  0  0  0  0  0  0  0  0  0  0  0
   52.7348   32.1054   50.1571 H   0  0  0  0  0  0  0  0  0  0  0  0
   54.6109   30.6090   50.8368 H   0  0  0  0  0  0  0  0  0  0  0  0
   56.4322   30.5294   52.3186 H   0  0  0  0  0  0  0  0  0  0  0  0
   58.3029   29.0307   52.9947 H   0  0  0  0  0  0  0  0  0  0  0  0
   56.2989   24.6930   54.3215 H   0  0  0  0  0  0  0  0  0  0  0  0
   56.6176   22.4853   53.2114 H   0  0  0  0  0  0  0  0  0  0  0  0
  1  2  1  0
  2  3  2  0
  2  4  1  0
  4  5  2  0
  5  6  1  0
  6  7  1  0
  7  8  2  0
  8  9  1  0
  9 10  2  0
 10 11  1  0
 11 12  2  0
 12 13  1  0
 13 14  2  0
 14 15  1  0
 14 16  1  0
 16 17  2  0
 10 18  1  0
 18 19  2  0
  5 20  1  0
 20 21  2  0
 21 22  1  0
 22 23  1  0
 23 24  2  0
 23  4  1  0
 19  7  1  0
 17 11  1  0
  1 25  1  0
  1 26  1  0
  6 27  1  0
  8 28  1  0
  9 29  1  0
 12 30  1  0
 13 31  1  0
 16 32  1  0
 17 33  1  0
 18 34  1  0
 19 35  1  0
 20 36  1  0
 21 37  1  0
M  CHG  2  15  -1  22  -1
M  END
>  <UniqueID>  (2) 
2

>  <SMILES>  (2) 
NC(=O)c1c(Nc2ccc(-c3ccc([O-])cc3)cc2)cc[n-]c1=O

>  <Energy>  (2) 
57.069884685764116

>  <Genealogy>  (2) 
NC(=O)c1c(Nc2ccc(-c3ccc([O-])cc3)cc2)cc[n-]c1=O (protonated)
NC(=O)c1c(Nc2ccc(-c3ccc([O-])cc3)cc2)cc[n-]c1=O (3D coordinates assigned)
NC(=O)c1c(Nc2ccc(-c3ccc([O-])cc3)cc2)cc[n-]c1=O (optimized conformer: 57.069884685764116 kcal/mol)

>  <smiles>  (2) 
NC(=O)c1c(Nc2ccc(-c3ccc(O)cc3)cc2)cc[nH]c1=O

>  <score_type>  (2) 
oracle

>  <origin>  (2) 
adg

>  <m_score__min__energy>  (2) 
-9.9100000000000001

>  <m_primary>  (2) 
energy

$$$$
2:0
     RDKit          3D

 77 81  0  0  0  0  0  0  0  0999 V2000
   56.6580   22.2820   41.4490 H   0  0  0  0  0  0  0  0  0  0  0  0
   56.4230   21.6490   42.2470 N   0  0  0  0  0  0  0  0  0  0  0  0
   56.2070   22.1100   43.4360 C   0  0  0  0  0  0  0  0  0  0  0  0
   55.0400   22.7500   43.7180 N   0  0  0  0  0  0  0  0  0  0  0  0
   54.7620   23.2530   44.9530 C   0  0  0  0  0  0  0  0  0  0  0  0
   53.4510   23.9530   45.1530 C   0  0  0  0  0  0  0  0  0  0  0  0
   53.2525   24.0590   46.2297 H   0  0  0  0  0  0  0  0  0  0  0  0
   53.4925   24.9490   44.6880 H   0  0  0  0  0  0  0  0  0  0  0  0
   52.6464   23.3645   44.6880 H   0  0  0  0  0  0  0  0  0  0  0  0
   55.7110   23.1070   45.9940 C   0  0  0  0  0  0  0  0  0  0  0  0
   55.4940   23.6440   47.3920 C   0  0  0  0  0  0  0  0  0  0  0  0
   54.4156   23.7736   47.5659 H   0  0  0  0  0  0  0  0  0  0  0  0
   55.9134   22.9289   48.1150 H   0  0  0  0  0  0  0  0  0  0  0  0
   56.1700   24.9400   47.5610 N   0  0  0  0  0  0  0  0  0  0  0  0
   57.1420   24.7730   47.9090 H   0  0  0  0  0  0  0  0  0  0  0  0
   56.2100   25.7310   46.3180 C   0  0  1  0  0  0  0  0  0  0  0  0
   56.3342   25.0421   45.4695 H   0  0  0  0  0  0  0  0  0  0  0  0
   55.0140   26.4530   46.2120 O   0  0  0  0  0  0  0  0  0  0  0  0
   54.7600   26.7280   47.1330 H   0  0  0  0  0  0  0  0  0  0  0  0
   57.3750   26.6980   46.3070 C   0  0  0  0  0  0  0  0  0  0  0  0
   58.4510   26.4660   47.1030 N   0  0  0  0  0  0  0  0  0  0  0  0
   59.5180   27.3070   47.1510 C   0  0  0  0  0  0  0  0  0  0  0  0
   60.6180   27.0150   47.9680 O   0  0  0  0  0  0  0  0  0  0  0  0
   60.6600   27.3070   49.3630 C   0  0  0  0  0  0  0  0  0  0  0  0
   59.7916   26.8449   49.8553 H   0  0  0  0  0  0  0  0  0  0  0  0
   61.5940   26.9040   49.7815 H   0  0  0  0  0  0  0  0  0  0  0  0
   60.6260   28.8210   49.5990 C   0  0  0  0  0  0  0  0  0  0  0  0
   61.6557   29.1924   49.7075 H   0  0  0  0  0  0  0  0  0  0  0  0
   60.1347   29.3011   48.7399 H   0  0  0  0  0  0  0  0  0  0  0  0
   59.8290   29.1580   50.8770 C   0  0  0  0  0  0  0  0  0  0  0  0
   59.2399   28.2730   51.1595 H   0  0  0  0  0  0  0  0  0  0  0  0
   60.5656   29.4423   51.6429 H   0  0  0  0  0  0  0  0  0  0  0  0
   58.9030   30.3050   50.7310 N   0  0  0  0  0  0  0  0  0  0  0  0
   59.0000   30.9780   49.4190 C   0  0  0  0  0  0  0  0  0  0  0  0
   60.0598   31.0836   49.1440 H   0  0  0  0  0  0  0  0  0  0  0  0
   58.4717   30.3716   48.6686 H   0  0  0  0  0  0  0  0  0  0  0  0
   58.3520   32.3700   49.4780 C   0  0  0  0  0  0  0  0  0  0  0  0
   58.4345   32.8329   48.4835 H   0  0  0  0  0  0  0  0  0  0  0  0
   57.3075   32.2230   49.7901 H   0  0  0  0  0  0  0  0  0  0  0  0
   58.9480   33.2430   50.4290 O   0  0  0  0  0  0  0  0  0  0  0  0
   59.5430   32.5750   51.5350 C   0  0  0  0  0  0  0  0  0  0  0  0
   60.6004   32.3862   51.2980 H   0  0  0  0  0  0  0  0  0  0  0  0
   59.4177   33.2301   52.4097 H   0  0  0  0  0  0  0  0  0  0  0  0
   58.8770   31.2330   51.8820 C   0  0  0  0  0  0  0  0  0  0  0  0
   59.4148   30.7737   52.7245 H   0  0  0  0  0  0  0  0  0  0  0  0
   57.8272   31.4257   52.1481 H   0  0  0  0  0  0  0  0  0  0  0  0
   59.5270   28.4670   46.3670 C   0  0  0  0  0  0  0  0  0  0  0  0
   60.6490   29.2890   46.4120 O   0  0  0  0  0  0  0  0  0  0  0  0
   58.4140   28.7550   45.5380 C   0  0  0  0  0  0  0  0  0  0  0  0
   58.3440   29.7980   44.7550 N   0  0  0  0  0  0  0  0  0  0  0  0
   57.7460   31.0640   45.0480 C   0  0  0  0  0  0  0  0  0  0  0  0
   56.5570   31.2920   44.6980 O   0  0  0  0  0  0  0  0  0  0  0  0
   58.5230   32.1010   45.7420 C   0  0  0  0  0  0  0  0  0  0  0  0
   58.2920   33.4630   45.6900 C   0  0  0  0  0  0  0  0  0  0  0  0
   57.4713   33.9801   45.1714 H   0  0  0  0  0  0  0  0  0  0  0  0
   59.3070   34.0360   46.4250 C   0  0  0  0  0  0  0  0  0  0  0  0
   59.4820   35.4070   46.5800 O   0  0  0  0  0  0  0  0  0  0  0  0
   60.1330   33.0950   46.9340 N   0  0  0  0  0  0  0  0  0  0  0  0
   61.3280   33.3060   47.7140 C   0  0  0  0  0  0  0  0  0  0  0  0
   62.5520   32.7460   47.3040 C   0  0  0  0  0  0  0  0  0  0  0  0
   62.5941   32.1360   46.3896 H   0  0  0  0  0  0  0  0  0  0  0  0
   63.7150   32.9590   48.0500 C   0  0  0  0  0  0  0  0  0  0  0  0
   64.6674   32.5170   47.7219 H   0  0  0  0  0  0  0  0  0  0  0  0
   63.6680   33.7330   49.2120 C   0  0  0  0  0  0  0  0  0  0  0  0
   64.5855   33.9080   49.7930 H   0  0  0  0  0  0  0  0  0  0  0  0
   62.4570   34.2850   49.6370 C   0  0  0  0  0  0  0  0  0  0  0  0
   62.4213   34.8903   50.5548 H   0  0  0  0  0  0  0  0  0  0  0  0
   61.2900   34.0690   48.8970 C   0  0  0  0  0  0  0  0  0  0  0  0
   60.3371   34.4975   49.2410 H   0  0  0  0  0  0  0  0  0  0  0  0
   59.6570   31.9040   46.5110 C   0  0  0  0  0  0  0  0  0  0  0  0
   60.1030   30.9255   46.7425 H   0  0  0  0  0  0  0  0  0  0  0  0
   57.3400   27.8560   45.5200 C   0  0  0  0  0  0  0  0  0  0  0  0
   56.4653   28.0604   44.8850 H   0  0  0  0  0  0  0  0  0  0  0  0
   56.9210   22.4550   45.7070 C   0  0  0  0  0  0  0  0  0  0  0  0
   57.6792   22.3408   46.4958 H   0  0  0  0  0  0  0  0  0  0  0  0
   57.1700   21.9510   44.4310 C   0  0  0  0  0  0  0  0  0  0  0  0
   58.1158   21.4337   44.2121 H   0  0  0  0  0  0  0  0  0  0  0  0
  1  2  1  0
  2  3  2  0
  3  4  1  0
  4  5  1  0
  5  6  1  0
  6  7  1  0
  6  8  1  0
  6  9  1  0
  5 10  2  0
 10 11  1  0
 11 12  1  0
 11 13  1  0
 11 14  1  0
 14 15  1  0
 14 16  1  0
 16 17  1  6
 16 18  1  0
 18 19  1  0
 16 20  1  0
 20 21  1  0
 21 22  1  0
 22 23  1  0
 23 24  1  0
 24 25  1  0
 24 26  1  0
 24 27  1  0
 27 28  1  0
 27 29  1  0
 27 30  1  0
 30 31  1  0
 30 32  1  0
 30 33  1  0
 33 34  1  0
 34 35  1  0
 34 36  1  0
 34 37  1  0
 37 38  1  0
 37 39  1  0
 37 40  1  0
 40 41  1  0
 41 42  1  0
 41 43  1  0
 41 44  1  0
 44 45  1  0
 44 46  1  0
 22 47  2  0
 47 48  1  0
 47 49  1  0
 49 50  2  3
 50 51  1  0
 51 52  2  0
 51 53  1  0
 53 54  1  0
 54 55  1  0
 54 56  2  0
 56 57  1  0
 56 58  1  0
 58 59  1  0
 59 60  2  0
 60 61  1  0
 60 62  1  0
 62 63  1  0
 62 64  2  0
 64 65  1  0
 64 66  1  0
 66 67  1  0
 66 68  2  0
 68 69  1  0
 58 70  1  0
 70 71  1  0
 49 72  1  0
 72 73  1  0
 10 74  1  0
 74 75  1  0
 74 76  2  0
 76 77  1  0
 76  3  1  0
 72 20  2  0
 44 33  1  0
 70 53  2  0
 68 59  1  0
M  CHG  4   4  -1  21  -1  48  -1  57  -1
M  END
>  <UniqueID>  (3) 
3

>  <SMILES>  (3) 
[H]/N=c1/ccc(CN[C@@H](O)c2cc(=NC(=O)c3cc([O-])n(-c4ccccc4)c3)c([O-])c(OCCCN3CCOCC3)[n-]2)c(C)[n-]1

>  <Energy>  (3) 
139.58999884571992

>  <Genealogy>  (3) 
Cc1[n-]c(=N)ccc1CNC(O)c1cc(=NC(=O)c2cc([O-])n(-c3ccccc3)c2)c([O-])c(OCCCN2CCOCC2)[n-]1 (protonated)
Cc1[n-]c(=N)ccc1CN[C@@H](O)c1cc(=NC(=O)c2cc([O-])n(-c3ccccc3)c2)c([O-])c(OCCCN2CCOCC2)[n-]1 (chirality)
[H]/N=c1/ccc(CN[C@@H](O)c2cc(=NC(=O)c3cc([O-])n(-c4ccccc4)c3)c([O-])c(OCCCN3CCOCC3)[n-]2)c(C)[n-]1 (cis-trans isomerization)
[H]/N=c1/ccc(CN[C@@H](O)c2cc(=NC(=O)c3cc([O-])n(-c4ccccc4)c3)c([O-])c(OCCCN3CCOCC3)[n-]2)c(C)[n-]1 (3D coordinates assigned)
[H]/N=c1/ccc(CN[C@@H](O)c2cc(=NC(=O)c3cc([O-])n(-c4ccccc4)c3)c([O-])c(OCCCN3CCOCC3)[n-]2)c(C)[n-]1 (nonaromatic ring conformer: 139.58999884571992 kcal/mol)

>  <smiles>  (3) 
Cc1[nH]c(=N)ccc1CNC(O)c1cc(=NC(=O)c2cc(O)n(-c3ccccc3)c2)c(O)c(OCCCN2CCOCC2)[nH]1

>  <score_type>  (3) 
oracle

>  <origin>  (3) 
adg

>  <m_score__min__energy>  (3) 
-17.190000000000001

>  <m_primary>  (3) 
energy

$$$$
3:0
     RDKit          3D

 46 49  0  0  0  0  0  0  0  0999 V2000
   52.2920   31.3850   53.3170 O   0  0  0  0  0  0  0  0  0  0  0  0
   52.7130   30.6460   52.3850 C   0  0  0  0  0  0  0  0  0  0  0  0
   53.8120   29.7550   52.6270 N   0  0  0  0  0  0  0  0  0  0  0  0
   55.1620   30.1250   52.9430 C   0  0  0  0  0  0  0  0  0  0  0  0
   55.7900   29.7150   54.1330 C   0  0  0  0  0  0  0  0  0  0  0  0
   57.1100   30.0880   54.3950 C   0  0  0  0  0  0  0  0  0  0  0  0
   57.8220   30.8520   53.4680 C   0  0  0  0  0  0  0  0  0  0  0  0
   57.2240   31.2310   52.2550 C   0  0  0  0  0  0  0  0  0  0  0  0
   57.9860   32.0370   51.2730 C   0  0  0  0  0  0  0  0  0  0  0  0
   58.1600   33.2660   51.4970 O   0  0  0  0  0  0  0  0  0  0  0  0
   58.5270   31.4550   50.0700 N   0  0  0  0  0  0  0  0  0  0  0  0
   58.9640   32.3170   48.9610 C   0  0  0  0  0  0  0  0  0  0  0  0
   58.5460   31.7130   47.6240 C   0  0  0  0  0  0  0  0  0  0  0  0
   59.0750   30.3140   47.5090 C   0  0  0  0  0  0  0  0  0  0  0  0
   59.4660   29.8040   46.2620 C   0  0  0  0  0  0  0  0  0  0  0  0
   59.9380   28.4930   46.1550 C   0  0  0  0  0  0  0  0  0  0  0  0
   60.0080   27.6790   47.2880 C   0  0  0  0  0  0  0  0  0  0  0  0
   60.4720   26.3740   47.1780 O   0  0  0  0  0  0  0  0  0  0  0  0
   59.6050   28.1750   48.5310 C   0  0  0  0  0  0  0  0  0  0  0  0
   59.1410   29.4940   48.6540 C   0  0  0  0  0  0  0  0  0  0  0  0
   58.6560   29.9890   49.9970 C   0  0  0  0  0  0  0  0  0  0  0  0
   55.8900   30.8690   52.0050 C   0  0  0  0  0  0  0  0  0  0  0  0
   52.1060   30.7510   51.0300 C   0  0  0  0  0  0  0  0  0  0  0  0
   52.3340   29.7240   50.0910 C   0  0  0  0  0  0  0  0  0  0  0  0
   51.7770   29.7900   48.8120 C   0  0  0  0  0  0  0  0  0  0  0  0
   50.9860   30.8800   48.4470 C   0  0  0  0  0  0  0  0  0  0  0  0
   50.7520   31.9100   49.3600 C   0  0  0  0  0  0  0  0  0  0  0  0
   49.9650   32.9930   48.9850 O   0  0  0  0  0  0  0  0  0  0  0  0
   51.3060   31.8550   50.6460 C   0  0  0  0  0  0  0  0  0  0  0  0
   51.0570   32.9050   51.5240 O   0  0  0  0  0  0  0  0  0  0  0  0
   55.2398   29.0988   54.8593 H   0  0  0  0  0  0  0  0  0  0  0  0
   57.5906   29.7789   55.3349 H   0  0  0  0  0  0  0  0  0  0  0  0
   58.8552   31.1582   53.6886 H   0  0  0  0  0  0  0  0  0  0  0  0
   58.5037   33.3101   49.0702 H   0  0  0  0  0  0  0  0  0  0  0  0
   60.0602   32.4047   48.9867 H   0  0  0  0  0  0  0  0  0  0  0  0
   57.4481   31.6944   47.5593 H   0  0  0  0  0  0  0  0  0  0  0  0
   58.9560   32.3239   46.8062 H   0  0  0  0  0  0  0  0  0  0  0  0
   59.4009   30.4381   45.3655 H   0  0  0  0  0  0  0  0  0  0  0  0
   60.2549   28.1015   45.1771 H   0  0  0  0  0  0  0  0  0  0  0  0
   59.6518   27.5273   49.4189 H   0  0  0  0  0  0  0  0  0  0  0  0
   57.6712   29.5421   50.1982 H   0  0  0  0  0  0  0  0  0  0  0  0
   59.4082   29.6923   50.7428 H   0  0  0  0  0  0  0  0  0  0  0  0
   55.4115   31.1730   51.0623 H   0  0  0  0  0  0  0  0  0  0  0  0
   52.9574   28.8614   50.3690 H   0  0  0  0  0  0  0  0  0  0  0  0
   51.9623   28.9806   48.0905 H   0  0  0  0  0  0  0  0  0  0  0  0
   50.5467   30.9278   47.4397 H   0  0  0  0  0  0  0  0  0  0  0  0
  1  2  2  0
  2  3  1  0
  3  4  1  0
  4  5  2  0
  5  6  1  0
  6  7  2  0
  7  8  1  0
  8  9  1  0
  9 10  2  0
  9 11  1  0
 11 12  1  0
 12 13  1  0
 13 14  1  0
 14 15  2  0
 15 16  1  0
 16 17  2  0
 17 18  1  0
 17 19  1  0
 19 20  2  0
 20 21  1  0
  8 22  2  0
  2 23  1  0
 23 24  2  0
 24 25  1  0
 25 26  2  0
 26 27  1  0
 27 28  1  0
 27 29  2  0
 29 30  1  0
 22  4  1  0
 29 23  1  0
 21 11  1  0
 20 14  1  0
  5 31  1  0
  6 32  1  0
  7 33  1  0
 12 34  1  0
 12 35  1  0
 13 36  1  0
 13 37  1  0
 15 38  1  0
 16 39  1  0
 19 40  1  0
 21 41  1  0
 21 42  1  0
 22 43  1  0
 24 44  1  0
 25 45  1  0
 26 46  1  0
M  CHG  4   3  -1  18  -1  28  -1  30  -1
M  END
>  <UniqueID>  (4) 
4

>  <SMILES>  (4) 
O=C([N-]c1cccc(C(=O)N2CCc3ccc([O-])cc3C2)c1)c1cccc([O-])c1[O-]

>  <Energy>  (4) 
64.19353230458306

>  <Genealogy>  (4) 
O=C([N-]c1cccc(C(=O)N2CCc3ccc([O-])cc3C2)c1)c1cccc([O-])c1[O-] (protonated)
O=C([N-]c1cccc(C(=O)N2CCc3ccc([O-])cc3C2)c1)c1cccc([O-])c1[O-] (3D coordinates assigned)
O=C([N-]c1cccc(C(=O)N2CCc3ccc([O-])cc3C2)c1)c1cccc([O-])c1[O-] (nonaromatic ring conformer: 64.19353230458306 kcal/mol)

>  <smiles>  (4) 
O=C(Nc1cccc(C(=O)N2CCc3ccc(O)cc3C2)c1)c1cccc(O)c1O

>  <score_type>  (4) 
oracle

>  <origin>  (4) 
adg

>  <m_score__min__energy>  (4) 
-19.719999999999999

>  <m_primary>  (4) 
energy

$$$$
4:0
     RDKit          3D

 66 67  0  0  0  0  0  0  0  0999 V2000
   60.2100   33.9500   50.1210 C   0  0  0  0  0  0  0  0  0  0  0  0
   61.6640   34.0800   49.6720 C   0  0  0  0  0  0  0  0  0  0  0  0
   61.8670   33.4380   48.3620 N   0  0  0  0  0  0  0  0  0  0  0  0
   63.2590   33.2980   47.8990 C   0  0  0  0  0  0  0  0  0  0  0  0
   63.3920   33.7400   46.4420 C   0  0  0  0  0  0  0  0  0  0  0  0
   60.7420   32.9720   47.5560 C   0  0  0  0  0  0  0  0  0  0  0  0
   60.1400   31.7150   47.7940 C   0  0  0  0  0  0  0  0  0  0  0  0
   59.0590   31.2740   47.0260 C   0  0  0  0  0  0  0  0  0  0  0  0
   58.5360   32.0780   46.0070 C   0  0  0  0  0  0  0  0  0  0  0  0
   57.3930   31.6020   45.1980 C   0  0  0  0  0  0  0  0  0  0  0  0
   56.3090   32.2460   45.2270 O   0  0  0  0  0  0  0  0  0  0  0  0
   57.4880   30.4270   44.3690 N   0  0  0  0  0  0  0  0  0  0  0  0
   57.1810   30.4800   42.9290 C   0  0  0  0  0  0  0  0  0  0  0  0
   56.2690   29.3270   42.5100 C   0  0  0  0  0  0  0  0  0  0  0  0
   57.8550   29.1760   44.9790 C   0  0  0  0  0  0  0  0  0  0  0  0
   56.8810   28.2610   45.4070 C   0  0  0  0  0  0  0  0  0  0  0  0
   55.5360   28.5630   45.2100 O   0  0  0  0  0  0  0  0  0  0  0  0
   57.2450   27.0860   46.0160 N   0  0  0  0  0  0  0  0  0  0  0  0
   56.2010   26.1450   46.4760 C   0  0  0  0  0  0  0  0  0  0  0  0
   56.0780   24.8820   45.5830 C   0  0  0  0  0  0  0  0  0  0  0  0
   57.2780   24.5140   44.7780 N   0  0  0  0  0  0  0  0  0  0  0  0
   57.1210   24.8890   43.3460 C   0  0  0  0  0  0  0  0  0  0  0  0
   57.7890   26.2310   43.0190 C   0  0  0  0  0  0  0  0  0  0  0  0
   57.6910   23.0930   44.9200 C   0  0  0  0  0  0  0  0  0  0  0  0
   59.1890   22.9280   45.2040 C   0  0  0  0  0  0  0  0  0  0  0  0
   58.5780   26.7790   46.1450 C   0  0  0  0  0  0  0  0  0  0  0  0
   58.9470   25.6840   46.6510 O   0  0  0  0  0  0  0  0  0  0  0  0
   59.5270   27.6580   45.7370 N   0  0  0  0  0  0  0  0  0  0  0  0
   59.1990   28.8440   45.1720 C   0  0  0  0  0  0  0  0  0  0  0  0
   60.1140   29.6300   44.8080 O   0  0  0  0  0  0  0  0  0  0  0  0
   59.1350   33.3160   45.7420 C   0  0  0  0  0  0  0  0  0  0  0  0
   60.2170   33.7600   46.5050 C   0  0  0  0  0  0  0  0  0  0  0  0
   60.1646   33.9459   51.2201 H   0  0  0  0  0  0  0  0  0  0  0  0
   59.6291   34.7998   49.7332 H   0  0  0  0  0  0  0  0  0  0  0  0
   59.7891   33.0106   49.7332 H   0  0  0  0  0  0  0  0  0  0  0  0
   61.9236   35.1462   49.5951 H   0  0  0  0  0  0  0  0  0  0  0  0
   62.3072   33.5814   50.4121 H   0  0  0  0  0  0  0  0  0  0  0  0
   63.9125   33.9219   48.5265 H   0  0  0  0  0  0  0  0  0  0  0  0
   63.5519   32.2405   47.9754 H   0  0  0  0  0  0  0  0  0  0  0  0
   63.7088   34.7928   46.4057 H   0  0  0  0  0  0  0  0  0  0  0  0
   64.1415   33.1139   45.9358 H   0  0  0  0  0  0  0  0  0  0  0  0
   62.4214   33.6315   45.9358 H   0  0  0  0  0  0  0  0  0  0  0  0
   60.5294   31.0729   48.5978 H   0  0  0  0  0  0  0  0  0  0  0  0
   58.6156   30.2870   47.2240 H   0  0  0  0  0  0  0  0  0  0  0  0
   56.6791   31.4328   42.7050 H   0  0  0  0  0  0  0  0  0  0  0  0
   58.1249   30.3951   42.3706 H   0  0  0  0  0  0  0  0  0  0  0  0
   55.8739   28.8275   43.4069 H   0  0  0  0  0  0  0  0  0  0  0  0
   55.4340   29.7191   41.9108 H   0  0  0  0  0  0  0  0  0  0  0  0
   56.8428   28.6047   41.9108 H   0  0  0  0  0  0  0  0  0  0  0  0
   56.4447   25.8263   47.5002 H   0  0  0  0  0  0  0  0  0  0  0  0
   55.2386   26.6753   46.4255 H   0  0  0  0  0  0  0  0  0  0  0  0
   55.8425   24.0311   46.2391 H   0  0  0  0  0  0  0  0  0  0  0  0
   55.2973   25.1226   44.8464 H   0  0  0  0  0  0  0  0  0  0  0  0
   58.0570   25.0970   45.1710 H   0  0  0  0  0  0  0  0  0  0  0  0
   57.5773   24.1056   42.7231 H   0  0  0  0  0  0  0  0  0  0  0  0
   56.0451   24.9897   43.1405 H   0  0  0  0  0  0  0  0  0  0  0  0
   58.0471   26.7496   43.9541 H   0  0  0  0  0  0  0  0  0  0  0  0
   58.7034   26.0525   42.4342 H   0  0  0  0  0  0  0  0  0  0  0  0
   57.0954   26.8530   42.4342 H   0  0  0  0  0  0  0  0  0  0  0  0
   57.1257   22.6454   45.7507 H   0  0  0  0  0  0  0  0  0  0  0  0
   57.4813   22.5930   43.9629 H   0  0  0  0  0  0  0  0  0  0  0  0
   59.3563   22.9096   46.2911 H   0  0  0  0  0  0  0  0  0  0  0  0
   59.5443   21.9853   44.7623 H   0  0  0  0  0  0  0  0  0  0  0  0
   59.7409   23.7708   44.7623 H   0  0  0  0  0  0  0  0  0  0  0  0
   58.7496   33.9443   44.9254 H   0  0  0  0  0  0  0  0  0  0  0  0
   60.6685   34.7387   46.2852 H   0  0  0  0  0  0  0  0  0  0  0  0
  1  2  1  0
  2  3  1  0
  3  4  1  0
  4  5  1  0
  3  6  1  0
  6  7  2  0
  7  8  1  0
  8  9  2  0
  9 10  1  0
 10 11  2  0
 10 12  1  0
 12 13  1  0
 13 14  1  0
 12 15  1  0
 15 16  2  0
 16 17  1  0
 16 18  1  0
 18 19  1  0
 19 20  1  0
 20 21  1  0
 21 22  1  0
 22 23  1  0
 21 24  1  0
 24 25  1  0
 18 26  1  0
 26 27  2  0
 26 28  1  0
 28 29  1  0
 29 30  2  0
  9 31  1  0
 31 32  2  0
 32  6  1  0
 29 15  1  0
  1 33  1  0
  1 34  1  0
  1 35  1  0
  2 36  1  0
  2 37  1  0
  4 38  1  0
  4 39  1  0
  5 40  1  0
  5 41  1  0
  5 42  1  0
  7 43  1  0
  8 44  1  0
 13 45  1  0
 13 46  1  0
 14 47  1  0
 14 48  1  0
 14 49  1  0
 19 50  1  0
 19 51  1  0
 20 52  1  0
 20 53  1  0
 21 54  1  0
 22 55  1  0
 22 56  1  0
 23 57  1  0
 23 58  1  0
 23 59  1  0
 24 60  1  0
 24 61  1  0
 25 62  1  0
 25 63  1  0
 25 64  1  0
 31 65  1  0
 32 66  1  0
M  CHG  3  17  -1  21   1  28  -1
M  END
>  <UniqueID>  (5) 
5

>  <SMILES>  (5) 
CCN(CC)c1ccc(C(=O)N(CC)c2c([O-])n(CC[NH+](CC)CC)c(=O)[n-]c2=O)cc1

>  <Energy>  (5) 
82.50546694363312

>  <Genealogy>  (5) 
CCN(CC)c1ccc(C(=O)N(CC)c2c([O-])n(CC[NH+](CC)CC)c(=O)[n-]c2=O)cc1 (protonated)
CCN(CC)c1ccc(C(=O)N(CC)c2c([O-])n(CC[NH+](CC)CC)c(=O)[n-]c2=O)cc1 (3D coordinates assigned)
CCN(CC)c1ccc(C(=O)N(CC)c2c([O-])n(CC[NH+](CC)CC)c(=O)[n-]c2=O)cc1 (optimized conformer: 82.50546694363312 kcal/mol)

>  <smiles>  (5) 
CCN(CC)CCn1c(O)c(N(CC)C(=O)c2ccc(N(CC)CC)cc2)c(=O)[nH]c1=O

>  <score_type>  (5) 
oracle

>  <origin>  (5) 
adg

>  <m_score__min__energy>  (5) 
-9.9700000000000006

>  <m_primary>  (5) 
energy

$$$$
5:0
     RDKit          3D

 78 82  0  0  0  0  0  0  0  0999 V2000
   59.8600   28.6520   45.9720 O   0  0  0  0  0  0  0  0  0  0  0  0
   59.5830   28.9320   47.1680 C   0  0  0  0  0  0  0  0  0  0  0  0
   58.2640   28.8660   47.5990 O   0  0  0  0  0  0  0  0  0  0  0  0
   60.6650   29.3730   48.1080 C   0  0  0  0  0  0  0  0  0  0  0  0
   60.9670   30.8700   47.9530 C   0  0  0  0  0  0  0  0  0  0  0  0
   59.7270   31.6560   48.0440 N   0  0  0  0  0  0  0  0  0  0  0  0
   58.9160   31.5930   49.2300 C   0  0  0  0  0  0  0  0  0  0  0  0
   58.4580   30.4840   49.6250 O   0  0  0  0  0  0  0  0  0  0  0  0
   58.6680   32.7640   49.9640 O   0  0  0  0  0  0  0  0  0  0  0  0
   58.7290   32.8710   51.3610 C   0  0  0  0  0  0  0  0  0  0  0  0
   57.9750   32.0400   52.2130 C   0  0  0  0  0  0  0  0  0  0  0  0
   58.0630   32.1940   53.6010 C   0  0  0  0  0  0  0  0  0  0  0  0
   58.8940   33.1750   54.1480 C   0  0  0  0  0  0  0  0  0  0  0  0
   59.6350   34.0150   53.3060 C   0  0  0  0  0  0  0  0  0  0  0  0
   59.5450   33.8680   51.9180 C   0  0  0  0  0  0  0  0  0  0  0  0
   59.1970   32.2440   46.8430 C   0  0  0  0  0  0  0  0  0  0  0  0
   58.6580   31.4220   45.8980 N   0  0  0  0  0  0  0  0  0  0  0  0
   58.2280   31.9000   44.6990 C   0  0  0  0  0  0  0  0  0  0  0  0
   57.6300   30.9670   43.6740 C   0  0  0  0  0  0  0  0  0  0  0  0
   56.5260   30.0920   44.2850 C   0  0  0  0  0  0  0  0  0  0  0  0
   57.0050   28.6730   44.4480 C   0  0  0  0  0  0  0  0  0  0  0  0
   57.7690   28.0630   43.4400 C   0  0  0  0  0  0  0  0  0  0  0  0
   58.1880   26.7370   43.5790 C   0  0  0  0  0  0  0  0  0  0  0  0
   57.8360   26.0070   44.7210 C   0  0  0  0  0  0  0  0  0  0  0  0
   57.0660   26.6040   45.7250 C   0  0  0  0  0  0  0  0  0  0  0  0
   56.6500   27.9330   45.5910 C   0  0  0  0  0  0  0  0  0  0  0  0
   58.3280   33.2670   44.4370 C   0  0  0  0  0  0  0  0  0  0  0  0
   58.8550   34.1090   45.4140 C   0  0  0  0  0  0  0  0  0  0  0  0
   58.9290   35.3460   45.1700 O   0  0  0  0  0  0  0  0  0  0  0  0
   59.2760   33.6020   46.6190 N   0  0  0  0  0  0  0  0  0  0  0  0
   59.7480   34.5310   47.6700 C   0  0  0  0  0  0  0  0  0  0  0  0
   61.1670   34.2060   48.0650 C   0  0  0  0  0  0  0  0  0  0  0  0
   62.0420   33.6320   47.1320 C   0  0  0  0  0  0  0  0  0  0  0  0
   63.3340   33.2610   47.5090 C   0  0  0  0  0  0  0  0  0  0  0  0
   63.7720   33.4570   48.8320 C   0  0  0  0  0  0  0  0  0  0  0  0
   65.0430   33.0540   49.2750 O   0  0  0  0  0  0  0  0  0  0  0  0
   65.2970   31.9540   50.1510 C   0  0  0  0  0  0  0  0  0  0  0  0
   64.0940   31.6720   51.0110 C   0  0  0  0  0  0  0  0  0  0  0  0
   63.9610   32.3040   52.2600 C   0  0  0  0  0  0  0  0  0  0  0  0
   62.8360   32.0580   53.0560 C   0  0  0  0  0  0  0  0  0  0  0  0
   61.8400   31.1810   52.6120 C   0  0  0  0  0  0  0  0  0  0  0  0
   61.9720   30.5410   51.3740 C   0  0  0  0  0  0  0  0  0  0  0  0
   61.0050   29.6910   50.9430 F   0  0  0  0  0  0  0  0  0  0  0  0
   63.0960   30.7820   50.5780 C   0  0  0  0  0  0  0  0  0  0  0  0
   62.9110   34.0650   49.7510 C   0  0  0  0  0  0  0  0  0  0  0  0
   61.6170   34.4360   49.3740 C   0  0  0  0  0  0  0  0  0  0  0  0
   60.3423   29.1783   49.1414 H   0  0  0  0  0  0  0  0  0  0  0  0
   61.5795   28.8094   47.8714 H   0  0  0  0  0  0  0  0  0  0  0  0
   61.6552   31.1853   48.7511 H   0  0  0  0  0  0  0  0  0  0  0  0
   61.4261   31.0410   46.9681 H   0  0  0  0  0  0  0  0  0  0  0  0
   57.3163   31.2691   51.7865 H   0  0  0  0  0  0  0  0  0  0  0  0
   57.4762   31.5407   54.2635 H   0  0  0  0  0  0  0  0  0  0  0  0
   58.9666   33.2880   55.2398 H   0  0  0  0  0  0  0  0  0  0  0  0
   60.2870   34.7894   53.7363 H   0  0  0  0  0  0  0  0  0  0  0  0
   60.1171   34.5377   51.2590 H   0  0  0  0  0  0  0  0  0  0  0  0
   58.5900   30.3960   46.0990 H   0  0  0  0  0  0  0  0  0  0  0  0
   57.2012   31.5633   42.8551 H   0  0  0  0  0  0  0  0  0  0  0  0
   58.4272   30.3066   43.3020 H   0  0  0  0  0  0  0  0  0  0  0  0
   56.2483   30.4954   45.2699 H   0  0  0  0  0  0  0  0  0  0  0  0
   55.6553   30.0979   43.6128 H   0  0  0  0  0  0  0  0  0  0  0  0
   58.0387   28.6310   42.5375 H   0  0  0  0  0  0  0  0  0  0  0  0
   58.7945   26.2666   42.7911 H   0  0  0  0  0  0  0  0  0  0  0  0
   58.1653   24.9630   44.8288 H   0  0  0  0  0  0  0  0  0  0  0  0
   56.7876   26.0283   46.6200 H   0  0  0  0  0  0  0  0  0  0  0  0
   56.0440   28.4006   46.3810 H   0  0  0  0  0  0  0  0  0  0  0  0
   57.9949   33.6747   43.4712 H   0  0  0  0  0  0  0  0  0  0  0  0
   59.7058   35.5615   47.2876 H   0  0  0  0  0  0  0  0  0  0  0  0
   59.1005   34.4270   48.5532 H   0  0  0  0  0  0  0  0  0  0  0  0
   61.7083   33.4729   46.0960 H   0  0  0  0  0  0  0  0  0  0  0  0
   64.0130   32.8133   46.7683 H   0  0  0  0  0  0  0  0  0  0  0  0
   65.5303   31.0614   49.5520 H   0  0  0  0  0  0  0  0  0  0  0  0
   66.1463   32.2083   50.8021 H   0  0  0  0  0  0  0  0  0  0  0  0
   64.7426   32.9932   52.6124 H   0  0  0  0  0  0  0  0  0  0  0  0
   62.7348   32.5549   54.0321 H   0  0  0  0  0  0  0  0  0  0  0  0
   60.9534   30.9945   53.2358 H   0  0  0  0  0  0  0  0  0  0  0  0
   63.1997   30.2728   49.6085 H   0  0  0  0  0  0  0  0  0  0  0  0
   63.2547   34.2528   50.7789 H   0  0  0  0  0  0  0  0  0  0  0  0
   60.9482   34.9106   50.1072 H   0  0  0  0  0  0  0  0  0  0  0  0
  1  2  2  0
  2  3  1  0
  2  4  1  0
  4  5  1  0
  5  6  1  0
  6  7  1  0
  7  8  2  0
  7  9  1  0
  9 10  1  0
 10 11  2  0
 11 12  1  0
 12 13  2  0
 13 14  1  0
 14 15  2  0
  6 16  1  0
 16 17  2  0
 17 18  1  0
 18 19  1  0
 19 20  1  0
 20 21  1  0
 21 22  2  0
 22 23  1  0
 23 24  2  0
 24 25  1  0
 25 26  2  0
 18 27  2  0
 27 28  1  0
 28 29  2  0
 28 30  1  0
 30 31  1  0
 31 32  1  0
 32 33  2  0
 33 34  1  0
 34 35  2  0
 35 36  1  0
 36 37  1  0
 37 38  1  0
 38 39  2  0
 39 40  1  0
 40 41  2  0
 41 42  1  0
 42 43  1  0
 42 44  2  0
 35 45  1  0
 45 46  2  0
 15 10  1  0
 30 16  1  0
 46 32  1  0
 26 21  1  0
 44 38  1  0
  4 47  1  0
  4 48  1  0
  5 49  1  0
  5 50  1  0
 11 51  1  0
 12 52  1  0
 13 53  1  0
 14 54  1  0
 15 55  1  0
 17 56  1  0
 19 57  1  0
 19 58  1  0
 20 59  1  0
 20 60  1  0
 22 61  1  0
 23 62  1  0
 24 63  1  0
 25 64  1  0
 26 65  1  0
 27 66  1  0
 31 67  1  0
 31 68  1  0
 33 69  1  0
 34 70  1  0
 37 71  1  0
 37 72  1  0
 39 73  1  0
 40 74  1  0
 41 75  1  0
 44 76  1  0
 45 77  1  0
 46 78  1  0
M  CHG  2   3  -1  17   1
M  END
>  <UniqueID>  (6) 
6

>  <SMILES>  (6) 
O=C([O-])CCN(C(=O)Oc1ccccc1)c1[nH+]c(CCc2ccccc2)cc(=O)n1Cc1ccc(OCc2cccc(F)c2)cc1

>  <Energy>  (6) 
90.91130596817918

>  <Genealogy>  (6) 
O=C([O-])CCN(C(=O)Oc1ccccc1)c1[nH+]c(CCc2ccccc2)cc(=O)n1Cc1ccc(OCc2cccc(F)c2)cc1 (protonated)
O=C([O-])CCN(C(=O)Oc1ccccc1)c1[nH+]c(CCc2ccccc2)cc(=O)n1Cc1ccc(OCc2cccc(F)c2)cc1 (3D coordinates assigned)
O=C([O-])CCN(C(=O)Oc1ccccc1)c1[nH+]c(CCc2ccccc2)cc(=O)n1Cc1ccc(OCc2cccc(F)c2)cc1 (optimized conformer: 90.91130596817918 kcal/mol)

>  <smiles>  (6) 
O=C(O)CCN(C(=O)Oc1ccccc1)c1nc(CCc2ccccc2)cc(=O)n1Cc1ccc(OCc2cccc(F)c2)cc1

>  <score_type>  (6) 
oracle

>  <origin>  (6) 
adg

>  <m_score__min__energy>  (6) 
-11.23

>  <m_primary>  (6) 
energy

$$$$
6:0
     RDKit          3D

 58 60  0  0  0  0  0  0  0  0999 V2000
   58.4330   33.7740   52.5430 C   0  0  0  0  0  0  0  0  0  0  0  0
   59.2750   34.2080   51.4770 O   0  0  0  0  0  0  0  0  0  0  0  0
   59.9130   33.3470   50.5700 C   0  0  0  0  0  0  0  0  0  0  0  0
   61.0970   33.7010   49.8970 C   0  0  0  0  0  0  0  0  0  0  0  0
   61.7020   32.8140   49.0020 C   0  0  0  0  0  0  0  0  0  0  0  0
   62.8790   33.2220   48.3580 O   0  0  0  0  0  0  0  0  0  0  0  0
   63.3230   32.7200   47.1030 C   0  0  0  0  0  0  0  0  0  0  0  0
   61.1150   31.5560   48.7730 C   0  0  0  0  0  0  0  0  0  0  0  0
   59.9160   31.2000   49.4130 C   0  0  0  0  0  0  0  0  0  0  0  0
   59.2840   29.8830   49.1580 C   0  0  0  0  0  0  0  0  0  0  0  0
   58.5120   29.3930   50.0250 O   0  0  0  0  0  0  0  0  0  0  0  0
   59.5260   29.1540   47.9390 N   0  0  0  0  0  0  0  0  0  0  0  0
   59.3120   29.8190   46.6430 C   0  0  0  0  0  0  0  0  0  0  0  0
   59.7070   28.9090   45.4680 C   0  0  0  0  0  0  0  0  0  0  0  0
   59.0520   27.4990   45.5370 C   0  0  0  0  0  0  0  0  0  0  0  0
   57.8070   27.3690   44.6330 C   0  0  0  0  0  0  0  0  0  0  0  0
   57.5750   28.5830   43.8560 N   0  0  0  0  0  0  0  0  0  0  0  0
   56.9690   29.7670   44.3830 C   0  0  0  0  0  0  0  0  0  0  0  0
   55.8040   29.7210   44.8650 O   0  0  0  0  0  0  0  0  0  0  0  0
   57.6810   31.0070   44.3360 N   0  0  0  0  0  0  0  0  0  0  0  0
   57.0150   32.2950   44.5190 C   0  0  0  0  0  0  0  0  0  0  0  0
   57.8690   33.1990   45.3690 C   0  0  0  0  0  0  0  0  0  0  0  0
   58.7380   34.1280   44.7730 C   0  0  0  0  0  0  0  0  0  0  0  0
   59.5580   34.9370   45.5680 C   0  0  0  0  0  0  0  0  0  0  0  0
   59.5150   34.8250   46.9610 C   0  0  0  0  0  0  0  0  0  0  0  0
   58.6580   33.8980   47.5610 C   0  0  0  0  0  0  0  0  0  0  0  0
   57.8450   33.0800   46.7690 C   0  0  0  0  0  0  0  0  0  0  0  0
   58.7480   27.0400   46.9840 C   0  0  0  0  0  0  0  0  0  0  0  0
   59.6950   27.6950   47.9880 C   0  0  0  0  0  0  0  0  0  0  0  0
   59.3360   32.0960   50.3280 C   0  0  0  0  0  0  0  0  0  0  0  0
   58.9056   34.0176   53.5060 H   0  0  0  0  0  0  0  0  0  0  0  0
   57.4605   34.2832   52.4726 H   0  0  0  0  0  0  0  0  0  0  0  0
   58.2835   32.6865   52.4726 H   0  0  0  0  0  0  0  0  0  0  0  0
   61.5514   34.6864   50.0772 H   0  0  0  0  0  0  0  0  0  0  0  0
   64.0435   31.9054   47.2681 H   0  0  0  0  0  0  0  0  0  0  0  0
   62.4616   32.3382   46.5353 H   0  0  0  0  0  0  0  0  0  0  0  0
   63.8071   33.5283   46.5353 H   0  0  0  0  0  0  0  0  0  0  0  0
   61.5989   30.8452   48.0871 H   0  0  0  0  0  0  0  0  0  0  0  0
   58.2483   30.0827   46.5484 H   0  0  0  0  0  0  0  0  0  0  0  0
   59.9442   30.7186   46.6092 H   0  0  0  0  0  0  0  0  0  0  0  0
   59.3958   29.3935   44.5307 H   0  0  0  0  0  0  0  0  0  0  0  0
   60.7965   28.7659   45.5175 H   0  0  0  0  0  0  0  0  0  0  0  0
   59.8129   26.8119   45.1383 H   0  0  0  0  0  0  0  0  0  0  0  0
   57.9547   26.5261   43.9418 H   0  0  0  0  0  0  0  0  0  0  0  0
   56.9313   27.2015   45.2773 H   0  0  0  0  0  0  0  0  0  0  0  0
   58.6930   30.9980   44.0750 H   0  0  0  0  0  0  0  0  0  0  0  0
   56.8526   32.7641   43.5374 H   0  0  0  0  0  0  0  0  0  0  0  0
   56.0487   32.1346   45.0196 H   0  0  0  0  0  0  0  0  0  0  0  0
   58.7741   34.2200   43.6774 H   0  0  0  0  0  0  0  0  0  0  0  0
   60.2374   35.6621   45.0961 H   0  0  0  0  0  0  0  0  0  0  0  0
   60.1554   35.4662   47.5845 H   0  0  0  0  0  0  0  0  0  0  0  0
   58.6228   33.8115   48.6570 H   0  0  0  0  0  0  0  0  0  0  0  0
   57.1840   32.3403   47.2443 H   0  0  0  0  0  0  0  0  0  0  0  0
   57.7132   27.3147   47.2365 H   0  0  0  0  0  0  0  0  0  0  0  0
   58.8871   25.9502   47.0375 H   0  0  0  0  0  0  0  0  0  0  0  0
   59.4640   27.3327   49.0006 H   0  0  0  0  0  0  0  0  0  0  0  0
   60.7340   27.4370   47.7351 H   0  0  0  0  0  0  0  0  0  0  0  0
   58.4169   31.8097   50.8603 H   0  0  0  0  0  0  0  0  0  0  0  0
  1  2  1  0
  2  3  1  0
  3  4  2  0
  4  5  1  0
  5  6  1  0
  6  7  1  0
  5  8  2  0
  8  9  1  0
  9 10  1  0
 10 11  2  0
 10 12  1  0
 12 13  1  0
 13 14  1  0
 14 15  1  0
 15 16  1  0
 16 17  1  0
 17 18  1  0
 18 19  2  0
 18 20  1  0
 20 21  1  0
 21 22  1  0
 22 23  2  0
 23 24  1  0
 24 25  2  0
 25 26  1  0
 26 27  2  0
 15 28  1  0
 28 29  1  0
  9 30  2  0
 30  3  1  0
 29 12  1  0
 27 22  1  0
  1 31  1  0
  1 32  1  0
  1 33  1  0
  4 34  1  0
  7 35  1  0
  7 36  1  0
  7 37  1  0
  8 38  1  0
 13 39  1  0
 13 40  1  0
 14 41  1  0
 14 42  1  0
 15 43  1  0
 16 44  1  0
 16 45  1  0
 20 46  1  0
 21 47  1  0
 21 48  1  0
 23 49  1  0
 24 50  1  0
 25 51  1  0
 26 52  1  0
 27 53  1  0
 28 54  1  0
 28 55  1  0
 29 56  1  0
 29 57  1  0
 30 58  1  0
M  CHG  1  17  -1
M  END
>  <UniqueID>  (7) 
7

>  <SMILES>  (7) 
COc1cc(OC)cc(C(=O)N2CCC(C[N-]C(=O)NCc3ccccc3)CC2)c1

>  <Energy>  (7) 
55.693487309533644

>  <Genealogy>  (7) 
COc1cc(OC)cc(C(=O)N2CCC(C[N-]C(=O)NCc3ccccc3)CC2)c1 (protonated)
COc1cc(OC)cc(C(=O)N2CCC(C[N-]C(=O)NCc3ccccc3)CC2)c1 (3D coordinates assigned)
COc1cc(OC)cc(C(=O)N2CCC(C[N-]C(=O)NCc3ccccc3)CC2)c1 (nonaromatic ring conformer: 55.693487309533644 kcal/mol)

>  <smiles>  (7) 
COc1cc(OC)cc(C(=O)N2CCC(CNC(=O)NCc3ccccc3)CC2)c1

>  <score_type>  (7) 
oracle

>  <origin>  (7) 
adg

>  <m_score__min__energy>  (7) 
-10.74

>  <m_primary>  (7) 
energy

$$$$
7:0
     RDKit          3D

 49 50  0  0  0  0  0  0  0  0999 V2000
   57.6830   27.3550   45.0160 C   0  0  0  0  0  0  0  0  0  0  0  0
   56.3410   27.8350   45.4550 C   0  0  0  0  0  0  0  0  0  0  0  0
   55.5170   27.0210   45.9530 O   0  0  0  0  0  0  0  0  0  0  0  0
   55.9780   29.2060   45.2550 N   0  0  0  0  0  0  0  0  0  0  0  0
   55.5500   29.7460   43.9690 C   0  0  0  0  0  0  0  0  0  0  0  0
   56.6650   30.5890   43.3440 C   0  0  0  0  0  0  0  0  0  0  0  0
   57.5760   31.1350   44.4120 C   0  0  0  0  0  0  0  0  0  0  0  0
   58.6430   30.3610   44.8950 C   0  0  0  0  0  0  0  0  0  0  0  0
   59.5110   30.8810   45.8590 C   0  0  0  0  0  0  0  0  0  0  0  0
   59.3250   32.1820   46.3480 C   0  0  0  0  0  0  0  0  0  0  0  0
   60.4000   32.8460   47.5730 S   0  0  0  0  0  0  0  0  0  0  0  0
   61.0800   31.7090   48.2800 O   0  0  0  0  0  0  0  0  0  0  0  0
   59.6340   33.6500   48.5860 O   0  0  0  0  0  0  0  0  0  0  0  0
   61.6020   33.8470   46.8250 N   0  0  0  0  0  0  0  0  0  0  0  0
   63.0000   33.5440   46.7140 C   0  0  0  0  0  0  0  0  0  0  0  0
   63.6830   34.1740   45.8630 O   0  0  0  0  0  0  0  0  0  0  0  0
   63.6430   32.5590   47.5500 N   0  0  0  0  0  0  0  0  0  0  0  0
   64.1290   33.1490   48.8160 C   0  0  0  0  0  0  0  0  0  0  0  0
   63.0240   34.0390   49.4490 C   0  0  0  0  0  0  0  0  0  0  0  0
   63.1500   34.1970   50.9780 C   0  0  0  0  0  0  0  0  0  0  0  0
   64.6010   34.0610   51.4440 C   0  0  0  0  0  0  0  0  0  0  0  0
   65.1770   32.6740   51.1010 C   0  0  0  0  0  0  0  0  0  0  0  0
   64.5780   32.0600   49.8170 C   0  0  0  0  0  0  0  0  0  0  0  0
   58.2670   32.9580   45.8610 C   0  0  0  0  0  0  0  0  0  0  0  0
   57.4010   32.4420   44.8930 C   0  0  0  0  0  0  0  0  0  0  0  0
   58.3004   27.1342   45.8992 H   0  0  0  0  0  0  0  0  0  0  0  0
   57.5667   26.4427   44.4125 H   0  0  0  0  0  0  0  0  0  0  0  0
   58.1717   28.1341   44.4125 H   0  0  0  0  0  0  0  0  0  0  0  0
   55.3014   28.9153   43.2921 H   0  0  0  0  0  0  0  0  0  0  0  0
   54.6675   30.3835   44.1266 H   0  0  0  0  0  0  0  0  0  0  0  0
   57.2500   29.9619   42.6552 H   0  0  0  0  0  0  0  0  0  0  0  0
   56.2118   31.4302   42.7991 H   0  0  0  0  0  0  0  0  0  0  0  0
   58.7965   29.3409   44.5131 H   0  0  0  0  0  0  0  0  0  0  0  0
   60.3429   30.2676   46.2354 H   0  0  0  0  0  0  0  0  0  0  0  0
   62.9320   31.8220   47.7640 H   0  0  0  0  0  0  0  0  0  0  0  0
   64.4360   32.0950   47.0580 H   0  0  0  0  0  0  0  0  0  0  0  0
   65.0064   33.7702   48.5831 H   0  0  0  0  0  0  0  0  0  0  0  0
   63.0793   35.0379   48.9917 H   0  0  0  0  0  0  0  0  0  0  0  0
   62.0626   33.5400   49.2572 H   0  0  0  0  0  0  0  0  0  0  0  0
   62.7749   35.1902   51.2657 H   0  0  0  0  0  0  0  0  0  0  0  0
   62.5609   33.3995   51.4545 H   0  0  0  0  0  0  0  0  0  0  0  0
   65.2090   34.8327   50.9493 H   0  0  0  0  0  0  0  0  0  0  0  0
   64.6253   34.1839   52.5368 H   0  0  0  0  0  0  0  0  0  0  0  0
   66.2643   32.7720   50.9659 H   0  0  0  0  0  0  0  0  0  0  0  0
   64.9195   32.0015   51.9325 H   0  0  0  0  0  0  0  0  0  0  0  0
   65.3384   31.4266   49.3368 H   0  0  0  0  0  0  0  0  0  0  0  0
   63.6938   31.4700   50.1001 H   0  0  0  0  0  0  0  0  0  0  0  0
   58.1163   33.9789   46.2419 H   0  0  0  0  0  0  0  0  0  0  0  0
   56.5791   33.0625   44.5066 H   0  0  0  0  0  0  0  0  0  0  0  0
  1  2  1  0
  2  3  2  0
  2  4  1  0
  4  5  1  0
  5  6  1  0
  6  7  1  0
  7  8  2  0
  8  9  1  0
  9 10  2  0
 10 11  1  0
 11 12  2  0
 11 13  2  0
 11 14  1  0
 14 15  1  0
 15 16  2  0
 15 17  1  0
 17 18  1  0
 18 19  1  0
 19 20  1  0
 20 21  1  0
 21 22  1  0
 22 23  1  0
 10 24  1  0
 24 25  2  0
 25  7  1  0
 23 18  1  0
  1 26  1  0
  1 27  1  0
  1 28  1  0
  5 29  1  0
  5 30  1  0
  6 31  1  0
  6 32  1  0
  8 33  1  0
  9 34  1  0
 17 35  1  0
 17 36  1  0
 18 37  1  0
 19 38  1  0
 19 39  1  0
 20 40  1  0
 20 41  1  0
 21 42  1  0
 21 43  1  0
 22 44  1  0
 22 45  1  0
 23 46  1  0
 23 47  1  0
 24 48  1  0
 25 49  1  0
M  CHG  3   4  -1  14  -1  17   1
M  END
>  <UniqueID>  (8) 
8

>  <SMILES>  (8) 
CC(=O)[N-]CCc1ccc(S(=O)(=O)[N-]C(=O)[NH2+]C2CCCCC2)cc1

>  <Energy>  (8) 
47.32917445387997

>  <Genealogy>  (8) 
CC(=O)[N-]CCc1ccc(S(=O)(=O)[N-]C(=O)[NH2+]C2CCCCC2)cc1 (protonated)
CC(=O)[N-]CCc1ccc(S(=O)(=O)[N-]C(=O)[NH2+]C2CCCCC2)cc1 (3D coordinates assigned)
CC(=O)[N-]CCc1ccc(S(=O)(=O)[N-]C(=O)[NH2+]C2CCCCC2)cc1 (nonaromatic ring conformer: 47.32917445387997 kcal/mol)

>  <smiles>  (8) 
CC(=O)NCCc1ccc(S(=O)(=O)NC(=O)NC2CCCCC2)cc1

>  <score_type>  (8) 
oracle

>  <origin>  (8) 
adg

>  <m_score__min__energy>  (8) 
-9.7100000000000009

>  <m_primary>  (8) 
energy

$$$$
8:0
     RDKit          3D

 30 31  0  0  0  0  0  0  0  0999 V2000
   59.9840   21.8430   45.0180 N   0  0  0  0  0  0  0  0  0  0  0  0
   58.6960   22.4370   44.8660 C   0  0  0  0  0  0  0  0  0  0  0  0
   57.8740   22.1110   43.8000 C   0  0  0  0  0  0  0  0  0  0  0  0
   56.6240   22.7140   43.6860 C   0  0  0  0  0  0  0  0  0  0  0  0
   55.8760   22.4150   42.7140 O   0  0  0  0  0  0  0  0  0  0  0  0
   56.2850   23.5870   44.6290 N   0  0  0  0  0  0  0  0  0  0  0  0
   57.0640   23.9220   45.6740 C   0  0  0  0  0  0  0  0  0  0  0  0
   56.6710   24.8940   46.7130 C   0  0  0  0  0  0  0  0  0  0  0  0
   57.2100   26.2410   46.4760 C   0  0  0  0  0  0  0  0  0  0  0  0
   57.9240   26.8530   47.3250 O   0  0  0  0  0  0  0  0  0  0  0  0
   56.9180   26.8770   45.2460 N   0  0  0  0  0  0  0  0  0  0  0  0
   57.4280   28.1880   44.9840 C   0  0  0  0  0  0  0  0  0  0  0  0
   58.7850   28.4280   44.9370 C   0  0  0  0  0  0  0  0  0  0  0  0
   59.2600   29.6940   44.6850 C   0  0  0  0  0  0  0  0  0  0  0  0
   58.3470   30.7270   44.4770 C   0  0  0  0  0  0  0  0  0  0  0  0
   58.8050   31.9950   44.2230 F   0  0  0  0  0  0  0  0  0  0  0  0
   56.9850   30.5100   44.5190 C   0  0  0  0  0  0  0  0  0  0  0  0
   56.5100   29.2200   44.7770 C   0  0  0  0  0  0  0  0  0  0  0  0
   55.1660   28.9680   44.8270 F   0  0  0  0  0  0  0  0  0  0  0  0
   58.2840   23.3300   45.7800 N   0  0  0  0  0  0  0  0  0  0  0  0
   60.8750   22.3740   44.8850 H   0  0  0  0  0  0  0  0  0  0  0  0
   59.9970   20.8190   45.2770 H   0  0  0  0  0  0  0  0  0  0  0  0
   58.2065   21.3803   43.0481 H   0  0  0  0  0  0  0  0  0  0  0  0
   55.5730   24.9556   46.7374 H   0  0  0  0  0  0  0  0  0  0  0  0
   57.0849   24.5385   47.6681 H   0  0  0  0  0  0  0  0  0  0  0  0
   56.3330   26.4080   44.5160 H   0  0  0  0  0  0  0  0  0  0  0  0
   59.4922   27.6018   45.1021 H   0  0  0  0  0  0  0  0  0  0  0  0
   60.3421   29.8882   44.6482 H   0  0  0  0  0  0  0  0  0  0  0  0
   56.2826   31.3399   44.3519 H   0  0  0  0  0  0  0  0  0  0  0  0
   58.9280   23.5530   46.5690 H   0  0  0  0  0  0  0  0  0  0  0  0
  1  2  1  0
  2  3  2  0
  3  4  1  0
  4  5  2  0
  4  6  1  0
  6  7  2  0
  7  8  1  0
  8  9  1  0
  9 10  2  0
  9 11  1  0
 11 12  1  0
 12 13  2  0
 13 14  1  0
 14 15  2  0
 15 16  1  0
 15 17  1  0
 17 18  2  0
 18 19  1  0
  7 20  1  0
 20  2  1  0
 18 12  1  0
  1 21  1  0
  1 22  1  0
  3 23  1  0
  8 24  1  0
  8 25  1  0
 11 26  1  0
 13 27  1  0
 14 28  1  0
 17 29  1  0
 20 30  1  0
M  END
>  <smiles>  (9) 
Nc1cc(=O)nc(CC(=O)Nc2ccc(F)cc2F)[nH]1

>  <score_type>  (9) 
oracle

>  <origin>  (9) 
adg

>  <m_score__min__energy>  (9) 
-6.4900000000000002

>  <m_primary>  (9) 
energy

$$$$
9:0
     RDKit          3D

 69 74  0  0  0  0  0  0  0  0999 V2000
   50.9500   22.9380   48.4800 H   0  0  0  0  0  0  0  0  0  0  0  0
   50.5860   23.0310   49.4210 O   0  0  0  0  0  0  0  0  0  0  0  0
   51.3750   23.4740   50.4830 C   0  0  0  0  0  0  0  0  0  0  0  0
   56.8160   26.3900   45.8040 C   0  0  0  0  0  0  0  0  0  0  0  0
   56.7506   27.4299   45.4513 H   0  0  0  0  0  0  0  0  0  0  0  0
   58.0730   25.7770   45.9240 C   0  0  0  0  0  0  0  0  0  0  0  0
   59.2780   26.5790   45.6080 C   0  0  0  0  0  0  0  0  0  0  0  0
   59.9488   26.2079   44.8191 H   0  0  0  0  0  0  0  0  0  0  0  0
   52.0430   27.4640   53.0190 N   0  0  0  0  0  0  0  0  0  0  0  0
   51.6610   28.8080   52.6870 C   0  0  0  0  0  0  0  0  0  0  0  0
   52.1870   29.3910   51.5270 C   0  0  0  0  0  0  0  0  0  0  0  0
   52.8708   28.8140   50.8871 H   0  0  0  0  0  0  0  0  0  0  0  0
   51.8480   30.7030   51.1770 C   0  0  0  0  0  0  0  0  0  0  0  0
   52.2467   31.1458   50.2523 H   0  0  0  0  0  0  0  0  0  0  0  0
   51.0040   31.4500   52.0010 C   0  0  0  0  0  0  0  0  0  0  0  0
   50.6610   32.7490   51.6440 O   0  0  0  0  0  0  0  0  0  0  0  0
   50.5060   30.8910   53.1820 C   0  0  0  0  0  0  0  0  0  0  0  0
   49.8487   31.4831   53.8357 H   0  0  0  0  0  0  0  0  0  0  0  0
   50.8430   29.5790   53.5330 C   0  0  0  0  0  0  0  0  0  0  0  0
   50.4672   29.1492   54.4732 H   0  0  0  0  0  0  0  0  0  0  0  0
   58.1410   24.4460   46.3850 C   0  0  0  0  0  0  0  0  0  0  0  0
   59.1179   23.9500   46.4825 H   0  0  0  0  0  0  0  0  0  0  0  0
   53.2900   23.2490   51.9620 C   0  0  0  0  0  0  0  0  0  0  0  0
   54.1972   22.7116   52.2754 H   0  0  0  0  0  0  0  0  0  0  0  0
   52.5160   22.7560   50.8920 C   0  0  0  0  0  0  0  0  0  0  0  0
   52.8210   21.5530   50.2330 O   0  0  0  0  0  0  0  0  0  0  0  0
   52.5500   21.2560   48.8650 C   0  0  0  0  0  0  0  0  0  0  0  0
   51.4620   21.2034   48.7117 H   0  0  0  0  0  0  0  0  0  0  0  0
   53.0088   20.2904   48.6060 H   0  0  0  0  0  0  0  0  0  0  0  0
   53.1230   22.3240   47.9900 C   0  0  0  0  0  0  0  0  0  0  0  0
   52.4990   22.8790   46.9330 N   0  0  0  0  0  0  0  0  0  0  0  0
   53.3800   23.6860   46.3560 N   0  0  0  0  0  0  0  0  0  0  0  0
   54.5350   23.6580   47.0090 N   0  0  0  0  0  0  0  0  0  0  0  0
   55.7170   24.3730   46.6100 C   0  0  0  0  0  0  0  0  0  0  0  0
   56.9720   23.7530   46.7190 C   0  0  0  0  0  0  0  0  0  0  0  0
   57.0370   22.7126   47.0703 H   0  0  0  0  0  0  0  0  0  0  0  0
   52.9090   24.4180   52.6260 C   0  0  0  0  0  0  0  0  0  0  0  0
   53.4942   24.7711   53.4879 H   0  0  0  0  0  0  0  0  0  0  0  0
   51.7850   25.1460   52.2020 C   0  0  0  0  0  0  0  0  0  0  0  0
   59.6060   27.7270   46.2190 C   0  0  0  0  0  0  0  0  0  0  0  0
   60.3846   27.7226   46.9960 H   0  0  0  0  0  0  0  0  0  0  0  0
   51.3400   26.3730   52.9020 C   0  0  0  0  0  0  0  0  0  0  0  0
   50.3391   26.3626   53.3582 H   0  0  0  0  0  0  0  0  0  0  0  0
   58.9370   29.0020   45.8650 C   0  0  0  0  0  0  0  0  0  0  0  0
   58.3420   29.0700   44.6020 C   0  0  0  0  0  0  0  0  0  0  0  0
   58.2885   28.1702   43.9715 H   0  0  0  0  0  0  0  0  0  0  0  0
   57.8190   30.2690   44.1420 C   0  0  0  0  0  0  0  0  0  0  0  0
   57.3241   30.3144   43.1607 H   0  0  0  0  0  0  0  0  0  0  0  0
   57.9220   31.4160   44.9260 C   0  0  0  0  0  0  0  0  0  0  0  0
   57.4680   32.6480   44.4310 C   0  0  0  0  0  0  0  0  0  0  0  0
   57.0069   32.7024   43.4338 H   0  0  0  0  0  0  0  0  0  0  0  0
   57.6000   33.8030   45.2000 C   0  0  0  0  0  0  0  0  0  0  0  0
   57.2406   34.7664   44.8093 H   0  0  0  0  0  0  0  0  0  0  0  0
   58.1860   33.7400   46.4620 C   0  0  0  0  0  0  0  0  0  0  0  0
   58.2966   34.6568   47.0598 H   0  0  0  0  0  0  0  0  0  0  0  0
   58.6340   32.5200   46.9730 C   0  0  0  0  0  0  0  0  0  0  0  0
   59.0971   32.4844   47.9701 H   0  0  0  0  0  0  0  0  0  0  0  0
   58.4980   31.3280   46.2200 C   0  0  0  0  0  0  0  0  0  0  0  0
   58.9220   30.1030   46.7020 N   0  0  0  0  0  0  0  0  0  0  0  0
   59.3110   29.9620   48.1200 C   0  0  0  0  0  0  0  0  0  0  0  0
   58.4716   30.2663   48.7625 H   0  0  0  0  0  0  0  0  0  0  0  0
   59.5695   28.9130   48.3267 H   0  0  0  0  0  0  0  0  0  0  0  0
   60.1816   30.6018   48.3267 H   0  0  0  0  0  0  0  0  0  0  0  0
   51.0160   24.6570   51.1390 C   0  0  0  0  0  0  0  0  0  0  0  0
   50.1205   25.2083   50.8162 H   0  0  0  0  0  0  0  0  0  0  0  0
   55.6460   25.6960   46.1270 C   0  0  0  0  0  0  0  0  0  0  0  0
   54.4200   26.3250   45.9440 O   0  0  0  0  0  0  0  0  0  0  0  0
   54.4170   22.7950   48.0330 C   0  0  0  0  0  0  0  0  0  0  0  0
   55.1965   22.5203   48.7589 H   0  0  0  0  0  0  0  0  0  0  0  0
  1  2  1  0
  2  3  1  0
  3  4  2  0
  4  5  1  0
  4  6  1  0
  6  7  1  0
  7  8  1  0
  7  9  2  0
  9 10  1  0
 10 11  2  0
 11 12  1  0
 11 13  1  0
 13 14  1  0
 13 15  2  0
 15 16  1  0
 15 17  1  0
 17 18  1  0
 17 19  2  0
 19 20  1  0
  6 21  2  0
 21 22  1  0
 21 23  1  0
 23 24  1  0
 23 25  2  0
 25 26  1  0
 26 27  1  0
 27 28  1  0
 27 29  1  0
 27 30  1  0
 30 31  1  0
 31 32  2  0
 32 33  1  0
 33 34  1  0
 34 35  2  0
 35 36  1  0
 35 37  1  0
 37 38  1  0
 37 39  2  0
 39 40  1  0
 40 41  1  0
 40 42  2  0
 42 43  1  0
 42 44  1  0
 44 45  2  0
 45 46  1  0
 45 47  1  0
 47 48  1  0
 47 49  2  0
 49 50  1  0
 50 51  1  0
 50 52  2  0
 52 53  1  0
 52 54  1  0
 54 55  1  0
 54 56  2  0
 56 57  1  0
 56 58  1  0
 58 59  2  0
 59 60  1  0
 60 61  1  0
 60 62  1  0
 60 63  1  0
 39 64  1  0
 64 65  1  0
 64 66  2  0
 66 67  1  0
 33 68  1  0
 68 69  1  0
 25  3  1  0
 68 30  2  0
 19 10  1  0
 66 34  1  0
 59 44  1  0
 58 49  1  0
M  CHG  3  16  -1  59   1  67  -1
M  END
>  <UniqueID>  (10) 
9

>  <SMILES>  (10) 
C[n+]1c(/C=C/c2ccc(-n3cc(COc4ccc(/C=N\c5ccc([O-])cc5)cc4O)nn3)c([O-])c2)ccc2ccccc21

>  <Energy>  (10) 
148.8127787898273

>  <Genealogy>  (10) 
C[n+]1c(C=Cc2ccc(-n3cc(COc4ccc(C=Nc5ccc([O-])cc5)cc4O)nn3)c([O-])c2)ccc2ccccc21 (protonated)
C[n+]1c(/C=C/c2ccc(-n3cc(COc4ccc(/C=N\c5ccc([O-])cc5)cc4O)nn3)c([O-])c2)ccc2ccccc21 (cis-trans isomerization)
C[n+]1c(/C=C/c2ccc(-n3cc(COc4ccc(/C=N\c5ccc([O-])cc5)cc4O)nn3)c([O-])c2)ccc2ccccc21 (3D coordinates assigned)
C[n+]1c(/C=C/c2ccc(-n3cc(COc4ccc(/C=N\c5ccc([O-])cc5)cc4O)nn3)c([O-])c2)ccc2ccccc21 (optimized conformer: 148.8127787898273 kcal/mol)

>  <smiles>  (10) 
C[n+]1c(C=Cc2ccc(-n3cc(COc4ccc(C=Nc5ccc(O)cc5)cc4O)nn3)c(O)c2)ccc2ccccc21

>  <score_type>  (10) 
oracle

>  <origin>  (10) 
adg

>  <m_score__min__energy>  (10) 
-16.489999999999998

>  <m_primary>  (10) 
energy

$$$$
10:0
     RDKit          3D

 48 50  0  0  0  0  0  0  0  0999 V2000
   58.5990   32.2680   49.3200 C   0  0  0  0  0  0  0  0  0  0  0  0
   59.5200   33.3210   49.9300 C   0  0  0  0  0  0  0  0  0  0  0  0
   59.7030   34.5500   49.0250 C   0  0  0  0  0  0  0  0  0  0  0  0
   60.3660   34.2050   47.7590 N   0  0  0  0  0  0  0  0  0  0  0  0
   59.6430   34.3730   46.5240 C   0  0  0  0  0  0  0  0  0  0  0  0
   59.5960   35.5110   45.9850 O   0  0  0  0  0  0  0  0  0  0  0  0
   58.9200   33.2410   45.8960 C   0  0  0  0  0  0  0  0  0  0  0  0
   57.7210   33.4670   45.1970 C   0  0  0  0  0  0  0  0  0  0  0  0
   57.0210   32.3990   44.6300 C   0  0  0  0  0  0  0  0  0  0  0  0
   57.5010   31.0900   44.7610 C   0  0  0  0  0  0  0  0  0  0  0  0
   56.5490   29.7480   44.1320 S   0  0  0  0  0  0  0  0  0  0  0  0
   55.2410   29.6960   44.8700 O   0  0  0  0  0  0  0  0  0  0  0  0
   56.2630   29.9510   42.6690 O   0  0  0  0  0  0  0  0  0  0  0  0
   57.3930   28.2430   44.3600 N   0  0  0  0  0  0  0  0  0  0  0  0
   57.1010   27.6650   45.6740 C   0  0  0  0  0  0  0  0  0  0  0  0
   58.3400   27.6090   46.5150 C   0  0  0  0  0  0  0  0  0  0  0  0
   59.4220   26.7610   46.3150 C   0  0  0  0  0  0  0  0  0  0  0  0
   60.4450   26.9430   47.2530 C   0  0  0  0  0  0  0  0  0  0  0  0
   60.1650   27.9190   48.2000 C   0  0  0  0  0  0  0  0  0  0  0  0
   58.6440   28.5590   47.8700 S   0  0  0  0  0  0  0  0  0  0  0  0
   58.6970   30.8580   45.4520 C   0  0  0  0  0  0  0  0  0  0  0  0
   59.4000   31.9250   46.0200 C   0  0  0  0  0  0  0  0  0  0  0  0
   61.7370   33.7610   47.7510 C   0  0  0  0  0  0  0  0  0  0  0  0
   62.3750   33.2980   48.8500 N   0  0  0  0  0  0  0  0  0  0  0  0
   63.6720   32.9840   48.5860 C   0  0  0  0  0  0  0  0  0  0  0  0
   64.5710   32.4110   49.6320 C   0  0  0  0  0  0  0  0  0  0  0  0
   64.0760   33.1840   47.2690 C   0  0  0  0  0  0  0  0  0  0  0  0
   62.7650   33.7970   46.4150 S   0  0  0  0  0  0  0  0  0  0  0  0
   58.1048   31.7030   50.1241 H   0  0  0  0  0  0  0  0  0  0  0  0
   57.8381   32.7623   48.6981 H   0  0  0  0  0  0  0  0  0  0  0  0
   59.1902   31.5797   48.6981 H   0  0  0  0  0  0  0  0  0  0  0  0
   59.0908   33.6507   50.8876 H   0  0  0  0  0  0  0  0  0  0  0  0
   60.5090   32.8582   50.0633 H   0  0  0  0  0  0  0  0  0  0  0  0
   58.7145   34.9788   48.8034 H   0  0  0  0  0  0  0  0  0  0  0  0
   60.3389   35.2731   49.5567 H   0  0  0  0  0  0  0  0  0  0  0  0
   57.3318   34.4909   45.0960 H   0  0  0  0  0  0  0  0  0  0  0  0
   56.0883   32.5873   44.0780 H   0  0  0  0  0  0  0  0  0  0  0  0
   56.3475   28.2850   46.1819 H   0  0  0  0  0  0  0  0  0  0  0  0
   56.7219   26.6419   45.5341 H   0  0  0  0  0  0  0  0  0  0  0  0
   59.4700   26.0215   45.5020 H   0  0  0  0  0  0  0  0  0  0  0  0
   61.3822   26.3672   47.2410 H   0  0  0  0  0  0  0  0  0  0  0  0
   60.8253   28.2224   49.0258 H   0  0  0  0  0  0  0  0  0  0  0  0
   59.0846   29.8330   45.5482 H   0  0  0  0  0  0  0  0  0  0  0  0
   60.3347   31.7337   46.5675 H   0  0  0  0  0  0  0  0  0  0  0  0
   64.1792   32.6607   50.6291 H   0  0  0  0  0  0  0  0  0  0  0  0
   64.6152   31.3177   49.5187 H   0  0  0  0  0  0  0  0  0  0  0  0
   65.5807   32.8325   49.5187 H   0  0  0  0  0  0  0  0  0  0  0  0
   65.0760   32.9774   46.8599 H   0  0  0  0  0  0  0  0  0  0  0  0
  1  2  1  0
  2  3  1  0
  3  4  1  0
  4  5  1  0
  5  6  2  0
  5  7  1  0
  7  8  2  0
  8  9  1  0
  9 10  2  0
 10 11  1  0
 11 12  2  0
 11 13  2  0
 11 14  1  0
 14 15  1  0
 15 16  1  0
 16 17  2  0
 17 18  1  0
 18 19  2  0
 19 20  1  0
 10 21  1  0
 21 22  2  0
  4 23  1  0
 23 24  2  0
 24 25  1  0
 25 26  1  0
 25 27  2  0
 27 28  1  0
 22  7  1  0
 28 23  1  0
 20 16  1  0
  1 29  1  0
  1 30  1  0
  1 31  1  0
  2 32  1  0
  2 33  1  0
  3 34  1  0
  3 35  1  0
  8 36  1  0
  9 37  1  0
 15 38  1  0
 15 39  1  0
 17 40  1  0
 18 41  1  0
 19 42  1  0
 21 43  1  0
 22 44  1  0
 26 45  1  0
 26 46  1  0
 26 47  1  0
 27 48  1  0
M  CHG  1  14  -1
M  END
>  <UniqueID>  (11) 
10

>  <SMILES>  (11) 
CCCN(C(=O)c1ccc(S(=O)(=O)[N-]Cc2cccs2)cc1)c1nc(C)cs1

>  <Energy>  (11) 
100.51168299874625

>  <Genealogy>  (11) 
CCCN(C(=O)c1ccc(S(=O)(=O)[N-]Cc2cccs2)cc1)c1nc(C)cs1 (protonated)
CCCN(C(=O)c1ccc(S(=O)(=O)[N-]Cc2cccs2)cc1)c1nc(C)cs1 (3D coordinates assigned)
CCCN(C(=O)c1ccc(S(=O)(=O)[N-]Cc2cccs2)cc1)c1nc(C)cs1 (optimized conformer: 100.51168299874625 kcal/mol)

>  <smiles>  (11) 
CCCN(C(=O)c1ccc(S(=O)(=O)NCc2cccs2)cc1)c1nc(C)cs1

>  <score_type>  (11) 
oracle

>  <origin>  (11) 
adg

>  <m_score__min__energy>  (11) 
-10.31

>  <m_primary>  (11) 
energy

$$$$
11:0
     RDKit          3D

 37 39  0  0  0  0  0  0  0  0999 V2000
   55.1720   26.6860   46.0020 N   0  0  0  0  0  0  0  0  0  0  0  0
   56.6970   25.8770   46.1250 S   0  0  0  0  0  0  0  0  0  0  0  0
   56.9010   25.0620   44.8790 O   0  0  0  0  0  0  0  0  0  0  0  0
   56.6730   24.9690   47.3220 O   0  0  0  0  0  0  0  0  0  0  0  0
   58.0190   27.0420   46.2910 C   0  0  0  0  0  0  0  0  0  0  0  0
   58.8340   26.9940   47.4350 C   0  0  0  0  0  0  0  0  0  0  0  0
   59.8600   27.9220   47.6150 C   0  0  0  0  0  0  0  0  0  0  0  0
   60.0890   28.9070   46.6560 C   0  0  0  0  0  0  0  0  0  0  0  0
   59.2920   28.9660   45.5120 C   0  0  0  0  0  0  0  0  0  0  0  0
   58.2500   28.0420   45.3140 C   0  0  0  0  0  0  0  0  0  0  0  0
   57.4380   28.1190   44.1280 N   0  0  0  0  0  0  0  0  0  0  0  0
   56.3690   29.4480   43.8190 S   0  0  0  0  0  0  0  0  0  0  0  0
   55.1790   29.3530   44.7320 O   0  0  0  0  0  0  0  0  0  0  0  0
   55.9010   29.3820   42.3920 O   0  0  0  0  0  0  0  0  0  0  0  0
   57.2010   30.9680   44.1340 C   0  0  0  0  0  0  0  0  0  0  0  0
   57.6790   31.7530   43.0760 C   0  0  0  0  0  0  0  0  0  0  0  0
   58.3660   32.9420   43.3330 C   0  0  0  0  0  0  0  0  0  0  0  0
   58.5830   33.3600   44.6550 C   0  0  0  0  0  0  0  0  0  0  0  0
   59.2770   34.5510   44.9260 C   0  0  0  0  0  0  0  0  0  0  0  0
   59.4880   34.9530   46.2480 C   0  0  0  0  0  0  0  0  0  0  0  0
   59.0110   34.1750   47.3060 C   0  0  0  0  0  0  0  0  0  0  0  0
   58.3180   32.9880   47.0490 C   0  0  0  0  0  0  0  0  0  0  0  0
   58.0980   32.5720   45.7260 C   0  0  0  0  0  0  0  0  0  0  0  0
   57.4060   31.3820   45.4570 C   0  0  0  0  0  0  0  0  0  0  0  0
   55.1510   27.1630   45.0730 H   0  0  0  0  0  0  0  0  0  0  0  0
   58.6614   26.2179   48.1952 H   0  0  0  0  0  0  0  0  0  0  0  0
   60.4896   27.8762   48.5158 H   0  0  0  0  0  0  0  0  0  0  0  0
   60.8981   29.6380   46.8009 H   0  0  0  0  0  0  0  0  0  0  0  0
   59.4806   29.7434   44.7570 H   0  0  0  0  0  0  0  0  0  0  0  0
   57.3910   27.3120   43.4690 H   0  0  0  0  0  0  0  0  0  0  0  0
   57.5123   31.4312   42.0374 H   0  0  0  0  0  0  0  0  0  0  0  0
   58.7379   33.5523   42.4968 H   0  0  0  0  0  0  0  0  0  0  0  0
   59.6547   35.1677   44.0971 H   0  0  0  0  0  0  0  0  0  0  0  0
   60.0320   35.8861   46.4563 H   0  0  0  0  0  0  0  0  0  0  0  0
   59.1811   34.4971   48.3439 H   0  0  0  0  0  0  0  0  0  0  0  0
   57.9443   32.3787   47.8851 H   0  0  0  0  0  0  0  0  0  0  0  0
   57.0227   30.7713   46.2878 H   0  0  0  0  0  0  0  0  0  0  0  0
  1  2  1  0
  2  3  2  0
  2  4  2  0
  2  5  1  0
  5  6  2  0
  6  7  1  0
  7  8  2  0
  8  9  1  0
  9 10  2  0
 10 11  1  0
 11 12  1  0
 12 13  2  0
 12 14  2  0
 12 15  1  0
 15 16  2  0
 16 17  1  0
 17 18  2  0
 18 19  1  0
 19 20  2  0
 20 21  1  0
 21 22  2  0
 22 23  1  0
 23 24  2  0
 10  5  1  0
 24 15  1  0
 23 18  1  0
  1 25  1  0
  6 26  1  0
  7 27  1  0
  8 28  1  0
  9 29  1  0
 11 30  1  0
 16 31  1  0
 17 32  1  0
 19 33  1  0
 20 34  1  0
 21 35  1  0
 22 36  1  0
 24 37  1  0
M  CHG  1   1  -1
M  END
>  <UniqueID>  (12) 
11

>  <SMILES>  (12) 
[NH-]S(=O)(=O)c1ccccc1NS(=O)(=O)c1ccc2ccccc2c1

>  <Energy>  (12) 
47.18755294922804

>  <Genealogy>  (12) 
[NH-]S(=O)(=O)c1ccccc1NS(=O)(=O)c1ccc2ccccc2c1 (protonated)
[NH-]S(=O)(=O)c1ccccc1NS(=O)(=O)c1ccc2ccccc2c1 (3D coordinates assigned)
[NH-]S(=O)(=O)c1ccccc1NS(=O)(=O)c1ccc2ccccc2c1 (optimized conformer: 47.18755294922804 kcal/mol)

>  <smiles>  (12) 
NS(=O)(=O)c1ccccc1NS(=O)(=O)c1ccc2ccccc2c1

>  <score_type>  (12) 
oracle

>  <origin>  (12) 
adg

>  <m_score__min__energy>  (12) 
-13.25

>  <m_primary>  (12) 
energy

$$$$
12:0
     RDKit          3D

 51 53  0  0  0  0  0  0  0  0999 V2000
   54.8080   26.3250   46.0060 N   0  0  0  0  0  0  0  0  0  0  0  0
   56.5080   26.0030   45.9280 S   0  0  0  0  0  0  0  0  0  0  0  0
   56.7560   24.9380   44.8940 O   0  0  0  0  0  0  0  0  0  0  0  0
   56.9750   25.5170   47.2730 O   0  0  0  0  0  0  0  0  0  0  0  0
   57.4030   27.4570   45.5000 C   0  0  0  0  0  0  0  0  0  0  0  0
   58.7920   27.3880   45.3370 C   0  0  0  0  0  0  0  0  0  0  0  0
   59.5220   28.5370   45.0220 C   0  0  0  0  0  0  0  0  0  0  0  0
   58.8700   29.7670   44.8960 C   0  0  0  0  0  0  0  0  0  0  0  0
   57.4860   29.8580   45.0810 C   0  0  0  0  0  0  0  0  0  0  0  0
   56.8540   31.1390   44.9350 N   0  0  0  0  0  0  0  0  0  0  0  0
   57.4410   32.3060   44.3440 C   0  0  0  0  0  0  0  0  0  0  0  0
   58.0360   32.2320   43.2350 O   0  0  0  0  0  0  0  0  0  0  0  0
   57.2750   33.6440   44.9970 C   0  0  0  0  0  0  0  0  0  0  0  0
   58.4190   34.5190   44.7490 N   0  0  0  0  0  0  0  0  0  0  0  0
   59.3710   35.0030   45.7090 C   0  0  0  0  0  0  0  0  0  0  0  0
   59.7080   36.2160   45.6570 O   0  0  0  0  0  0  0  0  0  0  0  0
   59.9220   34.1580   46.7890 C   0  0  0  0  0  0  0  0  0  0  0  0
   60.4130   32.8790   46.4820 C   0  0  0  0  0  0  0  0  0  0  0  0
   60.9030   32.0470   47.4930 C   0  0  0  0  0  0  0  0  0  0  0  0
   60.8970   32.4770   48.8270 C   0  0  0  0  0  0  0  0  0  0  0  0
   61.4510   31.3970   50.1120 S   0  0  0  0  0  0  0  0  0  0  0  0
   62.8890   31.0280   49.8660 O   0  0  0  0  0  0  0  0  0  0  0  0
   61.3740   32.1150   51.4310 O   0  0  0  0  0  0  0  0  0  0  0  0
   60.4880   29.9390   50.1910 N   0  0  0  0  0  0  0  0  0  0  0  0
   61.1100   28.8640   49.3950 C   0  0  0  0  0  0  0  0  0  0  0  0
   60.0710   27.7890   49.0320 C   0  0  0  0  0  0  0  0  0  0  0  0
   58.9760   28.2760   48.2650 O   0  0  0  0  0  0  0  0  0  0  0  0
   58.7460   29.6700   48.4130 C   0  0  0  0  0  0  0  0  0  0  0  0
   59.0780   30.1940   49.8240 C   0  0  0  0  0  0  0  0  0  0  0  0
   60.4150   33.7560   49.1360 C   0  0  0  0  0  0  0  0  0  0  0  0
   59.9170   34.5860   48.1260 C   0  0  0  0  0  0  0  0  0  0  0  0
   56.7490   28.6910   45.3580 C   0  0  0  0  0  0  0  0  0  0  0  0
   54.6660   27.0770   46.7190 H   0  0  0  0  0  0  0  0  0  0  0  0
   59.3105   26.4254   45.4574 H   0  0  0  0  0  0  0  0  0  0  0  0
   60.6100   28.4736   44.8731 H   0  0  0  0  0  0  0  0  0  0  0  0
   59.4488   30.6694   44.6498 H   0  0  0  0  0  0  0  0  0  0  0  0
   56.3683   34.1234   44.5994 H   0  0  0  0  0  0  0  0  0  0  0  0
   57.1972   33.4853   46.0827 H   0  0  0  0  0  0  0  0  0  0  0  0
   60.4121   32.5293   45.4391 H   0  0  0  0  0  0  0  0  0  0  0  0
   61.2949   31.0507   47.2405 H   0  0  0  0  0  0  0  0  0  0  0  0
   61.5251   29.2924   48.4708 H   0  0  0  0  0  0  0  0  0  0  0  0
   61.9090   28.3984   49.9907 H   0  0  0  0  0  0  0  0  0  0  0  0
   60.5759   27.0020   48.4526 H   0  0  0  0  0  0  0  0  0  0  0  0
   59.6544   27.4172   49.9797 H   0  0  0  0  0  0  0  0  0  0  0  0
   59.3716   30.2068   47.6846 H   0  0  0  0  0  0  0  0  0  0  0  0
   57.6731   29.8439   48.2439 H   0  0  0  0  0  0  0  0  0  0  0  0
   58.8938   31.2781   49.8529 H   0  0  0  0  0  0  0  0  0  0  0  0
   58.4377   29.6628   50.5436 H   0  0  0  0  0  0  0  0  0  0  0  0
   60.4283   34.1090   50.1777 H   0  0  0  0  0  0  0  0  0  0  0  0
   59.5193   35.5794   48.3808 H   0  0  0  0  0  0  0  0  0  0  0  0
   55.6555   28.7463   45.4637 H   0  0  0  0  0  0  0  0  0  0  0  0
  1  2  1  0
  2  3  2  0
  2  4  2  0
  2  5  1  0
  5  6  2  0
  6  7  1  0
  7  8  2  0
  8  9  1  0
  9 10  1  0
 10 11  1  0
 11 12  2  0
 11 13  1  0
 13 14  1  0
 14 15  1  0
 15 16  2  0
 15 17  1  0
 17 18  2  0
 18 19  1  0
 19 20  2  0
 20 21  1  0
 21 22  2  0
 21 23  2  0
 21 24  1  0
 24 25  1  0
 25 26  1  0
 26 27  1  0
 27 28  1  0
 28 29  1  0
 20 30  1  0
 30 31  2  0
  9 32  2  0
 32  5  1  0
 31 17  1  0
 29 24  1  0
  1 33  1  0
  6 34  1  0
  7 35  1  0
  8 36  1  0
 13 37  1  0
 13 38  1  0
 18 39  1  0
 19 40  1  0
 25 41  1  0
 25 42  1  0
 26 43  1  0
 26 44  1  0
 28 45  1  0
 28 46  1  0
 29 47  1  0
 29 48  1  0
 30 49  1  0
 31 50  1  0
 32 51  1  0
M  CHG  3   1  -1  10  -1  14  -1
M  END
>  <UniqueID>  (13) 
12

>  <SMILES>  (13) 
[NH-]S(=O)(=O)c1cccc([N-]C(=O)C[N-]C(=O)c2ccc(S(=O)(=O)N3CCOCC3)cc2)c1

>  <Energy>  (13) 
66.82294397110721

>  <Genealogy>  (13) 
[NH-]S(=O)(=O)c1cccc([N-]C(=O)C[N-]C(=O)c2ccc(S(=O)(=O)N3CCOCC3)cc2)c1 (protonated)
[NH-]S(=O)(=O)c1cccc([N-]C(=O)C[N-]C(=O)c2ccc(S(=O)(=O)N3CCOCC3)cc2)c1 (3D coordinates assigned)
[NH-]S(=O)(=O)c1cccc([N-]C(=O)C[N-]C(=O)c2ccc(S(=O)(=O)N3CCOCC3)cc2)c1 (nonaromatic ring conformer: 66.82294397110721 kcal/mol)

>  <smiles>  (13) 
NS(=O)(=O)c1cccc(NC(=O)CNC(=O)c2ccc(S(=O)(=O)N3CCOCC3)cc2)c1

>  <score_type>  (13) 
oracle

>  <origin>  (13) 
adg

>  <m_score__min__energy>  (13) 
-15.07

>  <m_primary>  (13) 
energy

$$$$
13:0
     RDKit          3D

 34 36  0  0  0  0  0  0  0  0999 V2000
   56.3480   29.8780   44.4730 C   0  0  0  0  0  0  0  0  0  0  0  0
   57.5690   29.5270   44.9060 C   0  0  0  0  0  0  0  0  0  0  0  0
   58.1010   28.2320   44.9530 C   0  0  0  0  0  0  0  0  0  0  0  0
   57.4750   27.0870   44.6150 C   0  0  0  0  0  0  0  0  0  0  0  0
   57.1420   25.9940   45.5530 C   0  0  0  0  0  0  0  0  0  0  0  0
   58.1010   24.6530   45.9360 S   0  0  0  0  0  0  0  0  0  0  0  0
   56.9000   23.9370   46.8640 C   0  0  0  0  0  0  0  0  0  0  0  0
   57.0230   22.8390   47.4680 O   0  0  0  0  0  0  0  0  0  0  0  0
   55.7700   24.6710   46.8820 N   0  0  0  0  0  0  0  0  0  0  0  0
   55.8940   25.8050   46.1440 C   0  0  0  0  0  0  0  0  0  0  0  0
   54.8420   26.7030   45.9970 O   0  0  0  0  0  0  0  0  0  0  0  0
   59.3840   28.3620   45.4750 C   0  0  0  0  0  0  0  0  0  0  0  0
   59.5870   29.7080   45.7040 C   0  0  0  0  0  0  0  0  0  0  0  0
   60.8100   30.2960   46.3380 C   0  0  0  0  0  0  0  0  0  0  0  0
   58.4880   30.4120   45.3630 N   0  0  0  0  0  0  0  0  0  0  0  0
   58.3240   31.8310   45.5120 C   0  0  0  0  0  0  0  0  0  0  0  0
   58.3270   32.3990   46.7940 C   0  0  0  0  0  0  0  0  0  0  0  0
   58.1710   33.7790   46.9520 C   0  0  0  0  0  0  0  0  0  0  0  0
   58.0110   34.5980   45.8300 C   0  0  0  0  0  0  0  0  0  0  0  0
   58.0030   34.0370   44.5490 C   0  0  0  0  0  0  0  0  0  0  0  0
   58.1590   32.6560   44.3840 C   0  0  0  0  0  0  0  0  0  0  0  0
   58.1280   31.9750   42.7630 Cl  0  0  0  0  0  0  0  0  0  0  0  0
   56.0429   30.9348   44.4850 H   0  0  0  0  0  0  0  0  0  0  0  0
   55.6524   29.1089   44.1061 H   0  0  0  0  0  0  0  0  0  0  0  0
   57.1902   26.9559   43.5606 H   0  0  0  0  0  0  0  0  0  0  0  0
   54.8990   24.3970   47.3910 H   0  0  0  0  0  0  0  0  0  0  0  0
   60.0990   27.5487   45.6681 H   0  0  0  0  0  0  0  0  0  0  0  0
   60.7138   30.2497   47.4328 H   0  0  0  0  0  0  0  0  0  0  0  0
   61.6964   29.7256   46.0234 H   0  0  0  0  0  0  0  0  0  0  0  0
   60.9180   31.3445   46.0234 H   0  0  0  0  0  0  0  0  0  0  0  0
   58.4525   31.7566   47.6781 H   0  0  0  0  0  0  0  0  0  0  0  0
   58.1741   34.2209   47.9593 H   0  0  0  0  0  0  0  0  0  0  0  0
   57.8913   35.6843   45.9550 H   0  0  0  0  0  0  0  0  0  0  0  0
   57.8737   34.6832   43.6683 H   0  0  0  0  0  0  0  0  0  0  0  0
  1  2  2  0
  2  3  1  0
  3  4  2  3
  4  5  1  0
  5  6  1  0
  6  7  1  0
  7  8  2  0
  7  9  1  0
  9 10  1  0
 10 11  1  0
  3 12  1  0
 12 13  2  0
 13 14  1  0
 13 15  1  0
 15 16  1  0
 16 17  2  0
 17 18  1  0
 18 19  2  0
 19 20  1  0
 20 21  2  0
 21 22  1  0
 15  2  1  0
 21 16  1  0
 10  5  2  0
  1 23  1  0
  1 24  1  0
  4 25  1  0
  9 26  1  0
 12 27  1  0
 14 28  1  0
 14 29  1  0
 14 30  1  0
 17 31  1  0
 18 32  1  0
 19 33  1  0
 20 34  1  0
M  CHG  1  11  -1
M  END
>  <UniqueID>  (14) 
13

>  <SMILES>  (14) 
C=c1c(=Cc2sc(=O)[nH]c2[O-])cc(C)n1-c1ccccc1Cl

>  <Energy>  (14) 
108.48425519368082

>  <Genealogy>  (14) 
C=c1c(=Cc2sc(=O)[nH]c2[O-])cc(C)n1-c1ccccc1Cl (protonated)
C=c1c(=Cc2sc(=O)[nH]c2[O-])cc(C)n1-c1ccccc1Cl (3D coordinates assigned)
C=c1c(=Cc2sc(=O)[nH]c2[O-])cc(C)n1-c1ccccc1Cl (optimized conformer: 108.48425519368082 kcal/mol)

>  <smiles>  (14) 
C=c1c(=Cc2sc(=O)[nH]c2O)cc(C)n1-c1ccccc1Cl

>  <score_type>  (14) 
oracle

>  <origin>  (14) 
adg

>  <m_score__min__energy>  (14) 
-12.210000000000001

>  <m_primary>  (14) 
energy

$$$$
14:0
     RDKit          3D

 41 44  0  0  0  0  0  0  0  0999 V2000
   58.7210   31.8320   49.5940 O   0  0  0  0  0  0  0  0  0  0  0  0
   59.2630   31.7200   48.4640 C   0  0  0  0  0  0  0  0  0  0  0  0
   60.0870   30.5800   48.1990 N   0  0  0  0  0  0  0  0  0  0  0  0
   59.6020   29.3350   47.6140 C   0  0  0  0  0  0  0  0  0  0  0  0
   58.7920   29.6460   46.3910 C   0  0  0  0  0  0  0  0  0  0  0  0
   59.3910   30.3030   45.2850 C   0  0  0  0  0  0  0  0  0  0  0  0
   58.6460   30.5650   44.1220 C   0  0  0  0  0  0  0  0  0  0  0  0
   57.3180   30.1510   44.0930 C   0  0  0  0  0  0  0  0  0  0  0  0
   56.7420   29.5110   45.1420 C   0  0  0  0  0  0  0  0  0  0  0  0
   57.4440   29.2320   46.3120 C   0  0  0  0  0  0  0  0  0  0  0  0
   55.4290   29.2130   44.8360 O   0  0  0  0  0  0  0  0  0  0  0  0
   55.1610   29.6990   43.5120 C   0  0  0  0  0  0  0  0  0  0  0  0
   56.3940   30.2890   43.0750 O   0  0  0  0  0  0  0  0  0  0  0  0
   59.0100   32.7540   47.4370 C   0  0  0  0  0  0  0  0  0  0  0  0
   57.7280   32.8520   46.8750 C   0  0  0  0  0  0  0  0  0  0  0  0
   57.4670   33.7700   45.8560 C   0  0  0  0  0  0  0  0  0  0  0  0
   58.4870   34.5920   45.3790 C   0  0  0  0  0  0  0  0  0  0  0  0
   59.7700   34.5040   45.9230 C   0  0  0  0  0  0  0  0  0  0  0  0
   60.0480   33.5930   46.9570 C   0  0  0  0  0  0  0  0  0  0  0  0
   61.4130   33.5620   47.5360 C   0  0  0  0  0  0  0  0  0  0  0  0
   62.5060   33.1190   46.7700 C   0  0  0  0  0  0  0  0  0  0  0  0
   63.7880   33.0820   47.3240 C   0  0  0  0  0  0  0  0  0  0  0  0
   63.9900   33.4790   48.6490 C   0  0  0  0  0  0  0  0  0  0  0  0
   62.9080   33.9100   49.4220 C   0  0  0  0  0  0  0  0  0  0  0  0
   61.6240   33.9490   48.8710 C   0  0  0  0  0  0  0  0  0  0  0  0
   60.4573   28.7012   47.3371 H   0  0  0  0  0  0  0  0  0  0  0  0
   58.9762   28.8027   48.3455 H   0  0  0  0  0  0  0  0  0  0  0  0
   60.4461   30.6095   45.3381 H   0  0  0  0  0  0  0  0  0  0  0  0
   59.0986   31.0809   43.2623 H   0  0  0  0  0  0  0  0  0  0  0  0
   56.9631   28.7051   47.1493 H   0  0  0  0  0  0  0  0  0  0  0  0
   54.8719   28.8713   42.8477 H   0  0  0  0  0  0  0  0  0  0  0  0
   54.3304   30.4201   43.4973 H   0  0  0  0  0  0  0  0  0  0  0  0
   56.9213   32.1996   47.2406 H   0  0  0  0  0  0  0  0  0  0  0  0
   56.4559   33.8448   45.4292 H   0  0  0  0  0  0  0  0  0  0  0  0
   58.2807   35.3112   44.5726 H   0  0  0  0  0  0  0  0  0  0  0  0
   60.5705   35.1534   45.5390 H   0  0  0  0  0  0  0  0  0  0  0  0
   62.3507   32.7998   45.7288 H   0  0  0  0  0  0  0  0  0  0  0  0
   64.6393   32.7401   46.7170 H   0  0  0  0  0  0  0  0  0  0  0  0
   65.0003   33.4522   49.0833 H   0  0  0  0  0  0  0  0  0  0  0  0
   63.0673   34.2190   50.4656 H   0  0  0  0  0  0  0  0  0  0  0  0
   60.7748   34.2840   49.4847 H   0  0  0  0  0  0  0  0  0  0  0  0
  1  2  2  0
  2  3  1  0
  3  4  1  0
  4  5  1  0
  5  6  2  0
  6  7  1  0
  7  8  2  0
  8  9  1  0
  9 10  2  0
  9 11  1  0
 11 12  1  0
 12 13  1  0
  2 14  1  0
 14 15  2  0
 15 16  1  0
 16 17  2  0
 17 18  1  0
 18 19  2  0
 19 20  1  0
 20 21  2  0
 21 22  1  0
 22 23  2  0
 23 24  1  0
 24 25  2  0
 10  5  1  0
 19 14  1  0
 25 20  1  0
 13  8  1  0
  4 26  1  0
  4 27  1  0
  6 28  1  0
  7 29  1  0
 10 30  1  0
 12 31  1  0
 12 32  1  0
 15 33  1  0
 16 34  1  0
 17 35  1  0
 18 36  1  0
 21 37  1  0
 22 38  1  0
 23 39  1  0
 24 40  1  0
 25 41  1  0
M  CHG  1   3  -1
M  END
>  <UniqueID>  (15) 
14

>  <SMILES>  (15) 
O=C([N-]Cc1ccc2c(c1)OCO2)c1ccccc1-c1ccccc1

>  <Energy>  (15) 
83.48876270681717

>  <Genealogy>  (15) 
O=C([N-]Cc1ccc2c(c1)OCO2)c1ccccc1-c1ccccc1 (protonated)
O=C([N-]Cc1ccc2c(c1)OCO2)c1ccccc1-c1ccccc1 (3D coordinates assigned)
O=C([N-]Cc1ccc2c(c1)OCO2)c1ccccc1-c1ccccc1 (nonaromatic ring conformer: 83.48876270681717 kcal/mol)

>  <smiles>  (15) 
O=C(NCc1ccc2c(c1)OCO2)c1ccccc1-c1ccccc1

>  <score_type>  (15) 
oracle

>  <origin>  (15) 
adg

>  <m_score__min__energy>  (15) 
-9.7100000000000009

>  <m_primary>  (15) 
energy

$$$$
15:0
     RDKit          3D

 44 47  0  0  0  0  0  0  0  0999 V2000
   62.4350   33.7990   46.4490 O   0  0  0  0  0  0  0  0  0  0  0  0
   62.0440   33.8200   47.6500 C   0  0  0  0  0  0  0  0  0  0  0  0
   62.8610   33.2870   48.6520 C   0  0  0  0  0  0  0  0  0  0  0  0
   64.1180   32.7350   48.3500 C   0  0  0  0  0  0  0  0  0  0  0  0
   64.9200   32.2300   49.3650 C   0  0  0  0  0  0  0  0  0  0  0  0
   64.4680   32.2850   50.6780 C   0  0  0  0  0  0  0  0  0  0  0  0
   63.2500   32.8150   50.9680 N   0  0  0  0  0  0  0  0  0  0  0  0
   62.4150   33.3110   49.9920 C   0  0  0  0  0  0  0  0  0  0  0  0
   61.1680   33.8320   50.2830 N   0  0  0  0  0  0  0  0  0  0  0  0
   60.6040   33.8480   51.6550 C   0  0  0  0  0  0  0  0  0  0  0  0
   59.3350   33.0330   51.7280 C   0  0  0  0  0  0  0  0  0  0  0  0
   59.2500   31.7750   51.1060 C   0  0  0  0  0  0  0  0  0  0  0  0
   58.0740   31.0240   51.1860 C   0  0  0  0  0  0  0  0  0  0  0  0
   56.9720   31.5190   51.8870 C   0  0  0  0  0  0  0  0  0  0  0  0
   55.3670   30.4900   51.9970 Br  0  0  0  0  0  0  0  0  0  0  0  0
   57.0460   32.7680   52.5100 C   0  0  0  0  0  0  0  0  0  0  0  0
   58.2200   33.5220   52.4320 C   0  0  0  0  0  0  0  0  0  0  0  0
   60.4010   34.3740   49.2730 C   0  0  0  0  0  0  0  0  0  0  0  0
   59.2790   34.8870   49.5500 O   0  0  0  0  0  0  0  0  0  0  0  0
   60.8320   34.3690   47.9710 N   0  0  0  0  0  0  0  0  0  0  0  0
   59.9620   34.9190   46.9080 C   0  0  0  0  0  0  0  0  0  0  0  0
   59.1430   33.8220   46.2750 C   0  0  0  0  0  0  0  0  0  0  0  0
   58.5160   34.0310   45.0360 C   0  0  0  0  0  0  0  0  0  0  0  0
   57.7810   33.0050   44.4330 C   0  0  0  0  0  0  0  0  0  0  0  0
   57.6710   31.7600   45.0620 C   0  0  0  0  0  0  0  0  0  0  0  0
   56.7500   30.4730   44.3050 Cl  0  0  0  0  0  0  0  0  0  0  0  0
   58.2950   31.5430   46.2940 C   0  0  0  0  0  0  0  0  0  0  0  0
   59.0290   32.5680   46.8980 C   0  0  0  0  0  0  0  0  0  0  0  0
   64.4671   32.7030   47.3074 H   0  0  0  0  0  0  0  0  0  0  0  0
   65.9017   31.7915   49.1324 H   0  0  0  0  0  0  0  0  0  0  0  0
   65.1010   31.8965   51.4894 H   0  0  0  0  0  0  0  0  0  0  0  0
   63.0130   32.8400   51.9800 H   0  0  0  0  0  0  0  0  0  0  0  0
   61.3428   33.4266   52.3525 H   0  0  0  0  0  0  0  0  0  0  0  0
   60.3685   34.8880   51.9250 H   0  0  0  0  0  0  0  0  0  0  0  0
   60.1146   31.3793   50.5529 H   0  0  0  0  0  0  0  0  0  0  0  0
   58.0162   30.0410   50.6958 H   0  0  0  0  0  0  0  0  0  0  0  0
   56.1786   33.1581   53.0627 H   0  0  0  0  0  0  0  0  0  0  0  0
   58.2724   34.5043   52.9244 H   0  0  0  0  0  0  0  0  0  0  0  0
   59.2863   35.6688   47.3452 H   0  0  0  0  0  0  0  0  0  0  0  0
   60.5937   35.3821   46.1356 H   0  0  0  0  0  0  0  0  0  0  0  0
   58.6034   35.0073   44.5367 H   0  0  0  0  0  0  0  0  0  0  0  0
   57.2894   33.1769   43.4641 H   0  0  0  0  0  0  0  0  0  0  0  0
   58.2083   30.5644   46.7888 H   0  0  0  0  0  0  0  0  0  0  0  0
   59.5200   32.3917   47.8664 H   0  0  0  0  0  0  0  0  0  0  0  0
  1  2  2  0
  2  3  1  0
  3  4  2  0
  4  5  1  0
  5  6  2  0
  6  7  1  0
  7  8  2  0
  8  9  1  0
  9 10  1  0
 10 11  1  0
 11 12  2  0
 12 13  1  0
 13 14  2  0
 14 15  1  0
 14 16  1  0
 16 17  2  0
  9 18  1  0
 18 19  2  0
 18 20  1  0
 20 21  1  0
 21 22  1  0
 22 23  2  0
 23 24  1  0
 24 25  2  0
 25 26  1  0
 25 27  1  0
 27 28  2  0
 20  2  1  0
 28 22  1  0
  8  3  1  0
 17 11  1  0
  4 29  1  0
  5 30  1  0
  6 31  1  0
  7 32  1  0
 10 33  1  0
 10 34  1  0
 12 35  1  0
 13 36  1  0
 16 37  1  0
 17 38  1  0
 21 39  1  0
 21 40  1  0
 23 41  1  0
 24 42  1  0
 27 43  1  0
 28 44  1  0
M  CHG  1   7   1
M  END
>  <UniqueID>  (16) 
15

>  <SMILES>  (16) 
O=c1c2ccc[nH+]c2n(Cc2ccc(Br)cc2)c(=O)n1Cc1ccc(Cl)cc1

>  <Energy>  (16) 
64.96253281409871

>  <Genealogy>  (16) 
O=c1c2ccc[nH+]c2n(Cc2ccc(Br)cc2)c(=O)n1Cc1ccc(Cl)cc1 (protonated)
O=c1c2ccc[nH+]c2n(Cc2ccc(Br)cc2)c(=O)n1Cc1ccc(Cl)cc1 (3D coordinates assigned)
O=c1c2ccc[nH+]c2n(Cc2ccc(Br)cc2)c(=O)n1Cc1ccc(Cl)cc1 (optimized conformer: 64.96253281409871 kcal/mol)

>  <smiles>  (16) 
O=c1c2cccnc2n(Cc2ccc(Br)cc2)c(=O)n1Cc1ccc(Cl)cc1

>  <score_type>  (16) 
oracle

>  <origin>  (16) 
adg

>  <m_score__min__energy>  (16) 
-7.21

>  <m_primary>  (16) 
energy

$$$$
16:0
     RDKit          3D

 48 50  0  0  0  0  0  0  0  0999 V2000
   55.1400   29.8260   44.7320 O   0  0  0  0  0  0  0  0  0  0  0  0
   56.3100   29.3680   44.6440 C   0  0  0  0  0  0  0  0  0  0  0  0
   57.1410   29.6700   43.4290 C   0  0  0  0  0  0  0  0  0  0  0  0
   57.8860   31.0030   43.5690 C   0  0  0  0  0  0  0  0  0  0  0  0
   58.1430   31.3540   45.0130 C   0  0  0  0  0  0  0  0  0  0  0  0
   57.4960   32.4510   45.6040 C   0  0  0  0  0  0  0  0  0  0  0  0
   57.7660   32.7980   46.9300 C   0  0  0  0  0  0  0  0  0  0  0  0
   58.6900   32.0560   47.6800 C   0  0  0  0  0  0  0  0  0  0  0  0
   59.0740   32.5080   49.3380 S   0  0  0  0  0  0  0  0  0  0  0  0
   57.8630   32.3570   50.2160 O   0  0  0  0  0  0  0  0  0  0  0  0
   60.1550   31.6000   49.8530 O   0  0  0  0  0  0  0  0  0  0  0  0
   59.6340   34.1510   49.3830 N   0  0  0  0  0  0  0  0  0  0  0  0
   61.0050   34.1940   49.8960 C   0  0  0  0  0  0  0  0  0  0  0  0
   61.9650   33.8310   48.7980 C   0  0  0  0  0  0  0  0  0  0  0  0
   61.5500   33.8660   47.4580 C   0  0  0  0  0  0  0  0  0  0  0  0
   62.4330   33.4960   46.4370 C   0  0  0  0  0  0  0  0  0  0  0  0
   63.7290   33.0790   46.7500 C   0  0  0  0  0  0  0  0  0  0  0  0
   64.1440   33.0270   48.0840 C   0  0  0  0  0  0  0  0  0  0  0  0
   63.2650   33.3960   49.1070 C   0  0  0  0  0  0  0  0  0  0  0  0
   59.3430   30.9670   47.0890 C   0  0  0  0  0  0  0  0  0  0  0  0
   59.0740   30.6180   45.7630 C   0  0  0  0  0  0  0  0  0  0  0  0
   56.8850   28.6850   45.7630 N   0  0  0  0  0  0  0  0  0  0  0  0
   57.1490   27.4120   45.8680 C   0  0  0  0  0  0  0  0  0  0  0  0
   58.4580   27.0380   45.9040 N   0  0  0  0  0  0  0  0  0  0  0  0
   58.8470   25.7400   46.0040 C   0  0  0  0  0  0  0  0  0  0  0  0
   57.8900   24.7290   46.0780 C   0  0  0  0  0  0  0  0  0  0  0  0
   56.5380   25.0680   46.0640 C   0  0  0  0  0  0  0  0  0  0  0  0
   56.1500   26.4080   45.9710 C   0  0  0  0  0  0  0  0  0  0  0  0
   54.7930   26.7110   46.0150 O   0  0  0  0  0  0  0  0  0  0  0  0
   57.8761   28.8635   43.2903 H   0  0  0  0  0  0  0  0  0  0  0  0
   56.4677   29.7427   42.5622 H   0  0  0  0  0  0  0  0  0  0  0  0
   58.8498   30.9287   43.0440 H   0  0  0  0  0  0  0  0  0  0  0  0
   57.2569   31.7929   43.1327 H   0  0  0  0  0  0  0  0  0  0  0  0
   56.7732   33.0399   45.0203 H   0  0  0  0  0  0  0  0  0  0  0  0
   57.2520   33.6562   47.3875 H   0  0  0  0  0  0  0  0  0  0  0  0
   59.6470   34.4940   48.3940 H   0  0  0  0  0  0  0  0  0  0  0  0
   61.2290   35.2084   50.2578 H   0  0  0  0  0  0  0  0  0  0  0  0
   61.1083   33.4770   50.7238 H   0  0  0  0  0  0  0  0  0  0  0  0
   60.5272   34.1853   47.2091 H   0  0  0  0  0  0  0  0  0  0  0  0
   62.1062   33.5336   45.3873 H   0  0  0  0  0  0  0  0  0  0  0  0
   64.4232   32.7915   45.9466 H   0  0  0  0  0  0  0  0  0  0  0  0
   65.1637   32.6953   48.3293 H   0  0  0  0  0  0  0  0  0  0  0  0
   63.5919   33.3456   50.1561 H   0  0  0  0  0  0  0  0  0  0  0  0
   60.0712   30.3836   47.6716 H   0  0  0  0  0  0  0  0  0  0  0  0
   59.5936   29.7634   45.3051 H   0  0  0  0  0  0  0  0  0  0  0  0
   59.9172   25.4868   46.0266 H   0  0  0  0  0  0  0  0  0  0  0  0
   58.1984   23.6754   46.1467 H   0  0  0  0  0  0  0  0  0  0  0  0
   55.7741   24.2790   46.1263 H   0  0  0  0  0  0  0  0  0  0  0  0
  1  2  2  0
  2  3  1  0
  3  4  1  0
  4  5  1  0
  5  6  2  0
  6  7  1  0
  7  8  2  0
  8  9  1  0
  9 10  2  0
  9 11  2  0
  9 12  1  0
 12 13  1  0
 13 14  1  0
 14 15  2  0
 15 16  1  0
 16 17  2  0
 17 18  1  0
 18 19  2  0
  8 20  1  0
 20 21  2  0
  2 22  1  0
 22 23  2  3
 23 24  1  0
 24 25  1  0
 25 26  2  0
 26 27  1  0
 27 28  2  0
 28 29  1  0
 21  5  1  0
 28 23  1  0
 19 14  1  0
  3 30  1  0
  3 31  1  0
  4 32  1  0
  4 33  1  0
  6 34  1  0
  7 35  1  0
 12 36  1  0
 13 37  1  0
 13 38  1  0
 15 39  1  0
 16 40  1  0
 17 41  1  0
 18 42  1  0
 19 43  1  0
 20 44  1  0
 21 45  1  0
 25 46  1  0
 26 47  1  0
 27 48  1  0
M  CHG  2  24  -1  29  -1
M  END
>  <UniqueID>  (17) 
16

>  <SMILES>  (17) 
O=C(CCc1ccc(S(=O)(=O)NCc2ccccc2)cc1)N=c1[n-]cccc1[O-]

>  <Energy>  (17) 
57.89965745571056

>  <Genealogy>  (17) 
O=C(CCc1ccc(S(=O)(=O)NCc2ccccc2)cc1)N=c1[n-]cccc1[O-] (protonated)
O=C(CCc1ccc(S(=O)(=O)NCc2ccccc2)cc1)N=c1[n-]cccc1[O-] (3D coordinates assigned)
O=C(CCc1ccc(S(=O)(=O)NCc2ccccc2)cc1)N=c1[n-]cccc1[O-] (optimized conformer: 57.89965745571056 kcal/mol)

>  <smiles>  (17) 
O=C(CCc1ccc(S(=O)(=O)NCc2ccccc2)cc1)N=c1[nH]cccc1O

>  <score_type>  (17) 
oracle

>  <origin>  (17) 
adg

>  <m_score__min__energy>  (17) 
-14.83

>  <m_primary>  (17) 
energy

$$$$
17:0
     RDKit          3D

 32 33  0  0  0  0  0  0  0  0999 V2000
   55.4140   25.6810   45.9910 N   0  0  0  0  0  0  0  0  0  0  0  0
   57.0100   25.1830   46.4330 S   0  0  0  0  0  0  0  0  0  0  0  0
   57.4090   23.9870   45.6150 O   0  0  0  0  0  0  0  0  0  0  0  0
   57.0200   24.8160   47.8900 O   0  0  0  0  0  0  0  0  0  0  0  0
   58.1410   26.4980   46.1350 C   0  0  0  0  0  0  0  0  0  0  0  0
   59.4320   26.4620   46.6780 C   0  0  0  0  0  0  0  0  0  0  0  0
   60.3200   27.5160   46.4440 C   0  0  0  0  0  0  0  0  0  0  0  0
   59.9190   28.6120   45.6750 C   0  0  0  0  0  0  0  0  0  0  0  0
   58.6310   28.6630   45.1310 C   0  0  0  0  0  0  0  0  0  0  0  0
   58.2490   29.8200   44.3760 N   0  0  0  0  0  0  0  0  0  0  0  0
   56.6250   30.4020   44.1890 S   0  0  0  0  0  0  0  0  0  0  0  0
   55.6820   29.4580   44.8800 O   0  0  0  0  0  0  0  0  0  0  0  0
   56.2810   30.4630   42.7280 O   0  0  0  0  0  0  0  0  0  0  0  0
   56.4630   31.9840   44.8800 N   0  0  0  0  0  0  0  0  0  0  0  0
   57.5430   32.7700   45.4000 C   0  0  0  0  0  0  0  0  0  0  0  0
   58.0530   33.8120   44.6140 C   0  0  0  0  0  0  0  0  0  0  0  0
   59.0910   34.6160   45.0920 C   0  0  0  0  0  0  0  0  0  0  0  0
   59.6320   34.3800   46.3590 C   0  0  0  0  0  0  0  0  0  0  0  0
   59.1370   33.3370   47.1450 C   0  0  0  0  0  0  0  0  0  0  0  0
   58.0970   32.5310   46.6700 C   0  0  0  0  0  0  0  0  0  0  0  0
   57.7490   27.5890   45.3480 C   0  0  0  0  0  0  0  0  0  0  0  0
   55.0700   26.3150   46.7460 H   0  0  0  0  0  0  0  0  0  0  0  0
   55.5030   26.2610   45.1260 H   0  0  0  0  0  0  0  0  0  0  0  0
   59.7472   25.6034   47.2891 H   0  0  0  0  0  0  0  0  0  0  0  0
   61.3355   27.4827   46.8656 H   0  0  0  0  0  0  0  0  0  0  0  0
   60.6207   29.4400   45.4963 H   0  0  0  0  0  0  0  0  0  0  0  0
   57.6335   33.9982   43.6143 H   0  0  0  0  0  0  0  0  0  0  0  0
   59.4826   35.4351   44.4709 H   0  0  0  0  0  0  0  0  0  0  0  0
   60.4468   35.0151   46.7367 H   0  0  0  0  0  0  0  0  0  0  0  0
   59.5661   33.1488   48.1402 H   0  0  0  0  0  0  0  0  0  0  0  0
   57.7120   31.7088   47.2911 H   0  0  0  0  0  0  0  0  0  0  0  0
   56.7457   27.6057   44.8973 H   0  0  0  0  0  0  0  0  0  0  0  0
  1  2  1  0
  2  3  2  0
  2  4  2  0
  2  5  1  0
  5  6  2  0
  6  7  1  0
  7  8  2  0
  8  9  1  0
  9 10  1  0
 10 11  1  0
 11 12  2  0
 11 13  2  0
 11 14  1  0
 14 15  1  0
 15 16  2  0
 16 17  1  0
 17 18  2  0
 18 19  1  0
 19 20  2  0
  9 21  2  0
 21  5  1  0
 20 15  1  0
  1 22  1  0
  1 23  1  0
  6 24  1  0
  7 25  1  0
  8 26  1  0
 16 27  1  0
 17 28  1  0
 18 29  1  0
 19 30  1  0
 20 31  1  0
 21 32  1  0
M  CHG  2  10  -1  14  -1
M  END
>  <UniqueID>  (18) 
17

>  <SMILES>  (18) 
NS(=O)(=O)c1cccc([N-]S(=O)(=O)[N-]c2ccccc2)c1

>  <Energy>  (18) 
34.8886304878929

>  <Genealogy>  (18) 
NS(=O)(=O)c1cccc([N-]S(=O)(=O)[N-]c2ccccc2)c1 (protonated)
NS(=O)(=O)c1cccc([N-]S(=O)(=O)[N-]c2ccccc2)c1 (3D coordinates assigned)
NS(=O)(=O)c1cccc([N-]S(=O)(=O)[N-]c2ccccc2)c1 (optimized conformer: 34.8886304878929 kcal/mol)

>  <smiles>  (18) 
NS(=O)(=O)c1cccc(NS(=O)(=O)Nc2ccccc2)c1

>  <score_type>  (18) 
oracle

>  <origin>  (18) 
adg

>  <m_score__min__energy>  (18) 
-11.33

>  <m_primary>  (18) 
energy

$$$$
18:0
     RDKit          3D

 31 33  0  0  0  0  0  0  0  0999 V2000
   58.3150   32.6920   41.6710 C   0  0  0  0  0  0  0  0  0  0  0  0
   58.5010   32.2590   43.0150 O   0  0  0  0  0  0  0  0  0  0  0  0
   57.8310   31.1740   43.6040 C   0  0  0  0  0  0  0  0  0  0  0  0
   56.8400   30.4490   42.9120 C   0  0  0  0  0  0  0  0  0  0  0  0
   56.2150   29.3540   43.5130 C   0  0  0  0  0  0  0  0  0  0  0  0
   56.5680   28.9640   44.8050 C   0  0  0  0  0  0  0  0  0  0  0  0
   55.9400   27.8650   45.3880 O   0  0  0  0  0  0  0  0  0  0  0  0
   57.5470   29.6790   45.5050 C   0  0  0  0  0  0  0  0  0  0  0  0
   58.1730   30.7910   44.9180 C   0  0  0  0  0  0  0  0  0  0  0  0
   59.2010   31.5300   45.6830 C   0  0  0  0  0  0  0  0  0  0  0  0
   60.1610   30.8360   46.4520 C   0  0  0  0  0  0  0  0  0  0  0  0
   61.1510   31.5380   47.1730 C   0  0  0  0  0  0  0  0  0  0  0  0
   61.1930   32.9430   47.1440 C   0  0  0  0  0  0  0  0  0  0  0  0
   60.2300   33.6060   46.3910 C   0  0  0  0  0  0  0  0  0  0  0  0
   60.0120   34.9540   46.2100 C   0  0  0  0  0  0  0  0  0  0  0  0
   58.8930   35.0360   45.3900 C   0  0  0  0  0  0  0  0  0  0  0  0
   58.4370   33.8020   45.0760 N   0  0  0  0  0  0  0  0  0  0  0  0
   59.2650   32.9320   45.6850 C   0  0  0  0  0  0  0  0  0  0  0  0
   57.8808   33.7027   41.6682 H   0  0  0  0  0  0  0  0  0  0  0  0
   59.2855   32.7084   41.1534 H   0  0  0  0  0  0  0  0  0  0  0  0
   57.6350   31.9994   41.1534 H   0  0  0  0  0  0  0  0  0  0  0  0
   56.5569   30.7475   41.8918 H   0  0  0  0  0  0  0  0  0  0  0  0
   55.4410   28.7967   42.9651 H   0  0  0  0  0  0  0  0  0  0  0  0
   55.1350   27.9740   45.9930 H   0  0  0  0  0  0  0  0  0  0  0  0
   57.8280   29.3678   46.5219 H   0  0  0  0  0  0  0  0  0  0  0  0
   60.1370   29.7369   46.4895 H   0  0  0  0  0  0  0  0  0  0  0  0
   61.8951   30.9816   47.7619 H   0  0  0  0  0  0  0  0  0  0  0  0
   61.9625   33.4997   47.6989 H   0  0  0  0  0  0  0  0  0  0  0  0
   60.5980   35.7870   46.6255 H   0  0  0  0  0  0  0  0  0  0  0  0
   58.4398   35.9765   45.0435 H   0  0  0  0  0  0  0  0  0  0  0  0
   57.6000   33.5830   44.4910 H   0  0  0  0  0  0  0  0  0  0  0  0
  1  2  1  0
  2  3  1  0
  3  4  2  0
  4  5  1  0
  5  6  2  0
  6  7  1  0
  6  8  1  0
  8  9  2  0
  9 10  1  0
 10 11  2  0
 11 12  1  0
 12 13  2  0
 13 14  1  0
 14 15  1  0
 15 16  2  0
 16 17  1  0
 17 18  1  0
  9  3  1  0
 18 10  1  0
 18 14  2  0
  1 19  1  0
  1 20  1  0
  1 21  1  0
  4 22  1  0
  5 23  1  0
  7 24  1  0
  8 25  1  0
 11 26  1  0
 12 27  1  0
 13 28  1  0
 15 29  1  0
 16 30  1  0
 17 31  1  0
M  END
>  <UniqueID>  (19) 
18

>  <SMILES>  (19) 
COc1ccc(O)cc1-c1cccc2cc[nH]c12

>  <Energy>  (19) 
71.6282522647547

>  <Genealogy>  (19) 
COc1ccc(O)cc1-c1cccc2cc[nH]c12 (3D coordinates assigned)
COc1ccc(O)cc1-c1cccc2cc[nH]c12 (optimized conformer: 71.6282522647547 kcal/mol)

>  <smiles>  (19) 
COc1ccc(O)cc1-c1cccc2cc[nH]c12

>  <score_type>  (19) 
oracle

>  <origin>  (19) 
adg

>  <m_score__min__energy>  (19) 
-7.0099999999999998

>  <m_primary>  (19) 
energy

$$$$
19:0
     RDKit          3D

 46 50  0  0  0  0  0  0  0  0999 V2000
   59.8570   27.0100   48.2630 O   0  0  0  0  0  0  0  0  0  0  0  0
   59.0730   27.5340   47.4270 C   0  0  0  0  0  0  0  0  0  0  0  0
   59.3230   28.7950   46.9810 N   0  0  0  0  0  0  0  0  0  0  0  0
   58.5250   29.4100   46.0700 C   0  0  0  0  0  0  0  0  0  0  0  0
   58.8230   30.7070   45.6390 C   0  0  0  0  0  0  0  0  0  0  0  0
   58.0030   31.3420   44.6870 C   0  0  0  0  0  0  0  0  0  0  0  0
   58.2790   32.6650   44.2050 N   0  0  0  0  0  0  0  0  0  0  0  0
   58.1670   34.1160   45.1490 S   0  0  0  0  0  0  0  0  0  0  0  0
   59.0040   35.1850   44.5080 O   0  0  0  0  0  0  0  0  0  0  0  0
   56.7340   34.5690   45.1820 O   0  0  0  0  0  0  0  0  0  0  0  0
   58.7640   33.8250   46.7800 C   0  0  0  0  0  0  0  0  0  0  0  0
   59.9240   34.4720   47.2280 C   0  0  0  0  0  0  0  0  0  0  0  0
   60.4080   34.2340   48.5170 C   0  0  0  0  0  0  0  0  0  0  0  0
   59.7330   33.3510   49.3660 C   0  0  0  0  0  0  0  0  0  0  0  0
   58.5730   32.7080   48.9260 C   0  0  0  0  0  0  0  0  0  0  0  0
   58.0870   32.9440   47.6360 C   0  0  0  0  0  0  0  0  0  0  0  0
   56.8830   30.6680   44.1840 C   0  0  0  0  0  0  0  0  0  0  0  0
   56.5780   29.3730   44.6130 C   0  0  0  0  0  0  0  0  0  0  0  0
   57.3970   28.7370   45.5570 C   0  0  0  0  0  0  0  0  0  0  0  0
   57.1200   27.4390   46.0010 C   0  0  0  0  0  0  0  0  0  0  0  0
   57.9500   26.8270   46.9520 C   0  0  0  0  0  0  0  0  0  0  0  0
   57.6670   25.4140   47.3940 C   0  0  0  0  0  0  0  0  0  0  0  0
   57.4830   24.5340   46.2000 C   0  0  0  0  0  0  0  0  0  0  0  0
   56.4590   24.6950   45.3200 N   0  0  0  0  0  0  0  0  0  0  0  0
   56.6470   23.6770   44.4690 C   0  0  0  0  0  0  0  0  0  0  0  0
   55.8840   23.3480   43.3520 C   0  0  0  0  0  0  0  0  0  0  0  0
   56.2710   22.2180   42.6060 C   0  0  0  0  0  0  0  0  0  0  0  0
   57.3990   21.4580   42.9940 C   0  0  0  0  0  0  0  0  0  0  0  0
   58.1450   21.8210   44.1310 C   0  0  0  0  0  0  0  0  0  0  0  0
   57.7330   22.9450   44.8430 C   0  0  0  0  0  0  0  0  0  0  0  0
   58.2830   23.4640   45.9480 N   0  0  0  0  0  0  0  0  0  0  0  0
   59.7002   31.2321   46.0449 H   0  0  0  0  0  0  0  0  0  0  0  0
   60.4548   35.1691   46.5629 H   0  0  0  0  0  0  0  0  0  0  0  0
   61.3202   34.7413   48.8641 H   0  0  0  0  0  0  0  0  0  0  0  0
   60.1153   33.1627   50.3801 H   0  0  0  0  0  0  0  0  0  0  0  0
   58.0414   32.0153   49.5951 H   0  0  0  0  0  0  0  0  0  0  0  0
   57.1727   32.4381   47.2923 H   0  0  0  0  0  0  0  0  0  0  0  0
   56.2368   31.1627   43.4439 H   0  0  0  0  0  0  0  0  0  0  0  0
   55.6961   28.8532   44.2103 H   0  0  0  0  0  0  0  0  0  0  0  0
   56.2492   26.8973   45.6032 H   0  0  0  0  0  0  0  0  0  0  0  0
   58.5116   25.0434   47.9934 H   0  0  0  0  0  0  0  0  0  0  0  0
   56.7479   25.4011   47.9982 H   0  0  0  0  0  0  0  0  0  0  0  0
   55.0097   23.9494   43.0624 H   0  0  0  0  0  0  0  0  0  0  0  0
   55.6931   21.9249   41.7171 H   0  0  0  0  0  0  0  0  0  0  0  0
   57.6949   20.5782   42.4038 H   0  0  0  0  0  0  0  0  0  0  0  0
   59.0226   21.2375   44.4462 H   0  0  0  0  0  0  0  0  0  0  0  0
  1  2  2  0
  2  3  1  0
  3  4  1  0
  4  5  2  0
  5  6  1  0
  6  7  1  0
  7  8  1  0
  8  9  2  0
  8 10  2  0
  8 11  1  0
 11 12  2  0
 12 13  1  0
 13 14  2  0
 14 15  1  0
 15 16  2  0
  6 17  2  0
 17 18  1  0
 18 19  2  0
 19 20  1  0
 20 21  2  0
 21 22  1  0
 22 23  1  0
 23 24  2  0
 24 25  1  0
 25 26  2  0
 26 27  1  0
 27 28  2  0
 28 29  1  0
 29 30  2  0
 30 31  1  0
 21  2  1  0
 31 23  1  0
 19  4  1  0
 30 25  1  0
 16 11  1  0
  5 32  1  0
 12 33  1  0
 13 34  1  0
 14 35  1  0
 15 36  1  0
 16 37  1  0
 17 38  1  0
 18 39  1  0
 20 40  1  0
 22 41  1  0
 22 42  1  0
 26 43  1  0
 27 44  1  0
 28 45  1  0
 29 46  1  0
M  CHG  3   3  -1   7  -1  31  -1
M  END
>  <UniqueID>  (20) 
19

>  <SMILES>  (20) 
O=c1[n-]c2cc([N-]S(=O)(=O)c3ccccc3)ccc2cc1Cc1nc2ccccc2[n-]1

>  <Energy>  (20) 
92.72969148642065

>  <Genealogy>  (20) 
O=c1[n-]c2cc([N-]S(=O)(=O)c3ccccc3)ccc2cc1Cc1nc2ccccc2[n-]1 (protonated)
O=c1[n-]c2cc([N-]S(=O)(=O)c3ccccc3)ccc2cc1Cc1nc2ccccc2[n-]1 (3D coordinates assigned)
O=c1[n-]c2cc([N-]S(=O)(=O)c3ccccc3)ccc2cc1Cc1nc2ccccc2[n-]1 (optimized conformer: 92.72969148642065 kcal/mol)

>  <smiles>  (20) 
O=c1[nH]c2cc(NS(=O)(=O)c3ccccc3)ccc2cc1Cc1nc2ccccc2[nH]1

>  <score_type>  (20) 
oracle

>  <origin>  (20) 
adg

>  <m_score__min__energy>  (20) 
-15.119999999999999

>  <m_primary>  (20) 
energy

$$$$
20:0
     RDKit          3D

 42 44  0  0  1  0  0  0  0  0999 V2000
   56.2560   19.8810   43.5340 N   0  0  0  0  0  0  0  0  0  0  0  0
   56.5710   21.5660   43.5360 S   0  0  0  0  0  0  0  0  0  0  0  0
   55.9430   22.2760   42.3820 O   0  0  0  0  0  0  0  0  0  0  0  0
   58.0580   21.7860   43.4250 O   0  0  0  0  0  0  0  0  0  0  0  0
   56.0270   22.3010   45.0260 C   0  0  0  0  0  0  0  0  0  0  0  0
   55.6570   21.5410   46.1190 C   0  0  0  0  0  0  0  0  0  0  0  0
   55.2230   22.0870   47.3080 C   0  0  0  0  0  0  0  0  0  0  0  0
   55.1700   23.4680   47.3740 C   0  0  0  0  0  0  0  0  0  0  0  0
   55.5220   24.2830   46.3290 C   0  0  0  0  0  0  0  0  0  0  0  0
   55.4830   25.6900   46.3520 N   0  0  0  0  0  0  0  0  0  0  0  0
   56.4440   26.4340   45.9200 C   0  0  0  0  0  0  0  0  0  0  0  0
   57.6850   25.9310   45.7890 N   0  0  0  0  0  0  0  0  0  0  0  0
   58.6320   26.7710   45.3330 C   0  0  0  0  0  0  0  0  0  0  0  0
   58.3850   28.0880   45.0040 C   0  0  0  0  0  0  0  0  0  0  0  0
   57.0950   28.5430   45.1590 C   0  0  0  0  0  0  0  0  0  0  0  0
   56.7220   29.7480   44.8910 N   0  0  0  0  0  0  0  0  0  0  0  0
   57.6780   30.6540   44.2730 C   0  0  0  0  0  0  0  0  0  0  0  0
   57.9190   31.8510   45.1180 C   0  0  0  0  0  0  0  0  0  0  0  0
   57.1550   32.9700   44.8820 C   0  0  0  0  0  0  0  0  0  0  0  0
   57.2770   34.1450   45.5950 C   0  0  0  0  0  0  0  0  0  0  0  0
   58.2250   34.1840   46.5980 C   0  0  0  0  0  0  0  0  0  0  0  0
   59.0030   33.0720   46.8540 C   0  0  0  0  0  0  0  0  0  0  0  0
   58.8650   31.8920   46.1220 C   0  0  0  0  0  0  0  0  0  0  0  0
   59.8410   30.4890   46.4380 Cl  0  0  0  0  0  0  0  0  0  0  0  0
   56.1300   27.7110   45.6180 N   0  0  0  0  0  0  0  0  0  0  0  0
   55.9480   23.6720   45.1640 C   0  0  0  0  0  0  0  0  0  0  0  0
   56.6450   19.5120   42.6170 H   0  0  0  0  0  0  0  0  0  0  0  0
   56.7740   19.4720   44.3570 H   0  0  0  0  0  0  0  0  0  0  0  0
   55.7115   20.4455   46.0362 H   0  0  0  0  0  0  0  0  0  0  0  0
   54.9333   21.4564   48.1615 H   0  0  0  0  0  0  0  0  0  0  0  0
   54.8290   23.9346   48.3099 H   0  0  0  0  0  0  0  0  0  0  0  0
   57.8600   24.9340   46.0410 H   0  0  0  0  0  0  0  0  0  0  0  0
   59.6565   26.3878   45.2164 H   0  0  0  0  0  0  0  0  0  0  0  0
   59.1847   28.7463   44.6337 H   0  0  0  0  0  0  0  0  0  0  0  0
   58.6300   30.1229   44.1259 H   0  0  0  0  0  0  0  0  0  0  0  0
   57.2633   30.9890   43.3108 H   0  0  0  0  0  0  0  0  0  0  0  0
   56.4041   32.9258   44.0793 H   0  0  0  0  0  0  0  0  0  0  0  0
   56.6437   35.0166   45.3730 H   0  0  0  0  0  0  0  0  0  0  0  0
   58.3604   35.0996   47.1924 H   0  0  0  0  0  0  0  0  0  0  0  0
   59.7527   33.1178   47.6577 H   0  0  0  0  0  0  0  0  0  0  0  0
   55.1450   28.0570   45.7360 H   0  0  0  0  0  0  0  0  0  0  0  0
   56.2359   24.3050   44.3117 H   0  0  0  0  0  0  0  0  0  0  0  0
  1  2  1  0
  2  3  2  0
  2  4  2  0
  2  5  1  0
  5  6  2  0
  6  7  1  0
  7  8  2  0
  8  9  1  0
  9 10  1  0
 10 11  2  0
 11 12  1  0
 12 13  1  0
 13 14  2  0
 14 15  1  0
 15 16  2  0
 16 17  1  0
 17 18  1  0
 18 19  2  0
 19 20  1  0
 20 21  2  0
 21 22  1  0
 22 23  2  0
 23 24  1  0
 15 25  1  0
  9 26  2  0
 26  5  1  0
 25 11  1  0
 23 18  1  0
  1 27  1  0
  1 28  1  0
  6 29  1  0
  7 30  1  0
  8 31  1  0
 12 32  1  0
 13 33  1  0
 14 34  1  0
 17 35  1  0
 17 36  1  0
 19 37  1  0
 20 38  1  0
 21 39  1  0
 22 40  1  0
 25 41  1  0
 26 42  1  0
M  END
>  <smiles>  (21) 
NS(=O)(=O)c1cccc(N=c2[nH]ccc(=NCc3ccccc3Cl)[nH]2)c1

>  <score_type>  (21) 
oracle

>  <origin>  (21) 
adg

>  <m_score__min__energy>  (21) 
-9.5999999999999996

>  <m_primary>  (21) 
energy

$$$$
21:0
     RDKit          3D

 30 31  0  0  0  0  0  0  0  0999 V2000
   57.6910   31.9310   42.9970 C   0  0  0  0  0  0  0  0  0  0  0  0
   58.0560   32.5310   44.3130 C   0  0  0  0  0  0  0  0  0  0  0  0
   57.8130   33.8350   44.7090 C   0  0  0  0  0  0  0  0  0  0  0  0
   58.2340   33.8840   46.0260 C   0  0  0  0  0  0  0  0  0  0  0  0
   58.6970   32.6670   46.3740 N   0  0  0  0  0  0  0  0  0  0  0  0
   59.1560   32.2680   47.7010 C   0  0  0  0  0  0  0  0  0  0  0  0
   60.2180   31.1790   47.5850 C   0  0  0  0  0  0  0  0  0  0  0  0
   59.5800   29.8690   47.5970 N   0  0  0  0  0  0  0  0  0  0  0  0
   59.3550   29.1030   46.4090 C   0  0  0  0  0  0  0  0  0  0  0  0
   60.1970   29.1530   45.4710 O   0  0  0  0  0  0  0  0  0  0  0  0
   58.1430   28.2520   46.2700 C   0  0  0  0  0  0  0  0  0  0  0  0
   58.1370   26.9490   46.7980 C   0  0  0  0  0  0  0  0  0  0  0  0
   57.0370   26.1620   46.6770 N   0  0  0  0  0  0  0  0  0  0  0  0
   55.9230   26.6100   46.0490 C   0  0  0  0  0  0  0  0  0  0  0  0
   54.9140   25.8660   45.9480 O   0  0  0  0  0  0  0  0  0  0  0  0
   55.8940   27.8620   45.5280 N   0  0  0  0  0  0  0  0  0  0  0  0
   56.9670   28.6910   45.6210 C   0  0  0  0  0  0  0  0  0  0  0  0
   56.8900   29.8440   45.1210 O   0  0  0  0  0  0  0  0  0  0  0  0
   58.5750   31.8430   45.3460 N   0  0  0  0  0  0  0  0  0  0  0  0
   57.1258   31.0018   43.1618 H   0  0  0  0  0  0  0  0  0  0  0  0
   57.0717   32.6411   42.4294 H   0  0  0  0  0  0  0  0  0  0  0  0
   58.6064   31.7076   42.4294 H   0  0  0  0  0  0  0  0  0  0  0  0
   57.3814   34.6505   44.1101 H   0  0  0  0  0  0  0  0  0  0  0  0
   58.1970   34.7680   46.6795 H   0  0  0  0  0  0  0  0  0  0  0  0
   59.5850   33.1408   48.2149 H   0  0  0  0  0  0  0  0  0  0  0  0
   58.3021   31.8775   48.2741 H   0  0  0  0  0  0  0  0  0  0  0  0
   60.7723   31.3074   46.6436 H   0  0  0  0  0  0  0  0  0  0  0  0
   60.9121   31.2544   48.4350 H   0  0  0  0  0  0  0  0  0  0  0  0
   59.0297   26.5643   47.3128 H   0  0  0  0  0  0  0  0  0  0  0  0
   58.8210   30.8270   45.3580 H   0  0  0  0  0  0  0  0  0  0  0  0
  1  2  1  0
  2  3  1  0
  3  4  2  0
  4  5  1  0
  5  6  1  0
  6  7  1  0
  7  8  1  0
  8  9  1  0
  9 10  2  0
  9 11  1  0
 11 12  2  0
 12 13  1  0
 13 14  1  0
 14 15  2  0
 14 16  1  0
 16 17  1  0
 17 18  2  0
  5 19  1  0
 19  2  2  0
 17 11  1  0
  1 20  1  0
  1 21  1  0
  1 22  1  0
  3 23  1  0
  4 24  1  0
  6 25  1  0
  6 26  1  0
  7 27  1  0
  7 28  1  0
 12 29  1  0
 19 30  1  0
M  CHG  4   8  -1  13  -1  16  -1  19   1
M  END
>  <UniqueID>  (22) 
20

>  <SMILES>  (22) 
Cc1ccn(CC[N-]C(=O)c2c[n-]c(=O)[n-]c2=O)[nH+]1

>  <Energy>  (22) 
57.27767311491023

>  <Genealogy>  (22) 
Cc1ccn(CC[N-]C(=O)c2c[n-]c(=O)[n-]c2=O)[nH+]1 (protonated)
Cc1ccn(CC[N-]C(=O)c2c[n-]c(=O)[n-]c2=O)[nH+]1 (3D coordinates assigned)
Cc1ccn(CC[N-]C(=O)c2c[n-]c(=O)[n-]c2=O)[nH+]1 (optimized conformer: 57.27767311491023 kcal/mol)

>  <smiles>  (22) 
Cc1ccn(CCNC(=O)c2c[nH]c(=O)[nH]c2=O)n1

>  <score_type>  (22) 
oracle

>  <origin>  (22) 
adg

>  <m_score__min__energy>  (22) 
-10.19

>  <m_primary>  (22) 
energy

$$$$
22:0
     RDKit          3D

 34 35  0  0  0  0  0  0  0  0999 V2000
   55.1500   28.9700   44.5960 O   0  0  0  0  0  0  0  0  0  0  0  0
   56.3220   29.2070   45.0010 C   0  0  0  0  0  0  0  0  0  0  0  0
   56.8480   30.5350   44.9010 N   0  0  0  0  0  0  0  0  0  0  0  0
   57.0700   31.2270   43.6360 C   0  0  0  0  0  0  0  0  0  0  0  0
   57.9260   32.4780   43.8550 C   0  0  0  0  0  0  0  0  0  0  0  0
   57.2830   33.4120   44.8850 C   0  0  0  0  0  0  0  0  0  0  0  0
   58.2220   33.6590   46.0340 C   0  0  0  0  0  0  0  0  0  0  0  0
   59.2040   34.6610   45.9440 C   0  0  0  0  0  0  0  0  0  0  0  0
   60.0550   34.9110   47.0250 C   0  0  0  0  0  0  0  0  0  0  0  0
   59.9250   34.1720   48.2050 C   0  0  0  0  0  0  0  0  0  0  0  0
   58.9420   33.1840   48.3070 C   0  0  0  0  0  0  0  0  0  0  0  0
   58.0890   32.9300   47.2280 C   0  0  0  0  0  0  0  0  0  0  0  0
   57.1430   28.1150   45.5880 C   0  0  0  0  0  0  0  0  0  0  0  0
   56.5400   26.9210   46.0480 C   0  0  0  0  0  0  0  0  0  0  0  0
   55.1620   26.7420   45.9880 O   0  0  0  0  0  0  0  0  0  0  0  0
   57.3230   25.8990   46.5930 C   0  0  0  0  0  0  0  0  0  0  0  0
   58.7060   26.0500   46.6970 C   0  0  0  0  0  0  0  0  0  0  0  0
   59.3150   27.2230   46.2550 C   0  0  0  0  0  0  0  0  0  0  0  0
   58.5470   28.2520   45.7010 C   0  0  0  0  0  0  0  0  0  0  0  0
   59.1950   29.3990   45.2520 O   0  0  0  0  0  0  0  0  0  0  0  0
   57.5874   30.5512   42.9391 H   0  0  0  0  0  0  0  0  0  0  0  0
   56.0979   31.5283   43.2187 H   0  0  0  0  0  0  0  0  0  0  0  0
   58.9199   32.1747   44.2159 H   0  0  0  0  0  0  0  0  0  0  0  0
   58.0097   33.0161   42.8993 H   0  0  0  0  0  0  0  0  0  0  0  0
   57.0416   34.3707   44.4027 H   0  0  0  0  0  0  0  0  0  0  0  0
   56.3676   32.9390   45.2702 H   0  0  0  0  0  0  0  0  0  0  0  0
   59.3032   35.2501   45.0204 H   0  0  0  0  0  0  0  0  0  0  0  0
   60.8277   35.6900   46.9471 H   0  0  0  0  0  0  0  0  0  0  0  0
   60.5969   34.3685   49.0535 H   0  0  0  0  0  0  0  0  0  0  0  0
   58.8390   32.6054   49.2369 H   0  0  0  0  0  0  0  0  0  0  0  0
   57.3113   32.1569   47.3144 H   0  0  0  0  0  0  0  0  0  0  0  0
   56.8462   24.9711   46.9416 H   0  0  0  0  0  0  0  0  0  0  0  0
   59.3162   25.2427   47.1282 H   0  0  0  0  0  0  0  0  0  0  0  0
   60.4053   27.3400   46.3423 H   0  0  0  0  0  0  0  0  0  0  0  0
  1  2  2  0
  2  3  1  0
  3  4  1  0
  4  5  1  0
  5  6  1  0
  6  7  1  0
  7  8  2  0
  8  9  1  0
  9 10  2  0
 10 11  1  0
 11 12  2  0
  2 13  1  0
 13 14  2  0
 14 15  1  0
 14 16  1  0
 16 17  2  0
 17 18  1  0
 18 19  2  0
 19 20  1  0
 12  7  1  0
 19 13  1  0
  4 21  1  0
  4 22  1  0
  5 23  1  0
  5 24  1  0
  6 25  1  0
  6 26  1  0
  8 27  1  0
  9 28  1  0
 10 29  1  0
 11 30  1  0
 12 31  1  0
 16 32  1  0
 17 33  1  0
 18 34  1  0
M  CHG  3   3  -1  15  -1  20  -1
M  END
>  <UniqueID>  (23) 
21

>  <SMILES>  (23) 
O=C([N-]CCCc1ccccc1)c1c([O-])cccc1[O-]

>  <Energy>  (23) 
32.703938333443396

>  <Genealogy>  (23) 
O=C([N-]CCCc1ccccc1)c1c([O-])cccc1[O-] (protonated)
O=C([N-]CCCc1ccccc1)c1c([O-])cccc1[O-] (3D coordinates assigned)
O=C([N-]CCCc1ccccc1)c1c([O-])cccc1[O-] (optimized conformer: 32.703938333443396 kcal/mol)

>  <smiles>  (23) 
O=C(NCCCc1ccccc1)c1c(O)cccc1O

>  <score_type>  (23) 
oracle

>  <origin>  (23) 
adg

>  <m_score__min__energy>  (23) 
-13.859999999999999

>  <m_primary>  (23) 
energy

$$$$
23:0
     RDKit          3D

 21 21  0  0  0  0  0  0  0  0999 V2000
   55.2910   28.6620   45.6180 H   0  0  0  0  0  0  0  0  0  0  0  0
   55.1440   29.3320   44.8310 N   0  0  0  0  0  0  0  0  0  0  0  0
   56.2430   30.0180   44.2410 C   0  0  0  0  0  0  0  0  0  0  0  0
   56.1590   30.4520   43.0620 O   0  0  0  0  0  0  0  0  0  0  0  0
   57.7570   30.2510   45.1720 S   0  0  0  0  0  0  0  0  0  0  0  0
   58.1870   28.4770   45.2150 C   0  0  0  0  0  0  0  0  0  0  0  0
   57.4266   27.9064   44.6616 H   0  0  0  0  0  0  0  0  0  0  0  0
   59.1752   28.3384   44.7522 H   0  0  0  0  0  0  0  0  0  0  0  0
   58.2400   27.9870   46.6260 C   0  0  0  0  0  0  0  0  0  0  0  0
   59.1130   28.4490   47.4100 O   0  0  0  0  0  0  0  0  0  0  0  0
   57.3170   26.9710   47.0510 N   0  0  0  0  0  0  0  0  0  0  0  0
   57.0570   25.8460   46.4490 C   0  0  0  0  0  0  0  0  0  0  0  0
   58.0050   24.8730   46.3260 N   0  0  0  0  0  0  0  0  0  0  0  0
   57.7520   23.6940   45.6990 C   0  0  0  0  0  0  0  0  0  0  0  0
   58.5417   22.9322   45.6218 H   0  0  0  0  0  0  0  0  0  0  0  0
   56.4910   23.4490   45.1530 C   0  0  0  0  0  0  0  0  0  0  0  0
   56.2807   22.4974   44.6428 H   0  0  0  0  0  0  0  0  0  0  0  0
   55.5010   24.4250   45.2620 C   0  0  0  0  0  0  0  0  0  0  0  0
   54.5021   24.2452   44.8378 H   0  0  0  0  0  0  0  0  0  0  0  0
   55.7780   25.6310   45.9100 C   0  0  0  0  0  0  0  0  0  0  0  0
   54.7900   26.6050   46.0150 O   0  0  0  0  0  0  0  0  0  0  0  0
  1  2  1  0
  2  3  1  0
  3  4  2  0
  3  5  1  0
  5  6  1  0
  6  7  1  0
  6  8  1  0
  6  9  1  0
  9 10  2  0
  9 11  1  0
 11 12  2  0
 12 13  1  0
 13 14  1  0
 14 15  1  0
 14 16  2  0
 16 17  1  0
 16 18  1  0
 18 19  1  0
 18 20  2  0
 20 21  1  0
 20 12  1  0
M  CHG  3   2  -1  13  -1  21  -1
M  END
>  <UniqueID>  (24) 
22

>  <SMILES>  (24) 
[NH-]C(=O)SCC(=O)/N=c1\[n-]cccc1[O-]

>  <Energy>  (24) 
17.524425717400753

>  <Genealogy>  (24) 
[NH-]C(=O)SCC(=O)N=c1[n-]cccc1[O-] (protonated)
[NH-]C(=O)SCC(=O)/N=c1\[n-]cccc1[O-] (cis-trans isomerization)
[NH-]C(=O)SCC(=O)/N=c1\[n-]cccc1[O-] (3D coordinates assigned)
[NH-]C(=O)SCC(=O)/N=c1\[n-]cccc1[O-] (optimized conformer: 17.524425717400753 kcal/mol)

>  <smiles>  (24) 
NC(=O)SCC(=O)N=c1[nH]cccc1O

>  <score_type>  (24) 
oracle

>  <origin>  (24) 
adg

>  <m_score__min__energy>  (24) 
-13.699999999999999

>  <m_primary>  (24) 
energy

$$$$
24:0
     RDKit          3D

 29 30  0  0  0  0  0  0  0  0999 V2000
   55.7780   27.0470   45.4250 H   0  0  0  0  0  0  0  0  0  0  0  0
   55.1470   26.4630   45.9590 O   0  0  0  0  0  0  0  0  0  0  0  0
   54.9230   25.1360   45.6000 C   0  0  0  0  0  0  0  0  0  0  0  0
   53.6510   24.6610   45.5460 N   0  0  0  0  0  0  0  0  0  0  0  0
   53.3980   23.3670   45.2260 C   0  0  0  0  0  0  0  0  0  0  0  0
   52.2100   22.9520   45.1790 O   0  0  0  0  0  0  0  0  0  0  0  0
   54.4240   22.5180   44.9640 N   0  0  0  0  0  0  0  0  0  0  0  0
   55.7130   22.9420   45.0010 C   0  0  0  0  0  0  0  0  0  0  0  0
   56.6400   22.1250   44.7530 O   0  0  0  0  0  0  0  0  0  0  0  0
   56.0010   24.2830   45.3020 C   0  0  0  0  0  0  0  0  0  0  0  0
   57.4040   24.7570   45.3530 C   0  0  0  0  0  0  0  0  0  0  0  0
   58.1851   24.0156   45.5771 H   0  0  0  0  0  0  0  0  0  0  0  0
   57.7920   26.0290   45.1450 C   0  0  0  0  0  0  0  0  0  0  0  0
   57.8790   26.5010   43.7840 C   0  0  0  0  0  0  0  0  0  0  0  0
   57.9490   26.8800   42.6930 N   0  0  0  0  0  0  0  0  0  0  0  0
   58.1000   26.9840   46.2360 C   0  0  0  0  0  0  0  0  0  0  0  0
   59.0840   26.7620   46.9930 O   0  0  0  0  0  0  0  0  0  0  0  0
   57.3490   28.1970   46.3730 N   0  0  0  0  0  0  0  0  0  0  0  0
   57.4320   29.3540   45.5290 C   0  0  0  0  0  0  0  0  0  0  0  0
   58.5880   30.1570   45.4850 C   0  0  0  0  0  0  0  0  0  0  0  0
   59.4674   29.8861   46.0878 H   0  0  0  0  0  0  0  0  0  0  0  0
   58.6210   31.2980   44.6770 C   0  0  0  0  0  0  0  0  0  0  0  0
   59.5307   31.9151   44.6360 H   0  0  0  0  0  0  0  0  0  0  0  0
   57.5020   31.6560   43.9220 C   0  0  0  0  0  0  0  0  0  0  0  0
   57.5332   32.5505   43.2825 H   0  0  0  0  0  0  0  0  0  0  0  0
   56.3430   30.8780   43.9790 C   0  0  0  0  0  0  0  0  0  0  0  0
   55.4599   31.1641   43.3889 H   0  0  0  0  0  0  0  0  0  0  0  0
   56.3040   29.7350   44.7860 C   0  0  0  0  0  0  0  0  0  0  0  0
   55.1400   28.9770   44.8450 O   0  0  0  0  0  0  0  0  0  0  0  0
  1  2  1  0
  2  3  1  0
  3  4  1  0
  4  5  1  0
  5  6  2  0
  5  7  1  0
  7  8  1  0
  8  9  2  0
  8 10  1  0
 10 11  1  0
 11 12  1  0
 11 13  2  0
 13 14  1  0
 14 15  3  0
 13 16  1  0
 16 17  2  0
 16 18  1  0
 18 19  1  0
 19 20  2  0
 20 21  1  0
 20 22  1  0
 22 23  1  0
 22 24  2  0
 24 25  1  0
 24 26  1  0
 26 27  1  0
 26 28  2  0
 28 29  1  0
 10  3  2  0
 28 19  1  0
M  CHG  4   4  -1   7  -1  18  -1  29  -1
M  END
>  <UniqueID>  (25) 
23

>  <SMILES>  (25) 
N#C/C(=C/c1c(O)[n-]c(=O)[n-]c1=O)C(=O)[N-]c1ccccc1[O-]

>  <Energy>  (25) 
42.7758781370092

>  <Genealogy>  (25) 
N#CC(=Cc1c(O)[n-]c(=O)[n-]c1=O)C(=O)[N-]c1ccccc1[O-] (protonated)
N#C/C(=C/c1c(O)[n-]c(=O)[n-]c1=O)C(=O)[N-]c1ccccc1[O-] (cis-trans isomerization)
N#C/C(=C/c1c(O)[n-]c(=O)[n-]c1=O)C(=O)[N-]c1ccccc1[O-] (3D coordinates assigned)
N#C/C(=C/c1c(O)[n-]c(=O)[n-]c1=O)C(=O)[N-]c1ccccc1[O-] (optimized conformer: 42.7758781370092 kcal/mol)

>  <smiles>  (25) 
N#CC(=Cc1c(O)[nH]c(=O)[nH]c1=O)C(=O)Nc1ccccc1O

>  <score_type>  (25) 
oracle

>  <origin>  (25) 
adg

>  <m_score__min__energy>  (25) 
-16.289999999999999

>  <m_primary>  (25) 
energy

$$$$
25:0
     RDKit          3D

 62 65  0  0  0  0  0  0  0  0999 V2000
   64.5040   33.3850   48.4320 N   0  0  0  0  0  0  0  0  0  0  0  0
   63.4200   32.9990   47.5750 C   0  0  0  0  0  0  0  0  0  0  0  0
   63.6720   32.2170   46.6110 O   0  0  0  0  0  0  0  0  0  0  0  0
   62.0330   33.5240   47.7510 C   0  0  0  0  0  0  0  0  0  0  0  0
   61.4920   33.8210   49.0210 C   0  0  0  0  0  0  0  0  0  0  0  0
   60.2050   34.3640   49.1420 C   0  0  0  0  0  0  0  0  0  0  0  0
   59.4380   34.6220   48.0040 C   0  0  0  0  0  0  0  0  0  0  0  0
   59.9390   34.3070   46.7350 C   0  0  0  0  0  0  0  0  0  0  0  0
   59.1320   34.6090   45.5810 N   0  0  0  0  0  0  0  0  0  0  0  0
   57.9010   33.9600   45.2120 C   0  0  0  0  0  0  0  0  0  0  0  0
   56.8240   34.6230   45.1650 O   0  0  0  0  0  0  0  0  0  0  0  0
   57.9120   32.5360   44.8010 C   0  0  0  0  0  0  0  0  0  0  0  0
   57.4050   32.1440   43.5460 C   0  0  0  0  0  0  0  0  0  0  0  0
   57.3830   30.7920   43.1840 C   0  0  0  0  0  0  0  0  0  0  0  0
   57.8590   29.8160   44.0690 C   0  0  0  0  0  0  0  0  0  0  0  0
   58.3420   30.1830   45.3330 C   0  0  0  0  0  0  0  0  0  0  0  0
   58.8320   29.1290   46.3000 C   0  0  0  0  0  0  0  0  0  0  0  0
   58.2850   29.3630   47.6440 N   0  0  0  0  0  0  0  0  0  0  0  0
   58.9970   29.3440   48.8950 C   0  0  0  0  0  0  0  0  0  0  0  0
   59.9320   28.5080   49.0340 O   0  0  0  0  0  0  0  0  0  0  0  0
   58.6250   30.1920   50.0510 C   0  0  0  0  0  0  0  0  0  0  0  0
   58.8580   31.5840   50.0500 C   0  0  0  0  0  0  0  0  0  0  0  0
   58.4830   32.3660   51.1490 C   0  0  0  0  0  0  0  0  0  0  0  0
   57.9130   31.7660   52.2770 C   0  0  0  0  0  0  0  0  0  0  0  0
   57.6970   30.3670   52.3040 C   0  0  0  0  0  0  0  0  0  0  0  0
   57.1150   29.7060   53.3990 O   0  0  0  0  0  0  0  0  0  0  0  0
   55.8330   29.0710   53.3960 C   0  0  0  0  0  0  0  0  0  0  0  0
   54.8080   29.8790   54.2100 C   0  0  0  0  0  0  0  0  0  0  0  0
   53.7950   30.5640   53.3180 C   0  0  0  0  0  0  0  0  0  0  0  0
   54.1120   30.8420   51.9760 C   0  0  0  0  0  0  0  0  0  0  0  0
   53.1700   31.4390   51.1350 C   0  0  0  0  0  0  0  0  0  0  0  0
   51.8970   31.7570   51.6200 C   0  0  0  0  0  0  0  0  0  0  0  0
   50.9570   32.3390   50.7770 O   0  0  0  0  0  0  0  0  0  0  0  0
   51.5700   31.4880   52.9570 C   0  0  0  0  0  0  0  0  0  0  0  0
   52.5140   30.8980   53.8020 C   0  0  0  0  0  0  0  0  0  0  0  0
   58.0730   29.5910   51.1980 C   0  0  0  0  0  0  0  0  0  0  0  0
   58.4020   31.5490   45.6770 C   0  0  0  0  0  0  0  0  0  0  0  0
   61.2380   33.7700   46.6120 C   0  0  0  0  0  0  0  0  0  0  0  0
   64.3790   33.9930   49.2680 H   0  0  0  0  0  0  0  0  0  0  0  0
   65.4780   33.0680   48.2080 H   0  0  0  0  0  0  0  0  0  0  0  0
   62.0867   33.6242   49.9252 H   0  0  0  0  0  0  0  0  0  0  0  0
   59.7973   34.5880   50.1388 H   0  0  0  0  0  0  0  0  0  0  0  0
   58.4397   35.0729   48.1045 H   0  0  0  0  0  0  0  0  0  0  0  0
   57.0247   32.9040   42.8476 H   0  0  0  0  0  0  0  0  0  0  0  0
   56.9903   30.4947   42.2004 H   0  0  0  0  0  0  0  0  0  0  0  0
   57.8538   28.7572   43.7710 H   0  0  0  0  0  0  0  0  0  0  0  0
   58.5111   28.1378   45.9470 H   0  0  0  0  0  0  0  0  0  0  0  0
   59.9297   29.1787   46.3512 H   0  0  0  0  0  0  0  0  0  0  0  0
   59.3372   32.0574   49.1804 H   0  0  0  0  0  0  0  0  0  0  0  0
   58.6369   33.4549   51.1255 H   0  0  0  0  0  0  0  0  0  0  0  0
   57.6323   32.3820   53.1441 H   0  0  0  0  0  0  0  0  0  0  0  0
   55.4784   28.9842   52.3583 H   0  0  0  0  0  0  0  0  0  0  0  0
   55.9364   28.0772   53.8560 H   0  0  0  0  0  0  0  0  0  0  0  0
   54.2784   29.1976   54.8921 H   0  0  0  0  0  0  0  0  0  0  0  0
   55.3512   30.6553   54.7689 H   0  0  0  0  0  0  0  0  0  0  0  0
   55.1086   30.5875   51.5862 H   0  0  0  0  0  0  0  0  0  0  0  0
   53.4297   31.6596   50.0891 H   0  0  0  0  0  0  0  0  0  0  0  0
   50.5706   31.7414   53.3405 H   0  0  0  0  0  0  0  0  0  0  0  0
   52.2557   30.6930   54.8514 H   0  0  0  0  0  0  0  0  0  0  0  0
   57.9350   28.5001   51.2272 H   0  0  0  0  0  0  0  0  0  0  0  0
   58.8372   31.8473   46.6422 H   0  0  0  0  0  0  0  0  0  0  0  0
   61.6367   33.5398   45.6130 H   0  0  0  0  0  0  0  0  0  0  0  0
  1  2  1  0
  2  3  2  0
  2  4  1  0
  4  5  2  0
  5  6  1  0
  6  7  2  0
  7  8  1  0
  8  9  1  0
  9 10  1  0
 10 11  2  0
 10 12  1  0
 12 13  2  0
 13 14  1  0
 14 15  2  0
 15 16  1  0
 16 17  1  0
 17 18  1  0
 18 19  1  0
 19 20  2  0
 19 21  1  0
 21 22  2  0
 22 23  1  0
 23 24  2  0
 24 25  1  0
 25 26  1  0
 26 27  1  0
 27 28  1  0
 28 29  1  0
 29 30  2  0
 30 31  1  0
 31 32  2  0
 32 33  1  0
 32 34  1  0
 34 35  2  0
 25 36  2  0
 16 37  2  0
  8 38  2  0
 38  4  1  0
 37 12  1  0
 36 21  1  0
 35 29  1  0
  1 39  1  0
  1 40  1  0
  5 41  1  0
  6 42  1  0
  7 43  1  0
 13 44  1  0
 14 45  1  0
 15 46  1  0
 17 47  1  0
 17 48  1  0
 22 49  1  0
 23 50  1  0
 24 51  1  0
 27 52  1  0
 27 53  1  0
 28 54  1  0
 28 55  1  0
 30 56  1  0
 31 57  1  0
 34 58  1  0
 35 59  1  0
 36 60  1  0
 37 61  1  0
 38 62  1  0
M  CHG  3   9  -1  18  -1  33  -1
M  END
>  <UniqueID>  (26) 
24

>  <SMILES>  (26) 
NC(=O)c1cccc([N-]C(=O)c2cccc(C[N-]C(=O)c3cccc(OCCc4ccc([O-])cc4)c3)c2)c1

>  <Energy>  (26) 
76.87193497908082

>  <Genealogy>  (26) 
NC(=O)c1cccc([N-]C(=O)c2cccc(C[N-]C(=O)c3cccc(OCCc4ccc([O-])cc4)c3)c2)c1 (protonated)
NC(=O)c1cccc([N-]C(=O)c2cccc(C[N-]C(=O)c3cccc(OCCc4ccc([O-])cc4)c3)c2)c1 (3D coordinates assigned)
NC(=O)c1cccc([N-]C(=O)c2cccc(C[N-]C(=O)c3cccc(OCCc4ccc([O-])cc4)c3)c2)c1 (optimized conformer: 76.87193497908082 kcal/mol)

>  <smiles>  (26) 
NC(=O)c1cccc(NC(=O)c2cccc(CNC(=O)c3cccc(OCCc4ccc(O)cc4)c3)c2)c1

>  <score_type>  (26) 
oracle

>  <origin>  (26) 
adg

>  <m_score__min__energy>  (26) 
-16.59

>  <m_primary>  (26) 
energy

$$$$
26:0
     RDKit          3D

 48 50  0  0  0  0  0  0  0  0999 V2000
   55.1420   29.3540   44.8440 N   0  0  0  0  0  0  0  0  0  0  0  0
   56.7950   29.7530   44.5160 S   0  0  0  0  0  0  0  0  0  0  0  0
   57.0420   31.2060   44.8220 O   0  0  0  0  0  0  0  0  0  0  0  0
   57.0760   29.5100   43.0610 O   0  0  0  0  0  0  0  0  0  0  0  0
   57.8500   28.7650   45.5180 C   0  0  0  0  0  0  0  0  0  0  0  0
   57.6650   27.3790   45.6040 C   0  0  0  0  0  0  0  0  0  0  0  0
   58.4940   26.6080   46.4170 C   0  0  0  0  0  0  0  0  0  0  0  0
   59.5180   27.2150   47.1430 C   0  0  0  0  0  0  0  0  0  0  0  0
   59.7280   28.5970   47.0540 C   0  0  0  0  0  0  0  0  0  0  0  0
   60.7730   29.1780   47.8500 N   0  0  0  0  0  0  0  0  0  0  0  0
   60.9350   29.0720   49.2700 C   0  0  0  0  0  0  0  0  0  0  0  0
   61.0080   27.9430   49.8280 O   0  0  0  0  0  0  0  0  0  0  0  0
   60.8930   30.3270   50.0880 C   0  0  0  0  0  0  0  0  0  0  0  0
   60.1500   31.3930   49.4200 N   0  0  0  0  0  0  0  0  0  0  0  0
   58.7320   31.5400   49.5320 C   0  0  0  0  0  0  0  0  0  0  0  0
   58.0420   30.6560   50.1130 O   0  0  0  0  0  0  0  0  0  0  0  0
   58.1090   32.7200   49.0170 N   0  0  0  0  0  0  0  0  0  0  0  0
   58.4270   33.3570   47.7720 C   0  0  0  0  0  0  0  0  0  0  0  0
   57.4980   33.2830   46.7270 C   0  0  0  0  0  0  0  0  0  0  0  0
   57.7370   33.9350   45.5160 C   0  0  0  0  0  0  0  0  0  0  0  0
   58.8980   34.6910   45.3480 C   0  0  0  0  0  0  0  0  0  0  0  0
   59.8220   34.7930   46.3890 C   0  0  0  0  0  0  0  0  0  0  0  0
   59.5970   34.1300   47.6120 C   0  0  0  0  0  0  0  0  0  0  0  0
   60.4690   34.2990   48.6990 O   0  0  0  0  0  0  0  0  0  0  0  0
   61.8020   33.8770   48.7340 C   0  0  0  0  0  0  0  0  0  0  0  0
   62.4430   33.3510   47.5980 C   0  0  0  0  0  0  0  0  0  0  0  0
   63.7770   32.9390   47.6720 C   0  0  0  0  0  0  0  0  0  0  0  0
   64.4770   33.0490   48.8770 C   0  0  0  0  0  0  0  0  0  0  0  0
   63.8390   33.5580   50.0120 C   0  0  0  0  0  0  0  0  0  0  0  0
   62.5000   33.9530   49.9450 C   0  0  0  0  0  0  0  0  0  0  0  0
   58.8760   29.3740   46.2490 C   0  0  0  0  0  0  0  0  0  0  0  0
   55.1390   28.6850   45.6460 H   0  0  0  0  0  0  0  0  0  0  0  0
   56.8618   26.8970   45.0273 H   0  0  0  0  0  0  0  0  0  0  0  0
   58.3404   25.5209   46.4859 H   0  0  0  0  0  0  0  0  0  0  0  0
   60.1652   26.6045   47.7899 H   0  0  0  0  0  0  0  0  0  0  0  0
   60.4091   30.1068   51.0510 H   0  0  0  0  0  0  0  0  0  0  0  0
   61.9273   30.6730   50.2314 H   0  0  0  0  0  0  0  0  0  0  0  0
   60.6870   32.1280   48.9080 H   0  0  0  0  0  0  0  0  0  0  0  0
   56.5713   32.7058   46.8615 H   0  0  0  0  0  0  0  0  0  0  0  0
   57.0103   33.8529   44.6943 H   0  0  0  0  0  0  0  0  0  0  0  0
   59.0849   35.2068   44.3946 H   0  0  0  0  0  0  0  0  0  0  0  0
   60.7325   35.3953   46.2539 H   0  0  0  0  0  0  0  0  0  0  0  0
   61.8935   33.2636   46.6491 H   0  0  0  0  0  0  0  0  0  0  0  0
   64.2758   32.5282   46.7818 H   0  0  0  0  0  0  0  0  0  0  0  0
   65.5298   32.7351   48.9321 H   0  0  0  0  0  0  0  0  0  0  0  0
   64.3915   33.6477   50.9589 H   0  0  0  0  0  0  0  0  0  0  0  0
   61.9927   34.3250   50.8474 H   0  0  0  0  0  0  0  0  0  0  0  0
   59.0165   30.4636   46.1938 H   0  0  0  0  0  0  0  0  0  0  0  0
  1  2  1  0
  2  3  2  0
  2  4  2  0
  2  5  1  0
  5  6  2  0
  6  7  1  0
  7  8  2  0
  8  9  1  0
  9 10  1  0
 10 11  1  0
 11 12  2  0
 11 13  1  0
 13 14  1  0
 14 15  1  0
 15 16  2  0
 15 17  1  0
 17 18  1  0
 18 19  2  0
 19 20  1  0
 20 21  2  0
 21 22  1  0
 22 23  2  0
 23 24  1  0
 24 25  1  0
 25 26  2  0
 26 27  1  0
 27 28  2  0
 28 29  1  0
 29 30  2  0
  9 31  2  0
 31  5  1  0
 23 18  1  0
 30 25  1  0
  1 32  1  0
  6 33  1  0
  7 34  1  0
  8 35  1  0
 13 36  1  0
 13 37  1  0
 14 38  1  0
 19 39  1  0
 20 40  1  0
 21 41  1  0
 22 42  1  0
 26 43  1  0
 27 44  1  0
 28 45  1  0
 29 46  1  0
 30 47  1  0
 31 48  1  0
M  CHG  3   1  -1  10  -1  17  -1
M  END
>  <UniqueID>  (27) 
25

>  <SMILES>  (27) 
[NH-]S(=O)(=O)c1cccc([N-]C(=O)CNC(=O)[N-]c2ccccc2Oc2ccccc2)c1

>  <Energy>  (27) 
60.333025502248496

>  <Genealogy>  (27) 
[NH-]S(=O)(=O)c1cccc([N-]C(=O)CNC(=O)[N-]c2ccccc2Oc2ccccc2)c1 (protonated)
[NH-]S(=O)(=O)c1cccc([N-]C(=O)CNC(=O)[N-]c2ccccc2Oc2ccccc2)c1 (3D coordinates assigned)
[NH-]S(=O)(=O)c1cccc([N-]C(=O)CNC(=O)[N-]c2ccccc2Oc2ccccc2)c1 (optimized conformer: 60.333025502248496 kcal/mol)

>  <smiles>  (27) 
NS(=O)(=O)c1cccc(NC(=O)CNC(=O)Nc2ccccc2Oc2ccccc2)c1

>  <score_type>  (27) 
oracle

>  <origin>  (27) 
adg

>  <m_score__min__energy>  (27) 
-14.49

>  <m_primary>  (27) 
energy

$$$$
27:0
     RDKit          3D

 40 42  0  0  0  0  0  0  0  0999 V2000
   55.1440   26.6970   45.9910 N   0  0  0  0  0  0  0  0  0  0  0  0
   56.5010   27.0970   45.7980 C   0  0  0  0  0  0  0  0  0  0  0  0
   57.4200   26.2450   45.9440 O   0  0  0  0  0  0  0  0  0  0  0  0
   56.8280   28.4930   45.4280 C   0  0  0  0  0  0  0  0  0  0  0  0
   55.9620   29.2410   44.6090 C   0  0  0  0  0  0  0  0  0  0  0  0
   56.2730   30.5580   44.2590 C   0  0  0  0  0  0  0  0  0  0  0  0
   57.4540   31.1550   44.7320 C   0  0  0  0  0  0  0  0  0  0  0  0
   57.8270   32.4920   44.3710 N   0  0  0  0  0  0  0  0  0  0  0  0
   57.5290   33.6850   45.1130 C   0  0  0  0  0  0  0  0  0  0  0  0
   57.1160   34.7230   44.5300 O   0  0  0  0  0  0  0  0  0  0  0  0
   57.6750   33.6780   46.6030 C   0  0  0  0  0  0  0  0  0  0  0  0
   59.0900   33.6250   46.9700 N   0  0  0  0  0  0  0  0  0  0  0  0
   59.6120   33.1180   48.1080 C   0  0  0  0  0  0  0  0  0  0  0  0
   58.8520   32.6270   49.1660 O   0  0  0  0  0  0  0  0  0  0  0  0
   60.9900   33.1450   48.0600 C   0  0  0  0  0  0  0  0  0  0  0  0
   61.3300   33.7160   46.8520 C   0  0  0  0  0  0  0  0  0  0  0  0
   60.1410   33.9690   46.1900 C   0  0  0  0  0  0  0  0  0  0  0  0
   60.0170   34.4840   44.9010 O   0  0  0  0  0  0  0  0  0  0  0  0
   62.7390   33.8490   46.3590 C   0  0  0  0  0  0  0  0  0  0  0  0
   63.7300   33.7480   47.5350 C   0  0  0  0  0  0  0  0  0  0  0  0
   63.3850   32.5720   48.4760 C   0  0  0  0  0  0  0  0  0  0  0  0
   61.9840   32.7320   49.1030 C   0  0  0  0  0  0  0  0  0  0  0  0
   58.3300   30.4060   45.5260 C   0  0  0  0  0  0  0  0  0  0  0  0
   58.0170   29.0900   45.8800 C   0  0  0  0  0  0  0  0  0  0  0  0
   54.5680   27.1060   46.7590 H   0  0  0  0  0  0  0  0  0  0  0  0
   55.0313   28.7848   44.2407 H   0  0  0  0  0  0  0  0  0  0  0  0
   55.5913   31.1289   43.6114 H   0  0  0  0  0  0  0  0  0  0  0  0
   57.2260   34.5930   47.0167 H   0  0  0  0  0  0  0  0  0  0  0  0
   57.1644   32.7929   47.0103 H   0  0  0  0  0  0  0  0  0  0  0  0
   59.2710   34.1840   44.2850 H   0  0  0  0  0  0  0  0  0  0  0  0
   62.9484   33.0450   45.6381 H   0  0  0  0  0  0  0  0  0  0  0  0
   62.8573   34.8298   45.8752 H   0  0  0  0  0  0  0  0  0  0  0  0
   64.7436   33.5983   47.1347 H   0  0  0  0  0  0  0  0  0  0  0  0
   63.6682   34.6803   48.1156 H   0  0  0  0  0  0  0  0  0  0  0  0
   63.4125   31.6352   47.9001 H   0  0  0  0  0  0  0  0  0  0  0  0
   64.1244   32.5573   49.2903 H   0  0  0  0  0  0  0  0  0  0  0  0
   61.6716   31.7731   49.5422 H   0  0  0  0  0  0  0  0  0  0  0  0
   62.0276   33.5075   49.8819 H   0  0  0  0  0  0  0  0  0  0  0  0
   59.2715   30.8559   45.8741 H   0  0  0  0  0  0  0  0  0  0  0  0
   58.7070   28.5176   46.5174 H   0  0  0  0  0  0  0  0  0  0  0  0
  1  2  1  0
  2  3  2  0
  2  4  1  0
  4  5  2  0
  5  6  1  0
  6  7  2  0
  7  8  1  0
  8  9  1  0
  9 10  2  0
  9 11  1  0
 11 12  1  0
 12 13  1  0
 13 14  1  0
 13 15  2  0
 15 16  1  0
 16 17  2  0
 17 18  1  0
 16 19  1  0
 19 20  1  0
 20 21  1  0
 21 22  1  0
  7 23  1  0
 23 24  2  0
 24  4  1  0
 17 12  1  0
 22 15  1  0
  1 25  1  0
  5 26  1  0
  6 27  1  0
 11 28  1  0
 11 29  1  0
 18 30  1  0
 19 31  1  0
 19 32  1  0
 20 33  1  0
 20 34  1  0
 21 35  1  0
 21 36  1  0
 22 37  1  0
 22 38  1  0
 23 39  1  0
 24 40  1  0
M  CHG  3   1  -1   8  -1  14  -1
M  END
>  <UniqueID>  (28) 
26

>  <SMILES>  (28) 
[NH-]C(=O)c1ccc([N-]C(=O)Cn2c([O-])c3c(c2O)CCCC3)cc1

>  <Energy>  (28) 
71.25417651751445

>  <Genealogy>  (28) 
[NH-]C(=O)c1ccc([N-]C(=O)Cn2c([O-])c3c(c2O)CCCC3)cc1 (protonated)
[NH-]C(=O)c1ccc([N-]C(=O)Cn2c([O-])c3c(c2O)CCCC3)cc1 (3D coordinates assigned)
[NH-]C(=O)c1ccc([N-]C(=O)Cn2c([O-])c3c(c2O)CCCC3)cc1 (nonaromatic ring conformer: 71.25417651751445 kcal/mol)

>  <smiles>  (28) 
NC(=O)c1ccc(NC(=O)Cn2c(O)c3c(c2O)CCCC3)cc1

>  <score_type>  (28) 
oracle

>  <origin>  (28) 
adg

>  <m_score__min__energy>  (28) 
-12.119999999999999

>  <m_primary>  (28) 
energy

$$$$
28:0
     RDKit          3D

 51 53  0  0  0  0  0  0  0  0999 V2000
   55.1450   29.3460   44.8410 O   0  0  0  0  0  0  0  0  0  0  0  0
   56.3790   29.4580   44.6120 C   0  0  0  0  0  0  0  0  0  0  0  0
   56.9140   30.7330   44.0240 C   0  0  0  0  0  0  0  0  0  0  0  0
   56.5900   31.8420   44.8620 O   0  0  0  0  0  0  0  0  0  0  0  0
   57.4990   32.8410   45.2390 C   0  0  0  0  0  0  0  0  0  0  0  0
   57.5540   33.3590   46.5490 C   0  0  0  0  0  0  0  0  0  0  0  0
   58.4810   34.3560   46.8730 C   0  0  0  0  0  0  0  0  0  0  0  0
   59.3560   34.8430   45.8990 C   0  0  0  0  0  0  0  0  0  0  0  0
   59.3080   34.3330   44.5990 C   0  0  0  0  0  0  0  0  0  0  0  0
   58.3820   33.3370   44.2710 C   0  0  0  0  0  0  0  0  0  0  0  0
   57.2470   28.3750   44.9700 N   0  0  0  0  0  0  0  0  0  0  0  0
   58.6950   28.3570   44.7830 C   0  0  0  0  0  0  0  0  0  0  0  0
   59.3810   27.5630   45.8970 C   0  0  0  0  0  0  0  0  0  0  0  0
   58.7450   28.0280   47.5490 S   0  0  0  0  0  0  0  0  0  0  0  0
   59.6230   29.5880   47.6290 C   0  0  0  0  0  0  0  0  0  0  0  0
   59.2110   30.5850   48.5190 C   0  0  0  0  0  0  0  0  0  0  0  0
   59.9070   31.7940   48.5630 C   0  0  0  0  0  0  0  0  0  0  0  0
   61.0020   31.9990   47.7150 C   0  0  0  0  0  0  0  0  0  0  0  0
   61.9140   33.5050   47.7520 S   0  0  0  0  0  0  0  0  0  0  0  0
   62.2770   33.8770   46.3420 O   0  0  0  0  0  0  0  0  0  0  0  0
   61.0690   34.5990   48.3440 O   0  0  0  0  0  0  0  0  0  0  0  0
   63.3630   33.2710   48.7090 N   0  0  0  0  0  0  0  0  0  0  0  0
   63.6990   31.8370   48.8610 C   0  0  0  0  0  0  0  0  0  0  0  0
   63.2560   31.2630   50.2190 C   0  0  0  0  0  0  0  0  0  0  0  0
   62.0750   31.8970   50.6550 O   0  0  0  0  0  0  0  0  0  0  0  0
   62.3420   33.2450   51.0020 C   0  0  0  0  0  0  0  0  0  0  0  0
   63.2790   33.9680   50.0030 C   0  0  0  0  0  0  0  0  0  0  0  0
   61.3750   30.9790   46.8300 C   0  0  0  0  0  0  0  0  0  0  0  0
   60.6830   29.8100   46.8070 N   0  0  0  0  0  0  0  0  0  0  0  0
   58.0073   30.6576   43.9292 H   0  0  0  0  0  0  0  0  0  0  0  0
   56.4586   30.8883   43.0348 H   0  0  0  0  0  0  0  0  0  0  0  0
   56.8663   32.9784   47.3186 H   0  0  0  0  0  0  0  0  0  0  0  0
   58.5207   34.7570   47.8965 H   0  0  0  0  0  0  0  0  0  0  0  0
   60.0827   35.6279   46.1554 H   0  0  0  0  0  0  0  0  0  0  0  0
   59.9988   34.7149   43.8329 H   0  0  0  0  0  0  0  0  0  0  0  0
   58.3469   32.9404   43.2456 H   0  0  0  0  0  0  0  0  0  0  0  0
   58.9270   27.8913   43.8138 H   0  0  0  0  0  0  0  0  0  0  0  0
   59.0653   29.3924   44.8109 H   0  0  0  0  0  0  0  0  0  0  0  0
   59.1997   26.4904   45.7340 H   0  0  0  0  0  0  0  0  0  0  0  0
   60.4570   27.7895   45.8673 H   0  0  0  0  0  0  0  0  0  0  0  0
   58.3464   30.4179   49.1782 H   0  0  0  0  0  0  0  0  0  0  0  0
   59.5959   32.5840   49.2624 H   0  0  0  0  0  0  0  0  0  0  0  0
   63.1994   31.2718   48.0604 H   0  0  0  0  0  0  0  0  0  0  0  0
   64.7936   31.7445   48.8027 H   0  0  0  0  0  0  0  0  0  0  0  0
   63.0713   30.1837   50.1141 H   0  0  0  0  0  0  0  0  0  0  0  0
   64.0510   31.4385   50.9587 H   0  0  0  0  0  0  0  0  0  0  0  0
   61.3873   33.7900   51.0402 H   0  0  0  0  0  0  0  0  0  0  0  0
   62.8554   33.2323   51.9747 H   0  0  0  0  0  0  0  0  0  0  0  0
   62.8965   34.9852   49.8324 H   0  0  0  0  0  0  0  0  0  0  0  0
   64.2878   33.9855   50.4412 H   0  0  0  0  0  0  0  0  0  0  0  0
   62.2294   31.1248   46.1527 H   0  0  0  0  0  0  0  0  0  0  0  0
  1  2  2  0
  2  3  1  0
  3  4  1  0
  4  5  1  0
  5  6  2  0
  6  7  1  0
  7  8  2  0
  8  9  1  0
  9 10  2  0
  2 11  1  0
 11 12  1  0
 12 13  1  0
 13 14  1  0
 14 15  1  0
 15 16  2  0
 16 17  1  0
 17 18  2  0
 18 19  1  0
 19 20  2  0
 19 21  2  0
 19 22  1  0
 22 23  1  0
 23 24  1  0
 24 25  1  0
 25 26  1  0
 26 27  1  0
 18 28  1  0
 28 29  2  0
 10  5  1  0
 29 15  1  0
 27 22  1  0
  3 30  1  0
  3 31  1  0
  6 32  1  0
  7 33  1  0
  8 34  1  0
  9 35  1  0
 10 36  1  0
 12 37  1  0
 12 38  1  0
 13 39  1  0
 13 40  1  0
 16 41  1  0
 17 42  1  0
 23 43  1  0
 23 44  1  0
 24 45  1  0
 24 46  1  0
 26 47  1  0
 26 48  1  0
 27 49  1  0
 27 50  1  0
 28 51  1  0
M  CHG  1  11  -1
M  END
>  <UniqueID>  (29) 
27

>  <SMILES>  (29) 
O=C(COc1ccccc1)[N-]CCSc1ccc(S(=O)(=O)N2CCOCC2)cn1

>  <Energy>  (29) 
56.870786356264894

>  <Genealogy>  (29) 
O=C(COc1ccccc1)[N-]CCSc1ccc(S(=O)(=O)N2CCOCC2)cn1 (protonated)
O=C(COc1ccccc1)[N-]CCSc1ccc(S(=O)(=O)N2CCOCC2)cn1 (3D coordinates assigned)
O=C(COc1ccccc1)[N-]CCSc1ccc(S(=O)(=O)N2CCOCC2)cn1 (nonaromatic ring conformer: 56.870786356264894 kcal/mol)

>  <smiles>  (29) 
O=C(COc1ccccc1)NCCSc1ccc(S(=O)(=O)N2CCOCC2)cn1

>  <score_type>  (29) 
oracle

>  <origin>  (29) 
adg

>  <m_score__min__energy>  (29) 
-10.42

>  <m_primary>  (29) 
energy

$$$$
29:0
     RDKit          3D

 22 23  0  0  0  0  0  0  0  0999 V2000
   57.7180   33.4520   47.0260 C   0  0  0  0  0  0  0  0  0  0  0  0
   58.1080   33.8430   45.3340 S   0  0  0  0  0  0  0  0  0  0  0  0
   59.3580   34.6740   45.2600 O   0  0  0  0  0  0  0  0  0  0  0  0
   56.9710   34.6340   44.7520 O   0  0  0  0  0  0  0  0  0  0  0  0
   58.3070   32.3850   44.4130 N   0  0  0  0  0  0  0  0  0  0  0  0
   57.6590   31.1360   44.7120 C   0  0  0  0  0  0  0  0  0  0  0  0
   56.3990   30.8570   44.1200 C   0  0  0  0  0  0  0  0  0  0  0  0
   55.7250   29.6490   44.3810 C   0  0  0  0  0  0  0  0  0  0  0  0
   56.3380   28.7400   45.2340 C   0  0  0  0  0  0  0  0  0  0  0  0
   55.8860   27.5350   45.6190 N   0  0  0  0  0  0  0  0  0  0  0  0
   56.8020   27.0160   46.4350 N   0  0  0  0  0  0  0  0  0  0  0  0
   57.8310   27.8880   46.5660 C   0  0  0  0  0  0  0  0  0  0  0  0
   57.5480   28.9950   45.8040 C   0  0  0  0  0  0  0  0  0  0  0  0
   58.2490   30.1750   45.5730 C   0  0  0  0  0  0  0  0  0  0  0  0
   58.3339   34.0695   47.6964 H   0  0  0  0  0  0  0  0  0  0  0  0
   56.6536   33.6567   47.2137 H   0  0  0  0  0  0  0  0  0  0  0  0
   57.9254   32.3882   47.2137 H   0  0  0  0  0  0  0  0  0  0  0  0
   58.9010   32.4510   43.5550 H   0  0  0  0  0  0  0  0  0  0  0  0
   55.9420   31.5969   43.4464 H   0  0  0  0  0  0  0  0  0  0  0  0
   54.7474   29.4325   43.9256 H   0  0  0  0  0  0  0  0  0  0  0  0
   58.7340   27.7359   47.1754 H   0  0  0  0  0  0  0  0  0  0  0  0
   59.2273   30.3564   46.0421 H   0  0  0  0  0  0  0  0  0  0  0  0
  1  2  1  0
  2  3  2  0
  2  4  2  0
  2  5  1  0
  5  6  1  0
  6  7  2  0
  7  8  1  0
  8  9  2  0
  9 10  1  0
 10 11  1  0
 11 12  2  0
 12 13  1  0
 13 14  2  0
 14  6  1  0
 13  9  1  0
  1 15  1  0
  1 16  1  0
  1 17  1  0
  5 18  1  0
  7 19  1  0
  8 20  1  0
 12 21  1  0
 14 22  1  0
M  CHG  1  10  -1
M  END
>  <UniqueID>  (30) 
28

>  <SMILES>  (30) 
CS(=O)(=O)Nc1ccc2[n-]ncc2c1

>  <Energy>  (30) 
58.80954330025806

>  <Genealogy>  (30) 
CS(=O)(=O)Nc1ccc2[n-]ncc2c1 (protonated)
CS(=O)(=O)Nc1ccc2[n-]ncc2c1 (3D coordinates assigned)
CS(=O)(=O)Nc1ccc2[n-]ncc2c1 (optimized conformer: 58.80954330025806 kcal/mol)

>  <smiles>  (30) 
CS(=O)(=O)Nc1ccc2[nH]ncc2c1

>  <score_type>  (30) 
oracle

>  <origin>  (30) 
adg

>  <m_score__min__energy>  (30) 
-8.5

>  <m_primary>  (30) 
energy

$$$$
30:0
     RDKit          3D

 42 44  0  0  0  0  0  0  0  0999 V2000
   55.1770   26.3240   45.9770 N   0  0  0  0  0  0  0  0  0  0  0  0
   56.8820   26.6020   45.9850 S   0  0  0  0  0  0  0  0  0  0  0  0
   57.3890   26.5740   47.4000 O   0  0  0  0  0  0  0  0  0  0  0  0
   57.5720   25.5190   45.2030 O   0  0  0  0  0  0  0  0  0  0  0  0
   57.2220   28.1670   45.2570 C   0  0  0  0  0  0  0  0  0  0  0  0
   58.5450   28.6040   45.0990 C   0  0  0  0  0  0  0  0  0  0  0  0
   58.8090   29.8490   44.5200 C   0  0  0  0  0  0  0  0  0  0  0  0
   57.7590   30.6610   44.0780 C   0  0  0  0  0  0  0  0  0  0  0  0
   58.0560   31.9370   43.4850 N   0  0  0  0  0  0  0  0  0  0  0  0
   57.7770   33.0750   44.0020 N   0  0  0  0  0  0  0  0  0  0  0  0
   58.1470   33.4840   45.3270 C   0  0  0  0  0  0  0  0  0  0  0  0
   57.7430   32.7520   46.4500 C   0  0  0  0  0  0  0  0  0  0  0  0
   58.1880   33.1210   47.7170 C   0  0  0  0  0  0  0  0  0  0  0  0
   59.0420   34.2250   47.8520 C   0  0  0  0  0  0  0  0  0  0  0  0
   59.6270   34.5660   49.1980 C   0  0  0  0  0  0  0  0  0  0  0  0
   61.0540   34.4990   49.1630 O   0  0  0  0  0  0  0  0  0  0  0  0
   61.8030   33.5330   48.4690 C   0  0  0  0  0  0  0  0  0  0  0  0
   61.4540   32.1680   48.4550 C   0  0  0  0  0  0  0  0  0  0  0  0
   62.2550   31.2440   47.7760 C   0  0  0  0  0  0  0  0  0  0  0  0
   63.4000   31.6710   47.1000 C   0  0  0  0  0  0  0  0  0  0  0  0
   63.7440   33.0270   47.0970 C   0  0  0  0  0  0  0  0  0  0  0  0
   62.9460   33.9530   47.7770 C   0  0  0  0  0  0  0  0  0  0  0  0
   59.3610   34.9720   46.7530 N   0  0  0  0  0  0  0  0  0  0  0  0
   58.9250   34.6300   45.5100 C   0  0  0  0  0  0  0  0  0  0  0  0
   56.4320   30.2430   44.2840 C   0  0  0  0  0  0  0  0  0  0  0  0
   56.1670   28.9980   44.8600 C   0  0  0  0  0  0  0  0  0  0  0  0
   54.7420   27.0770   46.5560 H   0  0  0  0  0  0  0  0  0  0  0  0
   59.3771   27.9659   45.4313 H   0  0  0  0  0  0  0  0  0  0  0  0
   59.8485   30.1921   44.4114 H   0  0  0  0  0  0  0  0  0  0  0  0
   57.0748   31.8863   46.3317 H   0  0  0  0  0  0  0  0  0  0  0  0
   57.8725   32.5517   48.6037 H   0  0  0  0  0  0  0  0  0  0  0  0
   59.3206   35.5850   49.4767 H   0  0  0  0  0  0  0  0  0  0  0  0
   59.2580   33.8396   49.9370 H   0  0  0  0  0  0  0  0  0  0  0  0
   60.5489   31.8280   48.9796 H   0  0  0  0  0  0  0  0  0  0  0  0
   61.9824   30.1783   47.7745 H   0  0  0  0  0  0  0  0  0  0  0  0
   64.0308   30.9418   46.5704 H   0  0  0  0  0  0  0  0  0  0  0  0
   64.6423   33.3652   46.5597 H   0  0  0  0  0  0  0  0  0  0  0  0
   63.2181   35.0188   47.7682 H   0  0  0  0  0  0  0  0  0  0  0  0
   59.9760   35.8100   46.8510 H   0  0  0  0  0  0  0  0  0  0  0  0
   59.1862   35.2584   44.6458 H   0  0  0  0  0  0  0  0  0  0  0  0
   55.5993   30.8990   43.9904 H   0  0  0  0  0  0  0  0  0  0  0  0
   55.1268   28.6696   45.0021 H   0  0  0  0  0  0  0  0  0  0  0  0
  1  2  1  0
  2  3  2  0
  2  4  2  0
  2  5  1  0
  5  6  2  0
  6  7  1  0
  7  8  2  0
  8  9  1  0
  9 10  2  3
 10 11  1  0
 11 12  2  0
 12 13  1  0
 13 14  2  0
 14 15  1  0
 15 16  1  0
 16 17  1  0
 17 18  2  0
 18 19  1  0
 19 20  2  0
 20 21  1  0
 21 22  2  0
 14 23  1  0
 23 24  2  0
  8 25  1  0
 25 26  2  0
 26  5  1  0
 24 11  1  0
 22 17  1  0
  1 27  1  0
  6 28  1  0
  7 29  1  0
 12 30  1  0
 13 31  1  0
 15 32  1  0
 15 33  1  0
 18 34  1  0
 19 35  1  0
 20 36  1  0
 21 37  1  0
 22 38  1  0
 23 39  1  0
 24 40  1  0
 25 41  1  0
 26 42  1  0
M  CHG  2   1  -1  23   1
M  END
>  <UniqueID>  (31) 
29

>  <SMILES>  (31) 
[NH-]S(=O)(=O)c1ccc(N=Nc2ccc(COc3ccccc3)[nH+]c2)cc1

>  <Energy>  (31) 
55.54498001620656

>  <Genealogy>  (31) 
[NH-]S(=O)(=O)c1ccc(N=Nc2ccc(COc3ccccc3)[nH+]c2)cc1 (protonated)
[NH-]S(=O)(=O)c1ccc(N=Nc2ccc(COc3ccccc3)[nH+]c2)cc1 (3D coordinates assigned)
[NH-]S(=O)(=O)c1ccc(N=Nc2ccc(COc3ccccc3)[nH+]c2)cc1 (optimized conformer: 55.54498001620656 kcal/mol)

>  <smiles>  (31) 
NS(=O)(=O)c1ccc(N=Nc2ccc(COc3ccccc3)nc2)cc1

>  <score_type>  (31) 
oracle

>  <origin>  (31) 
adg

>  <m_score__min__energy>  (31) 
-9.8800000000000008

>  <m_primary>  (31) 
energy

$$$$
31:0
     RDKit          3D

 73 78  0  0  0  0  0  0  0  0999 V2000
   55.2390   26.1620   45.9960 O   0  0  0  0  0  0  0  0  0  0  0  0
   56.4230   25.9620   45.6080 C   0  0  0  0  0  0  0  0  0  0  0  0
   56.7620   24.6570   44.9860 C   0  0  0  0  0  0  0  0  0  0  0  0
   55.9220   24.1040   44.0020 C   0  0  0  0  0  0  0  0  0  0  0  0
   56.2500   22.8880   43.3930 C   0  0  0  0  0  0  0  0  0  0  0  0
   57.4160   22.2110   43.7580 C   0  0  0  0  0  0  0  0  0  0  0  0
   58.2660   22.7570   44.7240 C   0  0  0  0  0  0  0  0  0  0  0  0
   57.9470   23.9760   45.3290 C   0  0  0  0  0  0  0  0  0  0  0  0
   57.4210   27.0440   45.7800 C   0  0  0  0  0  0  0  0  0  0  0  0
   58.2380   27.0980   46.9230 C   0  0  0  0  0  0  0  0  0  0  0  0
   59.1810   28.1170   47.0690 C   0  0  0  0  0  0  0  0  0  0  0  0
   59.3000   29.1080   46.0930 C   0  0  0  0  0  0  0  0  0  0  0  0
   58.4600   29.1010   44.9690 C   0  0  0  0  0  0  0  0  0  0  0  0
   58.5300   30.1480   43.9880 N   0  0  0  0  0  0  0  0  0  0  0  0
   57.6110   31.6110   44.1610 S   0  0  0  0  0  0  0  0  0  0  0  0
   57.6260   32.3850   42.8730 O   0  0  0  0  0  0  0  0  0  0  0  0
   56.1890   31.2710   44.5040 O   0  0  0  0  0  0  0  0  0  0  0  0
   58.3150   32.5590   45.4650 C   0  0  0  0  0  0  0  0  0  0  0  0
   59.1840   33.6310   45.1710 C   0  0  0  0  0  0  0  0  0  0  0  0
   59.9110   34.2530   46.1950 C   0  0  0  0  0  0  0  0  0  0  0  0
   59.7790   33.7690   47.5010 C   0  0  0  0  0  0  0  0  0  0  0  0
   58.8240   32.8330   47.8010 C   0  0  0  0  0  0  0  0  0  0  0  0
   58.1020   32.1820   46.8030 C   0  0  0  0  0  0  0  0  0  0  0  0
   58.7220   32.6590   49.2690 C   0  0  0  0  0  0  0  0  0  0  0  0
   59.6050   33.8110   49.7950 C   0  0  0  0  0  0  0  0  0  0  0  0
   60.4540   34.2360   48.6680 N   0  0  0  0  0  0  0  0  0  0  0  0
   61.9270   34.2080   48.8250 C   0  0  0  0  0  0  0  0  0  0  0  0
   62.3220   33.9180   50.2870 C   0  0  0  0  0  0  0  0  0  0  0  0
   63.8490   33.8910   50.4370 C   0  0  0  0  0  0  0  0  0  0  0  0
   64.4360   32.8770   49.5380 N   0  0  0  0  0  0  0  0  0  0  0  0
   65.8930   32.7730   49.7560 C   0  0  0  0  0  0  0  0  0  0  0  0
   66.1960   31.6690   50.7320 C   0  0  0  0  0  0  0  0  0  0  0  0
   67.4960   31.4880   51.2310 C   0  0  0  0  0  0  0  0  0  0  0  0
   67.7570   30.4780   52.1620 C   0  0  0  0  0  0  0  0  0  0  0  0
   66.7240   29.6430   52.6020 C   0  0  0  0  0  0  0  0  0  0  0  0
   65.4330   29.8040   52.0970 C   0  0  0  0  0  0  0  0  0  0  0  0
   64.4300   28.9950   52.5260 F   0  0  0  0  0  0  0  0  0  0  0  0
   65.1660   30.8140   51.1660 C   0  0  0  0  0  0  0  0  0  0  0  0
   64.1350   33.2100   48.1260 C   0  0  0  0  0  0  0  0  0  0  0  0
   62.6190   33.1900   47.9000 C   0  0  0  0  0  0  0  0  0  0  0  0
   57.5300   28.0610   44.8130 C   0  0  0  0  0  0  0  0  0  0  0  0
   55.0018   24.6310   43.7098 H   0  0  0  0  0  0  0  0  0  0  0  0
   55.5875   22.4636   42.6242 H   0  0  0  0  0  0  0  0  0  0  0  0
   57.6650   21.2492   43.2858 H   0  0  0  0  0  0  0  0  0  0  0  0
   59.1869   22.2268   45.0084 H   0  0  0  0  0  0  0  0  0  0  0  0
   58.6265   24.4072   46.0789 H   0  0  0  0  0  0  0  0  0  0  0  0
   58.1336   26.3331   47.7066 H   0  0  0  0  0  0  0  0  0  0  0  0
   59.8320   28.1391   47.9554 H   0  0  0  0  0  0  0  0  0  0  0  0
   60.0564   29.8987   46.2057 H   0  0  0  0  0  0  0  0  0  0  0  0
   58.8900   29.9210   43.0350 H   0  0  0  0  0  0  0  0  0  0  0  0
   59.2913   33.9801   44.1334 H   0  0  0  0  0  0  0  0  0  0  0  0
   60.5721   35.1046   45.9763 H   0  0  0  0  0  0  0  0  0  0  0  0
   57.3812   31.3905   47.0560 H   0  0  0  0  0  0  0  0  0  0  0  0
   57.6822   32.7646   49.6120 H   0  0  0  0  0  0  0  0  0  0  0  0
   59.0374   31.6651   49.6192 H   0  0  0  0  0  0  0  0  0  0  0  0
   58.9761   34.6476   50.1336 H   0  0  0  0  0  0  0  0  0  0  0  0
   60.2142   33.4860   50.6513 H   0  0  0  0  0  0  0  0  0  0  0  0
   62.2752   35.2099   48.5337 H   0  0  0  0  0  0  0  0  0  0  0  0
   61.9085   34.7039   50.9362 H   0  0  0  0  0  0  0  0  0  0  0  0
   61.9192   32.9360   50.5758 H   0  0  0  0  0  0  0  0  0  0  0  0
   64.2559   34.8807   50.1821 H   0  0  0  0  0  0  0  0  0  0  0  0
   64.1013   33.6354   51.4767 H   0  0  0  0  0  0  0  0  0  0  0  0
   66.3890   32.5572   48.7982 H   0  0  0  0  0  0  0  0  0  0  0  0
   66.2630   33.7247   50.1652 H   0  0  0  0  0  0  0  0  0  0  0  0
   68.3111   32.1425   50.8886 H   0  0  0  0  0  0  0  0  0  0  0  0
   68.7771   30.3395   52.5496 H   0  0  0  0  0  0  0  0  0  0  0  0
   66.9296   28.8594   53.3462 H   0  0  0  0  0  0  0  0  0  0  0  0
   64.1468   30.9401   50.7718 H   0  0  0  0  0  0  0  0  0  0  0  0
   64.5254   34.2123   47.8959 H   0  0  0  0  0  0  0  0  0  0  0  0
   64.6103   32.4673   47.4683 H   0  0  0  0  0  0  0  0  0  0  0  0
   62.4049   33.4477   46.8523 H   0  0  0  0  0  0  0  0  0  0  0  0
   62.2369   32.1836   48.1263 H   0  0  0  0  0  0  0  0  0  0  0  0
   56.8798   28.0407   43.9260 H   0  0  0  0  0  0  0  0  0  0  0  0
  1  2  2  0
  2  3  1  0
  3  4  2  0
  4  5  1  0
  5  6  2  0
  6  7  1  0
  7  8  2  0
  2  9  1  0
  9 10  2  0
 10 11  1  0
 11 12  2  0
 12 13  1  0
 13 14  1  0
 14 15  1  0
 15 16  2  0
 15 17  2  0
 15 18  1  0
 18 19  2  0
 19 20  1  0
 20 21  2  0
 21 22  1  0
 22 23  2  0
 22 24  1  0
 24 25  1  0
 25 26  1  0
 26 27  1  0
 27 28  1  0
 28 29  1  0
 29 30  1  0
 30 31  1  0
 31 32  1  0
 32 33  2  0
 33 34  1  0
 34 35  2  0
 35 36  1  0
 36 37  1  0
 36 38  2  0
 30 39  1  0
 39 40  1  0
 13 41  2  0
  8  3  1  0
 41  9  1  0
 23 18  1  0
 40 27  1  0
 26 21  1  0
 38 32  1  0
  4 42  1  0
  5 43  1  0
  6 44  1  0
  7 45  1  0
  8 46  1  0
 10 47  1  0
 11 48  1  0
 12 49  1  0
 14 50  1  0
 19 51  1  0
 20 52  1  0
 23 53  1  0
 24 54  1  0
 24 55  1  0
 25 56  1  0
 25 57  1  0
 27 58  1  0
 28 59  1  0
 28 60  1  0
 29 61  1  0
 29 62  1  0
 31 63  1  0
 31 64  1  0
 33 65  1  0
 34 66  1  0
 35 67  1  0
 38 68  1  0
 39 69  1  0
 39 70  1  0
 40 71  1  0
 40 72  1  0
 41 73  1  0
M  END
>  <UniqueID>  (32) 
30

>  <SMILES>  (32) 
O=C(c1ccccc1)c1cccc(NS(=O)(=O)c2ccc3c(c2)CCN3C2CCN(Cc3cccc(F)c3)CC2)c1

>  <Energy>  (32) 
107.56904423880307

>  <Genealogy>  (32) 
O=C(c1ccccc1)c1cccc(NS(=O)(=O)c2ccc3c(c2)CCN3C2CCN(Cc3cccc(F)c3)CC2)c1 (3D coordinates assigned)
O=C(c1ccccc1)c1cccc(NS(=O)(=O)c2ccc3c(c2)CCN3C2CCN(Cc3cccc(F)c3)CC2)c1 (nonaromatic ring conformer: 107.56904423880307 kcal/mol)

>  <smiles>  (32) 
O=C(c1ccccc1)c1cccc(NS(=O)(=O)c2ccc3c(c2)CCN3C2CCN(Cc3cccc(F)c3)CC2)c1

>  <score_type>  (32) 
oracle

>  <origin>  (32) 
adg

>  <m_score__min__energy>  (32) 
-13.09

>  <m_primary>  (32) 
energy

$$$$
32:0
     RDKit          3D

 45 47  0  0  0  0  0  0  0  0999 V2000
   55.4470   26.7000   45.8810 N   0  0  0  0  0  0  0  0  0  0  0  0
   56.6520   25.4960   46.1880 S   0  0  0  0  0  0  0  0  0  0  0  0
   56.3190   24.7800   47.4690 O   0  0  0  0  0  0  0  0  0  0  0  0
   56.6630   24.4940   45.0670 O   0  0  0  0  0  0  0  0  0  0  0  0
   58.2360   26.2710   46.3130 C   0  0  0  0  0  0  0  0  0  0  0  0
   59.3960   25.4780   46.3740 C   0  0  0  0  0  0  0  0  0  0  0  0
   60.6550   26.0700   46.5160 C   0  0  0  0  0  0  0  0  0  0  0  0
   60.7650   27.4590   46.6060 C   0  0  0  0  0  0  0  0  0  0  0  0
   59.6170   28.2580   46.5550 C   0  0  0  0  0  0  0  0  0  0  0  0
   58.3480   27.6750   46.4140 C   0  0  0  0  0  0  0  0  0  0  0  0
   57.1780   28.4990   46.3190 N   0  0  0  0  0  0  0  0  0  0  0  0
   56.6800   29.2570   44.8410 S   0  0  0  0  0  0  0  0  0  0  0  0
   57.0380   28.4060   43.6510 O   0  0  0  0  0  0  0  0  0  0  0  0
   55.1860   29.4440   44.8580 O   0  0  0  0  0  0  0  0  0  0  0  0
   57.4740   30.8230   44.7460 C   0  0  0  0  0  0  0  0  0  0  0  0
   57.6870   31.4320   43.5010 C   0  0  0  0  0  0  0  0  0  0  0  0
   58.1490   32.7460   43.4350 C   0  0  0  0  0  0  0  0  0  0  0  0
   58.3840   33.4690   44.6080 C   0  0  0  0  0  0  0  0  0  0  0  0
   58.1850   32.8650   45.8610 C   0  0  0  0  0  0  0  0  0  0  0  0
   58.3800   33.5880   47.0820 N   0  0  0  0  0  0  0  0  0  0  0  0
   59.3920   33.0260   48.3700 S   0  0  0  0  0  0  0  0  0  0  0  0
   59.3160   33.9960   49.5190 O   0  0  0  0  0  0  0  0  0  0  0  0
   58.9290   31.6760   48.8480 O   0  0  0  0  0  0  0  0  0  0  0  0
   61.0550   32.9470   47.7860 C   0  0  0  0  0  0  0  0  0  0  0  0
   61.8900   31.8820   48.1550 C   0  0  0  0  0  0  0  0  0  0  0  0
   63.1900   31.8040   47.6470 C   0  0  0  0  0  0  0  0  0  0  0  0
   63.6610   32.7850   46.7680 C   0  0  0  0  0  0  0  0  0  0  0  0
   62.8320   33.8460   46.3950 C   0  0  0  0  0  0  0  0  0  0  0  0
   61.5290   33.9250   46.8970 C   0  0  0  0  0  0  0  0  0  0  0  0
   57.7520   31.5320   45.9220 C   0  0  0  0  0  0  0  0  0  0  0  0
   55.8080   27.3000   45.1070 H   0  0  0  0  0  0  0  0  0  0  0  0
   55.3890   27.3040   46.7340 H   0  0  0  0  0  0  0  0  0  0  0  0
   59.3122   24.3831   46.3095 H   0  0  0  0  0  0  0  0  0  0  0  0
   61.5574   25.4422   46.5567 H   0  0  0  0  0  0  0  0  0  0  0  0
   61.7548   27.9258   46.7171 H   0  0  0  0  0  0  0  0  0  0  0  0
   59.7100   29.3518   46.6260 H   0  0  0  0  0  0  0  0  0  0  0  0
   57.4893   30.8723   42.5749 H   0  0  0  0  0  0  0  0  0  0  0  0
   58.3291   33.2152   42.4565 H   0  0  0  0  0  0  0  0  0  0  0  0
   58.7255   34.5131   44.5501 H   0  0  0  0  0  0  0  0  0  0  0  0
   61.5217   31.1079   48.8443 H   0  0  0  0  0  0  0  0  0  0  0  0
   63.8441   30.9693   47.9391 H   0  0  0  0  0  0  0  0  0  0  0  0
   64.6846   32.7210   46.3703 H   0  0  0  0  0  0  0  0  0  0  0  0
   63.2041   34.6191   45.7066 H   0  0  0  0  0  0  0  0  0  0  0  0
   60.8739   34.7553   46.5946 H   0  0  0  0  0  0  0  0  0  0  0  0
   57.6301   31.0407   46.8986 H   0  0  0  0  0  0  0  0  0  0  0  0
  1  2  1  0
  2  3  2  0
  2  4  2  0
  2  5  1  0
  5  6  2  0
  6  7  1  0
  7  8  2  0
  8  9  1  0
  9 10  2  0
 10 11  1  0
 11 12  1  0
 12 13  2  0
 12 14  2  0
 12 15  1  0
 15 16  2  0
 16 17  1  0
 17 18  2  0
 18 19  1  0
 19 20  1  0
 20 21  1  0
 21 22  2  0
 21 23  2  0
 21 24  1  0
 24 25  2  0
 25 26  1  0
 26 27  2  0
 27 28  1  0
 28 29  2  0
 19 30  2  0
 10  5  1  0
 30 15  1  0
 29 24  1  0
  1 31  1  0
  1 32  1  0
  6 33  1  0
  7 34  1  0
  8 35  1  0
  9 36  1  0
 16 37  1  0
 17 38  1  0
 18 39  1  0
 25 40  1  0
 26 41  1  0
 27 42  1  0
 28 43  1  0
 29 44  1  0
 30 45  1  0
M  CHG  2  11  -1  20  -1
M  END
>  <UniqueID>  (33) 
31

>  <SMILES>  (33) 
NS(=O)(=O)c1ccccc1[N-]S(=O)(=O)c1cccc([N-]S(=O)(=O)c2ccccc2)c1

>  <Energy>  (33) 
54.91075726524188

>  <Genealogy>  (33) 
NS(=O)(=O)c1ccccc1[N-]S(=O)(=O)c1cccc([N-]S(=O)(=O)c2ccccc2)c1 (protonated)
NS(=O)(=O)c1ccccc1[N-]S(=O)(=O)c1cccc([N-]S(=O)(=O)c2ccccc2)c1 (3D coordinates assigned)
NS(=O)(=O)c1ccccc1[N-]S(=O)(=O)c1cccc([N-]S(=O)(=O)c2ccccc2)c1 (optimized conformer: 54.91075726524188 kcal/mol)

>  <smiles>  (33) 
NS(=O)(=O)c1ccccc1NS(=O)(=O)c1cccc(NS(=O)(=O)c2ccccc2)c1

>  <score_type>  (33) 
oracle

>  <origin>  (33) 
adg

>  <m_score__min__energy>  (33) 
-12.550000000000001

>  <m_primary>  (33) 
energy

$$$$
33:0
     RDKit          3D

 44 46  0  0  0  0  0  0  0  0999 V2000
   56.3490   24.4510   47.3890 C   0  0  0  0  0  0  0  0  0  0  0  0
   56.3910   25.7120   46.5920 C   0  0  0  0  0  0  0  0  0  0  0  0
   57.4850   26.1930   45.8980 C   0  0  0  0  0  0  0  0  0  0  0  0
   56.9790   27.3210   45.2810 C   0  0  0  0  0  0  0  0  0  0  0  0
   57.6190   28.1400   44.5030 N   0  0  0  0  0  0  0  0  0  0  0  0
   57.9200   29.8080   44.8800 S   0  0  0  0  0  0  0  0  0  0  0  0
   56.6310   30.4900   45.2480 O   0  0  0  0  0  0  0  0  0  0  0  0
   58.5340   30.4810   43.6820 O   0  0  0  0  0  0  0  0  0  0  0  0
   59.0280   29.9110   46.2460 C   0  0  0  0  0  0  0  0  0  0  0  0
   60.4000   30.0810   46.0270 C   0  0  0  0  0  0  0  0  0  0  0  0
   61.2810   30.1230   47.1090 C   0  0  0  0  0  0  0  0  0  0  0  0
   60.8000   30.0010   48.4160 C   0  0  0  0  0  0  0  0  0  0  0  0
   59.4190   29.8570   48.6500 C   0  0  0  0  0  0  0  0  0  0  0  0
   58.8770   29.7180   49.9710 N   0  0  0  0  0  0  0  0  0  0  0  0
   57.9910   30.6250   50.6420 C   0  0  0  0  0  0  0  0  0  0  0  0
   57.0200   30.1930   51.3190 O   0  0  0  0  0  0  0  0  0  0  0  0
   58.2280   32.1020   50.5250 C   0  0  0  0  0  0  0  0  0  0  0  0
   57.7850   32.6120   49.2230 N   0  0  0  0  0  0  0  0  0  0  0  0
   58.6700   33.0890   48.1870 C   0  0  0  0  0  0  0  0  0  0  0  0
   60.0050   33.4360   48.4850 C   0  0  0  0  0  0  0  0  0  0  0  0
   60.8510   33.9400   47.4940 C   0  0  0  0  0  0  0  0  0  0  0  0
   60.3800   34.1120   46.1930 C   0  0  0  0  0  0  0  0  0  0  0  0
   59.0650   33.7720   45.8770 C   0  0  0  0  0  0  0  0  0  0  0  0
   58.2070   33.2510   46.8550 C   0  0  0  0  0  0  0  0  0  0  0  0
   56.9170   32.8870   46.4630 O   0  0  0  0  0  0  0  0  0  0  0  0
   58.5440   29.7890   47.5570 C   0  0  0  0  0  0  0  0  0  0  0  0
   55.7110   27.4640   45.5870 O   0  0  0  0  0  0  0  0  0  0  0  0
   55.3190   26.5030   46.3740 N   0  0  0  0  0  0  0  0  0  0  0  0
   56.3571   24.6947   48.4616 H   0  0  0  0  0  0  0  0  0  0  0  0
   55.4318   23.8943   47.1464 H   0  0  0  0  0  0  0  0  0  0  0  0
   57.2271   23.8345   47.1464 H   0  0  0  0  0  0  0  0  0  0  0  0
   58.5037   25.7809   45.8491 H   0  0  0  0  0  0  0  0  0  0  0  0
   60.7844   30.1816   45.0013 H   0  0  0  0  0  0  0  0  0  0  0  0
   62.3589   30.2527   46.9324 H   0  0  0  0  0  0  0  0  0  0  0  0
   61.5016   30.0175   49.2630 H   0  0  0  0  0  0  0  0  0  0  0  0
   57.6706   32.6183   51.3204 H   0  0  0  0  0  0  0  0  0  0  0  0
   59.3077   32.2888   50.6217 H   0  0  0  0  0  0  0  0  0  0  0  0
   56.7540   32.6660   49.0740 H   0  0  0  0  0  0  0  0  0  0  0  0
   60.3840   33.3081   49.5097 H   0  0  0  0  0  0  0  0  0  0  0  0
   61.8906   34.2016   47.7406 H   0  0  0  0  0  0  0  0  0  0  0  0
   61.0456   34.5159   45.4159 H   0  0  0  0  0  0  0  0  0  0  0  0
   58.6975   33.9141   44.8500 H   0  0  0  0  0  0  0  0  0  0  0  0
   56.6760   31.9680   46.1170 H   0  0  0  0  0  0  0  0  0  0  0  0
   57.4680   29.6386   47.7289 H   0  0  0  0  0  0  0  0  0  0  0  0
  1  2  1  0
  2  3  2  0
  3  4  1  0
  4  5  2  3
  5  6  1  0
  6  7  2  0
  6  8  2  0
  6  9  1  0
  9 10  2  0
 10 11  1  0
 11 12  2  0
 12 13  1  0
 13 14  1  0
 14 15  1  0
 15 16  2  0
 15 17  1  0
 17 18  1  0
 18 19  1  0
 19 20  2  0
 20 21  1  0
 21 22  2  0
 22 23  1  0
 23 24  2  0
 24 25  1  0
 13 26  2  0
  4 27  1  0
 27 28  1  0
 28  2  1  0
 26  9  1  0
 24 19  1  0
  1 29  1  0
  1 30  1  0
  1 31  1  0
  3 32  1  0
 10 33  1  0
 11 34  1  0
 12 35  1  0
 17 36  1  0
 17 37  1  0
 18 38  1  0
 20 39  1  0
 21 40  1  0
 22 41  1  0
 23 42  1  0
 25 43  1  0
 26 44  1  0
M  CHG  2  14  -1  28  -1
M  END
>  <UniqueID>  (34) 
32

>  <SMILES>  (34) 
Cc1cc(=NS(=O)(=O)c2cccc([N-]C(=O)CNc3ccccc3O)c2)o[n-]1

>  <Energy>  (34) 
87.00411296152382

>  <Genealogy>  (34) 
Cc1cc(=NS(=O)(=O)c2cccc([N-]C(=O)CNc3ccccc3O)c2)o[n-]1 (protonated)
Cc1cc(=NS(=O)(=O)c2cccc([N-]C(=O)CNc3ccccc3O)c2)o[n-]1 (3D coordinates assigned)
Cc1cc(=NS(=O)(=O)c2cccc([N-]C(=O)CNc3ccccc3O)c2)o[n-]1 (optimized conformer: 87.00411296152382 kcal/mol)

>  <smiles>  (34) 
Cc1cc(=NS(=O)(=O)c2cccc(NC(=O)CNc3ccccc3O)c2)o[nH]1

>  <score_type>  (34) 
oracle

>  <origin>  (34) 
adg

>  <m_score__min__energy>  (34) 
-12.18

>  <m_primary>  (34) 
energy

$$$$
34:0
     RDKit          3D

 48 50  0  0  0  0  0  0  0  0999 V2000
   55.8610   31.7310   52.0440 O   0  0  0  0  0  0  0  0  0  0  0  0
   55.7350   30.4790   52.0060 C   0  0  0  0  0  0  0  0  0  0  0  0
   56.8880   29.6280   52.0610 N   0  0  0  0  0  0  0  0  0  0  0  0
   58.2680   29.9900   51.7250 C   0  0  2  0  0  0  0  0  0  0  0  0
   58.8410   31.0260   52.7110 C   0  0  0  0  0  0  0  0  0  0  0  0
   59.9410   31.8380   52.0750 C   0  0  0  0  0  0  0  0  0  0  0  0
   59.6630   33.0980   51.5170 C   0  0  0  0  0  0  0  0  0  0  0  0
   60.6760   33.8290   50.8880 C   0  0  0  0  0  0  0  0  0  0  0  0
   61.9700   33.3070   50.8070 C   0  0  0  0  0  0  0  0  0  0  0  0
   62.2520   32.0500   51.3510 C   0  0  0  0  0  0  0  0  0  0  0  0
   61.2410   31.3160   51.9800 C   0  0  0  0  0  0  0  0  0  0  0  0
   58.3740   30.4550   50.2970 C   0  0  0  0  0  0  0  0  0  0  0  0
   57.8420   31.5380   49.9330 O   0  0  0  0  0  0  0  0  0  0  0  0
   59.1340   29.6800   49.3640 N   0  0  0  0  0  0  0  0  0  0  0  0
   59.2310   30.0800   47.6820 S   0  0  0  0  0  0  0  0  0  0  0  0
   57.9990   29.5610   46.9940 O   0  0  0  0  0  0  0  0  0  0  0  0
   60.4450   29.4140   47.0980 O   0  0  0  0  0  0  0  0  0  0  0  0
   59.3260   31.8330   47.4530 C   0  0  0  0  0  0  0  0  0  0  0  0
   58.1530   32.5620   47.1900 C   0  0  0  0  0  0  0  0  0  0  0  0
   58.2030   33.9480   47.0130 C   0  0  0  0  0  0  0  0  0  0  0  0
   59.4240   34.6180   47.0850 C   0  0  0  0  0  0  0  0  0  0  0  0
   60.6000   33.9060   47.3300 C   0  0  0  0  0  0  0  0  0  0  0  0
   60.5610   32.5160   47.5120 C   0  0  0  0  0  0  0  0  0  0  0  0
   62.2270   31.6080   47.8110 Br  0  0  0  0  0  0  0  0  0  0  0  0
   54.4370   29.8860   51.8730 N   0  0  0  0  0  0  0  0  0  0  0  0
   53.2090   30.6250   51.9800 C   0  0  0  0  0  0  0  0  0  0  0  0
   52.7190   31.3110   50.8620 C   0  0  0  0  0  0  0  0  0  0  0  0
   51.5190   32.0200   50.9440 C   0  0  0  0  0  0  0  0  0  0  0  0
   51.0390   32.7160   49.8410 O   0  0  0  0  0  0  0  0  0  0  0  0
   50.8090   32.0260   52.1460 C   0  0  0  0  0  0  0  0  0  0  0  0
   51.2770   31.3310   53.2160 N   0  0  0  0  0  0  0  0  0  0  0  0
   52.4430   30.6320   53.1650 C   0  0  0  0  0  0  0  0  0  0  0  0
   52.8110   29.9760   54.1740 O   0  0  0  0  0  0  0  0  0  0  0  0
   58.8840   29.0839   51.8228 H   0  0  0  0  0  0  0  0  0  0  0  0
   58.0341   31.7027   53.0288 H   0  0  0  0  0  0  0  0  0  0  0  0
   59.2609   30.4886   53.5741 H   0  0  0  0  0  0  0  0  0  0  0  0
   58.6450   33.5105   51.5753 H   0  0  0  0  0  0  0  0  0  0  0  0
   60.4540   34.8161   50.4564 H   0  0  0  0  0  0  0  0  0  0  0  0
   62.7665   33.8849   50.3154 H   0  0  0  0  0  0  0  0  0  0  0  0
   63.2698   31.6381   51.2842 H   0  0  0  0  0  0  0  0  0  0  0  0
   61.4654   30.3253   52.4021 H   0  0  0  0  0  0  0  0  0  0  0  0
   57.1883   32.0378   47.1229 H   0  0  0  0  0  0  0  0  0  0  0  0
   57.2783   34.5106   46.8168 H   0  0  0  0  0  0  0  0  0  0  0  0
   59.4607   35.7089   46.9486 H   0  0  0  0  0  0  0  0  0  0  0  0
   61.5615   34.4379   47.3805 H   0  0  0  0  0  0  0  0  0  0  0  0
   54.3880   28.8880   51.5690 H   0  0  0  0  0  0  0  0  0  0  0  0
   53.2810   31.2913   49.9166 H   0  0  0  0  0  0  0  0  0  0  0  0
   49.8702   32.5936   52.2271 H   0  0  0  0  0  0  0  0  0  0  0  0
  1  2  2  0
  2  3  1  0
  3  4  1  0
  4  5  1  0
  5  6  1  0
  6  7  2  0
  7  8  1  0
  8  9  2  0
  9 10  1  0
 10 11  2  0
  4 12  1  0
 12 13  2  0
 12 14  1  0
 14 15  1  0
 15 16  2  0
 15 17  2  0
 15 18  1  0
 18 19  2  0
 19 20  1  0
 20 21  2  0
 21 22  1  0
 22 23  2  0
 23 24  1  0
  2 25  1  0
 25 26  1  0
 26 27  2  0
 27 28  1  0
 28 29  1  0
 28 30  2  0
 30 31  1  0
 31 32  1  0
 32 33  2  0
 11  6  1  0
 23 18  1  0
 32 26  1  0
  4 34  1  6
  5 35  1  0
  5 36  1  0
  7 37  1  0
  8 38  1  0
  9 39  1  0
 10 40  1  0
 11 41  1  0
 19 42  1  0
 20 43  1  0
 21 44  1  0
 22 45  1  0
 25 46  1  0
 27 47  1  0
 30 48  1  0
M  CHG  4   3  -1  14  -1  29  -1  31  -1
M  END
>  <UniqueID>  (35) 
33

>  <SMILES>  (35) 
O=C([N-][C@H](Cc1ccccc1)C(=O)[N-]S(=O)(=O)c1ccccc1Br)Nc1cc([O-])c[n-]c1=O

>  <Energy>  (35) 
57.884369436235055

>  <Genealogy>  (35) 
O=C([N-]C(Cc1ccccc1)C(=O)[N-]S(=O)(=O)c1ccccc1Br)Nc1cc([O-])c[n-]c1=O (protonated)
O=C([N-][C@H](Cc1ccccc1)C(=O)[N-]S(=O)(=O)c1ccccc1Br)Nc1cc([O-])c[n-]c1=O (chirality)
O=C([N-][C@H](Cc1ccccc1)C(=O)[N-]S(=O)(=O)c1ccccc1Br)Nc1cc([O-])c[n-]c1=O (3D coordinates assigned)
O=C([N-][C@H](Cc1ccccc1)C(=O)[N-]S(=O)(=O)c1ccccc1Br)Nc1cc([O-])c[n-]c1=O (optimized conformer: 57.884369436235055 kcal/mol)

>  <smiles>  (35) 
O=C(Nc1cc(O)c[nH]c1=O)NC(Cc1ccccc1)C(=O)NS(=O)(=O)c1ccccc1Br

>  <score_type>  (35) 
oracle

>  <origin>  (35) 
adg

>  <m_score__min__energy>  (35) 
-16.670000000000002

>  <m_primary>  (35) 
energy

$$$$
35:0
     RDKit          3D

 35 36  0  0  0  0  0  0  0  0999 V2000
   56.3950   29.4530   43.1890 C   0  0  0  0  0  0  0  0  0  0  0  0
   57.1210   30.2620   44.2150 C   0  0  0  0  0  0  0  0  0  0  0  0
   56.6560   31.4210   44.7260 N   0  0  0  0  0  0  0  0  0  0  0  0
   57.5480   31.8510   45.6070 N   0  0  0  0  0  0  0  0  0  0  0  0
   57.3890   33.0680   46.3920 C   0  0  0  0  0  0  0  0  0  0  0  0
   58.5750   30.9820   45.6810 C   0  0  0  0  0  0  0  0  0  0  0  0
   59.9730   31.1500   46.7340 Cl  0  0  0  0  0  0  0  0  0  0  0  0
   58.3450   29.9590   44.7880 C   0  0  0  0  0  0  0  0  0  0  0  0
   59.1840   28.7760   44.5570 C   0  0  0  0  0  0  0  0  0  0  0  0
   59.1620   27.6670   45.3130 C   0  0  0  0  0  0  0  0  0  0  0  0
   58.0390   27.2180   46.1620 C   0  0  0  0  0  0  0  0  0  0  0  0
   58.2480   27.0370   47.3910 O   0  0  0  0  0  0  0  0  0  0  0  0
   56.7420   26.9630   45.6200 N   0  0  0  0  0  0  0  0  0  0  0  0
   55.8470   25.5230   45.9620 S   0  0  0  0  0  0  0  0  0  0  0  0
   55.9710   25.2020   47.4250 O   0  0  0  0  0  0  0  0  0  0  0  0
   54.3990   25.7510   45.6310 O   0  0  0  0  0  0  0  0  0  0  0  0
   56.4650   24.2010   44.9800 C   0  0  0  0  0  0  0  0  0  0  0  0
   57.7000   23.6170   45.2950 C   0  0  0  0  0  0  0  0  0  0  0  0
   58.1960   22.5640   44.5200 C   0  0  0  0  0  0  0  0  0  0  0  0
   57.4620   22.0910   43.4270 C   0  0  0  0  0  0  0  0  0  0  0  0
   56.2330   22.6750   43.1070 C   0  0  0  0  0  0  0  0  0  0  0  0
   55.5240   22.2180   42.0450 F   0  0  0  0  0  0  0  0  0  0  0  0
   55.7350   23.7290   43.8790 C   0  0  0  0  0  0  0  0  0  0  0  0
   55.7415   28.7247   43.6915 H   0  0  0  0  0  0  0  0  0  0  0  0
   55.7862   30.1193   42.5602 H   0  0  0  0  0  0  0  0  0  0  0  0
   57.1231   28.9196   42.5602 H   0  0  0  0  0  0  0  0  0  0  0  0
   57.4214   32.8202   47.4632 H   0  0  0  0  0  0  0  0  0  0  0  0
   58.2034   33.7677   46.1527 H   0  0  0  0  0  0  0  0  0  0  0  0
   56.4222   33.5350   46.1527 H   0  0  0  0  0  0  0  0  0  0  0  0
   59.8791   28.8004   43.7048 H   0  0  0  0  0  0  0  0  0  0  0  0
   60.0621   27.0348   45.2993 H   0  0  0  0  0  0  0  0  0  0  0  0
   58.2798   23.9877   46.1532 H   0  0  0  0  0  0  0  0  0  0  0  0
   59.1648   22.1069   44.7702 H   0  0  0  0  0  0  0  0  0  0  0  0
   57.8516   21.2604   42.8201 H   0  0  0  0  0  0  0  0  0  0  0  0
   54.7692   24.1889   43.6226 H   0  0  0  0  0  0  0  0  0  0  0  0
  1  2  1  0
  2  3  2  0
  3  4  1  0
  4  5  1  0
  4  6  1  0
  6  7  1  0
  6  8  2  0
  8  9  1  0
  9 10  2  3
 10 11  1  0
 11 12  2  0
 11 13  1  0
 13 14  1  0
 14 15  2  0
 14 16  2  0
 14 17  1  0
 17 18  2  0
 18 19  1  0
 19 20  2  0
 20 21  1  0
 21 22  1  0
 21 23  2  0
  8  2  1  0
 23 17  1  0
  1 24  1  0
  1 25  1  0
  1 26  1  0
  5 27  1  0
  5 28  1  0
  5 29  1  0
  9 30  1  0
 10 31  1  0
 18 32  1  0
 19 33  1  0
 20 34  1  0
 23 35  1  0
M  CHG  1  13  -1
M  END
>  <UniqueID>  (36) 
34

>  <SMILES>  (36) 
Cc1nn(C)c(Cl)c1C=CC(=O)[N-]S(=O)(=O)c1cccc(F)c1

>  <Energy>  (36) 
73.41972406863908

>  <Genealogy>  (36) 
Cc1nn(C)c(Cl)c1C=CC(=O)[N-]S(=O)(=O)c1cccc(F)c1 (protonated)
Cc1nn(C)c(Cl)c1C=CC(=O)[N-]S(=O)(=O)c1cccc(F)c1 (3D coordinates assigned)
Cc1nn(C)c(Cl)c1C=CC(=O)[N-]S(=O)(=O)c1cccc(F)c1 (optimized conformer: 73.41972406863908 kcal/mol)

>  <smiles>  (36) 
Cc1nn(C)c(Cl)c1C=CC(=O)NS(=O)(=O)c1cccc(F)c1

>  <score_type>  (36) 
oracle

>  <origin>  (36) 
adg

>  <m_score__min__energy>  (36) 
-9.8499999999999996

>  <m_primary>  (36) 
energy

$$$$
36:0
     RDKit          3D

 45 47  0  0  0  0  0  0  0  0999 V2000
   57.9450   26.7920   44.6490 C   0  0  0  0  0  0  0  0  0  0  0  0
   58.6200   28.0460   44.1080 C   0  0  0  0  0  0  0  0  0  0  0  0
   57.6450   29.0050   43.7080 O   0  0  0  0  0  0  0  0  0  0  0  0
   56.9840   29.8570   44.5980 C   0  0  0  0  0  0  0  0  0  0  0  0
   55.7660   29.6710   44.8710 O   0  0  0  0  0  0  0  0  0  0  0  0
   57.6760   31.0270   45.1600 C   0  0  0  0  0  0  0  0  0  0  0  0
   57.3940   32.5970   44.5980 S   0  0  0  0  0  0  0  0  0  0  0  0
   58.5820   33.3210   45.5250 C   0  0  0  0  0  0  0  0  0  0  0  0
   58.9440   34.6650   45.5490 C   0  0  0  0  0  0  0  0  0  0  0  0
   60.0000   35.0530   46.3860 C   0  0  0  0  0  0  0  0  0  0  0  0
   60.6700   34.0980   47.1720 C   0  0  0  0  0  0  0  0  0  0  0  0
   60.2860   32.7470   47.1310 C   0  0  0  0  0  0  0  0  0  0  0  0
   59.2230   32.3630   46.2990 C   0  0  0  0  0  0  0  0  0  0  0  0
   58.7070   31.0610   46.1210 C   0  0  0  0  0  0  0  0  0  0  0  0
   59.2750   29.6780   47.0790 S   0  0  0  0  0  0  0  0  0  0  0  0
   60.4040   28.9520   46.4050 O   0  0  0  0  0  0  0  0  0  0  0  0
   58.1410   28.7060   47.2380 O   0  0  0  0  0  0  0  0  0  0  0  0
   59.7730   30.2240   48.6500 N   0  0  0  0  0  0  0  0  0  0  0  0
   58.7220   29.9720   49.6330 C   0  0  0  0  0  0  0  0  0  0  0  0
   58.5500   31.1980   50.4860 C   0  0  0  0  0  0  0  0  0  0  0  0
   59.4130   32.2940   50.3220 C   0  0  0  0  0  0  0  0  0  0  0  0
   59.2790   33.4250   51.1300 C   0  0  0  0  0  0  0  0  0  0  0  0
   58.2900   33.4690   52.1130 C   0  0  0  0  0  0  0  0  0  0  0  0
   57.4340   32.3800   52.2960 C   0  0  0  0  0  0  0  0  0  0  0  0
   57.5570   31.2330   51.4880 C   0  0  0  0  0  0  0  0  0  0  0  0
   56.7190   30.1160   51.6510 O   0  0  0  0  0  0  0  0  0  0  0  0
   55.4980   30.1190   52.3820 C   0  0  0  0  0  0  0  0  0  0  0  0
   57.9571   26.8145   45.7487 H   0  0  0  0  0  0  0  0  0  0  0  0
   56.9044   26.7537   44.2945 H   0  0  0  0  0  0  0  0  0  0  0  0
   58.4861   25.9023   44.2945 H   0  0  0  0  0  0  0  0  0  0  0  0
   59.2558   28.4820   44.8927 H   0  0  0  0  0  0  0  0  0  0  0  0
   59.2295   27.7728   43.2340 H   0  0  0  0  0  0  0  0  0  0  0  0
   58.4156   35.4031   44.9278 H   0  0  0  0  0  0  0  0  0  0  0  0
   60.3058   36.1088   46.4281 H   0  0  0  0  0  0  0  0  0  0  0  0
   61.4998   34.4108   47.8228 H   0  0  0  0  0  0  0  0  0  0  0  0
   60.8119   31.9997   47.7433 H   0  0  0  0  0  0  0  0  0  0  0  0
   57.7780   29.7470   49.1150 H   0  0  0  0  0  0  0  0  0  0  0  0
   58.9991   29.1145   50.2638 H   0  0  0  0  0  0  0  0  0  0  0  0
   60.1987   32.2612   49.5529 H   0  0  0  0  0  0  0  0  0  0  0  0
   59.9541   34.2823   50.9913 H   0  0  0  0  0  0  0  0  0  0  0  0
   58.1839   34.3629   52.7453 H   0  0  0  0  0  0  0  0  0  0  0  0
   56.6593   32.4187   53.0759 H   0  0  0  0  0  0  0  0  0  0  0  0
   55.7161   30.1185   53.4602 H   0  0  0  0  0  0  0  0  0  0  0  0
   54.9193   31.0186   52.1254 H   0  0  0  0  0  0  0  0  0  0  0  0
   54.9148   29.2223   52.1254 H   0  0  0  0  0  0  0  0  0  0  0  0
  1  2  1  0
  2  3  1  0
  3  4  1  0
  4  5  2  0
  4  6  1  0
  6  7  1  0
  7  8  1  0
  8  9  2  0
  9 10  1  0
 10 11  2  0
 11 12  1  0
 12 13  2  0
 13 14  1  0
 14 15  1  0
 15 16  2  0
 15 17  2  0
 15 18  1  0
 18 19  1  0
 19 20  1  0
 20 21  2  0
 21 22  1  0
 22 23  2  0
 23 24  1  0
 24 25  2  0
 25 26  1  0
 26 27  1  0
 14  6  2  0
 25 20  1  0
 13  8  1  0
  1 28  1  0
  1 29  1  0
  1 30  1  0
  2 31  1  0
  2 32  1  0
  9 33  1  0
 10 34  1  0
 11 35  1  0
 12 36  1  0
 19 37  1  0
 19 38  1  0
 21 39  1  0
 22 40  1  0
 23 41  1  0
 24 42  1  0
 27 43  1  0
 27 44  1  0
 27 45  1  0
M  CHG  1  18  -1
M  END
>  <UniqueID>  (37) 
35

>  <SMILES>  (37) 
CCOC(=O)c1sc2ccccc2c1S(=O)(=O)[N-]Cc1ccccc1OC

>  <Energy>  (37) 
74.18859273094643

>  <Genealogy>  (37) 
CCOC(=O)c1sc2ccccc2c1S(=O)(=O)[N-]Cc1ccccc1OC (protonated)
CCOC(=O)c1sc2ccccc2c1S(=O)(=O)[N-]Cc1ccccc1OC (3D coordinates assigned)
CCOC(=O)c1sc2ccccc2c1S(=O)(=O)[N-]Cc1ccccc1OC (optimized conformer: 74.18859273094643 kcal/mol)

>  <smiles>  (37) 
CCOC(=O)c1sc2ccccc2c1S(=O)(=O)NCc1ccccc1OC

>  <score_type>  (37) 
oracle

>  <origin>  (37) 
adg

>  <m_score__min__energy>  (37) 
-9.6500000000000004

>  <m_primary>  (37) 
energy

$$$$
37:0
     RDKit          3D

 33 34  0  0  0  0  0  0  0  0999 V2000
   55.5090   21.0130   44.5680 N   0  0  0  0  0  0  0  0  0  0  0  0
   56.2170   22.1870   43.5140 S   0  0  0  0  0  0  0  0  0  0  0  0
   56.9350   21.4880   42.3940 O   0  0  0  0  0  0  0  0  0  0  0  0
   55.1370   23.0550   42.9300 O   0  0  0  0  0  0  0  0  0  0  0  0
   57.3510   23.1780   44.4250 C   0  0  0  0  0  0  0  0  0  0  0  0
   58.5970   22.6600   44.8000 C   0  0  0  0  0  0  0  0  0  0  0  0
   59.4960   23.4480   45.5220 C   0  0  0  0  0  0  0  0  0  0  0  0
   59.1500   24.7520   45.8860 C   0  0  0  0  0  0  0  0  0  0  0  0
   57.8900   25.2740   45.5430 C   0  0  0  0  0  0  0  0  0  0  0  0
   57.5150   26.6190   45.8880 N   0  0  0  0  0  0  0  0  0  0  0  0
   58.4340   27.6120   46.3740 C   0  0  0  0  0  0  0  0  0  0  0  0
   59.6040   27.2900   46.7200 O   0  0  0  0  0  0  0  0  0  0  0  0
   57.9800   29.0270   46.5610 C   0  0  0  0  0  0  0  0  0  0  0  0
   57.5120   29.6020   45.2490 C   0  0  0  0  0  0  0  0  0  0  0  0
   58.2650   30.6150   44.6290 C   0  0  0  0  0  0  0  0  0  0  0  0
   57.8320   31.1830   43.4270 C   0  0  0  0  0  0  0  0  0  0  0  0
   56.6430   30.7520   42.8370 C   0  0  0  0  0  0  0  0  0  0  0  0
   55.8810   29.7540   43.4480 C   0  0  0  0  0  0  0  0  0  0  0  0
   56.3070   29.1790   44.6520 C   0  0  0  0  0  0  0  0  0  0  0  0
   55.5280   28.1900   45.2420 O   0  0  0  0  0  0  0  0  0  0  0  0
   57.0030   24.4840   44.7970 C   0  0  0  0  0  0  0  0  0  0  0  0
   54.5910   21.3990   44.8810 H   0  0  0  0  0  0  0  0  0  0  0  0
   58.8682   21.6300   44.5252 H   0  0  0  0  0  0  0  0  0  0  0  0
   60.4782   23.0414   45.8046 H   0  0  0  0  0  0  0  0  0  0  0  0
   59.8666   25.3731   46.4435 H   0  0  0  0  0  0  0  0  0  0  0  0
   56.5000   26.8630   45.8710 H   0  0  0  0  0  0  0  0  0  0  0  0
   57.1512   29.0500   47.2839 H   0  0  0  0  0  0  0  0  0  0  0  0
   58.8223   29.6273   46.9355 H   0  0  0  0  0  0  0  0  0  0  0  0
   59.2001   30.9626   45.0924 H   0  0  0  0  0  0  0  0  0  0  0  0
   58.4296   31.9710   42.9455 H   0  0  0  0  0  0  0  0  0  0  0  0
   56.3058   31.1987   41.8900 H   0  0  0  0  0  0  0  0  0  0  0  0
   54.9428   29.4182   42.9821 H   0  0  0  0  0  0  0  0  0  0  0  0
   56.0256   24.8929   44.5012 H   0  0  0  0  0  0  0  0  0  0  0  0
  1  2  1  0
  2  3  2  0
  2  4  2  0
  2  5  1  0
  5  6  2  0
  6  7  1  0
  7  8  2  0
  8  9  1  0
  9 10  1  0
 10 11  1  0
 11 12  2  0
 11 13  1  0
 13 14  1  0
 14 15  2  0
 15 16  1  0
 16 17  2  0
 17 18  1  0
 18 19  2  0
 19 20  1  0
  9 21  2  0
 21  5  1  0
 19 14  1  0
  1 22  1  0
  6 23  1  0
  7 24  1  0
  8 25  1  0
 10 26  1  0
 13 27  1  0
 13 28  1  0
 15 29  1  0
 16 30  1  0
 17 31  1  0
 18 32  1  0
 21 33  1  0
M  CHG  2   1  -1  20  -1
M  END
>  <UniqueID>  (38) 
36

>  <SMILES>  (38) 
[NH-]S(=O)(=O)c1cccc(NC(=O)Cc2ccccc2[O-])c1

>  <Energy>  (38) 
35.5394286280773

>  <Genealogy>  (38) 
[NH-]S(=O)(=O)c1cccc(NC(=O)Cc2ccccc2[O-])c1 (protonated)
[NH-]S(=O)(=O)c1cccc(NC(=O)Cc2ccccc2[O-])c1 (3D coordinates assigned)
[NH-]S(=O)(=O)c1cccc(NC(=O)Cc2ccccc2[O-])c1 (optimized conformer: 35.5394286280773 kcal/mol)

>  <smiles>  (38) 
NS(=O)(=O)c1cccc(NC(=O)Cc2ccccc2O)c1

>  <score_type>  (38) 
oracle

>  <origin>  (38) 
adg

>  <m_score__min__energy>  (38) 
-11.69

>  <m_primary>  (38) 
energy

$$$$
38:0
     RDKit          3D

 56 59  0  0  1  0  0  0  0  0999 V2000
   58.5840   33.1010   51.4300 C   0  0  0  0  0  0  0  0  0  0  0  0
   59.9890   32.8170   50.3460 S   0  0  0  0  0  0  0  0  0  0  0  0
   61.2040   32.7820   51.2120 O   0  0  0  0  0  0  0  0  0  0  0  0
   59.7150   31.5550   49.6140 O   0  0  0  0  0  0  0  0  0  0  0  0
   60.0950   34.2160   49.2520 C   0  0  0  0  0  0  0  0  0  0  0  0
   59.4870   33.9630   47.9380 C   0  0  0  0  0  0  0  0  0  0  0  0
   60.0450   34.3940   46.7480 C   0  0  0  0  0  0  0  0  0  0  0  0
   59.4570   34.1460   45.5180 C   0  0  0  0  0  0  0  0  0  0  0  0
   58.2720   33.4370   45.5210 C   0  0  0  0  0  0  0  0  0  0  0  0
   57.5660   33.1140   44.3290 N   0  0  0  0  0  0  0  0  0  0  0  0
   57.2630   31.9250   43.9550 C   0  0  0  0  0  0  0  0  0  0  0  0
   57.2130   30.9310   44.8700 N   0  0  0  0  0  0  0  0  0  0  0  0
   56.9030   29.6720   44.5420 C   0  0  0  0  0  0  0  0  0  0  0  0
   56.8280   28.6060   45.3970 O   0  0  0  0  0  0  0  0  0  0  0  0
   57.7300   28.1530   46.3050 C   0  0  0  0  0  0  0  0  0  0  0  0
   57.8170   26.8830   46.8170 C   0  0  0  0  0  0  0  0  0  0  0  0
   58.7790   26.5060   47.7480 C   0  0  0  0  0  0  0  0  0  0  0  0
   59.7000   27.4220   48.1980 C   0  0  0  0  0  0  0  0  0  0  0  0
   59.6330   28.7060   47.6980 C   0  0  0  0  0  0  0  0  0  0  0  0
   60.5970   29.6540   48.1720 N   0  0  0  0  0  0  0  0  0  0  0  0
   61.3190   30.5180   47.3270 C   0  0  0  0  0  0  0  0  0  0  0  0
   61.0770   30.4230   46.0770 O   0  0  0  0  0  0  0  0  0  0  0  0
   62.3000   31.4820   47.8200 C   0  0  0  0  0  0  0  0  0  0  0  0
   62.7340   32.5620   47.0790 C   0  0  0  0  0  0  0  0  0  0  0  0
   63.6620   33.4640   47.5580 C   0  0  0  0  0  0  0  0  0  0  0  0
   64.1810   33.2940   48.8170 C   0  0  0  0  0  0  0  0  0  0  0  0
   63.7590   32.2090   49.5880 C   0  0  0  0  0  0  0  0  0  0  0  0
   62.8230   31.3150   49.0830 C   0  0  0  0  0  0  0  0  0  0  0  0
   58.6780   29.0670   46.7780 C   0  0  0  0  0  0  0  0  0  0  0  0
   56.6330   29.4310   43.1990 C   0  0  0  0  0  0  0  0  0  0  0  0
   56.6880   30.4640   42.2720 C   0  0  0  0  0  0  0  0  0  0  0  0
   57.0060   31.7190   42.6490 N   0  0  0  0  0  0  0  0  0  0  0  0
   57.6900   32.9910   46.7090 C   0  0  0  0  0  0  0  0  0  0  0  0
   58.2890   33.2480   47.9250 C   0  0  0  0  0  0  0  0  0  0  0  0
   58.9105   33.0350   52.4784 H   0  0  0  0  0  0  0  0  0  0  0  0
   58.1687   34.1013   51.2376 H   0  0  0  0  0  0  0  0  0  0  0  0
   57.8128   32.3406   51.2376 H   0  0  0  0  0  0  0  0  0  0  0  0
   59.5782   35.0670   49.7197 H   0  0  0  0  0  0  0  0  0  0  0  0
   61.1622   34.4252   49.0867 H   0  0  0  0  0  0  0  0  0  0  0  0
   60.9909   34.9546   46.7792 H   0  0  0  0  0  0  0  0  0  0  0  0
   59.9137   34.4981   44.5813 H   0  0  0  0  0  0  0  0  0  0  0  0
   57.0929   26.1286   46.4756 H   0  0  0  0  0  0  0  0  0  0  0  0
   58.8029   25.4729   48.1250 H   0  0  0  0  0  0  0  0  0  0  0  0
   60.4670   27.1398   48.9343 H   0  0  0  0  0  0  0  0  0  0  0  0
   60.7420   29.6760   49.2060 H   0  0  0  0  0  0  0  0  0  0  0  0
   62.3249   32.7095   46.0686 H   0  0  0  0  0  0  0  0  0  0  0  0
   63.9831   34.3124   46.9358 H   0  0  0  0  0  0  0  0  0  0  0  0
   64.9210   34.0044   49.2142 H   0  0  0  0  0  0  0  0  0  0  0  0
   64.1688   32.0616   50.5981 H   0  0  0  0  0  0  0  0  0  0  0  0
   62.4960   30.4643   49.6989 H   0  0  0  0  0  0  0  0  0  0  0  0
   58.6584   30.1012   46.4038 H   0  0  0  0  0  0  0  0  0  0  0  0
   56.3739   28.4144   42.8684 H   0  0  0  0  0  0  0  0  0  0  0  0
   56.4689   30.2551   41.2145 H   0  0  0  0  0  0  0  0  0  0  0  0
   57.0560   32.5220   41.9680 H   0  0  0  0  0  0  0  0  0  0  0  0
   56.7448   32.4293   46.6752 H   0  0  0  0  0  0  0  0  0  0  0  0
   57.8327   32.8973   48.8624 H   0  0  0  0  0  0  0  0  0  0  0  0
  1  2  1  0
  2  3  2  0
  2  4  2  0
  2  5  1  0
  5  6  1  0
  6  7  2  0
  7  8  1  0
  8  9  2  0
  9 10  1  0
 10 11  2  0
 11 12  1  0
 12 13  2  0
 13 14  1  0
 14 15  1  0
 15 16  2  0
 16 17  1  0
 17 18  2  0
 18 19  1  0
 19 20  1  0
 20 21  1  0
 21 22  2  0
 21 23  1  0
 23 24  2  0
 24 25  1  0
 25 26  2  0
 26 27  1  0
 27 28  2  0
 19 29  2  0
 13 30  1  0
 30 31  2  0
 31 32  1  0
  9 33  1  0
 33 34  2  0
 34  6  1  0
 32 11  1  0
 29 15  1  0
 28 23  1  0
  1 35  1  0
  1 36  1  0
  1 37  1  0
  5 38  1  0
  5 39  1  0
  7 40  1  0
  8 41  1  0
 16 42  1  0
 17 43  1  0
 18 44  1  0
 20 45  1  0
 24 46  1  0
 25 47  1  0
 26 48  1  0
 27 49  1  0
 28 50  1  0
 29 51  1  0
 30 52  1  0
 31 53  1  0
 32 54  1  0
 33 55  1  0
 34 56  1  0
M  END
>  <smiles>  (39) 
CS(=O)(=O)Cc1ccc(N=c2nc(Oc3cccc(NC(=O)c4ccccc4)c3)cc[nH]2)cc1

>  <score_type>  (39) 
oracle

>  <origin>  (39) 
adg

>  <m_score__min__energy>  (39) 
-10.59

>  <m_primary>  (39) 
energy

$$$$
39:0
     RDKit          3D

 43 45  0  0  0  0  0  0  0  0999 V2000
   59.3583   35.6236   44.7011 H   0  0  0  0  0  0  0  0  0  0  0  0
   59.0180   34.6890   45.1710 C   0  0  0  0  0  0  0  0  0  0  0  0
   59.1910   34.4940   46.5450 C   0  0  0  0  0  0  0  0  0  0  0  0
   59.6714   35.2737   47.1544 H   0  0  0  0  0  0  0  0  0  0  0  0
   58.7540   33.3090   47.1450 C   0  0  0  0  0  0  0  0  0  0  0  0
   58.9710   33.0680   48.8700 Cl  0  0  0  0  0  0  0  0  0  0  0  0
   58.1490   32.3130   46.3690 C   0  0  0  0  0  0  0  0  0  0  0  0
   57.8060   31.3807   46.8414 H   0  0  0  0  0  0  0  0  0  0  0  0
   57.9800   32.5030   44.9900 C   0  0  0  0  0  0  0  0  0  0  0  0
   57.2590   31.2440   43.9900 S   0  0  0  0  0  0  0  0  0  0  0  0
   57.0790   31.7760   42.5960 O   0  0  0  0  0  0  0  0  0  0  0  0
   55.9200   30.8280   44.5340 O   0  0  0  0  0  0  0  0  0  0  0  0
   58.3110   29.8670   43.9520 N   0  0  0  0  0  0  0  0  0  0  0  0
   58.8260   29.6880   43.0610 H   0  0  0  0  0  0  0  0  0  0  0  0
   58.7460   29.2120   45.1540 C   0  0  0  0  0  0  0  0  0  0  0  0
   59.7500   29.7670   45.9630 C   0  0  0  0  0  0  0  0  0  0  0  0
   60.1955   30.7350   45.6899 H   0  0  0  0  0  0  0  0  0  0  0  0
   60.1900   29.1030   47.1120 C   0  0  0  0  0  0  0  0  0  0  0  0
   61.1960   29.7060   47.8830 O   0  0  0  0  0  0  0  0  0  0  0  0
   61.6790   31.0300   47.6810 C   0  0  0  0  0  0  0  0  0  0  0  0
   61.8538   31.5092   48.6556 H   0  0  0  0  0  0  0  0  0  0  0  0
   62.6219   30.9941   47.1157 H   0  0  0  0  0  0  0  0  0  0  0  0
   60.9344   31.6097   47.1157 H   0  0  0  0  0  0  0  0  0  0  0  0
   59.6210   27.8620   47.4530 C   0  0  0  0  0  0  0  0  0  0  0  0
   59.9604   27.3349   48.3569 H   0  0  0  0  0  0  0  0  0  0  0  0
   58.6220   27.2920   46.6460 C   0  0  0  0  0  0  0  0  0  0  0  0
   58.0470   25.9720   46.9920 C   0  0  0  0  0  0  0  0  0  0  0  0
   58.1770   25.5320   48.1650 O   0  0  0  0  0  0  0  0  0  0  0  0
   57.3050   25.1930   46.0420 N   0  0  0  0  0  0  0  0  0  0  0  0
   56.0140   25.2270   45.8830 C   0  0  0  0  0  0  0  0  0  0  0  0
   55.2530   26.3320   46.0130 N   0  0  0  0  0  0  0  0  0  0  0  0
   54.0310   25.9650   45.7540 O   0  0  0  0  0  0  0  0  0  0  0  0
   53.9750   24.6870   45.4540 C   0  0  0  0  0  0  0  0  0  0  0  0
   52.7170   23.9510   45.1360 C   0  0  0  0  0  0  0  0  0  0  0  0
   52.2170   23.6585   46.0711 H   0  0  0  0  0  0  0  0  0  0  0  0
   52.0497   24.6011   44.5512 H   0  0  0  0  0  0  0  0  0  0  0  0
   52.9567   23.0507   44.5512 H   0  0  0  0  0  0  0  0  0  0  0  0
   55.2430   24.1480   45.5210 C   0  0  0  0  0  0  0  0  0  0  0  0
   55.5589   23.1115   45.3317 H   0  0  0  0  0  0  0  0  0  0  0  0
   58.1710   27.9880   45.5140 C   0  0  0  0  0  0  0  0  0  0  0  0
   57.3579   27.5676   44.9040 H   0  0  0  0  0  0  0  0  0  0  0  0
   58.4130   33.6970   44.3950 C   0  0  0  0  0  0  0  0  0  0  0  0
   58.2760   33.8529   43.3148 H   0  0  0  0  0  0  0  0  0  0  0  0
  1  2  1  0
  2  3  2  0
  3  4  1  0
  3  5  1  0
  5  6  1  0
  5  7  2  0
  7  8  1  0
  7  9  1  0
  9 10  1  0
 10 11  2  0
 10 12  2  0
 10 13  1  0
 13 14  1  0
 13 15  1  0
 15 16  2  0
 16 17  1  0
 16 18  1  0
 18 19  1  0
 19 20  1  0
 20 21  1  0
 20 22  1  0
 20 23  1  0
 18 24  2  0
 24 25  1  0
 24 26  1  0
 26 27  1  0
 27 28  2  0
 27 29  1  0
 29 30  2  0
 30 31  1  0
 31 32  1  0
 32 33  1  0
 33 34  1  0
 34 35  1  0
 34 36  1  0
 34 37  1  0
 33 38  2  0
 38 39  1  0
 26 40  2  0
 40 41  1  0
  9 42  2  0
 42 43  1  0
 42  2  1  0
 40 15  1  0
 38 30  1  0
M  CHG  1  31  -1
M  END
>  <UniqueID>  (40) 
37

>  <SMILES>  (40) 
COc1cc(NS(=O)(=O)c2cccc(Cl)c2)cc(C(=O)/N=c2/cc(C)o[n-]2)c1

>  <Energy>  (40) 
83.74093413025203

>  <Genealogy>  (40) 
COc1cc(NS(=O)(=O)c2cccc(Cl)c2)cc(C(=O)N=c2cc(C)o[n-]2)c1 (protonated)
COc1cc(NS(=O)(=O)c2cccc(Cl)c2)cc(C(=O)/N=c2/cc(C)o[n-]2)c1 (cis-trans isomerization)
COc1cc(NS(=O)(=O)c2cccc(Cl)c2)cc(C(=O)/N=c2/cc(C)o[n-]2)c1 (3D coordinates assigned)
COc1cc(NS(=O)(=O)c2cccc(Cl)c2)cc(C(=O)/N=c2/cc(C)o[n-]2)c1 (optimized conformer: 83.74093413025203 kcal/mol)

>  <smiles>  (40) 
COc1cc(NS(=O)(=O)c2cccc(Cl)c2)cc(C(=O)N=c2cc(C)o[nH]2)c1

>  <score_type>  (40) 
oracle

>  <origin>  (40) 
adg

>  <m_score__min__energy>  (40) 
-12.140000000000001

>  <m_primary>  (40) 
energy

$$$$
40:0
     RDKit          3D

 57 61  0  0  0  0  0  0  0  0999 V2000
   64.3900   32.9890   48.9180 C   0  0  0  0  0  0  0  0  0  0  0  0
   62.9310   33.1220   48.8250 N   0  0  0  0  0  0  0  0  0  0  0  0
   62.3410   33.6460   47.6960 C   0  0  0  0  0  0  0  0  0  0  0  0
   63.0690   33.9910   46.7240 O   0  0  0  0  0  0  0  0  0  0  0  0
   60.9630   33.7960   47.6170 N   0  0  0  0  0  0  0  0  0  0  0  0
   60.3410   34.4100   46.4260 C   0  0  0  0  0  0  0  0  0  0  0  0
   59.3840   33.4450   45.7680 C   0  0  0  0  0  0  0  0  0  0  0  0
   59.4850   32.0680   46.0330 C   0  0  0  0  0  0  0  0  0  0  0  0
   58.5790   31.1720   45.4640 C   0  0  0  0  0  0  0  0  0  0  0  0
   57.5640   31.6360   44.6260 C   0  0  0  0  0  0  0  0  0  0  0  0
   57.4580   32.9990   44.3520 C   0  0  0  0  0  0  0  0  0  0  0  0
   58.3610   33.9030   44.9170 C   0  0  0  0  0  0  0  0  0  0  0  0
   58.2430   35.2180   44.6180 F   0  0  0  0  0  0  0  0  0  0  0  0
   60.1710   33.4050   48.6750 C   0  0  0  0  0  0  0  0  0  0  0  0
   58.9140   33.5130   48.6350 O   0  0  0  0  0  0  0  0  0  0  0  0
   60.7830   32.8910   49.8030 C   0  0  0  0  0  0  0  0  0  0  0  0
   60.2240   32.4960   50.9570 N   0  0  0  0  0  0  0  0  0  0  0  0
   61.3090   32.1380   51.6930 C   0  0  0  0  0  0  0  0  0  0  0  0
   61.2070   31.6620   53.1060 C   0  0  0  0  0  0  0  0  0  0  0  0
   59.8060   31.2030   53.4030 C   0  0  0  0  0  0  0  0  0  0  0  0
   59.5660   29.8960   53.8530 C   0  0  0  0  0  0  0  0  0  0  0  0
   58.2610   29.4600   54.0930 C   0  0  0  0  0  0  0  0  0  0  0  0
   57.1740   30.3270   53.8860 C   0  0  0  0  0  0  0  0  0  0  0  0
   55.8180   29.9180   54.1070 N   0  0  0  0  0  0  0  0  0  0  0  0
   54.6300   29.6870   52.8660 S   0  0  0  0  0  0  0  0  0  0  0  0
   55.1660   30.2180   51.5670 O   0  0  0  0  0  0  0  0  0  0  0  0
   54.3570   28.2180   52.7100 O   0  0  0  0  0  0  0  0  0  0  0  0
   53.1640   30.5670   53.2790 C   0  0  0  0  0  0  0  0  0  0  0  0
   52.6630   30.5560   54.5880 C   0  0  0  0  0  0  0  0  0  0  0  0
   51.5020   31.2690   54.9020 C   0  0  0  0  0  0  0  0  0  0  0  0
   50.8340   31.9910   53.9110 C   0  0  0  0  0  0  0  0  0  0  0  0
   51.3290   32.0050   52.6030 C   0  0  0  0  0  0  0  0  0  0  0  0
   50.6650   32.7200   51.6180 O   0  0  0  0  0  0  0  0  0  0  0  0
   52.4920   31.2950   52.2890 C   0  0  0  0  0  0  0  0  0  0  0  0
   57.4150   31.6270   53.4300 C   0  0  0  0  0  0  0  0  0  0  0  0
   58.7210   32.0670   53.1970 C   0  0  0  0  0  0  0  0  0  0  0  0
   62.5000   32.2940   51.0570 N   0  0  0  0  0  0  0  0  0  0  0  0
   62.1230   32.7700   49.8610 C   0  0  0  0  0  0  0  0  0  0  0  0
   64.6890   32.9617   49.9762 H   0  0  0  0  0  0  0  0  0  0  0  0
   64.7056   32.0584   48.4237 H   0  0  0  0  0  0  0  0  0  0  0  0
   64.8687   33.8472   48.4237 H   0  0  0  0  0  0  0  0  0  0  0  0
   59.7914   35.3129   46.7303 H   0  0  0  0  0  0  0  0  0  0  0  0
   61.1322   34.6697   45.7073 H   0  0  0  0  0  0  0  0  0  0  0  0
   60.2825   31.6949   46.6924 H   0  0  0  0  0  0  0  0  0  0  0  0
   58.6651   30.0962   45.6767 H   0  0  0  0  0  0  0  0  0  0  0  0
   56.8488   30.9276   44.1824 H   0  0  0  0  0  0  0  0  0  0  0  0
   56.6603   33.3640   43.6884 H   0  0  0  0  0  0  0  0  0  0  0  0
   61.9031   30.8239   53.2576 H   0  0  0  0  0  0  0  0  0  0  0  0
   61.4624   32.4914   53.7820 H   0  0  0  0  0  0  0  0  0  0  0  0
   60.4105   29.2107   54.0178 H   0  0  0  0  0  0  0  0  0  0  0  0
   58.0830   28.4334   54.4456 H   0  0  0  0  0  0  0  0  0  0  0  0
   53.1845   29.9850   55.3702 H   0  0  0  0  0  0  0  0  0  0  0  0
   51.1142   31.2611   55.9314 H   0  0  0  0  0  0  0  0  0  0  0  0
   49.9188   32.5486   54.1589 H   0  0  0  0  0  0  0  0  0  0  0  0
   52.8808   31.3083   51.2601 H   0  0  0  0  0  0  0  0  0  0  0  0
   56.5699   32.3086   53.2533 H   0  0  0  0  0  0  0  0  0  0  0  0
   58.8985   33.0958   52.8504 H   0  0  0  0  0  0  0  0  0  0  0  0
  1  2  1  0
  2  3  1  0
  3  4  2  0
  3  5  1  0
  5  6  1  0
  6  7  1  0
  7  8  2  0
  8  9  1  0
  9 10  2  0
 10 11  1  0
 11 12  2  0
 12 13  1  0
  5 14  1  0
 14 15  2  0
 14 16  1  0
 16 17  1  0
 17 18  1  0
 18 19  1  0
 19 20  1  0
 20 21  2  0
 21 22  1  0
 22 23  2  0
 23 24  1  0
 24 25  1  0
 25 26  2  0
 25 27  2  0
 25 28  1  0
 28 29  2  0
 29 30  1  0
 30 31  2  0
 31 32  1  0
 32 33  1  0
 32 34  2  0
 23 35  1  0
 35 36  2  0
 18 37  2  0
 37 38  1  0
 38  2  1  0
 12  7  1  0
 38 16  2  0
 36 20  1  0
 34 28  1  0
  1 39  1  0
  1 40  1  0
  1 41  1  0
  6 42  1  0
  6 43  1  0
  8 44  1  0
  9 45  1  0
 10 46  1  0
 11 47  1  0
 19 48  1  0
 19 49  1  0
 21 50  1  0
 22 51  1  0
 29 52  1  0
 30 53  1  0
 31 54  1  0
 34 55  1  0
 35 56  1  0
 36 57  1  0
M  CHG  3  17  -1  24  -1  33  -1
M  END
>  <UniqueID>  (41) 
38

>  <SMILES>  (41) 
Cn1c(=O)n(Cc2ccccc2F)c(=O)c2[n-]c(Cc3ccc([N-]S(=O)(=O)c4cccc([O-])c4)cc3)nc21

>  <Energy>  (41) 
108.50418832219474

>  <Genealogy>  (41) 
Cn1c(=O)n(Cc2ccccc2F)c(=O)c2[n-]c(Cc3ccc([N-]S(=O)(=O)c4cccc([O-])c4)cc3)nc21 (protonated)
Cn1c(=O)n(Cc2ccccc2F)c(=O)c2[n-]c(Cc3ccc([N-]S(=O)(=O)c4cccc([O-])c4)cc3)nc21 (3D coordinates assigned)
Cn1c(=O)n(Cc2ccccc2F)c(=O)c2[n-]c(Cc3ccc([N-]S(=O)(=O)c4cccc([O-])c4)cc3)nc21 (optimized conformer: 108.50418832219474 kcal/mol)

>  <smiles>  (41) 
Cn1c(=O)n(Cc2ccccc2F)c(=O)c2[nH]c(Cc3ccc(NS(=O)(=O)c4cccc(O)c4)cc3)nc21

>  <score_type>  (41) 
oracle

>  <origin>  (41) 
adg

>  <m_score__min__energy>  (41) 
-15.300000000000001

>  <m_primary>  (41) 
energy

$$$$
41:0
     RDKit          3D

 62 65  0  0  1  0  0  0  0  0999 V2000
   65.0040   32.5640   49.4090 C   0  0  0  0  0  0  0  0  0  0  0  0
   63.2540   32.3470   49.7110 S   0  0  0  0  0  0  0  0  0  0  0  0
   62.9580   30.8950   49.7680 O   0  0  0  0  0  0  0  0  0  0  0  0
   62.8570   32.9530   51.0220 O   0  0  0  0  0  0  0  0  0  0  0  0
   62.3730   33.1740   48.3990 C   0  0  0  0  0  0  0  0  0  0  0  0
   61.5510   34.2670   49.0040 C   0  0  0  0  0  0  0  0  0  0  0  0
   60.4460   34.7040   48.1760 N   0  0  0  0  0  0  0  0  0  0  0  0
   60.8580   34.5610   46.8170 C   0  0  0  0  0  0  0  0  0  0  0  0
   59.7520   34.7670   45.8130 C   0  0  0  0  0  0  0  0  0  0  0  0
   58.9820   33.4840   45.6500 C   0  0  0  0  0  0  0  0  0  0  0  0
   58.4680   33.3400   44.3680 C   0  0  0  0  0  0  0  0  0  0  0  0
   57.7290   32.1950   44.0840 C   0  0  0  0  0  0  0  0  0  0  0  0
   57.5200   31.2300   45.0730 C   0  0  0  0  0  0  0  0  0  0  0  0
   56.7600   30.0630   44.7750 N   0  0  0  0  0  0  0  0  0  0  0  0
   57.0140   28.9250   45.3150 C   0  0  0  0  0  0  0  0  0  0  0  0
   56.0950   27.9560   45.3170 N   0  0  0  0  0  0  0  0  0  0  0  0
   56.4280   26.7890   45.9010 C   0  0  0  0  0  0  0  0  0  0  0  0
   57.6620   26.5890   46.4770 C   0  0  0  0  0  0  0  0  0  0  0  0
   58.0050   25.0500   47.2090 Cl  0  0  0  0  0  0  0  0  0  0  0  0
   58.5760   27.6170   46.4510 C   0  0  0  0  0  0  0  0  0  0  0  0
   59.7110   27.4480   46.9790 N   0  0  0  0  0  0  0  0  0  0  0  0
   60.0920   27.7170   48.3190 C   0  0  0  0  0  0  0  0  0  0  0  0
   60.7730   26.7710   49.1000 C   0  0  0  0  0  0  0  0  0  0  0  0
   61.1360   27.1040   50.4020 C   0  0  0  0  0  0  0  0  0  0  0  0
   60.8370   28.3510   50.9360 C   0  0  0  0  0  0  0  0  0  0  0  0
   60.1720   29.2660   50.1630 C   0  0  0  0  0  0  0  0  0  0  0  0
   59.8530   30.5590   50.7050 C   0  0  0  0  0  0  0  0  0  0  0  0
   60.8470   31.5620   50.8820 N   0  0  0  0  0  0  0  0  0  0  0  0
   58.6430   30.7850   51.0260 O   0  0  0  0  0  0  0  0  0  0  0  0
   59.7880   28.9770   48.8540 C   0  0  0  0  0  0  0  0  0  0  0  0
   58.2370   28.7740   45.8670 N   0  0  0  0  0  0  0  0  0  0  0  0
   58.0330   31.3800   46.3440 C   0  0  0  0  0  0  0  0  0  0  0  0
   58.7630   32.5190   46.6090 C   0  0  0  0  0  0  0  0  0  0  0  0
   59.2470   32.5430   48.0080 C   0  0  0  0  0  0  0  0  0  0  0  0
   59.2680   33.9690   48.5210 C   0  0  0  0  0  0  0  0  0  0  0  0
   65.5364   32.6300   50.3693 H   0  0  0  0  0  0  0  0  0  0  0  0
   65.3863   31.7064   48.8360 H   0  0  0  0  0  0  0  0  0  0  0  0
   65.1653   33.4890   48.8360 H   0  0  0  0  0  0  0  0  0  0  0  0
   63.0889   33.6005   47.6810 H   0  0  0  0  0  0  0  0  0  0  0  0
   61.7251   32.4609   47.8683 H   0  0  0  0  0  0  0  0  0  0  0  0
   61.1442   33.9046   49.9596 H   0  0  0  0  0  0  0  0  0  0  0  0
   62.2172   35.1337   49.1268 H   0  0  0  0  0  0  0  0  0  0  0  0
   61.6485   35.2991   46.6163 H   0  0  0  0  0  0  0  0  0  0  0  0
   61.2047   33.5238   46.6983 H   0  0  0  0  0  0  0  0  0  0  0  0
   59.0759   35.5585   46.1685 H   0  0  0  0  0  0  0  0  0  0  0  0
   60.1834   35.0630   44.8454 H   0  0  0  0  0  0  0  0  0  0  0  0
   58.6398   34.1081   43.5995 H   0  0  0  0  0  0  0  0  0  0  0  0
   57.3083   32.0493   43.0781 H   0  0  0  0  0  0  0  0  0  0  0  0
   55.1430   28.1070   44.8720 H   0  0  0  0  0  0  0  0  0  0  0  0
   55.6921   25.9716   45.9182 H   0  0  0  0  0  0  0  0  0  0  0  0
   61.0166   25.7801   48.6892 H   0  0  0  0  0  0  0  0  0  0  0  0
   61.6694   26.3661   51.0193 H   0  0  0  0  0  0  0  0  0  0  0  0
   61.1304   28.6006   51.9663 H   0  0  0  0  0  0  0  0  0  0  0  0
   60.8350   32.4750   50.3640 H   0  0  0  0  0  0  0  0  0  0  0  0
   61.6300   31.3800   51.5610 H   0  0  0  0  0  0  0  0  0  0  0  0
   59.2547   29.7261   48.2503 H   0  0  0  0  0  0  0  0  0  0  0  0
   58.9220   29.5390   45.8480 H   0  0  0  0  0  0  0  0  0  0  0  0
   57.8657   30.6177   47.1192 H   0  0  0  0  0  0  0  0  0  0  0  0
   58.5763   31.9389   48.6366 H   0  0  0  0  0  0  0  0  0  0  0  0
   60.2653   32.1287   48.0466 H   0  0  0  0  0  0  0  0  0  0  0  0
   58.3982   34.4976   48.1038 H   0  0  0  0  0  0  0  0  0  0  0  0
   59.2465   33.9079   49.6191 H   0  0  0  0  0  0  0  0  0  0  0  0
  1  2  1  0
  2  3  2  0
  2  4  2  0
  2  5  1  0
  5  6  1  0
  6  7  1  0
  7  8  1  0
  8  9  1  0
  9 10  1  0
 10 11  2  0
 11 12  1  0
 12 13  2  0
 13 14  1  0
 14 15  2  0
 15 16  1  0
 16 17  1  0
 17 18  2  0
 18 19  1  0
 18 20  1  0
 20 21  2  0
 21 22  1  0
 22 23  2  0
 23 24  1  0
 24 25  2  0
 25 26  1  0
 26 27  1  0
 27 28  1  0
 27 29  2  0
 26 30  2  0
 20 31  1  0
 13 32  1  0
 32 33  2  0
 33 34  1  0
 34 35  1  0
 35  7  1  0
 33 10  1  0
 31 15  1  0
 30 22  1  0
  1 36  1  0
  1 37  1  0
  1 38  1  0
  5 39  1  0
  5 40  1  0
  6 41  1  0
  6 42  1  0
  8 43  1  0
  8 44  1  0
  9 45  1  0
  9 46  1  0
 11 47  1  0
 12 48  1  0
 16 49  1  0
 17 50  1  0
 23 51  1  0
 24 52  1  0
 25 53  1  0
 28 54  1  0
 28 55  1  0
 30 56  1  0
 31 57  1  0
 32 58  1  0
 34 59  1  0
 34 60  1  0
 35 61  1  0
 35 62  1  0
M  END
>  <smiles>  (42) 
CS(=O)(=O)CCN1CCc2ccc(N=c3[nH]cc(Cl)c(=Nc4cccc(C(N)=O)c4)[nH]3)cc2CC1

>  <score_type>  (42) 
oracle

>  <origin>  (42) 
adg

>  <m_score__min__energy>  (42) 
-9.1400000000000006

>  <m_primary>  (42) 
energy

$$$$
42:0
     RDKit          3D

 36 37  0  0  0  0  0  0  0  0999 V2000
   57.8870   33.4610   46.6140 C   0  0  0  0  0  0  0  0  0  0  0  0
   57.3680   33.8010   45.4320 C   0  0  0  0  0  0  0  0  0  0  0  0
   57.7470   33.0830   44.1660 C   0  0  0  0  0  0  0  0  0  0  0  0
   57.6900   31.5910   44.3620 C   0  0  0  0  0  0  0  0  0  0  0  0
   58.8690   30.8300   44.3720 C   0  0  0  0  0  0  0  0  0  0  0  0
   58.8110   29.4420   44.5240 C   0  0  0  0  0  0  0  0  0  0  0  0
   57.5770   28.7920   44.6470 C   0  0  0  0  0  0  0  0  0  0  0  0
   57.5680   27.3980   44.7930 O   0  0  0  0  0  0  0  0  0  0  0  0
   57.0490   26.7190   45.9020 C   0  0  0  0  0  0  0  0  0  0  0  0
   57.0670   27.2680   47.0380 O   0  0  0  0  0  0  0  0  0  0  0  0
   56.4370   25.3750   45.7290 C   0  0  0  0  0  0  0  0  0  0  0  0
   55.0320   25.2240   45.7920 C   0  0  0  0  0  0  0  0  0  0  0  0
   54.2010   26.3200   45.9950 O   0  0  0  0  0  0  0  0  0  0  0  0
   54.4490   23.9650   45.6340 C   0  0  0  0  0  0  0  0  0  0  0  0
   55.2440   22.8440   45.4040 C   0  0  0  0  0  0  0  0  0  0  0  0
   54.6530   21.5960   45.2430 O   0  0  0  0  0  0  0  0  0  0  0  0
   56.6300   22.9730   45.3340 C   0  0  0  0  0  0  0  0  0  0  0  0
   57.2430   24.2320   45.4990 C   0  0  0  0  0  0  0  0  0  0  0  0
   58.6410   24.3720   45.4540 O   0  0  0  0  0  0  0  0  0  0  0  0
   59.5600   23.3000   45.2650 C   0  0  0  0  0  0  0  0  0  0  0  0
   56.3920   29.5550   44.6610 C   0  0  0  0  0  0  0  0  0  0  0  0
   55.1570   28.9490   44.8630 O   0  0  0  0  0  0  0  0  0  0  0  0
   56.4530   30.9440   44.5030 C   0  0  0  0  0  0  0  0  0  0  0  0
   57.5897   34.0055   47.5223 H   0  0  0  0  0  0  0  0  0  0  0  0
   58.6120   32.6363   46.6796 H   0  0  0  0  0  0  0  0  0  0  0  0
   56.6442   34.6279   45.3827 H   0  0  0  0  0  0  0  0  0  0  0  0
   57.0484   33.3689   43.3659 H   0  0  0  0  0  0  0  0  0  0  0  0
   58.7750   33.3647   43.8942 H   0  0  0  0  0  0  0  0  0  0  0  0
   59.8432   31.3283   44.2597 H   0  0  0  0  0  0  0  0  0  0  0  0
   59.7416   28.8559   44.5472 H   0  0  0  0  0  0  0  0  0  0  0  0
   53.3558   23.8576   45.6914 H   0  0  0  0  0  0  0  0  0  0  0  0
   57.2513   22.0845   45.1483 H   0  0  0  0  0  0  0  0  0  0  0  0
   59.8861   22.9196   46.2443 H   0  0  0  0  0  0  0  0  0  0  0  0
   59.0699   22.4918   44.7024 H   0  0  0  0  0  0  0  0  0  0  0  0
   60.4336   23.6609   44.7024 H   0  0  0  0  0  0  0  0  0  0  0  0
   55.5242   31.5331   44.4892 H   0  0  0  0  0  0  0  0  0  0  0  0
  1  2  2  0
  2  3  1  0
  3  4  1  0
  4  5  2  0
  5  6  1  0
  6  7  2  0
  7  8  1  0
  8  9  1  0
  9 10  2  0
  9 11  1  0
 11 12  2  0
 12 13  1  0
 12 14  1  0
 14 15  2  0
 15 16  1  0
 15 17  1  0
 17 18  2  0
 18 19  1  0
 19 20  1  0
  7 21  1  0
 21 22  1  0
 21 23  2  0
 23  4  1  0
 18 11  1  0
  1 24  1  0
  1 25  1  0
  2 26  1  0
  3 27  1  0
  3 28  1  0
  5 29  1  0
  6 30  1  0
 14 31  1  0
 17 32  1  0
 20 33  1  0
 20 34  1  0
 20 35  1  0
 23 36  1  0
M  CHG  3  13  -1  16  -1  22  -1
M  END
>  <UniqueID>  (43) 
39

>  <SMILES>  (43) 
C=CCc1ccc(OC(=O)c2c([O-])cc([O-])cc2OC)c([O-])c1

>  <Energy>  (43) 
43.53852644710879

>  <Genealogy>  (43) 
C=CCc1ccc(OC(=O)c2c([O-])cc([O-])cc2OC)c([O-])c1 (protonated)
C=CCc1ccc(OC(=O)c2c([O-])cc([O-])cc2OC)c([O-])c1 (3D coordinates assigned)
C=CCc1ccc(OC(=O)c2c([O-])cc([O-])cc2OC)c([O-])c1 (optimized conformer: 43.53852644710879 kcal/mol)

>  <smiles>  (43) 
C=CCc1ccc(OC(=O)c2c(O)cc(O)cc2OC)c(O)c1

>  <score_type>  (43) 
oracle

>  <origin>  (43) 
adg

>  <m_score__min__energy>  (43) 
-16.23

>  <m_primary>  (43) 
energy

$$$$
43:0
     RDKit          3D

 57 60  0  0  0  0  0  0  0  0999 V2000
   62.7130   33.6210   48.2010 C   0  0  0  0  0  0  0  0  0  0  0  0
   63.5220   32.7750   49.1440 C   0  0  0  0  0  0  0  0  0  0  0  0
   64.8760   33.0840   49.3530 C   0  0  0  0  0  0  0  0  0  0  0  0
   65.6460   32.3300   50.2420 C   0  0  0  0  0  0  0  0  0  0  0  0
   65.0740   31.2580   50.9280 C   0  0  0  0  0  0  0  0  0  0  0  0
   63.7340   30.9270   50.7160 C   0  0  0  0  0  0  0  0  0  0  0  0
   62.9570   31.6600   49.8090 C   0  0  0  0  0  0  0  0  0  0  0  0
   61.6260   31.2770   49.6110 O   0  0  0  0  0  0  0  0  0  0  0  0
   61.1850   30.4510   48.5670 C   0  0  0  0  0  0  0  0  0  0  0  0
   61.3300   30.9000   47.2510 C   0  0  0  0  0  0  0  0  0  0  0  0
   60.9060   30.1100   46.1800 C   0  0  0  0  0  0  0  0  0  0  0  0
   60.3350   28.8470   46.4120 C   0  0  0  0  0  0  0  0  0  0  0  0
   59.9100   27.9790   45.2520 C   0  0  0  0  0  0  0  0  0  0  0  0
   58.4450   27.9610   45.0860 N   0  0  0  0  0  0  0  0  0  0  0  0
   57.8470   28.7620   44.0060 C   0  0  0  0  0  0  0  0  0  0  0  0
   57.8560   30.2250   44.3610 C   0  0  0  0  0  0  0  0  0  0  0  0
   57.8560   31.2000   43.3490 C   0  0  0  0  0  0  0  0  0  0  0  0
   57.8140   32.5590   43.6780 C   0  0  0  0  0  0  0  0  0  0  0  0
   57.7710   32.9540   45.0180 C   0  0  0  0  0  0  0  0  0  0  0  0
   57.7710   31.9910   46.0310 C   0  0  0  0  0  0  0  0  0  0  0  0
   57.8130   30.6320   45.7060 C   0  0  0  0  0  0  0  0  0  0  0  0
   57.5890   27.1860   45.9620 C   0  0  0  0  0  0  0  0  0  0  0  0
   57.3290   27.6080   47.1220 O   0  0  0  0  0  0  0  0  0  0  0  0
   57.0230   25.8860   45.5500 C   0  0  0  0  0  0  0  0  0  0  0  0
   57.8660   24.8660   45.0830 C   0  0  0  0  0  0  0  0  0  0  0  0
   57.3360   23.6230   44.7230 C   0  0  0  0  0  0  0  0  0  0  0  0
   55.9610   23.3900   44.8160 C   0  0  0  0  0  0  0  0  0  0  0  0
   55.4490   22.1430   44.4630 O   0  0  0  0  0  0  0  0  0  0  0  0
   55.1110   24.4110   45.2610 C   0  0  0  0  0  0  0  0  0  0  0  0
   55.6350   25.6580   45.6190 C   0  0  0  0  0  0  0  0  0  0  0  0
   54.7750   26.6570   46.0600 O   0  0  0  0  0  0  0  0  0  0  0  0
   60.1630   28.4070   47.7340 C   0  0  0  0  0  0  0  0  0  0  0  0
   60.5830   29.2020   48.8040 C   0  0  0  0  0  0  0  0  0  0  0  0
   62.0660   34.2976   48.7786 H   0  0  0  0  0  0  0  0  0  0  0  0
   63.3896   34.2130   47.5672 H   0  0  0  0  0  0  0  0  0  0  0  0
   62.0914   32.9715   47.5672 H   0  0  0  0  0  0  0  0  0  0  0  0
   65.3336   33.9259   48.8127 H   0  0  0  0  0  0  0  0  0  0  0  0
   66.7049   32.5818   50.4014 H   0  0  0  0  0  0  0  0  0  0  0  0
   65.6791   30.6731   51.6364 H   0  0  0  0  0  0  0  0  0  0  0  0
   63.2856   30.0855   51.2645 H   0  0  0  0  0  0  0  0  0  0  0  0
   61.7819   31.8840   47.0573 H   0  0  0  0  0  0  0  0  0  0  0  0
   61.0196   30.4783   45.1497 H   0  0  0  0  0  0  0  0  0  0  0  0
   60.3675   28.3681   44.3304 H   0  0  0  0  0  0  0  0  0  0  0  0
   60.2424   26.9505   45.4563 H   0  0  0  0  0  0  0  0  0  0  0  0
   58.4247   28.6110   43.0822 H   0  0  0  0  0  0  0  0  0  0  0  0
   56.8053   28.4395   43.8617 H   0  0  0  0  0  0  0  0  0  0  0  0
   57.8892   30.8931   42.2932 H   0  0  0  0  0  0  0  0  0  0  0  0
   57.8148   33.3175   42.8813 H   0  0  0  0  0  0  0  0  0  0  0  0
   57.7372   34.0229   45.2754 H   0  0  0  0  0  0  0  0  0  0  0  0
   57.7379   32.3029   47.0853 H   0  0  0  0  0  0  0  0  0  0  0  0
   57.8124   29.8775   46.5065 H   0  0  0  0  0  0  0  0  0  0  0  0
   58.9482   25.0449   44.9998 H   0  0  0  0  0  0  0  0  0  0  0  0
   58.0038   22.8255   44.3652 H   0  0  0  0  0  0  0  0  0  0  0  0
   55.9490   21.2870   44.6730 H   0  0  0  0  0  0  0  0  0  0  0  0
   54.0279   24.2316   45.3292 H   0  0  0  0  0  0  0  0  0  0  0  0
   59.6949   27.4308   47.9288 H   0  0  0  0  0  0  0  0  0  0  0  0
   60.4421   28.8493   49.8364 H   0  0  0  0  0  0  0  0  0  0  0  0
  1  2  1  0
  2  3  2  0
  3  4  1  0
  4  5  2  0
  5  6  1  0
  6  7  2  0
  7  8  1  0
  8  9  1  0
  9 10  2  0
 10 11  1  0
 11 12  2  0
 12 13  1  0
 13 14  1  0
 14 15  1  0
 15 16  1  0
 16 17  2  0
 17 18  1  0
 18 19  2  0
 19 20  1  0
 20 21  2  0
 14 22  1  0
 22 23  2  0
 22 24  1  0
 24 25  2  0
 25 26  1  0
 26 27  2  0
 27 28  1  0
 27 29  1  0
 29 30  2  0
 30 31  1  0
 12 32  1  0
 32 33  2  0
  7  2  1  0
 33  9  1  0
 21 16  1  0
 30 24  1  0
  1 34  1  0
  1 35  1  0
  1 36  1  0
  3 37  1  0
  4 38  1  0
  5 39  1  0
  6 40  1  0
 10 41  1  0
 11 42  1  0
 13 43  1  0
 13 44  1  0
 15 45  1  0
 15 46  1  0
 17 47  1  0
 18 48  1  0
 19 49  1  0
 20 50  1  0
 21 51  1  0
 25 52  1  0
 26 53  1  0
 28 54  1  0
 29 55  1  0
 32 56  1  0
 33 57  1  0
M  CHG  1  31  -1
M  END
>  <UniqueID>  (44) 
40

>  <SMILES>  (44) 
Cc1ccccc1Oc1ccc(CN(Cc2ccccc2)C(=O)c2ccc(O)cc2[O-])cc1

>  <Energy>  (44) 
70.10605444813137

>  <Genealogy>  (44) 
Cc1ccccc1Oc1ccc(CN(Cc2ccccc2)C(=O)c2ccc(O)cc2[O-])cc1 (protonated)
Cc1ccccc1Oc1ccc(CN(Cc2ccccc2)C(=O)c2ccc(O)cc2[O-])cc1 (3D coordinates assigned)
Cc1ccccc1Oc1ccc(CN(Cc2ccccc2)C(=O)c2ccc(O)cc2[O-])cc1 (optimized conformer: 70.10605444813137 kcal/mol)

>  <smiles>  (44) 
Cc1ccccc1Oc1ccc(CN(Cc2ccccc2)C(=O)c2ccc(O)cc2O)cc1

>  <score_type>  (44) 
oracle

>  <origin>  (44) 
adg

>  <m_score__min__energy>  (44) 
-13.380000000000001

>  <m_primary>  (44) 
energy

$$$$
44:0
     RDKit          3D

 46 48  0  0  0  0  0  0  0  0999 V2000
   56.5900   29.5880   42.9770 C   0  0  0  0  0  0  0  0  0  0  0  0
   56.0510   30.1030   44.2770 C   0  0  0  0  0  0  0  0  0  0  0  0
   55.1400   29.4610   44.8630 O   0  0  0  0  0  0  0  0  0  0  0  0
   56.5720   31.2870   44.8940 N   0  0  0  0  0  0  0  0  0  0  0  0
   57.7460   32.0220   44.4340 C   0  0  0  0  0  0  0  0  0  0  0  0
   58.2410   32.9740   45.5310 C   0  0  0  0  0  0  0  0  0  0  0  0
   59.4590   32.4280   46.2950 C   0  0  0  0  0  0  0  0  0  0  0  0
   59.1500   32.0530   47.7530 C   0  0  0  0  0  0  0  0  0  0  0  0
   59.2880   30.6500   47.9790 O   0  0  0  0  0  0  0  0  0  0  0  0
   59.2550   29.6530   46.9910 C   0  0  0  0  0  0  0  0  0  0  0  0
   60.2490   29.6710   46.0060 C   0  0  0  0  0  0  0  0  0  0  0  0
   60.2700   28.7020   45.0020 C   0  0  0  0  0  0  0  0  0  0  0  0
   59.2950   27.7030   44.9710 C   0  0  0  0  0  0  0  0  0  0  0  0
   58.2870   27.6650   45.9480 C   0  0  0  0  0  0  0  0  0  0  0  0
   57.2420   26.6110   45.9130 C   0  0  0  0  0  0  0  0  0  0  0  0
   55.8880   26.9730   45.9930 C   0  0  0  0  0  0  0  0  0  0  0  0
   54.9160   26.0270   45.9550 N   0  0  0  0  0  0  0  0  0  0  0  0
   55.2030   24.7050   45.8430 C   0  0  0  0  0  0  0  0  0  0  0  0
   54.1640   23.7670   45.8070 C   0  0  0  0  0  0  0  0  0  0  0  0
   54.4540   22.4040   45.6960 C   0  0  0  0  0  0  0  0  0  0  0  0
   53.4190   21.4770   45.6600 O   0  0  0  0  0  0  0  0  0  0  0  0
   55.7810   21.9730   45.6210 C   0  0  0  0  0  0  0  0  0  0  0  0
   56.8260   22.9020   45.6570 C   0  0  0  0  0  0  0  0  0  0  0  0
   56.5480   24.2770   45.7660 C   0  0  0  0  0  0  0  0  0  0  0  0
   57.5720   25.2430   45.8070 C   0  0  0  0  0  0  0  0  0  0  0  0
   58.7830   24.8850   45.7700 O   0  0  0  0  0  0  0  0  0  0  0  0
   58.2680   28.6490   46.9530 C   0  0  0  0  0  0  0  0  0  0  0  0
   57.3724   28.8405   43.1748 H   0  0  0  0  0  0  0  0  0  0  0  0
   55.7762   29.1234   42.4010 H   0  0  0  0  0  0  0  0  0  0  0  0
   57.0171   30.4221   42.4010 H   0  0  0  0  0  0  0  0  0  0  0  0
   58.5456   31.3092   44.1840 H   0  0  0  0  0  0  0  0  0  0  0  0
   57.4746   32.6103   43.5450 H   0  0  0  0  0  0  0  0  0  0  0  0
   58.5193   33.9310   45.0654 H   0  0  0  0  0  0  0  0  0  0  0  0
   57.4233   33.0933   46.2570 H   0  0  0  0  0  0  0  0  0  0  0  0
   59.8229   31.5301   45.7741 H   0  0  0  0  0  0  0  0  0  0  0  0
   60.2117   33.2297   46.3195 H   0  0  0  0  0  0  0  0  0  0  0  0
   59.8456   32.5905   48.4142 H   0  0  0  0  0  0  0  0  0  0  0  0
   58.1076   32.3332   47.9651 H   0  0  0  0  0  0  0  0  0  0  0  0
   61.0200   30.4554   46.0233 H   0  0  0  0  0  0  0  0  0  0  0  0
   61.0565   28.7253   44.2333 H   0  0  0  0  0  0  0  0  0  0  0  0
   59.3166   26.9418   44.1772 H   0  0  0  0  0  0  0  0  0  0  0  0
   55.6124   28.0337   46.0874 H   0  0  0  0  0  0  0  0  0  0  0  0
   53.1183   24.1031   45.8661 H   0  0  0  0  0  0  0  0  0  0  0  0
   56.0046   20.8995   45.5333 H   0  0  0  0  0  0  0  0  0  0  0  0
   57.8688   22.5565   45.5999 H   0  0  0  0  0  0  0  0  0  0  0  0
   57.4755   28.6342   47.7157 H   0  0  0  0  0  0  0  0  0  0  0  0
  1  2  1  0
  2  3  2  0
  2  4  1  0
  4  5  1  0
  5  6  1  0
  6  7  1  0
  7  8  1  0
  8  9  1  0
  9 10  1  0
 10 11  2  0
 11 12  1  0
 12 13  2  0
 13 14  1  0
 14 15  1  0
 15 16  2  0
 16 17  1  0
 17 18  1  0
 18 19  2  0
 19 20  1  0
 20 21  1  0
 20 22  2  0
 22 23  1  0
 23 24  2  0
 24 25  1  0
 25 26  2  0
 14 27  2  0
 27 10  1  0
 25 15  1  0
 24 18  1  0
  1 28  1  0
  1 29  1  0
  1 30  1  0
  5 31  1  0
  5 32  1  0
  6 33  1  0
  6 34  1  0
  7 35  1  0
  7 36  1  0
  8 37  1  0
  8 38  1  0
 11 39  1  0
 12 40  1  0
 13 41  1  0
 16 42  1  0
 19 43  1  0
 22 44  1  0
 23 45  1  0
 27 46  1  0
M  CHG  3   4  -1  17  -1  21  -1
M  END
>  <UniqueID>  (45) 
41

>  <SMILES>  (45) 
CC(=O)[N-]CCCCOc1cccc(-c2c[n-]c3cc([O-])ccc3c2=O)c1

>  <Energy>  (45) 
52.991274572186626

>  <Genealogy>  (45) 
CC(=O)[N-]CCCCOc1cccc(-c2c[n-]c3cc([O-])ccc3c2=O)c1 (protonated)
CC(=O)[N-]CCCCOc1cccc(-c2c[n-]c3cc([O-])ccc3c2=O)c1 (3D coordinates assigned)
CC(=O)[N-]CCCCOc1cccc(-c2c[n-]c3cc([O-])ccc3c2=O)c1 (optimized conformer: 52.991274572186626 kcal/mol)

>  <smiles>  (45) 
CC(=O)NCCCCOc1cccc(-c2c[nH]c3cc(O)ccc3c2=O)c1

>  <score_type>  (45) 
oracle

>  <origin>  (45) 
adg

>  <m_score__min__energy>  (45) 
-13.35

>  <m_primary>  (45) 
energy

$$$$
45:0
     RDKit          3D

 49 52  0  0  0  0  0  0  0  0999 V2000
   55.4260   29.3590   44.9050 N   0  0  0  0  0  0  0  0  0  0  0  0
   56.4190   30.2200   44.3530 C   0  0  0  0  0  0  0  0  0  0  0  0
   56.2850   30.6540   43.1770 O   0  0  0  0  0  0  0  0  0  0  0  0
   57.5940   30.5570   45.1180 N   0  0  0  0  0  0  0  0  0  0  0  0
   58.2590   29.5490   45.7710 C   0  0  0  0  0  0  0  0  0  0  0  0
   57.8490   28.3580   45.6600 O   0  0  0  0  0  0  0  0  0  0  0  0
   59.3560   29.8170   46.5520 N   0  0  0  0  0  0  0  0  0  0  0  0
   60.0250   28.7160   47.2780 C   0  0  0  0  0  0  0  0  0  0  0  0
   59.8910   28.9080   48.7680 C   0  0  0  0  0  0  0  0  0  0  0  0
   60.7560   28.2430   49.6520 C   0  0  0  0  0  0  0  0  0  0  0  0
   60.6130   28.4060   51.0320 C   0  0  0  0  0  0  0  0  0  0  0  0
   59.5980   29.2200   51.5410 C   0  0  0  0  0  0  0  0  0  0  0  0
   58.7070   29.8700   50.6740 C   0  0  0  0  0  0  0  0  0  0  0  0
   57.6770   30.7100   51.2240 N   0  0  0  0  0  0  0  0  0  0  0  0
   56.5750   30.2290   52.0060 C   0  0  0  0  0  0  0  0  0  0  0  0
   56.5380   29.0270   52.3870 O   0  0  0  0  0  0  0  0  0  0  0  0
   55.5360   31.1130   52.3260 O   0  0  0  0  0  0  0  0  0  0  0  0
   54.1720   30.7890   52.3450 C   0  0  0  0  0  0  0  0  0  0  0  0
   53.5800   30.0830   53.4100 C   0  0  0  0  0  0  0  0  0  0  0  0
   52.2110   29.7930   53.3860 C   0  0  0  0  0  0  0  0  0  0  0  0
   51.4240   30.2140   52.3110 C   0  0  0  0  0  0  0  0  0  0  0  0
   52.0010   30.9320   51.2620 C   0  0  0  0  0  0  0  0  0  0  0  0
   53.3680   31.2240   51.2820 C   0  0  0  0  0  0  0  0  0  0  0  0
   58.8740   29.7260   49.2850 C   0  0  0  0  0  0  0  0  0  0  0  0
   59.7930   31.1070   46.7020 C   0  0  0  0  0  0  0  0  0  0  0  0
   60.7940   31.3580   47.4330 O   0  0  0  0  0  0  0  0  0  0  0  0
   59.1420   32.1570   46.0410 C   0  0  0  0  0  0  0  0  0  0  0  0
   59.5840   33.4890   46.1690 C   0  0  0  0  0  0  0  0  0  0  0  0
   58.9430   34.5160   45.4770 C   0  0  0  0  0  0  0  0  0  0  0  0
   57.8650   34.2280   44.6440 C   0  0  0  0  0  0  0  0  0  0  0  0
   57.4120   32.9150   44.5100 C   0  0  0  0  0  0  0  0  0  0  0  0
   58.0290   31.8580   45.2230 C   0  0  0  0  0  0  0  0  0  0  0  0
   55.6730   28.6530   45.6330 H   0  0  0  0  0  0  0  0  0  0  0  0
   59.5614   27.7601   46.9930 H   0  0  0  0  0  0  0  0  0  0  0  0
   61.0929   28.7129   47.0142 H   0  0  0  0  0  0  0  0  0  0  0  0
   61.5490   27.5914   49.2564 H   0  0  0  0  0  0  0  0  0  0  0  0
   61.3011   27.8923   51.7195 H   0  0  0  0  0  0  0  0  0  0  0  0
   59.4968   29.3521   52.6284 H   0  0  0  0  0  0  0  0  0  0  0  0
   57.7810   31.7450   51.1310 H   0  0  0  0  0  0  0  0  0  0  0  0
   54.1948   29.7588   54.2626 H   0  0  0  0  0  0  0  0  0  0  0  0
   51.7538   29.2327   54.2149 H   0  0  0  0  0  0  0  0  0  0  0  0
   50.3494   29.9796   52.2912 H   0  0  0  0  0  0  0  0  0  0  0  0
   51.3795   31.2683   50.4190 H   0  0  0  0  0  0  0  0  0  0  0  0
   53.8159   31.7990   50.4581 H   0  0  0  0  0  0  0  0  0  0  0  0
   58.2014   30.2594   48.5972 H   0  0  0  0  0  0  0  0  0  0  0  0
   60.4406   33.7202   46.8193 H   0  0  0  0  0  0  0  0  0  0  0  0
   59.2891   35.5541   45.5892 H   0  0  0  0  0  0  0  0  0  0  0  0
   57.3688   35.0383   44.0897 H   0  0  0  0  0  0  0  0  0  0  0  0
   56.5652   32.6981   43.8423 H   0  0  0  0  0  0  0  0  0  0  0  0
  1  2  1  0
  2  3  2  0
  2  4  1  0
  4  5  1  0
  5  6  2  0
  5  7  1  0
  7  8  1  0
  8  9  1  0
  9 10  2  0
 10 11  1  0
 11 12  2  0
 12 13  1  0
 13 14  1  0
 14 15  1  0
 15 16  2  0
 15 17  1  0
 17 18  1  0
 18 19  2  0
 19 20  1  0
 20 21  2  0
 21 22  1  0
 22 23  2  0
 13 24  2  0
  7 25  1  0
 25 26  2  0
 25 27  1  0
 27 28  2  0
 28 29  1  0
 29 30  2  0
 30 31  1  0
 31 32  2  0
 32  4  1  0
 24  9  1  0
 32 27  1  0
 23 18  1  0
  1 33  1  0
  8 34  1  0
  8 35  1  0
 10 36  1  0
 11 37  1  0
 12 38  1  0
 14 39  1  0
 19 40  1  0
 20 41  1  0
 21 42  1  0
 22 43  1  0
 23 44  1  0
 24 45  1  0
 28 46  1  0
 29 47  1  0
 30 48  1  0
 31 49  1  0
M  CHG  1   1  -1
M  END
>  <UniqueID>  (46) 
42

>  <SMILES>  (46) 
[NH-]C(=O)n1c(=O)n(Cc2cccc(NC(=O)Oc3ccccc3)c2)c(=O)c2ccccc21

>  <Energy>  (46) 
80.59003681610776

>  <Genealogy>  (46) 
[NH-]C(=O)n1c(=O)n(Cc2cccc(NC(=O)Oc3ccccc3)c2)c(=O)c2ccccc21 (protonated)
[NH-]C(=O)n1c(=O)n(Cc2cccc(NC(=O)Oc3ccccc3)c2)c(=O)c2ccccc21 (3D coordinates assigned)
[NH-]C(=O)n1c(=O)n(Cc2cccc(NC(=O)Oc3ccccc3)c2)c(=O)c2ccccc21 (optimized conformer: 80.59003681610776 kcal/mol)

>  <smiles>  (46) 
NC(=O)n1c(=O)n(Cc2cccc(NC(=O)Oc3ccccc3)c2)c(=O)c2ccccc21

>  <score_type>  (46) 
oracle

>  <origin>  (46) 
adg

>  <m_score__min__energy>  (46) 
-10.93

>  <m_primary>  (46) 
energy

$$$$
46:0
     RDKit          3D

 40 41  0  0  0  0  0  0  0  0999 V2000
   57.7630   33.1090   52.3410 C   0  0  0  0  0  0  0  0  0  0  0  0
   57.4330   32.0370   51.3850 N   0  0  0  0  0  0  0  0  0  0  0  0
   56.4120   31.1490   51.9730 C   0  0  0  0  0  0  0  0  0  0  0  0
   58.6620   31.2920   51.0210 C   0  0  0  0  0  0  0  0  0  0  0  0
   59.2190   31.7130   49.6490 C   0  0  0  0  0  0  0  0  0  0  0  0
   58.2130   32.3690   48.8770 O   0  0  0  0  0  0  0  0  0  0  0  0
   58.3600   32.8120   47.5520 C   0  0  0  0  0  0  0  0  0  0  0  0
   58.6540   34.1500   47.2220 C   0  0  0  0  0  0  0  0  0  0  0  0
   58.7910   34.5310   45.8850 C   0  0  0  0  0  0  0  0  0  0  0  0
   58.6340   33.5890   44.8660 C   0  0  0  0  0  0  0  0  0  0  0  0
   58.3280   32.2570   45.1780 C   0  0  0  0  0  0  0  0  0  0  0  0
   58.1930   31.2280   44.0850 C   0  0  0  0  0  0  0  0  0  0  0  0
   57.6890   29.9600   44.6370 N   0  0  0  0  0  0  0  0  0  0  0  0
   58.5800   28.9820   44.9840 C   0  0  0  0  0  0  0  0  0  0  0  0
   58.1330   27.7600   45.4800 C   0  0  0  0  0  0  0  0  0  0  0  0
   56.7620   27.5560   45.6090 C   0  0  0  0  0  0  0  0  0  0  0  0
   56.3220   26.4640   46.0550 O   0  0  0  0  0  0  0  0  0  0  0  0
   55.8990   28.5380   45.2510 N   0  0  0  0  0  0  0  0  0  0  0  0
   56.3440   29.7270   44.7660 C   0  0  0  0  0  0  0  0  0  0  0  0
   55.5010   30.6070   44.4410 O   0  0  0  0  0  0  0  0  0  0  0  0
   58.1990   31.8760   46.5230 C   0  0  0  0  0  0  0  0  0  0  0  0
   57.6472   32.7327   53.3681 H   0  0  0  0  0  0  0  0  0  0  0  0
   58.8025   33.4329   52.1842 H   0  0  0  0  0  0  0  0  0  0  0  0
   57.0857   33.9614   52.1842 H   0  0  0  0  0  0  0  0  0  0  0  0
   57.0320   32.4870   50.5280 H   0  0  0  0  0  0  0  0  0  0  0  0
   56.4701   31.1996   53.0703 H   0  0  0  0  0  0  0  0  0  0  0  0
   55.4129   31.4704   51.6435 H   0  0  0  0  0  0  0  0  0  0  0  0
   56.5917   30.1150   51.6435 H   0  0  0  0  0  0  0  0  0  0  0  0
   59.4291   31.4804   51.7866 H   0  0  0  0  0  0  0  0  0  0  0  0
   58.4026   30.2245   50.9644 H   0  0  0  0  0  0  0  0  0  0  0  0
   60.0653   32.3997   49.7979 H   0  0  0  0  0  0  0  0  0  0  0  0
   59.5489   30.8130   49.1094 H   0  0  0  0  0  0  0  0  0  0  0  0
   58.7761   34.8972   48.0200 H   0  0  0  0  0  0  0  0  0  0  0  0
   59.0233   35.5765   45.6340 H   0  0  0  0  0  0  0  0  0  0  0  0
   58.7508   33.8931   43.8154 H   0  0  0  0  0  0  0  0  0  0  0  0
   57.4901   31.5973   43.3237 H   0  0  0  0  0  0  0  0  0  0  0  0
   59.1807   31.0542   43.6330 H   0  0  0  0  0  0  0  0  0  0  0  0
   59.6591   29.1623   44.8703 H   0  0  0  0  0  0  0  0  0  0  0  0
   58.8475   26.9732   45.7636 H   0  0  0  0  0  0  0  0  0  0  0  0
   57.9687   30.8295   46.7716 H   0  0  0  0  0  0  0  0  0  0  0  0
  1  2  1  0
  2  3  1  0
  2  4  1  0
  4  5  1  0
  5  6  1  0
  6  7  1  0
  7  8  2  0
  8  9  1  0
  9 10  2  0
 10 11  1  0
 11 12  1  0
 12 13  1  0
 13 14  1  0
 14 15  2  0
 15 16  1  0
 16 17  2  0
 16 18  1  0
 18 19  1  0
 19 20  2  0
 11 21  2  0
 21  7  1  0
 19 13  1  0
  1 22  1  0
  1 23  1  0
  1 24  1  0
  2 25  1  0
  3 26  1  0
  3 27  1  0
  3 28  1  0
  4 29  1  0
  4 30  1  0
  5 31  1  0
  5 32  1  0
  8 33  1  0
  9 34  1  0
 10 35  1  0
 12 36  1  0
 12 37  1  0
 14 38  1  0
 15 39  1  0
 21 40  1  0
M  CHG  2   2   1  18  -1
M  END
>  <UniqueID>  (47) 
43

>  <SMILES>  (47) 
C[NH+](C)CCOc1cccc(Cn2ccc(=O)[n-]c2=O)c1

>  <Energy>  (47) 
41.77255705902287

>  <Genealogy>  (47) 
C[NH+](C)CCOc1cccc(Cn2ccc(=O)[n-]c2=O)c1 (protonated)
C[NH+](C)CCOc1cccc(Cn2ccc(=O)[n-]c2=O)c1 (3D coordinates assigned)
C[NH+](C)CCOc1cccc(Cn2ccc(=O)[n-]c2=O)c1 (optimized conformer: 41.77255705902287 kcal/mol)

>  <smiles>  (47) 
CN(C)CCOc1cccc(Cn2ccc(=O)[nH]c2=O)c1

>  <score_type>  (47) 
oracle

>  <origin>  (47) 
adg

>  <m_score__min__energy>  (47) 
-6.8399999999999999

>  <m_primary>  (47) 
energy

$$$$
47:0
     RDKit          3D

 57 59  0  0  0  0  0  0  0  0999 V2000
   59.2280   34.9150   47.3240 C   0  0  0  0  0  0  0  0  0  0  0  0
   58.1180   33.9490   47.3680 N   0  0  0  0  0  0  0  0  0  0  0  0
   57.6170   33.7170   46.0020 C   0  0  0  0  0  0  0  0  0  0  0  0
   58.5700   32.6850   47.9950 C   0  0  0  0  0  0  0  0  0  0  0  0
   59.5390   32.9410   49.1640 C   0  0  0  0  0  0  0  0  0  0  0  0
   59.3500   31.9580   50.3260 C   0  0  0  0  0  0  0  0  0  0  0  0
   58.9650   32.6750   51.5370 N   0  0  0  0  0  0  0  0  0  0  0  0
   57.7100   32.5170   52.2090 C   0  0  0  0  0  0  0  0  0  0  0  0
   56.9620   33.5230   52.3380 O   0  0  0  0  0  0  0  0  0  0  0  0
   57.2570   31.2130   52.7310 C   0  0  0  0  0  0  0  0  0  0  0  0
   58.0750   30.4890   53.6050 C   0  0  0  0  0  0  0  0  0  0  0  0
   57.6590   29.2500   54.0920 C   0  0  0  0  0  0  0  0  0  0  0  0
   56.4350   28.6920   53.6810 C   0  0  0  0  0  0  0  0  0  0  0  0
   55.9870   27.4820   54.2280 O   0  0  0  0  0  0  0  0  0  0  0  0
   56.7820   26.3500   54.4700 C   0  0  0  0  0  0  0  0  0  0  0  0
   58.0300   26.2650   53.8410 C   0  0  0  0  0  0  0  0  0  0  0  0
   58.8640   25.1660   54.0730 C   0  0  0  0  0  0  0  0  0  0  0  0
   58.4580   24.1510   54.9420 C   0  0  0  0  0  0  0  0  0  0  0  0
   57.2220   24.2370   55.5880 C   0  0  0  0  0  0  0  0  0  0  0  0
   56.3860   25.3340   55.3590 C   0  0  0  0  0  0  0  0  0  0  0  0
   55.6250   29.4020   52.7670 C   0  0  0  0  0  0  0  0  0  0  0  0
   54.3790   28.8900   52.2670 N   0  0  0  0  0  0  0  0  0  0  0  0
   52.8530   28.9240   53.0890 S   0  0  0  0  0  0  0  0  0  0  0  0
   53.0540   28.7140   54.5650 O   0  0  0  0  0  0  0  0  0  0  0  0
   51.9570   27.8430   52.5490 O   0  0  0  0  0  0  0  0  0  0  0  0
   52.0980   30.4910   52.8160 C   0  0  0  0  0  0  0  0  0  0  0  0
   51.6750   31.2760   53.8980 C   0  0  0  0  0  0  0  0  0  0  0  0
   51.0670   32.5140   53.6710 C   0  0  0  0  0  0  0  0  0  0  0  0
   50.8740   32.9750   52.3640 C   0  0  0  0  0  0  0  0  0  0  0  0
   50.2690   34.2070   52.1450 O   0  0  0  0  0  0  0  0  0  0  0  0
   51.2890   32.1910   51.2790 C   0  0  0  0  0  0  0  0  0  0  0  0
   51.0950   32.6400   49.9780 O   0  0  0  0  0  0  0  0  0  0  0  0
   51.8980   30.9510   51.5060 C   0  0  0  0  0  0  0  0  0  0  0  0
   56.0370   30.6620   52.3130 C   0  0  0  0  0  0  0  0  0  0  0  0
   59.5278   35.1759   48.3497 H   0  0  0  0  0  0  0  0  0  0  0  0
   60.0824   34.4679   46.7947 H   0  0  0  0  0  0  0  0  0  0  0  0
   58.9032   35.8229   46.7947 H   0  0  0  0  0  0  0  0  0  0  0  0
   56.6198   33.2552   46.0507 H   0  0  0  0  0  0  0  0  0  0  0  0
   57.5512   34.6763   45.4677 H   0  0  0  0  0  0  0  0  0  0  0  0
   58.3060   33.0463   45.4677 H   0  0  0  0  0  0  0  0  0  0  0  0
   57.6918   32.1412   48.3731 H   0  0  0  0  0  0  0  0  0  0  0  0
   59.1017   32.0964   47.2329 H   0  0  0  0  0  0  0  0  0  0  0  0
   60.5698   32.8490   48.7913 H   0  0  0  0  0  0  0  0  0  0  0  0
   59.3300   33.9498   49.5494 H   0  0  0  0  0  0  0  0  0  0  0  0
   58.5623   31.2355   50.0659 H   0  0  0  0  0  0  0  0  0  0  0  0
   60.2985   31.4314   50.5077 H   0  0  0  0  0  0  0  0  0  0  0  0
   59.0496   30.8983   53.9092 H   0  0  0  0  0  0  0  0  0  0  0  0
   58.2945   28.7038   54.8046 H   0  0  0  0  0  0  0  0  0  0  0  0
   58.3562   27.0660   53.1613 H   0  0  0  0  0  0  0  0  0  0  0  0
   59.8404   25.1013   53.5705 H   0  0  0  0  0  0  0  0  0  0  0  0
   59.1113   23.2837   55.1180 H   0  0  0  0  0  0  0  0  0  0  0  0
   56.9062   23.4404   56.2778 H   0  0  0  0  0  0  0  0  0  0  0  0
   55.4169   25.4028   55.8748 H   0  0  0  0  0  0  0  0  0  0  0  0
   51.8219   30.9170   54.9273 H   0  0  0  0  0  0  0  0  0  0  0  0
   50.7391   33.1280   54.5228 H   0  0  0  0  0  0  0  0  0  0  0  0
   52.2209   30.3350   50.6538 H   0  0  0  0  0  0  0  0  0  0  0  0
   55.3954   31.2260   51.6200 H   0  0  0  0  0  0  0  0  0  0  0  0
  1  2  1  0
  2  3  1  0
  2  4  1  0
  4  5  1  0
  5  6  1  0
  6  7  1  0
  7  8  1  0
  8  9  2  0
  8 10  1  0
 10 11  2  0
 11 12  1  0
 12 13  2  0
 13 14  1  0
 14 15  1  0
 15 16  2  0
 16 17  1  0
 17 18  2  0
 18 19  1  0
 19 20  2  0
 13 21  1  0
 21 22  1  0
 22 23  1  0
 23 24  2  0
 23 25  2  0
 23 26  1  0
 26 27  2  0
 27 28  1  0
 28 29  2  0
 29 30  1  0
 29 31  1  0
 31 32  1  0
 31 33  2  0
 21 34  2  0
 34 10  1  0
 20 15  1  0
 33 26  1  0
  1 35  1  0
  1 36  1  0
  1 37  1  0
  3 38  1  0
  3 39  1  0
  3 40  1  0
  4 41  1  0
  4 42  1  0
  5 43  1  0
  5 44  1  0
  6 45  1  0
  6 46  1  0
 11 47  1  0
 12 48  1  0
 16 49  1  0
 17 50  1  0
 18 51  1  0
 19 52  1  0
 20 53  1  0
 27 54  1  0
 28 55  1  0
 33 56  1  0
 34 57  1  0
M  CHG  4   7  -1  22  -1  30  -1  32  -1
M  END
>  <UniqueID>  (48) 
44

>  <SMILES>  (48) 
CN(C)CCC[N-]C(=O)c1ccc(Oc2ccccc2)c([N-]S(=O)(=O)c2ccc([O-])c([O-])c2)c1

>  <Energy>  (48) 
73.76427632354266

>  <Genealogy>  (48) 
CN(C)CCC[N-]C(=O)c1ccc(Oc2ccccc2)c([N-]S(=O)(=O)c2ccc([O-])c([O-])c2)c1 (protonated)
CN(C)CCC[N-]C(=O)c1ccc(Oc2ccccc2)c([N-]S(=O)(=O)c2ccc([O-])c([O-])c2)c1 (3D coordinates assigned)
CN(C)CCC[N-]C(=O)c1ccc(Oc2ccccc2)c([N-]S(=O)(=O)c2ccc([O-])c([O-])c2)c1 (optimized conformer: 73.76427632354266 kcal/mol)

>  <smiles>  (48) 
CN(C)CCCNC(=O)c1ccc(Oc2ccccc2)c(NS(=O)(=O)c2ccc(O)c(O)c2)c1

>  <score_type>  (48) 
oracle

>  <origin>  (48) 
adg

>  <m_score__min__energy>  (48) 
-16.370000000000001

>  <m_primary>  (48) 
energy

$$$$
48:0
     RDKit          3D

 27 28  0  0  0  0  0  0  0  0999 V2000
   55.8500   30.0910   42.9230 O   0  0  0  0  0  0  0  0  0  0  0  0
   55.8420   30.1580   44.1780 C   0  0  0  0  0  0  0  0  0  0  0  0
   55.9900   31.4380   44.8080 N   0  0  0  0  0  0  0  0  0  0  0  0
   57.2340   32.0690   45.1420 C   0  0  0  0  0  0  0  0  0  0  0  0
   57.5460   33.3040   44.5580 C   0  0  0  0  0  0  0  0  0  0  0  0
   58.7470   33.9490   44.8720 C   0  0  0  0  0  0  0  0  0  0  0  0
   59.6510   33.3540   45.7570 C   0  0  0  0  0  0  0  0  0  0  0  0
   59.3590   32.1090   46.3220 C   0  0  0  0  0  0  0  0  0  0  0  0
   60.2410   31.5270   47.1710 F   0  0  0  0  0  0  0  0  0  0  0  0
   58.1600   31.4620   46.0090 C   0  0  0  0  0  0  0  0  0  0  0  0
   55.6740   28.9530   44.9380 N   0  0  0  0  0  0  0  0  0  0  0  0
   56.7270   28.0870   45.3870 C   0  0  0  0  0  0  0  0  0  0  0  0
   58.0530   28.4570   45.1290 C   0  0  0  0  0  0  0  0  0  0  0  0
   59.1110   27.6620   45.5810 C   0  0  0  0  0  0  0  0  0  0  0  0
   60.7680   28.1530   45.2820 Cl  0  0  0  0  0  0  0  0  0  0  0  0
   58.8470   26.4770   46.2760 C   0  0  0  0  0  0  0  0  0  0  0  0
   57.5280   26.0820   46.5070 C   0  0  0  0  0  0  0  0  0  0  0  0
   56.4610   26.8720   46.0550 C   0  0  0  0  0  0  0  0  0  0  0  0
   55.1490   26.4440   46.2500 O   0  0  0  0  0  0  0  0  0  0  0  0
   56.8438   33.7681   43.8499 H   0  0  0  0  0  0  0  0  0  0  0  0
   58.9803   34.9253   44.4221 H   0  0  0  0  0  0  0  0  0  0  0  0
   60.5918   33.8653   46.0087 H   0  0  0  0  0  0  0  0  0  0  0  0
   57.9402   30.4751   46.4422 H   0  0  0  0  0  0  0  0  0  0  0  0
   58.2636   29.3790   44.5672 H   0  0  0  0  0  0  0  0  0  0  0  0
   59.6788   25.8563   46.6406 H   0  0  0  0  0  0  0  0  0  0  0  0
   57.3244   25.1454   47.0468 H   0  0  0  0  0  0  0  0  0  0  0  0
   54.3880   27.1020   46.3650 H   0  0  0  0  0  0  0  0  0  0  0  0
  1  2  2  0
  2  3  1  0
  3  4  1  0
  4  5  2  0
  5  6  1  0
  6  7  2  0
  7  8  1  0
  8  9  1  0
  8 10  2  0
  2 11  1  0
 11 12  1  0
 12 13  2  0
 13 14  1  0
 14 15  1  0
 14 16  2  0
 16 17  1  0
 17 18  2  0
 18 19  1  0
 10  4  1  0
 18 12  1  0
  5 20  1  0
  6 21  1  0
  7 22  1  0
 10 23  1  0
 13 24  1  0
 16 25  1  0
 17 26  1  0
 19 27  1  0
M  CHG  2   3  -1  11  -1
M  END
>  <UniqueID>  (49) 
45

>  <SMILES>  (49) 
O=C([N-]c1cccc(F)c1)[N-]c1cc(Cl)ccc1O

>  <Energy>  (49) 
35.90881472715787

>  <Genealogy>  (49) 
O=C([N-]c1cccc(F)c1)[N-]c1cc(Cl)ccc1O (protonated)
O=C([N-]c1cccc(F)c1)[N-]c1cc(Cl)ccc1O (3D coordinates assigned)
O=C([N-]c1cccc(F)c1)[N-]c1cc(Cl)ccc1O (optimized conformer: 35.90881472715787 kcal/mol)

>  <smiles>  (49) 
O=C(Nc1cccc(F)c1)Nc1cc(Cl)ccc1O

>  <score_type>  (49) 
oracle

>  <origin>  (49) 
adg

>  <m_score__min__energy>  (49) 
-11.529999999999999

>  <m_primary>  (49) 
energy

$$$$
49:0
     RDKit          3D

 54 57  0  0  0  0  0  0  0  0999 V2000
   56.7310   24.6860   44.6300 C   0  0  0  0  0  0  0  0  0  0  0  0
   56.1650   25.2680   46.2200 S   0  0  0  0  0  0  0  0  0  0  0  0
   55.1640   26.3650   45.9940 O   0  0  0  0  0  0  0  0  0  0  0  0
   55.5030   24.1550   46.9920 O   0  0  0  0  0  0  0  0  0  0  0  0
   57.5050   25.9070   47.1220 N   0  0  0  0  0  0  0  0  0  0  0  0
   58.3530   26.9660   46.6590 C   0  0  0  0  0  0  0  0  0  0  0  0
   59.7210   26.7640   46.4060 C   0  0  0  0  0  0  0  0  0  0  0  0
   60.4980   27.7990   45.8820 C   0  0  0  0  0  0  0  0  0  0  0  0
   59.9220   29.0430   45.6130 C   0  0  0  0  0  0  0  0  0  0  0  0
   58.5660   29.2720   45.8890 C   0  0  0  0  0  0  0  0  0  0  0  0
   57.9560   30.5700   45.5290 C   0  0  0  0  0  0  0  0  0  0  0  0
   56.6880   30.6940   45.0680 N   0  0  0  0  0  0  0  0  0  0  0  0
   56.4080   31.9820   44.8950 N   0  0  0  0  0  0  0  0  0  0  0  0
   57.5020   32.6800   45.2440 C   0  0  0  0  0  0  0  0  0  0  0  0
   57.6720   34.0610   45.2240 C   0  0  0  0  0  0  0  0  0  0  0  0
   58.9110   34.5790   45.6360 C   0  0  0  0  0  0  0  0  0  0  0  0
   59.9530   33.7080   46.0510 C   0  0  0  0  0  0  0  0  0  0  0  0
   61.1940   34.2020   46.4730 O   0  0  0  0  0  0  0  0  0  0  0  0
   61.9600   33.6360   47.5030 C   0  0  0  0  0  0  0  0  0  0  0  0
   62.0230   34.1870   48.6390 O   0  0  0  0  0  0  0  0  0  0  0  0
   62.6280   32.3930   47.2680 N   0  0  0  0  0  0  0  0  0  0  0  0
   63.1720   31.5890   48.3630 C   0  0  0  0  0  0  0  0  0  0  0  0
   62.3120   31.6760   49.6030 C   0  0  0  0  0  0  0  0  0  0  0  0
   62.7820   32.2320   50.6320 O   0  0  0  0  0  0  0  0  0  0  0  0
   60.9480   31.2370   49.6050 N   0  0  0  0  0  0  0  0  0  0  0  0
   59.8910   32.2390   49.7750 C   0  0  0  0  0  0  0  0  0  0  0  0
   58.5120   31.5900   49.6590 C   0  0  0  0  0  0  0  0  0  0  0  0
   58.5450   30.5890   48.6660 O   0  0  0  0  0  0  0  0  0  0  0  0
   59.2590   29.4610   49.1370 C   0  0  0  0  0  0  0  0  0  0  0  0
   60.6460   29.8080   49.7300 C   0  0  0  0  0  0  0  0  0  0  0  0
   59.7550   32.3130   46.0210 C   0  0  0  0  0  0  0  0  0  0  0  0
   58.5000   31.8370   45.6440 C   0  0  0  0  0  0  0  0  0  0  0  0
   57.7870   28.2250   46.4180 C   0  0  0  0  0  0  0  0  0  0  0  0
   57.4912   23.9043   44.7751 H   0  0  0  0  0  0  0  0  0  0  0  0
   55.8814   24.2714   44.0676 H   0  0  0  0  0  0  0  0  0  0  0  0
   57.1691   25.5237   44.0676 H   0  0  0  0  0  0  0  0  0  0  0  0
   60.1805   25.7880   46.6214 H   0  0  0  0  0  0  0  0  0  0  0  0
   61.5668   27.6344   45.6804 H   0  0  0  0  0  0  0  0  0  0  0  0
   60.5357   29.8478   45.1821 H   0  0  0  0  0  0  0  0  0  0  0  0
   56.8605   34.7270   44.8954 H   0  0  0  0  0  0  0  0  0  0  0  0
   59.0752   35.6667   45.6372 H   0  0  0  0  0  0  0  0  0  0  0  0
   62.6060   31.9890   46.3070 H   0  0  0  0  0  0  0  0  0  0  0  0
   63.2270   30.5387   48.0406 H   0  0  0  0  0  0  0  0  0  0  0  0
   64.1703   31.9788   48.6107 H   0  0  0  0  0  0  0  0  0  0  0  0
   59.9896   32.7040   50.7670 H   0  0  0  0  0  0  0  0  0  0  0  0
   59.9928   32.9996   48.9869 H   0  0  0  0  0  0  0  0  0  0  0  0
   58.2363   31.1400   50.6241 H   0  0  0  0  0  0  0  0  0  0  0  0
   57.7694   32.3538   49.3848 H   0  0  0  0  0  0  0  0  0  0  0  0
   58.6594   28.9715   49.9186 H   0  0  0  0  0  0  0  0  0  0  0  0
   59.4336   28.8055   48.2711 H   0  0  0  0  0  0  0  0  0  0  0  0
   60.6570   29.5333   50.7951 H   0  0  0  0  0  0  0  0  0  0  0  0
   61.4082   29.2466   49.1698 H   0  0  0  0  0  0  0  0  0  0  0  0
   60.5668   31.6201   46.2872 H   0  0  0  0  0  0  0  0  0  0  0  0
   56.7243   28.3970   46.6441 H   0  0  0  0  0  0  0  0  0  0  0  0
  1  2  1  0
  2  3  2  0
  2  4  2  0
  2  5  1  0
  5  6  1  0
  6  7  2  0
  7  8  1  0
  8  9  2  0
  9 10  1  0
 10 11  1  0
 11 12  1  0
 12 13  1  0
 13 14  2  0
 14 15  1  0
 15 16  2  0
 16 17  1  0
 17 18  1  0
 18 19  1  0
 19 20  2  0
 19 21  1  0
 21 22  1  0
 22 23  1  0
 23 24  2  0
 23 25  1  0
 25 26  1  0
 26 27  1  0
 27 28  1  0
 28 29  1  0
 29 30  1  0
 17 31  2  0
 31 32  1  0
 10 33  2  0
 33  6  1  0
 32 11  2  0
 32 14  1  0
 30 25  1  0
  1 34  1  0
  1 35  1  0
  1 36  1  0
  7 37  1  0
  8 38  1  0
  9 39  1  0
 15 40  1  0
 16 41  1  0
 21 42  1  0
 22 43  1  0
 22 44  1  0
 26 45  1  0
 26 46  1  0
 27 47  1  0
 27 48  1  0
 29 49  1  0
 29 50  1  0
 30 51  1  0
 30 52  1  0
 31 53  1  0
 33 54  1  0
M  CHG  2   5  -1  12  -1
M  END
>  <UniqueID>  (50) 
46

>  <SMILES>  (50) 
CS(=O)(=O)[N-]c1cccc(-c2[n-]nc3ccc(OC(=O)NCC(=O)N4CCOCC4)cc23)c1

>  <Energy>  (50) 
111.22932134727931

>  <Genealogy>  (50) 
CS(=O)(=O)[N-]c1cccc(-c2[n-]nc3ccc(OC(=O)NCC(=O)N4CCOCC4)cc23)c1 (protonated)
CS(=O)(=O)[N-]c1cccc(-c2[n-]nc3ccc(OC(=O)NCC(=O)N4CCOCC4)cc23)c1 (3D coordinates assigned)
CS(=O)(=O)[N-]c1cccc(-c2[n-]nc3ccc(OC(=O)NCC(=O)N4CCOCC4)cc23)c1 (nonaromatic ring conformer: 111.22932134727931 kcal/mol)

>  <smiles>  (50) 
CS(=O)(=O)Nc1cccc(-c2[nH]nc3ccc(OC(=O)NCC(=O)N4CCOCC4)cc23)c1

>  <score_type>  (50) 
oracle

>  <origin>  (50) 
adg

>  <m_score__min__energy>  (50) 
-12.9

>  <m_primary>  (50) 
energy

$$$$
50:0
     RDKit          3D

 31 32  0  0  0  0  0  0  0  0999 V2000
   55.1380   29.3390   44.8590 N   0  0  0  0  0  0  0  0  0  0  0  0
   56.7000   29.9920   44.5120 S   0  0  0  0  0  0  0  0  0  0  0  0
   56.9350   29.9670   43.0270 O   0  0  0  0  0  0  0  0  0  0  0  0
   56.7670   31.4170   44.9870 O   0  0  0  0  0  0  0  0  0  0  0  0
   57.9280   29.0320   45.3290 C   0  0  0  0  0  0  0  0  0  0  0  0
   58.6950   28.1080   44.6080 C   0  0  0  0  0  0  0  0  0  0  0  0
   59.6600   27.3400   45.2610 C   0  0  0  0  0  0  0  0  0  0  0  0
   59.8660   27.4860   46.6350 C   0  0  0  0  0  0  0  0  0  0  0  0
   59.1030   28.4110   47.3740 C   0  0  0  0  0  0  0  0  0  0  0  0
   59.2880   28.5920   48.7900 N   0  0  0  0  0  0  0  0  0  0  0  0
   59.1940   30.1290   49.5910 S   0  0  0  0  0  0  0  0  0  0  0  0
   57.9140   30.2010   50.3750 O   0  0  0  0  0  0  0  0  0  0  0  0
   60.3550   30.2610   50.5360 O   0  0  0  0  0  0  0  0  0  0  0  0
   59.2050   31.4300   48.4040 C   0  0  0  0  0  0  0  0  0  0  0  0
   58.1500   32.3510   48.3510 C   0  0  0  0  0  0  0  0  0  0  0  0
   58.1700   33.3890   47.4130 C   0  0  0  0  0  0  0  0  0  0  0  0
   59.2430   33.5080   46.5240 C   0  0  0  0  0  0  0  0  0  0  0  0
   59.2720   34.9270   45.2460 Br  0  0  0  0  0  0  0  0  0  0  0  0
   60.2950   32.5870   46.5700 C   0  0  0  0  0  0  0  0  0  0  0  0
   60.2760   31.5490   47.5070 C   0  0  0  0  0  0  0  0  0  0  0  0
   58.1300   29.1750   46.7090 C   0  0  0  0  0  0  0  0  0  0  0  0
   55.2560   28.6660   45.6470 H   0  0  0  0  0  0  0  0  0  0  0  0
   58.5366   27.9876   43.5261 H   0  0  0  0  0  0  0  0  0  0  0  0
   60.2613   26.6163   44.6912 H   0  0  0  0  0  0  0  0  0  0  0  0
   60.6277   26.8756   47.1422 H   0  0  0  0  0  0  0  0  0  0  0  0
   59.4120   27.7510   49.3960 H   0  0  0  0  0  0  0  0  0  0  0  0
   57.3044   32.2576   49.0483 H   0  0  0  0  0  0  0  0  0  0  0  0
   57.3415   34.1116   47.3748 H   0  0  0  0  0  0  0  0  0  0  0  0
   61.1375   32.6793   45.8688 H   0  0  0  0  0  0  0  0  0  0  0  0
   61.1030   30.8244   47.5403 H   0  0  0  0  0  0  0  0  0  0  0  0
   57.5201   29.8930   47.2768 H   0  0  0  0  0  0  0  0  0  0  0  0
  1  2  1  0
  2  3  2  0
  2  4  2  0
  2  5  1  0
  5  6  2  0
  6  7  1  0
  7  8  2  0
  8  9  1  0
  9 10  1  0
 10 11  1  0
 11 12  2  0
 11 13  2  0
 11 14  1  0
 14 15  2  0
 15 16  1  0
 16 17  2  0
 17 18  1  0
 17 19  1  0
 19 20  2  0
  9 21  2  0
 21  5  1  0
 20 14  1  0
  1 22  1  0
  6 23  1  0
  7 24  1  0
  8 25  1  0
 10 26  1  0
 15 27  1  0
 16 28  1  0
 19 29  1  0
 20 30  1  0
 21 31  1  0
M  CHG  1   1  -1
M  END
>  <UniqueID>  (51) 
47

>  <SMILES>  (51) 
[NH-]S(=O)(=O)c1cccc(NS(=O)(=O)c2ccc(Br)cc2)c1

>  <Energy>  (51) 
33.93049442538833

>  <Genealogy>  (51) 
[NH-]S(=O)(=O)c1cccc(NS(=O)(=O)c2ccc(Br)cc2)c1 (protonated)
[NH-]S(=O)(=O)c1cccc(NS(=O)(=O)c2ccc(Br)cc2)c1 (3D coordinates assigned)
[NH-]S(=O)(=O)c1cccc(NS(=O)(=O)c2ccc(Br)cc2)c1 (optimized conformer: 33.93049442538833 kcal/mol)

>  <smiles>  (51) 
NS(=O)(=O)c1cccc(NS(=O)(=O)c2ccc(Br)cc2)c1

>  <score_type>  (51) 
oracle

>  <origin>  (51) 
adg

>  <m_score__min__energy>  (51) 
-12.27

>  <m_primary>  (51) 
energy

$$$$
51:0
     RDKit          3D

 46 49  0  0  0  0  0  0  0  0999 V2000
   55.3650   28.1650   44.8960 H   0  0  0  0  0  0  0  0  0  0  0  0
   55.1450   29.1130   44.5130 N   0  0  0  0  0  0  0  0  0  0  0  0
   56.0780   29.9710   44.2540 C   0  0  0  0  0  0  0  0  0  0  0  0
   56.8940   30.4170   45.2450 N   0  0  0  0  0  0  0  0  0  0  0  0
   57.8830   31.3220   45.0010 C   0  0  0  0  0  0  0  0  0  0  0  0
   58.7300   31.7940   46.1190 C   0  0  0  0  0  0  0  0  0  0  0  0
   59.8590   31.1810   46.6310 C   0  0  0  0  0  0  0  0  0  0  0  0
   60.4270   30.0070   46.1250 O   0  0  0  0  0  0  0  0  0  0  0  0
   59.7220   28.8760   45.6860 C   0  0  0  0  0  0  0  0  0  0  0  0
   59.6490   28.6390   44.3070 C   0  0  0  0  0  0  0  0  0  0  0  0
   60.1641   29.3161   43.6097 H   0  0  0  0  0  0  0  0  0  0  0  0
   58.9290   27.5520   43.8100 C   0  0  0  0  0  0  0  0  0  0  0  0
   58.8924   27.3656   42.7265 H   0  0  0  0  0  0  0  0  0  0  0  0
   58.2550   26.7010   44.6880 C   0  0  0  0  0  0  0  0  0  0  0  0
   57.6879   25.8456   44.2922 H   0  0  0  0  0  0  0  0  0  0  0  0
   58.2960   26.9290   46.0690 C   0  0  0  0  0  0  0  0  0  0  0  0
   57.5430   26.0550   46.9220 N   0  0  0  0  0  0  0  0  0  0  0  0
   56.1100   25.1900   46.4780 S   0  0  0  0  0  0  0  0  0  0  0  0
   55.5550   24.4880   47.6870 O   0  0  0  0  0  0  0  0  0  0  0  0
   55.0860   26.1660   45.9730 O   0  0  0  0  0  0  0  0  0  0  0  0
   56.4800   24.0460   45.1970 C   0  0  0  0  0  0  0  0  0  0  0  0
   57.6290   23.2490   45.2680 C   0  0  0  0  0  0  0  0  0  0  0  0
   58.3198   23.3548   46.1175 H   0  0  0  0  0  0  0  0  0  0  0  0
   57.8990   22.3180   44.2590 C   0  0  0  0  0  0  0  0  0  0  0  0
   58.7982   21.6874   44.3212 H   0  0  0  0  0  0  0  0  0  0  0  0
   57.0320   22.1870   43.1750 C   0  0  0  0  0  0  0  0  0  0  0  0
   57.2500   21.4573   42.3812 H   0  0  0  0  0  0  0  0  0  0  0  0
   55.8830   22.9850   43.0970 C   0  0  0  0  0  0  0  0  0  0  0  0
   55.1991   22.8816   42.2417 H   0  0  0  0  0  0  0  0  0  0  0  0
   55.6050   23.9130   44.1060 C   0  0  0  0  0  0  0  0  0  0  0  0
   54.7020   24.5382   44.0453 H   0  0  0  0  0  0  0  0  0  0  0  0
   59.0360   28.0190   46.5670 C   0  0  0  0  0  0  0  0  0  0  0  0
   59.0781   28.2016   47.6509 H   0  0  0  0  0  0  0  0  0  0  0  0
   60.3530   31.8990   47.6590 N   0  0  0  0  0  0  0  0  0  0  0  0
   59.5650   32.9500   47.8090 N   0  0  0  0  0  0  0  0  0  0  0  0
   59.7160   33.9260   48.8790 C   0  0  0  0  0  0  0  0  0  0  0  0
   59.6375   33.4186   49.8518 H   0  0  0  0  0  0  0  0  0  0  0  0
   60.6999   34.4110   48.7967 H   0  0  0  0  0  0  0  0  0  0  0  0
   58.9247   34.6857   48.7967 H   0  0  0  0  0  0  0  0  0  0  0  0
   58.5650   32.9180   46.9070 C   0  0  0  0  0  0  0  0  0  0  0  0
   57.7567   33.6583   46.8135 H   0  0  0  0  0  0  0  0  0  0  0  0
   58.0640   31.7980   43.6930 C   0  0  0  0  0  0  0  0  0  0  0  0
   58.8562   32.5263   43.4651 H   0  0  0  0  0  0  0  0  0  0  0  0
   57.2180   31.3280   42.6880 C   0  0  0  0  0  0  0  0  0  0  0  0
   57.3404   31.6844   41.6546 H   0  0  0  0  0  0  0  0  0  0  0  0
   56.2430   30.4300   42.9860 N   0  0  0  0  0  0  0  0  0  0  0  0
  1  2  1  0
  2  3  2  0
  3  4  1  0
  4  5  2  0
  5  6  1  0
  6  7  1  0
  7  8  1  0
  8  9  1  0
  9 10  2  0
 10 11  1  0
 10 12  1  0
 12 13  1  0
 12 14  2  0
 14 15  1  0
 14 16  1  0
 16 17  1  0
 17 18  1  0
 18 19  2  0
 18 20  2  0
 18 21  1  0
 21 22  2  0
 22 23  1  0
 22 24  1  0
 24 25  1  0
 24 26  2  0
 26 27  1  0
 26 28  1  0
 28 29  1  0
 28 30  2  0
 30 31  1  0
 16 32  2  0
 32 33  1  0
  7 34  2  0
 34 35  1  0
 35 36  1  0
 36 37  1  0
 36 38  1  0
 36 39  1  0
 35 40  1  0
 40 41  1  0
  5 42  1  0
 42 43  1  0
 42 44  2  0
 44 45  1  0
 44 46  1  0
 46  3  1  0
 40  6  2  0
 32  9  1  0
 30 21  1  0
M  CHG  2  17  -1  46  -1
M  END
>  <UniqueID>  (52) 
48

>  <SMILES>  (52) 
[H]/N=c1\nc(-c2cn(C)nc2Oc2cccc([N-]S(=O)(=O)c3ccccc3)c2)cc[n-]1

>  <Energy>  (52) 
87.57858117304023

>  <Genealogy>  (52) 
Cn1cc(-c2cc[n-]c(=N)n2)c(Oc2cccc([N-]S(=O)(=O)c3ccccc3)c2)n1 (protonated)
[H]/N=c1\nc(-c2cn(C)nc2Oc2cccc([N-]S(=O)(=O)c3ccccc3)c2)cc[n-]1 (cis-trans isomerization)
[H]/N=c1\nc(-c2cn(C)nc2Oc2cccc([N-]S(=O)(=O)c3ccccc3)c2)cc[n-]1 (3D coordinates assigned)
[H]/N=c1\nc(-c2cn(C)nc2Oc2cccc([N-]S(=O)(=O)c3ccccc3)c2)cc[n-]1 (optimized conformer: 87.57858117304023 kcal/mol)

>  <smiles>  (52) 
Cn1cc(-c2cc[nH]c(=N)n2)c(Oc2cccc(NS(=O)(=O)c3ccccc3)c2)n1

>  <score_type>  (52) 
oracle

>  <origin>  (52) 
adg

>  <m_score__min__energy>  (52) 
-13.210000000000001

>  <m_primary>  (52) 
energy

$$$$
52:0
     RDKit          3D

 51 53  0  0  0  0  0  0  0  0999 V2000
   56.6380   29.9150   42.5620 N   0  0  0  0  0  0  0  0  0  0  0  0
   56.5150   29.9250   44.2880 S   0  0  0  0  0  0  0  0  0  0  0  0
   56.6460   31.3420   44.7730 O   0  0  0  0  0  0  0  0  0  0  0  0
   55.1770   29.3780   44.6960 O   0  0  0  0  0  0  0  0  0  0  0  0
   57.7950   28.9430   44.9890 C   0  0  0  0  0  0  0  0  0  0  0  0
   58.3680   27.8990   44.2490 C   0  0  0  0  0  0  0  0  0  0  0  0
   59.3600   27.0970   44.8170 C   0  0  0  0  0  0  0  0  0  0  0  0
   59.7870   27.3310   46.1290 C   0  0  0  0  0  0  0  0  0  0  0  0
   59.2270   28.3780   46.8760 C   0  0  0  0  0  0  0  0  0  0  0  0
   59.6480   28.5990   48.3040 C   0  0  0  0  0  0  0  0  0  0  0  0
   58.5520   29.1510   49.0890 N   0  0  0  0  0  0  0  0  0  0  0  0
   58.6130   30.4040   49.7850 C   0  0  0  0  0  0  0  0  0  0  0  0
   57.7870   30.6680   50.7000 O   0  0  0  0  0  0  0  0  0  0  0  0
   59.6420   31.4300   49.3990 C   0  0  2  0  0  0  0  0  0  0  0  0
   59.8280   32.4180   50.4840 N   0  0  0  0  0  0  0  0  0  0  0  0
   60.4100   33.6880   50.0100 C   0  0  0  0  0  0  0  0  0  0  0  0
   61.8200   33.4940   49.5170 C   0  0  0  0  0  0  0  0  0  0  0  0
   62.2200   34.0170   48.2770 C   0  0  0  0  0  0  0  0  0  0  0  0
   63.5250   33.8190   47.8170 C   0  0  0  0  0  0  0  0  0  0  0  0
   64.4430   33.1130   48.5970 C   0  0  0  0  0  0  0  0  0  0  0  0
   64.0560   32.5990   49.8370 C   0  0  0  0  0  0  0  0  0  0  0  0
   62.7510   32.7890   50.2990 C   0  0  0  0  0  0  0  0  0  0  0  0
   59.1970   32.1150   48.1180 C   0  0  0  0  0  0  0  0  0  0  0  0
   57.9410   32.7450   48.0560 C   0  0  0  0  0  0  0  0  0  0  0  0
   57.5370   33.4080   46.8930 C   0  0  0  0  0  0  0  0  0  0  0  0
   58.3860   33.4610   45.7850 C   0  0  0  0  0  0  0  0  0  0  0  0
   59.6440   32.8530   45.8390 C   0  0  0  0  0  0  0  0  0  0  0  0
   60.0520   32.1870   46.9990 C   0  0  0  0  0  0  0  0  0  0  0  0
   58.2350   29.1870   46.2970 C   0  0  0  0  0  0  0  0  0  0  0  0
   57.5240   29.4110   42.3240 H   0  0  0  0  0  0  0  0  0  0  0  0
   55.8560   29.3220   42.2040 H   0  0  0  0  0  0  0  0  0  0  0  0
   58.0350   27.7111   43.2176 H   0  0  0  0  0  0  0  0  0  0  0  0
   59.8067   26.2796   44.2320 H   0  0  0  0  0  0  0  0  0  0  0  0
   60.5635   26.6925   46.5755 H   0  0  0  0  0  0  0  0  0  0  0  0
   59.9562   27.6380   48.7416 H   0  0  0  0  0  0  0  0  0  0  0  0
   60.4847   29.3130   48.3175 H   0  0  0  0  0  0  0  0  0  0  0  0
   60.6096   30.9341   49.2319 H   0  0  0  0  0  0  0  0  0  0  0  0
   58.8810   32.6550   50.8640 H   0  0  0  0  0  0  0  0  0  0  0  0
   59.7936   34.0796   49.1874 H   0  0  0  0  0  0  0  0  0  0  0  0
   60.4310   34.3957   50.8519 H   0  0  0  0  0  0  0  0  0  0  0  0
   61.5036   34.5848   47.6651 H   0  0  0  0  0  0  0  0  0  0  0  0
   63.8293   34.2200   46.8389 H   0  0  0  0  0  0  0  0  0  0  0  0
   65.4707   32.9616   48.2352 H   0  0  0  0  0  0  0  0  0  0  0  0
   64.7801   32.0435   50.4510 H   0  0  0  0  0  0  0  0  0  0  0  0
   62.4515   32.3856   51.2776 H   0  0  0  0  0  0  0  0  0  0  0  0
   57.2718   32.7160   48.9285 H   0  0  0  0  0  0  0  0  0  0  0  0
   56.5486   33.8888   46.8506 H   0  0  0  0  0  0  0  0  0  0  0  0
   58.0650   33.9809   44.8703 H   0  0  0  0  0  0  0  0  0  0  0  0
   60.3138   32.8986   44.9676 H   0  0  0  0  0  0  0  0  0  0  0  0
   61.0456   31.7166   47.0388 H   0  0  0  0  0  0  0  0  0  0  0  0
   57.8010   30.0170   46.8739 H   0  0  0  0  0  0  0  0  0  0  0  0
  1  2  1  0
  2  3  2  0
  2  4  2  0
  2  5  1  0
  5  6  2  0
  6  7  1  0
  7  8  2  0
  8  9  1  0
  9 10  1  0
 10 11  1  0
 11 12  1  0
 12 13  2  0
 12 14  1  0
 14 15  1  0
 15 16  1  0
 16 17  1  0
 17 18  2  0
 18 19  1  0
 19 20  2  0
 20 21  1  0
 21 22  2  0
 14 23  1  0
 23 24  2  0
 24 25  1  0
 25 26  2  0
 26 27  1  0
 27 28  2  0
  9 29  2  0
 29  5  1  0
 22 17  1  0
 28 23  1  0
  1 30  1  0
  1 31  1  0
  6 32  1  0
  7 33  1  0
  8 34  1  0
 10 35  1  0
 10 36  1  0
 14 37  1  6
 15 38  1  0
 16 39  1  0
 16 40  1  0
 18 41  1  0
 19 42  1  0
 20 43  1  0
 21 44  1  0
 22 45  1  0
 24 46  1  0
 25 47  1  0
 26 48  1  0
 27 49  1  0
 28 50  1  0
 29 51  1  0
M  CHG  1  11  -1
M  END
>  <UniqueID>  (53) 
49

>  <SMILES>  (53) 
NS(=O)(=O)c1cccc(C[N-]C(=O)[C@H](NCc2ccccc2)c2ccccc2)c1

>  <Energy>  (53) 
48.372906804024296

>  <Genealogy>  (53) 
NS(=O)(=O)c1cccc(C[N-]C(=O)C(NCc2ccccc2)c2ccccc2)c1 (protonated)
NS(=O)(=O)c1cccc(C[N-]C(=O)[C@H](NCc2ccccc2)c2ccccc2)c1 (chirality)
NS(=O)(=O)c1cccc(C[N-]C(=O)[C@H](NCc2ccccc2)c2ccccc2)c1 (3D coordinates assigned)
NS(=O)(=O)c1cccc(C[N-]C(=O)[C@H](NCc2ccccc2)c2ccccc2)c1 (optimized conformer: 48.372906804024296 kcal/mol)

>  <smiles>  (53) 
NS(=O)(=O)c1cccc(CNC(=O)C(NCc2ccccc2)c2ccccc2)c1

>  <score_type>  (53) 
oracle

>  <origin>  (53) 
adg

>  <m_score__min__energy>  (53) 
-10.67

>  <m_primary>  (53) 
energy

$$$$
53:0
     RDKit          3D

 38 40  0  0  0  0  0  0  0  0999 V2000
   56.2580   29.3380   44.4690 C   0  0  0  0  0  0  0  0  0  0  0  0
   57.5070   29.0340   44.8530 C   0  0  0  0  0  0  0  0  0  0  0  0
   58.0920   27.7640   44.8540 C   0  0  0  0  0  0  0  0  0  0  0  0
   57.5120   26.5950   44.5200 C   0  0  0  0  0  0  0  0  0  0  0  0
   57.1090   25.5710   45.5100 C   0  0  0  0  0  0  0  0  0  0  0  0
   55.8890   25.6560   46.2040 C   0  0  0  0  0  0  0  0  0  0  0  0
   55.0150   26.7160   45.9750 O   0  0  0  0  0  0  0  0  0  0  0  0
   55.5660   24.7070   47.1220 N   0  0  0  0  0  0  0  0  0  0  0  0
   56.4100   23.6810   47.3980 C   0  0  0  0  0  0  0  0  0  0  0  0
   55.9920   22.5570   48.5040 S   0  0  0  0  0  0  0  0  0  0  0  0
   57.6070   23.5950   46.7630 N   0  0  0  0  0  0  0  0  0  0  0  0
   57.9760   24.5160   45.8350 C   0  0  0  0  0  0  0  0  0  0  0  0
   59.0960   24.4060   45.2680 O   0  0  0  0  0  0  0  0  0  0  0  0
   59.3950   27.9340   45.3070 C   0  0  0  0  0  0  0  0  0  0  0  0
   59.5510   29.2820   45.5610 C   0  0  0  0  0  0  0  0  0  0  0  0
   60.8140   29.9230   46.0500 C   0  0  0  0  0  0  0  0  0  0  0  0
   58.4090   29.9480   45.2860 N   0  0  0  0  0  0  0  0  0  0  0  0
   58.2170   31.3670   45.4100 C   0  0  0  0  0  0  0  0  0  0  0  0
   58.1960   31.9480   46.6860 C   0  0  0  0  0  0  0  0  0  0  0  0
   58.0220   33.3270   46.8300 C   0  0  0  0  0  0  0  0  0  0  0  0
   57.8660   34.1340   45.7020 C   0  0  0  0  0  0  0  0  0  0  0  0
   57.8790   33.5640   44.4260 C   0  0  0  0  0  0  0  0  0  0  0  0
   58.0500   32.1800   44.2670 C   0  0  0  0  0  0  0  0  0  0  0  0
   58.0340   31.6140   42.9510 N   0  0  0  0  0  0  0  0  0  0  0  0
   55.9073   30.3797   44.5129 H   0  0  0  0  0  0  0  0  0  0  0  0
   55.5846   28.5456   44.1103 H   0  0  0  0  0  0  0  0  0  0  0  0
   57.3281   26.3905   43.4549 H   0  0  0  0  0  0  0  0  0  0  0  0
   54.3950   26.7150   45.1740 H   0  0  0  0  0  0  0  0  0  0  0  0
   60.1536   27.1482   45.4376 H   0  0  0  0  0  0  0  0  0  0  0  0
   60.8213   29.9267   47.1500 H   0  0  0  0  0  0  0  0  0  0  0  0
   61.6804   29.3555   45.6795 H   0  0  0  0  0  0  0  0  0  0  0  0
   60.8675   30.9573   45.6795 H   0  0  0  0  0  0  0  0  0  0  0  0
   58.3170   31.3154   47.5777 H   0  0  0  0  0  0  0  0  0  0  0  0
   58.0080   33.7771   47.8336 H   0  0  0  0  0  0  0  0  0  0  0  0
   57.7327   35.2198   45.8174 H   0  0  0  0  0  0  0  0  0  0  0  0
   57.7544   34.2044   43.5403 H   0  0  0  0  0  0  0  0  0  0  0  0
   57.8030   32.1880   42.1110 H   0  0  0  0  0  0  0  0  0  0  0  0
   58.2790   30.6090   42.8020 H   0  0  0  0  0  0  0  0  0  0  0  0
  1  2  2  0
  2  3  1  0
  3  4  2  3
  4  5  1  0
  5  6  2  0
  6  7  1  0
  6  8  1  0
  8  9  1  0
  9 10  2  0
  9 11  1  0
 11 12  1  0
 12 13  2  0
  3 14  1  0
 14 15  2  0
 15 16  1  0
 15 17  1  0
 17 18  1  0
 18 19  2  0
 19 20  1  0
 20 21  2  0
 21 22  1  0
 22 23  2  0
 23 24  1  0
 17  2  1  0
 23 18  1  0
 12  5  1  0
  1 25  1  0
  1 26  1  0
  4 27  1  0
  7 28  1  0
 14 29  1  0
 16 30  1  0
 16 31  1  0
 16 32  1  0
 19 33  1  0
 20 34  1  0
 21 35  1  0
 22 36  1  0
 24 37  1  0
 24 38  1  0
M  CHG  2   8  -1  11  -1
M  END
>  <UniqueID>  (54) 
50

>  <SMILES>  (54) 
C=c1c(=Cc2c(O)[n-]c(=S)[n-]c2=O)cc(C)n1-c1ccccc1N

>  <Energy>  (54) 
84.15110394982287

>  <Genealogy>  (54) 
C=c1c(=Cc2c(O)[n-]c(=S)[n-]c2=O)cc(C)n1-c1ccccc1N (protonated)
C=c1c(=Cc2c(O)[n-]c(=S)[n-]c2=O)cc(C)n1-c1ccccc1N (3D coordinates assigned)
C=c1c(=Cc2c(O)[n-]c(=S)[n-]c2=O)cc(C)n1-c1ccccc1N (optimized conformer: 84.15110394982287 kcal/mol)

>  <smiles>  (54) 
C=c1c(=Cc2c(O)[nH]c(=S)[nH]c2=O)cc(C)n1-c1ccccc1N

>  <score_type>  (54) 
oracle

>  <origin>  (54) 
adg

>  <m_score__min__energy>  (54) 
-12.49

>  <m_primary>  (54) 
energy

$$$$
54:0
     RDKit          3D

 63 66  0  0  0  0  0  0  0  0999 V2000
   56.2640   29.7330   42.5970 C   0  0  0  0  0  0  0  0  0  0  0  0
   56.6250   31.0550   42.9840 O   0  0  0  0  0  0  0  0  0  0  0  0
   57.2990   31.3760   44.1710 C   0  0  0  0  0  0  0  0  0  0  0  0
   57.0980   32.6110   44.8460 C   0  0  0  0  0  0  0  0  0  0  0  0
   57.7960   32.9020   46.0300 C   0  0  0  0  0  0  0  0  0  0  0  0
   58.6780   31.9390   46.5300 C   0  0  0  0  0  0  0  0  0  0  0  0
   58.8810   30.7510   45.8760 C   0  0  0  0  0  0  0  0  0  0  0  0
   58.2060   30.4370   44.6960 C   0  0  0  0  0  0  0  0  0  0  0  0
   59.8320   30.0440   46.5920 C   0  0  0  0  0  0  0  0  0  0  0  0
   60.3260   28.6530   46.3080 C   0  0  0  0  0  0  0  0  0  0  0  0
   59.2580   27.8680   45.6100 C   0  0  0  0  0  0  0  0  0  0  0  0
   59.2290   27.8460   44.3500 O   0  0  0  0  0  0  0  0  0  0  0  0
   58.3080   27.1070   46.3700 N   0  0  0  0  0  0  0  0  0  0  0  0
   57.2960   26.2570   45.7350 C   0  0  2  0  0  0  0  0  0  0  0  0
   57.7770   25.7550   44.3580 C   0  0  0  0  0  0  0  0  0  0  0  0
   57.5110   24.2850   44.1370 C   0  0  0  0  0  0  0  0  0  0  0  0
   56.5320   23.8700   43.2170 C   0  0  0  0  0  0  0  0  0  0  0  0
   56.2740   22.5090   43.0270 C   0  0  0  0  0  0  0  0  0  0  0  0
   56.9910   21.5520   43.7520 C   0  0  0  0  0  0  0  0  0  0  0  0
   57.9660   21.9560   44.6670 C   0  0  0  0  0  0  0  0  0  0  0  0
   58.2270   23.3150   44.8620 C   0  0  0  0  0  0  0  0  0  0  0  0
   55.9770   26.9780   45.6330 C   0  0  0  0  0  0  0  0  0  0  0  0
   55.9460   28.1820   45.2600 O   0  0  0  0  0  0  0  0  0  0  0  0
   54.7910   26.3420   45.9860 O   0  0  0  0  0  0  0  0  0  0  0  0
   60.1540   30.8530   47.6870 C   0  0  0  0  0  0  0  0  0  0  0  0
   61.1650   30.5300   48.7490 C   0  0  0  0  0  0  0  0  0  0  0  0
   59.4490   32.0130   47.6370 N   0  0  0  0  0  0  0  0  0  0  0  0
   59.5350   33.1080   48.5630 C   0  0  0  0  0  0  0  0  0  0  0  0
   60.0440   34.1970   48.1790 O   0  0  0  0  0  0  0  0  0  0  0  0
   59.0620   32.9700   49.9620 C   0  0  0  0  0  0  0  0  0  0  0  0
   59.5880   33.7950   50.9720 C   0  0  0  0  0  0  0  0  0  0  0  0
   59.1430   33.6680   52.2900 C   0  0  0  0  0  0  0  0  0  0  0  0
   58.1780   32.7130   52.6180 C   0  0  0  0  0  0  0  0  0  0  0  0
   57.6640   31.8620   51.6280 C   0  0  0  0  0  0  0  0  0  0  0  0
   56.6070   30.8560   51.9740 C   0  0  0  0  0  0  0  0  0  0  0  0
   58.0990   32.0030   50.3020 C   0  0  0  0  0  0  0  0  0  0  0  0
   56.0968   29.1207   43.4954 H   0  0  0  0  0  0  0  0  0  0  0  0
   55.3417   29.7651   41.9983 H   0  0  0  0  0  0  0  0  0  0  0  0
   57.0746   29.2919   41.9983 H   0  0  0  0  0  0  0  0  0  0  0  0
   56.3890   33.3459   44.4372 H   0  0  0  0  0  0  0  0  0  0  0  0
   57.6526   33.8610   46.5494 H   0  0  0  0  0  0  0  0  0  0  0  0
   58.3790   29.4770   44.1875 H   0  0  0  0  0  0  0  0  0  0  0  0
   61.2182   28.7061   45.6668 H   0  0  0  0  0  0  0  0  0  0  0  0
   60.5802   28.1571   47.2564 H   0  0  0  0  0  0  0  0  0  0  0  0
   58.3170   27.2070   47.4110 H   0  0  0  0  0  0  0  0  0  0  0  0
   57.1433   25.3728   46.3712 H   0  0  0  0  0  0  0  0  0  0  0  0
   57.2561   26.3265   43.5756 H   0  0  0  0  0  0  0  0  0  0  0  0
   58.8666   25.9006   44.3183 H   0  0  0  0  0  0  0  0  0  0  0  0
   55.9664   24.6196   42.6441 H   0  0  0  0  0  0  0  0  0  0  0  0
   55.5062   22.1907   42.3065 H   0  0  0  0  0  0  0  0  0  0  0  0
   56.7873   20.4815   43.6018 H   0  0  0  0  0  0  0  0  0  0  0  0
   58.5301   21.2022   45.2358 H   0  0  0  0  0  0  0  0  0  0  0  0
   58.9950   23.6274   45.5849 H   0  0  0  0  0  0  0  0  0  0  0  0
   60.7131   30.6744   49.7415 H   0  0  0  0  0  0  0  0  0  0  0  0
   61.4879   29.4840   48.6418 H   0  0  0  0  0  0  0  0  0  0  0  0
   62.0346   31.1950   48.6418 H   0  0  0  0  0  0  0  0  0  0  0  0
   60.3539   34.5443   50.7229 H   0  0  0  0  0  0  0  0  0  0  0  0
   59.5542   34.3226   53.0726 H   0  0  0  0  0  0  0  0  0  0  0  0
   57.8202   32.6279   53.6547 H   0  0  0  0  0  0  0  0  0  0  0  0
   56.5219   30.7750   53.0677 H   0  0  0  0  0  0  0  0  0  0  0  0
   55.6427   31.1781   51.5540 H   0  0  0  0  0  0  0  0  0  0  0  0
   56.8811   29.8770   51.5540 H   0  0  0  0  0  0  0  0  0  0  0  0
   57.6828   31.3507   49.5202 H   0  0  0  0  0  0  0  0  0  0  0  0
  1  2  1  0
  2  3  1  0
  3  4  2  0
  4  5  1  0
  5  6  2  0
  6  7  1  0
  7  8  2  0
  7  9  1  0
  9 10  1  0
 10 11  1  0
 11 12  2  0
 11 13  1  0
 13 14  1  0
 14 15  1  0
 15 16  1  0
 16 17  2  0
 17 18  1  0
 18 19  2  0
 19 20  1  0
 20 21  2  0
 14 22  1  0
 22 23  2  0
 22 24  1  0
  9 25  2  0
 25 26  1  0
 25 27  1  0
 27 28  1  0
 28 29  2  0
 28 30  1  0
 30 31  2  0
 31 32  1  0
 32 33  2  0
 33 34  1  0
 34 35  1  0
 34 36  2  0
  8  3  1  0
 21 16  1  0
 36 30  1  0
 27  6  1  0
  1 37  1  0
  1 38  1  0
  1 39  1  0
  4 40  1  0
  5 41  1  0
  8 42  1  0
 10 43  1  0
 10 44  1  0
 13 45  1  0
 14 46  1  1
 15 47  1  0
 15 48  1  0
 17 49  1  0
 18 50  1  0
 19 51  1  0
 20 52  1  0
 21 53  1  0
 26 54  1  0
 26 55  1  0
 26 56  1  0
 31 57  1  0
 32 58  1  0
 33 59  1  0
 35 60  1  0
 35 61  1  0
 35 62  1  0
 36 63  1  0
M  CHG  1  24  -1
M  END
>  <UniqueID>  (55) 
51

>  <SMILES>  (55) 
COc1ccc2c(c1)c(CC(=O)N[C@H](Cc1ccccc1)C(=O)[O-])c(C)n2C(=O)c1cccc(C)c1

>  <Energy>  (55) 
99.05038632693979

>  <Genealogy>  (55) 
COc1ccc2c(c1)c(CC(=O)NC(Cc1ccccc1)C(=O)[O-])c(C)n2C(=O)c1cccc(C)c1 (protonated)
COc1ccc2c(c1)c(CC(=O)N[C@H](Cc1ccccc1)C(=O)[O-])c(C)n2C(=O)c1cccc(C)c1 (chirality)
COc1ccc2c(c1)c(CC(=O)N[C@H](Cc1ccccc1)C(=O)[O-])c(C)n2C(=O)c1cccc(C)c1 (3D coordinates assigned)
COc1ccc2c(c1)c(CC(=O)N[C@H](Cc1ccccc1)C(=O)[O-])c(C)n2C(=O)c1cccc(C)c1 (optimized conformer: 99.05038632693979 kcal/mol)

>  <smiles>  (55) 
COc1ccc2c(c1)c(CC(=O)NC(Cc1ccccc1)C(=O)O)c(C)n2C(=O)c1cccc(C)c1

>  <score_type>  (55) 
oracle

>  <origin>  (55) 
adg

>  <m_score__min__energy>  (55) 
-12.77

>  <m_primary>  (55) 
energy

$$$$
55:0
     RDKit          3D

 37 39  0  0  0  0  0  0  0  0999 V2000
   60.0289   34.7828   47.3817 H   0  0  0  0  0  0  0  0  0  0  0  0
   59.5860   33.9920   48.0050 C   0  0  0  0  0  0  0  0  0  0  0  0
   59.7320   33.8580   49.6750 S   0  0  0  0  0  0  0  0  0  0  0  0
   58.7880   32.4630   49.7480 C   0  0  0  0  0  0  0  0  0  0  0  0
   58.5090   31.7790   50.8160 N   0  0  0  0  0  0  0  0  0  0  0  0
   58.3620   30.3530   50.8860 C   0  0  0  0  0  0  0  0  0  0  0  0
   57.4040   29.8690   51.5400 O   0  0  0  0  0  0  0  0  0  0  0  0
   59.2870   29.4610   50.2470 N   0  0  0  0  0  0  0  0  0  0  0  0
   59.5180   29.3490   48.8350 C   0  0  0  0  0  0  0  0  0  0  0  0
   58.6780   28.5230   48.0770 C   0  0  0  0  0  0  0  0  0  0  0  0
   57.8596   27.9767   48.5686 H   0  0  0  0  0  0  0  0  0  0  0  0
   58.8740   28.3890   46.6990 C   0  0  0  0  0  0  0  0  0  0  0  0
   58.2038   27.7473   46.1082 H   0  0  0  0  0  0  0  0  0  0  0  0
   59.9210   29.0700   46.0720 C   0  0  0  0  0  0  0  0  0  0  0  0
   60.0700   28.9703   44.9867 H   0  0  0  0  0  0  0  0  0  0  0  0
   60.7790   29.8780   46.8240 C   0  0  0  0  0  0  0  0  0  0  0  0
   61.6077   30.4078   46.3314 H   0  0  0  0  0  0  0  0  0  0  0  0
   60.5840   30.0130   48.2030 C   0  0  0  0  0  0  0  0  0  0  0  0
   61.2669   30.6406   48.7945 H   0  0  0  0  0  0  0  0  0  0  0  0
   58.3720   32.0820   48.5230 N   0  0  0  0  0  0  0  0  0  0  0  0
   58.8050   32.9260   47.5430 C   0  0  0  0  0  0  0  0  0  0  0  0
   58.4460   32.7030   46.1190 C   0  0  0  0  0  0  0  0  0  0  0  0
   58.8190   33.6530   45.1480 C   0  0  0  0  0  0  0  0  0  0  0  0
   59.3692   34.5559   45.4514 H   0  0  0  0  0  0  0  0  0  0  0  0
   58.4960   33.4580   43.8030 C   0  0  0  0  0  0  0  0  0  0  0  0
   58.7977   34.2042   43.0532 H   0  0  0  0  0  0  0  0  0  0  0  0
   57.7920   32.3200   43.4070 C   0  0  0  0  0  0  0  0  0  0  0  0
   57.5451   32.1683   42.3459 H   0  0  0  0  0  0  0  0  0  0  0  0
   57.4000   31.3720   44.3580 C   0  0  0  0  0  0  0  0  0  0  0  0
   56.5180   29.9300   43.8610 S   0  0  0  0  0  0  0  0  0  0  0  0
   55.8960   30.1500   42.5100 O   0  0  0  0  0  0  0  0  0  0  0  0
   55.4250   29.6370   44.8510 O   0  0  0  0  0  0  0  0  0  0  0  0
   57.6010   28.5860   43.7820 N   0  0  0  0  0  0  0  0  0  0  0  0
   58.2520   28.7650   42.9850 H   0  0  0  0  0  0  0  0  0  0  0  0
   57.0310   27.7490   43.5240 H   0  0  0  0  0  0  0  0  0  0  0  0
   57.7300   31.5610   45.7080 C   0  0  0  0  0  0  0  0  0  0  0  0
   57.4270   30.8106   46.4531 H   0  0  0  0  0  0  0  0  0  0  0  0
  1  2  1  0
  2  3  1  0
  3  4  1  0
  4  5  2  0
  5  6  1  0
  6  7  2  0
  6  8  1  0
  8  9  1  0
  9 10  2  0
 10 11  1  0
 10 12  1  0
 12 13  1  0
 12 14  2  0
 14 15  1  0
 14 16  1  0
 16 17  1  0
 16 18  2  0
 18 19  1  0
  4 20  1  0
 20 21  1  0
 21 22  1  0
 22 23  2  0
 23 24  1  0
 23 25  1  0
 25 26  1  0
 25 27  2  0
 27 28  1  0
 27 29  1  0
 29 30  1  0
 30 31  2  0
 30 32  2  0
 30 33  1  0
 33 34  1  0
 33 35  1  0
 29 36  2  0
 36 37  1  0
 21  2  2  0
 36 22  1  0
 18  9  1  0
M  CHG  2   8  -1  20  -1
M  END
>  <UniqueID>  (56) 
52

>  <SMILES>  (56) 
NS(=O)(=O)c1cccc(-c2cs/c(=N\C(=O)[N-]c3ccccc3)[n-]2)c1

>  <Energy>  (56) 
79.85713245911666

>  <Genealogy>  (56) 
NS(=O)(=O)c1cccc(-c2csc(=NC(=O)[N-]c3ccccc3)[n-]2)c1 (protonated)
NS(=O)(=O)c1cccc(-c2cs/c(=N\C(=O)[N-]c3ccccc3)[n-]2)c1 (cis-trans isomerization)
NS(=O)(=O)c1cccc(-c2cs/c(=N\C(=O)[N-]c3ccccc3)[n-]2)c1 (3D coordinates assigned)
NS(=O)(=O)c1cccc(-c2cs/c(=N\C(=O)[N-]c3ccccc3)[n-]2)c1 (optimized conformer: 79.85713245911666 kcal/mol)

>  <smiles>  (56) 
NS(=O)(=O)c1cccc(-c2csc(=NC(=O)Nc3ccccc3)[nH]2)c1

>  <score_type>  (56) 
oracle

>  <origin>  (56) 
adg

>  <m_score__min__energy>  (56) 
-11.1

>  <m_primary>  (56) 
energy

$$$$
56:0
     RDKit          3D

 65 67  0  0  1  0  0  0  0  0999 V2000
   60.5870   32.4440   51.2100 O   0  0  0  0  0  0  0  0  0  0  0  0
   61.6010   32.5100   50.4430 C   0  0  0  0  0  0  0  0  0  0  0  0
   62.3050   33.8190   50.2220 C   0  0  0  0  0  0  0  0  0  0  0  0
   63.7750   33.6540   50.3690 C   0  0  0  0  0  0  0  0  0  0  0  0
   64.3820   34.3280   51.4060 C   0  0  0  0  0  0  0  0  0  0  0  0
   65.7540   34.2290   51.6130 C   0  0  0  0  0  0  0  0  0  0  0  0
   66.5220   33.4360   50.7600 C   0  0  0  0  0  0  0  0  0  0  0  0
   68.2680   33.2860   50.9940 Cl  0  0  0  0  0  0  0  0  0  0  0  0
   65.8720   32.7780   49.7320 C   0  0  0  0  0  0  0  0  0  0  0  0
   64.5240   32.9040   49.5660 N   0  0  0  0  0  0  0  0  0  0  0  0
   62.1170   31.3730   49.7650 N   0  0  0  0  0  0  0  0  0  0  0  0
   61.5520   30.0720   49.8790 C   0  0  0  0  0  0  0  0  0  0  0  0
   61.7360   29.3980   51.0600 C   0  0  0  0  0  0  0  0  0  0  0  0
   61.2150   28.1400   51.2310 C   0  0  0  0  0  0  0  0  0  0  0  0
   60.5060   27.5700   50.1970 C   0  0  0  0  0  0  0  0  0  0  0  0
   60.2840   28.1910   48.9840 C   0  0  0  0  0  0  0  0  0  0  0  0
   59.6260   27.7450   47.9310 O   0  0  0  0  0  0  0  0  0  0  0  0
   59.0900   28.0390   46.7680 C   0  0  0  0  0  0  0  0  0  0  0  0
   59.0780   27.0150   45.7860 C   0  0  0  0  0  0  0  0  0  0  0  0
   58.5570   27.1860   44.5480 C   0  0  0  0  0  0  0  0  0  0  0  0
   58.0220   28.3670   44.2100 N   0  0  0  0  0  0  0  0  0  0  0  0
   57.9880   29.3910   45.0710 C   0  0  0  0  0  0  0  0  0  0  0  0
   57.3990   30.6700   44.6880 C   0  0  0  0  0  0  0  0  0  0  0  0
   56.1460   30.8010   44.5630 O   0  0  0  0  0  0  0  0  0  0  0  0
   58.2530   31.7840   44.4510 N   0  0  0  0  0  0  0  0  0  0  0  0
   57.6720   33.0540   44.0710 C   0  0  0  0  0  0  0  0  0  0  0  0
   58.3340   34.1730   44.8890 C   0  0  0  0  0  0  0  0  0  0  0  0
   58.0980   34.0150   46.3630 C   0  0  0  0  0  0  0  0  0  0  0  0
   59.0530   33.0410   47.0190 C   0  0  0  0  0  0  0  0  0  0  0  0
   60.2620   33.7310   47.5600 C   0  0  0  0  0  0  0  0  0  0  0  0
   61.3590   33.9070   46.5660 C   0  0  0  0  0  0  0  0  0  0  0  0
   62.6150   33.2150   46.9340 C   0  0  0  0  0  0  0  0  0  0  0  0
   63.7840   33.9280   47.1430 O   0  0  0  0  0  0  0  0  0  0  0  0
   62.6330   31.9270   47.0650 N   0  0  0  0  0  0  0  0  0  0  0  0
   63.7350   31.2190   47.4890 O   0  0  0  0  0  0  0  0  0  0  0  0
   58.5180   29.2230   46.3380 C   0  0  0  0  0  0  0  0  0  0  0  0
   60.8510   29.4840   48.8840 C   0  0  0  0  0  0  0  0  0  0  0  0
   62.0817   34.1829   49.2082 H   0  0  0  0  0  0  0  0  0  0  0  0
   61.9526   34.5422   50.9722 H   0  0  0  0  0  0  0  0  0  0  0  0
   63.7745   34.9518   52.0782 H   0  0  0  0  0  0  0  0  0  0  0  0
   66.2298   34.7719   52.4430 H   0  0  0  0  0  0  0  0  0  0  0  0
   66.4484   32.1460   49.0404 H   0  0  0  0  0  0  0  0  0  0  0  0
   62.9510   31.4630   49.1420 H   0  0  0  0  0  0  0  0  0  0  0  0
   62.3049   29.8692   51.8751 H   0  0  0  0  0  0  0  0  0  0  0  0
   61.3610   27.5970   52.1764 H   0  0  0  0  0  0  0  0  0  0  0  0
   60.0927   26.5616   50.3462 H   0  0  0  0  0  0  0  0  0  0  0  0
   59.5119   26.0372   46.0422 H   0  0  0  0  0  0  0  0  0  0  0  0
   58.5729   26.3590   43.8229 H   0  0  0  0  0  0  0  0  0  0  0  0
   59.2740   31.6350   44.5640 H   0  0  0  0  0  0  0  0  0  0  0  0
   57.8423   33.2311   42.9988 H   0  0  0  0  0  0  0  0  0  0  0  0
   56.5899   33.0408   44.2679 H   0  0  0  0  0  0  0  0  0  0  0  0
   59.4175   34.1561   44.7001 H   0  0  0  0  0  0  0  0  0  0  0  0
   57.8875   35.1285   44.5765 H   0  0  0  0  0  0  0  0  0  0  0  0
   58.2162   34.9976   46.8432 H   0  0  0  0  0  0  0  0  0  0  0  0
   57.0822   33.6124   46.4900 H   0  0  0  0  0  0  0  0  0  0  0  0
   58.5329   32.5336   47.8448 H   0  0  0  0  0  0  0  0  0  0  0  0
   59.3827   32.3191   46.2574 H   0  0  0  0  0  0  0  0  0  0  0  0
   59.9598   34.7254   47.9204 H   0  0  0  0  0  0  0  0  0  0  0  0
   60.6601   33.0911   48.3613 H   0  0  0  0  0  0  0  0  0  0  0  0
   61.0165   33.5126   45.5979 H   0  0  0  0  0  0  0  0  0  0  0  0
   61.5856   34.9827   46.5258 H   0  0  0  0  0  0  0  0  0  0  0  0
   64.6310   33.4520   47.4830 H   0  0  0  0  0  0  0  0  0  0  0  0
   64.5830   31.7190   47.7590 H   0  0  0  0  0  0  0  0  0  0  0  0
   58.4829   30.0716   47.0370 H   0  0  0  0  0  0  0  0  0  0  0  0
   60.7137   30.0408   47.9453 H   0  0  0  0  0  0  0  0  0  0  0  0
  1  2  2  0
  2  3  1  0
  3  4  1  0
  4  5  2  0
  5  6  1  0
  6  7  2  0
  7  8  1  0
  7  9  1  0
  9 10  2  0
  2 11  1  0
 11 12  1  0
 12 13  2  0
 13 14  1  0
 14 15  2  0
 15 16  1  0
 16 17  1  0
 17 18  1  0
 18 19  2  0
 19 20  1  0
 20 21  2  0
 21 22  1  0
 22 23  1  0
 23 24  2  0
 23 25  1  0
 25 26  1  0
 26 27  1  0
 27 28  1  0
 28 29  1  0
 29 30  1  0
 30 31  1  0
 31 32  1  0
 32 33  1  0
 32 34  2  0
 34 35  1  0
 22 36  2  0
 16 37  2  0
 10  4  1  0
 37 12  1  0
 36 18  1  0
  3 38  1  0
  3 39  1  0
  5 40  1  0
  6 41  1  0
  9 42  1  0
 11 43  1  0
 13 44  1  0
 14 45  1  0
 15 46  1  0
 19 47  1  0
 20 48  1  0
 25 49  1  0
 26 50  1  0
 26 51  1  0
 27 52  1  0
 27 53  1  0
 28 54  1  0
 28 55  1  0
 29 56  1  0
 29 57  1  0
 30 58  1  0
 30 59  1  0
 31 60  1  0
 31 61  1  0
 33 62  1  0
 35 63  1  0
 36 64  1  0
 37 65  1  0
M  END
>  <smiles>  (57) 
O=C(Cc1ccc(Cl)cn1)Nc1cccc(Oc2ccnc(C(=O)NCCCCCCC(O)=NO)c2)c1

>  <score_type>  (57) 
oracle

>  <origin>  (57) 
adg

>  <m_score__min__energy>  (57) 
-10.300000000000001

>  <m_primary>  (57) 
energy

$$$$
57:0
     RDKit          3D

 47 49  0  0  0  0  0  0  0  0999 V2000
   57.8020   32.3610   41.4210 C   0  0  0  0  0  0  0  0  0  0  0  0
   57.9880   31.5780   42.6360 N   0  0  0  0  0  0  0  0  0  0  0  0
   57.9010   32.1720   43.9360 C   0  0  0  0  0  0  0  0  0  0  0  0
   57.5690   33.3820   44.0600 O   0  0  0  0  0  0  0  0  0  0  0  0
   58.1350   31.3600   45.1460 C   0  0  0  0  0  0  0  0  0  0  0  0
   57.5970   30.0640   45.1850 C   0  0  0  0  0  0  0  0  0  0  0  0
   57.8030   29.2310   46.2970 C   0  0  0  0  0  0  0  0  0  0  0  0
   57.2510   27.9040   46.3510 N   0  0  0  0  0  0  0  0  0  0  0  0
   58.0270   26.7070   46.1690 C   0  0  0  0  0  0  0  0  0  0  0  0
   59.4260   26.8030   46.0680 C   0  0  0  0  0  0  0  0  0  0  0  0
   60.2120   25.6550   45.9730 C   0  0  0  0  0  0  0  0  0  0  0  0
   59.6150   24.3980   45.9930 C   0  0  0  0  0  0  0  0  0  0  0  0
   58.2280   24.2820   46.1010 C   0  0  0  0  0  0  0  0  0  0  0  0
   57.4130   25.4270   46.1840 C   0  0  0  0  0  0  0  0  0  0  0  0
   55.9390   25.2580   46.2460 C   0  0  0  0  0  0  0  0  0  0  0  0
   55.0770   26.3560   45.9520 N   0  0  0  0  0  0  0  0  0  0  0  0
   55.4310   24.1560   46.5830 O   0  0  0  0  0  0  0  0  0  0  0  0
   58.5190   29.7240   47.3940 C   0  0  0  0  0  0  0  0  0  0  0  0
   59.0420   31.0170   47.3760 C   0  0  0  0  0  0  0  0  0  0  0  0
   58.8650   31.8510   46.2580 C   0  0  0  0  0  0  0  0  0  0  0  0
   59.3570   33.2800   46.3380 C   0  0  0  0  0  0  0  0  0  0  0  0
   60.6070   33.3670   47.1720 C   0  0  0  0  0  0  0  0  0  0  0  0
   61.7970   32.7530   46.7440 C   0  0  0  0  0  0  0  0  0  0  0  0
   62.9610   32.8580   47.5120 C   0  0  0  0  0  0  0  0  0  0  0  0
   62.9460   33.5750   48.7110 C   0  0  0  0  0  0  0  0  0  0  0  0
   61.7670   34.1880   49.1460 C   0  0  0  0  0  0  0  0  0  0  0  0
   60.6020   34.0860   48.3800 C   0  0  0  0  0  0  0  0  0  0  0  0
   57.5554   33.3992   41.6880 H   0  0  0  0  0  0  0  0  0  0  0  0
   58.7289   32.3450   40.8290 H   0  0  0  0  0  0  0  0  0  0  0  0
   56.9813   31.9298   40.8290 H   0  0  0  0  0  0  0  0  0  0  0  0
   58.1590   30.5500   42.5510 H   0  0  0  0  0  0  0  0  0  0  0  0
   57.0062   29.6959   44.3333 H   0  0  0  0  0  0  0  0  0  0  0  0
   56.2400   27.7960   46.5950 H   0  0  0  0  0  0  0  0  0  0  0  0
   59.9052   27.7931   46.0639 H   0  0  0  0  0  0  0  0  0  0  0  0
   61.3047   25.7431   45.8822 H   0  0  0  0  0  0  0  0  0  0  0  0
   60.2375   23.4937   45.9235 H   0  0  0  0  0  0  0  0  0  0  0  0
   57.7663   23.2838   46.1215 H   0  0  0  0  0  0  0  0  0  0  0  0
   54.8400   27.0630   46.6830 H   0  0  0  0  0  0  0  0  0  0  0  0
   58.6705   29.0866   48.2776 H   0  0  0  0  0  0  0  0  0  0  0  0
   59.6002   31.3890   48.2478 H   0  0  0  0  0  0  0  0  0  0  0  0
   59.5741   33.6444   45.3231 H   0  0  0  0  0  0  0  0  0  0  0  0
   58.5760   33.8970   46.8064 H   0  0  0  0  0  0  0  0  0  0  0  0
   61.8126   32.1874   45.8007 H   0  0  0  0  0  0  0  0  0  0  0  0
   63.8892   32.3756   47.1718 H   0  0  0  0  0  0  0  0  0  0  0  0
   63.8627   33.6574   49.3134 H   0  0  0  0  0  0  0  0  0  0  0  0
   61.7561   34.7506   50.0912 H   0  0  0  0  0  0  0  0  0  0  0  0
   59.6766   34.5709   48.7243 H   0  0  0  0  0  0  0  0  0  0  0  0
  1  2  1  0
  2  3  1  0
  3  4  2  0
  3  5  1  0
  5  6  2  0
  6  7  1  0
  7  8  1  0
  8  9  1  0
  9 10  2  0
 10 11  1  0
 11 12  2  0
 12 13  1  0
 13 14  2  0
 14 15  1  0
 15 16  1  0
 15 17  2  0
  7 18  2  0
 18 19  1  0
 19 20  2  0
 20 21  1  0
 21 22  1  0
 22 23  2  0
 23 24  1  0
 24 25  2  0
 25 26  1  0
 26 27  2  0
 20  5  1  0
 27 22  1  0
 14  9  1  0
  1 28  1  0
  1 29  1  0
  1 30  1  0
  2 31  1  0
  6 32  1  0
  8 33  1  0
 10 34  1  0
 11 35  1  0
 12 36  1  0
 13 37  1  0
 16 38  1  0
 18 39  1  0
 19 40  1  0
 21 41  1  0
 21 42  1  0
 23 43  1  0
 24 44  1  0
 25 45  1  0
 26 46  1  0
 27 47  1  0
M  CHG  1  16  -1
M  END
>  <UniqueID>  (58) 
53

>  <SMILES>  (58) 
CNC(=O)c1cc(Nc2ccccc2C([NH-])=O)ccc1Cc1ccccc1

>  <Energy>  (58) 
61.00483076782029

>  <Genealogy>  (58) 
CNC(=O)c1cc(Nc2ccccc2C([NH-])=O)ccc1Cc1ccccc1 (protonated)
CNC(=O)c1cc(Nc2ccccc2C([NH-])=O)ccc1Cc1ccccc1 (3D coordinates assigned)
CNC(=O)c1cc(Nc2ccccc2C([NH-])=O)ccc1Cc1ccccc1 (optimized conformer: 61.00483076782029 kcal/mol)

>  <smiles>  (58) 
CNC(=O)c1cc(Nc2ccccc2C(N)=O)ccc1Cc1ccccc1

>  <score_type>  (58) 
oracle

>  <origin>  (58) 
adg

>  <m_score__min__energy>  (58) 
-12.140000000000001

>  <m_primary>  (58) 
energy

$$$$
58:0
     RDKit          3D

 36 37  0  0  0  0  0  0  0  0999 V2000
   62.3520   32.3570   47.3480 C   0  0  0  0  0  0  0  0  0  0  0  0
   61.8180   31.2520   48.0710 O   0  0  0  0  0  0  0  0  0  0  0  0
   60.8060   30.4060   47.5920 C   0  0  0  0  0  0  0  0  0  0  0  0
   60.7330   30.0060   46.2440 C   0  0  0  0  0  0  0  0  0  0  0  0
   59.7040   29.1610   45.8150 C   0  0  0  0  0  0  0  0  0  0  0  0
   58.7340   28.7070   46.7220 C   0  0  0  0  0  0  0  0  0  0  0  0
   57.6410   27.7760   46.2740 C   0  0  0  0  0  0  0  0  0  0  0  0
   57.1370   28.1810   44.9660 N   0  0  0  0  0  0  0  0  0  0  0  0
   56.3170   29.3360   44.7550 C   0  0  0  0  0  0  0  0  0  0  0  0
   55.1510   29.3790   45.2300 O   0  0  0  0  0  0  0  0  0  0  0  0
   56.8440   30.4690   43.9790 C   0  0  0  0  0  0  0  0  0  0  0  0
   56.8040   30.6150   42.6070 C   0  0  0  0  0  0  0  0  0  0  0  0
   57.3930   31.7840   42.2920 N   0  0  0  0  0  0  0  0  0  0  0  0
   57.5030   32.3500   40.9540 C   0  0  0  0  0  0  0  0  0  0  0  0
   57.7920   32.4070   43.3900 N   0  0  0  0  0  0  0  0  0  0  0  0
   57.4730   31.6190   44.4350 C   0  0  0  0  0  0  0  0  0  0  0  0
   57.8310   32.0520   46.1380 S   0  0  0  0  0  0  0  0  0  0  0  0
   57.7820   33.8410   45.8120 C   0  0  0  0  0  0  0  0  0  0  0  0
   58.8120   29.1030   48.0660 C   0  0  0  0  0  0  0  0  0  0  0  0
   59.8400   29.9480   48.4940 C   0  0  0  0  0  0  0  0  0  0  0  0
   62.7185   33.1154   48.0554 H   0  0  0  0  0  0  0  0  0  0  0  0
   63.1836   32.0137   46.7151 H   0  0  0  0  0  0  0  0  0  0  0  0
   61.5663   32.7953   46.7151 H   0  0  0  0  0  0  0  0  0  0  0  0
   61.4876   30.3591   45.5258 H   0  0  0  0  0  0  0  0  0  0  0  0
   59.6549   28.8506   44.7608 H   0  0  0  0  0  0  0  0  0  0  0  0
   58.0396   26.7529   46.2086 H   0  0  0  0  0  0  0  0  0  0  0  0
   56.8176   27.8131   47.0025 H   0  0  0  0  0  0  0  0  0  0  0  0
   56.3667   29.9001   41.8945 H   0  0  0  0  0  0  0  0  0  0  0  0
   57.7124   33.4274   41.0277 H   0  0  0  0  0  0  0  0  0  0  0  0
   58.3215   31.8536   40.4121 H   0  0  0  0  0  0  0  0  0  0  0  0
   56.5582   32.1963   40.4121 H   0  0  0  0  0  0  0  0  0  0  0  0
   57.7670   34.3874   46.7666 H   0  0  0  0  0  0  0  0  0  0  0  0
   58.6725   34.1333   45.2361 H   0  0  0  0  0  0  0  0  0  0  0  0
   56.8769   34.0841   45.2361 H   0  0  0  0  0  0  0  0  0  0  0  0
   58.0606   28.7468   48.7861 H   0  0  0  0  0  0  0  0  0  0  0  0
   59.8897   30.2554   49.5490 H   0  0  0  0  0  0  0  0  0  0  0  0
  1  2  1  0
  2  3  1  0
  3  4  2  0
  4  5  1  0
  5  6  2  0
  6  7  1  0
  7  8  1  0
  8  9  1  0
  9 10  2  0
  9 11  1  0
 11 12  2  0
 12 13  1  0
 13 14  1  0
 13 15  1  0
 15 16  2  0
 16 17  1  0
 17 18  1  0
  6 19  1  0
 19 20  2  0
 20  3  1  0
 16 11  1  0
  1 21  1  0
  1 22  1  0
  1 23  1  0
  4 24  1  0
  5 25  1  0
  7 26  1  0
  7 27  1  0
 12 28  1  0
 14 29  1  0
 14 30  1  0
 14 31  1  0
 18 32  1  0
 18 33  1  0
 18 34  1  0
 19 35  1  0
 20 36  1  0
M  CHG  1   8  -1
M  END
>  <UniqueID>  (59) 
54

>  <SMILES>  (59) 
COc1ccc(C[N-]C(=O)c2cn(C)nc2SC)cc1

>  <Energy>  (59) 
57.79140872557579

>  <Genealogy>  (59) 
COc1ccc(C[N-]C(=O)c2cn(C)nc2SC)cc1 (protonated)
COc1ccc(C[N-]C(=O)c2cn(C)nc2SC)cc1 (3D coordinates assigned)
COc1ccc(C[N-]C(=O)c2cn(C)nc2SC)cc1 (optimized conformer: 57.79140872557579 kcal/mol)

>  <smiles>  (59) 
COc1ccc(CNC(=O)c2cn(C)nc2SC)cc1

>  <score_type>  (59) 
oracle

>  <origin>  (59) 
adg

>  <m_score__min__energy>  (59) 
-8.5099999999999998

>  <m_primary>  (59) 
energy

$$$$
59:0
     RDKit          3D

 37 39  0  0  0  0  0  0  0  0999 V2000
   64.5160   33.0500   48.6210 N   0  0  0  0  0  0  0  0  0  0  0  0
   63.1910   33.3380   48.1670 C   0  0  0  0  0  0  0  0  0  0  0  0
   62.1370   33.4400   49.0830 C   0  0  0  0  0  0  0  0  0  0  0  0
   60.8410   33.7200   48.6390 C   0  0  0  0  0  0  0  0  0  0  0  0
   60.5840   33.9150   47.2710 C   0  0  0  0  0  0  0  0  0  0  0  0
   59.2130   34.1950   46.7830 C   0  0  0  0  0  0  0  0  0  0  0  0
   58.5500   35.1210   47.3230 O   0  0  0  0  0  0  0  0  0  0  0  0
   58.5900   33.4160   45.6930 C   0  0  0  0  0  0  0  0  0  0  0  0
   58.4820   33.7750   44.3580 C   0  0  0  0  0  0  0  0  0  0  0  0
   57.8880   32.7080   43.7150 C   0  0  0  0  0  0  0  0  0  0  0  0
   57.6410   31.7280   44.6020 N   0  0  0  0  0  0  0  0  0  0  0  0
   56.9650   30.1760   44.2420 S   0  0  0  0  0  0  0  0  0  0  0  0
   55.5910   30.0730   44.8420 O   0  0  0  0  0  0  0  0  0  0  0  0
   56.8450   30.0090   42.7540 O   0  0  0  0  0  0  0  0  0  0  0  0
   58.0080   28.9240   44.9060 C   0  0  0  0  0  0  0  0  0  0  0  0
   57.4480   27.7800   45.4920 C   0  0  0  0  0  0  0  0  0  0  0  0
   58.2770   26.7930   46.0370 C   0  0  0  0  0  0  0  0  0  0  0  0
   59.6650   26.9500   46.0060 C   0  0  0  0  0  0  0  0  0  0  0  0
   60.2270   28.0940   45.4310 C   0  0  0  0  0  0  0  0  0  0  0  0
   59.4010   29.0810   44.8850 C   0  0  0  0  0  0  0  0  0  0  0  0
   58.0730   32.1390   45.8070 C   0  0  0  0  0  0  0  0  0  0  0  0
   61.6420   33.7930   46.3540 C   0  0  0  0  0  0  0  0  0  0  0  0
   62.9370   33.5120   46.8000 C   0  0  0  0  0  0  0  0  0  0  0  0
   65.2580   32.7510   47.9500 H   0  0  0  0  0  0  0  0  0  0  0  0
   64.7640   33.1320   49.6330 H   0  0  0  0  0  0  0  0  0  0  0  0
   62.3294   33.2992   50.1569 H   0  0  0  0  0  0  0  0  0  0  0  0
   60.0174   33.7881   49.3649 H   0  0  0  0  0  0  0  0  0  0  0  0
   58.8056   34.7223   43.9019 H   0  0  0  0  0  0  0  0  0  0  0  0
   57.6527   32.6657   42.6413 H   0  0  0  0  0  0  0  0  0  0  0  0
   56.3552   27.6581   45.5234 H   0  0  0  0  0  0  0  0  0  0  0  0
   57.8356   25.8931   46.4901 H   0  0  0  0  0  0  0  0  0  0  0  0
   60.3159   26.1734   46.4341 H   0  0  0  0  0  0  0  0  0  0  0  0
   61.3198   28.2175   45.4082 H   0  0  0  0  0  0  0  0  0  0  0  0
   59.8450   29.9827   44.4380 H   0  0  0  0  0  0  0  0  0  0  0  0
   58.0230   31.5523   46.7361 H   0  0  0  0  0  0  0  0  0  0  0  0
   61.4500   33.9194   45.2783 H   0  0  0  0  0  0  0  0  0  0  0  0
   63.7598   33.4272   46.0748 H   0  0  0  0  0  0  0  0  0  0  0  0
  1  2  1  0
  2  3  2  0
  3  4  1  0
  4  5  2  0
  5  6  1  0
  6  7  2  0
  6  8  1  0
  8  9  1  0
  9 10  2  0
 10 11  1  0
 11 12  1  0
 12 13  2  0
 12 14  2  0
 12 15  1  0
 15 16  2  0
 16 17  1  0
 17 18  2  0
 18 19  1  0
 19 20  2  0
 11 21  1  0
  5 22  1  0
 22 23  2  0
 23  2  1  0
 21  8  2  0
 20 15  1  0
  1 24  1  0
  1 25  1  0
  3 26  1  0
  4 27  1  0
  9 28  1  0
 10 29  1  0
 16 30  1  0
 17 31  1  0
 18 32  1  0
 19 33  1  0
 20 34  1  0
 21 35  1  0
 22 36  1  0
 23 37  1  0
M  END
>  <UniqueID>  (60) 
55

>  <SMILES>  (60) 
Nc1ccc(C(=O)c2ccn(S(=O)(=O)c3ccccc3)c2)cc1

>  <Energy>  (60) 
70.75115055459177

>  <Genealogy>  (60) 
Nc1ccc(C(=O)c2ccn(S(=O)(=O)c3ccccc3)c2)cc1 (3D coordinates assigned)
Nc1ccc(C(=O)c2ccn(S(=O)(=O)c3ccccc3)c2)cc1 (optimized conformer: 70.75115055459177 kcal/mol)

>  <smiles>  (60) 
Nc1ccc(C(=O)c2ccn(S(=O)(=O)c3ccccc3)c2)cc1

>  <score_type>  (60) 
oracle

>  <origin>  (60) 
adg

>  <m_score__min__energy>  (60) 
-8.6799999999999997

>  <m_primary>  (60) 
energy

$$$$
60:0
     RDKit          3D

 60 64  0  0  0  0  0  0  0  0999 V2000
   55.9080   31.0690   44.5490 O   0  0  0  0  0  0  0  0  0  0  0  0
   57.3740   30.9180   44.2550 S   0  0  0  0  0  0  0  0  0  0  0  0
   57.5800   31.0550   42.7720 O   0  0  0  0  0  0  0  0  0  0  0  0
   57.9210   29.3240   44.7590 C   0  0  0  0  0  0  0  0  0  0  0  0
   57.2290   28.1990   44.5030 N   0  0  0  0  0  0  0  0  0  0  0  0
   57.9480   27.1710   44.9320 N   0  0  0  0  0  0  0  0  0  0  0  0
   57.5300   25.7970   44.7990 C   0  0  0  0  0  0  0  0  0  0  0  0
   57.4090   25.2200   43.5210 C   0  0  0  0  0  0  0  0  0  0  0  0
   57.0050   23.8890   43.3780 C   0  0  0  0  0  0  0  0  0  0  0  0
   56.7140   23.1200   44.5060 C   0  0  0  0  0  0  0  0  0  0  0  0
   56.8220   23.6810   45.7800 C   0  0  0  0  0  0  0  0  0  0  0  0
   57.2260   25.0120   45.9290 C   0  0  0  0  0  0  0  0  0  0  0  0
   59.1110   27.6220   45.4510 C   0  0  0  0  0  0  0  0  0  0  0  0
   59.1240   28.9990   45.3630 C   0  0  0  0  0  0  0  0  0  0  0  0
   60.2570   29.9000   45.7530 C   0  0  0  0  0  0  0  0  0  0  0  0
   60.3270   30.0400   47.2040 N   0  0  0  0  0  0  0  0  0  0  0  0
   59.3420   29.7900   48.0890 C   0  0  0  0  0  0  0  0  0  0  0  0
   59.7990   30.1280   49.3460 C   0  0  0  0  0  0  0  0  0  0  0  0
   61.0610   30.5860   49.2350 N   0  0  0  0  0  0  0  0  0  0  0  0
   61.3590   30.5220   47.9240 C   0  0  0  0  0  0  0  0  0  0  0  0
   58.2810   32.1430   45.1040 N   0  0  0  0  0  0  0  0  0  0  0  0
   58.1960   33.4260   44.3760 C   0  0  0  0  0  0  0  0  0  0  0  0
   58.5730   34.6290   45.2690 C   0  0  0  0  0  0  0  0  0  0  0  0
   59.3930   34.2340   46.4350 N   0  0  0  0  0  0  0  0  0  0  0  0
   60.7490   33.7770   46.0570 C   0  0  0  0  0  0  0  0  0  0  0  0
   61.6760   33.7720   47.2440 C   0  0  0  0  0  0  0  0  0  0  0  0
   61.2280   34.2130   48.5010 C   0  0  0  0  0  0  0  0  0  0  0  0
   62.0910   34.1950   49.6010 C   0  0  0  0  0  0  0  0  0  0  0  0
   63.4030   33.7360   49.4560 C   0  0  0  0  0  0  0  0  0  0  0  0
   63.8540   33.2930   48.2090 C   0  0  0  0  0  0  0  0  0  0  0  0
   62.9950   33.3090   47.1060 C   0  0  0  0  0  0  0  0  0  0  0  0
   58.6820   33.2410   47.2800 C   0  0  0  0  0  0  0  0  0  0  0  0
   57.7790   32.2820   46.4750 C   0  0  0  0  0  0  0  0  0  0  0  0
   57.6340   25.8209   42.6275 H   0  0  0  0  0  0  0  0  0  0  0  0
   56.9163   23.4471   42.3746 H   0  0  0  0  0  0  0  0  0  0  0  0
   56.3996   22.0721   44.3912 H   0  0  0  0  0  0  0  0  0  0  0  0
   56.5890   23.0753   46.6681 H   0  0  0  0  0  0  0  0  0  0  0  0
   57.3069   25.4488   46.9353 H   0  0  0  0  0  0  0  0  0  0  0  0
   59.9121   26.9971   45.8725 H   0  0  0  0  0  0  0  0  0  0  0  0
   61.2015   29.4727   45.3852 H   0  0  0  0  0  0  0  0  0  0  0  0
   60.0894   30.8924   45.3090 H   0  0  0  0  0  0  0  0  0  0  0  0
   58.3468   29.3866   47.8506 H   0  0  0  0  0  0  0  0  0  0  0  0
   59.2284   30.0385   50.2822 H   0  0  0  0  0  0  0  0  0  0  0  0
   61.6790   30.9190   50.0070 H   0  0  0  0  0  0  0  0  0  0  0  0
   62.3249   30.8254   47.4938 H   0  0  0  0  0  0  0  0  0  0  0  0
   58.8832   33.3926   43.5177 H   0  0  0  0  0  0  0  0  0  0  0  0
   57.1543   33.5609   44.0493 H   0  0  0  0  0  0  0  0  0  0  0  0
   59.1425   35.3514   44.6657 H   0  0  0  0  0  0  0  0  0  0  0  0
   57.6392   35.0677   45.6504 H   0  0  0  0  0  0  0  0  0  0  0  0
   60.6828   32.7573   45.6498 H   0  0  0  0  0  0  0  0  0  0  0  0
   61.1520   34.4712   45.3049 H   0  0  0  0  0  0  0  0  0  0  0  0
   60.1955   34.5733   48.6198 H   0  0  0  0  0  0  0  0  0  0  0  0
   61.7365   34.5428   50.5825 H   0  0  0  0  0  0  0  0  0  0  0  0
   64.0805   33.7233   50.3225 H   0  0  0  0  0  0  0  0  0  0  0  0
   64.8866   32.9312   48.0955 H   0  0  0  0  0  0  0  0  0  0  0  0
   63.3532   32.9579   46.1270 H   0  0  0  0  0  0  0  0  0  0  0  0
   59.4311   32.6431   47.8197 H   0  0  0  0  0  0  0  0  0  0  0  0
   58.0285   33.8050   47.9618 H   0  0  0  0  0  0  0  0  0  0  0  0
   57.7727   31.2953   46.9612 H   0  0  0  0  0  0  0  0  0  0  0  0
   56.7589   32.6922   46.4433 H   0  0  0  0  0  0  0  0  0  0  0  0
  1  2  2  0
  2  3  2  0
  2  4  1  0
  4  5  2  0
  5  6  1  0
  6  7  1  0
  7  8  2  0
  8  9  1  0
  9 10  2  0
 10 11  1  0
 11 12  2  0
  6 13  1  0
 13 14  2  0
 14 15  1  0
 15 16  1  0
 16 17  1  0
 17 18  2  0
 18 19  1  0
 19 20  2  0
  2 21  1  0
 21 22  1  0
 22 23  1  0
 23 24  1  0
 24 25  1  0
 25 26  1  0
 26 27  2  0
 27 28  1  0
 28 29  2  0
 29 30  1  0
 30 31  2  0
 24 32  1  0
 32 33  1  0
 14  4  1  0
 20 16  1  0
 33 21  1  0
 12  7  1  0
 31 26  1  0
  8 34  1  0
  9 35  1  0
 10 36  1  0
 11 37  1  0
 12 38  1  0
 13 39  1  0
 15 40  1  0
 15 41  1  0
 17 42  1  0
 18 43  1  0
 19 44  1  0
 20 45  1  0
 22 46  1  0
 22 47  1  0
 23 48  1  0
 23 49  1  0
 25 50  1  0
 25 51  1  0
 27 52  1  0
 28 53  1  0
 29 54  1  0
 30 55  1  0
 31 56  1  0
 32 57  1  0
 32 58  1  0
 33 59  1  0
 33 60  1  0
M  CHG  1  19   1
M  END
>  <UniqueID>  (61) 
56

>  <SMILES>  (61) 
O=S(=O)(c1nn(-c2ccccc2)cc1Cn1cc[nH+]c1)N1CCN(Cc2ccccc2)CC1

>  <Energy>  (61) 
131.72149295147076

>  <Genealogy>  (61) 
O=S(=O)(c1nn(-c2ccccc2)cc1Cn1cc[nH+]c1)N1CCN(Cc2ccccc2)CC1 (protonated)
O=S(=O)(c1nn(-c2ccccc2)cc1Cn1cc[nH+]c1)N1CCN(Cc2ccccc2)CC1 (3D coordinates assigned)
O=S(=O)(c1nn(-c2ccccc2)cc1Cn1cc[nH+]c1)N1CCN(Cc2ccccc2)CC1 (nonaromatic ring conformer: 131.72149295147076 kcal/mol)

>  <smiles>  (61) 
O=S(=O)(c1nn(-c2ccccc2)cc1Cn1ccnc1)N1CCN(Cc2ccccc2)CC1

>  <score_type>  (61) 
oracle

>  <origin>  (61) 
adg

>  <m_score__min__energy>  (61) 
-8.2799999999999994

>  <m_primary>  (61) 
energy

$$$$
61:0
     RDKit          3D

 39 42  0  0  0  0  0  0  0  0999 V2000
   58.4120   34.5920   46.5910 O   0  0  0  0  0  0  0  0  0  0  0  0
   59.1650   34.0050   45.7700 C   0  0  0  0  0  0  0  0  0  0  0  0
   58.7410   33.8940   44.4060 N   0  0  0  0  0  0  0  0  0  0  0  0
   58.0610   32.7720   43.8270 C   0  0  0  0  0  0  0  0  0  0  0  0
   57.8190   32.6910   42.4450 C   0  0  0  0  0  0  0  0  0  0  0  0
   57.1340   31.5950   41.9160 C   0  0  0  0  0  0  0  0  0  0  0  0
   56.6610   30.5890   42.7610 C   0  0  0  0  0  0  0  0  0  0  0  0
   56.8530   30.6820   44.1510 C   0  0  0  0  0  0  0  0  0  0  0  0
   56.3950   29.6960   45.0370 O   0  0  0  0  0  0  0  0  0  0  0  0
   57.2040   28.7570   45.6900 C   0  0  0  0  0  0  0  0  0  0  0  0
   58.4880   29.0460   46.0660 N   0  0  0  0  0  0  0  0  0  0  0  0
   59.2910   28.1220   46.6850 C   0  0  0  0  0  0  0  0  0  0  0  0
   58.8110   26.8260   46.9470 C   0  0  0  0  0  0  0  0  0  0  0  0
   57.5080   26.5430   46.5510 C   0  0  0  0  0  0  0  0  0  0  0  0
   56.8370   25.3900   46.6850 N   0  0  0  0  0  0  0  0  0  0  0  0
   55.6370   25.6950   46.1260 C   0  0  0  0  0  0  0  0  0  0  0  0
   54.6990   24.8600   46.0510 O   0  0  0  0  0  0  0  0  0  0  0  0
   55.5220   26.9620   45.6530 N   0  0  0  0  0  0  0  0  0  0  0  0
   56.7280   27.4730   45.9400 C   0  0  0  0  0  0  0  0  0  0  0  0
   57.5610   31.7730   44.6720 C   0  0  0  0  0  0  0  0  0  0  0  0
   60.4120   33.4300   46.2030 N   0  0  0  0  0  0  0  0  0  0  0  0
   60.9220   33.5280   47.5420 C   0  0  0  0  0  0  0  0  0  0  0  0
   60.0730   33.7860   48.6360 C   0  0  0  0  0  0  0  0  0  0  0  0
   60.5940   33.8490   49.9320 C   0  0  0  0  0  0  0  0  0  0  0  0
   61.9590   33.6440   50.1510 C   0  0  0  0  0  0  0  0  0  0  0  0
   62.8050   33.3640   49.0730 C   0  0  0  0  0  0  0  0  0  0  0  0
   64.5160   33.0920   49.3500 Cl  0  0  0  0  0  0  0  0  0  0  0  0
   62.2870   33.2980   47.7760 C   0  0  0  0  0  0  0  0  0  0  0  0
   58.1699   33.4927   41.7785 H   0  0  0  0  0  0  0  0  0  0  0  0
   56.9667   31.5240   40.8311 H   0  0  0  0  0  0  0  0  0  0  0  0
   56.1360   29.7201   42.3376 H   0  0  0  0  0  0  0  0  0  0  0  0
   60.3153   28.3959   46.9779 H   0  0  0  0  0  0  0  0  0  0  0  0
   59.4379   26.0703   47.4428 H   0  0  0  0  0  0  0  0  0  0  0  0
   57.7261   31.8459   45.7571 H   0  0  0  0  0  0  0  0  0  0  0  0
   61.0240   32.9730   45.4920 H   0  0  0  0  0  0  0  0  0  0  0  0
   58.9963   33.9385   48.4701 H   0  0  0  0  0  0  0  0  0  0  0  0
   59.9278   34.0605   50.7814 H   0  0  0  0  0  0  0  0  0  0  0  0
   62.3677   33.7028   51.1705 H   0  0  0  0  0  0  0  0  0  0  0  0
   62.9538   33.0642   46.9329 H   0  0  0  0  0  0  0  0  0  0  0  0
  1  2  2  0
  2  3  1  0
  3  4  1  0
  4  5  2  0
  5  6  1  0
  6  7  2  0
  7  8  1  0
  8  9  1  0
  9 10  1  0
 10 11  2  0
 11 12  1  0
 12 13  2  0
 13 14  1  0
 14 15  1  0
 15 16  1  0
 16 17  2  0
 16 18  1  0
 18 19  1  0
  8 20  2  0
  2 21  1  0
 21 22  1  0
 22 23  2  0
 23 24  1  0
 24 25  2  0
 25 26  1  0
 26 27  1  0
 26 28  2  0
 20  4  1  0
 28 22  1  0
 19 10  1  0
 19 14  2  0
  5 29  1  0
  6 30  1  0
  7 31  1  0
 12 32  1  0
 13 33  1  0
 20 34  1  0
 21 35  1  0
 23 36  1  0
 24 37  1  0
 25 38  1  0
 28 39  1  0
M  CHG  3   3  -1  15  -1  18  -1
M  END
>  <UniqueID>  (62) 
57

>  <SMILES>  (62) 
O=C([N-]c1cccc(Oc2nccc3[n-]c(=O)[n-]c23)c1)Nc1cccc(Cl)c1

>  <Energy>  (62) 
93.83341020858093

>  <Genealogy>  (62) 
O=C([N-]c1cccc(Oc2nccc3[n-]c(=O)[n-]c23)c1)Nc1cccc(Cl)c1 (protonated)
O=C([N-]c1cccc(Oc2nccc3[n-]c(=O)[n-]c23)c1)Nc1cccc(Cl)c1 (3D coordinates assigned)
O=C([N-]c1cccc(Oc2nccc3[n-]c(=O)[n-]c23)c1)Nc1cccc(Cl)c1 (optimized conformer: 93.83341020858093 kcal/mol)

>  <smiles>  (62) 
O=C(Nc1cccc(Cl)c1)Nc1cccc(Oc2nccc3[nH]c(=O)[nH]c23)c1

>  <score_type>  (62) 
oracle

>  <origin>  (62) 
adg

>  <m_score__min__energy>  (62) 
-14.24

>  <m_primary>  (62) 
energy

$$$$
62:0
     RDKit          3D

 36 38  0  0  0  0  0  0  0  0999 V2000
   60.9720   28.6840   44.9760 N   0  0  0  0  0  0  0  0  0  0  0  0
   60.5900   27.6000   46.2660 S   0  0  0  0  0  0  0  0  0  0  0  0
   61.4570   26.3770   46.1660 O   0  0  0  0  0  0  0  0  0  0  0  0
   60.8580   28.2730   47.5840 O   0  0  0  0  0  0  0  0  0  0  0  0
   58.8930   27.1390   46.1690 C   0  0  0  0  0  0  0  0  0  0  0  0
   58.4950   25.8400   46.5100 C   0  0  0  0  0  0  0  0  0  0  0  0
   57.1530   25.4660   46.4000 C   0  0  0  0  0  0  0  0  0  0  0  0
   56.2030   26.3880   45.9530 C   0  0  0  0  0  0  0  0  0  0  0  0
   56.5830   27.6960   45.6250 C   0  0  0  0  0  0  0  0  0  0  0  0
   55.5790   28.6040   45.1500 N   0  0  0  0  0  0  0  0  0  0  0  0
   55.7860   29.7310   44.2890 C   0  0  0  0  0  0  0  0  0  0  0  0
   55.1800   30.8180   44.4910 O   0  0  0  0  0  0  0  0  0  0  0  0
   56.6600   29.5840   43.0860 C   0  0  0  0  0  0  0  0  0  0  0  0
   57.3560   31.2000   42.5990 S   0  0  0  0  0  0  0  0  0  0  0  0
   57.9560   31.5960   44.2390 C   0  0  0  0  0  0  0  0  0  0  0  0
   57.5340   32.6800   44.9410 N   0  0  0  0  0  0  0  0  0  0  0  0
   58.2470   32.5660   46.0740 C   0  0  0  0  0  0  0  0  0  0  0  0
   58.2330   33.4100   47.1820 C   0  0  0  0  0  0  0  0  0  0  0  0
   59.0780   33.0840   48.2610 C   0  0  0  0  0  0  0  0  0  0  0  0
   59.9040   31.9360   48.2030 C   0  0  0  0  0  0  0  0  0  0  0  0
   59.8910   31.1050   47.0660 C   0  0  0  0  0  0  0  0  0  0  0  0
   59.0430   31.4620   46.0210 C   0  0  0  0  0  0  0  0  0  0  0  0
   58.8540   30.8630   44.8770 O   0  0  0  0  0  0  0  0  0  0  0  0
   57.9390   28.0610   45.7140 C   0  0  0  0  0  0  0  0  0  0  0  0
   61.3490   28.1050   44.1930 H   0  0  0  0  0  0  0  0  0  0  0  0
   60.0700   29.0910   44.6420 H   0  0  0  0  0  0  0  0  0  0  0  0
   59.2402   25.1129   46.8650 H   0  0  0  0  0  0  0  0  0  0  0  0
   56.8441   24.4443   46.6657 H   0  0  0  0  0  0  0  0  0  0  0  0
   55.1499   26.0849   45.8580 H   0  0  0  0  0  0  0  0  0  0  0  0
   57.4821   28.8912   43.3185 H   0  0  0  0  0  0  0  0  0  0  0  0
   56.0567   29.1916   42.2541 H   0  0  0  0  0  0  0  0  0  0  0  0
   57.5856   34.2988   47.2133 H   0  0  0  0  0  0  0  0  0  0  0  0
   59.0960   33.7257   49.1543 H   0  0  0  0  0  0  0  0  0  0  0  0
   60.5602   31.6914   49.0513 H   0  0  0  0  0  0  0  0  0  0  0  0
   60.5260   30.2088   47.0059 H   0  0  0  0  0  0  0  0  0  0  0  0
   58.2526   29.0750   45.4251 H   0  0  0  0  0  0  0  0  0  0  0  0
  1  2  1  0
  2  3  2  0
  2  4  2  0
  2  5  1  0
  5  6  2  0
  6  7  1  0
  7  8  2  0
  8  9  1  0
  9 10  1  0
 10 11  1  0
 11 12  2  0
 11 13  1  0
 13 14  1  0
 14 15  1  0
 15 16  2  0
 16 17  1  0
 17 18  2  0
 18 19  1  0
 19 20  2  0
 20 21  1  0
 21 22  2  0
 22 23  1  0
  9 24  2  0
 24  5  1  0
 23 15  1  0
 22 17  1  0
  1 25  1  0
  1 26  1  0
  6 27  1  0
  7 28  1  0
  8 29  1  0
 13 30  1  0
 13 31  1  0
 18 32  1  0
 19 33  1  0
 20 34  1  0
 21 35  1  0
 24 36  1  0
M  CHG  1  10  -1
M  END
>  <UniqueID>  (63) 
58

>  <SMILES>  (63) 
NS(=O)(=O)c1cccc([N-]C(=O)CSc2nc3ccccc3o2)c1

>  <Energy>  (63) 
72.82404119252926

>  <Genealogy>  (63) 
NS(=O)(=O)c1cccc([N-]C(=O)CSc2nc3ccccc3o2)c1 (protonated)
NS(=O)(=O)c1cccc([N-]C(=O)CSc2nc3ccccc3o2)c1 (3D coordinates assigned)
NS(=O)(=O)c1cccc([N-]C(=O)CSc2nc3ccccc3o2)c1 (optimized conformer: 72.82404119252926 kcal/mol)

>  <smiles>  (63) 
NS(=O)(=O)c1cccc(NC(=O)CSc2nc3ccccc3o2)c1

>  <score_type>  (63) 
oracle

>  <origin>  (63) 
adg

>  <m_score__min__energy>  (63) 
-11.220000000000001

>  <m_primary>  (63) 
energy

$$$$
63:0
     RDKit          3D

 63 66  0  0  0  0  0  0  0  0999 V2000
   60.4350   27.4960   47.4070 C   0  0  0  0  0  0  0  0  0  0  0  0
   60.3060   28.4220   48.3610 C   0  0  0  0  0  0  0  0  0  0  0  0
   58.9600   28.9570   48.7590 C   0  0  0  0  0  0  0  0  0  0  0  0
   58.9370   30.4150   48.6610 N   0  0  0  0  0  0  0  0  0  0  0  0
   59.7600   31.2510   49.4910 C   0  0  0  0  0  0  0  0  0  0  0  0
   60.5670   30.7330   50.3080 O   0  0  0  0  0  0  0  0  0  0  0  0
   59.6610   32.7450   49.4020 C   0  0  0  0  0  0  0  0  0  0  0  0
   59.7930   33.1930   48.0000 N   0  0  0  0  0  0  0  0  0  0  0  0
   60.9910   33.6690   47.5230 C   0  0  0  0  0  0  0  0  0  0  0  0
   62.1680   33.6810   48.3410 N   0  0  0  0  0  0  0  0  0  0  0  0
   62.1990   34.3540   49.6270 C   0  0  0  0  0  0  0  0  0  0  0  0
   63.5160   33.9420   50.2660 C   0  0  0  0  0  0  0  0  0  0  0  0
   63.9330   32.6580   49.5550 C   0  0  0  0  0  0  0  0  0  0  0  0
   63.1900   32.6560   48.2240 C   0  0  0  0  0  0  0  0  0  0  0  0
   61.0810   34.1440   46.2540 N   0  0  0  0  0  0  0  0  0  0  0  0
   60.0150   34.1560   45.4230 C   0  0  0  0  0  0  0  0  0  0  0  0
   58.7840   33.6640   45.8560 C   0  0  0  0  0  0  0  0  0  0  0  0
   57.6250   33.6740   44.9310 C   0  0  0  0  0  0  0  0  0  0  0  0
   56.9040   34.7050   44.8590 O   0  0  0  0  0  0  0  0  0  0  0  0
   57.2700   32.5320   44.1380 N   0  0  0  0  0  0  0  0  0  0  0  0
   57.3060   31.1600   44.5600 C   0  0  0  0  0  0  0  0  0  0  0  0
   58.4990   30.5460   44.9790 C   0  0  0  0  0  0  0  0  0  0  0  0
   58.5010   29.2020   45.3630 C   0  0  0  0  0  0  0  0  0  0  0  0
   57.3170   28.4480   45.3270 C   0  0  0  0  0  0  0  0  0  0  0  0
   57.3270   27.0530   45.6920 N   0  0  0  0  0  0  0  0  0  0  0  0
   57.3940   26.0040   44.6650 C   0  0  0  0  0  0  0  0  0  0  0  0
   56.4430   24.8350   45.0110 C   0  0  0  0  0  0  0  0  0  0  0  0
   55.9150   24.8950   46.3270 O   0  0  0  0  0  0  0  0  0  0  0  0
   56.9380   25.1940   47.2530 C   0  0  0  0  0  0  0  0  0  0  0  0
   57.3440   26.6620   47.1060 C   0  0  0  0  0  0  0  0  0  0  0  0
   56.1330   29.0580   44.8800 C   0  0  0  0  0  0  0  0  0  0  0  0
   56.1310   30.4030   44.4970 C   0  0  0  0  0  0  0  0  0  0  0  0
   58.6870   33.2010   47.1820 C   0  0  0  0  0  0  0  0  0  0  0  0
   57.5680   32.8160   47.6230 O   0  0  0  0  0  0  0  0  0  0  0  0
   61.4330   27.1216   47.1353 H   0  0  0  0  0  0  0  0  0  0  0  0
   59.5432   27.1078   46.8931 H   0  0  0  0  0  0  0  0  0  0  0  0
   61.2061   28.8015   48.8668 H   0  0  0  0  0  0  0  0  0  0  0  0
   58.1925   28.5376   48.0919 H   0  0  0  0  0  0  0  0  0  0  0  0
   58.7573   28.6682   49.8009 H   0  0  0  0  0  0  0  0  0  0  0  0
   58.2550   30.8590   48.0040 H   0  0  0  0  0  0  0  0  0  0  0  0
   58.6847   33.0665   49.7937 H   0  0  0  0  0  0  0  0  0  0  0  0
   60.4742   33.1899   49.9942 H   0  0  0  0  0  0  0  0  0  0  0  0
   62.1615   35.4450   49.4916 H   0  0  0  0  0  0  0  0  0  0  0  0
   61.3370   34.0804   50.2531 H   0  0  0  0  0  0  0  0  0  0  0  0
   64.2748   34.7251   50.1209 H   0  0  0  0  0  0  0  0  0  0  0  0
   63.4126   33.7915   51.3507 H   0  0  0  0  0  0  0  0  0  0  0  0
   65.0199   32.6500   49.3862 H   0  0  0  0  0  0  0  0  0  0  0  0
   63.6900   31.7680   50.1540 H   0  0  0  0  0  0  0  0  0  0  0  0
   63.8789   32.8940   47.4002 H   0  0  0  0  0  0  0  0  0  0  0  0
   62.7526   31.6706   48.0055 H   0  0  0  0  0  0  0  0  0  0  0  0
   60.1187   34.5547   44.4030 H   0  0  0  0  0  0  0  0  0  0  0  0
   59.4339   31.1250   45.0048 H   0  0  0  0  0  0  0  0  0  0  0  0
   59.4377   28.7312   45.6961 H   0  0  0  0  0  0  0  0  0  0  0  0
   57.1023   26.4308   43.6940 H   0  0  0  0  0  0  0  0  0  0  0  0
   58.4236   25.6194   44.6206 H   0  0  0  0  0  0  0  0  0  0  0  0
   55.6039   24.8488   44.2999 H   0  0  0  0  0  0  0  0  0  0  0  0
   57.0356   23.9106   44.9460 H   0  0  0  0  0  0  0  0  0  0  0  0
   56.5718   25.0151   48.2747 H   0  0  0  0  0  0  0  0  0  0  0  0
   57.8089   24.5508   47.0585 H   0  0  0  0  0  0  0  0  0  0  0  0
   56.6374   27.2923   47.6658 H   0  0  0  0  0  0  0  0  0  0  0  0
   58.3613   26.7947   47.5030 H   0  0  0  0  0  0  0  0  0  0  0  0
   55.2020   28.4742   44.8310 H   0  0  0  0  0  0  0  0  0  0  0  0
   55.1993   30.8690   44.1438 H   0  0  0  0  0  0  0  0  0  0  0  0
  1  2  2  0
  2  3  1  0
  3  4  1  0
  4  5  1  0
  5  6  2  0
  5  7  1  0
  7  8  1  0
  8  9  1  0
  9 10  1  0
 10 11  1  0
 11 12  1  0
 12 13  1  0
 13 14  1  0
  9 15  2  0
 15 16  1  0
 16 17  2  0
 17 18  1  0
 18 19  2  0
 18 20  1  0
 20 21  1  0
 21 22  2  0
 22 23  1  0
 23 24  2  0
 24 25  1  0
 25 26  1  0
 26 27  1  0
 27 28  1  0
 28 29  1  0
 29 30  1  0
 24 31  1  0
 31 32  2  0
 17 33  1  0
 33 34  2  0
 33  8  1  0
 14 10  1  0
 32 21  1  0
 30 25  1  0
  1 35  1  0
  1 36  1  0
  2 37  1  0
  3 38  1  0
  3 39  1  0
  4 40  1  0
  7 41  1  0
  7 42  1  0
 11 43  1  0
 11 44  1  0
 12 45  1  0
 12 46  1  0
 13 47  1  0
 13 48  1  0
 14 49  1  0
 14 50  1  0
 16 51  1  0
 22 52  1  0
 23 53  1  0
 26 54  1  0
 26 55  1  0
 27 56  1  0
 27 57  1  0
 29 58  1  0
 29 59  1  0
 30 60  1  0
 30 61  1  0
 31 62  1  0
 32 63  1  0
M  CHG  1  20  -1
M  END
>  <UniqueID>  (64) 
59

>  <SMILES>  (64) 
C=CCNC(=O)Cn1c(N2CCCC2)ncc(C(=O)[N-]c2ccc(N3CCOCC3)cc2)c1=O

>  <Energy>  (64) 
86.76808387611645

>  <Genealogy>  (64) 
C=CCNC(=O)Cn1c(N2CCCC2)ncc(C(=O)[N-]c2ccc(N3CCOCC3)cc2)c1=O (protonated)
C=CCNC(=O)Cn1c(N2CCCC2)ncc(C(=O)[N-]c2ccc(N3CCOCC3)cc2)c1=O (3D coordinates assigned)
C=CCNC(=O)Cn1c(N2CCCC2)ncc(C(=O)[N-]c2ccc(N3CCOCC3)cc2)c1=O (nonaromatic ring conformer: 86.76808387611645 kcal/mol)

>  <smiles>  (64) 
C=CCNC(=O)Cn1c(N2CCCC2)ncc(C(=O)Nc2ccc(N3CCOCC3)cc2)c1=O

>  <score_type>  (64) 
oracle

>  <origin>  (64) 
adg

>  <m_score__min__energy>  (64) 
-8.5500000000000007

>  <m_primary>  (64) 
energy

$$$$
64:0
     RDKit          3D

 38 40  0  0  0  0  0  0  0  0999 V2000
   55.8410   22.4600   42.9200 O   0  0  0  0  0  0  0  0  0  0  0  0
   56.2150   23.2370   43.8360 C   0  0  0  0  0  0  0  0  0  0  0  0
   57.5470   23.2700   44.2350 C   0  0  0  0  0  0  0  0  0  0  0  0
   57.9110   24.1220   45.2260 N   0  0  0  0  0  0  0  0  0  0  0  0
   57.0220   24.9200   45.8260 N   0  0  0  0  0  0  0  0  0  0  0  0
   57.4960   25.8440   46.8600 C   0  0  0  0  0  0  0  0  0  0  0  0
   57.1450   27.2540   46.4920 C   0  0  0  0  0  0  0  0  0  0  0  0
   57.8840   27.9470   45.6220 C   0  0  0  0  0  0  0  0  0  0  0  0
   57.5410   29.3260   45.2390 C   0  0  0  0  0  0  0  0  0  0  0  0
   56.2830   29.7650   44.8930 C   0  0  0  0  0  0  0  0  0  0  0  0
   55.1480   28.9720   44.7940 O   0  0  0  0  0  0  0  0  0  0  0  0
   56.2890   31.0920   44.6580 N   0  0  0  0  0  0  0  0  0  0  0  0
   57.5750   31.4340   44.8880 C   0  0  0  0  0  0  0  0  0  0  0  0
   57.9850   32.6230   44.8050 O   0  0  0  0  0  0  0  0  0  0  0  0
   58.3690   30.3950   45.2380 N   0  0  0  0  0  0  0  0  0  0  0  0
   59.7370   30.4910   45.7580 C   0  0  0  0  0  0  0  0  0  0  0  0
   59.7950   31.4900   46.8830 C   0  0  0  0  0  0  0  0  0  0  0  0
   60.7350   32.5330   46.8550 C   0  0  0  0  0  0  0  0  0  0  0  0
   60.7630   33.4820   47.8810 C   0  0  0  0  0  0  0  0  0  0  0  0
   59.8490   33.4030   48.9350 C   0  0  0  0  0  0  0  0  0  0  0  0
   58.8990   32.3740   48.9660 C   0  0  0  0  0  0  0  0  0  0  0  0
   57.9780   32.2880   50.0070 O   0  0  0  0  0  0  0  0  0  0  0  0
   58.8730   31.4230   47.9400 C   0  0  0  0  0  0  0  0  0  0  0  0
   55.7110   24.9000   45.4290 C   0  0  0  0  0  0  0  0  0  0  0  0
   54.8600   25.6600   45.9660 O   0  0  0  0  0  0  0  0  0  0  0  0
   55.3200   24.0560   44.4410 N   0  0  0  0  0  0  0  0  0  0  0  0
   58.2916   22.6173   43.7559 H   0  0  0  0  0  0  0  0  0  0  0  0
   57.0222   25.5899   47.8197 H   0  0  0  0  0  0  0  0  0  0  0  0
   58.5891   25.7564   46.9470 H   0  0  0  0  0  0  0  0  0  0  0  0
   56.2622   27.7268   46.9471 H   0  0  0  0  0  0  0  0  0  0  0  0
   58.7733   27.4743   45.1796 H   0  0  0  0  0  0  0  0  0  0  0  0
   60.0547   29.5057   46.1299 H   0  0  0  0  0  0  0  0  0  0  0  0
   60.4066   30.8202   44.9498 H   0  0  0  0  0  0  0  0  0  0  0  0
   61.4514   32.6034   46.0232 H   0  0  0  0  0  0  0  0  0  0  0  0
   61.5061   34.2927   47.8586 H   0  0  0  0  0  0  0  0  0  0  0  0
   59.8755   34.1502   49.7418 H   0  0  0  0  0  0  0  0  0  0  0  0
   57.0140   32.5760   49.8870 H   0  0  0  0  0  0  0  0  0  0  0  0
   58.1248   30.6169   47.9616 H   0  0  0  0  0  0  0  0  0  0  0  0
  1  2  2  0
  2  3  1  0
  3  4  2  0
  4  5  1  0
  5  6  1  0
  6  7  1  0
  7  8  2  3
  8  9  1  0
  9 10  2  0
 10 11  1  0
 10 12  1  0
 12 13  1  0
 13 14  2  0
 13 15  1  0
 15 16  1  0
 16 17  1  0
 17 18  2  0
 18 19  1  0
 19 20  2  0
 20 21  1  0
 21 22  1  0
 21 23  2  0
  5 24  1  0
 24 25  2  0
 24 26  1  0
 26  2  1  0
 15  9  1  0
 23 17  1  0
  3 27  1  0
  6 28  1  0
  6 29  1  0
  7 30  1  0
  8 31  1  0
 16 32  1  0
 16 33  1  0
 18 34  1  0
 19 35  1  0
 20 36  1  0
 22 37  1  0
 23 38  1  0
M  CHG  3  11  -1  12  -1  26  -1
M  END
>  <UniqueID>  (65) 
60

>  <SMILES>  (65) 
O=c1cnn(CC=Cc2c([O-])[n-]c(=O)n2Cc2cccc(O)c2)c(=O)[n-]1

>  <Energy>  (65) 
73.28486989872145

>  <Genealogy>  (65) 
O=c1cnn(CC=Cc2c([O-])[n-]c(=O)n2Cc2cccc(O)c2)c(=O)[n-]1 (protonated)
O=c1cnn(CC=Cc2c([O-])[n-]c(=O)n2Cc2cccc(O)c2)c(=O)[n-]1 (3D coordinates assigned)
O=c1cnn(CC=Cc2c([O-])[n-]c(=O)n2Cc2cccc(O)c2)c(=O)[n-]1 (optimized conformer: 73.28486989872145 kcal/mol)

>  <smiles>  (65) 
O=c1cnn(CC=Cc2c(O)[nH]c(=O)n2Cc2cccc(O)c2)c(=O)[nH]1

>  <score_type>  (65) 
oracle

>  <origin>  (65) 
adg

>  <m_score__min__energy>  (65) 
-14.220000000000001

>  <m_primary>  (65) 
energy

$$$$
65:0
     RDKit          3D

 55 59  0  0  0  0  0  0  0  0999 V2000
   62.8794   29.1094   51.0703 H   0  0  0  0  0  0  0  0  0  0  0  0
   62.3480   30.0490   50.8590 C   0  0  0  0  0  0  0  0  0  0  0  0
   61.0600   30.2050   51.2600 N   0  0  0  0  0  0  0  0  0  0  0  0
   60.3560   31.3550   51.0510 C   0  0  0  0  0  0  0  0  0  0  0  0
   58.9280   31.4120   51.4950 C   0  0  0  0  0  0  0  0  0  0  0  0
   58.1050   30.2630   51.5630 C   0  0  0  0  0  0  0  0  0  0  0  0
   58.5069   29.2868   51.2539 H   0  0  0  0  0  0  0  0  0  0  0  0
   56.7860   30.3550   52.0190 C   0  0  0  0  0  0  0  0  0  0  0  0
   56.1599   29.4519   52.0694 H   0  0  0  0  0  0  0  0  0  0  0  0
   56.2610   31.5860   52.4100 C   0  0  0  0  0  0  0  0  0  0  0  0
   55.2234   31.6538   52.7690 H   0  0  0  0  0  0  0  0  0  0  0  0
   57.0540   32.7310   52.3450 C   0  0  0  0  0  0  0  0  0  0  0  0
   56.6391   33.7034   52.6489 H   0  0  0  0  0  0  0  0  0  0  0  0
   58.3740   32.6470   51.8950 C   0  0  0  0  0  0  0  0  0  0  0  0
   58.9907   33.5569   51.8518 H   0  0  0  0  0  0  0  0  0  0  0  0
   61.0020   32.4250   50.3960 C   0  0  0  0  0  0  0  0  0  0  0  0
   60.4785   33.3831   50.2618 H   0  0  0  0  0  0  0  0  0  0  0  0
   62.3100   32.2690   49.9160 C   0  0  0  0  0  0  0  0  0  0  0  0
   62.9730   33.3630   49.1090 C   0  0  0  0  0  0  0  0  0  0  0  0
   64.0284   33.4235   49.4130 H   0  0  0  0  0  0  0  0  0  0  0  0
   62.4143   34.2879   49.3147 H   0  0  0  0  0  0  0  0  0  0  0  0
   62.9240   33.1560   47.6420 N   0  0  0  0  0  0  0  0  0  0  0  0
   62.0520   34.0640   46.8800 C   0  0  0  0  0  0  0  0  0  0  0  0
   62.0742   35.0563   47.3543 H   0  0  0  0  0  0  0  0  0  0  0  0
   62.4284   34.1032   45.8471 H   0  0  0  0  0  0  0  0  0  0  0  0
   60.6280   33.5830   46.8320 C   0  0  0  0  0  0  0  0  0  0  0  0
   59.6040   34.5220   46.6490 C   0  0  0  0  0  0  0  0  0  0  0  0
   59.8567   35.5784   46.4756 H   0  0  0  0  0  0  0  0  0  0  0  0
   58.2700   34.1280   46.6850 C   0  0  0  0  0  0  0  0  0  0  0  0
   57.4732   34.8705   46.5309 H   0  0  0  0  0  0  0  0  0  0  0  0
   57.9430   32.7940   46.9160 C   0  0  0  0  0  0  0  0  0  0  0  0
   56.8862   32.4967   46.9849 H   0  0  0  0  0  0  0  0  0  0  0  0
   58.9490   31.8240   47.0620 C   0  0  0  0  0  0  0  0  0  0  0  0
   58.5330   30.4390   47.3850 C   0  0  0  0  0  0  0  0  0  0  0  0
   58.8690   29.9140   48.4810 O   0  0  0  0  0  0  0  0  0  0  0  0
   57.7590   29.7010   46.4240 N   0  0  0  0  0  0  0  0  0  0  0  0
   57.4450   30.0790   45.2180 C   0  0  0  0  0  0  0  0  0  0  0  0
   58.2000   30.9930   44.5450 N   0  0  0  0  0  0  0  0  0  0  0  0
   57.8980   31.3850   43.2790 C   0  0  0  0  0  0  0  0  0  0  0  0
   58.5303   32.1256   42.7675 H   0  0  0  0  0  0  0  0  0  0  0  0
   56.7870   30.8490   42.6280 C   0  0  0  0  0  0  0  0  0  0  0  0
   56.5361   31.1652   41.6047 H   0  0  0  0  0  0  0  0  0  0  0  0
   55.9970   29.9070   43.2890 C   0  0  0  0  0  0  0  0  0  0  0  0
   55.1212   29.4716   42.7856 H   0  0  0  0  0  0  0  0  0  0  0  0
   56.3210   29.5180   44.5920 C   0  0  0  0  0  0  0  0  0  0  0  0
   55.5280   28.5860   45.2510 O   0  0  0  0  0  0  0  0  0  0  0  0
   60.3150   32.2120   46.9780 C   0  0  0  0  0  0  0  0  0  0  0  0
   61.4240   31.1880   47.1350 C   0  0  0  0  0  0  0  0  0  0  0  0
   61.2520   30.6432   48.0750 H   0  0  0  0  0  0  0  0  0  0  0  0
   61.3769   30.5513   46.2393 H   0  0  0  0  0  0  0  0  0  0  0  0
   62.8560   31.7620   47.1730 C   0  0  0  0  0  0  0  0  0  0  0  0
   63.4618   31.1390   47.8475 H   0  0  0  0  0  0  0  0  0  0  0  0
   63.2331   31.7523   46.1397 H   0  0  0  0  0  0  0  0  0  0  0  0
   62.9960   31.0770   50.1810 C   0  0  0  0  0  0  0  0  0  0  0  0
   64.0395   30.9543   49.8555 H   0  0  0  0  0  0  0  0  0  0  0  0
  1  2  1  0
  2  3  2  0
  3  4  1  0
  4  5  1  0
  5  6  2  0
  6  7  1  0
  6  8  1  0
  8  9  1  0
  8 10  2  0
 10 11  1  0
 10 12  1  0
 12 13  1  0
 12 14  2  0
 14 15  1  0
  4 16  2  0
 16 17  1  0
 16 18  1  0
 18 19  1  0
 19 20  1  0
 19 21  1  0
 19 22  1  0
 22 23  1  0
 23 24  1  0
 23 25  1  0
 23 26  1  0
 26 27  2  0
 27 28  1  0
 27 29  1  0
 29 30  1  0
 29 31  2  0
 31 32  1  0
 31 33  1  0
 33 34  1  0
 34 35  2  0
 34 36  1  0
 36 37  2  0
 37 38  1  0
 38 39  1  0
 39 40  1  0
 39 41  2  0
 41 42  1  0
 41 43  1  0
 43 44  1  0
 43 45  2  0
 45 46  1  0
 33 47  2  0
 47 48  1  0
 48 49  1  0
 48 50  1  0
 48 51  1  0
 51 52  1  0
 51 53  1  0
 18 54  2  0
 54 55  1  0
 54  2  1  0
 14  5  1  0
 51 22  1  0
 47 26  1  0
 45 37  1  0
M  CHG  2  38  -1  46  -1
M  END
>  <UniqueID>  (66) 
61

>  <SMILES>  (66) 
O=C(/N=c1\[n-]cccc1[O-])c1cccc2c1CCN(Cc1ccnc(-c3ccccc3)c1)C2

>  <Energy>  (66) 
82.45864743036749

>  <Genealogy>  (66) 
O=C(N=c1[n-]cccc1[O-])c1cccc2c1CCN(Cc1ccnc(-c3ccccc3)c1)C2 (protonated)
O=C(/N=c1\[n-]cccc1[O-])c1cccc2c1CCN(Cc1ccnc(-c3ccccc3)c1)C2 (cis-trans isomerization)
O=C(/N=c1\[n-]cccc1[O-])c1cccc2c1CCN(Cc1ccnc(-c3ccccc3)c1)C2 (3D coordinates assigned)
O=C(/N=c1\[n-]cccc1[O-])c1cccc2c1CCN(Cc1ccnc(-c3ccccc3)c1)C2 (nonaromatic ring conformer: 82.45864743036749 kcal/mol)

>  <smiles>  (66) 
O=C(N=c1[nH]cccc1O)c1cccc2c1CCN(Cc1ccnc(-c3ccccc3)c1)C2

>  <score_type>  (66) 
oracle

>  <origin>  (66) 
adg

>  <m_score__min__energy>  (66) 
-14.710000000000001

>  <m_primary>  (66) 
energy

$$$$
66:0
     RDKit          3D

 47 49  0  0  0  0  0  0  0  0999 V2000
   60.5850   33.3050   46.3580 C   0  0  0  0  0  0  0  0  0  0  0  0
   59.3200   34.5380   46.5750 S   0  0  0  0  0  0  0  0  0  0  0  0
   59.6250   35.7220   45.7020 O   0  0  0  0  0  0  0  0  0  0  0  0
   59.2900   34.9720   48.0140 O   0  0  0  0  0  0  0  0  0  0  0  0
   57.7400   33.8470   46.1220 C   0  0  0  0  0  0  0  0  0  0  0  0
   57.9320   32.6550   45.2430 C   0  0  0  0  0  0  0  0  0  0  0  0
   57.7820   32.6310   43.8700 C   0  0  0  0  0  0  0  0  0  0  0  0
   58.0240   31.3280   43.4910 C   0  0  0  0  0  0  0  0  0  0  0  0
   58.3020   30.6410   44.6600 C   0  0  0  0  0  0  0  0  0  0  0  0
   58.6230   29.2110   44.7650 C   0  0  0  0  0  0  0  0  0  0  0  0
   58.4410   28.4570   43.7710 O   0  0  0  0  0  0  0  0  0  0  0  0
   59.1380   28.6750   45.9930 N   0  0  0  0  0  0  0  0  0  0  0  0
   59.5310   27.2760   46.1340 C   0  0  0  0  0  0  0  0  0  0  0  0
   58.3330   26.3800   45.9820 C   0  0  0  0  0  0  0  0  0  0  0  0
   57.0450   26.8860   46.2100 C   0  0  0  0  0  0  0  0  0  0  0  0
   55.9270   26.0560   46.0950 C   0  0  0  0  0  0  0  0  0  0  0  0
   56.0740   24.6990   45.7520 C   0  0  0  0  0  0  0  0  0  0  0  0
   54.9170   23.8370   45.6350 N   0  0  0  0  0  0  0  0  0  0  0  0
   54.7370   22.7380   46.6070 C   0  0  0  0  0  0  0  0  0  0  0  0
   53.8100   21.6460   46.0680 C   0  0  0  0  0  0  0  0  0  0  0  0
   52.5670   22.2450   45.6120 N   0  0  0  0  0  0  0  0  0  0  0  0
   52.6140   23.4400   44.8380 C   0  0  0  0  0  0  0  0  0  0  0  0
   51.5530   23.9270   44.3690 O   0  0  0  0  0  0  0  0  0  0  0  0
   53.9380   24.0890   44.5560 C   0  0  0  0  0  0  0  0  0  0  0  0
   57.3710   24.1960   45.5300 C   0  0  0  0  0  0  0  0  0  0  0  0
   58.4870   25.0280   45.6460 C   0  0  0  0  0  0  0  0  0  0  0  0
   58.2380   31.4580   45.6860 O   0  0  0  0  0  0  0  0  0  0  0  0
   60.9362   32.9627   47.3427 H   0  0  0  0  0  0  0  0  0  0  0  0
   60.1734   32.4519   45.7986 H   0  0  0  0  0  0  0  0  0  0  0  0
   61.4272   33.7383   45.7986 H   0  0  0  0  0  0  0  0  0  0  0  0
   57.2012   33.5445   47.0321 H   0  0  0  0  0  0  0  0  0  0  0  0
   57.1592   34.6056   45.5767 H   0  0  0  0  0  0  0  0  0  0  0  0
   57.5232   33.4761   43.2152 H   0  0  0  0  0  0  0  0  0  0  0  0
   58.0009   30.9187   42.4703 H   0  0  0  0  0  0  0  0  0  0  0  0
   59.2390   29.3030   46.8230 H   0  0  0  0  0  0  0  0  0  0  0  0
   60.2711   27.0270   45.3592 H   0  0  0  0  0  0  0  0  0  0  0  0
   59.9663   27.1253   47.1329 H   0  0  0  0  0  0  0  0  0  0  0  0
   56.9141   27.9439   46.4813 H   0  0  0  0  0  0  0  0  0  0  0  0
   54.9225   26.4670   46.2742 H   0  0  0  0  0  0  0  0  0  0  0  0
   55.7189   22.2940   46.8277 H   0  0  0  0  0  0  0  0  0  0  0  0
   54.2784   23.1572   47.5147 H   0  0  0  0  0  0  0  0  0  0  0  0
   54.2992   21.1323   45.2273 H   0  0  0  0  0  0  0  0  0  0  0  0
   53.5953   20.9210   46.8670 H   0  0  0  0  0  0  0  0  0  0  0  0
   54.3371   23.6874   43.6129 H   0  0  0  0  0  0  0  0  0  0  0  0
   53.7775   25.1751   44.4884 H   0  0  0  0  0  0  0  0  0  0  0  0
   57.5062   23.1376   45.2627 H   0  0  0  0  0  0  0  0  0  0  0  0
   59.4934   24.6194   45.4725 H   0  0  0  0  0  0  0  0  0  0  0  0
  1  2  1  0
  2  3  2  0
  2  4  2  0
  2  5  1  0
  5  6  1  0
  6  7  2  0
  7  8  1  0
  8  9  2  0
  9 10  1  0
 10 11  2  0
 10 12  1  0
 12 13  1  0
 13 14  1  0
 14 15  2  0
 15 16  1  0
 16 17  2  0
 17 18  1  0
 18 19  1  0
 19 20  1  0
 20 21  1  0
 21 22  1  0
 22 23  2  0
 22 24  1  0
 17 25  1  0
 25 26  2  0
  9 27  1  0
 27  6  1  0
 26 14  1  0
 24 18  1  0
  1 28  1  0
  1 29  1  0
  1 30  1  0
  5 31  1  0
  5 32  1  0
  7 33  1  0
  8 34  1  0
 12 35  1  0
 13 36  1  0
 13 37  1  0
 15 38  1  0
 16 39  1  0
 19 40  1  0
 19 41  1  0
 20 42  1  0
 20 43  1  0
 24 44  1  0
 24 45  1  0
 25 46  1  0
 26 47  1  0
M  CHG  1  21  -1
M  END
>  <UniqueID>  (67) 
62

>  <SMILES>  (67) 
CS(=O)(=O)Cc1ccc(C(=O)NCc2ccc(N3CC[N-]C(=O)C3)cc2)o1

>  <Energy>  (67) 
64.82700507668167

>  <Genealogy>  (67) 
CS(=O)(=O)Cc1ccc(C(=O)NCc2ccc(N3CC[N-]C(=O)C3)cc2)o1 (protonated)
CS(=O)(=O)Cc1ccc(C(=O)NCc2ccc(N3CC[N-]C(=O)C3)cc2)o1 (3D coordinates assigned)
CS(=O)(=O)Cc1ccc(C(=O)NCc2ccc(N3CC[N-]C(=O)C3)cc2)o1 (nonaromatic ring conformer: 64.82700507668167 kcal/mol)

>  <smiles>  (67) 
CS(=O)(=O)Cc1ccc(C(=O)NCc2ccc(N3CCNC(=O)C3)cc2)o1

>  <score_type>  (67) 
oracle

>  <origin>  (67) 
adg

>  <m_score__min__energy>  (67) 
-9.8300000000000001

>  <m_primary>  (67) 
energy

$$$$
67:0
     RDKit          3D

 50 53  0  0  0  0  0  0  0  0999 V2000
   54.9420   26.6870   46.2780 O   0  0  0  0  0  0  0  0  0  0  0  0
   55.9340   26.0020   45.9120 C   0  0  0  0  0  0  0  0  0  0  0  0
   55.9220   24.5770   46.0420 N   0  0  0  0  0  0  0  0  0  0  0  0
   56.6760   23.6230   45.2770 C   0  0  0  0  0  0  0  0  0  0  0  0
   56.0440   22.7560   44.3650 C   0  0  0  0  0  0  0  0  0  0  0  0
   56.7960   21.8660   43.5960 C   0  0  0  0  0  0  0  0  0  0  0  0
   58.1840   21.8260   43.7290 C   0  0  0  0  0  0  0  0  0  0  0  0
   58.8210   22.6580   44.6510 C   0  0  0  0  0  0  0  0  0  0  0  0
   58.0770   23.5320   45.4540 C   0  0  0  0  0  0  0  0  0  0  0  0
   58.7860   24.3540   46.3960 N   0  0  0  0  0  0  0  0  0  0  0  0
   59.9360   25.1700   46.1260 C   0  0  0  0  0  0  0  0  0  0  0  0
   60.9540   24.6250   45.6220 O   0  0  0  0  0  0  0  0  0  0  0  0
   59.9750   26.6150   46.4580 C   0  0  0  0  0  0  0  0  0  0  0  0
   59.5930   27.0520   47.7380 C   0  0  0  0  0  0  0  0  0  0  0  0
   59.6470   28.4090   48.0670 C   0  0  0  0  0  0  0  0  0  0  0  0
   60.0690   29.3440   47.1180 C   0  0  0  0  0  0  0  0  0  0  0  0
   60.1210   30.6610   47.4390 F   0  0  0  0  0  0  0  0  0  0  0  0
   60.4330   28.9220   45.8370 C   0  0  0  0  0  0  0  0  0  0  0  0
   60.3830   27.5660   45.5050 C   0  0  0  0  0  0  0  0  0  0  0  0
   57.0900   26.6370   45.3500 N   0  0  0  0  0  0  0  0  0  0  0  0
   57.1620   28.0290   44.9960 C   0  0  0  0  0  0  0  0  0  0  0  0
   57.3780   28.4460   43.6730 C   0  0  0  0  0  0  0  0  0  0  0  0
   57.4660   29.8070   43.3730 C   0  0  0  0  0  0  0  0  0  0  0  0
   57.3440   30.7470   44.3990 C   0  0  0  0  0  0  0  0  0  0  0  0
   57.4520   32.1100   44.0930 O   0  0  0  0  0  0  0  0  0  0  0  0
   58.0540   33.0790   44.9100 C   0  0  0  0  0  0  0  0  0  0  0  0
   57.7260   33.1040   46.2710 C   0  0  0  0  0  0  0  0  0  0  0  0
   58.3100   34.0460   47.1230 C   0  0  0  0  0  0  0  0  0  0  0  0
   59.2390   34.9630   46.6220 C   0  0  0  0  0  0  0  0  0  0  0  0
   59.5890   34.9320   45.2700 C   0  0  0  0  0  0  0  0  0  0  0  0
   59.0060   33.9910   44.4150 C   0  0  0  0  0  0  0  0  0  0  0  0
   57.1670   30.3230   45.6810 N   0  0  0  0  0  0  0  0  0  0  0  0
   57.0780   29.0050   45.9980 C   0  0  0  0  0  0  0  0  0  0  0  0
   54.9495   22.7802   44.2577 H   0  0  0  0  0  0  0  0  0  0  0  0
   56.2931   21.1951   42.8840 H   0  0  0  0  0  0  0  0  0  0  0  0
   58.7765   21.1387   43.1072 H   0  0  0  0  0  0  0  0  0  0  0  0
   59.9163   22.6271   44.7479 H   0  0  0  0  0  0  0  0  0  0  0  0
   59.2495   26.3215   48.4852 H   0  0  0  0  0  0  0  0  0  0  0  0
   59.3569   28.7418   49.0745 H   0  0  0  0  0  0  0  0  0  0  0  0
   60.7596   29.6588   45.0884 H   0  0  0  0  0  0  0  0  0  0  0  0
   60.6642   27.2400   44.4927 H   0  0  0  0  0  0  0  0  0  0  0  0
   57.9650   26.0680   45.2850 H   0  0  0  0  0  0  0  0  0  0  0  0
   57.4781   27.6994   42.8714 H   0  0  0  0  0  0  0  0  0  0  0  0
   57.6302   30.1364   42.3364 H   0  0  0  0  0  0  0  0  0  0  0  0
   57.0040   32.3776   46.6725 H   0  0  0  0  0  0  0  0  0  0  0  0
   58.0383   34.0658   48.1887 H   0  0  0  0  0  0  0  0  0  0  0  0
   59.6937   35.7079   47.2916 H   0  0  0  0  0  0  0  0  0  0  0  0
   60.3247   35.6491   44.8769 H   0  0  0  0  0  0  0  0  0  0  0  0
   59.2919   33.9633   43.3532 H   0  0  0  0  0  0  0  0  0  0  0  0
   56.9393   28.7024   47.0464 H   0  0  0  0  0  0  0  0  0  0  0  0
  1  2  2  0
  2  3  1  0
  3  4  1  0
  4  5  2  0
  5  6  1  0
  6  7  2  0
  7  8  1  0
  8  9  2  0
  9 10  1  0
 10 11  1  0
 11 12  2  0
 11 13  1  0
 13 14  2  0
 14 15  1  0
 15 16  2  0
 16 17  1  0
 16 18  1  0
 18 19  2  0
  2 20  1  0
 20 21  1  0
 21 22  2  0
 22 23  1  0
 23 24  2  0
 24 25  1  0
 25 26  1  0
 26 27  2  0
 27 28  1  0
 28 29  2  0
 29 30  1  0
 30 31  2  0
 24 32  1  0
 32 33  2  0
  9  4  1  0
 19 13  1  0
 33 21  1  0
 31 26  1  0
  5 34  1  0
  6 35  1  0
  7 36  1  0
  8 37  1  0
 14 38  1  0
 15 39  1  0
 18 40  1  0
 19 41  1  0
 20 42  1  0
 22 43  1  0
 23 44  1  0
 27 45  1  0
 28 46  1  0
 29 47  1  0
 30 48  1  0
 31 49  1  0
 33 50  1  0
M  CHG  2   3  -1  10  -1
M  END
>  <UniqueID>  (68) 
63

>  <SMILES>  (68) 
O=C([N-]c1ccccc1[N-]C(=O)c1ccc(F)cc1)Nc1ccc(Oc2ccccc2)nc1

>  <Energy>  (68) 
75.46833803062474

>  <Genealogy>  (68) 
O=C([N-]c1ccccc1[N-]C(=O)c1ccc(F)cc1)Nc1ccc(Oc2ccccc2)nc1 (protonated)
O=C([N-]c1ccccc1[N-]C(=O)c1ccc(F)cc1)Nc1ccc(Oc2ccccc2)nc1 (3D coordinates assigned)
O=C([N-]c1ccccc1[N-]C(=O)c1ccc(F)cc1)Nc1ccc(Oc2ccccc2)nc1 (optimized conformer: 75.46833803062474 kcal/mol)

>  <smiles>  (68) 
O=C(Nc1ccc(Oc2ccccc2)nc1)Nc1ccccc1NC(=O)c1ccc(F)cc1

>  <score_type>  (68) 
oracle

>  <origin>  (68) 
adg

>  <m_score__min__energy>  (68) 
-11.84

>  <m_primary>  (68) 
energy

$$$$
68:0
     RDKit          3D

 58 60  0  0  0  0  0  0  0  0999 V2000
   60.0990   26.9410   48.2360 C   0  0  0  0  0  0  0  0  0  0  0  0
   60.4640   27.8430   47.1960 O   0  0  0  0  0  0  0  0  0  0  0  0
   59.5990   28.3020   46.1880 C   0  0  0  0  0  0  0  0  0  0  0  0
   59.2390   27.4680   45.1110 C   0  0  0  0  0  0  0  0  0  0  0  0
   58.3770   27.9220   44.1150 C   0  0  0  0  0  0  0  0  0  0  0  0
   57.8510   29.2090   44.1790 C   0  0  0  0  0  0  0  0  0  0  0  0
   58.1930   30.0590   45.2360 C   0  0  0  0  0  0  0  0  0  0  0  0
   57.6170   31.4220   45.2560 C   0  0  0  0  0  0  0  0  0  0  0  0
   56.4260   31.5620   44.8570 O   0  0  0  0  0  0  0  0  0  0  0  0
   58.3800   32.6010   45.6310 N   0  0  1  0  0  0  0  0  0  0  0  0
   58.5220   33.5140   44.4680 C   0  0  0  0  0  0  0  0  0  0  0  0
   58.9610   34.9420   44.8680 C   0  0  0  0  0  0  0  0  0  0  0  0
   59.7100   34.9450   46.2010 C   0  0  0  0  0  0  0  0  0  0  0  0
   58.8360   34.3710   47.3350 C   0  0  2  0  0  0  0  0  0  0  0  0
   59.6850   33.7920   48.3270 O   0  0  0  0  0  0  0  0  0  0  0  0
   60.8130   33.0190   48.0250 C   0  0  0  0  0  0  0  0  0  0  0  0
   60.9860   32.5860   46.8520 O   0  0  0  0  0  0  0  0  0  0  0  0
   61.7710   32.7140   49.0510 N   0  0  0  0  0  0  0  0  0  0  0  0
   62.7040   31.5960   48.8680 C   0  0  0  0  0  0  0  0  0  0  0  0
   63.5890   31.4110   50.1080 C   0  0  0  0  0  0  0  0  0  0  0  0
   64.1800   32.6920   50.5630 N   0  0  0  0  0  0  0  0  0  0  0  0
   65.3210   33.0900   49.7200 C   0  0  0  0  0  0  0  0  0  0  0  0
   63.2020   33.8040   50.7280 C   0  0  0  0  0  0  0  0  0  0  0  0
   61.7630   33.4460   50.3220 C   0  0  0  0  0  0  0  0  0  0  0  0
   57.8360   33.3100   46.8130 C   0  0  0  0  0  0  0  0  0  0  0  0
   59.0750   29.6240   46.2480 C   0  0  0  0  0  0  0  0  0  0  0  0
   59.3850   30.5390   47.2750 O   0  0  0  0  0  0  0  0  0  0  0  0
   59.2750   30.3130   48.6750 C   0  0  0  0  0  0  0  0  0  0  0  0
   60.2891   27.4108   49.2123 H   0  0  0  0  0  0  0  0  0  0  0  0
   59.0304   26.6947   48.1495 H   0  0  0  0  0  0  0  0  0  0  0  0
   60.6956   26.0209   48.1495 H   0  0  0  0  0  0  0  0  0  0  0  0
   59.6432   26.4465   45.0559 H   0  0  0  0  0  0  0  0  0  0  0  0
   58.1116   27.2618   43.2762 H   0  0  0  0  0  0  0  0  0  0  0  0
   57.1634   29.5592   43.3951 H   0  0  0  0  0  0  0  0  0  0  0  0
   59.3350   32.2500   45.8890 H   0  0  0  0  0  0  0  0  0  0  0  0
   59.2746   33.0951   43.7839 H   0  0  0  0  0  0  0  0  0  0  0  0
   57.5335   33.5958   43.9925 H   0  0  0  0  0  0  0  0  0  0  0  0
   59.6213   35.3452   44.0860 H   0  0  0  0  0  0  0  0  0  0  0  0
   58.0593   35.5625   44.9773 H   0  0  0  0  0  0  0  0  0  0  0  0
   60.6183   34.3323   46.1032 H   0  0  0  0  0  0  0  0  0  0  0  0
   59.9676   35.9844   46.4527 H   0  0  0  0  0  0  0  0  0  0  0  0
   58.2464   35.1930   47.7672 H   0  0  0  0  0  0  0  0  0  0  0  0
   62.1306   30.6735   48.6942 H   0  0  0  0  0  0  0  0  0  0  0  0
   63.3502   31.8158   48.0054 H   0  0  0  0  0  0  0  0  0  0  0  0
   62.9780   30.9927   50.9215 H   0  0  0  0  0  0  0  0  0  0  0  0
   64.4123   30.7324   49.8403 H   0  0  0  0  0  0  0  0  0  0  0  0
   66.1652   33.3845   50.3608 H   0  0  0  0  0  0  0  0  0  0  0  0
   65.6206   32.2433   49.0849 H   0  0  0  0  0  0  0  0  0  0  0  0
   65.0290   33.9394   49.0849 H   0  0  0  0  0  0  0  0  0  0  0  0
   63.1969   34.1042   51.7862 H   0  0  0  0  0  0  0  0  0  0  0  0
   63.5272   34.6120   50.0562 H   0  0  0  0  0  0  0  0  0  0  0  0
   61.3095   32.8172   51.1023 H   0  0  0  0  0  0  0  0  0  0  0  0
   61.1790   34.3707   50.2040 H   0  0  0  0  0  0  0  0  0  0  0  0
   57.6384   32.5791   47.6110 H   0  0  0  0  0  0  0  0  0  0  0  0
   56.9073   33.8202   46.5178 H   0  0  0  0  0  0  0  0  0  0  0  0
   59.6934   31.1726   49.2192 H   0  0  0  0  0  0  0  0  0  0  0  0
   58.2157   30.1889   48.9443 H   0  0  0  0  0  0  0  0  0  0  0  0
   59.8309   29.4028   48.9443 H   0  0  0  0  0  0  0  0  0  0  0  0
  1  2  1  0
  2  3  1  0
  3  4  2  0
  4  5  1  0
  5  6  2  0
  6  7  1  0
  7  8  1  0
  8  9  2  0
  8 10  1  0
 10 11  1  0
 11 12  1  0
 12 13  1  0
 13 14  1  0
 14 15  1  0
 15 16  1  0
 16 17  2  0
 16 18  1  0
 18 19  1  0
 19 20  1  0
 20 21  1  0
 21 22  1  0
 21 23  1  0
 23 24  1  0
 14 25  1  0
  7 26  2  0
 26 27  1  0
 27 28  1  0
 26  3  1  0
 25 10  1  0
 24 18  1  0
  1 29  1  0
  1 30  1  0
  1 31  1  0
  4 32  1  0
  5 33  1  0
  6 34  1  0
 10 35  1  1
 11 36  1  0
 11 37  1  0
 12 38  1  0
 12 39  1  0
 13 40  1  0
 13 41  1  0
 14 42  1  1
 19 43  1  0
 19 44  1  0
 20 45  1  0
 20 46  1  0
 22 47  1  0
 22 48  1  0
 22 49  1  0
 23 50  1  0
 23 51  1  0
 24 52  1  0
 24 53  1  0
 25 54  1  0
 25 55  1  0
 28 56  1  0
 28 57  1  0
 28 58  1  0
M  CHG  1  10   1
M  END
>  <UniqueID>  (69) 
64

>  <SMILES>  (69) 
COc1cccc(C(=O)[N@H+]2CCC[C@H](OC(=O)N3CCN(C)CC3)C2)c1OC

>  <Energy>  (69) 
82.28511335064165

>  <Genealogy>  (69) 
COc1cccc(C(=O)[NH+]2CCCC(OC(=O)N3CCN(C)CC3)C2)c1OC (protonated)
COc1cccc(C(=O)[N@H+]2CCC[C@H](OC(=O)N3CCN(C)CC3)C2)c1OC (chirality)
COc1cccc(C(=O)[N@H+]2CCC[C@H](OC(=O)N3CCN(C)CC3)C2)c1OC (3D coordinates assigned)
COc1cccc(C(=O)[N@H+]2CCC[C@H](OC(=O)N3CCN(C)CC3)C2)c1OC (nonaromatic ring conformer: 82.28511335064165 kcal/mol)

>  <smiles>  (69) 
COc1cccc(C(=O)N2CCCC(OC(=O)N3CCN(C)CC3)C2)c1OC

>  <score_type>  (69) 
oracle

>  <origin>  (69) 
adg

>  <m_score__min__energy>  (69) 
-6.5099999999999998

>  <m_primary>  (69) 
energy

$$$$
69:0
     RDKit          3D

 45 47  0  0  0  0  0  0  0  0999 V2000
   54.1170   23.5930   45.8830 C   0  0  0  0  0  0  0  0  0  0  0  0
   55.2270   23.9890   46.8090 C   0  0  0  0  0  0  0  0  0  0  0  0
   55.1890   23.5850   48.0020 O   0  0  0  0  0  0  0  0  0  0  0  0
   56.3500   24.8560   46.3620 C   0  0  0  0  0  0  0  0  0  0  0  0
   56.1050   26.1810   45.9540 C   0  0  0  0  0  0  0  0  0  0  0  0
   54.8120   26.6990   45.9890 O   0  0  0  0  0  0  0  0  0  0  0  0
   57.1710   27.0000   45.5480 C   0  0  0  0  0  0  0  0  0  0  0  0
   56.9370   28.4110   45.1570 C   0  0  0  0  0  0  0  0  0  0  0  0
   55.7670   28.8760   45.1840 O   0  0  0  0  0  0  0  0  0  0  0  0
   58.0080   29.2570   44.7120 N   0  0  0  0  0  0  0  0  0  0  0  0
   58.4270   30.4600   45.3710 C   0  0  0  0  0  0  0  0  0  0  0  0
   59.7230   30.5380   45.8940 C   0  0  0  0  0  0  0  0  0  0  0  0
   60.1210   31.6610   46.6230 C   0  0  0  0  0  0  0  0  0  0  0  0
   59.2350   32.7310   46.8090 C   0  0  0  0  0  0  0  0  0  0  0  0
   59.6860   34.0730   47.8580 S   0  0  0  0  0  0  0  0  0  0  0  0
   58.9880   35.3350   47.4350 O   0  0  0  0  0  0  0  0  0  0  0  0
   61.1710   34.2910   47.7670 O   0  0  0  0  0  0  0  0  0  0  0  0
   59.2600   33.6930   49.4970 N   0  0  0  0  0  0  0  0  0  0  0  0
   58.9990   32.4930   49.9170 C   0  0  0  0  0  0  0  0  0  0  0  0
   57.9100   32.2840   50.7050 N   0  0  0  0  0  0  0  0  0  0  0  0
   57.6100   31.0440   51.1770 C   0  0  0  0  0  0  0  0  0  0  0  0
   56.4160   30.8490   52.0550 C   0  0  0  0  0  0  0  0  0  0  0  0
   58.4370   29.9620   50.8570 C   0  0  0  0  0  0  0  0  0  0  0  0
   59.5450   30.1910   50.0430 C   0  0  0  0  0  0  0  0  0  0  0  0
   59.8040   31.4440   49.5900 N   0  0  0  0  0  0  0  0  0  0  0  0
   57.9600   32.6830   46.2310 C   0  0  0  0  0  0  0  0  0  0  0  0
   57.5580   31.5540   45.5140 C   0  0  0  0  0  0  0  0  0  0  0  0
   58.4650   26.4510   45.5420 C   0  0  0  0  0  0  0  0  0  0  0  0
   59.5530   27.2070   45.1150 O   0  0  0  0  0  0  0  0  0  0  0  0
   58.6640   25.1960   45.9270 O   0  0  0  0  0  0  0  0  0  0  0  0
   57.6830   24.3950   46.3280 C   0  0  0  0  0  0  0  0  0  0  0  0
   57.9660   23.2120   46.6540 O   0  0  0  0  0  0  0  0  0  0  0  0
   53.2420   23.2808   46.4719 H   0  0  0  0  0  0  0  0  0  0  0  0
   53.8454   24.4497   45.2487 H   0  0  0  0  0  0  0  0  0  0  0  0
   54.4490   22.7578   45.2487 H   0  0  0  0  0  0  0  0  0  0  0  0
   60.4306   29.7119   45.7303 H   0  0  0  0  0  0  0  0  0  0  0  0
   61.1327   31.7058   47.0524 H   0  0  0  0  0  0  0  0  0  0  0  0
   56.7243   30.8994   53.1097 H   0  0  0  0  0  0  0  0  0  0  0  0
   55.6778   31.6385   51.8507 H   0  0  0  0  0  0  0  0  0  0  0  0
   55.9673   29.8657   51.8507 H   0  0  0  0  0  0  0  0  0  0  0  0
   58.2179   28.9540   51.2389 H   0  0  0  0  0  0  0  0  0  0  0  0
   60.2084   29.3577   49.7682 H   0  0  0  0  0  0  0  0  0  0  0  0
   57.2743   33.5359   46.3420 H   0  0  0  0  0  0  0  0  0  0  0  0
   56.5568   31.5215   45.0595 H   0  0  0  0  0  0  0  0  0  0  0  0
   59.4290   28.1670   44.8150 H   0  0  0  0  0  0  0  0  0  0  0  0
  1  2  1  0
  2  3  2  0
  2  4  1  0
  4  5  2  0
  5  6  1  0
  5  7  1  0
  7  8  1  0
  8  9  2  0
  8 10  1  0
 10 11  1  0
 11 12  2  0
 12 13  1  0
 13 14  2  0
 14 15  1  0
 15 16  2  0
 15 17  2  0
 15 18  1  0
 18 19  2  3
 19 20  1  0
 20 21  2  0
 21 22  1  0
 21 23  1  0
 23 24  2  0
 24 25  1  0
 14 26  1  0
 26 27  2  0
  7 28  2  0
 28 29  1  0
 28 30  1  0
 30 31  1  0
 31 32  2  0
 31  4  1  0
 27 11  1  0
 25 19  1  0
  1 33  1  0
  1 34  1  0
  1 35  1  0
 12 36  1  0
 13 37  1  0
 22 38  1  0
 22 39  1  0
 22 40  1  0
 23 41  1  0
 24 42  1  0
 26 43  1  0
 27 44  1  0
 29 45  1  0
M  CHG  3   6  -1  10  -1  25  -1
M  END
>  <UniqueID>  (70) 
65

>  <SMILES>  (70) 
CC(=O)c1c([O-])c(C(=O)[N-]c2ccc(S(=O)(=O)N=c3nc(C)cc[n-]3)cc2)c(O)oc1=O

>  <Energy>  (70) 
63.83105661341666

>  <Genealogy>  (70) 
CC(=O)c1c([O-])c(C(=O)[N-]c2ccc(S(=O)(=O)N=c3nc(C)cc[n-]3)cc2)c(O)oc1=O (protonated)
CC(=O)c1c([O-])c(C(=O)[N-]c2ccc(S(=O)(=O)N=c3nc(C)cc[n-]3)cc2)c(O)oc1=O (3D coordinates assigned)
CC(=O)c1c([O-])c(C(=O)[N-]c2ccc(S(=O)(=O)N=c3nc(C)cc[n-]3)cc2)c(O)oc1=O (optimized conformer: 63.83105661341666 kcal/mol)

>  <smiles>  (70) 
CC(=O)c1c(O)c(C(=O)Nc2ccc(S(=O)(=O)N=c3nc(C)cc[nH]3)cc2)c(O)oc1=O

>  <score_type>  (70) 
oracle

>  <origin>  (70) 
adg

>  <m_score__min__energy>  (70) 
-14.76

>  <m_primary>  (70) 
energy

$$$$
70:0
     RDKit          3D

 46 48  0  0  0  0  0  0  0  0999 V2000
   60.5030   34.5530   48.8560 O   0  0  0  0  0  0  0  0  0  0  0  0
   61.4310   33.8180   48.4220 C   0  0  0  0  0  0  0  0  0  0  0  0
   61.2670   33.1170   47.1730 N   0  0  0  0  0  0  0  0  0  0  0  0
   60.0430   33.1100   46.4180 C   0  0  0  0  0  0  0  0  0  0  0  0
   59.5740   34.3080   45.8590 C   0  0  0  0  0  0  0  0  0  0  0  0
   58.3920   34.3250   45.1150 C   0  0  0  0  0  0  0  0  0  0  0  0
   57.6760   33.1440   44.9080 C   0  0  0  0  0  0  0  0  0  0  0  0
   58.1490   31.9300   45.4300 C   0  0  0  0  0  0  0  0  0  0  0  0
   57.3650   30.6610   45.2150 C   0  0  0  0  0  0  0  0  0  0  0  0
   58.1850   29.4720   45.5350 N   0  0  0  0  0  0  0  0  0  0  0  0
   58.8450   28.9270   44.3190 C   0  0  0  0  0  0  0  0  0  0  0  0
   59.2650   27.4650   44.4970 C   0  0  0  0  0  0  0  0  0  0  0  0
   58.0440   26.5630   44.7460 C   0  0  0  0  0  0  0  0  0  0  0  0
   56.8750   27.3230   45.4130 C   0  0  1  0  0  0  0  0  0  0  0  0
   56.0000   26.3800   46.1950 C   0  0  0  0  0  0  0  0  0  0  0  0
   54.7570   26.3430   45.9920 O   0  0  0  0  0  0  0  0  0  0  0  0
   56.5600   25.5600   47.1660 O   0  0  0  0  0  0  0  0  0  0  0  0
   57.4050   28.4640   46.3040 C   0  0  0  0  0  0  0  0  0  0  0  0
   59.3360   31.9180   46.1820 C   0  0  0  0  0  0  0  0  0  0  0  0
   62.6800   33.7000   49.2110 C   0  0  0  0  0  0  0  0  0  0  0  0
   62.7970   34.2690   50.4940 C   0  0  0  0  0  0  0  0  0  0  0  0
   63.9840   34.1400   51.2210 C   0  0  0  0  0  0  0  0  0  0  0  0
   65.0650   33.4390   50.6820 C   0  0  0  0  0  0  0  0  0  0  0  0
   66.2150   33.3140   51.3890 F   0  0  0  0  0  0  0  0  0  0  0  0
   64.9580   32.8580   49.4160 C   0  0  0  0  0  0  0  0  0  0  0  0
   63.7720   32.9830   48.6850 C   0  0  0  0  0  0  0  0  0  0  0  0
   62.0840   32.6260   46.7510 H   0  0  0  0  0  0  0  0  0  0  0  0
   60.1403   35.2393   46.0074 H   0  0  0  0  0  0  0  0  0  0  0  0
   58.0242   35.2710   44.6911 H   0  0  0  0  0  0  0  0  0  0  0  0
   56.7380   33.1653   44.3338 H   0  0  0  0  0  0  0  0  0  0  0  0
   56.4775   30.6717   45.8649 H   0  0  0  0  0  0  0  0  0  0  0  0
   57.0669   30.6075   44.1575 H   0  0  0  0  0  0  0  0  0  0  0  0
   58.1434   28.9941   43.4745 H   0  0  0  0  0  0  0  0  0  0  0  0
   59.7527   29.5196   44.1321 H   0  0  0  0  0  0  0  0  0  0  0  0
   59.7817   27.1265   43.5868 H   0  0  0  0  0  0  0  0  0  0  0  0
   59.9322   27.3974   45.3690 H   0  0  0  0  0  0  0  0  0  0  0  0
   57.6994   26.1611   43.7818 H   0  0  0  0  0  0  0  0  0  0  0  0
   58.3549   25.7597   45.4301 H   0  0  0  0  0  0  0  0  0  0  0  0
   56.2579   27.7725   44.6211 H   0  0  0  0  0  0  0  0  0  0  0  0
   56.5498   28.9671   46.7789 H   0  0  0  0  0  0  0  0  0  0  0  0
   58.0785   28.0193   47.0514 H   0  0  0  0  0  0  0  0  0  0  0  0
   59.7148   30.9689   46.5890 H   0  0  0  0  0  0  0  0  0  0  0  0
   61.9484   34.8188   50.9271 H   0  0  0  0  0  0  0  0  0  0  0  0
   64.0669   34.5919   52.2205 H   0  0  0  0  0  0  0  0  0  0  0  0
   65.8076   32.3015   48.9935 H   0  0  0  0  0  0  0  0  0  0  0  0
   63.6917   32.5176   47.6915 H   0  0  0  0  0  0  0  0  0  0  0  0
  1  2  2  0
  2  3  1  0
  3  4  1  0
  4  5  2  0
  5  6  1  0
  6  7  2  0
  7  8  1  0
  8  9  1  0
  9 10  1  0
 10 11  1  0
 11 12  1  0
 12 13  1  0
 13 14  1  0
 14 15  1  0
 15 16  2  0
 15 17  1  0
 14 18  1  0
  8 19  2  0
  2 20  1  0
 20 21  2  0
 21 22  1  0
 22 23  2  0
 23 24  1  0
 23 25  1  0
 25 26  2  0
 19  4  1  0
 26 20  1  0
 18 10  1  0
  3 27  1  0
  5 28  1  0
  6 29  1  0
  7 30  1  0
  9 31  1  0
  9 32  1  0
 11 33  1  0
 11 34  1  0
 12 35  1  0
 12 36  1  0
 13 37  1  0
 13 38  1  0
 14 39  1  6
 18 40  1  0
 18 41  1  0
 19 42  1  0
 21 43  1  0
 22 44  1  0
 25 45  1  0
 26 46  1  0
M  CHG  1  17  -1
M  END
>  <UniqueID>  (71) 
66

>  <SMILES>  (71) 
O=C(Nc1cccc(CN2CCC[C@@H](C(=O)[O-])C2)c1)c1ccc(F)cc1

>  <Energy>  (71) 
62.071335577095034

>  <Genealogy>  (71) 
O=C(Nc1cccc(CN2CCCC(C(=O)[O-])C2)c1)c1ccc(F)cc1 (protonated)
O=C(Nc1cccc(CN2CCC[C@@H](C(=O)[O-])C2)c1)c1ccc(F)cc1 (chirality)
O=C(Nc1cccc(CN2CCC[C@@H](C(=O)[O-])C2)c1)c1ccc(F)cc1 (3D coordinates assigned)
O=C(Nc1cccc(CN2CCC[C@@H](C(=O)[O-])C2)c1)c1ccc(F)cc1 (nonaromatic ring conformer: 62.071335577095034 kcal/mol)

>  <smiles>  (71) 
O=C(Nc1cccc(CN2CCCC(C(=O)O)C2)c1)c1ccc(F)cc1

>  <score_type>  (71) 
oracle

>  <origin>  (71) 
adg

>  <m_score__min__energy>  (71) 
-11.109999999999999

>  <m_primary>  (71) 
energy

$$$$
71:0
     RDKit          3D

 50 53  0  0  0  0  0  0  0  0999 V2000
   58.1330   33.0610   51.6310 C   0  0  0  0  0  0  0  0  0  0  0  0
   58.7560   31.6600   51.7480 C   0  0  1  0  0  0  0  0  0  0  0  0
   57.7560   30.6420   52.3200 C   0  0  0  0  0  0  0  0  0  0  0  0
   56.6300   30.5180   51.4940 O   0  0  0  0  0  0  0  0  0  0  0  0
   59.2480   31.1900   50.4430 N   0  0  0  0  0  0  0  0  0  0  0  0
   59.0030   29.9770   49.8850 C   0  0  0  0  0  0  0  0  0  0  0  0
   59.6810   29.8420   48.6770 C   0  0  0  0  0  0  0  0  0  0  0  0
   59.6510   28.6660   47.7750 C   0  0  0  0  0  0  0  0  0  0  0  0
   60.3990   27.6810   48.0180 O   0  0  0  0  0  0  0  0  0  0  0  0
   58.7420   28.6140   46.6060 C   0  0  0  0  0  0  0  0  0  0  0  0
   58.3880   27.3820   46.0390 C   0  0  0  0  0  0  0  0  0  0  0  0
   57.4810   27.3470   44.9790 C   0  0  0  0  0  0  0  0  0  0  0  0
   56.9400   28.4980   44.4950 N   0  0  0  0  0  0  0  0  0  0  0  0
   57.2850   29.7200   44.9970 C   0  0  0  0  0  0  0  0  0  0  0  0
   56.7110   30.7870   44.5130 N   0  0  0  0  0  0  0  0  0  0  0  0
   57.4010   31.9450   44.0210 C   0  0  0  0  0  0  0  0  0  0  0  0
   57.5190   32.1060   42.7760 O   0  0  0  0  0  0  0  0  0  0  0  0
   57.9890   32.9280   44.9620 C   0  0  0  0  0  0  0  0  0  0  0  0
   57.6480   32.9050   46.3290 C   0  0  0  0  0  0  0  0  0  0  0  0
   58.2320   33.8120   47.2190 C   0  0  0  0  0  0  0  0  0  0  0  0
   59.1510   34.7550   46.7560 C   0  0  0  0  0  0  0  0  0  0  0  0
   59.4890   34.7960   45.4020 C   0  0  0  0  0  0  0  0  0  0  0  0
   58.9150   33.8850   44.5080 C   0  0  0  0  0  0  0  0  0  0  0  0
   58.2170   29.7910   46.0510 C   0  0  0  0  0  0  0  0  0  0  0  0
   60.4010   31.0150   48.5280 C   0  0  0  0  0  0  0  0  0  0  0  0
   61.2790   31.4480   47.5350 C   0  0  0  0  0  0  0  0  0  0  0  0
   61.8680   32.6710   47.6810 N   0  0  0  0  0  0  0  0  0  0  0  0
   61.6180   33.4720   48.7610 C   0  0  0  0  0  0  0  0  0  0  0  0
   60.7270   33.0580   49.7660 C   0  0  0  0  0  0  0  0  0  0  0  0
   60.1200   31.8070   49.6130 C   0  0  0  0  0  0  0  0  0  0  0  0
   57.9524   33.4672   52.6372 H   0  0  0  0  0  0  0  0  0  0  0  0
   58.8211   33.7240   51.0861 H   0  0  0  0  0  0  0  0  0  0  0  0
   57.1798   32.9941   51.0861 H   0  0  0  0  0  0  0  0  0  0  0  0
   59.6046   31.7429   52.4430 H   0  0  0  0  0  0  0  0  0  0  0  0
   58.2494   29.6624   52.4034 H   0  0  0  0  0  0  0  0  0  0  0  0
   57.4259   30.9955   53.3080 H   0  0  0  0  0  0  0  0  0  0  0  0
   56.3930   31.4370   51.1970 H   0  0  0  0  0  0  0  0  0  0  0  0
   58.3562   29.2052   50.3277 H   0  0  0  0  0  0  0  0  0  0  0  0
   58.8223   26.4488   46.4270 H   0  0  0  0  0  0  0  0  0  0  0  0
   57.2013   26.3819   44.5314 H   0  0  0  0  0  0  0  0  0  0  0  0
   56.2460   28.4350   43.7160 H   0  0  0  0  0  0  0  0  0  0  0  0
   56.9182   32.1694   46.6982 H   0  0  0  0  0  0  0  0  0  0  0  0
   57.9666   33.7822   48.2861 H   0  0  0  0  0  0  0  0  0  0  0  0
   59.6094   35.4665   47.4586 H   0  0  0  0  0  0  0  0  0  0  0  0
   60.2072   35.5452   45.0375 H   0  0  0  0  0  0  0  0  0  0  0  0
   59.1897   33.9174   43.4433 H   0  0  0  0  0  0  0  0  0  0  0  0
   58.5335   30.7703   46.4394 H   0  0  0  0  0  0  0  0  0  0  0  0
   61.4915   30.8205   46.6569 H   0  0  0  0  0  0  0  0  0  0  0  0
   62.1183   34.4481   48.8437 H   0  0  0  0  0  0  0  0  0  0  0  0
   60.5152   33.6930   50.6389 H   0  0  0  0  0  0  0  0  0  0  0  0
  1  2  1  0
  2  3  1  0
  3  4  1  0
  2  5  1  0
  5  6  1  0
  6  7  2  0
  7  8  1  0
  8  9  2  0
  8 10  1  0
 10 11  1  0
 11 12  2  0
 12 13  1  0
 13 14  1  0
 14 15  2  3
 15 16  1  0
 16 17  2  0
 16 18  1  0
 18 19  2  0
 19 20  1  0
 20 21  2  0
 21 22  1  0
 22 23  2  0
 14 24  1  0
  7 25  1  0
 25 26  2  0
 26 27  1  0
 27 28  2  0
 28 29  1  0
 29 30  2  0
 30  5  1  0
 24 10  2  0
 30 25  1  0
 23 18  1  0
  1 31  1  0
  1 32  1  0
  1 33  1  0
  2 34  1  1
  3 35  1  0
  3 36  1  0
  4 37  1  0
  6 38  1  0
 11 39  1  0
 12 40  1  0
 13 41  1  0
 19 42  1  0
 20 43  1  0
 21 44  1  0
 22 45  1  0
 23 46  1  0
 24 47  1  0
 26 48  1  0
 28 49  1  0
 29 50  1  0
M  END
>  <UniqueID>  (72) 
67

>  <SMILES>  (72) 
C[C@@H](CO)n1cc(C(=O)c2cc[nH]c(=NC(=O)c3ccccc3)c2)c2cnccc21

>  <Energy>  (72) 
100.8247015151048

>  <Genealogy>  (72) 
C[C@@H](CO)n1cc(C(=O)c2cc[nH]c(=NC(=O)c3ccccc3)c2)c2cnccc21 (chirality)
C[C@@H](CO)n1cc(C(=O)c2cc[nH]c(=NC(=O)c3ccccc3)c2)c2cnccc21 (3D coordinates assigned)
C[C@@H](CO)n1cc(C(=O)c2cc[nH]c(=NC(=O)c3ccccc3)c2)c2cnccc21 (optimized conformer: 100.8247015151048 kcal/mol)

>  <smiles>  (72) 
CC(CO)n1cc(C(=O)c2cc[nH]c(=NC(=O)c3ccccc3)c2)c2cnccc21

>  <score_type>  (72) 
oracle

>  <origin>  (72) 
adg

>  <m_score__min__energy>  (72) 
-9.6400000000000006

>  <m_primary>  (72) 
energy

$$$$
72:0
     RDKit          3D

 36 38  0  0  0  0  0  0  0  0999 V2000
   59.0060   35.3950   47.1340 O   0  0  0  0  0  0  0  0  0  0  0  0
   59.6230   34.5240   46.4640 C   0  0  0  0  0  0  0  0  0  0  0  0
   61.0580   34.5100   46.5180 N   0  0  0  0  0  0  0  0  0  0  0  0
   61.7800   33.7010   47.2350 C   0  0  0  0  0  0  0  0  0  0  0  0
   61.2770   32.6820   47.9690 N   0  0  0  0  0  0  0  0  0  0  0  0
   62.2580   32.0210   48.6390 C   0  0  0  0  0  0  0  0  0  0  0  0
   63.5330   32.5280   48.4390 C   0  0  0  0  0  0  0  0  0  0  0  0
   64.6680   32.0460   49.0020 F   0  0  0  0  0  0  0  0  0  0  0  0
   63.4480   33.8440   47.3950 S   0  0  0  0  0  0  0  0  0  0  0  0
   58.8540   33.5900   45.6090 C   0  0  0  0  0  0  0  0  0  0  0  0
   58.1120   32.5400   46.1770 C   0  0  0  0  0  0  0  0  0  0  0  0
   57.3970   31.6560   45.3630 C   0  0  0  0  0  0  0  0  0  0  0  0
   57.4320   31.7930   43.9670 C   0  0  0  0  0  0  0  0  0  0  0  0
   56.6340   30.8680   43.0950 C   0  0  0  0  0  0  0  0  0  0  0  0
   56.8250   29.4950   43.5490 N   0  0  0  0  0  0  0  0  0  0  0  0
   56.3130   28.9650   44.7780 C   0  0  0  0  0  0  0  0  0  0  0  0
   55.1870   29.3570   45.1840 O   0  0  0  0  0  0  0  0  0  0  0  0
   57.0510   27.9550   45.5650 C   0  0  0  0  0  0  0  0  0  0  0  0
   58.4300   28.0910   45.7760 C   0  0  0  0  0  0  0  0  0  0  0  0
   59.1200   27.1450   46.5360 C   0  0  0  0  0  0  0  0  0  0  0  0
   58.4220   26.0730   47.0900 C   0  0  0  0  0  0  0  0  0  0  0  0
   57.0820   25.9590   46.8940 N   0  0  0  0  0  0  0  0  0  0  0  0
   56.3840   26.8640   46.1570 C   0  0  0  0  0  0  0  0  0  0  0  0
   55.1430   26.7100   46.0050 O   0  0  0  0  0  0  0  0  0  0  0  0
   58.1740   32.8390   43.3960 C   0  0  0  0  0  0  0  0  0  0  0  0
   58.8880   33.7230   44.2110 C   0  0  0  0  0  0  0  0  0  0  0  0
   62.0568   31.1550   49.2867 H   0  0  0  0  0  0  0  0  0  0  0  0
   58.0937   32.4128   47.2695 H   0  0  0  0  0  0  0  0  0  0  0  0
   56.8043   30.8494   45.8192 H   0  0  0  0  0  0  0  0  0  0  0  0
   55.5679   31.1313   43.1585 H   0  0  0  0  0  0  0  0  0  0  0  0
   56.9706   30.9620   42.0520 H   0  0  0  0  0  0  0  0  0  0  0  0
   58.9698   28.9453   45.3416 H   0  0  0  0  0  0  0  0  0  0  0  0
   60.2037   27.2445   46.6961 H   0  0  0  0  0  0  0  0  0  0  0  0
   58.9563   25.3187   47.6863 H   0  0  0  0  0  0  0  0  0  0  0  0
   58.1938   32.9637   42.3033 H   0  0  0  0  0  0  0  0  0  0  0  0
   59.4809   34.5288   43.7538 H   0  0  0  0  0  0  0  0  0  0  0  0
  1  2  2  0
  2  3  1  0
  3  4  2  3
  4  5  1  0
  5  6  1  0
  6  7  2  0
  7  8  1  0
  7  9  1  0
  2 10  1  0
 10 11  2  0
 11 12  1  0
 12 13  2  0
 13 14  1  0
 14 15  1  0
 15 16  1  0
 16 17  2  0
 16 18  1  0
 18 19  2  0
 19 20  1  0
 20 21  2  0
 21 22  1  0
 22 23  1  0
 23 24  2  0
 13 25  1  0
 25 26  2  0
  9  4  1  0
 26 10  1  0
 23 18  1  0
  6 27  1  0
 11 28  1  0
 12 29  1  0
 14 30  1  0
 14 31  1  0
 19 32  1  0
 20 33  1  0
 21 34  1  0
 25 35  1  0
 26 36  1  0
M  CHG  3   5  -1  15  -1  22  -1
M  END
>  <UniqueID>  (73) 
68

>  <SMILES>  (73) 
O=C(N=c1[n-]cc(F)s1)c1ccc(C[N-]C(=O)c2ccc[n-]c2=O)cc1

>  <Energy>  (73) 
82.44477394300938

>  <Genealogy>  (73) 
O=C(N=c1[n-]cc(F)s1)c1ccc(C[N-]C(=O)c2ccc[n-]c2=O)cc1 (protonated)
O=C(N=c1[n-]cc(F)s1)c1ccc(C[N-]C(=O)c2ccc[n-]c2=O)cc1 (3D coordinates assigned)
O=C(N=c1[n-]cc(F)s1)c1ccc(C[N-]C(=O)c2ccc[n-]c2=O)cc1 (optimized conformer: 82.44477394300938 kcal/mol)

>  <smiles>  (73) 
O=C(N=c1[nH]cc(F)s1)c1ccc(CNC(=O)c2ccc[nH]c2=O)cc1

>  <score_type>  (73) 
oracle

>  <origin>  (73) 
adg

>  <m_score__min__energy>  (73) 
-13.050000000000001

>  <m_primary>  (73) 
energy

$$$$
73:0
     RDKit          3D

 48 50  0  0  0  0  0  0  0  0999 V2000
   64.6250   32.6500   49.8470 C   0  0  0  0  0  0  0  0  0  0  0  0
   64.3060   33.0360   48.5170 O   0  0  0  0  0  0  0  0  0  0  0  0
   63.0300   33.4370   48.0950 C   0  0  0  0  0  0  0  0  0  0  0  0
   62.0900   33.7930   49.0680 C   0  0  0  0  0  0  0  0  0  0  0  0
   60.8060   34.2020   48.7010 C   0  0  0  0  0  0  0  0  0  0  0  0
   60.4330   34.2330   47.3430 C   0  0  0  0  0  0  0  0  0  0  0  0
   59.1340   34.6690   46.9140 N   0  0  0  0  0  0  0  0  0  0  0  0
   57.9580   33.8640   46.7550 C   0  0  0  0  0  0  0  0  0  0  0  0
   57.5850   33.0750   47.6630 O   0  0  0  0  0  0  0  0  0  0  0  0
   57.1740   33.9520   45.4860 C   0  0  0  0  0  0  0  0  0  0  0  0
   58.0850   33.1620   44.1150 S   0  0  0  0  0  0  0  0  0  0  0  0
   57.8580   31.4920   44.7270 C   0  0  0  0  0  0  0  0  0  0  0  0
   58.8440   30.8920   45.4430 N   0  0  0  0  0  0  0  0  0  0  0  0
   58.6820   29.6410   45.9460 C   0  0  0  0  0  0  0  0  0  0  0  0
   59.6100   29.1170   46.6200 O   0  0  0  0  0  0  0  0  0  0  0  0
   57.4930   28.9410   45.7110 C   0  0  0  0  0  0  0  0  0  0  0  0
   57.3070   27.6360   46.2780 N   0  0  0  0  0  0  0  0  0  0  0  0
   56.7730   26.4960   45.5900 C   0  0  0  0  0  0  0  0  0  0  0  0
   55.6390   26.0590   45.9240 O   0  0  0  0  0  0  0  0  0  0  0  0
   57.5750   25.7450   44.5620 C   0  0  0  0  0  0  0  0  0  0  0  0
   57.1660   24.2970   44.5480 C   0  0  0  0  0  0  0  0  0  0  0  0
   56.7090   23.7050   43.3580 C   0  0  0  0  0  0  0  0  0  0  0  0
   56.3710   22.3470   43.3320 C   0  0  0  0  0  0  0  0  0  0  0  0
   56.4870   21.5750   44.4920 C   0  0  0  0  0  0  0  0  0  0  0  0
   56.9480   22.1560   45.6770 C   0  0  0  0  0  0  0  0  0  0  0  0
   57.2910   23.5110   45.7080 C   0  0  0  0  0  0  0  0  0  0  0  0
   56.4790   29.5860   44.9810 C   0  0  0  0  0  0  0  0  0  0  0  0
   55.2490   28.9680   44.7690 O   0  0  0  0  0  0  0  0  0  0  0  0
   56.6880   30.8410   44.5010 N   0  0  0  0  0  0  0  0  0  0  0  0
   61.3790   33.8950   46.3690 C   0  0  0  0  0  0  0  0  0  0  0  0
   62.6660   33.4940   46.7370 C   0  0  0  0  0  0  0  0  0  0  0  0
   64.0890   33.2986   50.5556 H   0  0  0  0  0  0  0  0  0  0  0  0
   64.3241   31.6042   50.0074 H   0  0  0  0  0  0  0  0  0  0  0  0
   65.7088   32.7485   50.0074 H   0  0  0  0  0  0  0  0  0  0  0  0
   62.3648   33.7504   50.1323 H   0  0  0  0  0  0  0  0  0  0  0  0
   60.0837   34.5009   49.4749 H   0  0  0  0  0  0  0  0  0  0  0  0
   56.2089   33.4417   45.6207 H   0  0  0  0  0  0  0  0  0  0  0  0
   57.0118   35.0120   45.2410 H   0  0  0  0  0  0  0  0  0  0  0  0
   57.3966   26.1836   43.5691 H   0  0  0  0  0  0  0  0  0  0  0  0
   58.6432   25.8162   44.8146 H   0  0  0  0  0  0  0  0  0  0  0  0
   56.6167   24.3107   42.4444 H   0  0  0  0  0  0  0  0  0  0  0  0
   56.0140   21.8870   42.3988 H   0  0  0  0  0  0  0  0  0  0  0  0
   56.2152   20.5093   44.4721 H   0  0  0  0  0  0  0  0  0  0  0  0
   57.0411   21.5455   46.5873 H   0  0  0  0  0  0  0  0  0  0  0  0
   57.6591   23.9631   46.6408 H   0  0  0  0  0  0  0  0  0  0  0  0
   55.1420   27.9670   44.8920 H   0  0  0  0  0  0  0  0  0  0  0  0
   61.1072   33.9454   45.3043 H   0  0  0  0  0  0  0  0  0  0  0  0
   63.3975   33.2218   45.9619 H   0  0  0  0  0  0  0  0  0  0  0  0
  1  2  1  0
  2  3  1  0
  3  4  2  0
  4  5  1  0
  5  6  2  0
  6  7  1  0
  7  8  1  0
  8  9  2  0
  8 10  1  0
 10 11  1  0
 11 12  1  0
 12 13  2  0
 13 14  1  0
 14 15  2  0
 14 16  1  0
 16 17  1  0
 17 18  1  0
 18 19  2  0
 18 20  1  0
 20 21  1  0
 21 22  2  0
 22 23  1  0
 23 24  2  0
 24 25  1  0
 25 26  2  0
 16 27  2  0
 27 28  1  0
 27 29  1  0
  6 30  1  0
 30 31  2  0
 31  3  1  0
 29 12  1  0
 26 21  1  0
  1 32  1  0
  1 33  1  0
  1 34  1  0
  4 35  1  0
  5 36  1  0
 10 37  1  0
 10 38  1  0
 20 39  1  0
 20 40  1  0
 22 41  1  0
 23 42  1  0
 24 43  1  0
 25 44  1  0
 26 45  1  0
 28 46  1  0
 30 47  1  0
 31 48  1  0
M  CHG  3   7  -1  17  -1  29  -1
M  END
>  <UniqueID>  (74) 
69

>  <SMILES>  (74) 
COc1ccc([N-]C(=O)CSc2nc(=O)c([N-]C(=O)Cc3ccccc3)c(O)[n-]2)cc1

>  <Energy>  (74) 
53.54033418948296

>  <Genealogy>  (74) 
COc1ccc([N-]C(=O)CSc2nc(=O)c([N-]C(=O)Cc3ccccc3)c(O)[n-]2)cc1 (protonated)
COc1ccc([N-]C(=O)CSc2nc(=O)c([N-]C(=O)Cc3ccccc3)c(O)[n-]2)cc1 (3D coordinates assigned)
COc1ccc([N-]C(=O)CSc2nc(=O)c([N-]C(=O)Cc3ccccc3)c(O)[n-]2)cc1 (optimized conformer: 53.54033418948296 kcal/mol)

>  <smiles>  (74) 
COc1ccc(NC(=O)CSc2nc(=O)c(NC(=O)Cc3ccccc3)c(O)[nH]2)cc1

>  <score_type>  (74) 
oracle

>  <origin>  (74) 
adg

>  <m_score__min__energy>  (74) 
-14.34

>  <m_primary>  (74) 
energy

$$$$
74:0
     RDKit          3D

 44 46  0  0  0  0  0  0  0  0999 V2000
   60.7130   29.5020   47.5390 C   0  0  0  0  0  0  0  0  0  0  0  0
   59.9390   30.1820   46.5570 O   0  0  0  0  0  0  0  0  0  0  0  0
   58.7090   29.7250   46.0560 C   0  0  0  0  0  0  0  0  0  0  0  0
   58.2560   28.4090   46.2740 C   0  0  0  0  0  0  0  0  0  0  0  0
   57.0070   27.9960   45.7880 C   0  0  0  0  0  0  0  0  0  0  0  0
   56.5160   26.6280   46.0400 C   0  0  0  0  0  0  0  0  0  0  0  0
   57.3490   25.7130   46.2710 O   0  0  0  0  0  0  0  0  0  0  0  0
   55.1200   26.3000   46.0070 N   0  0  0  0  0  0  0  0  0  0  0  0
   54.5420   25.0800   45.4490 C   0  0  0  0  0  0  0  0  0  0  0  0
   54.8710   23.8700   46.3270 C   0  0  0  0  0  0  0  0  0  0  0  0
   55.5420   24.2830   47.4870 O   0  0  0  0  0  0  0  0  0  0  0  0
   56.2310   28.8850   45.0330 C   0  0  0  0  0  0  0  0  0  0  0  0
   56.6740   30.1890   44.8090 C   0  0  0  0  0  0  0  0  0  0  0  0
   57.9030   30.6180   45.3280 C   0  0  0  0  0  0  0  0  0  0  0  0
   58.3330   31.9670   45.1050 N   0  0  0  0  0  0  0  0  0  0  0  0
   58.5710   32.5810   43.9090 C   0  0  0  0  0  0  0  0  0  0  0  0
   58.3890   31.9400   42.6800 O   0  0  0  0  0  0  0  0  0  0  0  0
   57.4230   32.3610   41.7270 C   0  0  0  0  0  0  0  0  0  0  0  0
   59.0090   33.8670   44.0430 N   0  0  0  0  0  0  0  0  0  0  0  0
   59.0240   34.0200   45.3740 C   0  0  0  0  0  0  0  0  0  0  0  0
   59.5930   35.1920   46.4200 S   0  0  0  0  0  0  0  0  0  0  0  0
   59.3000   34.2000   47.7890 C   0  0  0  0  0  0  0  0  0  0  0  0
   58.7920   32.9470   47.3930 C   0  0  0  0  0  0  0  0  0  0  0  0
   58.5010   31.8220   48.3360 C   0  0  0  0  0  0  0  0  0  0  0  0
   58.6390   32.9150   46.0070 C   0  0  0  0  0  0  0  0  0  0  0  0
   60.3748   29.7991   48.5427 H   0  0  0  0  0  0  0  0  0  0  0  0
   60.5884   28.4160   47.4166 H   0  0  0  0  0  0  0  0  0  0  0  0
   61.7740   29.7654   47.4166 H   0  0  0  0  0  0  0  0  0  0  0  0
   58.8869   27.6998   46.8298 H   0  0  0  0  0  0  0  0  0  0  0  0
   53.4497   25.1942   45.3874 H   0  0  0  0  0  0  0  0  0  0  0  0
   54.9675   24.9147   44.4482 H   0  0  0  0  0  0  0  0  0  0  0  0
   53.9376   23.3607   46.6087 H   0  0  0  0  0  0  0  0  0  0  0  0
   55.5181   23.1820   45.7631 H   0  0  0  0  0  0  0  0  0  0  0  0
   55.5320   25.2760   47.4820 H   0  0  0  0  0  0  0  0  0  0  0  0
   55.2688   28.5538   44.6152 H   0  0  0  0  0  0  0  0  0  0  0  0
   56.0554   30.8838   44.2220 H   0  0  0  0  0  0  0  0  0  0  0  0
   56.5360   32.7476   42.2502 H   0  0  0  0  0  0  0  0  0  0  0  0
   57.8514   33.1540   41.0965 H   0  0  0  0  0  0  0  0  0  0  0  0
   57.1337   31.5073   41.0965 H   0  0  0  0  0  0  0  0  0  0  0  0
   59.3050   34.5470   43.3090 H   0  0  0  0  0  0  0  0  0  0  0  0
   59.4833   34.5006   48.8311 H   0  0  0  0  0  0  0  0  0  0  0  0
   58.5934   32.1790   49.3723 H   0  0  0  0  0  0  0  0  0  0  0  0
   57.4783   31.4549   48.1644 H   0  0  0  0  0  0  0  0  0  0  0  0
   59.2174   31.0051   48.1644 H   0  0  0  0  0  0  0  0  0  0  0  0
  1  2  1  0
  2  3  1  0
  3  4  2  0
  4  5  1  0
  5  6  1  0
  6  7  2  0
  6  8  1  0
  8  9  1  0
  9 10  1  0
 10 11  1  0
  5 12  2  0
 12 13  1  0
 13 14  2  0
 14 15  1  0
 15 16  1  0
 16 17  1  0
 17 18  1  0
 16 19  2  0
 19 20  1  0
 20 21  1  0
 21 22  1  0
 22 23  2  0
 23 24  1  0
 23 25  1  0
 14  3  1  0
 25 15  1  0
 25 20  2  0
  1 26  1  0
  1 27  1  0
  1 28  1  0
  4 29  1  0
  9 30  1  0
  9 31  1  0
 10 32  1  0
 10 33  1  0
 11 34  1  0
 12 35  1  0
 13 36  1  0
 18 37  1  0
 18 38  1  0
 18 39  1  0
 19 40  1  0
 22 41  1  0
 24 42  1  0
 24 43  1  0
 24 44  1  0
M  CHG  2   8  -1  19   1
M  END
>  <UniqueID>  (75) 
70

>  <SMILES>  (75) 
COc1cc(C(=O)[N-]CCO)ccc1-n1c(OC)[nH+]c2scc(C)c21

>  <Energy>  (75) 
131.29190912932992

>  <Genealogy>  (75) 
COc1cc(C(=O)[N-]CCO)ccc1-n1c(OC)[nH+]c2scc(C)c21 (protonated)
COc1cc(C(=O)[N-]CCO)ccc1-n1c(OC)[nH+]c2scc(C)c21 (3D coordinates assigned)
COc1cc(C(=O)[N-]CCO)ccc1-n1c(OC)[nH+]c2scc(C)c21 (optimized conformer: 131.29190912932992 kcal/mol)

>  <smiles>  (75) 
COc1cc(C(=O)NCCO)ccc1-n1c(OC)nc2scc(C)c21

>  <score_type>  (75) 
oracle

>  <origin>  (75) 
adg

>  <m_score__min__energy>  (75) 
-8.1699999999999999

>  <m_primary>  (75) 
energy

$$$$
75:0
     RDKit          3D

 73 77  0  0  0  0  0  0  0  0999 V2000
   55.6836   30.5247   52.0558 H   0  0  0  0  0  0  0  0  0  0  0  0
   56.6960   30.7360   51.6810 C   0  0  0  0  0  0  0  0  0  0  0  0
   57.6550   29.7920   51.5720 N   0  0  0  0  0  0  0  0  0  0  0  0
   58.7170   30.4540   51.0820 C   0  0  0  0  0  0  0  0  0  0  0  0
   60.0420   29.7990   50.8070 C   0  0  0  0  0  0  0  0  0  0  0  0
   60.8412   30.3986   51.2671 H   0  0  0  0  0  0  0  0  0  0  0  0
   60.0247   28.7848   51.2326 H   0  0  0  0  0  0  0  0  0  0  0  0
   60.2990   29.6910   49.3240 C   0  0  0  0  0  0  0  0  0  0  0  0
   60.6880   30.8240   48.5940 C   0  0  0  0  0  0  0  0  0  0  0  0
   60.7913   31.7936   49.1031 H   0  0  0  0  0  0  0  0  0  0  0  0
   60.9450   30.7280   47.2240 C   0  0  0  0  0  0  0  0  0  0  0  0
   61.2422   31.6230   46.6577 H   0  0  0  0  0  0  0  0  0  0  0  0
   60.8260   29.5020   46.5730 C   0  0  0  0  0  0  0  0  0  0  0  0
   61.0388   29.4308   45.4961 H   0  0  0  0  0  0  0  0  0  0  0  0
   60.4360   28.3580   47.2850 C   0  0  0  0  0  0  0  0  0  0  0  0
   60.2690   27.0370   46.5800 C   0  0  0  0  0  0  0  0  0  0  0  0
   59.8867   27.2128   45.5637 H   0  0  0  0  0  0  0  0  0  0  0  0
   61.2437   26.5295   46.5306 H   0  0  0  0  0  0  0  0  0  0  0  0
   59.0880   25.9790   47.4970 S   0  0  0  0  0  0  0  0  0  0  0  0
   57.6130   26.6060   46.7020 C   0  0  0  0  0  0  0  0  0  0  0  0
   57.5420   27.7750   46.0470 N   0  0  0  0  0  0  0  0  0  0  0  0
   56.2650   27.8050   45.6060 C   0  0  0  0  0  0  0  0  0  0  0  0
   55.7670   28.7680   44.8890 N   0  0  0  0  0  0  0  0  0  0  0  0
   56.4890   29.6410   44.0050 C   0  0  0  0  0  0  0  0  0  0  0  0
   56.5480   29.3960   42.7690 O   0  0  0  0  0  0  0  0  0  0  0  0
   57.1700   30.8380   44.5510 C   0  0  0  0  0  0  0  0  0  0  0  0
   57.3450   31.9850   43.7620 C   0  0  0  0  0  0  0  0  0  0  0  0
   56.9504   32.0059   42.7354 H   0  0  0  0  0  0  0  0  0  0  0  0
   58.0150   33.0990   44.2680 C   0  0  0  0  0  0  0  0  0  0  0  0
   58.1410   33.9898   43.6351 H   0  0  0  0  0  0  0  0  0  0  0  0
   58.5320   33.0990   45.5770 C   0  0  0  0  0  0  0  0  0  0  0  0
   59.2410   34.2500   46.0920 N   0  0  0  0  0  0  0  0  0  0  0  0
   59.6580   34.2920   47.5000 C   0  0  0  0  0  0  0  0  0  0  0  0
   58.7731   34.2029   48.1473 H   0  0  0  0  0  0  0  0  0  0  0  0
   60.3466   33.4587   47.7035 H   0  0  0  0  0  0  0  0  0  0  0  0
   60.1666   35.2459   47.7035 H   0  0  0  0  0  0  0  0  0  0  0  0
   59.5460   35.3930   45.2180 C   0  0  0  0  0  0  0  0  0  0  0  0
   59.7809   36.2734   45.8343 H   0  0  0  0  0  0  0  0  0  0  0  0
   60.4104   35.1487   44.5830 H   0  0  0  0  0  0  0  0  0  0  0  0
   58.6748   35.6118   44.5830 H   0  0  0  0  0  0  0  0  0  0  0  0
   58.3490   31.9500   46.3680 C   0  0  0  0  0  0  0  0  0  0  0  0
   58.7413   31.9283   47.3954 H   0  0  0  0  0  0  0  0  0  0  0  0
   57.6740   30.8360   45.8620 C   0  0  0  0  0  0  0  0  0  0  0  0
   57.5360   29.9484   46.4969 H   0  0  0  0  0  0  0  0  0  0  0  0
   55.5330   26.7250   45.9590 N   0  0  0  0  0  0  0  0  0  0  0  0
   56.4010   25.9650   46.6500 C   0  0  0  0  0  0  0  0  0  0  0  0
   56.1757   24.9872   47.1008 H   0  0  0  0  0  0  0  0  0  0  0  0
   60.1630   28.4620   48.6590 C   0  0  0  0  0  0  0  0  0  0  0  0
   59.8396   27.5722   49.2192 H   0  0  0  0  0  0  0  0  0  0  0  0
   58.3680   31.7800   50.8920 C   0  0  0  0  0  0  0  0  0  0  0  0
   59.2330   32.8850   50.3370 C   0  0  0  0  0  0  0  0  0  0  0  0
   58.6013   33.5456   49.7250 H   0  0  0  0  0  0  0  0  0  0  0  0
   60.0306   32.4041   49.7517 H   0  0  0  0  0  0  0  0  0  0  0  0
   59.8960   33.7050   51.3770 N   0  0  0  0  0  0  0  0  0  0  0  0
   59.0360   34.0950   52.5010 C   0  0  0  0  0  0  0  0  0  0  0  0
   59.5444   33.8645   53.4488 H   0  0  0  0  0  0  0  0  0  0  0  0
   58.8305   35.1744   52.4482 H   0  0  0  0  0  0  0  0  0  0  0  0
   58.0887   33.5384   52.4482 H   0  0  0  0  0  0  0  0  0  0  0  0
   61.1940   33.1560   51.8150 C   0  0  0  0  0  0  0  0  0  0  0  0
   61.6201   33.7938   52.6034 H   0  0  0  0  0  0  0  0  0  0  0  0
   61.0589   32.1405   52.2156 H   0  0  0  0  0  0  0  0  0  0  0  0
   62.1220   33.1250   50.6290 C   0  0  0  0  0  0  0  0  0  0  0  0
   62.0680   34.1640   49.6880 C   0  0  0  0  0  0  0  0  0  0  0  0
   61.3894   35.0140   49.8523 H   0  0  0  0  0  0  0  0  0  0  0  0
   62.8690   34.1280   48.5440 C   0  0  0  0  0  0  0  0  0  0  0  0
   62.8164   34.9450   47.8094 H   0  0  0  0  0  0  0  0  0  0  0  0
   63.7350   33.0560   48.3340 C   0  0  0  0  0  0  0  0  0  0  0  0
   64.3706   33.0304   47.4366 H   0  0  0  0  0  0  0  0  0  0  0  0
   63.7960   32.0140   49.2630 C   0  0  0  0  0  0  0  0  0  0  0  0
   64.4768   31.1671   49.0919 H   0  0  0  0  0  0  0  0  0  0  0  0
   62.9950   32.0430   50.4100 C   0  0  0  0  0  0  0  0  0  0  0  0
   63.0660   31.0130   51.2890 F   0  0  0  0  0  0  0  0  0  0  0  0
   57.0960   31.9630   51.2870 N   0  0  0  0  0  0  0  0  0  0  0  0
  1  2  1  0
  2  3  2  0
  3  4  1  0
  4  5  1  0
  5  6  1  0
  5  7  1  0
  5  8  1  0
  8  9  2  0
  9 10  1  0
  9 11  1  0
 11 12  1  0
 11 13  2  0
 13 14  1  0
 13 15  1  0
 15 16  1  0
 16 17  1  0
 16 18  1  0
 16 19  1  0
 19 20  1  0
 20 21  1  0
 21 22  1  0
 22 23  2  0
 23 24  1  0
 24 25  2  0
 24 26  1  0
 26 27  2  0
 27 28  1  0
 27 29  1  0
 29 30  1  0
 29 31  2  0
 31 32  1  0
 32 33  1  0
 33 34  1  0
 33 35  1  0
 33 36  1  0
 32 37  1  0
 37 38  1  0
 37 39  1  0
 37 40  1  0
 31 41  1  0
 41 42  1  0
 41 43  2  0
 43 44  1  0
 22 45  1  0
 45 46  1  0
 46 47  1  0
 15 48  2  0
 48 49  1  0
  4 50  2  0
 50 51  1  0
 51 52  1  0
 51 53  1  0
 51 54  1  0
 54 55  1  0
 55 56  1  0
 55 57  1  0
 55 58  1  0
 54 59  1  0
 59 60  1  0
 59 61  1  0
 59 62  1  0
 62 63  2  0
 63 64  1  0
 63 65  1  0
 65 66  1  0
 65 67  2  0
 67 68  1  0
 67 69  1  0
 69 70  1  0
 69 71  2  0
 71 72  1  0
 50 73  1  0
 73  2  1  0
 48  8  1  0
 71 62  1  0
 46 20  2  0
 43 26  1  0
M  CHG  3  21  -1  45  -1  73  -1
M  END
>  <UniqueID>  (76) 
71

>  <SMILES>  (76) 
CN(Cc1ccccc1F)Cc1[n-]cnc1Cc1cccc(CSc2c[n-]/c(=N/C(=O)c3ccc(N(C)C)cc3)[n-]2)c1

>  <Energy>  (76) 
134.44450502438374

>  <Genealogy>  (76) 
CN(Cc1ccccc1F)Cc1[n-]cnc1Cc1cccc(CSc2c[n-]c(=NC(=O)c3ccc(N(C)C)cc3)[n-]2)c1 (protonated)
CN(Cc1ccccc1F)Cc1[n-]cnc1Cc1cccc(CSc2c[n-]/c(=N/C(=O)c3ccc(N(C)C)cc3)[n-]2)c1 (cis-trans isomerization)
CN(Cc1ccccc1F)Cc1[n-]cnc1Cc1cccc(CSc2c[n-]/c(=N/C(=O)c3ccc(N(C)C)cc3)[n-]2)c1 (3D coordinates assigned)
CN(Cc1ccccc1F)Cc1[n-]cnc1Cc1cccc(CSc2c[n-]/c(=N/C(=O)c3ccc(N(C)C)cc3)[n-]2)c1 (optimized conformer: 134.44450502438374 kcal/mol)

>  <smiles>  (76) 
CN(Cc1ccccc1F)Cc1[nH]cnc1Cc1cccc(CSc2c[nH]c(=NC(=O)c3ccc(N(C)C)cc3)[nH]2)c1

>  <score_type>  (76) 
oracle

>  <origin>  (76) 
adg

>  <m_score__min__energy>  (76) 
-14.460000000000001

>  <m_primary>  (76) 
energy

$$$$
76:0
     RDKit          3D

 44 46  0  0  0  0  0  0  0  0999 V2000
   57.5150   27.7520   45.5030 O   0  0  0  0  0  0  0  0  0  0  0  0
   56.2620   27.8500   45.5860 C   0  0  0  0  0  0  0  0  0  0  0  0
   55.6100   29.0730   45.2240 N   0  0  0  0  0  0  0  0  0  0  0  0
   55.5430   29.5820   43.8580 C   0  0  0  0  0  0  0  0  0  0  0  0
   56.7680   30.4550   43.5550 C   0  0  0  0  0  0  0  0  0  0  0  0
   56.9420   31.6000   44.5650 C   0  0  0  0  0  0  0  0  0  0  0  0
   57.8370   32.7270   44.0320 C   0  0  0  0  0  0  0  0  0  0  0  0
   58.4520   33.4940   45.1720 C   0  0  0  0  0  0  0  0  0  0  0  0
   58.2480   33.0790   46.4980 C   0  0  0  0  0  0  0  0  0  0  0  0
   58.7930   33.8100   47.5570 C   0  0  0  0  0  0  0  0  0  0  0  0
   59.5370   34.9660   47.3020 C   0  0  0  0  0  0  0  0  0  0  0  0
   59.7330   35.3930   45.9860 C   0  0  0  0  0  0  0  0  0  0  0  0
   59.1890   34.6650   44.9230 C   0  0  0  0  0  0  0  0  0  0  0  0
   55.5000   26.7090   45.9950 N   0  0  0  0  0  0  0  0  0  0  0  0
   56.0070   25.3850   46.2090 C   0  0  0  0  0  0  0  0  0  0  0  0
   56.7900   25.0600   47.3340 C   0  0  0  0  0  0  0  0  0  0  0  0
   57.2830   23.7600   47.5010 C   0  0  0  0  0  0  0  0  0  0  0  0
   57.0120   22.7850   46.5390 C   0  0  0  0  0  0  0  0  0  0  0  0
   56.2810   23.1150   45.3910 C   0  0  0  0  0  0  0  0  0  0  0  0
   55.7750   24.4080   45.2290 C   0  0  0  0  0  0  0  0  0  0  0  0
   56.0660   22.1360   44.4160 O   0  0  0  0  0  0  0  0  0  0  0  0
   56.7970   20.9070   44.4320 C   0  0  0  0  0  0  0  0  0  0  0  0
   56.9790   20.4150   45.8740 C   0  0  0  0  0  0  0  0  0  0  0  0
   57.4690   21.4730   46.7010 O   0  0  0  0  0  0  0  0  0  0  0  0
   55.5179   28.7355   43.1560 H   0  0  0  0  0  0  0  0  0  0  0  0
   54.6333   30.1904   43.7468 H   0  0  0  0  0  0  0  0  0  0  0  0
   57.6671   29.8219   43.5818 H   0  0  0  0  0  0  0  0  0  0  0  0
   56.6187   30.9058   42.5628 H   0  0  0  0  0  0  0  0  0  0  0  0
   55.9514   32.0174   44.7983 H   0  0  0  0  0  0  0  0  0  0  0  0
   57.4281   31.1837   45.4597 H   0  0  0  0  0  0  0  0  0  0  0  0
   58.6369   32.2928   43.4143 H   0  0  0  0  0  0  0  0  0  0  0  0
   57.2243   33.4140   43.4299 H   0  0  0  0  0  0  0  0  0  0  0  0
   57.6567   32.1746   46.7040 H   0  0  0  0  0  0  0  0  0  0  0  0
   58.6364   33.4753   48.5931 H   0  0  0  0  0  0  0  0  0  0  0  0
   59.9676   35.5388   48.1365 H   0  0  0  0  0  0  0  0  0  0  0  0
   60.3165   36.3037   45.7857 H   0  0  0  0  0  0  0  0  0  0  0  0
   59.3382   35.0096   43.8891 H   0  0  0  0  0  0  0  0  0  0  0  0
   57.0153   25.8314   48.0852 H   0  0  0  0  0  0  0  0  0  0  0  0
   57.8824   23.5075   48.3881 H   0  0  0  0  0  0  0  0  0  0  0  0
   55.1931   24.6603   44.3303 H   0  0  0  0  0  0  0  0  0  0  0  0
   56.2452   20.1490   43.8568 H   0  0  0  0  0  0  0  0  0  0  0  0
   57.7872   21.0735   43.9828 H   0  0  0  0  0  0  0  0  0  0  0  0
   56.0107   20.0683   46.2641 H   0  0  0  0  0  0  0  0  0  0  0  0
   57.7057   19.5892   45.8813 H   0  0  0  0  0  0  0  0  0  0  0  0
  1  2  2  0
  2  3  1  0
  3  4  1  0
  4  5  1  0
  5  6  1  0
  6  7  1  0
  7  8  1  0
  8  9  2  0
  9 10  1  0
 10 11  2  0
 11 12  1  0
 12 13  2  0
  2 14  1  0
 14 15  1  0
 15 16  2  0
 16 17  1  0
 17 18  2  0
 18 19  1  0
 19 20  2  0
 19 21  1  0
 21 22  1  0
 22 23  1  0
 23 24  1  0
 13  8  1  0
 20 15  1  0
 24 18  1  0
  4 25  1  0
  4 26  1  0
  5 27  1  0
  5 28  1  0
  6 29  1  0
  6 30  1  0
  7 31  1  0
  7 32  1  0
  9 33  1  0
 10 34  1  0
 11 35  1  0
 12 36  1  0
 13 37  1  0
 16 38  1  0
 17 39  1  0
 20 40  1  0
 22 41  1  0
 22 42  1  0
 23 43  1  0
 23 44  1  0
M  CHG  2   3  -1  14  -1
M  END
>  <UniqueID>  (77) 
72

>  <SMILES>  (77) 
O=C([N-]CCCCc1ccccc1)[N-]c1ccc2c(c1)OCCO2

>  <Energy>  (77) 
42.17865486574941

>  <Genealogy>  (77) 
O=C([N-]CCCCc1ccccc1)[N-]c1ccc2c(c1)OCCO2 (protonated)
O=C([N-]CCCCc1ccccc1)[N-]c1ccc2c(c1)OCCO2 (3D coordinates assigned)
O=C([N-]CCCCc1ccccc1)[N-]c1ccc2c(c1)OCCO2 (nonaromatic ring conformer: 42.17865486574941 kcal/mol)

>  <smiles>  (77) 
O=C(NCCCCc1ccccc1)Nc1ccc2c(c1)OCCO2

>  <score_type>  (77) 
oracle

>  <origin>  (77) 
adg

>  <m_score__min__energy>  (77) 
-12.07

>  <m_primary>  (77) 
energy

$$$$
77:0
     RDKit          3D

 55 58  0  0  0  0  0  0  0  0999 V2000
   55.9000   27.3960   45.6010 O   0  0  0  0  0  0  0  0  0  0  0  0
   56.6990   28.3240   45.3040 C   0  0  0  0  0  0  0  0  0  0  0  0
   58.1460   27.9930   45.0370 C   0  0  0  0  0  0  0  0  0  0  0  0
   59.0550   28.5770   46.0780 C   0  0  0  0  0  0  0  0  0  0  0  0
   59.9880   29.9640   45.8830 S   0  0  0  0  0  0  0  0  0  0  0  0
   60.6320   29.8750   47.4420 C   0  0  0  0  0  0  0  0  0  0  0  0
   61.5800   30.7990   48.0080 N   0  0  0  0  0  0  0  0  0  0  0  0
   61.6220   31.0500   49.4570 C   0  0  0  0  0  0  0  0  0  0  0  0
   63.0710   31.2450   49.9150 C   0  0  0  0  0  0  0  0  0  0  0  0
   63.8110   32.3430   49.1230 C   0  0  0  0  0  0  0  0  0  0  0  0
   63.1120   32.7430   47.8130 C   0  0  0  0  0  0  0  0  0  0  0  0
   62.4820   31.5350   47.1090 C   0  0  0  0  0  0  0  0  0  0  0  0
   60.1560   28.8020   48.1150 N   0  0  0  0  0  0  0  0  0  0  0  0
   59.2820   28.0840   47.3610 C   0  0  0  0  0  0  0  0  0  0  0  0
   58.6750   26.9350   47.8500 O   0  0  0  0  0  0  0  0  0  0  0  0
   56.1640   29.6300   45.0520 N   0  0  0  0  0  0  0  0  0  0  0  0
   56.8150   30.7040   44.3620 C   0  0  0  0  0  0  0  0  0  0  0  0
   56.8000   30.7890   42.9600 C   0  0  0  0  0  0  0  0  0  0  0  0
   57.4660   31.8320   42.3120 C   0  0  0  0  0  0  0  0  0  0  0  0
   58.1760   32.7780   43.0550 C   0  0  0  0  0  0  0  0  0  0  0  0
   58.2430   32.6730   44.4510 C   0  0  0  0  0  0  0  0  0  0  0  0
   59.1390   33.8660   45.3900 S   0  0  0  0  0  0  0  0  0  0  0  0
   59.2500   35.1320   44.5860 O   0  0  0  0  0  0  0  0  0  0  0  0
   60.5330   33.3520   45.6220 O   0  0  0  0  0  0  0  0  0  0  0  0
   58.3980   34.2310   46.9340 N   0  0  0  0  0  0  0  0  0  0  0  0
   59.2900   34.9540   47.8610 C   0  0  0  0  0  0  0  0  0  0  0  0
   60.0840   34.0090   48.7750 C   0  0  0  0  0  0  0  0  0  0  0  0
   59.2210   33.1100   49.4360 O   0  0  0  0  0  0  0  0  0  0  0  0
   58.6130   32.2700   48.4790 C   0  0  0  0  0  0  0  0  0  0  0  0
   57.7060   33.0780   47.5430 C   0  0  0  0  0  0  0  0  0  0  0  0
   57.5570   31.6340   45.1000 C   0  0  0  0  0  0  0  0  0  0  0  0
   58.2658   26.8996   45.0333 H   0  0  0  0  0  0  0  0  0  0  0  0
   58.4205   28.4254   44.0635 H   0  0  0  0  0  0  0  0  0  0  0  0
   61.0427   31.9565   49.6863 H   0  0  0  0  0  0  0  0  0  0  0  0
   61.1903   30.1869   49.9849 H   0  0  0  0  0  0  0  0  0  0  0  0
   63.0679   31.5224   50.9795 H   0  0  0  0  0  0  0  0  0  0  0  0
   63.6020   30.2979   49.7390 H   0  0  0  0  0  0  0  0  0  0  0  0
   63.8904   33.2361   49.7602 H   0  0  0  0  0  0  0  0  0  0  0  0
   64.7938   31.9321   48.8486 H   0  0  0  0  0  0  0  0  0  0  0  0
   62.3221   33.4740   48.0403 H   0  0  0  0  0  0  0  0  0  0  0  0
   63.8687   33.1731   47.1404 H   0  0  0  0  0  0  0  0  0  0  0  0
   61.9099   31.8869   46.2379 H   0  0  0  0  0  0  0  0  0  0  0  0
   63.2897   30.8561   46.7979 H   0  0  0  0  0  0  0  0  0  0  0  0
   56.2621   30.0319   42.3705 H   0  0  0  0  0  0  0  0  0  0  0  0
   57.4313   31.9084   41.2152 H   0  0  0  0  0  0  0  0  0  0  0  0
   58.6843   33.6082   42.5427 H   0  0  0  0  0  0  0  0  0  0  0  0
   59.9999   35.5528   47.2716 H   0  0  0  0  0  0  0  0  0  0  0  0
   58.6602   35.5871   48.5032 H   0  0  0  0  0  0  0  0  0  0  0  0
   60.8024   33.4389   48.1676 H   0  0  0  0  0  0  0  0  0  0  0  0
   60.6129   34.6097   49.5296 H   0  0  0  0  0  0  0  0  0  0  0  0
   59.3952   31.7752   47.8847 H   0  0  0  0  0  0  0  0  0  0  0  0
   58.0007   31.5223   49.0044 H   0  0  0  0  0  0  0  0  0  0  0  0
   57.3509   32.4162   46.7393 H   0  0  0  0  0  0  0  0  0  0  0  0
   56.8731   33.4705   48.1448 H   0  0  0  0  0  0  0  0  0  0  0  0
   57.6028   31.5501   46.1958 H   0  0  0  0  0  0  0  0  0  0  0  0
  1  2  2  0
  2  3  1  0
  3  4  1  0
  4  5  1  0
  5  6  1  0
  6  7  1  0
  7  8  1  0
  8  9  1  0
  9 10  1  0
 10 11  1  0
 11 12  1  0
  6 13  2  0
 13 14  1  0
 14 15  1  0
  2 16  1  0
 16 17  1  0
 17 18  2  0
 18 19  1  0
 19 20  2  0
 20 21  1  0
 21 22  1  0
 22 23  2  0
 22 24  2  0
 22 25  1  0
 25 26  1  0
 26 27  1  0
 27 28  1  0
 28 29  1  0
 29 30  1  0
 21 31  2  0
 14  4  2  0
 31 17  1  0
 12  7  1  0
 30 25  1  0
  3 32  1  0
  3 33  1  0
  8 34  1  0
  8 35  1  0
  9 36  1  0
  9 37  1  0
 10 38  1  0
 10 39  1  0
 11 40  1  0
 11 41  1  0
 12 42  1  0
 12 43  1  0
 18 44  1  0
 19 45  1  0
 20 46  1  0
 26 47  1  0
 26 48  1  0
 27 49  1  0
 27 50  1  0
 29 51  1  0
 29 52  1  0
 30 53  1  0
 30 54  1  0
 31 55  1  0
M  CHG  2  15  -1  16  -1
M  END
>  <UniqueID>  (78) 
73

>  <SMILES>  (78) 
O=C(Cc1sc(N2CCCCC2)nc1[O-])[N-]c1cccc(S(=O)(=O)N2CCOCC2)c1

>  <Energy>  (78) 
98.88455292808625

>  <Genealogy>  (78) 
O=C(Cc1sc(N2CCCCC2)nc1[O-])[N-]c1cccc(S(=O)(=O)N2CCOCC2)c1 (protonated)
O=C(Cc1sc(N2CCCCC2)nc1[O-])[N-]c1cccc(S(=O)(=O)N2CCOCC2)c1 (3D coordinates assigned)
O=C(Cc1sc(N2CCCCC2)nc1[O-])[N-]c1cccc(S(=O)(=O)N2CCOCC2)c1 (nonaromatic ring conformer: 98.88455292808625 kcal/mol)

>  <smiles>  (78) 
O=C(Cc1sc(N2CCCCC2)nc1O)Nc1cccc(S(=O)(=O)N2CCOCC2)c1

>  <score_type>  (78) 
oracle

>  <origin>  (78) 
adg

>  <m_score__min__energy>  (78) 
-13.789999999999999

>  <m_primary>  (78) 
energy

$$$$
78:0
     RDKit          3D

 34 35  0  0  0  0  0  0  0  0999 V2000
   62.8120   33.8380   46.6330 C   0  0  0  0  0  0  0  0  0  0  0  0
   61.7870   32.8330   47.0930 C   0  0  0  0  0  0  0  0  0  0  0  0
   62.2050   31.7590   47.9000 C   0  0  0  0  0  0  0  0  0  0  0  0
   61.2870   30.8190   48.3650 C   0  0  0  0  0  0  0  0  0  0  0  0
   59.9370   30.9370   48.0380 C   0  0  0  0  0  0  0  0  0  0  0  0
   59.5020   31.9930   47.2380 C   0  0  0  0  0  0  0  0  0  0  0  0
   60.4120   32.9480   46.7490 C   0  0  0  0  0  0  0  0  0  0  0  0
   59.8800   34.0460   45.8520 C   0  0  0  0  0  0  0  0  0  0  0  0
   58.0670   34.2210   46.0300 S   0  0  0  0  0  0  0  0  0  0  0  0
   57.6760   32.9460   44.8390 C   0  0  0  0  0  0  0  0  0  0  0  0
   57.0490   31.8110   45.2440 N   0  0  0  0  0  0  0  0  0  0  0  0
   56.7690   30.8060   44.3740 C   0  0  0  0  0  0  0  0  0  0  0  0
   56.1370   29.6580   44.8690 O   0  0  0  0  0  0  0  0  0  0  0  0
   56.9470   28.2310   45.3540 S   0  0  0  0  0  0  0  0  0  0  0  0
   58.0010   27.6870   44.0310 C   0  0  0  0  0  0  0  0  0  0  0  0
   55.9440   27.1550   45.6620 O   0  0  0  0  0  0  0  0  0  0  0  0
   57.7830   28.5080   46.5730 O   0  0  0  0  0  0  0  0  0  0  0  0
   57.1270   30.9530   43.0230 C   0  0  0  0  0  0  0  0  0  0  0  0
   57.7620   32.1320   42.6250 C   0  0  0  0  0  0  0  0  0  0  0  0
   58.0940   32.2950   41.4220 O   0  0  0  0  0  0  0  0  0  0  0  0
   58.0270   33.1020   43.5360 N   0  0  0  0  0  0  0  0  0  0  0  0
   63.2873   34.3040   47.5087 H   0  0  0  0  0  0  0  0  0  0  0  0
   63.5771   33.3304   46.0273 H   0  0  0  0  0  0  0  0  0  0  0  0
   62.3195   34.6130   46.0273 H   0  0  0  0  0  0  0  0  0  0  0  0
   63.2676   31.6601   48.1668 H   0  0  0  0  0  0  0  0  0  0  0  0
   61.6286   29.9819   48.9916 H   0  0  0  0  0  0  0  0  0  0  0  0
   59.2143   30.1965   48.4114 H   0  0  0  0  0  0  0  0  0  0  0  0
   58.4348   32.0804   46.9863 H   0  0  0  0  0  0  0  0  0  0  0  0
   60.3612   34.9970   46.1241 H   0  0  0  0  0  0  0  0  0  0  0  0
   60.1050   33.7839   44.8076 H   0  0  0  0  0  0  0  0  0  0  0  0
   58.9047   27.2206   44.4503 H   0  0  0  0  0  0  0  0  0  0  0  0
   57.4635   26.9537   43.4118 H   0  0  0  0  0  0  0  0  0  0  0  0
   58.2873   28.5499   43.4118 H   0  0  0  0  0  0  0  0  0  0  0  0
   56.9119   30.1571   42.2948 H   0  0  0  0  0  0  0  0  0  0  0  0
  1  2  1  0
  2  3  2  0
  3  4  1  0
  4  5  2  0
  5  6  1  0
  6  7  2  0
  7  8  1  0
  8  9  1  0
  9 10  1  0
 10 11  2  0
 11 12  1  0
 12 13  1  0
 13 14  1  0
 14 15  1  0
 14 16  2  0
 14 17  2  0
 12 18  2  0
 18 19  1  0
 19 20  2  0
 19 21  1  0
  7  2  1  0
 21 10  1  0
  1 22  1  0
  1 23  1  0
  1 24  1  0
  3 25  1  0
  4 26  1  0
  5 27  1  0
  6 28  1  0
  8 29  1  0
  8 30  1  0
 15 31  1  0
 15 32  1  0
 15 33  1  0
 18 34  1  0
M  CHG  1  21  -1
M  END
>  <UniqueID>  (79) 
74

>  <SMILES>  (79) 
Cc1ccccc1CSc1nc(OS(C)(=O)=O)cc(=O)[n-]1

>  <Energy>  (79) 
27.069420968512908

>  <Genealogy>  (79) 
Cc1ccccc1CSc1nc(OS(C)(=O)=O)cc(=O)[n-]1 (protonated)
Cc1ccccc1CSc1nc(OS(C)(=O)=O)cc(=O)[n-]1 (3D coordinates assigned)
Cc1ccccc1CSc1nc(OS(C)(=O)=O)cc(=O)[n-]1 (optimized conformer: 27.069420968512908 kcal/mol)

>  <smiles>  (79) 
Cc1ccccc1CSc1nc(OS(C)(=O)=O)cc(=O)[nH]1

>  <score_type>  (79) 
oracle

>  <origin>  (79) 
adg

>  <m_score__min__energy>  (79) 
-9.3599999999999994

>  <m_primary>  (79) 
energy

$$$$
79:0
     RDKit          3D

 24 25  0  0  0  0  0  0  0  0999 V2000
   53.7080   24.7870   45.7150 O   0  0  0  0  0  0  0  0  0  0  0  0
   54.8840   25.2200   45.5960 C   0  0  0  0  0  0  0  0  0  0  0  0
   55.1540   26.5360   45.9500 O   0  0  0  0  0  0  0  0  0  0  0  0
   55.9590   24.3640   45.0380 C   0  0  0  0  0  0  0  0  0  0  0  0
   55.6090   23.1170   44.4930 C   0  0  0  0  0  0  0  0  0  0  0  0
   56.5920   22.2350   44.0450 C   0  0  0  0  0  0  0  0  0  0  0  0
   56.2270   20.9980   43.5190 O   0  0  0  0  0  0  0  0  0  0  0  0
   57.9330   22.6070   44.1390 C   0  0  0  0  0  0  0  0  0  0  0  0
   58.2660   23.8230   44.6410 N   0  0  0  0  0  0  0  0  0  0  0  0
   57.3350   24.7150   45.0790 C   0  0  0  0  0  0  0  0  0  0  0  0
   57.8140   26.0390   45.5310 C   0  0  0  0  0  0  0  0  0  0  0  0
   58.1080   26.2500   46.8880 C   0  0  0  0  0  0  0  0  0  0  0  0
   58.5960   27.4880   47.3180 C   0  0  0  0  0  0  0  0  0  0  0  0
   58.8090   28.5160   46.3970 C   0  0  0  0  0  0  0  0  0  0  0  0
   58.5400   28.3070   45.0410 C   0  0  0  0  0  0  0  0  0  0  0  0
   58.0510   27.0710   44.6070 C   0  0  0  0  0  0  0  0  0  0  0  0
   54.5487   22.8336   44.4190 H   0  0  0  0  0  0  0  0  0  0  0  0
   56.8770   20.2190   43.4990 H   0  0  0  0  0  0  0  0  0  0  0  0
   58.7205   21.9148   43.8063 H   0  0  0  0  0  0  0  0  0  0  0  0
   57.9539   25.4389   47.6149 H   0  0  0  0  0  0  0  0  0  0  0  0
   58.8125   27.6524   48.3839 H   0  0  0  0  0  0  0  0  0  0  0  0
   59.1885   29.4904   46.7385 H   0  0  0  0  0  0  0  0  0  0  0  0
   58.7131   29.1153   44.3152 H   0  0  0  0  0  0  0  0  0  0  0  0
   57.8510   26.9058   43.5380 H   0  0  0  0  0  0  0  0  0  0  0  0
  1  2  2  0
  2  3  1  0
  2  4  1  0
  4  5  2  0
  5  6  1  0
  6  7  1  0
  6  8  2  0
  8  9  1  0
  9 10  2  0
 10 11  1  0
 11 12  2  0
 12 13  1  0
 13 14  2  0
 14 15  1  0
 15 16  2  0
 10  4  1  0
 16 11  1  0
  5 17  1  0
  7 18  1  0
  8 19  1  0
 12 20  1  0
 13 21  1  0
 14 22  1  0
 15 23  1  0
 16 24  1  0
M  CHG  1   3  -1
M  END
>  <UniqueID>  (80) 
75

>  <SMILES>  (80) 
O=C([O-])c1cc(O)cnc1-c1ccccc1

>  <Energy>  (80) 
35.66627765909897

>  <Genealogy>  (80) 
O=C([O-])c1cc(O)cnc1-c1ccccc1 (protonated)
O=C([O-])c1cc(O)cnc1-c1ccccc1 (3D coordinates assigned)
O=C([O-])c1cc(O)cnc1-c1ccccc1 (optimized conformer: 35.66627765909897 kcal/mol)

>  <smiles>  (80) 
O=C(O)c1cc(O)cnc1-c1ccccc1

>  <score_type>  (80) 
oracle

>  <origin>  (80) 
adg

>  <m_score__min__energy>  (80) 
-8.4800000000000004

>  <m_primary>  (80) 
energy

$$$$
80:0
     RDKit          3D

 47 50  0  0  0  0  0  0  0  0999 V2000
   55.8530   30.5860   44.4630 O   0  0  0  0  0  0  0  0  0  0  0  0
   56.5210   29.5710   44.7940 C   0  0  0  0  0  0  0  0  0  0  0  0
   58.0130   29.5660   44.6310 C   0  0  0  0  0  0  0  0  0  0  0  0
   58.6530   28.5770   45.5090 N   0  0  0  0  0  0  0  0  0  0  0  0
   59.9410   28.8790   46.0990 C   0  0  0  0  0  0  0  0  0  0  0  0
   60.9950   28.4500   45.5500 O   0  0  0  0  0  0  0  0  0  0  0  0
   60.0470   29.5880   47.4220 C   0  0  0  0  0  0  0  0  0  0  0  0
   61.4220   30.7970   47.4100 S   0  0  0  0  0  0  0  0  0  0  0  0
   60.3850   32.1770   46.8860 C   0  0  0  0  0  0  0  0  0  0  0  0
   59.0730   31.8910   46.4820 C   0  0  0  0  0  0  0  0  0  0  0  0
   58.2360   32.9090   46.0240 C   0  0  0  0  0  0  0  0  0  0  0  0
   58.6970   34.2250   45.9720 C   0  0  0  0  0  0  0  0  0  0  0  0
   60.0020   34.5280   46.3730 C   0  0  0  0  0  0  0  0  0  0  0  0
   60.8680   33.5120   46.8270 C   0  0  0  0  0  0  0  0  0  0  0  0
   62.2520   33.8760   47.2400 C   0  0  0  0  0  0  0  0  0  0  0  0
   63.2080   33.6970   46.4340 O   0  0  0  0  0  0  0  0  0  0  0  0
   62.5750   34.2760   48.5840 N   0  0  0  0  0  0  0  0  0  0  0  0
   63.4960   33.8000   49.3770 C   0  0  0  0  0  0  0  0  0  0  0  0
   63.3850   34.0660   50.7510 C   0  0  0  0  0  0  0  0  0  0  0  0
   64.3510   33.5750   51.6300 C   0  0  0  0  0  0  0  0  0  0  0  0
   65.4110   32.8110   51.1410 C   0  0  0  0  0  0  0  0  0  0  0  0
   65.4870   32.5430   49.7720 C   0  0  0  0  0  0  0  0  0  0  0  0
   64.5370   33.0290   48.9220 N   0  0  0  0  0  0  0  0  0  0  0  0
   57.9780   27.3170   45.7750 C   0  0  0  0  0  0  0  0  0  0  0  0
   58.6870   26.1600   46.1580 C   0  0  0  0  0  0  0  0  0  0  0  0
   57.9990   24.9850   46.4730 C   0  0  0  0  0  0  0  0  0  0  0  0
   56.6030   24.9340   46.3770 C   0  0  0  0  0  0  0  0  0  0  0  0
   55.8930   26.0610   45.9640 C   0  0  0  0  0  0  0  0  0  0  0  0
   56.5750   27.2460   45.6570 C   0  0  0  0  0  0  0  0  0  0  0  0
   55.8430   28.3980   45.2420 N   0  0  0  0  0  0  0  0  0  0  0  0
   58.2565   29.3249   43.5857 H   0  0  0  0  0  0  0  0  0  0  0  0
   58.3908   30.5622   44.9045 H   0  0  0  0  0  0  0  0  0  0  0  0
   59.1040   30.1176   47.6229 H   0  0  0  0  0  0  0  0  0  0  0  0
   60.2438   28.8411   48.2052 H   0  0  0  0  0  0  0  0  0  0  0  0
   58.7011   30.8567   46.5265 H   0  0  0  0  0  0  0  0  0  0  0  0
   57.2105   32.6737   45.7032 H   0  0  0  0  0  0  0  0  0  0  0  0
   58.0326   35.0257   45.6149 H   0  0  0  0  0  0  0  0  0  0  0  0
   60.3563   35.5687   46.3339 H   0  0  0  0  0  0  0  0  0  0  0  0
   62.5406   34.6586   51.1327 H   0  0  0  0  0  0  0  0  0  0  0  0
   64.2769   33.7898   52.7063 H   0  0  0  0  0  0  0  0  0  0  0  0
   66.1792   32.4236   51.8264 H   0  0  0  0  0  0  0  0  0  0  0  0
   66.3164   31.9375   49.3777 H   0  0  0  0  0  0  0  0  0  0  0  0
   64.6130   32.7530   47.9180 H   0  0  0  0  0  0  0  0  0  0  0  0
   59.7856   26.1823   46.2091 H   0  0  0  0  0  0  0  0  0  0  0  0
   58.5575   24.0949   46.7983 H   0  0  0  0  0  0  0  0  0  0  0  0
   56.0672   24.0064   46.6270 H   0  0  0  0  0  0  0  0  0  0  0  0
   54.7971   26.0197   45.8792 H   0  0  0  0  0  0  0  0  0  0  0  0
  1  2  2  0
  2  3  1  0
  3  4  1  0
  4  5  1  0
  5  6  2  0
  5  7  1  0
  7  8  1  0
  8  9  1  0
  9 10  2  0
 10 11  1  0
 11 12  2  0
 12 13  1  0
 13 14  2  0
 14 15  1  0
 15 16  2  0
 15 17  1  0
 17 18  2  3
 18 19  1  0
 19 20  2  0
 20 21  1  0
 21 22  2  0
 22 23  1  0
  4 24  1  0
 24 25  2  0
 25 26  1  0
 26 27  2  0
 27 28  1  0
 28 29  2  0
 29 30  1  0
 30  2  1  0
 14  9  1  0
 23 18  1  0
 29 24  1  0
  3 31  1  0
  3 32  1  0
  7 33  1  0
  7 34  1  0
 10 35  1  0
 11 36  1  0
 12 37  1  0
 13 38  1  0
 19 39  1  0
 20 40  1  0
 21 41  1  0
 22 42  1  0
 23 43  1  0
 25 44  1  0
 26 45  1  0
 27 46  1  0
 28 47  1  0
M  CHG  1  30  -1
M  END
>  <UniqueID>  (81) 
76

>  <SMILES>  (81) 
O=C1CN(C(=O)CSc2ccccc2C(=O)N=c2cccc[nH]2)c2ccccc2[N-]1

>  <Energy>  (81) 
68.20048848846272

>  <Genealogy>  (81) 
O=C1CN(C(=O)CSc2ccccc2C(=O)N=c2cccc[nH]2)c2ccccc2[N-]1 (protonated)
O=C1CN(C(=O)CSc2ccccc2C(=O)N=c2cccc[nH]2)c2ccccc2[N-]1 (3D coordinates assigned)
O=C1CN(C(=O)CSc2ccccc2C(=O)N=c2cccc[nH]2)c2ccccc2[N-]1 (nonaromatic ring conformer: 68.20048848846272 kcal/mol)

>  <smiles>  (81) 
O=C1CN(C(=O)CSc2ccccc2C(=O)N=c2cccc[nH]2)c2ccccc2N1

>  <score_type>  (81) 
oracle

>  <origin>  (81) 
adg

>  <m_score__min__energy>  (81) 
-11.65

>  <m_primary>  (81) 
energy

$$$$
81:0
     RDKit          3D

 51 54  0  0  1  0  0  0  0  0999 V2000
   57.5670   19.2960   48.3110 C   0  0  0  0  0  0  0  0  0  0  0  0
   57.2310   20.0290   47.0510 C   0  0  0  0  0  0  0  0  0  0  0  0
   56.0110   20.5170   46.6390 C   0  0  0  0  0  0  0  0  0  0  0  0
   56.2090   21.1190   45.4010 C   0  0  0  0  0  0  0  0  0  0  0  0
   55.3180   21.6660   44.7340 N   0  0  0  0  0  0  0  0  0  0  0  0
   55.0940   23.2650   44.3890 S   0  0  0  0  0  0  0  0  0  0  0  0
   53.6840   23.7170   44.1080 O   0  0  0  0  0  0  0  0  0  0  0  0
   55.5340   23.2450   42.8850 O   0  0  0  0  0  0  0  0  0  0  0  0
   56.1390   24.4950   44.9470 C   0  0  0  0  0  0  0  0  0  0  0  0
   57.3040   24.8150   44.2530 C   0  0  0  0  0  0  0  0  0  0  0  0
   58.1460   25.8400   44.6420 C   0  0  0  0  0  0  0  0  0  0  0  0
   57.8740   26.6100   45.7510 C   0  0  0  0  0  0  0  0  0  0  0  0
   58.7760   27.6410   46.0920 N   0  0  0  0  0  0  0  0  0  0  0  0
   58.3010   28.9780   46.0390 C   0  0  0  0  0  0  0  0  0  0  0  0
   57.0860   29.1190   45.6850 O   0  0  0  0  0  0  0  0  0  0  0  0
   59.1520   30.1140   46.3720 C   0  0  0  0  0  0  0  0  0  0  0  0
   60.3020   30.1490   47.1450 C   0  0  0  0  0  0  0  0  0  0  0  0
   60.7230   31.4630   47.1480 C   0  0  0  0  0  0  0  0  0  0  0  0
   61.9040   31.9800   47.8380 C   0  0  0  0  0  0  0  0  0  0  0  0
   62.6690   33.0160   47.3270 C   0  0  0  0  0  0  0  0  0  0  0  0
   63.7810   33.4830   48.0010 C   0  0  0  0  0  0  0  0  0  0  0  0
   64.1410   32.9060   49.2150 C   0  0  0  0  0  0  0  0  0  0  0  0
   65.5450   33.4590   50.1180 Cl  0  0  0  0  0  0  0  0  0  0  0  0
   63.3980   31.8790   49.7410 C   0  0  0  0  0  0  0  0  0  0  0  0
   62.2820   31.4220   49.0460 C   0  0  0  0  0  0  0  0  0  0  0  0
   59.8570   32.1700   46.4070 N   0  0  0  0  0  0  0  0  0  0  0  0
   58.9160   31.3680   45.9420 N   0  0  0  0  0  0  0  0  0  0  0  0
   56.7290   26.3140   46.4530 C   0  0  0  0  0  0  0  0  0  0  0  0
   55.9060   25.3070   46.0670 C   0  0  0  0  0  0  0  0  0  0  0  0
   57.4990   20.9950   45.0880 N   0  0  0  0  0  0  0  0  0  0  0  0
   58.0790   21.4880   43.8720 C   0  0  0  0  0  0  0  0  0  0  0  0
   58.0930   20.3460   46.0760 N   0  0  0  0  0  0  0  0  0  0  0  0
   57.2854   19.9104   49.1789 H   0  0  0  0  0  0  0  0  0  0  0  0
   57.0149   18.3450   48.3403 H   0  0  0  0  0  0  0  0  0  0  0  0
   58.6478   19.0936   48.3403 H   0  0  0  0  0  0  0  0  0  0  0  0
   55.0594   20.4444   47.1859 H   0  0  0  0  0  0  0  0  0  0  0  0
   57.5642   24.2284   43.3596 H   0  0  0  0  0  0  0  0  0  0  0  0
   59.0524   26.0450   44.0534 H   0  0  0  0  0  0  0  0  0  0  0  0
   59.7620   27.4270   46.3730 H   0  0  0  0  0  0  0  0  0  0  0  0
   60.7823   29.3001   47.6537 H   0  0  0  0  0  0  0  0  0  0  0  0
   62.3861   33.4747   46.3680 H   0  0  0  0  0  0  0  0  0  0  0  0
   64.3780   34.3057   47.5806 H   0  0  0  0  0  0  0  0  0  0  0  0
   63.6812   31.4223   50.7008 H   0  0  0  0  0  0  0  0  0  0  0  0
   61.6870   30.5982   49.4670 H   0  0  0  0  0  0  0  0  0  0  0  0
   59.9240   33.2090   46.2290 H   0  0  0  0  0  0  0  0  0  0  0  0
   56.4755   26.9055   47.3451 H   0  0  0  0  0  0  0  0  0  0  0  0
   55.0039   25.1162   46.6668 H   0  0  0  0  0  0  0  0  0  0  0  0
   58.8970   22.1833   44.1115 H   0  0  0  0  0  0  0  0  0  0  0  0
   58.4740   20.6450   43.2861 H   0  0  0  0  0  0  0  0  0  0  0  0
   57.3107   22.0137   43.2861 H   0  0  0  0  0  0  0  0  0  0  0  0
   59.1130   20.1170   46.0770 H   0  0  0  0  0  0  0  0  0  0  0  0
  1  2  1  0
  2  3  2  0
  3  4  1  0
  4  5  2  0
  5  6  1  0
  6  7  2  0
  6  8  2  0
  6  9  1  0
  9 10  2  0
 10 11  1  0
 11 12  2  0
 12 13  1  0
 13 14  1  0
 14 15  2  0
 14 16  1  0
 16 17  1  0
 17 18  2  0
 18 19  1  0
 19 20  2  0
 20 21  1  0
 21 22  2  0
 22 23  1  0
 22 24  1  0
 24 25  2  0
 18 26  1  0
 26 27  1  0
 12 28  1  0
 28 29  2  0
  4 30  1  0
 30 31  1  0
 30 32  1  0
 32  2  1  0
 29  9  1  0
 27 16  2  0
 25 19  1  0
  1 33  1  0
  1 34  1  0
  1 35  1  0
  3 36  1  0
 10 37  1  0
 11 38  1  0
 13 39  1  0
 17 40  1  0
 20 41  1  0
 21 42  1  0
 24 43  1  0
 25 44  1  0
 26 45  1  0
 28 46  1  0
 29 47  1  0
 31 48  1  0
 31 49  1  0
 31 50  1  0
 32 51  1  0
M  END
>  <smiles>  (82) 
Cc1cc(=NS(=O)(=O)c2ccc(NC(=O)c3cc(-c4ccc(Cl)cc4)[nH]n3)cc2)n(C)[nH]1

>  <score_type>  (82) 
oracle

>  <origin>  (82) 
adg

>  <m_score__min__energy>  (82) 
-8.6600000000000001

>  <m_primary>  (82) 
energy

$$$$
82:0
     RDKit          3D

 66 69  0  0  0  0  0  0  0  0999 V2000
   66.7420   32.7360   50.1520 C   0  0  0  0  0  0  0  0  0  0  0  0
   65.5470   32.9430   49.4070 O   0  0  0  0  0  0  0  0  0  0  0  0
   64.2690   32.5510   49.8350 C   0  0  0  0  0  0  0  0  0  0  0  0
   63.2340   32.5220   48.8970 C   0  0  0  0  0  0  0  0  0  0  0  0
   61.9430   32.1430   49.2720 C   0  0  0  0  0  0  0  0  0  0  0  0
   61.6570   31.7880   50.6070 C   0  0  0  0  0  0  0  0  0  0  0  0
   60.2510   31.3960   51.0680 C   0  0  2  0  0  0  0  0  0  0  0  0
   59.8480   29.9680   50.6390 C   0  0  0  0  0  0  0  0  0  0  0  0
   59.4870   29.9390   49.2230 N   0  0  0  0  0  0  0  0  0  0  0  0
   59.7670   28.8090   48.3780 C   0  0  0  0  0  0  0  0  0  0  0  0
   60.2710   27.7670   48.8790 O   0  0  0  0  0  0  0  0  0  0  0  0
   59.4640   28.8420   46.9270 C   0  0  0  0  0  0  0  0  0  0  0  0
   60.4430   28.4500   45.9960 C   0  0  0  0  0  0  0  0  0  0  0  0
   60.1810   28.5060   44.6250 C   0  0  0  0  0  0  0  0  0  0  0  0
   58.9450   28.9650   44.1650 C   0  0  0  0  0  0  0  0  0  0  0  0
   57.9600   29.3630   45.0780 C   0  0  0  0  0  0  0  0  0  0  0  0
   56.4340   30.0360   44.5100 S   0  0  0  0  0  0  0  0  0  0  0  0
   56.3110   29.8310   43.0270 O   0  0  0  0  0  0  0  0  0  0  0  0
   55.2860   29.3430   45.1880 O   0  0  0  0  0  0  0  0  0  0  0  0
   56.3770   31.7310   44.8540 N   0  0  0  0  0  0  0  0  0  0  0  0
   57.5170   32.4050   45.3850 C   0  0  0  0  0  0  0  0  0  0  0  0
   57.7690   32.3540   46.7610 C   0  0  0  0  0  0  0  0  0  0  0  0
   58.9030   32.9730   47.2900 C   0  0  0  0  0  0  0  0  0  0  0  0
   59.7920   33.6430   46.4470 C   0  0  0  0  0  0  0  0  0  0  0  0
   59.5450   33.7030   45.0730 C   0  0  0  0  0  0  0  0  0  0  0  0
   58.4010   33.0850   44.5290 C   0  0  0  0  0  0  0  0  0  0  0  0
   58.1170   33.1190   43.1550 O   0  0  0  0  0  0  0  0  0  0  0  0
   58.0790   31.9720   42.3120 C   0  0  0  0  0  0  0  0  0  0  0  0
   58.2210   29.3000   46.4530 C   0  0  0  0  0  0  0  0  0  0  0  0
   59.1920   32.3740   50.6890 N   0  0  0  0  0  0  0  0  0  0  0  0
   57.8480   31.9880   51.1430 C   0  0  0  0  0  0  0  0  0  0  0  0
   57.4900   32.8420   52.3520 C   0  0  0  0  0  0  0  0  0  0  0  0
   58.5230   33.9520   52.3970 C   0  0  0  0  0  0  0  0  0  0  0  0
   59.3970   33.7480   51.1690 C   0  0  0  0  0  0  0  0  0  0  0  0
   62.7080   31.8070   51.5430 C   0  0  0  0  0  0  0  0  0  0  0  0
   63.9980   32.1870   51.1650 C   0  0  0  0  0  0  0  0  0  0  0  0
   66.5150   32.7753   51.2276 H   0  0  0  0  0  0  0  0  0  0  0  0
   67.1640   31.7514   49.9021 H   0  0  0  0  0  0  0  0  0  0  0  0
   67.4706   33.5213   49.9021 H   0  0  0  0  0  0  0  0  0  0  0  0
   63.4379   32.8005   47.8525 H   0  0  0  0  0  0  0  0  0  0  0  0
   61.1415   32.1211   48.5190 H   0  0  0  0  0  0  0  0  0  0  0  0
   60.3207   31.4122   52.1657 H   0  0  0  0  0  0  0  0  0  0  0  0
   60.6944   29.2866   50.8103 H   0  0  0  0  0  0  0  0  0  0  0  0
   58.9782   29.6513   51.2333 H   0  0  0  0  0  0  0  0  0  0  0  0
   58.9500   30.7510   48.8470 H   0  0  0  0  0  0  0  0  0  0  0  0
   61.4226   28.0966   46.3504 H   0  0  0  0  0  0  0  0  0  0  0  0
   60.9502   28.1877   43.9060 H   0  0  0  0  0  0  0  0  0  0  0  0
   58.7446   29.0141   43.0845 H   0  0  0  0  0  0  0  0  0  0  0  0
   57.0717   31.8248   47.4272 H   0  0  0  0  0  0  0  0  0  0  0  0
   59.0964   32.9329   48.3721 H   0  0  0  0  0  0  0  0  0  0  0  0
   60.6883   34.1244   46.8653 H   0  0  0  0  0  0  0  0  0  0  0  0
   60.2463   34.2348   44.4132 H   0  0  0  0  0  0  0  0  0  0  0  0
   58.0489   31.0630   42.9308 H   0  0  0  0  0  0  0  0  0  0  0  0
   57.1817   32.0132   41.6770 H   0  0  0  0  0  0  0  0  0  0  0  0
   58.9770   31.9537   41.6770 H   0  0  0  0  0  0  0  0  0  0  0  0
   57.4464   29.6117   47.1691 H   0  0  0  0  0  0  0  0  0  0  0  0
   57.1193   32.1596   50.3371 H   0  0  0  0  0  0  0  0  0  0  0  0
   57.8299   30.9217   51.4125 H   0  0  0  0  0  0  0  0  0  0  0  0
   56.4803   33.2633   52.2375 H   0  0  0  0  0  0  0  0  0  0  0  0
   57.4920   32.2504   53.2794 H   0  0  0  0  0  0  0  0  0  0  0  0
   58.0316   34.9354   52.3594 H   0  0  0  0  0  0  0  0  0  0  0  0
   59.1123   33.9220   53.3253 H   0  0  0  0  0  0  0  0  0  0  0  0
   59.1114   34.4641   50.3844 H   0  0  0  0  0  0  0  0  0  0  0  0
   60.4551   33.9107   51.4217 H   0  0  0  0  0  0  0  0  0  0  0  0
   62.5109   31.5188   52.5861 H   0  0  0  0  0  0  0  0  0  0  0  0
   64.8054   32.2014   51.9119 H   0  0  0  0  0  0  0  0  0  0  0  0
  1  2  1  0
  2  3  1  0
  3  4  2  0
  4  5  1  0
  5  6  2  0
  6  7  1  0
  7  8  1  0
  8  9  1  0
  9 10  1  0
 10 11  2  0
 10 12  1  0
 12 13  2  0
 13 14  1  0
 14 15  2  0
 15 16  1  0
 16 17  1  0
 17 18  2  0
 17 19  2  0
 17 20  1  0
 20 21  1  0
 21 22  2  0
 22 23  1  0
 23 24  2  0
 24 25  1  0
 25 26  2  0
 26 27  1  0
 27 28  1  0
 16 29  2  0
  7 30  1  0
 30 31  1  0
 31 32  1  0
 32 33  1  0
 33 34  1  0
  6 35  1  0
 35 36  2  0
 36  3  1  0
 29 12  1  0
 34 30  1  0
 26 21  1  0
  1 37  1  0
  1 38  1  0
  1 39  1  0
  4 40  1  0
  5 41  1  0
  7 42  1  1
  8 43  1  0
  8 44  1  0
  9 45  1  0
 13 46  1  0
 14 47  1  0
 15 48  1  0
 22 49  1  0
 23 50  1  0
 24 51  1  0
 25 52  1  0
 28 53  1  0
 28 54  1  0
 28 55  1  0
 29 56  1  0
 31 57  1  0
 31 58  1  0
 32 59  1  0
 32 60  1  0
 33 61  1  0
 33 62  1  0
 34 63  1  0
 34 64  1  0
 35 65  1  0
 36 66  1  0
M  CHG  1  20  -1
M  END
>  <UniqueID>  (83) 
77

>  <SMILES>  (83) 
COc1ccc([C@H](CNC(=O)c2cccc(S(=O)(=O)[N-]c3ccccc3OC)c2)N2CCCC2)cc1

>  <Energy>  (83) 
83.56446849290509

>  <Genealogy>  (83) 
COc1ccc(C(CNC(=O)c2cccc(S(=O)(=O)[N-]c3ccccc3OC)c2)N2CCCC2)cc1 (protonated)
COc1ccc([C@H](CNC(=O)c2cccc(S(=O)(=O)[N-]c3ccccc3OC)c2)N2CCCC2)cc1 (chirality)
COc1ccc([C@H](CNC(=O)c2cccc(S(=O)(=O)[N-]c3ccccc3OC)c2)N2CCCC2)cc1 (3D coordinates assigned)
COc1ccc([C@H](CNC(=O)c2cccc(S(=O)(=O)[N-]c3ccccc3OC)c2)N2CCCC2)cc1 (nonaromatic ring conformer: 83.56446849290509 kcal/mol)

>  <smiles>  (83) 
COc1ccc(C(CNC(=O)c2cccc(S(=O)(=O)Nc3ccccc3OC)c2)N2CCCC2)cc1

>  <score_type>  (83) 
oracle

>  <origin>  (83) 
adg

>  <m_score__min__energy>  (83) 
-12.94

>  <m_primary>  (83) 
energy

$$$$
83:0
     RDKit          3D

 66 69  0  0  0  0  0  0  0  0999 V2000
   55.1610   29.3300   44.8310 N   0  0  0  0  0  0  0  0  0  0  0  0
   56.8840   29.3150   44.9700 S   0  0  0  0  0  0  0  0  0  0  0  0
   57.5030   29.2630   43.6020 O   0  0  0  0  0  0  0  0  0  0  0  0
   57.3340   30.5730   45.6590 O   0  0  0  0  0  0  0  0  0  0  0  0
   57.3860   27.9030   45.8950 C   0  0  0  0  0  0  0  0  0  0  0  0
   56.5320   26.7990   45.9950 C   0  0  0  0  0  0  0  0  0  0  0  0
   56.9140   25.6810   46.7430 C   0  0  0  0  0  0  0  0  0  0  0  0
   58.1500   25.6640   47.3970 C   0  0  0  0  0  0  0  0  0  0  0  0
   59.0210   26.7560   47.2930 C   0  0  0  0  0  0  0  0  0  0  0  0
   60.2720   26.7120   47.9960 N   0  0  0  0  0  0  0  0  0  0  0  0
   60.4580   26.9940   49.3880 C   0  0  0  0  0  0  0  0  0  0  0  0
   61.0840   26.1660   50.0990 O   0  0  0  0  0  0  0  0  0  0  0  0
   60.0370   28.2490   49.9360 N   0  0  0  0  0  0  0  0  0  0  0  0
   59.8070   29.4630   49.2080 C   0  0  0  0  0  0  0  0  0  0  0  0
   60.5250   29.7780   48.0400 C   0  0  0  0  0  0  0  0  0  0  0  0
   60.2960   30.9880   47.3790 C   0  0  0  0  0  0  0  0  0  0  0  0
   59.3570   31.9030   47.8680 C   0  0  0  0  0  0  0  0  0  0  0  0
   59.1640   33.0970   47.1540 O   0  0  0  0  0  0  0  0  0  0  0  0
   60.0720   34.1990   47.1150 C   0  0  0  0  0  0  0  0  0  0  0  0
   61.3310   33.8270   46.3220 C   0  0  0  0  0  0  0  0  0  0  0  0
   62.5530   34.1770   47.0840 N   0  0  0  0  0  0  0  0  0  0  0  0
   63.6070   33.1620   46.8950 C   0  0  0  0  0  0  0  0  0  0  0  0
   63.4980   32.1360   48.0180 C   0  0  0  0  0  0  0  0  0  0  0  0
   62.6200   32.8030   49.0710 C   0  0  1  0  0  0  0  0  0  0  0  0
   63.1750   32.8020   50.4360 N   0  0  0  0  0  0  0  0  0  0  0  0
   63.0220   31.3140   51.3410 S   0  0  0  0  0  0  0  0  0  0  0  0
   64.3970   30.8170   51.6850 O   0  0  0  0  0  0  0  0  0  0  0  0
   62.2980   30.2450   50.5720 O   0  0  0  0  0  0  0  0  0  0  0  0
   62.1350   31.6630   52.8520 C   0  0  0  0  0  0  0  0  0  0  0  0
   60.7530   32.1660   52.5470 C   0  0  0  0  0  0  0  0  0  0  0  0
   60.5720   33.3840   51.8700 C   0  0  0  0  0  0  0  0  0  0  0  0
   59.2840   33.8610   51.6090 C   0  0  0  0  0  0  0  0  0  0  0  0
   58.1690   33.1320   52.0320 C   0  0  0  0  0  0  0  0  0  0  0  0
   58.3410   31.9250   52.7180 C   0  0  0  0  0  0  0  0  0  0  0  0
   59.6270   31.4450   52.9810 C   0  0  0  0  0  0  0  0  0  0  0  0
   62.2960   34.1960   48.5360 C   0  0  0  0  0  0  0  0  0  0  0  0
   58.6570   31.5980   49.0520 C   0  0  0  0  0  0  0  0  0  0  0  0
   58.8910   30.3900   49.7170 C   0  0  0  0  0  0  0  0  0  0  0  0
   58.6220   27.8870   46.5570 C   0  0  0  0  0  0  0  0  0  0  0  0
   54.7820   29.3540   45.8070 H   0  0  0  0  0  0  0  0  0  0  0  0
   55.5580   26.8107   45.4840 H   0  0  0  0  0  0  0  0  0  0  0  0
   56.2414   24.8138   46.8171 H   0  0  0  0  0  0  0  0  0  0  0  0
   58.4398   24.7883   47.9963 H   0  0  0  0  0  0  0  0  0  0  0  0
   61.2688   29.0700   47.6458 H   0  0  0  0  0  0  0  0  0  0  0  0
   60.8600   31.2236   46.4645 H   0  0  0  0  0  0  0  0  0  0  0  0
   59.5803   35.0568   46.6329 H   0  0  0  0  0  0  0  0  0  0  0  0
   60.3622   34.4586   48.1438 H   0  0  0  0  0  0  0  0  0  0  0  0
   61.3265   32.7449   46.1241 H   0  0  0  0  0  0  0  0  0  0  0  0
   61.3315   34.3882   45.3759 H   0  0  0  0  0  0  0  0  0  0  0  0
   63.4727   32.6642   45.9233 H   0  0  0  0  0  0  0  0  0  0  0  0
   64.5978   33.6393   46.9156 H   0  0  0  0  0  0  0  0  0  0  0  0
   63.0296   31.2101   47.6529 H   0  0  0  0  0  0  0  0  0  0  0  0
   64.4826   31.8518   48.4178 H   0  0  0  0  0  0  0  0  0  0  0  0
   61.7014   32.2148   49.2133 H   0  0  0  0  0  0  0  0  0  0  0  0
   62.0614   30.7423   53.4494 H   0  0  0  0  0  0  0  0  0  0  0  0
   62.6793   32.4369   53.4132 H   0  0  0  0  0  0  0  0  0  0  0  0
   61.4475   33.9647   51.5440 H   0  0  0  0  0  0  0  0  0  0  0  0
   59.1480   34.8105   51.0705 H   0  0  0  0  0  0  0  0  0  0  0  0
   57.1559   33.5075   51.8254 H   0  0  0  0  0  0  0  0  0  0  0  0
   57.4626   31.3527   53.0510 H   0  0  0  0  0  0  0  0  0  0  0  0
   59.7584   30.5004   53.5291 H   0  0  0  0  0  0  0  0  0  0  0  0
   61.2402   34.4374   48.7286 H   0  0  0  0  0  0  0  0  0  0  0  0
   62.9151   34.9581   49.0318 H   0  0  0  0  0  0  0  0  0  0  0  0
   57.9239   32.3124   49.4548 H   0  0  0  0  0  0  0  0  0  0  0  0
   58.3501   30.1668   50.6484 H   0  0  0  0  0  0  0  0  0  0  0  0
   59.2837   28.7639   46.5006 H   0  0  0  0  0  0  0  0  0  0  0  0
  1  2  1  0
  2  3  2  0
  2  4  2  0
  2  5  1  0
  5  6  2  0
  6  7  1  0
  7  8  2  0
  8  9  1  0
  9 10  1  0
 10 11  1  0
 11 12  2  0
 11 13  1  0
 13 14  1  0
 14 15  2  0
 15 16  1  0
 16 17  2  0
 17 18  1  0
 18 19  1  0
 19 20  1  0
 20 21  1  0
 21 22  1  0
 22 23  1  0
 23 24  1  0
 24 25  1  0
 25 26  1  0
 26 27  2  0
 26 28  2  0
 26 29  1  0
 29 30  1  0
 30 31  2  0
 31 32  1  0
 32 33  2  0
 33 34  1  0
 34 35  2  0
 24 36  1  0
 17 37  1  0
 37 38  2  0
  9 39  2  0
 39  5  1  0
 38 14  1  0
 36 21  1  0
 35 30  1  0
  1 40  1  0
  6 41  1  0
  7 42  1  0
  8 43  1  0
 15 44  1  0
 16 45  1  0
 19 46  1  0
 19 47  1  0
 20 48  1  0
 20 49  1  0
 22 50  1  0
 22 51  1  0
 23 52  1  0
 23 53  1  0
 24 54  1  1
 29 55  1  0
 29 56  1  0
 31 57  1  0
 32 58  1  0
 33 59  1  0
 34 60  1  0
 35 61  1  0
 36 62  1  0
 36 63  1  0
 37 64  1  0
 38 65  1  0
 39 66  1  0
M  CHG  4   1  -1  10  -1  13  -1  25  -1
M  END
>  <UniqueID>  (84) 
78

>  <SMILES>  (84) 
[NH-]S(=O)(=O)c1cccc([N-]C(=O)[N-]c2ccc(OCCN3CC[C@@H]([N-]S(=O)(=O)Cc4ccccc4)C3)cc2)c1

>  <Energy>  (84) 
80.9360604053851

>  <Genealogy>  (84) 
[NH-]S(=O)(=O)c1cccc([N-]C(=O)[N-]c2ccc(OCCN3CCC([N-]S(=O)(=O)Cc4ccccc4)C3)cc2)c1 (protonated)
[NH-]S(=O)(=O)c1cccc([N-]C(=O)[N-]c2ccc(OCCN3CC[C@@H]([N-]S(=O)(=O)Cc4ccccc4)C3)cc2)c1 (chirality)
[NH-]S(=O)(=O)c1cccc([N-]C(=O)[N-]c2ccc(OCCN3CC[C@@H]([N-]S(=O)(=O)Cc4ccccc4)C3)cc2)c1 (3D coordinates assigned)
[NH-]S(=O)(=O)c1cccc([N-]C(=O)[N-]c2ccc(OCCN3CC[C@@H]([N-]S(=O)(=O)Cc4ccccc4)C3)cc2)c1 (nonaromatic ring conformer: 80.9360604053851 kcal/mol)

>  <smiles>  (84) 
NS(=O)(=O)c1cccc(NC(=O)Nc2ccc(OCCN3CCC(NS(=O)(=O)Cc4ccccc4)C3)cc2)c1

>  <score_type>  (84) 
oracle

>  <origin>  (84) 
adg

>  <m_score__min__energy>  (84) 
-17.059999999999999

>  <m_primary>  (84) 
energy

$$$$
84:0
     RDKit          3D

 34 35  0  0  0  0  0  0  0  0999 V2000
   54.7300   26.3430   45.9930 O   0  0  0  0  0  0  0  0  0  0  0  0
   55.9020   26.0740   46.3690 C   0  0  0  0  0  0  0  0  0  0  0  0
   56.1260   24.9720   47.1850 O   0  0  0  0  0  0  0  0  0  0  0  0
   57.0280   26.9150   45.9480 C   0  0  0  0  0  0  0  0  0  0  0  0
   58.3490   26.7670   46.3350 C   0  0  0  0  0  0  0  0  0  0  0  0
   59.0110   27.7890   45.6900 C   0  0  0  0  0  0  0  0  0  0  0  0
   58.1170   28.4830   44.9610 N   0  0  0  0  0  0  0  0  0  0  0  0
   58.3960   29.6790   44.1720 C   0  0  0  0  0  0  0  0  0  0  0  0
   57.1070   30.4450   43.8790 C   0  0  0  0  0  0  0  0  0  0  0  0
   56.6610   31.1430   45.0850 N   0  0  0  0  0  0  0  0  0  0  0  0
   57.5770   32.6020   45.3270 S   0  0  0  0  0  0  0  0  0  0  0  0
   56.8780   33.5200   46.2920 O   0  0  0  0  0  0  0  0  0  0  0  0
   57.7200   33.3050   44.0080 O   0  0  0  0  0  0  0  0  0  0  0  0
   59.2100   32.2060   45.9400 C   0  0  0  0  0  0  0  0  0  0  0  0
   59.4060   32.7290   47.3450 C   0  0  0  0  0  0  0  0  0  0  0  0
   59.3360   31.8530   48.4570 C   0  0  0  0  0  0  0  0  0  0  0  0
   59.0750   30.1200   48.2740 Cl  0  0  0  0  0  0  0  0  0  0  0  0
   59.4640   32.3550   49.7560 C   0  0  0  0  0  0  0  0  0  0  0  0
   59.6570   33.7190   49.9700 C   0  0  0  0  0  0  0  0  0  0  0  0
   59.7230   34.5930   48.8870 C   0  0  0  0  0  0  0  0  0  0  0  0
   59.5960   34.1130   47.5790 C   0  0  0  0  0  0  0  0  0  0  0  0
   59.6760   35.2840   46.2660 Cl  0  0  0  0  0  0  0  0  0  0  0  0
   56.9070   27.9670   45.1160 N   0  0  0  0  0  0  0  0  0  0  0  0
   58.7740   26.0057   47.0057 H   0  0  0  0  0  0  0  0  0  0  0  0
   60.0880   28.0018   45.7591 H   0  0  0  0  0  0  0  0  0  0  0  0
   59.0832   30.3295   44.7329 H   0  0  0  0  0  0  0  0  0  0  0  0
   58.8517   29.3752   43.2180 H   0  0  0  0  0  0  0  0  0  0  0  0
   57.2913   31.1780   43.0798 H   0  0  0  0  0  0  0  0  0  0  0  0
   56.3280   29.7370   43.5598 H   0  0  0  0  0  0  0  0  0  0  0  0
   59.3376   31.1134   45.9424 H   0  0  0  0  0  0  0  0  0  0  0  0
   59.9541   32.6809   45.2836 H   0  0  0  0  0  0  0  0  0  0  0  0
   59.4121   31.6692   50.6144 H   0  0  0  0  0  0  0  0  0  0  0  0
   59.7573   34.1056   50.9949 H   0  0  0  0  0  0  0  0  0  0  0  0
   59.8761   35.6682   49.0616 H   0  0  0  0  0  0  0  0  0  0  0  0
  1  2  2  0
  2  3  1  0
  2  4  1  0
  4  5  1  0
  5  6  2  0
  6  7  1  0
  7  8  1  0
  8  9  1  0
  9 10  1  0
 10 11  1  0
 11 12  2  0
 11 13  2  0
 11 14  1  0
 14 15  1  0
 15 16  2  0
 16 17  1  0
 16 18  1  0
 18 19  2  0
 19 20  1  0
 20 21  2  0
 21 22  1  0
  7 23  1  0
 23  4  2  0
 21 15  1  0
  5 24  1  0
  6 25  1  0
  8 26  1  0
  8 27  1  0
  9 28  1  0
  9 29  1  0
 14 30  1  0
 14 31  1  0
 18 32  1  0
 19 33  1  0
 20 34  1  0
M  CHG  2   3  -1  10  -1
M  END
>  <UniqueID>  (85) 
79

>  <SMILES>  (85) 
O=C([O-])c1ccn(CC[N-]S(=O)(=O)Cc2c(Cl)cccc2Cl)n1

>  <Energy>  (85) 
55.20304849051866

>  <Genealogy>  (85) 
O=C([O-])c1ccn(CC[N-]S(=O)(=O)Cc2c(Cl)cccc2Cl)n1 (protonated)
O=C([O-])c1ccn(CC[N-]S(=O)(=O)Cc2c(Cl)cccc2Cl)n1 (3D coordinates assigned)
O=C([O-])c1ccn(CC[N-]S(=O)(=O)Cc2c(Cl)cccc2Cl)n1 (optimized conformer: 55.20304849051866 kcal/mol)

>  <smiles>  (85) 
O=C(O)c1ccn(CCNS(=O)(=O)Cc2c(Cl)cccc2Cl)n1

>  <score_type>  (85) 
oracle

>  <origin>  (85) 
adg

>  <m_score__min__energy>  (85) 
-12.01

>  <m_primary>  (85) 
energy

$$$$
85:0
     RDKit          3D

 45 48  0  0  0  0  0  0  0  0999 V2000
   55.1440   29.3600   44.8380 N   0  0  0  0  0  0  0  0  0  0  0  0
   56.7950   29.6180   44.3990 S   0  0  0  0  0  0  0  0  0  0  0  0
   57.3380   28.3860   43.7330 O   0  0  0  0  0  0  0  0  0  0  0  0
   56.8850   30.7690   43.4350 O   0  0  0  0  0  0  0  0  0  0  0  0
   57.7340   29.9780   45.8440 C   0  0  0  0  0  0  0  0  0  0  0  0
   58.0410   31.3050   46.1750 C   0  0  0  0  0  0  0  0  0  0  0  0
   58.7750   31.5900   47.3290 C   0  0  0  0  0  0  0  0  0  0  0  0
   59.2250   30.5540   48.1560 C   0  0  0  0  0  0  0  0  0  0  0  0
   59.9570   30.8820   49.3450 N   0  0  0  0  0  0  0  0  0  0  0  0
   59.4890   31.6770   50.4420 C   0  0  0  0  0  0  0  0  0  0  0  0
   58.5210   31.2480   51.1250 O   0  0  0  0  0  0  0  0  0  0  0  0
   60.0850   33.0300   50.7500 C   0  0  0  0  0  0  0  0  0  0  0  0
   61.0820   33.4310   49.7380 N   0  0  0  0  0  0  0  0  0  0  0  0
   62.5010   33.2910   50.0440 C   0  0  0  0  0  0  0  0  0  0  0  0
   62.9740   33.4340   51.3680 C   0  0  0  0  0  0  0  0  0  0  0  0
   64.3290   33.2790   51.6660 C   0  0  0  0  0  0  0  0  0  0  0  0
   65.2390   32.9750   50.6560 C   0  0  0  0  0  0  0  0  0  0  0  0
   64.7950   32.8250   49.3420 C   0  0  0  0  0  0  0  0  0  0  0  0
   63.4370   32.9850   49.0340 C   0  0  0  0  0  0  0  0  0  0  0  0
   62.9040   32.7770   47.3870 S   0  0  0  0  0  0  0  0  0  0  0  0
   63.9020   33.3940   46.4480 O   0  0  0  0  0  0  0  0  0  0  0  0
   62.7260   31.3170   47.0750 O   0  0  0  0  0  0  0  0  0  0  0  0
   61.3800   33.6140   47.2650 C   0  0  0  0  0  0  0  0  0  0  0  0
   60.9150   34.0110   46.0040 C   0  0  0  0  0  0  0  0  0  0  0  0
   59.6940   34.6750   45.8840 C   0  0  0  0  0  0  0  0  0  0  0  0
   58.9340   34.9410   47.0190 C   0  0  0  0  0  0  0  0  0  0  0  0
   59.3890   34.5440   48.2790 C   0  0  0  0  0  0  0  0  0  0  0  0
   60.6220   33.8710   48.4270 C   0  0  0  0  0  0  0  0  0  0  0  0
   58.8850   29.2270   47.8450 C   0  0  0  0  0  0  0  0  0  0  0  0
   58.1490   28.9420   46.6910 C   0  0  0  0  0  0  0  0  0  0  0  0
   55.1430   28.6720   45.6250 H   0  0  0  0  0  0  0  0  0  0  0  0
   57.7029   32.1247   45.5240 H   0  0  0  0  0  0  0  0  0  0  0  0
   59.0007   32.6346   47.5893 H   0  0  0  0  0  0  0  0  0  0  0  0
   59.2787   33.7780   50.7719 H   0  0  0  0  0  0  0  0  0  0  0  0
   60.5917   32.9676   51.7244 H   0  0  0  0  0  0  0  0  0  0  0  0
   62.2648   33.6707   52.1748 H   0  0  0  0  0  0  0  0  0  0  0  0
   64.6794   33.3973   52.7020 H   0  0  0  0  0  0  0  0  0  0  0  0
   66.3060   32.8534   50.8942 H   0  0  0  0  0  0  0  0  0  0  0  0
   65.5128   32.5804   48.5452 H   0  0  0  0  0  0  0  0  0  0  0  0
   61.5144   33.7985   45.1065 H   0  0  0  0  0  0  0  0  0  0  0  0
   59.3324   34.9879   44.8934 H   0  0  0  0  0  0  0  0  0  0  0  0
   57.9718   35.4656   46.9239 H   0  0  0  0  0  0  0  0  0  0  0  0
   58.7783   34.7586   49.1684 H   0  0  0  0  0  0  0  0  0  0  0  0
   59.1987   28.4099   48.5112 H   0  0  0  0  0  0  0  0  0  0  0  0
   57.8947   27.9000   46.4470 H   0  0  0  0  0  0  0  0  0  0  0  0
  1  2  1  0
  2  3  2  0
  2  4  2  0
  2  5  1  0
  5  6  2  0
  6  7  1  0
  7  8  2  0
  8  9  1  0
  9 10  1  0
 10 11  2  0
 10 12  1  0
 12 13  1  0
 13 14  1  0
 14 15  2  0
 15 16  1  0
 16 17  2  0
 17 18  1  0
 18 19  2  0
 19 20  1  0
 20 21  2  0
 20 22  2  0
 20 23  1  0
 23 24  2  0
 24 25  1  0
 25 26  2  0
 26 27  1  0
 27 28  2  0
  8 29  1  0
 29 30  2  0
 30  5  1  0
 28 13  1  0
 19 14  1  0
 28 23  1  0
  1 31  1  0
  6 32  1  0
  7 33  1  0
 12 34  1  0
 12 35  1  0
 15 36  1  0
 16 37  1  0
 17 38  1  0
 18 39  1  0
 24 40  1  0
 25 41  1  0
 26 42  1  0
 27 43  1  0
 29 44  1  0
 30 45  1  0
M  CHG  2   1  -1   9  -1
M  END
>  <UniqueID>  (86) 
80

>  <SMILES>  (86) 
[NH-]S(=O)(=O)c1ccc([N-]C(=O)CN2c3ccccc3S(=O)(=O)c3ccccc32)cc1

>  <Energy>  (86) 
67.53998427281252

>  <Genealogy>  (86) 
[NH-]S(=O)(=O)c1ccc([N-]C(=O)CN2c3ccccc3S(=O)(=O)c3ccccc32)cc1 (protonated)
[NH-]S(=O)(=O)c1ccc([N-]C(=O)CN2c3ccccc3S(=O)(=O)c3ccccc32)cc1 (3D coordinates assigned)
[NH-]S(=O)(=O)c1ccc([N-]C(=O)CN2c3ccccc3S(=O)(=O)c3ccccc32)cc1 (nonaromatic ring conformer: 67.53998427281252 kcal/mol)

>  <smiles>  (86) 
NS(=O)(=O)c1ccc(NC(=O)CN2c3ccccc3S(=O)(=O)c3ccccc32)cc1

>  <score_type>  (86) 
oracle

>  <origin>  (86) 
adg

>  <m_score__min__energy>  (86) 
-12.74

>  <m_primary>  (86) 
energy

$$$$
86:0
     RDKit          3D

 35 37  0  0  0  0  0  0  0  0999 V2000
   55.1260   26.7140   46.0010 O   0  0  0  0  0  0  0  0  0  0  0  0
   56.1130   25.9670   46.2340 C   0  0  0  0  0  0  0  0  0  0  0  0
   55.9860   24.9280   47.1460 O   0  0  0  0  0  0  0  0  0  0  0  0
   57.3980   26.1590   45.4910 C   0  0  0  0  0  0  0  0  0  0  0  0
   58.3040   27.0230   46.2450 N   0  0  0  0  0  0  0  0  0  0  0  0
   59.0740   26.5820   47.2280 N   0  0  0  0  0  0  0  0  0  0  0  0
   59.7760   27.5760   47.7540 N   0  0  0  0  0  0  0  0  0  0  0  0
   59.4440   28.6940   47.0790 C   0  0  0  0  0  0  0  0  0  0  0  0
   60.0200   30.0460   47.3740 C   0  0  0  0  0  0  0  0  0  0  0  0
   58.9550   31.0350   47.5480 N   0  0  0  0  0  0  0  0  0  0  0  0
   58.9080   32.2770   46.8210 C   0  0  0  0  0  0  0  0  0  0  0  0
   57.7140   32.7570   46.2480 C   0  0  0  0  0  0  0  0  0  0  0  0
   57.7020   33.9690   45.5500 C   0  0  0  0  0  0  0  0  0  0  0  0
   58.8770   34.7130   45.4160 C   0  0  0  0  0  0  0  0  0  0  0  0
   60.0660   34.2450   45.9790 C   0  0  0  0  0  0  0  0  0  0  0  0
   60.0830   33.0340   46.6780 C   0  0  0  0  0  0  0  0  0  0  0  0
   58.5040   28.3540   46.1180 C   0  0  0  0  0  0  0  0  0  0  0  0
   57.8460   29.2510   45.1460 C   0  0  0  0  0  0  0  0  0  0  0  0
   58.4840   30.1380   44.2850 C   0  0  0  0  0  0  0  0  0  0  0  0
   57.6040   30.8360   43.4520 C   0  0  0  0  0  0  0  0  0  0  0  0
   56.2700   30.5040   43.6440 C   0  0  0  0  0  0  0  0  0  0  0  0
   56.1910   29.3400   44.8530 S   0  0  0  0  0  0  0  0  0  0  0  0
   57.8762   25.1804   45.3370 H   0  0  0  0  0  0  0  0  0  0  0  0
   57.1802   26.6328   44.5224 H   0  0  0  0  0  0  0  0  0  0  0  0
   60.6161   29.9911   48.2968 H   0  0  0  0  0  0  0  0  0  0  0  0
   60.6532   30.3530   46.5285 H   0  0  0  0  0  0  0  0  0  0  0  0
   58.1750   30.8240   48.2130 H   0  0  0  0  0  0  0  0  0  0  0  0
   56.7859   32.1754   46.3501 H   0  0  0  0  0  0  0  0  0  0  0  0
   56.7655   34.3372   45.1056 H   0  0  0  0  0  0  0  0  0  0  0  0
   58.8654   35.6665   44.8675 H   0  0  0  0  0  0  0  0  0  0  0  0
   60.9913   34.8302   45.8724 H   0  0  0  0  0  0  0  0  0  0  0  0
   61.0232   32.6714   47.1191 H   0  0  0  0  0  0  0  0  0  0  0  0
   59.5750   30.2769   44.2617 H   0  0  0  0  0  0  0  0  0  0  0  0
   57.9380   31.5793   42.7131 H   0  0  0  0  0  0  0  0  0  0  0  0
   55.4138   30.9289   43.0995 H   0  0  0  0  0  0  0  0  0  0  0  0
  1  2  2  0
  2  3  1  0
  2  4  1  0
  4  5  1  0
  5  6  1  0
  6  7  2  0
  7  8  1  0
  8  9  1  0
  9 10  1  0
 10 11  1  0
 11 12  2  0
 12 13  1  0
 13 14  2  0
 14 15  1  0
 15 16  2  0
  8 17  2  0
 17 18  1  0
 18 19  2  0
 19 20  1  0
 20 21  2  0
 21 22  1  0
 17  5  1  0
 22 18  1  0
 16 11  1  0
  4 23  1  0
  4 24  1  0
  9 25  1  0
  9 26  1  0
 10 27  1  0
 12 28  1  0
 13 29  1  0
 14 30  1  0
 15 31  1  0
 16 32  1  0
 19 33  1  0
 20 34  1  0
 21 35  1  0
M  CHG  1   3  -1
M  END
>  <UniqueID>  (87) 
81

>  <SMILES>  (87) 
O=C([O-])Cn1nnc(CNc2ccccc2)c1-c1cccs1

>  <Energy>  (87) 
100.1516669074744

>  <Genealogy>  (87) 
O=C([O-])Cn1nnc(CNc2ccccc2)c1-c1cccs1 (protonated)
O=C([O-])Cn1nnc(CNc2ccccc2)c1-c1cccs1 (3D coordinates assigned)
O=C([O-])Cn1nnc(CNc2ccccc2)c1-c1cccs1 (optimized conformer: 100.1516669074744 kcal/mol)

>  <smiles>  (87) 
O=C(O)Cn1nnc(CNc2ccccc2)c1-c1cccs1

>  <score_type>  (87) 
oracle

>  <origin>  (87) 
adg

>  <m_score__min__energy>  (87) 
-10.33

>  <m_primary>  (87) 
energy

$$$$
87:0
     RDKit          3D

 56 59  0  0  0  0  0  0  0  0999 V2000
   66.6040   31.1440   50.8940 C   0  0  0  0  0  0  0  0  0  0  0  0
   66.4000   32.4910   50.2100 C   0  0  0  0  0  0  0  0  0  0  0  0
   64.9460   32.7130   49.8930 C   0  0  0  0  0  0  0  0  0  0  0  0
   63.9570   32.4850   50.8550 C   0  0  0  0  0  0  0  0  0  0  0  0
   62.6470   32.6600   50.5370 N   0  0  0  0  0  0  0  0  0  0  0  0
   62.2660   33.0470   49.2880 C   0  0  0  0  0  0  0  0  0  0  0  0
   60.8670   33.2220   48.9790 N   0  0  0  0  0  0  0  0  0  0  0  0
   60.2350   34.5490   49.0450 C   0  0  0  0  0  0  0  0  0  0  0  0
   59.2970   34.8060   47.8470 C   0  0  0  0  0  0  0  0  0  0  0  0
   58.7050   33.5170   47.1870 C   0  0  0  0  0  0  0  0  0  0  0  0
   57.2660   33.8270   46.6640 C   0  0  0  0  0  0  0  0  0  0  0  0
   56.9160   32.9790   45.4350 C   0  0  0  0  0  0  0  0  0  0  0  0
   57.7900   33.3080   44.2830 N   0  0  0  0  0  0  0  0  0  0  0  0
   57.7590   32.2210   43.2830 C   0  0  0  0  0  0  0  0  0  0  0  0
   57.5170   30.9030   43.9520 C   0  0  0  0  0  0  0  0  0  0  0  0
   58.4850   29.9910   44.3110 C   0  0  0  0  0  0  0  0  0  0  0  0
   57.8640   28.9570   44.8990 N   0  0  0  0  0  0  0  0  0  0  0  0
   58.4930   27.8000   45.5220 C   0  0  0  0  0  0  0  0  0  0  0  0
   56.5520   29.2670   44.9100 C   0  0  0  0  0  0  0  0  0  0  0  0
   56.2990   30.4590   44.3290 N   0  0  0  0  0  0  0  0  0  0  0  0
   59.1800   33.6800   44.6650 C   0  0  0  0  0  0  0  0  0  0  0  0
   59.6130   33.0530   45.9990 C   0  0  0  0  0  0  0  0  0  0  0  0
   58.6280   32.3950   48.2570 C   0  0  0  0  0  0  0  0  0  0  0  0
   60.0210   32.0310   48.7960 C   0  0  0  0  0  0  0  0  0  0  0  0
   63.2190   33.2580   48.3390 N   0  0  0  0  0  0  0  0  0  0  0  0
   64.5390   33.0960   48.6110 C   0  0  0  0  0  0  0  0  0  0  0  0
   66.5834   31.2801   51.9854 H   0  0  0  0  0  0  0  0  0  0  0  0
   65.7999   30.4555   50.5951 H   0  0  0  0  0  0  0  0  0  0  0  0
   67.5759   30.7244   50.5951 H   0  0  0  0  0  0  0  0  0  0  0  0
   66.7500   33.2917   50.8781 H   0  0  0  0  0  0  0  0  0  0  0  0
   66.9717   32.5001   49.2703 H   0  0  0  0  0  0  0  0  0  0  0  0
   64.2390   32.1642   51.8687 H   0  0  0  0  0  0  0  0  0  0  0  0
   59.6503   34.6175   49.9742 H   0  0  0  0  0  0  0  0  0  0  0  0
   61.0330   35.3057   49.0186 H   0  0  0  0  0  0  0  0  0  0  0  0
   58.4589   35.4272   48.1960 H   0  0  0  0  0  0  0  0  0  0  0  0
   59.9089   35.2953   47.0749 H   0  0  0  0  0  0  0  0  0  0  0  0
   56.5418   33.6123   47.4636 H   0  0  0  0  0  0  0  0  0  0  0  0
   57.2273   34.8870   46.3725 H   0  0  0  0  0  0  0  0  0  0  0  0
   57.0411   31.9155   45.6867 H   0  0  0  0  0  0  0  0  0  0  0  0
   55.8750   33.1936   45.1518 H   0  0  0  0  0  0  0  0  0  0  0  0
   56.9515   32.4150   42.5617 H   0  0  0  0  0  0  0  0  0  0  0  0
   58.7285   32.1853   42.7645 H   0  0  0  0  0  0  0  0  0  0  0  0
   59.5679   30.0918   44.1460 H   0  0  0  0  0  0  0  0  0  0  0  0
   58.4395   27.8984   46.6163 H   0  0  0  0  0  0  0  0  0  0  0  0
   57.9681   26.8850   45.2101 H   0  0  0  0  0  0  0  0  0  0  0  0
   59.5463   27.7430   45.2101 H   0  0  0  0  0  0  0  0  0  0  0  0
   55.7746   28.6209   45.3439 H   0  0  0  0  0  0  0  0  0  0  0  0
   59.8659   33.3382   43.8758 H   0  0  0  0  0  0  0  0  0  0  0  0
   59.2119   34.7731   44.7843 H   0  0  0  0  0  0  0  0  0  0  0  0
   59.5531   31.9580   45.9128 H   0  0  0  0  0  0  0  0  0  0  0  0
   60.6420   33.3797   46.2100 H   0  0  0  0  0  0  0  0  0  0  0  0
   58.0011   32.7405   49.0922 H   0  0  0  0  0  0  0  0  0  0  0  0
   58.1962   31.4995   47.7863 H   0  0  0  0  0  0  0  0  0  0  0  0
   59.9060   31.5241   49.7654 H   0  0  0  0  0  0  0  0  0  0  0  0
   60.5103   31.3748   48.0611 H   0  0  0  0  0  0  0  0  0  0  0  0
   65.2881   33.2659   47.8236 H   0  0  0  0  0  0  0  0  0  0  0  0
  1  2  1  0
  2  3  1  0
  3  4  2  0
  4  5  1  0
  5  6  2  0
  6  7  1  0
  7  8  1  0
  8  9  1  0
  9 10  1  0
 10 11  1  0
 11 12  1  0
 12 13  1  0
 13 14  1  0
 14 15  1  0
 15 16  2  0
 16 17  1  0
 17 18  1  0
 17 19  1  0
 19 20  2  0
 13 21  1  0
 21 22  1  0
 10 23  1  0
 23 24  1  0
  6 25  1  0
 25 26  2  0
 26  3  1  0
 24  7  1  0
 22 10  1  0
 20 15  1  0
  1 27  1  0
  1 28  1  0
  1 29  1  0
  2 30  1  0
  2 31  1  0
  4 32  1  0
  8 33  1  0
  8 34  1  0
  9 35  1  0
  9 36  1  0
 11 37  1  0
 11 38  1  0
 12 39  1  0
 12 40  1  0
 14 41  1  0
 14 42  1  0
 16 43  1  0
 18 44  1  0
 18 45  1  0
 18 46  1  0
 19 47  1  0
 21 48  1  0
 21 49  1  0
 22 50  1  0
 22 51  1  0
 23 52  1  0
 23 53  1  0
 24 54  1  0
 24 55  1  0
 26 56  1  0
M  END
>  <UniqueID>  (88) 
82

>  <SMILES>  (88) 
CCc1cnc(N2CCC3(CCN(Cc4cn(C)cn4)CC3)CC2)nc1

>  <Energy>  (88) 
98.5337861005462

>  <Genealogy>  (88) 
CCc1cnc(N2CCC3(CCN(Cc4cn(C)cn4)CC3)CC2)nc1 (3D coordinates assigned)
CCc1cnc(N2CCC3(CCN(Cc4cn(C)cn4)CC3)CC2)nc1 (nonaromatic ring conformer: 98.5337861005462 kcal/mol)

>  <smiles>  (88) 
CCc1cnc(N2CCC3(CCN(Cc4cn(C)cn4)CC3)CC2)nc1

>  <score_type>  (88) 
oracle

>  <origin>  (88) 
adg

>  <m_score__min__energy>  (88) 
-7.8899999999999997

>  <m_primary>  (88) 
energy

$$$$
88:0
     RDKit          3D

 49 51  0  0  0  0  0  0  0  0999 V2000
   57.3500   33.4250   46.5280 C   0  0  0  0  0  0  0  0  0  0  0  0
   58.2220   33.5270   47.6490 O   0  0  0  0  0  0  0  0  0  0  0  0
   59.6180   33.6560   47.5660 C   0  0  0  0  0  0  0  0  0  0  0  0
   60.3250   33.3170   46.3940 C   0  0  0  0  0  0  0  0  0  0  0  0
   61.7180   33.4090   46.3580 C   0  0  0  0  0  0  0  0  0  0  0  0
   62.4230   33.8340   47.4850 C   0  0  0  0  0  0  0  0  0  0  0  0
   61.7340   34.1810   48.6480 C   0  0  0  0  0  0  0  0  0  0  0  0
   60.3330   34.1180   48.6930 C   0  0  0  0  0  0  0  0  0  0  0  0
   59.6600   34.4930   49.9050 N   0  0  0  0  0  0  0  0  0  0  0  0
   59.0370   33.5470   50.7900 C   0  0  0  0  0  0  0  0  0  0  0  0
   58.4970   34.0710   52.2490 S   0  0  0  0  0  0  0  0  0  0  0  0
   58.6780   32.2390   50.3130 N   0  0  0  0  0  0  0  0  0  0  0  0
   58.4840   31.0970   51.1660 C   0  0  0  0  0  0  0  0  0  0  0  0
   57.6400   31.2020   52.2870 C   0  0  0  0  0  0  0  0  0  0  0  0
   57.5150   30.1410   53.1840 C   0  0  0  0  0  0  0  0  0  0  0  0
   58.2410   28.9680   52.9840 C   0  0  0  0  0  0  0  0  0  0  0  0
   59.0900   28.8490   51.8840 C   0  0  0  0  0  0  0  0  0  0  0  0
   59.2190   29.9020   50.9590 C   0  0  0  0  0  0  0  0  0  0  0  0
   60.1000   29.7220   49.7810 C   0  0  0  0  0  0  0  0  0  0  0  0
   61.0640   28.9110   49.8320 O   0  0  0  0  0  0  0  0  0  0  0  0
   59.8960   30.5230   48.6100 N   0  0  0  0  0  0  0  0  0  0  0  0
   59.6740   30.0300   47.2800 C   0  0  0  0  0  0  0  0  0  0  0  0
   60.7380   29.4300   46.5980 C   0  0  0  0  0  0  0  0  0  0  0  0
   60.5650   28.9530   45.2960 C   0  0  0  0  0  0  0  0  0  0  0  0
   59.3290   29.0900   44.6580 C   0  0  0  0  0  0  0  0  0  0  0  0
   58.2640   29.7180   45.3170 C   0  0  0  0  0  0  0  0  0  0  0  0
   56.7080   29.9080   44.5150 S   0  0  0  0  0  0  0  0  0  0  0  0
   55.5470   28.8360   45.2190 N   0  0  0  0  0  0  0  0  0  0  0  0
   56.8580   29.5940   43.0530 O   0  0  0  0  0  0  0  0  0  0  0  0
   56.2190   31.3210   44.6740 O   0  0  0  0  0  0  0  0  0  0  0  0
   58.4380   30.1890   46.6270 C   0  0  0  0  0  0  0  0  0  0  0  0
   56.3145   33.3039   46.8788 H   0  0  0  0  0  0  0  0  0  0  0  0
   57.4266   34.3382   45.9196 H   0  0  0  0  0  0  0  0  0  0  0  0
   57.6353   32.5541   45.9196 H   0  0  0  0  0  0  0  0  0  0  0  0
   59.7761   32.9781   45.5030 H   0  0  0  0  0  0  0  0  0  0  0  0
   62.2613   33.1457   45.4385 H   0  0  0  0  0  0  0  0  0  0  0  0
   63.5209   33.8954   47.4566 H   0  0  0  0  0  0  0  0  0  0  0  0
   62.2940   34.5067   49.5370 H   0  0  0  0  0  0  0  0  0  0  0  0
   59.5280   35.5120   50.0980 H   0  0  0  0  0  0  0  0  0  0  0  0
   58.5980   32.0990   49.2800 H   0  0  0  0  0  0  0  0  0  0  0  0
   57.0735   32.1294   52.4576 H   0  0  0  0  0  0  0  0  0  0  0  0
   56.8428   30.2301   54.0501 H   0  0  0  0  0  0  0  0  0  0  0  0
   58.1441   28.1345   53.6952 H   0  0  0  0  0  0  0  0  0  0  0  0
   59.6648   27.9226   51.7378 H   0  0  0  0  0  0  0  0  0  0  0  0
   61.7171   29.3331   47.0899 H   0  0  0  0  0  0  0  0  0  0  0  0
   61.4027   28.4690   44.7725 H   0  0  0  0  0  0  0  0  0  0  0  0
   59.1922   28.7042   43.6370 H   0  0  0  0  0  0  0  0  0  0  0  0
   54.6330   29.3430   45.2370 H   0  0  0  0  0  0  0  0  0  0  0  0
   57.6044   30.6848   47.1459 H   0  0  0  0  0  0  0  0  0  0  0  0
  1  2  1  0
  2  3  1  0
  3  4  2  0
  4  5  1  0
  5  6  2  0
  6  7  1  0
  7  8  2  0
  8  9  1  0
  9 10  1  0
 10 11  2  0
 10 12  1  0
 12 13  1  0
 13 14  2  0
 14 15  1  0
 15 16  2  0
 16 17  1  0
 17 18  2  0
 18 19  1  0
 19 20  2  0
 19 21  1  0
 21 22  1  0
 22 23  2  0
 23 24  1  0
 24 25  2  0
 25 26  1  0
 26 27  1  0
 27 28  1  0
 27 29  2  0
 27 30  2  0
 26 31  2  0
  8  3  1  0
 18 13  1  0
 31 22  1  0
  1 32  1  0
  1 33  1  0
  1 34  1  0
  4 35  1  0
  5 36  1  0
  6 37  1  0
  7 38  1  0
  9 39  1  0
 12 40  1  0
 14 41  1  0
 15 42  1  0
 16 43  1  0
 17 44  1  0
 23 45  1  0
 24 46  1  0
 25 47  1  0
 28 48  1  0
 31 49  1  0
M  CHG  2  21  -1  28  -1
M  END
>  <UniqueID>  (89) 
83

>  <SMILES>  (89) 
COc1ccccc1NC(=S)Nc1ccccc1C(=O)[N-]c1cccc(S([NH-])(=O)=O)c1

>  <Energy>  (89) 
66.1954821552644

>  <Genealogy>  (89) 
COc1ccccc1NC(=S)Nc1ccccc1C(=O)[N-]c1cccc(S([NH-])(=O)=O)c1 (protonated)
COc1ccccc1NC(=S)Nc1ccccc1C(=O)[N-]c1cccc(S([NH-])(=O)=O)c1 (3D coordinates assigned)
COc1ccccc1NC(=S)Nc1ccccc1C(=O)[N-]c1cccc(S([NH-])(=O)=O)c1 (optimized conformer: 66.1954821552644 kcal/mol)

>  <smiles>  (89) 
COc1ccccc1NC(=S)Nc1ccccc1C(=O)Nc1cccc(S(N)(=O)=O)c1

>  <score_type>  (89) 
oracle

>  <origin>  (89) 
adg

>  <m_score__min__energy>  (89) 
-13.16

>  <m_primary>  (89) 
energy

$$$$
89:0
     RDKit          3D

 61 64  0  0  0  0  0  0  0  0999 V2000
   58.3920   27.2220   44.2350 C   0  0  0  0  0  0  0  0  0  0  0  0
   58.1600   26.7660   45.5660 O   0  0  0  0  0  0  0  0  0  0  0  0
   58.7660   27.3100   46.7140 C   0  0  0  0  0  0  0  0  0  0  0  0
   59.7150   26.5860   47.4670 C   0  0  0  0  0  0  0  0  0  0  0  0
   60.3500   27.1800   48.5640 C   0  0  0  0  0  0  0  0  0  0  0  0
   60.0530   28.4980   48.9190 C   0  0  0  0  0  0  0  0  0  0  0  0
   59.1070   29.2200   48.1870 C   0  0  0  0  0  0  0  0  0  0  0  0
   58.4420   28.6270   47.1050 C   0  0  0  0  0  0  0  0  0  0  0  0
   57.4820   29.4080   46.3870 N   0  0  0  0  0  0  0  0  0  0  0  0
   57.8860   30.7110   45.3140 S   0  0  0  0  0  0  0  0  0  0  0  0
   56.6500   31.4220   44.8390 O   0  0  0  0  0  0  0  0  0  0  0  0
   58.5990   30.1560   44.1110 O   0  0  0  0  0  0  0  0  0  0  0  0
   58.9440   31.8330   46.1880 C   0  0  0  0  0  0  0  0  0  0  0  0
   60.2850   31.4670   46.3670 C   0  0  0  0  0  0  0  0  0  0  0  0
   61.1600   32.2690   47.1200 C   0  0  0  0  0  0  0  0  0  0  0  0
   62.4980   31.8470   47.4150 N   0  0  0  0  0  0  0  0  0  0  0  0
   63.5530   32.7180   47.8360 C   0  0  0  0  0  0  0  0  0  0  0  0
   64.0180   33.5850   47.0480 O   0  0  0  0  0  0  0  0  0  0  0  0
   64.1290   32.5650   49.2070 C   0  0  0  0  0  0  0  0  0  0  0  0
   63.0790   32.1590   50.1410 N   0  0  0  0  0  0  0  0  0  0  0  0
   63.1530   31.0740   51.0510 C   0  0  0  0  0  0  0  0  0  0  0  0
   63.9680   30.1200   50.9360 O   0  0  0  0  0  0  0  0  0  0  0  0
   62.2460   31.1930   52.1380 N   0  0  0  0  0  0  0  0  0  0  0  0
   61.5310   32.4680   52.0080 C   0  0  2  0  0  0  0  0  0  0  0  0
   61.8830   33.3520   53.2160 C   0  0  0  0  0  0  0  0  0  0  0  0
   60.0220   32.2680   51.8620 C   0  0  0  0  0  0  0  0  0  0  0  0
   59.1270   33.1380   52.5240 C   0  0  0  0  0  0  0  0  0  0  0  0
   57.7440   32.9820   52.3930 C   0  0  0  0  0  0  0  0  0  0  0  0
   57.2300   31.9600   51.5910 C   0  0  0  0  0  0  0  0  0  0  0  0
   58.0980   31.1000   50.9130 C   0  0  0  0  0  0  0  0  0  0  0  0
   59.4830   31.2510   51.0390 C   0  0  0  0  0  0  0  0  0  0  0  0
   62.1190   33.0290   50.7350 C   0  0  0  0  0  0  0  0  0  0  0  0
   61.8300   34.1590   50.2560 O   0  0  0  0  0  0  0  0  0  0  0  0
   60.6860   33.4520   47.6890 C   0  0  0  0  0  0  0  0  0  0  0  0
   59.3540   33.8350   47.5170 C   0  0  0  0  0  0  0  0  0  0  0  0
   58.4630   33.0240   46.7920 C   0  0  0  0  0  0  0  0  0  0  0  0
   57.0250   33.4560   46.6770 C   0  0  0  0  0  0  0  0  0  0  0  0
   58.8906   28.2020   44.2649 H   0  0  0  0  0  0  0  0  0  0  0  0
   59.0327   26.5006   43.7067 H   0  0  0  0  0  0  0  0  0  0  0  0
   57.4317   27.3151   43.7067 H   0  0  0  0  0  0  0  0  0  0  0  0
   59.9570   25.5492   47.1903 H   0  0  0  0  0  0  0  0  0  0  0  0
   61.0851   26.6071   49.1483 H   0  0  0  0  0  0  0  0  0  0  0  0
   60.5631   28.9667   49.7735 H   0  0  0  0  0  0  0  0  0  0  0  0
   58.8825   30.2612   48.4618 H   0  0  0  0  0  0  0  0  0  0  0  0
   60.6584   30.5381   45.9113 H   0  0  0  0  0  0  0  0  0  0  0  0
   64.9181   31.7988   49.1886 H   0  0  0  0  0  0  0  0  0  0  0  0
   64.5542   33.5258   49.5325 H   0  0  0  0  0  0  0  0  0  0  0  0
   62.1940   30.5410   52.9540 H   0  0  0  0  0  0  0  0  0  0  0  0
   61.6655   32.8059   54.1458 H   0  0  0  0  0  0  0  0  0  0  0  0
   62.9521   33.6090   53.1832 H   0  0  0  0  0  0  0  0  0  0  0  0
   61.2832   34.2735   53.1832 H   0  0  0  0  0  0  0  0  0  0  0  0
   59.5241   33.9496   53.1514 H   0  0  0  0  0  0  0  0  0  0  0  0
   57.0608   33.6635   52.9211 H   0  0  0  0  0  0  0  0  0  0  0  0
   56.1418   31.8323   51.4932 H   0  0  0  0  0  0  0  0  0  0  0  0
   57.6902   30.3004   50.2771 H   0  0  0  0  0  0  0  0  0  0  0  0
   60.1579   30.5743   50.4944 H   0  0  0  0  0  0  0  0  0  0  0  0
   61.3657   34.0866   48.2765 H   0  0  0  0  0  0  0  0  0  0  0  0
   58.9984   34.7803   47.9529 H   0  0  0  0  0  0  0  0  0  0  0  0
   56.5990   33.5840   47.6831 H   0  0  0  0  0  0  0  0  0  0  0  0
   56.9712   34.4100   46.1320 H   0  0  0  0  0  0  0  0  0  0  0  0
   56.4544   32.6896   46.1320 H   0  0  0  0  0  0  0  0  0  0  0  0
  1  2  1  0
  2  3  1  0
  3  4  2  0
  4  5  1  0
  5  6  2  0
  6  7  1  0
  7  8  2  0
  8  9  1  0
  9 10  1  0
 10 11  2  0
 10 12  2  0
 10 13  1  0
 13 14  2  0
 14 15  1  0
 15 16  1  0
 16 17  1  0
 17 18  2  0
 17 19  1  0
 19 20  1  0
 20 21  1  0
 21 22  2  0
 21 23  1  0
 23 24  1  0
 24 25  1  1
 24 26  1  0
 26 27  2  0
 27 28  1  0
 28 29  2  0
 29 30  1  0
 30 31  2  0
 24 32  1  0
 32 33  2  0
 15 34  2  0
 34 35  1  0
 35 36  2  0
 36 37  1  0
  8  3  1  0
 36 13  1  0
 32 20  1  0
 31 26  1  0
  1 38  1  0
  1 39  1  0
  1 40  1  0
  4 41  1  0
  5 42  1  0
  6 43  1  0
  7 44  1  0
 14 45  1  0
 19 46  1  0
 19 47  1  0
 23 48  1  0
 25 49  1  0
 25 50  1  0
 25 51  1  0
 27 52  1  0
 28 53  1  0
 29 54  1  0
 30 55  1  0
 31 56  1  0
 34 57  1  0
 35 58  1  0
 37 59  1  0
 37 60  1  0
 37 61  1  0
M  CHG  2   9  -1  16  -1
M  END
>  <UniqueID>  (90) 
84

>  <SMILES>  (90) 
COc1ccccc1[N-]S(=O)(=O)c1cc([N-]C(=O)CN2C(=O)N[C@](C)(c3ccccc3)C2=O)ccc1C

>  <Energy>  (90) 
95.22202682653699

>  <Genealogy>  (90) 
COc1ccccc1[N-]S(=O)(=O)c1cc([N-]C(=O)CN2C(=O)NC(C)(c3ccccc3)C2=O)ccc1C (protonated)
COc1ccccc1[N-]S(=O)(=O)c1cc([N-]C(=O)CN2C(=O)N[C@](C)(c3ccccc3)C2=O)ccc1C (chirality)
COc1ccccc1[N-]S(=O)(=O)c1cc([N-]C(=O)CN2C(=O)N[C@](C)(c3ccccc3)C2=O)ccc1C (3D coordinates assigned)
COc1ccccc1[N-]S(=O)(=O)c1cc([N-]C(=O)CN2C(=O)N[C@](C)(c3ccccc3)C2=O)ccc1C (nonaromatic ring conformer: 95.22202682653699 kcal/mol)

>  <smiles>  (90) 
COc1ccccc1NS(=O)(=O)c1cc(NC(=O)CN2C(=O)NC(C)(c3ccccc3)C2=O)ccc1C

>  <score_type>  (90) 
oracle

>  <origin>  (90) 
adg

>  <m_score__min__energy>  (90) 
-13.27

>  <m_primary>  (90) 
energy

$$$$
