0:0
     RDKit          3D

 61 65  0  0  1  0  0  0  0  0999 V2000
   56.8890   31.6050   52.4930 C   0  0  0  0  0  0  0  0  0  0  0  0
   58.1670   31.8330   51.7640 C   0  0  0  0  0  0  0  0  0  0  0  0
   58.1650   32.3100   50.5090 N   0  0  0  0  0  0  0  0  0  0  0  0
   59.2700   32.5460   49.7770 C   0  0  0  0  0  0  0  0  0  0  0  0
   59.1050   33.0620   48.4340 C   0  0  0  0  0  0  0  0  0  0  0  0
   59.4750   34.3690   48.1830 C   0  0  0  0  0  0  0  0  0  0  0  0
   59.3600   34.9620   46.9410 C   0  0  0  0  0  0  0  0  0  0  0  0
   58.8450   34.1780   45.9290 C   0  0  0  0  0  0  0  0  0  0  0  0
   58.6270   34.4980   44.6350 N   0  0  0  0  0  0  0  0  0  0  0  0
   58.1140   33.4100   44.0370 C   0  0  0  0  0  0  0  0  0  0  0  0
   58.0100   32.3930   44.9690 C   0  0  0  0  0  0  0  0  0  0  0  0
   57.4870   31.0750   44.6290 C   0  0  0  0  0  0  0  0  0  0  0  0
   56.2440   30.8860   44.8450 O   0  0  0  0  0  0  0  0  0  0  0  0
   58.2920   30.0350   44.0840 N   0  0  0  0  0  0  0  0  0  0  0  0
   57.7500   28.7330   43.7540 C   0  0  0  0  0  0  0  0  0  0  0  0
   57.8960   27.7680   44.8820 C   0  0  0  0  0  0  0  0  0  0  0  0
   59.1070   27.2090   45.2360 C   0  0  0  0  0  0  0  0  0  0  0  0
   59.1710   26.3170   46.2970 C   0  0  0  0  0  0  0  0  0  0  0  0
   58.0640   25.9530   47.0350 C   0  0  0  0  0  0  0  0  0  0  0  0
   58.1230   25.0850   48.0690 F   0  0  0  0  0  0  0  0  0  0  0  0
   56.8590   26.5160   46.6750 C   0  0  0  0  0  0  0  0  0  0  0  0
   56.7790   27.4130   45.6120 C   0  0  0  0  0  0  0  0  0  0  0  0
   55.5820   27.9280   45.3100 F   0  0  0  0  0  0  0  0  0  0  0  0
   58.4730   32.8730   46.1740 C   0  0  0  0  0  0  0  0  0  0  0  0
   58.5910   32.2990   47.4010 C   0  0  0  0  0  0  0  0  0  0  0  0
   60.4780   32.2780   50.3640 C   0  0  0  0  0  0  0  0  0  0  0  0
   60.5340   31.7820   51.6660 C   0  0  0  0  0  0  0  0  0  0  0  0
   61.6740   31.5230   52.2380 N   0  0  0  0  0  0  0  0  0  0  0  0
   62.8290   32.3270   51.9570 C   0  0  0  0  0  0  0  0  0  0  0  0
   63.8060   31.6860   50.9970 C   0  0  0  0  0  0  0  0  0  0  0  0
   63.4880   32.1870   49.6190 C   0  0  0  0  0  0  0  0  0  0  0  0
   63.7230   33.4910   49.2380 C   0  0  0  0  0  0  0  0  0  0  0  0
   63.3900   33.8430   47.9320 C   0  0  0  0  0  0  0  0  0  0  0  0
   62.8410   32.9070   47.0520 C   0  0  0  0  0  0  0  0  0  0  0  0
   62.6310   31.6160   47.4910 C   0  0  0  0  0  0  0  0  0  0  0  0
   62.9530   31.2710   48.7610 N   0  0  0  0  0  0  0  0  0  0  0  0
   59.3660   31.5750   52.3270 N   0  0  0  0  0  0  0  0  0  0  0  0
   57.0742   31.6380   53.5768 H   0  0  0  0  0  0  0  0  0  0  0  0
   56.1666   32.3884   52.2204 H   0  0  0  0  0  0  0  0  0  0  0  0
   56.4821   30.6201   52.2204 H   0  0  0  0  0  0  0  0  0  0  0  0
   59.8809   34.9665   49.0126 H   0  0  0  0  0  0  0  0  0  0  0  0
   59.6632   36.0051   46.7676 H   0  0  0  0  0  0  0  0  0  0  0  0
   58.8230   35.4350   44.1770 H   0  0  0  0  0  0  0  0  0  0  0  0
   57.8238   33.3392   42.9783 H   0  0  0  0  0  0  0  0  0  0  0  0
   59.3070   30.2730   43.9360 H   0  0  0  0  0  0  0  0  0  0  0  0
   56.6818   28.8424   43.5155 H   0  0  0  0  0  0  0  0  0  0  0  0
   58.3099   28.3387   42.8932 H   0  0  0  0  0  0  0  0  0  0  0  0
   60.0189   27.4697   44.6788 H   0  0  0  0  0  0  0  0  0  0  0  0
   60.1461   25.8816   46.5608 H   0  0  0  0  0  0  0  0  0  0  0  0
   55.9486   26.2539   47.2340 H   0  0  0  0  0  0  0  0  0  0  0  0
   58.2858   31.2554   47.5678 H   0  0  0  0  0  0  0  0  0  0  0  0
   61.4090   32.4550   49.8054 H   0  0  0  0  0  0  0  0  0  0  0  0
   62.4903   33.2787   51.5217 H   0  0  0  0  0  0  0  0  0  0  0  0
   63.3617   32.4627   52.9098 H   0  0  0  0  0  0  0  0  0  0  0  0
   64.8350   31.9643   51.2685 H   0  0  0  0  0  0  0  0  0  0  0  0
   63.7220   30.5899   51.0370 H   0  0  0  0  0  0  0  0  0  0  0  0
   64.1554   34.2229   49.9362 H   0  0  0  0  0  0  0  0  0  0  0  0
   63.5619   34.8737   47.5883 H   0  0  0  0  0  0  0  0  0  0  0  0
   62.5797   33.1954   46.0231 H   0  0  0  0  0  0  0  0  0  0  0  0
   62.2020   30.8665   46.8096 H   0  0  0  0  0  0  0  0  0  0  0  0
   59.3430   31.2060   53.3000 H   0  0  0  0  0  0  0  0  0  0  0  0
  1  2  1  0
  2  3  2  0
  3  4  1  0
  4  5  1  0
  5  6  2  0
  6  7  1  0
  7  8  2  0
  8  9  1  0
  9 10  1  0
 10 11  2  0
 11 12  1  0
 12 13  2  0
 12 14  1  0
 14 15  1  0
 15 16  1  0
 16 17  2  0
 17 18  1  0
 18 19  2  0
 19 20  1  0
 19 21  1  0
 21 22  2  0
 22 23  1  0
 11 24  1  0
 24 25  2  0
  4 26  2  0
 26 27  1  0
 27 28  2  0
 28 29  1  0
 29 30  1  0
 30 31  1  0
 31 32  2  0
 32 33  1  0
 33 34  2  0
 34 35  1  0
 35 36  2  0
 27 37  1  0
 37  2  1  0
 25  5  1  0
 36 31  1  0
 24  8  1  0
 22 16  1  0
  1 38  1  0
  1 39  1  0
  1 40  1  0
  6 41  1  0
  7 42  1  0
  9 43  1  0
 10 44  1  0
 14 45  1  0
 15 46  1  0
 15 47  1  0
 17 48  1  0
 18 49  1  0
 21 50  1  0
 25 51  1  0
 26 52  1  0
 29 53  1  0
 29 54  1  0
 30 55  1  0
 30 56  1  0
 32 57  1  0
 33 58  1  0
 34 59  1  0
 35 60  1  0
 37 61  1  0
M  END
>  <smiles>  (1) 
Cc1nc(-c2ccc3[nH]cc(C(=O)NCc4ccc(F)cc4F)c3c2)cc(=NCCc2ccccn2)[nH]1

>  <score_type>  (1) 
oracle

>  <origin>  (1) 
adg

>  <m_score__min__energy>  (1) 
-9.6699999999999999

>  <m_primary>  (1) 
energy

$$$$
1:0
     RDKit          3D

 51 53  0  0  0  0  0  0  0  0999 V2000
   57.0460   27.0740   46.2140 C   0  0  0  0  0  0  0  0  0  0  0  0
   57.4520   27.6770   44.8720 C   0  0  0  0  0  0  0  0  0  0  0  0
   57.4470   29.1930   44.9280 C   0  0  0  0  0  0  0  0  0  0  0  0
   58.6250   29.9580   45.1450 C   0  0  0  0  0  0  0  0  0  0  0  0
   60.0030   29.3530   45.2710 C   0  0  0  0  0  0  0  0  0  0  0  0
   60.2820   28.9530   46.6930 C   0  0  0  0  0  0  0  0  0  0  0  0
   60.3640   27.5980   47.0450 C   0  0  0  0  0  0  0  0  0  0  0  0
   60.6100   27.2290   48.3740 C   0  0  0  0  0  0  0  0  0  0  0  0
   60.7620   28.2070   49.3560 C   0  0  0  0  0  0  0  0  0  0  0  0
   60.6620   29.5600   49.0180 C   0  0  0  0  0  0  0  0  0  0  0  0
   60.4170   29.9360   47.6940 C   0  0  0  0  0  0  0  0  0  0  0  0
   58.5380   31.3150   45.1470 N   0  0  0  0  0  0  0  0  0  0  0  0
   57.3670   31.9610   44.9400 C   0  0  0  0  0  0  0  0  0  0  0  0
   57.3270   33.7490   44.9060 S   0  0  0  0  0  0  0  0  0  0  0  0
   59.1400   33.9280   44.7740 C   0  0  0  0  0  0  0  0  0  0  0  0
   59.7650   33.9860   46.1430 C   0  0  0  0  0  0  0  0  0  0  0  0
   59.0640   34.5620   47.2100 C   0  0  0  0  0  0  0  0  0  0  0  0
   59.6280   34.5890   48.4860 C   0  0  0  0  0  0  0  0  0  0  0  0
   60.8920   34.0360   48.7100 C   0  0  0  0  0  0  0  0  0  0  0  0
   61.6170   33.4430   47.6560 C   0  0  0  0  0  0  0  0  0  0  0  0
   62.9330   32.8720   47.8850 N   0  0  0  0  0  0  0  0  0  0  0  0
   63.8120   33.4190   48.9250 C   0  0  0  0  0  0  0  0  0  0  0  0
   63.3890   31.7020   47.1220 C   0  0  0  0  0  0  0  0  0  0  0  0
   61.0340   33.4250   46.3720 C   0  0  0  0  0  0  0  0  0  0  0  0
   56.2350   31.2550   44.7180 N   0  0  0  0  0  0  0  0  0  0  0  0
   56.2440   29.8980   44.7050 C   0  0  0  0  0  0  0  0  0  0  0  0
   55.1690   29.2840   44.4730 O   0  0  0  0  0  0  0  0  0  0  0  0
   57.4578   27.6856   47.0304 H   0  0  0  0  0  0  0  0  0  0  0  0
   55.9488   27.0525   46.2894 H   0  0  0  0  0  0  0  0  0  0  0  0
   57.4388   26.0493   46.2894 H   0  0  0  0  0  0  0  0  0  0  0  0
   58.4638   27.3308   44.6144 H   0  0  0  0  0  0  0  0  0  0  0  0
   56.7262   27.3541   44.1111 H   0  0  0  0  0  0  0  0  0  0  0  0
   60.0667   28.4635   44.6270 H   0  0  0  0  0  0  0  0  0  0  0  0
   60.7468   30.1026   44.9630 H   0  0  0  0  0  0  0  0  0  0  0  0
   60.2348   26.8227   46.2755 H   0  0  0  0  0  0  0  0  0  0  0  0
   60.6834   26.1650   48.6434 H   0  0  0  0  0  0  0  0  0  0  0  0
   60.9607   27.9139   50.3974 H   0  0  0  0  0  0  0  0  0  0  0  0
   60.7763   30.3300   49.7952 H   0  0  0  0  0  0  0  0  0  0  0  0
   60.3294   31.0010   47.4330 H   0  0  0  0  0  0  0  0  0  0  0  0
   59.5498   33.0673   44.2251 H   0  0  0  0  0  0  0  0  0  0  0  0
   59.3674   34.8619   44.2391 H   0  0  0  0  0  0  0  0  0  0  0  0
   58.0665   34.9941   47.0417 H   0  0  0  0  0  0  0  0  0  0  0  0
   59.0754   35.0475   49.3193 H   0  0  0  0  0  0  0  0  0  0  0  0
   61.3262   34.0637   49.7203 H   0  0  0  0  0  0  0  0  0  0  0  0
   63.4076   33.1673   49.9165 H   0  0  0  0  0  0  0  0  0  0  0  0
   64.8182   32.9873   48.8190 H   0  0  0  0  0  0  0  0  0  0  0  0
   63.8691   34.5124   48.8190 H   0  0  0  0  0  0  0  0  0  0  0  0
   63.6984   30.9083   47.8179 H   0  0  0  0  0  0  0  0  0  0  0  0
   62.5682   31.3348   46.4884 H   0  0  0  0  0  0  0  0  0  0  0  0
   64.2418   31.9871   46.4884 H   0  0  0  0  0  0  0  0  0  0  0  0
   61.5809   32.9646   45.5359 H   0  0  0  0  0  0  0  0  0  0  0  0
  1  2  1  0
  2  3  1  0
  3  4  2  0
  4  5  1  0
  5  6  1  0
  6  7  2  0
  7  8  1  0
  8  9  2  0
  9 10  1  0
 10 11  2  0
  4 12  1  0
 12 13  1  0
 13 14  1  0
 14 15  1  0
 15 16  1  0
 16 17  2  0
 17 18  1  0
 18 19  2  0
 19 20  1  0
 20 21  1  0
 21 22  1  0
 21 23  1  0
 20 24  2  0
 13 25  2  0
 25 26  1  0
 26 27  2  0
 26  3  1  0
 11  6  1  0
 24 16  1  0
  1 28  1  0
  1 29  1  0
  1 30  1  0
  2 31  1  0
  2 32  1  0
  5 33  1  0
  5 34  1  0
  7 35  1  0
  8 36  1  0
  9 37  1  0
 10 38  1  0
 11 39  1  0
 15 40  1  0
 15 41  1  0
 17 42  1  0
 18 43  1  0
 19 44  1  0
 22 45  1  0
 22 46  1  0
 22 47  1  0
 23 48  1  0
 23 49  1  0
 23 50  1  0
 24 51  1  0
M  CHG  1  12  -1
M  END
>  <UniqueID>  (2) 
1

>  <SMILES>  (2) 
CCc1c(Cc2ccccc2)[n-]c(SCc2cccc(N(C)C)c2)nc1=O

>  <Energy>  (2) 
46.77627284264168

>  <Genealogy>  (2) 
CCc1c(Cc2ccccc2)[n-]c(SCc2cccc(N(C)C)c2)nc1=O (protonated)
CCc1c(Cc2ccccc2)[n-]c(SCc2cccc(N(C)C)c2)nc1=O (3D coordinates assigned)
CCc1c(Cc2ccccc2)[n-]c(SCc2cccc(N(C)C)c2)nc1=O (optimized conformer: 46.77627284264168 kcal/mol)

>  <smiles>  (2) 
CCc1c(Cc2ccccc2)[nH]c(SCc2cccc(N(C)C)c2)nc1=O

>  <score_type>  (2) 
oracle

>  <origin>  (2) 
adg

>  <m_score__min__energy>  (2) 
-10.279999999999999

>  <m_primary>  (2) 
energy

$$$$
2:0
     RDKit          3D

 56 59  0  0  0  0  0  0  0  0999 V2000
   57.9211   31.9654   43.0897 H   0  0  0  0  0  0  0  0  0  0  0  0
   57.7300   30.9500   43.4670 C   0  0  0  0  0  0  0  0  0  0  0  0
   57.4258   30.1533   42.7722 H   0  0  0  0  0  0  0  0  0  0  0  0
   57.8680   30.6830   44.7760 C   0  0  0  0  0  0  0  0  0  0  0  0
   57.6610   29.4440   45.4050 C   0  0  0  0  0  0  0  0  0  0  0  0
   57.0330   28.3300   44.9810 C   0  0  0  0  0  0  0  0  0  0  0  0
   56.3880   28.4222   44.0947 H   0  0  0  0  0  0  0  0  0  0  0  0
   57.1370   26.9960   45.6050 C   0  0  0  0  0  0  0  0  0  0  0  0
   58.2400   26.2260   45.5810 N   0  0  0  0  0  0  0  0  0  0  0  0
   57.8240   25.0600   46.1190 C   0  0  0  0  0  0  0  0  0  0  0  0
   58.5900   24.0780   46.2760 O   0  0  0  0  0  0  0  0  0  0  0  0
   56.5130   25.0200   46.4380 N   0  0  0  0  0  0  0  0  0  0  0  0
   56.0910   26.2480   46.0870 C   0  0  0  0  0  0  0  0  0  0  0  0
   54.7730   26.6610   46.1730 O   0  0  0  0  0  0  0  0  0  0  0  0
   58.1800   29.5670   46.6820 C   0  0  0  0  0  0  0  0  0  0  0  0
   58.2544   28.7721   47.4387 H   0  0  0  0  0  0  0  0  0  0  0  0
   58.5860   30.8770   46.8240 C   0  0  0  0  0  0  0  0  0  0  0  0
   59.1530   31.4460   48.0650 C   0  0  0  0  0  0  0  0  0  0  0  0
   58.4180   32.2050   48.7610 O   0  0  0  0  0  0  0  0  0  0  0  0
   60.4940   31.0810   48.5100 N   0  0  0  0  0  0  0  0  0  0  0  0
   61.1100   31.9290   48.4890 H   0  0  0  0  0  0  0  0  0  0  0  0
   60.4490   30.5140   49.8650 C   0  0  0  0  0  0  0  0  0  0  0  0
   61.4269   30.6257   50.3562 H   0  0  0  0  0  0  0  0  0  0  0  0
   59.7037   31.0308   50.4875 H   0  0  0  0  0  0  0  0  0  0  0  0
   60.1050   29.0360   49.7060 C   0  0  0  0  0  0  0  0  0  0  0  0
   60.6130   28.4335   50.4734 H   0  0  0  0  0  0  0  0  0  0  0  0
   59.0287   28.8414   49.8232 H   0  0  0  0  0  0  0  0  0  0  0  0
   60.6110   28.6760   48.3170 C   0  0  0  0  0  0  0  0  0  0  0  0
   61.4389   27.9548   48.3832 H   0  0  0  0  0  0  0  0  0  0  0  0
   59.8282   28.2055   47.7039 H   0  0  0  0  0  0  0  0  0  0  0  0
   61.0950   29.9930   47.7120 C   0  0  0  0  0  0  0  0  0  0  0  0
   62.1924   30.0505   47.7608 H   0  0  0  0  0  0  0  0  0  0  0  0
   60.7997   30.0717   46.6553 H   0  0  0  0  0  0  0  0  0  0  0  0
   58.3990   31.5590   45.6700 N   0  0  0  0  0  0  0  0  0  0  0  0
   58.7670   32.9620   45.4250 C   0  0  0  0  0  0  0  0  0  0  0  0
   59.8260   33.1100   45.6833 H   0  0  0  0  0  0  0  0  0  0  0  0
   58.6026   33.1953   44.3627 H   0  0  0  0  0  0  0  0  0  0  0  0
   57.9040   33.8930   46.2790 C   0  0  0  0  0  0  0  0  0  0  0  0
   57.4965   34.6947   45.6456 H   0  0  0  0  0  0  0  0  0  0  0  0
   57.0813   33.3146   46.7246 H   0  0  0  0  0  0  0  0  0  0  0  0
   58.7130   34.4850   47.3520 N   0  0  0  0  0  0  0  0  0  0  0  0
   58.8730   33.7640   48.0960 H   0  0  0  0  0  0  0  0  0  0  0  0
   60.0130   34.9690   46.8540 C   0  0  0  0  0  0  0  0  0  0  0  0
   60.0548   34.8198   45.7650 H   0  0  0  0  0  0  0  0  0  0  0  0
   60.1019   36.0348   47.1113 H   0  0  0  0  0  0  0  0  0  0  0  0
   61.1690   34.2340   47.4930 C   0  0  0  0  0  0  0  0  0  0  0  0
   61.3290   34.2450   48.8870 C   0  0  0  0  0  0  0  0  0  0  0  0
   60.6216   34.8060   49.5154 H   0  0  0  0  0  0  0  0  0  0  0  0
   62.3820   33.5470   49.4790 C   0  0  0  0  0  0  0  0  0  0  0  0
   62.5064   33.5661   50.5718 H   0  0  0  0  0  0  0  0  0  0  0  0
   63.2800   32.8230   48.6880 C   0  0  0  0  0  0  0  0  0  0  0  0
   64.1065   32.2702   49.1584 H   0  0  0  0  0  0  0  0  0  0  0  0
   63.1260   32.8030   47.3020 C   0  0  0  0  0  0  0  0  0  0  0  0
   63.8287   32.2295   46.6797 H   0  0  0  0  0  0  0  0  0  0  0  0
   62.0780   33.5120   46.7010 C   0  0  0  0  0  0  0  0  0  0  0  0
   61.9663   33.5036   45.6067 H   0  0  0  0  0  0  0  0  0  0  0  0
  1  2  1  0
  2  3  1  0
  2  4  2  0
  4  5  1  0
  5  6  2  0
  6  7  1  0
  6  8  1  0
  8  9  1  0
  9 10  1  0
 10 11  2  0
 10 12  1  0
 12 13  1  0
 13 14  1  0
  5 15  1  0
 15 16  1  0
 15 17  2  0
 17 18  1  0
 18 19  2  0
 18 20  1  0
 20 21  1  0
 20 22  1  0
 22 23  1  0
 22 24  1  0
 22 25  1  0
 25 26  1  0
 25 27  1  0
 25 28  1  0
 28 29  1  0
 28 30  1  0
 28 31  1  0
 31 32  1  0
 31 33  1  0
 17 34  1  0
 34 35  1  0
 35 36  1  0
 35 37  1  0
 35 38  1  0
 38 39  1  0
 38 40  1  0
 38 41  1  0
 41 42  1  0
 41 43  1  0
 43 44  1  0
 43 45  1  0
 43 46  1  0
 46 47  2  0
 47 48  1  0
 47 49  1  0
 49 50  1  0
 49 51  2  0
 51 52  1  0
 51 53  1  0
 53 54  1  0
 53 55  2  0
 55 56  1  0
 34  4  1  0
 55 46  1  0
 13  8  2  0
 31 20  1  0
M  CHG  4   9  -1  12  -1  14  -1  20   1
M  END
>  <UniqueID>  (3) 
2

>  <SMILES>  (3) 
C=c1/c(=C\c2[n-]c(=O)[n-]c2[O-])cc(C(=O)[NH+]2CCCC2)n1CCNCc1ccccc1

>  <Energy>  (3) 
137.48462212106628

>  <Genealogy>  (3) 
C=c1c(=Cc2[n-]c(=O)[n-]c2[O-])cc(C(=O)[NH+]2CCCC2)n1CCNCc1ccccc1 (protonated)
C=c1/c(=C\c2[n-]c(=O)[n-]c2[O-])cc(C(=O)[NH+]2CCCC2)n1CCNCc1ccccc1 (cis-trans isomerization)
C=c1/c(=C\c2[n-]c(=O)[n-]c2[O-])cc(C(=O)[NH+]2CCCC2)n1CCNCc1ccccc1 (3D coordinates assigned)
C=c1/c(=C\c2[n-]c(=O)[n-]c2[O-])cc(C(=O)[NH+]2CCCC2)n1CCNCc1ccccc1 (nonaromatic ring conformer: 137.48462212106628 kcal/mol)

>  <smiles>  (3) 
C=c1c(=Cc2[nH]c(=O)[nH]c2O)cc(C(=O)N2CCCC2)n1CCNCc1ccccc1

>  <score_type>  (3) 
oracle

>  <origin>  (3) 
adg

>  <m_score__min__energy>  (3) 
-14.859999999999999

>  <m_primary>  (3) 
energy

$$$$
3:0
     RDKit          3D

 45 47  0  0  0  0  0  0  0  0999 V2000
   63.4250   32.6670   47.5110 C   0  0  0  0  0  0  0  0  0  0  0  0
   62.1390   33.3980   47.7570 C   0  0  0  0  0  0  0  0  0  0  0  0
   61.6090   33.4830   49.0510 C   0  0  0  0  0  0  0  0  0  0  0  0
   60.3890   34.1320   49.2530 C   0  0  0  0  0  0  0  0  0  0  0  0
   59.7170   34.6650   48.1990 N   0  0  0  0  0  0  0  0  0  0  0  0
   60.2010   34.5920   46.9280 C   0  0  0  0  0  0  0  0  0  0  0  0
   59.3950   35.1700   45.8010 C   0  0  0  0  0  0  0  0  0  0  0  0
   59.1910   34.1620   44.7620 N   0  0  0  0  0  0  0  0  0  0  0  0
   57.9290   33.5130   44.5560 C   0  0  0  0  0  0  0  0  0  0  0  0
   56.9520   33.7610   45.3150 O   0  0  0  0  0  0  0  0  0  0  0  0
   57.7760   32.4950   43.4680 C   0  0  0  0  0  0  0  0  0  0  0  0
   57.8600   31.1090   44.0430 C   0  0  0  0  0  0  0  0  0  0  0  0
   58.8520   30.7930   44.9840 C   0  0  0  0  0  0  0  0  0  0  0  0
   58.9530   29.4960   45.4960 C   0  0  0  0  0  0  0  0  0  0  0  0
   58.0720   28.4910   45.0670 C   0  0  0  0  0  0  0  0  0  0  0  0
   58.1810   27.0900   45.6330 C   0  0  2  0  0  0  0  0  0  0  0  0
   57.9660   26.0620   44.5450 C   0  0  0  0  0  0  0  0  0  0  0  0
   56.9470   25.2310   44.7160 C   0  0  0  0  0  0  0  0  0  0  0  0
   56.0990   25.5320   46.1910 S   0  0  0  0  0  0  0  0  0  0  0  0
   56.1300   24.3460   47.1130 O   0  0  0  0  0  0  0  0  0  0  0  0
   54.6940   26.0060   45.9460 O   0  0  0  0  0  0  0  0  0  0  0  0
   57.1490   26.8430   46.7610 C   0  0  0  0  0  0  0  0  0  0  0  0
   57.0830   28.8090   44.1180 C   0  0  0  0  0  0  0  0  0  0  0  0
   56.9820   30.1050   43.6070 C   0  0  0  0  0  0  0  0  0  0  0  0
   61.4200   33.9440   46.6850 C   0  0  0  0  0  0  0  0  0  0  0  0
   63.8874   32.4042   48.4739 H   0  0  0  0  0  0  0  0  0  0  0  0
   63.2217   31.7495   46.9393 H   0  0  0  0  0  0  0  0  0  0  0  0
   64.1093   33.3111   46.9393 H   0  0  0  0  0  0  0  0  0  0  0  0
   62.1496   33.0420   49.9014 H   0  0  0  0  0  0  0  0  0  0  0  0
   59.9712   34.2119   50.2674 H   0  0  0  0  0  0  0  0  0  0  0  0
   58.4183   35.5006   46.1842 H   0  0  0  0  0  0  0  0  0  0  0  0
   59.9372   36.0254   45.3718 H   0  0  0  0  0  0  0  0  0  0  0  0
   60.0010   33.9020   44.1560 H   0  0  0  0  0  0  0  0  0  0  0  0
   56.7992   32.6280   42.9799 H   0  0  0  0  0  0  0  0  0  0  0  0
   58.5829   32.6295   42.7326 H   0  0  0  0  0  0  0  0  0  0  0  0
   59.5540   31.5701   45.3206 H   0  0  0  0  0  0  0  0  0  0  0  0
   59.7283   29.2615   46.2402 H   0  0  0  0  0  0  0  0  0  0  0  0
   59.1932   26.9917   46.0523 H   0  0  0  0  0  0  0  0  0  0  0  0
   58.6185   26.0067   43.6611 H   0  0  0  0  0  0  0  0  0  0  0  0
   56.6731   24.4410   44.0012 H   0  0  0  0  0  0  0  0  0  0  0  0
   56.5583   27.7528   46.9436 H   0  0  0  0  0  0  0  0  0  0  0  0
   57.6441   26.5781   47.7069 H   0  0  0  0  0  0  0  0  0  0  0  0
   56.3843   28.0313   43.7760 H   0  0  0  0  0  0  0  0  0  0  0  0
   56.2103   30.3398   42.8591 H   0  0  0  0  0  0  0  0  0  0  0  0
   61.8098   33.8645   45.6595 H   0  0  0  0  0  0  0  0  0  0  0  0
  1  2  1  0
  2  3  2  0
  3  4  1  0
  4  5  2  0
  5  6  1  0
  6  7  1  0
  7  8  1  0
  8  9  1  0
  9 10  2  0
  9 11  1  0
 11 12  1  0
 12 13  2  0
 13 14  1  0
 14 15  2  0
 15 16  1  0
 16 17  1  0
 17 18  2  0
 18 19  1  0
 19 20  2  0
 19 21  2  0
 19 22  1  0
 15 23  1  0
 23 24  2  0
  6 25  2  0
 25  2  1  0
 24 12  1  0
 22 16  1  0
  1 26  1  0
  1 27  1  0
  1 28  1  0
  3 29  1  0
  4 30  1  0
  7 31  1  0
  7 32  1  0
  8 33  1  0
 11 34  1  0
 11 35  1  0
 13 36  1  0
 14 37  1  0
 16 38  1  1
 17 39  1  0
 18 40  1  0
 22 41  1  0
 22 42  1  0
 23 43  1  0
 24 44  1  0
 25 45  1  0
M  END
>  <UniqueID>  (4) 
3

>  <SMILES>  (4) 
Cc1ccnc(CNC(=O)Cc2ccc([C@@H]3C=CS(=O)(=O)C3)cc2)c1

>  <Energy>  (4) 
47.91785838588354

>  <Genealogy>  (4) 
Cc1ccnc(CNC(=O)Cc2ccc([C@@H]3C=CS(=O)(=O)C3)cc2)c1 (chirality)
Cc1ccnc(CNC(=O)Cc2ccc([C@@H]3C=CS(=O)(=O)C3)cc2)c1 (3D coordinates assigned)
Cc1ccnc(CNC(=O)Cc2ccc([C@@H]3C=CS(=O)(=O)C3)cc2)c1 (nonaromatic ring conformer: 47.91785838588354 kcal/mol)

>  <smiles>  (4) 
Cc1ccnc(CNC(=O)Cc2ccc(C3C=CS(=O)(=O)C3)cc2)c1

>  <score_type>  (4) 
oracle

>  <origin>  (4) 
adg

>  <m_score__min__energy>  (4) 
-9.2699999999999996

>  <m_primary>  (4) 
energy

$$$$
4:0
     RDKit          3D

 34 36  0  0  0  0  0  0  0  0999 V2000
   58.4630   27.1180   45.5790 O   0  0  0  0  0  0  0  0  0  0  0  0
   57.3450   27.6850   45.7170 C   0  0  0  0  0  0  0  0  0  0  0  0
   56.1910   26.9110   46.0730 N   0  0  0  0  0  0  0  0  0  0  0  0
   55.9240   25.5510   45.6990 C   0  0  0  0  0  0  0  0  0  0  0  0
   54.5910   25.1280   45.6150 C   0  0  0  0  0  0  0  0  0  0  0  0
   54.2870   23.8170   45.2330 C   0  0  0  0  0  0  0  0  0  0  0  0
   55.3130   22.9240   44.9190 C   0  0  0  0  0  0  0  0  0  0  0  0
   56.6470   23.3430   44.9740 C   0  0  0  0  0  0  0  0  0  0  0  0
   57.9340   22.2290   44.5510 Cl  0  0  0  0  0  0  0  0  0  0  0  0
   56.9540   24.6540   45.3560 C   0  0  0  0  0  0  0  0  0  0  0  0
   57.2370   29.1620   45.5540 C   0  0  0  0  0  0  0  0  0  0  0  0
   56.1230   29.7460   44.9260 C   0  0  0  0  0  0  0  0  0  0  0  0
   55.0700   28.9710   44.4540 O   0  0  0  0  0  0  0  0  0  0  0  0
   56.0520   31.0910   44.7860 N   0  0  0  0  0  0  0  0  0  0  0  0
   57.0310   31.9080   45.2430 C   0  0  0  0  0  0  0  0  0  0  0  0
   56.9170   33.1520   45.0720 O   0  0  0  0  0  0  0  0  0  0  0  0
   58.1310   31.3850   45.8660 N   0  0  0  0  0  0  0  0  0  0  0  0
   59.1700   32.2620   46.3490 C   0  0  0  0  0  0  0  0  0  0  0  0
   59.7390   32.0570   47.6170 C   0  0  0  0  0  0  0  0  0  0  0  0
   60.7460   32.9090   48.0840 C   0  0  0  0  0  0  0  0  0  0  0  0
   61.1890   33.9700   47.2890 C   0  0  0  0  0  0  0  0  0  0  0  0
   60.6270   34.1810   46.0270 C   0  0  0  0  0  0  0  0  0  0  0  0
   59.6200   33.3310   45.5580 C   0  0  0  0  0  0  0  0  0  0  0  0
   58.2480   30.0270   46.0280 C   0  0  0  0  0  0  0  0  0  0  0  0
   59.2670   29.5490   46.6020 O   0  0  0  0  0  0  0  0  0  0  0  0
   53.7785   25.8310   45.8509 H   0  0  0  0  0  0  0  0  0  0  0  0
   53.2382   23.4894   45.1800 H   0  0  0  0  0  0  0  0  0  0  0  0
   55.0728   21.8907   44.6283 H   0  0  0  0  0  0  0  0  0  0  0  0
   58.0026   24.9846   45.3884 H   0  0  0  0  0  0  0  0  0  0  0  0
   59.3916   31.2235   48.2452 H   0  0  0  0  0  0  0  0  0  0  0  0
   61.1892   32.7438   49.0771 H   0  0  0  0  0  0  0  0  0  0  0  0
   61.9806   34.6393   47.6570 H   0  0  0  0  0  0  0  0  0  0  0  0
   60.9768   35.0160   45.4021 H   0  0  0  0  0  0  0  0  0  0  0  0
   59.1786   33.5009   44.5649 H   0  0  0  0  0  0  0  0  0  0  0  0
  1  2  2  0
  2  3  1  0
  3  4  1  0
  4  5  2  0
  5  6  1  0
  6  7  2  0
  7  8  1  0
  8  9  1  0
  8 10  2  0
  2 11  1  0
 11 12  2  0
 12 13  1  0
 12 14  1  0
 14 15  1  0
 15 16  2  0
 15 17  1  0
 17 18  1  0
 18 19  2  0
 19 20  1  0
 20 21  2  0
 21 22  1  0
 22 23  2  0
 17 24  1  0
 24 25  2  0
 10  4  1  0
 24 11  1  0
 23 18  1  0
  5 26  1  0
  6 27  1  0
  7 28  1  0
 10 29  1  0
 19 30  1  0
 20 31  1  0
 21 32  1  0
 22 33  1  0
 23 34  1  0
M  CHG  3   3  -1  13  -1  14  -1
M  END
>  <UniqueID>  (5) 
4

>  <SMILES>  (5) 
O=C([N-]c1cccc(Cl)c1)c1c([O-])[n-]c(=O)n(-c2ccccc2)c1=O

>  <Energy>  (5) 
56.490212613396174

>  <Genealogy>  (5) 
O=C([N-]c1cccc(Cl)c1)c1c([O-])[n-]c(=O)n(-c2ccccc2)c1=O (protonated)
O=C([N-]c1cccc(Cl)c1)c1c([O-])[n-]c(=O)n(-c2ccccc2)c1=O (3D coordinates assigned)
O=C([N-]c1cccc(Cl)c1)c1c([O-])[n-]c(=O)n(-c2ccccc2)c1=O (optimized conformer: 56.490212613396174 kcal/mol)

>  <smiles>  (5) 
O=C(Nc1cccc(Cl)c1)c1c(O)[nH]c(=O)n(-c2ccccc2)c1=O

>  <score_type>  (5) 
oracle

>  <origin>  (5) 
adg

>  <m_score__min__energy>  (5) 
-13.720000000000001

>  <m_primary>  (5) 
energy

$$$$
5:0
     RDKit          3D

 60 63  0  0  0  0  0  0  0  0999 V2000
   68.4910   34.8340   50.7980 C   0  0  0  0  0  0  0  0  0  0  0  0
   68.4140   33.5330   50.5150 C   0  0  0  0  0  0  0  0  0  0  0  0
   67.1750   32.7260   50.6360 C   0  0  0  0  0  0  0  0  0  0  0  0
   67.1150   31.7220   51.6130 C   0  0  0  0  0  0  0  0  0  0  0  0
   65.9950   30.9660   51.7600 N   0  0  0  0  0  0  0  0  0  0  0  0
   64.8970   31.1590   50.9830 C   0  0  0  0  0  0  0  0  0  0  0  0
   64.8890   32.1580   49.9970 C   0  0  0  0  0  0  0  0  0  0  0  0
   63.6880   32.3790   49.1520 C   0  0  0  0  0  0  0  0  0  0  0  0
   63.5020   33.6000   48.4890 C   0  0  0  0  0  0  0  0  0  0  0  0
   62.3820   33.8050   47.6860 C   0  0  0  0  0  0  0  0  0  0  0  0
   61.4180   32.7980   47.5160 C   0  0  0  0  0  0  0  0  0  0  0  0
   60.2120   33.1180   46.6360 C   0  0  0  0  0  0  0  0  0  0  0  0
   58.9150   33.4370   47.3770 C   0  0  0  0  0  0  0  0  0  0  0  0
   58.9000   34.8240   46.7420 C   0  0  0  0  0  0  0  0  0  0  0  0
   60.2050   34.5130   46.0150 C   0  0  0  0  0  0  0  0  0  0  0  0
   61.5980   31.5540   48.1730 C   0  0  0  0  0  0  0  0  0  0  0  0
   60.6430   30.5380   47.9880 O   0  0  0  0  0  0  0  0  0  0  0  0
   60.7490   29.4070   47.1210 C   0  0  0  0  0  0  0  0  0  0  0  0
   60.1760   29.6960   45.7280 C   0  0  0  0  0  0  0  0  0  0  0  0
   58.8560   30.3640   45.8160 N   0  0  0  0  0  0  0  0  0  0  0  0
   58.5240   31.0620   44.5500 C   0  0  0  0  0  0  0  0  0  0  0  0
   57.0180   31.3500   44.4400 C   0  0  0  0  0  0  0  0  0  0  0  0
   56.2040   30.1090   44.4750 N   0  0  0  0  0  0  0  0  0  0  0  0
   55.7510   29.7250   43.1290 C   0  0  0  0  0  0  0  0  0  0  0  0
   56.8870   28.9700   45.1320 C   0  0  0  0  0  0  0  0  0  0  0  0
   57.7810   29.4500   46.2820 C   0  0  0  0  0  0  0  0  0  0  0  0
   62.7290   31.3660   48.9950 C   0  0  0  0  0  0  0  0  0  0  0  0
   66.0410   32.9450   49.8340 C   0  0  0  0  0  0  0  0  0  0  0  0
   69.4469   35.3661   50.6836 H   0  0  0  0  0  0  0  0  0  0  0  0
   67.5986   35.3750   51.1458 H   0  0  0  0  0  0  0  0  0  0  0  0
   69.3272   33.0261   50.1699 H   0  0  0  0  0  0  0  0  0  0  0  0
   67.9820   31.5446   52.2663 H   0  0  0  0  0  0  0  0  0  0  0  0
   65.9790   30.2170   52.4880 H   0  0  0  0  0  0  0  0  0  0  0  0
   64.0079   30.5277   51.1278 H   0  0  0  0  0  0  0  0  0  0  0  0
   64.2458   34.4023   48.6036 H   0  0  0  0  0  0  0  0  0  0  0  0
   62.2507   34.7712   47.1769 H   0  0  0  0  0  0  0  0  0  0  0  0
   60.2744   32.2256   45.9959 H   0  0  0  0  0  0  0  0  0  0  0  0
   58.0646   32.8013   47.0895 H   0  0  0  0  0  0  0  0  0  0  0  0
   58.8528   33.3220   48.4692 H   0  0  0  0  0  0  0  0  0  0  0  0
   58.0454   35.0010   46.0725 H   0  0  0  0  0  0  0  0  0  0  0  0
   58.8169   35.7215   47.3725 H   0  0  0  0  0  0  0  0  0  0  0  0
   60.1209   34.5168   44.9182 H   0  0  0  0  0  0  0  0  0  0  0  0
   61.0759   35.1764   46.1220 H   0  0  0  0  0  0  0  0  0  0  0  0
   61.8101   29.1355   47.0193 H   0  0  0  0  0  0  0  0  0  0  0  0
   60.1687   28.5839   47.5633 H   0  0  0  0  0  0  0  0  0  0  0  0
   60.8726   30.3497   45.1827 H   0  0  0  0  0  0  0  0  0  0  0  0
   60.0462   28.7393   45.2009 H   0  0  0  0  0  0  0  0  0  0  0  0
   59.0731   32.0144   44.5130 H   0  0  0  0  0  0  0  0  0  0  0  0
   58.8114   30.4097   43.7122 H   0  0  0  0  0  0  0  0  0  0  0  0
   56.7184   31.9936   45.2803 H   0  0  0  0  0  0  0  0  0  0  0  0
   56.8390   31.8432   43.4732 H   0  0  0  0  0  0  0  0  0  0  0  0
   54.9143   29.0158   43.2122 H   0  0  0  0  0  0  0  0  0  0  0  0
   55.4192   30.6212   42.5842 H   0  0  0  0  0  0  0  0  0  0  0  0
   56.5808   29.2510   42.5842 H   0  0  0  0  0  0  0  0  0  0  0  0
   56.1298   28.2786   45.5303 H   0  0  0  0  0  0  0  0  0  0  0  0
   57.5186   28.4647   44.3865 H   0  0  0  0  0  0  0  0  0  0  0  0
   57.1580   29.9817   47.0163 H   0  0  0  0  0  0  0  0  0  0  0  0
   58.2603   28.5659   46.7276 H   0  0  0  0  0  0  0  0  0  0  0  0
   62.8616   30.4095   49.5218 H   0  0  0  0  0  0  0  0  0  0  0  0
   66.0561   33.7390   49.0728 H   0  0  0  0  0  0  0  0  0  0  0  0
  1  2  2  0
  2  3  1  0
  3  4  2  0
  4  5  1  0
  5  6  2  0
  6  7  1  0
  7  8  1  0
  8  9  2  0
  9 10  1  0
 10 11  2  0
 11 12  1  0
 12 13  1  0
 13 14  1  0
 14 15  1  0
 11 16  1  0
 16 17  1  0
 17 18  1  0
 18 19  1  0
 19 20  1  0
 20 21  1  0
 21 22  1  0
 22 23  1  0
 23 24  1  0
 23 25  1  0
 25 26  1  0
 16 27  2  0
  7 28  2  0
 28  3  1  0
 27  8  1  0
 15 12  1  0
 26 20  1  0
  1 29  1  0
  1 30  1  0
  2 31  1  0
  4 32  1  0
  5 33  1  0
  6 34  1  0
  9 35  1  0
 10 36  1  0
 12 37  1  0
 13 38  1  0
 13 39  1  0
 14 40  1  0
 14 41  1  0
 15 42  1  0
 15 43  1  0
 18 44  1  0
 18 45  1  0
 19 46  1  0
 19 47  1  0
 21 48  1  0
 21 49  1  0
 22 50  1  0
 22 51  1  0
 24 52  1  0
 24 53  1  0
 24 54  1  0
 25 55  1  0
 25 56  1  0
 26 57  1  0
 26 58  1  0
 27 59  1  0
 28 60  1  0
M  CHG  1   5   1
M  END
>  <UniqueID>  (6) 
5

>  <SMILES>  (6) 
C=Cc1c[nH+]cc(-c2ccc(C3CCC3)c(OCCN3CCN(C)CC3)c2)c1

>  <Energy>  (6) 
142.59148836231793

>  <Genealogy>  (6) 
C=Cc1c[nH+]cc(-c2ccc(C3CCC3)c(OCCN3CCN(C)CC3)c2)c1 (protonated)
C=Cc1c[nH+]cc(-c2ccc(C3CCC3)c(OCCN3CCN(C)CC3)c2)c1 (3D coordinates assigned)
C=Cc1c[nH+]cc(-c2ccc(C3CCC3)c(OCCN3CCN(C)CC3)c2)c1 (nonaromatic ring conformer: 142.59148836231793 kcal/mol)

>  <smiles>  (6) 
C=Cc1cncc(-c2ccc(C3CCC3)c(OCCN3CCN(C)CC3)c2)c1

>  <score_type>  (6) 
oracle

>  <origin>  (6) 
adg

>  <m_score__min__energy>  (6) 
-7.46

>  <m_primary>  (6) 
energy

$$$$
6:0
     RDKit          3D

 46 48  0  0  0  0  0  0  0  0999 V2000
   55.1890   28.2130   44.8650 H   0  0  0  0  0  0  0  0  0  0  0  0
   55.4620   29.2190   44.8050 N   0  0  0  0  0  0  0  0  0  0  0  0
   56.4700   29.6090   44.0910 C   0  0  0  0  0  0  0  0  0  0  0  0
   57.2260   30.8200   44.4940 C   0  0  0  0  0  0  0  0  0  0  0  0
   57.7450   30.9350   45.7970 C   0  0  0  0  0  0  0  0  0  0  0  0
   57.6023   30.1142   46.5153 H   0  0  0  0  0  0  0  0  0  0  0  0
   58.4400   32.0830   46.1860 C   0  0  0  0  0  0  0  0  0  0  0  0
   58.8152   32.1731   47.2161 H   0  0  0  0  0  0  0  0  0  0  0  0
   58.6610   33.1190   45.2710 C   0  0  0  0  0  0  0  0  0  0  0  0
   59.3480   34.2950   45.7140 N   0  0  0  0  0  0  0  0  0  0  0  0
   60.3790   34.3470   46.7120 C   0  0  0  0  0  0  0  0  0  0  0  0
   60.0900   34.6390   47.9010 O   0  0  0  0  0  0  0  0  0  0  0  0
   61.7870   34.0480   46.3810 C   0  0  0  0  0  0  0  0  0  0  0  0
   62.2418   34.6348   45.5693 H   0  0  0  0  0  0  0  0  0  0  0  0
   62.5660   33.1290   46.9750 C   0  0  0  0  0  0  0  0  0  0  0  0
   63.6532   33.2261   46.8384 H   0  0  0  0  0  0  0  0  0  0  0  0
   62.0870   32.0020   47.7940 C   0  0  0  0  0  0  0  0  0  0  0  0
   61.2190   31.0900   47.2730 N   0  0  0  0  0  0  0  0  0  0  0  0
   60.7570   30.0270   47.9890 C   0  0  0  0  0  0  0  0  0  0  0  0
   59.7980   29.0880   47.3560 C   0  0  0  0  0  0  0  0  0  0  0  0
   59.9200   28.7230   46.0040 C   0  0  0  0  0  0  0  0  0  0  0  0
   60.7434   29.1323   45.4003 H   0  0  0  0  0  0  0  0  0  0  0  0
   59.0030   27.8440   45.4210 C   0  0  0  0  0  0  0  0  0  0  0  0
   59.1097   27.5692   44.3612 H   0  0  0  0  0  0  0  0  0  0  0  0
   57.9460   27.3080   46.1760 C   0  0  0  0  0  0  0  0  0  0  0  0
   56.9520   26.4100   45.5410 C   0  0  0  0  0  0  0  0  0  0  0  0
   57.3230   25.5530   44.6950 O   0  0  0  0  0  0  0  0  0  0  0  0
   55.5670   26.5190   45.8570 N   0  0  0  0  0  0  0  0  0  0  0  0
   55.1320   27.4520   46.0330 H   0  0  0  0  0  0  0  0  0  0  0  0
   57.8390   27.6540   47.5330 C   0  0  0  0  0  0  0  0  0  0  0  0
   57.0262   27.2307   48.1414 H   0  0  0  0  0  0  0  0  0  0  0  0
   58.7570   28.5320   48.1170 C   0  0  0  0  0  0  0  0  0  0  0  0
   58.6630   28.7896   49.1823 H   0  0  0  0  0  0  0  0  0  0  0  0
   61.2130   29.8400   49.3050 C   0  0  0  0  0  0  0  0  0  0  0  0
   60.8520   28.9889   49.9011 H   0  0  0  0  0  0  0  0  0  0  0  0
   62.1280   30.7430   49.8500 C   0  0  0  0  0  0  0  0  0  0  0  0
   62.4962   30.6006   50.8767 H   0  0  0  0  0  0  0  0  0  0  0  0
   62.5750   31.8250   49.0930 C   0  0  0  0  0  0  0  0  0  0  0  0
   63.3046   32.5329   49.5132 H   0  0  0  0  0  0  0  0  0  0  0  0
   58.1490   33.0110   43.9680 C   0  0  0  0  0  0  0  0  0  0  0  0
   58.3081   33.8268   43.2475 H   0  0  0  0  0  0  0  0  0  0  0  0
   57.4380   31.8710   43.5830 C   0  0  0  0  0  0  0  0  0  0  0  0
   57.0411   31.7949   42.5599 H   0  0  0  0  0  0  0  0  0  0  0  0
   56.8180   28.8870   42.9020 N   0  0  0  0  0  0  0  0  0  0  0  0
   57.5220   29.2600   42.2250 H   0  0  0  0  0  0  0  0  0  0  0  0
   56.3190   28.0050   42.6480 H   0  0  0  0  0  0  0  0  0  0  0  0
  1  2  1  0
  2  3  2  0
  3  4  1  0
  4  5  2  0
  5  6  1  0
  5  7  1  0
  7  8  1  0
  7  9  2  0
  9 10  1  0
 10 11  1  0
 11 12  2  0
 11 13  1  0
 13 14  1  0
 13 15  2  3
 15 16  1  0
 15 17  1  0
 17 18  2  0
 18 19  1  0
 19 20  1  0
 20 21  2  0
 21 22  1  0
 21 23  1  0
 23 24  1  0
 23 25  2  0
 25 26  1  0
 26 27  2  0
 26 28  1  0
 28 29  1  0
 25 30  1  0
 30 31  1  0
 30 32  2  0
 32 33  1  0
 19 34  2  0
 34 35  1  0
 34 36  1  0
 36 37  1  0
 36 38  2  0
 38 39  1  0
  9 40  1  0
 40 41  1  0
 40 42  2  0
 42 43  1  0
  3 44  1  0
 44 45  1  0
 44 46  1  0
 42  4  1  0
 38 17  1  0
 32 20  1  0
M  CHG  2  10  -1  28  -1
M  END
>  <UniqueID>  (7) 
6

>  <SMILES>  (7) 
[H]/N=C(\N)c1ccc([N-]C(=O)C=Cc2cccc(-c3ccc(C([NH-])=O)cc3)n2)cc1

>  <Energy>  (7) 
63.50189273054145

>  <Genealogy>  (7) 
N=C(N)c1ccc([N-]C(=O)C=Cc2cccc(-c3ccc(C([NH-])=O)cc3)n2)cc1 (protonated)
[H]/N=C(\N)c1ccc([N-]C(=O)C=Cc2cccc(-c3ccc(C([NH-])=O)cc3)n2)cc1 (cis-trans isomerization)
[H]/N=C(\N)c1ccc([N-]C(=O)C=Cc2cccc(-c3ccc(C([NH-])=O)cc3)n2)cc1 (3D coordinates assigned)
[H]/N=C(\N)c1ccc([N-]C(=O)C=Cc2cccc(-c3ccc(C([NH-])=O)cc3)n2)cc1 (optimized conformer: 63.50189273054145 kcal/mol)

>  <smiles>  (7) 
N=C(N)c1ccc(NC(=O)C=Cc2cccc(-c3ccc(C(N)=O)cc3)n2)cc1

>  <score_type>  (7) 
oracle

>  <origin>  (7) 
adg

>  <m_score__min__energy>  (7) 
-12.75

>  <m_primary>  (7) 
energy

$$$$
7:0
     RDKit          3D

 55 58  0  0  1  0  0  0  0  0999 V2000
   58.4760   34.3650   45.1940 C   0  0  0  0  0  0  0  0  0  0  0  0
   58.5670   33.2020   46.1500 C   0  0  1  0  0  0  0  0  0  0  0  0
   58.8850   32.0040   45.3930 N   0  0  0  0  0  0  0  0  0  0  0  0
   57.8030   31.2730   44.8070 C   0  0  0  0  0  0  0  0  0  0  0  0
   56.6110   31.6620   44.9480 O   0  0  0  0  0  0  0  0  0  0  0  0
   58.0040   30.0870   44.0470 N   0  0  0  0  0  0  0  0  0  0  0  0
   57.7680   28.9330   44.5660 C   0  0  0  0  0  0  0  0  0  0  0  0
   56.5400   28.5860   45.0910 C   0  0  0  0  0  0  0  0  0  0  0  0
   56.4170   27.3170   45.6190 C   0  0  0  0  0  0  0  0  0  0  0  0
   55.3610   26.7090   46.1890 N   0  0  0  0  0  0  0  0  0  0  0  0
   55.7120   25.4850   46.5480 N   0  0  0  0  0  0  0  0  0  0  0  0
   57.0140   25.2540   46.2230 C   0  0  0  0  0  0  0  0  0  0  0  0
   57.7510   24.0870   46.4380 O   0  0  0  0  0  0  0  0  0  0  0  0
   58.3750   23.4860   45.3090 C   0  0  0  0  0  0  0  0  0  0  0  0
   58.1350   21.9840   45.3640 C   0  0  0  0  0  0  0  0  0  0  0  0
   56.7010   21.7280   45.0330 C   0  0  2  0  0  0  0  0  0  0  0  0
   56.5640   20.8400   43.7890 C   0  0  0  0  0  0  0  0  0  0  0  0
   56.8190   21.8530   42.6940 C   0  0  0  0  0  0  0  0  0  0  0  0
   56.1040   23.0800   43.2390 C   0  0  0  0  0  0  0  0  0  0  0  0
   55.9490   22.8800   44.6440 N   0  0  0  0  0  0  0  0  0  0  0  0
   57.4660   26.4350   45.6240 C   0  0  0  0  0  0  0  0  0  0  0  0
   58.6840   26.8120   45.0910 C   0  0  0  0  0  0  0  0  0  0  0  0
   58.8100   28.0550   44.5730 N   0  0  0  0  0  0  0  0  0  0  0  0
   59.6250   33.4870   47.1820 C   0  0  0  0  0  0  0  0  0  0  0  0
   60.9460   33.5080   46.7920 C   0  0  0  0  0  0  0  0  0  0  0  0
   61.9920   33.7580   47.6550 C   0  0  0  0  0  0  0  0  0  0  0  0
   61.6560   33.9960   48.9780 C   0  0  0  0  0  0  0  0  0  0  0  0
   62.9720   34.3210   50.1140 Cl  0  0  0  0  0  0  0  0  0  0  0  0
   60.3430   33.9750   49.3660 C   0  0  0  0  0  0  0  0  0  0  0  0
   59.2970   33.7240   48.4950 C   0  0  0  0  0  0  0  0  0  0  0  0
   58.4026   35.3031   45.7637 H   0  0  0  0  0  0  0  0  0  0  0  0
   59.3749   34.3901   44.5605 H   0  0  0  0  0  0  0  0  0  0  0  0
   57.5841   34.2500   44.5605 H   0  0  0  0  0  0  0  0  0  0  0  0
   57.6102   33.0514   46.6714 H   0  0  0  0  0  0  0  0  0  0  0  0
   59.8670   31.6700   45.2690 H   0  0  0  0  0  0  0  0  0  0  0  0
   55.6954   29.2907   45.0887 H   0  0  0  0  0  0  0  0  0  0  0  0
   54.3970   27.0920   46.3480 H   0  0  0  0  0  0  0  0  0  0  0  0
   57.9431   23.8967   44.3845 H   0  0  0  0  0  0  0  0  0  0  0  0
   59.4549   23.6947   45.3210 H   0  0  0  0  0  0  0  0  0  0  0  0
   58.7821   21.4765   44.6334 H   0  0  0  0  0  0  0  0  0  0  0  0
   58.3680   21.5985   46.3676 H   0  0  0  0  0  0  0  0  0  0  0  0
   56.3254   21.2938   45.9713 H   0  0  0  0  0  0  0  0  0  0  0  0
   57.3143   20.0356   43.7802 H   0  0  0  0  0  0  0  0  0  0  0  0
   55.6027   20.3114   43.7081 H   0  0  0  0  0  0  0  0  0  0  0  0
   57.8950   22.0405   42.5635 H   0  0  0  0  0  0  0  0  0  0  0  0
   56.4687   21.5356   41.7007 H   0  0  0  0  0  0  0  0  0  0  0  0
   56.7036   23.9825   43.0493 H   0  0  0  0  0  0  0  0  0  0  0  0
   55.1277   23.2160   42.7507 H   0  0  0  0  0  0  0  0  0  0  0  0
   56.0270   23.7070   45.2430 H   0  0  0  0  0  0  0  0  0  0  0  0
   59.5346   26.1146   45.0881 H   0  0  0  0  0  0  0  0  0  0  0  0
   59.7360   28.3110   44.1790 H   0  0  0  0  0  0  0  0  0  0  0  0
   61.1791   33.3148   45.7345 H   0  0  0  0  0  0  0  0  0  0  0  0
   63.0370   33.7680   47.3116 H   0  0  0  0  0  0  0  0  0  0  0  0
   60.1077   34.1673   50.4232 H   0  0  0  0  0  0  0  0  0  0  0  0
   58.2519   33.7147   48.8380 H   0  0  0  0  0  0  0  0  0  0  0  0
  1  2  1  0
  2  3  1  0
  3  4  1  0
  4  5  2  0
  4  6  1  0
  6  7  2  0
  7  8  1  0
  8  9  2  0
  9 10  1  0
 10 11  1  0
 11 12  2  0
 12 13  1  0
 13 14  1  0
 14 15  1  0
 15 16  1  0
 16 17  1  0
 17 18  1  0
 18 19  1  0
 19 20  1  0
 12 21  1  0
 21 22  2  0
 22 23  1  0
  2 24  1  0
 24 25  2  0
 25 26  1  0
 26 27  2  0
 27 28  1  0
 27 29  1  0
 29 30  2  0
 23  7  1  0
 30 24  1  0
 21  9  1  0
 20 16  1  0
  1 31  1  0
  1 32  1  0
  1 33  1  0
  2 34  1  1
  3 35  1  0
  8 36  1  0
 10 37  1  0
 14 38  1  0
 14 39  1  0
 15 40  1  0
 15 41  1  0
 16 42  1  1
 17 43  1  0
 17 44  1  0
 18 45  1  0
 18 46  1  0
 19 47  1  0
 19 48  1  0
 20 49  1  0
 22 50  1  0
 23 51  1  0
 25 52  1  0
 26 53  1  0
 29 54  1  0
 30 55  1  0
M  END
>  <smiles>  (8) 
CC(NC(=O)N=c1cc2[nH]nc(OCCC3CCCN3)c2c[nH]1)c1ccc(Cl)cc1

>  <score_type>  (8) 
oracle

>  <origin>  (8) 
adg

>  <m_score__min__energy>  (8) 
-9.4900000000000002

>  <m_primary>  (8) 
energy

$$$$
8:0
     RDKit          3D

 40 42  0  0  0  0  0  0  0  0999 V2000
   53.7230   28.6250   52.3790 O   0  0  0  0  0  0  0  0  0  0  0  0
   53.5740   29.8510   52.1380 C   0  0  0  0  0  0  0  0  0  0  0  0
   52.2490   30.3500   51.8970 N   0  0  0  0  0  0  0  0  0  0  0  0
   51.6140   31.2240   52.6240 C   0  0  0  0  0  0  0  0  0  0  0  0
   51.5270   31.0830   53.9790 N   0  0  0  0  0  0  0  0  0  0  0  0
   50.8510   31.9700   54.7550 C   0  0  0  0  0  0  0  0  0  0  0  0
   50.2080   33.0620   54.1700 C   0  0  0  0  0  0  0  0  0  0  0  0
   50.2670   33.2260   52.7850 C   0  0  0  0  0  0  0  0  0  0  0  0
   50.9680   32.3050   52.0030 C   0  0  0  0  0  0  0  0  0  0  0  0
   51.0220   32.4670   50.6230 O   0  0  0  0  0  0  0  0  0  0  0  0
   54.7670   30.7100   52.0290 C   0  0  0  0  0  0  0  0  0  0  0  0
   54.6430   31.9650   52.0120 O   0  0  0  0  0  0  0  0  0  0  0  0
   56.0640   30.1040   51.9570 N   0  0  0  0  0  0  0  0  0  0  0  0
   57.3020   30.7610   51.6450 C   0  0  0  0  0  0  0  0  0  0  0  0
   57.8230   31.6800   52.5630 C   0  0  0  0  0  0  0  0  0  0  0  0
   59.0340   32.3270   52.3070 C   0  0  0  0  0  0  0  0  0  0  0  0
   59.7500   32.0390   51.1430 C   0  0  0  0  0  0  0  0  0  0  0  0
   59.2710   31.0860   50.2370 C   0  0  0  0  0  0  0  0  0  0  0  0
   60.0400   30.8020   49.0590 N   0  0  0  0  0  0  0  0  0  0  0  0
   59.5790   30.1210   47.8840 C   0  0  0  0  0  0  0  0  0  0  0  0
   59.7010   28.8690   47.8270 O   0  0  0  0  0  0  0  0  0  0  0  0
   58.9220   30.8370   46.7640 C   0  0  0  0  0  0  0  0  0  0  0  0
   58.0440   30.1500   45.9080 C   0  0  0  0  0  0  0  0  0  0  0  0
   57.4330   30.8160   44.8390 C   0  0  0  0  0  0  0  0  0  0  0  0
   56.3540   29.9450   43.7650 Cl  0  0  0  0  0  0  0  0  0  0  0  0
   57.6870   32.1740   44.6240 C   0  0  0  0  0  0  0  0  0  0  0  0
   58.5450   32.8700   45.4810 C   0  0  0  0  0  0  0  0  0  0  0  0
   58.8560   34.5750   45.2140 Cl  0  0  0  0  0  0  0  0  0  0  0  0
   59.1550   32.2070   46.5510 C   0  0  0  0  0  0  0  0  0  0  0  0
   58.0350   30.4600   50.4820 C   0  0  0  0  0  0  0  0  0  0  0  0
   50.8104   31.8274   55.8450 H   0  0  0  0  0  0  0  0  0  0  0  0
   49.6611   33.7850   54.7931 H   0  0  0  0  0  0  0  0  0  0  0  0
   49.7619   34.0798   52.3098 H   0  0  0  0  0  0  0  0  0  0  0  0
   57.2750   31.8942   53.4924 H   0  0  0  0  0  0  0  0  0  0  0  0
   59.4245   33.0647   53.0234 H   0  0  0  0  0  0  0  0  0  0  0  0
   60.6947   32.5636   50.9374 H   0  0  0  0  0  0  0  0  0  0  0  0
   57.8359   29.0835   46.0790 H   0  0  0  0  0  0  0  0  0  0  0  0
   57.2115   32.6952   43.7801 H   0  0  0  0  0  0  0  0  0  0  0  0
   59.8207   32.7606   47.2295 H   0  0  0  0  0  0  0  0  0  0  0  0
   57.6391   29.7307   49.7599 H   0  0  0  0  0  0  0  0  0  0  0  0
  1  2  2  0
  2  3  1  0
  3  4  2  3
  4  5  1  0
  5  6  1  0
  6  7  2  0
  7  8  1  0
  8  9  2  0
  9 10  1  0
  2 11  1  0
 11 12  2  0
 11 13  1  0
 13 14  1  0
 14 15  2  0
 15 16  1  0
 16 17  2  0
 17 18  1  0
 18 19  1  0
 19 20  1  0
 20 21  2  0
 20 22  1  0
 22 23  2  0
 23 24  1  0
 24 25  1  0
 24 26  2  0
 26 27  1  0
 27 28  1  0
 27 29  2  0
 18 30  2  0
  9  4  1  0
 30 14  1  0
 29 22  1  0
  6 31  1  0
  7 32  1  0
  8 33  1  0
 15 34  1  0
 16 35  1  0
 17 36  1  0
 23 37  1  0
 26 38  1  0
 29 39  1  0
 30 40  1  0
M  CHG  4   5  -1  10  -1  13  -1  19  -1
M  END
>  <UniqueID>  (9) 
7

>  <SMILES>  (9) 
O=C(N=c1[n-]cccc1[O-])C(=O)[N-]c1cccc([N-]C(=O)c2cc(Cl)cc(Cl)c2)c1

>  <Energy>  (9) 
59.73349303322971

>  <Genealogy>  (9) 
O=C(N=c1[n-]cccc1[O-])C(=O)[N-]c1cccc([N-]C(=O)c2cc(Cl)cc(Cl)c2)c1 (protonated)
O=C(N=c1[n-]cccc1[O-])C(=O)[N-]c1cccc([N-]C(=O)c2cc(Cl)cc(Cl)c2)c1 (3D coordinates assigned)
O=C(N=c1[n-]cccc1[O-])C(=O)[N-]c1cccc([N-]C(=O)c2cc(Cl)cc(Cl)c2)c1 (optimized conformer: 59.73349303322971 kcal/mol)

>  <smiles>  (9) 
O=C(N=c1[nH]cccc1O)C(=O)Nc1cccc(NC(=O)c2cc(Cl)cc(Cl)c2)c1

>  <score_type>  (9) 
oracle

>  <origin>  (9) 
adg

>  <m_score__min__energy>  (9) 
-16.239999999999998

>  <m_primary>  (9) 
energy

$$$$
9:0
     RDKit          3D

 71 74  0  0  0  0  0  0  0  0999 V2000
   57.6930   24.8100   44.4060 C   0  0  0  0  0  0  0  0  0  0  0  0
   58.3590   25.8980   45.1250 N   0  0  0  0  0  0  0  0  0  0  0  0
   59.3580   25.5780   46.1490 C   0  0  0  0  0  0  0  0  0  0  0  0
   58.8620   25.9720   47.5420 C   0  0  0  0  0  0  0  0  0  0  0  0
   59.7300   27.0620   48.0920 C   0  0  0  0  0  0  0  0  0  0  0  0
   60.9800   26.8970   48.1330 O   0  0  0  0  0  0  0  0  0  0  0  0
   59.1380   28.2440   48.6470 N   0  0  0  0  0  0  0  0  0  0  0  0
   59.8070   29.0340   49.6770 C   0  0  0  0  0  0  0  0  0  0  0  0
   60.7590   30.0150   49.0330 C   0  0  0  0  0  0  0  0  0  0  0  0
   60.4600   30.4900   47.7450 C   0  0  0  0  0  0  0  0  0  0  0  0
   61.2930   31.4190   47.1180 C   0  0  0  0  0  0  0  0  0  0  0  0
   62.4290   31.8940   47.7770 C   0  0  0  0  0  0  0  0  0  0  0  0
   63.4810   33.0570   46.9900 Cl  0  0  0  0  0  0  0  0  0  0  0  0
   62.7330   31.4400   49.0630 C   0  0  0  0  0  0  0  0  0  0  0  0
   61.9090   30.5040   49.6980 C   0  0  0  0  0  0  0  0  0  0  0  0
   62.3660   29.9690   51.3110 Cl  0  0  0  0  0  0  0  0  0  0  0  0
   58.0870   27.2730   44.7890 C   0  0  0  0  0  0  0  0  0  0  0  0
   57.9360   27.6050   43.5840 O   0  0  0  0  0  0  0  0  0  0  0  0
   57.9100   28.3160   45.8620 C   0  0  0  0  0  0  0  0  0  0  0  0
   57.4580   29.5750   45.2660 N   0  0  0  0  0  0  0  0  0  0  0  0
   58.2390   30.6310   44.9610 C   0  0  0  0  0  0  0  0  0  0  0  0
   57.5080   31.5480   44.2260 C   0  0  0  0  0  0  0  0  0  0  0  0
   58.0620   32.7110   43.5170 C   0  0  0  0  0  0  0  0  0  0  0  0
   58.2340   32.6520   42.2720 O   0  0  0  0  0  0  0  0  0  0  0  0
   58.4250   33.9060   44.2180 N   0  0  0  0  0  0  0  0  0  0  0  0
   58.8110   33.9620   45.6000 C   0  0  0  0  0  0  0  0  0  0  0  0
   58.0180   33.3930   46.6100 C   0  0  0  0  0  0  0  0  0  0  0  0
   58.4430   33.4190   47.9390 C   0  0  0  0  0  0  0  0  0  0  0  0
   59.6530   34.0420   48.2870 C   0  0  0  0  0  0  0  0  0  0  0  0
   60.1090   34.0620   49.6960 C   0  0  0  0  0  0  0  0  0  0  0  0
   61.3310   34.2360   49.9520 O   0  0  0  0  0  0  0  0  0  0  0  0
   59.1860   33.9530   50.7880 N   0  0  0  0  0  0  0  0  0  0  0  0
   58.8310   32.7340   51.4640 C   0  0  0  0  0  0  0  0  0  0  0  0
   57.5920   32.1100   51.2260 C   0  0  0  0  0  0  0  0  0  0  0  0
   57.2680   30.9130   51.8680 C   0  0  0  0  0  0  0  0  0  0  0  0
   58.1820   30.3190   52.7370 C   0  0  0  0  0  0  0  0  0  0  0  0
   59.4250   30.9160   52.9660 C   0  0  0  0  0  0  0  0  0  0  0  0
   59.7590   32.1220   52.3310 C   0  0  0  0  0  0  0  0  0  0  0  0
   61.0370   32.7210   52.5870 N   0  0  0  0  0  0  0  0  0  0  0  0
   60.4110   34.6690   47.2840 C   0  0  0  0  0  0  0  0  0  0  0  0
   59.9910   34.6280   45.9510 C   0  0  0  0  0  0  0  0  0  0  0  0
   56.2220   31.0520   44.1090 C   0  0  0  0  0  0  0  0  0  0  0  0
   56.2340   29.8410   44.7660 C   0  0  0  0  0  0  0  0  0  0  0  0
   55.1470   28.9800   44.8650 O   0  0  0  0  0  0  0  0  0  0  0  0
   57.2604   24.1033   45.1294 H   0  0  0  0  0  0  0  0  0  0  0  0
   56.8931   25.2236   43.7742 H   0  0  0  0  0  0  0  0  0  0  0  0
   58.4252   24.2858   43.7742 H   0  0  0  0  0  0  0  0  0  0  0  0
   59.5577   24.4964   46.1310 H   0  0  0  0  0  0  0  0  0  0  0  0
   60.2761   26.1434   45.9313 H   0  0  0  0  0  0  0  0  0  0  0  0
   57.8239   26.3293   47.4740 H   0  0  0  0  0  0  0  0  0  0  0  0
   58.9062   25.0974   48.2076 H   0  0  0  0  0  0  0  0  0  0  0  0
   58.1460   28.4770   48.4110 H   0  0  0  0  0  0  0  0  0  0  0  0
   59.0547   29.5849   50.2606 H   0  0  0  0  0  0  0  0  0  0  0  0
   60.3718   28.3621   50.3400 H   0  0  0  0  0  0  0  0  0  0  0  0
   59.5611   30.1266   47.2255 H   0  0  0  0  0  0  0  0  0  0  0  0
   61.0545   31.7765   46.1054 H   0  0  0  0  0  0  0  0  0  0  0  0
   63.6262   31.8210   49.5798 H   0  0  0  0  0  0  0  0  0  0  0  0
   57.1616   27.9676   46.5890 H   0  0  0  0  0  0  0  0  0  0  0  0
   58.8727   28.4808   46.3681 H   0  0  0  0  0  0  0  0  0  0  0  0
   59.2937   30.7459   45.2514 H   0  0  0  0  0  0  0  0  0  0  0  0
   57.0568   32.9244   46.3521 H   0  0  0  0  0  0  0  0  0  0  0  0
   57.8265   32.9486   48.7191 H   0  0  0  0  0  0  0  0  0  0  0  0
   56.8742   32.5683   50.5297 H   0  0  0  0  0  0  0  0  0  0  0  0
   56.2918   30.4389   51.6881 H   0  0  0  0  0  0  0  0  0  0  0  0
   57.9242   29.3775   53.2441 H   0  0  0  0  0  0  0  0  0  0  0  0
   60.1446   30.4383   53.6471 H   0  0  0  0  0  0  0  0  0  0  0  0
   61.6340   32.3880   53.3770 H   0  0  0  0  0  0  0  0  0  0  0  0
   61.4090   33.4980   51.9960 H   0  0  0  0  0  0  0  0  0  0  0  0
   61.3400   35.1951   47.5488 H   0  0  0  0  0  0  0  0  0  0  0  0
   60.5917   35.1222   45.1733 H   0  0  0  0  0  0  0  0  0  0  0  0
   55.3696   31.5247   43.5990 H   0  0  0  0  0  0  0  0  0  0  0  0
  1  2  1  0
  2  3  1  0
  3  4  1  0
  4  5  1  0
  5  6  2  0
  5  7  1  0
  7  8  1  0
  8  9  1  0
  9 10  2  0
 10 11  1  0
 11 12  2  0
 12 13  1  0
 12 14  1  0
 14 15  2  0
 15 16  1  0
  2 17  1  0
 17 18  2  0
 17 19  1  0
 19 20  1  0
 20 21  1  0
 21 22  2  0
 22 23  1  0
 23 24  2  0
 23 25  1  0
 25 26  1  0
 26 27  2  0
 27 28  1  0
 28 29  2  0
 29 30  1  0
 30 31  2  0
 30 32  1  0
 32 33  1  0
 33 34  2  0
 34 35  1  0
 35 36  2  0
 36 37  1  0
 37 38  2  0
 38 39  1  0
 29 40  1  0
 40 41  2  0
 22 42  1  0
 42 43  2  0
 43 44  1  0
 15  9  1  0
 43 20  1  0
 41 26  1  0
 38 33  1  0
  1 45  1  0
  1 46  1  0
  1 47  1  0
  3 48  1  0
  3 49  1  0
  4 50  1  0
  4 51  1  0
  7 52  1  0
  8 53  1  0
  8 54  1  0
 10 55  1  0
 11 56  1  0
 14 57  1  0
 19 58  1  0
 19 59  1  0
 21 60  1  0
 27 61  1  0
 28 62  1  0
 34 63  1  0
 35 64  1  0
 36 65  1  0
 37 66  1  0
 39 67  1  0
 39 68  1  0
 40 69  1  0
 41 70  1  0
 42 71  1  0
M  CHG  3  25  -1  32  -1  44  -1
M  END
>  <UniqueID>  (10) 
8

>  <SMILES>  (10) 
CN(CCC(=O)NCc1ccc(Cl)cc1Cl)C(=O)Cn1cc(C(=O)[N-]c2ccc(C(=O)[N-]c3ccccc3N)cc2)cc1[O-]

>  <Energy>  (10) 
100.41280303943644

>  <Genealogy>  (10) 
CN(CCC(=O)NCc1ccc(Cl)cc1Cl)C(=O)Cn1cc(C(=O)[N-]c2ccc(C(=O)[N-]c3ccccc3N)cc2)cc1[O-] (protonated)
CN(CCC(=O)NCc1ccc(Cl)cc1Cl)C(=O)Cn1cc(C(=O)[N-]c2ccc(C(=O)[N-]c3ccccc3N)cc2)cc1[O-] (3D coordinates assigned)
CN(CCC(=O)NCc1ccc(Cl)cc1Cl)C(=O)Cn1cc(C(=O)[N-]c2ccc(C(=O)[N-]c3ccccc3N)cc2)cc1[O-] (optimized conformer: 100.41280303943644 kcal/mol)

>  <smiles>  (10) 
CN(CCC(=O)NCc1ccc(Cl)cc1Cl)C(=O)Cn1cc(C(=O)Nc2ccc(C(=O)Nc3ccccc3N)cc2)cc1O

>  <score_type>  (10) 
oracle

>  <origin>  (10) 
adg

>  <m_score__min__energy>  (10) 
-14.76

>  <m_primary>  (10) 
energy

$$$$
10:0
     RDKit          3D

 43 45  0  0  0  0  0  0  0  0999 V2000
   59.2740   32.7840   49.8900 C   0  0  0  0  0  0  0  0  0  0  0  0
   59.3100   33.3500   48.5010 C   0  0  0  0  0  0  0  0  0  0  0  0
   60.4240   34.0890   48.0720 C   0  0  0  0  0  0  0  0  0  0  0  0
   60.4790   34.5750   46.7630 C   0  0  0  0  0  0  0  0  0  0  0  0
   59.4280   34.3250   45.8770 C   0  0  0  0  0  0  0  0  0  0  0  0
   58.3060   33.5940   46.2940 C   0  0  0  0  0  0  0  0  0  0  0  0
   57.2020   33.3050   45.3600 C   0  0  0  0  0  0  0  0  0  0  0  0
   56.6270   34.2620   44.7780 O   0  0  0  0  0  0  0  0  0  0  0  0
   56.7950   31.9690   45.0450 N   0  0  0  0  0  0  0  0  0  0  0  0
   57.6430   30.9330   44.4610 C   0  0  0  0  0  0  0  0  0  0  0  0
   57.9830   29.8870   45.4720 C   0  0  0  0  0  0  0  0  0  0  0  0
   58.3630   30.1600   46.7360 N   0  0  0  0  0  0  0  0  0  0  0  0
   58.5810   28.9910   47.3190 N   0  0  0  0  0  0  0  0  0  0  0  0
   58.3280   28.0540   46.3860 C   0  0  0  0  0  0  0  0  0  0  0  0
   58.4430   26.2920   46.6750 S   0  0  0  0  0  0  0  0  0  0  0  0
   57.2710   25.8940   45.3410 C   0  0  0  0  0  0  0  0  0  0  0  0
   55.9020   25.7270   45.9100 C   0  0  0  0  0  0  0  0  0  0  0  0
   55.1360   26.7230   46.0000 O   0  0  0  0  0  0  0  0  0  0  0  0
   55.4630   24.4320   46.3290 N   0  0  0  0  0  0  0  0  0  0  0  0
   54.8210   23.4730   45.4390 C   0  0  0  0  0  0  0  0  0  0  0  0
   55.8470   22.7780   44.6010 C   0  0  0  0  0  0  0  0  0  0  0  0
   57.1620   22.5420   44.9570 C   0  0  0  0  0  0  0  0  0  0  0  0
   57.7310   21.9060   43.8760 C   0  0  0  0  0  0  0  0  0  0  0  0
   56.7330   21.7950   42.9290 C   0  0  0  0  0  0  0  0  0  0  0  0
   55.6230   22.3270   43.3890 O   0  0  0  0  0  0  0  0  0  0  0  0
   57.9690   28.5930   45.2460 O   0  0  0  0  0  0  0  0  0  0  0  0
   58.2620   33.0880   47.6020 C   0  0  0  0  0  0  0  0  0  0  0  0
   59.3262   33.6039   50.6215 H   0  0  0  0  0  0  0  0  0  0  0  0
   58.3384   32.2236   50.0334 H   0  0  0  0  0  0  0  0  0  0  0  0
   60.1311   32.1096   50.0334 H   0  0  0  0  0  0  0  0  0  0  0  0
   61.2539   34.2855   48.7667 H   0  0  0  0  0  0  0  0  0  0  0  0
   61.3517   35.1557   46.4294 H   0  0  0  0  0  0  0  0  0  0  0  0
   59.4809   34.7040   44.8457 H   0  0  0  0  0  0  0  0  0  0  0  0
   57.1098   30.4624   43.6218 H   0  0  0  0  0  0  0  0  0  0  0  0
   58.5760   31.3993   44.1117 H   0  0  0  0  0  0  0  0  0  0  0  0
   57.2640   26.7108   44.6043 H   0  0  0  0  0  0  0  0  0  0  0  0
   57.5794   24.9586   44.8512 H   0  0  0  0  0  0  0  0  0  0  0  0
   54.2769   22.7285   46.0388 H   0  0  0  0  0  0  0  0  0  0  0  0
   54.1218   24.0080   44.7796 H   0  0  0  0  0  0  0  0  0  0  0  0
   57.6516   22.8069   45.9057 H   0  0  0  0  0  0  0  0  0  0  0  0
   58.7703   21.5572   43.7856 H   0  0  0  0  0  0  0  0  0  0  0  0
   56.8493   21.3311   41.9384 H   0  0  0  0  0  0  0  0  0  0  0  0
   57.4023   32.4828   47.9256 H   0  0  0  0  0  0  0  0  0  0  0  0
  1  2  1  0
  2  3  2  0
  3  4  1  0
  4  5  2  0
  5  6  1  0
  6  7  1  0
  7  8  2  0
  7  9  1  0
  9 10  1  0
 10 11  1  0
 11 12  2  0
 12 13  1  0
 13 14  2  0
 14 15  1  0
 15 16  1  0
 16 17  1  0
 17 18  2  0
 17 19  1  0
 19 20  1  0
 20 21  1  0
 21 22  2  0
 22 23  1  0
 23 24  2  0
 24 25  1  0
 14 26  1  0
  6 27  2  0
 27  2  1  0
 26 11  1  0
 25 21  1  0
  1 28  1  0
  1 29  1  0
  1 30  1  0
  3 31  1  0
  4 32  1  0
  5 33  1  0
 10 34  1  0
 10 35  1  0
 16 36  1  0
 16 37  1  0
 20 38  1  0
 20 39  1  0
 22 40  1  0
 23 41  1  0
 24 42  1  0
 27 43  1  0
M  CHG  2   9  -1  19  -1
M  END
>  <UniqueID>  (11) 
9

>  <SMILES>  (11) 
Cc1cccc(C(=O)[N-]Cc2nnc(SCC(=O)[N-]Cc3ccco3)o2)c1

>  <Energy>  (11) 
100.31406422964318

>  <Genealogy>  (11) 
Cc1cccc(C(=O)[N-]Cc2nnc(SCC(=O)[N-]Cc3ccco3)o2)c1 (protonated)
Cc1cccc(C(=O)[N-]Cc2nnc(SCC(=O)[N-]Cc3ccco3)o2)c1 (3D coordinates assigned)
Cc1cccc(C(=O)[N-]Cc2nnc(SCC(=O)[N-]Cc3ccco3)o2)c1 (optimized conformer: 100.31406422964318 kcal/mol)

>  <smiles>  (11) 
Cc1cccc(C(=O)NCc2nnc(SCC(=O)NCc3ccco3)o2)c1

>  <score_type>  (11) 
oracle

>  <origin>  (11) 
adg

>  <m_score__min__energy>  (11) 
-11.6

>  <m_primary>  (11) 
energy

$$$$
11:0
     RDKit          3D

 40 42  0  0  0  0  0  0  0  0999 V2000
   57.8763   29.0891   52.9659 H   0  0  0  0  0  0  0  0  0  0  0  0
   56.8250   28.7740   53.0400 C   0  0  0  0  0  0  0  0  0  0  0  0
   56.5781   27.7575   53.3803 H   0  0  0  0  0  0  0  0  0  0  0  0
   55.8490   29.6250   52.7170 C   0  0  0  0  0  0  0  0  0  0  0  0
   56.0080   30.9250   52.2580 C   0  0  0  0  0  0  0  0  0  0  0  0
   57.2860   31.6220   51.8700 C   0  0  0  0  0  0  0  0  0  0  0  0
   57.0421   32.4750   51.2197 H   0  0  0  0  0  0  0  0  0  0  0  0
   57.7852   31.9548   52.7920 H   0  0  0  0  0  0  0  0  0  0  0  0
   58.2470   30.6860   51.1210 C   0  0  0  0  0  0  0  0  0  0  0  0
   59.2165   30.6810   51.6407 H   0  0  0  0  0  0  0  0  0  0  0  0
   57.8018   29.6802   51.1052 H   0  0  0  0  0  0  0  0  0  0  0  0
   58.4590   31.1250   49.7010 C   0  0  0  0  0  0  0  0  0  0  0  0
   59.1840   30.4330   48.9360 O   0  0  0  0  0  0  0  0  0  0  0  0
   57.8470   32.3350   49.2280 N   0  0  0  0  0  0  0  0  0  0  0  0
   57.0240   32.6950   49.7610 H   0  0  0  0  0  0  0  0  0  0  0  0
   58.3460   33.1240   48.1300 C   0  0  0  0  0  0  0  0  0  0  0  0
   57.6800   33.1370   46.8890 C   0  0  0  0  0  0  0  0  0  0  0  0
   56.7413   32.5765   46.7677 H   0  0  0  0  0  0  0  0  0  0  0  0
   58.2020   33.8560   45.8110 C   0  0  0  0  0  0  0  0  0  0  0  0
   57.6705   33.8640   44.8479 H   0  0  0  0  0  0  0  0  0  0  0  0
   59.3960   34.5640   45.9530 C   0  0  0  0  0  0  0  0  0  0  0  0
   59.8029   35.1323   45.1036 H   0  0  0  0  0  0  0  0  0  0  0  0
   60.0740   34.5510   47.1730 C   0  0  0  0  0  0  0  0  0  0  0  0
   61.0164   35.1079   47.2815 H   0  0  0  0  0  0  0  0  0  0  0  0
   59.5600   33.8320   48.2600 C   0  0  0  0  0  0  0  0  0  0  0  0
   60.4530   33.8570   49.7760 Cl  0  0  0  0  0  0  0  0  0  0  0  0
   54.7360   31.4180   52.0390 C   0  0  0  0  0  0  0  0  0  0  0  0
   54.4737   32.4252   51.6830 H   0  0  0  0  0  0  0  0  0  0  0  0
   53.8560   30.3970   52.3550 C   0  0  0  0  0  0  0  0  0  0  0  0
   52.5220   30.4990   52.2260 C   0  0  0  0  0  0  0  0  0  0  0  0
   51.9157   30.3073   53.1236 H   0  0  0  0  0  0  0  0  0  0  0  0
   51.7970   30.8460   50.9850 C   0  0  0  0  0  0  0  0  0  0  0  0
   51.7260   30.0890   49.8750 N   0  0  0  0  0  0  0  0  0  0  0  0
   51.0160   30.8530   49.0170 C   0  0  0  0  0  0  0  0  0  0  0  0
   50.7310   30.4760   47.8510 O   0  0  0  0  0  0  0  0  0  0  0  0
   50.6400   32.0530   49.5060 N   0  0  0  0  0  0  0  0  0  0  0  0
   51.1460   32.0330   50.7500 C   0  0  0  0  0  0  0  0  0  0  0  0
   51.0180   33.0830   51.6500 O   0  0  0  0  0  0  0  0  0  0  0  0
   54.5380   29.3090   52.7830 N   0  0  0  0  0  0  0  0  0  0  0  0
   54.1590   28.3960   53.1130 H   0  0  0  0  0  0  0  0  0  0  0  0
  1  2  1  0
  2  3  1  0
  2  4  2  0
  4  5  1  0
  5  6  1  0
  6  7  1  0
  6  8  1  0
  6  9  1  0
  9 10  1  0
  9 11  1  0
  9 12  1  0
 12 13  2  0
 12 14  1  0
 14 15  1  0
 14 16  1  0
 16 17  2  0
 17 18  1  0
 17 19  1  0
 19 20  1  0
 19 21  2  0
 21 22  1  0
 21 23  1  0
 23 24  1  0
 23 25  2  0
 25 26  1  0
  5 27  2  0
 27 28  1  0
 27 29  1  0
 29 30  2  0
 30 31  1  0
 30 32  1  0
 32 33  1  0
 33 34  1  0
 34 35  2  0
 34 36  1  0
 36 37  1  0
 37 38  1  0
 29 39  1  0
 39 40  1  0
 39  4  1  0
 25 16  1  0
 37 32  2  0
M  CHG  3  33  -1  36  -1  38  -1
M  END
>  <UniqueID>  (12) 
10

>  <SMILES>  (12) 
C=c1[nH]/c(=C\c2[n-]c(=O)[n-]c2[O-])cc1CCC(=O)Nc1ccccc1Cl

>  <Energy>  (12) 
99.1132861380882

>  <Genealogy>  (12) 
C=c1[nH]c(=Cc2[n-]c(=O)[n-]c2[O-])cc1CCC(=O)Nc1ccccc1Cl (protonated)
C=c1[nH]/c(=C\c2[n-]c(=O)[n-]c2[O-])cc1CCC(=O)Nc1ccccc1Cl (cis-trans isomerization)
C=c1[nH]/c(=C\c2[n-]c(=O)[n-]c2[O-])cc1CCC(=O)Nc1ccccc1Cl (3D coordinates assigned)
C=c1[nH]/c(=C\c2[n-]c(=O)[n-]c2[O-])cc1CCC(=O)Nc1ccccc1Cl (optimized conformer: 99.1132861380882 kcal/mol)

>  <smiles>  (12) 
C=c1[nH]c(=Cc2[nH]c(=O)[nH]c2O)cc1CCC(=O)Nc1ccccc1Cl

>  <score_type>  (12) 
oracle

>  <origin>  (12) 
adg

>  <m_score__min__energy>  (12) 
-17.93

>  <m_primary>  (12) 
energy

$$$$
12:0
     RDKit          3D

 65 69  0  0  0  0  0  0  0  0999 V2000
   61.5480   26.9280   51.2320 N   0  0  0  0  0  0  0  0  0  0  0  0
   60.7180   27.4650   50.2060 C   0  0  0  0  0  0  0  0  0  0  0  0
   60.3350   26.7200   49.2660 O   0  0  0  0  0  0  0  0  0  0  0  0
   60.3250   28.8840   50.2550 C   0  0  0  0  0  0  0  0  0  0  0  0
   60.1730   29.6380   49.1490 N   0  0  0  0  0  0  0  0  0  0  0  0
   59.8170   30.8570   49.5240 N   0  0  0  0  0  0  0  0  0  0  0  0
   59.5360   31.9060   48.5820 C   0  0  0  0  0  0  0  0  0  0  0  0
   58.5780   31.7310   47.5670 C   0  0  0  0  0  0  0  0  0  0  0  0
   58.3220   32.7580   46.6530 C   0  0  0  0  0  0  0  0  0  0  0  0
   59.0300   33.9600   46.7330 C   0  0  0  0  0  0  0  0  0  0  0  0
   58.7730   34.9800   45.8240 O   0  0  0  0  0  0  0  0  0  0  0  0
   59.9990   34.1350   47.7250 C   0  0  0  0  0  0  0  0  0  0  0  0
   60.2570   33.1110   48.6420 C   0  0  0  0  0  0  0  0  0  0  0  0
   59.7390   30.9100   50.8760 C   0  0  0  0  0  0  0  0  0  0  0  0
   59.4840   32.1330   51.6690 C   0  0  0  0  0  0  0  0  0  0  0  0
   58.2170   32.7360   51.6580 C   0  0  0  0  0  0  0  0  0  0  0  0
   57.9840   33.8970   52.4020 C   0  0  0  0  0  0  0  0  0  0  0  0
   59.0120   34.4660   53.1610 C   0  0  0  0  0  0  0  0  0  0  0  0
   58.7640   35.6220   53.8960 O   0  0  0  0  0  0  0  0  0  0  0  0
   60.2790   33.8680   53.1720 C   0  0  0  0  0  0  0  0  0  0  0  0
   60.5140   32.7060   52.4310 C   0  0  0  0  0  0  0  0  0  0  0  0
   60.0630   29.6580   51.3810 C   0  0  0  0  0  0  0  0  0  0  0  0
   60.1580   29.2460   52.8270 C   0  0  0  0  0  0  0  0  0  0  0  0
   59.0820   28.2550   53.1950 C   0  0  0  0  0  0  0  0  0  0  0  0
   59.3920   27.0460   53.3780 O   0  0  0  0  0  0  0  0  0  0  0  0
   57.7010   28.6580   53.2940 N   0  0  0  0  0  0  0  0  0  0  0  0
   56.7310   27.7940   53.9740 C   0  0  0  0  0  0  0  0  0  0  0  0
   55.6290   28.6500   54.6110 C   0  0  0  0  0  0  0  0  0  0  0  0
   54.9520   29.5640   53.6500 N   0  0  0  0  0  0  0  0  0  0  0  0
   53.5750   29.1110   53.3570 C   0  0  0  0  0  0  0  0  0  0  0  0
   52.8840   30.0520   52.4030 C   0  0  0  0  0  0  0  0  0  0  0  0
   52.4310   31.3030   52.8530 C   0  0  0  0  0  0  0  0  0  0  0  0
   51.8080   32.1880   51.9660 C   0  0  0  0  0  0  0  0  0  0  0  0
   51.6370   31.8310   50.6260 C   0  0  0  0  0  0  0  0  0  0  0  0
   51.0180   32.7100   49.7460 O   0  0  0  0  0  0  0  0  0  0  0  0
   52.0920   30.5890   50.1690 C   0  0  0  0  0  0  0  0  0  0  0  0
   52.7140   29.7030   51.0540 C   0  0  0  0  0  0  0  0  0  0  0  0
   55.7150   29.8100   52.4000 C   0  0  0  0  0  0  0  0  0  0  0  0
   57.2250   29.8880   52.6490 C   0  0  0  0  0  0  0  0  0  0  0  0
   61.1730   26.7570   52.1920 H   0  0  0  0  0  0  0  0  0  0  0  0
   58.0275   30.7816   47.4918 H   0  0  0  0  0  0  0  0  0  0  0  0
   57.5621   32.6194   45.8699 H   0  0  0  0  0  0  0  0  0  0  0  0
   60.5596   35.0796   47.7846 H   0  0  0  0  0  0  0  0  0  0  0  0
   61.0281   33.2494   49.4141 H   0  0  0  0  0  0  0  0  0  0  0  0
   57.4046   32.2942   51.0624 H   0  0  0  0  0  0  0  0  0  0  0  0
   56.9884   34.3646   52.3903 H   0  0  0  0  0  0  0  0  0  0  0  0
   58.2140   36.3830   53.5160 H   0  0  0  0  0  0  0  0  0  0  0  0
   61.0909   34.3139   53.7652 H   0  0  0  0  0  0  0  0  0  0  0  0
   61.5099   32.2391   52.4452 H   0  0  0  0  0  0  0  0  0  0  0  0
   61.1417   28.7863   53.0031 H   0  0  0  0  0  0  0  0  0  0  0  0
   60.0260   30.1434   53.4493 H   0  0  0  0  0  0  0  0  0  0  0  0
   56.2817   27.1045   53.2442 H   0  0  0  0  0  0  0  0  0  0  0  0
   57.2443   27.2199   54.7594 H   0  0  0  0  0  0  0  0  0  0  0  0
   54.8729   27.9779   55.0429 H   0  0  0  0  0  0  0  0  0  0  0  0
   56.1112   29.2820   55.3713 H   0  0  0  0  0  0  0  0  0  0  0  0
   53.6152   28.1084   52.9063 H   0  0  0  0  0  0  0  0  0  0  0  0
   53.0070   29.0898   54.2988 H   0  0  0  0  0  0  0  0  0  0  0  0
   52.5665   31.5882   53.9067 H   0  0  0  0  0  0  0  0  0  0  0  0
   51.4526   33.1655   52.3240 H   0  0  0  0  0  0  0  0  0  0  0  0
   51.9603   30.3097   49.1132 H   0  0  0  0  0  0  0  0  0  0  0  0
   53.0718   28.7280   50.6915 H   0  0  0  0  0  0  0  0  0  0  0  0
   55.5142   28.9897   51.6952 H   0  0  0  0  0  0  0  0  0  0  0  0
   55.3899   30.7780   51.9911 H   0  0  0  0  0  0  0  0  0  0  0  0
   57.7446   30.0180   51.6882 H   0  0  0  0  0  0  0  0  0  0  0  0
   57.4342   30.7419   53.3102 H   0  0  0  0  0  0  0  0  0  0  0  0
  1  2  1  0
  2  3  2  0
  2  4  1  0
  4  5  2  0
  5  6  1  0
  6  7  1  0
  7  8  2  0
  8  9  1  0
  9 10  2  0
 10 11  1  0
 10 12  1  0
 12 13  2  0
  6 14  1  0
 14 15  1  0
 15 16  2  0
 16 17  1  0
 17 18  2  0
 18 19  1  0
 18 20  1  0
 20 21  2  0
 14 22  2  0
 22 23  1  0
 23 24  1  0
 24 25  2  0
 24 26  1  0
 26 27  1  0
 27 28  1  0
 28 29  1  0
 29 30  1  0
 30 31  1  0
 31 32  2  0
 32 33  1  0
 33 34  2  0
 34 35  1  0
 34 36  1  0
 36 37  2  0
 29 38  1  0
 38 39  1  0
 22  4  1  0
 39 26  1  0
 13  7  1  0
 21 15  1  0
 37 31  1  0
  1 40  1  0
  8 41  1  0
  9 42  1  0
 12 43  1  0
 13 44  1  0
 16 45  1  0
 17 46  1  0
 19 47  1  0
 20 48  1  0
 21 49  1  0
 23 50  1  0
 23 51  1  0
 27 52  1  0
 27 53  1  0
 28 54  1  0
 28 55  1  0
 30 56  1  0
 30 57  1  0
 32 58  1  0
 33 59  1  0
 36 60  1  0
 37 61  1  0
 38 62  1  0
 38 63  1  0
 39 64  1  0
 39 65  1  0
M  CHG  3   1  -1  11  -1  35  -1
M  END
>  <UniqueID>  (13) 
11

>  <SMILES>  (13) 
[NH-]C(=O)c1nn(-c2ccc([O-])cc2)c(-c2ccc(O)cc2)c1CC(=O)N1CCN(Cc2ccc([O-])cc2)CC1

>  <Energy>  (13) 
116.59619256011936

>  <Genealogy>  (13) 
[NH-]C(=O)c1nn(-c2ccc([O-])cc2)c(-c2ccc(O)cc2)c1CC(=O)N1CCN(Cc2ccc([O-])cc2)CC1 (protonated)
[NH-]C(=O)c1nn(-c2ccc([O-])cc2)c(-c2ccc(O)cc2)c1CC(=O)N1CCN(Cc2ccc([O-])cc2)CC1 (3D coordinates assigned)
[NH-]C(=O)c1nn(-c2ccc([O-])cc2)c(-c2ccc(O)cc2)c1CC(=O)N1CCN(Cc2ccc([O-])cc2)CC1 (nonaromatic ring conformer: 116.59619256011936 kcal/mol)

>  <smiles>  (13) 
NC(=O)c1nn(-c2ccc(O)cc2)c(-c2ccc(O)cc2)c1CC(=O)N1CCN(Cc2ccc(O)cc2)CC1

>  <score_type>  (13) 
oracle

>  <origin>  (13) 
adg

>  <m_score__min__energy>  (13) 
-14.880000000000001

>  <m_primary>  (13) 
energy

$$$$
13:0
     RDKit          3D

 57 60  0  0  0  0  0  0  0  0999 V2000
   59.8660   29.3180   44.6650 C   0  0  0  0  0  0  0  0  0  0  0  0
   59.5020   29.3050   45.9590 C   0  0  0  0  0  0  0  0  0  0  0  0
   58.5030   28.4970   46.5170 C   0  0  0  0  0  0  0  0  0  0  0  0
   57.6620   27.6720   45.8540 C   0  0  0  0  0  0  0  0  0  0  0  0
   57.1930   26.3470   46.3240 C   0  0  0  0  0  0  0  0  0  0  0  0
   57.9670   25.3380   46.7620 N   0  0  0  0  0  0  0  0  0  0  0  0
   57.0820   24.3660   47.0640 C   0  0  0  0  0  0  0  0  0  0  0  0
   57.4340   23.2450   47.5160 O   0  0  0  0  0  0  0  0  0  0  0  0
   55.7900   24.6870   46.8430 N   0  0  0  0  0  0  0  0  0  0  0  0
   55.8780   25.9420   46.3750 C   0  0  0  0  0  0  0  0  0  0  0  0
   54.7770   26.7040   46.0030 O   0  0  0  0  0  0  0  0  0  0  0  0
   58.5650   28.7090   47.8850 C   0  0  0  0  0  0  0  0  0  0  0  0
   59.5580   29.6410   48.1100 C   0  0  0  0  0  0  0  0  0  0  0  0
   60.0070   29.9970   49.4760 C   0  0  0  0  0  0  0  0  0  0  0  0
   59.2870   30.7730   50.1630 O   0  0  0  0  0  0  0  0  0  0  0  0
   61.2640   29.5470   49.9960 N   0  0  0  0  0  0  0  0  0  0  0  0
   61.8250   30.0370   51.2540 C   0  0  0  0  0  0  0  0  0  0  0  0
   63.0350   30.8790   50.9620 C   0  0  0  0  0  0  0  0  0  0  0  0
   64.2760   30.5510   51.5280 C   0  0  0  0  0  0  0  0  0  0  0  0
   65.4170   31.2890   51.2000 C   0  0  0  0  0  0  0  0  0  0  0  0
   65.3390   32.3550   50.2960 C   0  0  0  0  0  0  0  0  0  0  0  0
   66.5140   33.0600   49.9960 O   0  0  0  0  0  0  0  0  0  0  0  0
   67.6650   33.0960   50.8340 C   0  0  0  0  0  0  0  0  0  0  0  0
   64.0950   32.6780   49.7200 C   0  0  0  0  0  0  0  0  0  0  0  0
   62.9540   31.9400   50.0480 C   0  0  0  0  0  0  0  0  0  0  0  0
   60.1180   30.0320   46.9340 N   0  0  0  0  0  0  0  0  0  0  0  0
   61.2340   30.9780   46.7440 C   0  0  0  0  0  0  0  0  0  0  0  0
   60.9260   32.3730   47.3300 C   0  0  0  0  0  0  0  0  0  0  0  0
   59.7700   33.0550   46.6490 C   0  0  0  0  0  0  0  0  0  0  0  0
   60.0000   33.9950   45.6280 C   0  0  0  0  0  0  0  0  0  0  0  0
   58.9250   34.5880   44.9590 C   0  0  0  0  0  0  0  0  0  0  0  0
   57.6130   34.2570   45.3100 C   0  0  0  0  0  0  0  0  0  0  0  0
   57.3740   33.3350   46.3320 C   0  0  0  0  0  0  0  0  0  0  0  0
   58.4470   32.7340   47.0000 C   0  0  0  0  0  0  0  0  0  0  0  0
   60.6658   29.9925   44.3254 H   0  0  0  0  0  0  0  0  0  0  0  0
   59.3641   28.6541   43.9458 H   0  0  0  0  0  0  0  0  0  0  0  0
   57.2921   28.0154   44.8766 H   0  0  0  0  0  0  0  0  0  0  0  0
   57.9394   28.2248   48.6493 H   0  0  0  0  0  0  0  0  0  0  0  0
   61.9120   29.0390   49.3660 H   0  0  0  0  0  0  0  0  0  0  0  0
   61.0733   30.6435   51.7803 H   0  0  0  0  0  0  0  0  0  0  0  0
   62.1126   29.1844   51.8868 H   0  0  0  0  0  0  0  0  0  0  0  0
   64.3515   29.7098   52.2327 H   0  0  0  0  0  0  0  0  0  0  0  0
   66.3840   31.0300   51.6559 H   0  0  0  0  0  0  0  0  0  0  0  0
   67.3514   33.0862   51.8883 H   0  0  0  0  0  0  0  0  0  0  0  0
   68.2944   32.2171   50.6305 H   0  0  0  0  0  0  0  0  0  0  0  0
   68.2382   34.0125   50.6305 H   0  0  0  0  0  0  0  0  0  0  0  0
   64.0210   33.5143   49.0093 H   0  0  0  0  0  0  0  0  0  0  0  0
   61.9877   32.1926   49.5870 H   0  0  0  0  0  0  0  0  0  0  0  0
   62.1282   30.5748   47.2418 H   0  0  0  0  0  0  0  0  0  0  0  0
   61.3950   31.0955   45.6622 H   0  0  0  0  0  0  0  0  0  0  0  0
   60.6865   32.2596   48.3976 H   0  0  0  0  0  0  0  0  0  0  0  0
   61.8164   32.9996   47.1731 H   0  0  0  0  0  0  0  0  0  0  0  0
   61.0308   34.2648   45.3546 H   0  0  0  0  0  0  0  0  0  0  0  0
   59.1118   35.3158   44.1556 H   0  0  0  0  0  0  0  0  0  0  0  0
   56.7683   34.7228   44.7812 H   0  0  0  0  0  0  0  0  0  0  0  0
   56.3410   33.0810   46.6121 H   0  0  0  0  0  0  0  0  0  0  0  0
   58.2544   32.0074   47.8031 H   0  0  0  0  0  0  0  0  0  0  0  0
  1  2  2  0
  2  3  1  0
  3  4  2  3
  4  5  1  0
  5  6  1  0
  6  7  1  0
  7  8  2  0
  7  9  1  0
  9 10  1  0
 10 11  1  0
  3 12  1  0
 12 13  2  0
 13 14  1  0
 14 15  2  0
 14 16  1  0
 16 17  1  0
 17 18  1  0
 18 19  2  0
 19 20  1  0
 20 21  2  0
 21 22  1  0
 22 23  1  0
 21 24  1  0
 24 25  2  0
 13 26  1  0
 26 27  1  0
 27 28  1  0
 28 29  1  0
 29 30  2  0
 30 31  1  0
 31 32  2  0
 32 33  1  0
 33 34  2  0
 26  2  1  0
 34 29  1  0
 10  5  2  0
 25 18  1  0
  1 35  1  0
  1 36  1  0
  4 37  1  0
 12 38  1  0
 16 39  1  0
 17 40  1  0
 17 41  1  0
 19 42  1  0
 20 43  1  0
 23 44  1  0
 23 45  1  0
 23 46  1  0
 24 47  1  0
 25 48  1  0
 27 49  1  0
 27 50  1  0
 28 51  1  0
 28 52  1  0
 30 53  1  0
 31 54  1  0
 32 55  1  0
 33 56  1  0
 34 57  1  0
M  CHG  3   6  -1   9  -1  11  -1
M  END
>  <UniqueID>  (14) 
12

>  <SMILES>  (14) 
C=c1c(=Cc2[n-]c(=O)[n-]c2[O-])cc(C(=O)NCc2ccc(OC)cc2)n1CCc1ccccc1

>  <Energy>  (14) 
122.54242743012101

>  <Genealogy>  (14) 
C=c1c(=Cc2[n-]c(=O)[n-]c2[O-])cc(C(=O)NCc2ccc(OC)cc2)n1CCc1ccccc1 (protonated)
C=c1c(=Cc2[n-]c(=O)[n-]c2[O-])cc(C(=O)NCc2ccc(OC)cc2)n1CCc1ccccc1 (3D coordinates assigned)
C=c1c(=Cc2[n-]c(=O)[n-]c2[O-])cc(C(=O)NCc2ccc(OC)cc2)n1CCc1ccccc1 (optimized conformer: 122.54242743012101 kcal/mol)

>  <smiles>  (14) 
C=c1c(=Cc2[nH]c(=O)[nH]c2O)cc(C(=O)NCc2ccc(OC)cc2)n1CCc1ccccc1

>  <score_type>  (14) 
oracle

>  <origin>  (14) 
adg

>  <m_score__min__energy>  (14) 
-17.199999999999999

>  <m_primary>  (14) 
energy

$$$$
14:0
     RDKit          3D

 31 33  0  0  0  0  0  0  0  0999 V2000
   53.7990   26.7010   46.4580 H   0  0  0  0  0  0  0  0  0  0  0  0
   54.2660   25.9190   45.9450 N   0  0  0  0  0  0  0  0  0  0  0  0
   55.5190   25.6520   46.1180 C   0  0  0  0  0  0  0  0  0  0  0  0
   55.8850   24.4540   46.6780 N   0  0  0  0  0  0  0  0  0  0  0  0
   57.2000   24.1340   46.8740 C   0  0  0  0  0  0  0  0  0  0  0  0
   57.5230   23.0280   47.3820 O   0  0  0  0  0  0  0  0  0  0  0  0
   58.1570   25.0610   46.4900 C   0  0  0  0  0  0  0  0  0  0  0  0
   59.4980   24.9790   46.5480 N   0  0  0  0  0  0  0  0  0  0  0  0
   59.8930   26.1670   46.0090 C   0  0  0  0  0  0  0  0  0  0  0  0
   60.9481   26.4521   45.8844 H   0  0  0  0  0  0  0  0  0  0  0  0
   58.8550   26.9660   45.6400 N   0  0  0  0  0  0  0  0  0  0  0  0
   58.8870   28.2600   44.9500 C   0  0  1  0  0  0  0  0  0  0  0  0
   59.9245   28.3834   44.6059 H   0  0  0  0  0  0  0  0  0  0  0  0
   57.7580   28.3000   43.5190 S   0  0  0  0  0  0  0  0  0  0  0  0
   57.4320   30.0950   43.7080 C   0  0  1  0  0  0  0  0  0  0  0  0
   57.8264   30.6740   42.8599 H   0  0  0  0  0  0  0  0  0  0  0  0
   55.9140   30.3520   43.7030 C   0  0  0  0  0  0  0  0  0  0  0  0
   55.7307   31.4326   43.6100 H   0  0  0  0  0  0  0  0  0  0  0  0
   55.4665   29.8154   42.8534 H   0  0  0  0  0  0  0  0  0  0  0  0
   55.3300   29.8860   44.8900 O   0  0  0  0  0  0  0  0  0  0  0  0
   55.9710   30.0880   45.6210 H   0  0  0  0  0  0  0  0  0  0  0  0
   58.1740   30.6040   44.9680 C   0  0  1  0  0  0  0  0  0  0  0  0
   59.1133   31.0686   44.6334 H   0  0  0  0  0  0  0  0  0  0  0  0
   57.5140   31.6510   45.6430 O   0  0  0  0  0  0  0  0  0  0  0  0
   57.0260   31.2710   46.4170 H   0  0  0  0  0  0  0  0  0  0  0  0
   58.5120   29.4150   45.8810 C   0  0  1  0  0  0  0  0  0  0  0  0
   59.3437   29.6675   46.5552 H   0  0  0  0  0  0  0  0  0  0  0  0
   57.4510   29.0770   46.7430 O   0  0  0  0  0  0  0  0  0  0  0  0
   56.7150   28.6990   46.1980 H   0  0  0  0  0  0  0  0  0  0  0  0
   57.7740   26.2370   45.9440 C   0  0  0  0  0  0  0  0  0  0  0  0
   56.4740   26.5600   45.7410 N   0  0  0  0  0  0  0  0  0  0  0  0
  1  2  1  0
  2  3  2  0
  3  4  1  0
  4  5  1  0
  5  6  2  0
  5  7  1  0
  7  8  1  0
  8  9  2  0
  9 10  1  0
  9 11  1  0
 11 12  1  0
 12 13  1  6
 12 14  1  0
 14 15  1  0
 15 16  1  6
 15 17  1  0
 17 18  1  0
 17 19  1  0
 17 20  1  0
 20 21  1  0
 15 22  1  0
 22 23  1  6
 22 24  1  0
 24 25  1  0
 22 26  1  0
 26 27  1  1
 26 28  1  0
 28 29  1  0
 11 30  1  0
 30 31  1  0
 31  3  1  0
 30  7  2  0
 26 12  1  0
M  CHG  2   4  -1  31  -1
M  END
>  <UniqueID>  (15) 
13

>  <SMILES>  (15) 
[H]/N=c1/[n-]c(=O)c2ncn([C@H]3S[C@@H](CO)C(O)C3O)c2[n-]1

>  <Energy>  (15) 
76.44374434451889

>  <Genealogy>  (15) 
N=c1[n-]c(=O)c2ncn(C3SC(CO)C(O)C3O)c2[n-]1 (protonated)
N=c1[n-]c(=O)c2ncn([C@H]3S[C@@H](CO)C(O)C3O)c2[n-]1 (chirality)
[H]/N=c1/[n-]c(=O)c2ncn([C@H]3S[C@@H](CO)C(O)C3O)c2[n-]1 (cis-trans isomerization)
[H]/N=c1/[n-]c(=O)c2ncn([C@H]3S[C@@H](CO)C(O)C3O)c2[n-]1 (3D coordinates assigned)
[H]/N=c1/[n-]c(=O)c2ncn([C@H]3S[C@@H](CO)C(O)C3O)c2[n-]1 (nonaromatic ring conformer: 76.44374434451889 kcal/mol)

>  <smiles>  (15) 
N=c1[nH]c(=O)c2ncn(C3SC(CO)C(O)C3O)c2[nH]1

>  <score_type>  (15) 
oracle

>  <origin>  (15) 
adg

>  <m_score__min__energy>  (15) 
-10.69

>  <m_primary>  (15) 
energy

$$$$
15:0
     RDKit          3D

 56 59  0  0  0  0  0  0  0  0999 V2000
   55.1826   24.7837   45.9386 H   0  0  0  0  0  0  0  0  0  0  0  0
   56.1730   25.2290   46.1140 C   0  0  0  0  0  0  0  0  0  0  0  0
   56.7520   25.9990   45.1590 N   0  0  0  0  0  0  0  0  0  0  0  0
   57.9780   26.5740   45.3250 C   0  0  0  0  0  0  0  0  0  0  0  0
   58.6870   27.4340   43.9190 S   0  0  0  0  0  0  0  0  0  0  0  0
   57.7910   28.9300   44.2980 C   0  0  0  0  0  0  0  0  0  0  0  0
   58.4820   30.4560   44.4170 S   0  0  0  0  0  0  0  0  0  0  0  0
   57.0130   31.1830   44.8300 C   0  0  0  0  0  0  0  0  0  0  0  0
   56.8260   32.4520   45.0570 N   0  0  0  0  0  0  0  0  0  0  0  0
   57.8620   33.4380   45.1770 C   0  0  0  0  0  0  0  0  0  0  0  0
   58.4980   33.7930   44.1460 O   0  0  0  0  0  0  0  0  0  0  0  0
   58.1000   34.1000   46.4290 N   0  0  0  0  0  0  0  0  0  0  0  0
   57.4000   33.9790   47.1960 H   0  0  0  0  0  0  0  0  0  0  0  0
   59.2330   35.0020   46.6320 C   0  0  0  0  0  0  0  0  0  0  0  0
   59.5646   35.3948   45.6595 H   0  0  0  0  0  0  0  0  0  0  0  0
   58.9214   35.8319   47.2832 H   0  0  0  0  0  0  0  0  0  0  0  0
   60.3690   34.2630   47.2840 C   0  0  0  0  0  0  0  0  0  0  0  0
   60.5210   34.2790   48.6820 C   0  0  0  0  0  0  0  0  0  0  0  0
   59.7677   34.7771   49.3101 H   0  0  0  0  0  0  0  0  0  0  0  0
   61.6280   33.6630   49.2760 C   0  0  0  0  0  0  0  0  0  0  0  0
   61.7379   33.6715   50.3705 H   0  0  0  0  0  0  0  0  0  0  0  0
   62.5960   33.0360   48.4830 C   0  0  0  0  0  0  0  0  0  0  0  0
   63.4643   32.5513   48.9533 H   0  0  0  0  0  0  0  0  0  0  0  0
   62.4570   33.0270   47.0920 C   0  0  0  0  0  0  0  0  0  0  0  0
   63.2168   32.5354   46.4667 H   0  0  0  0  0  0  0  0  0  0  0  0
   61.3500   33.6440   46.4940 C   0  0  0  0  0  0  0  0  0  0  0  0
   61.2493   33.6432   45.3986 H   0  0  0  0  0  0  0  0  0  0  0  0
   56.0010   30.2860   44.8500 N   0  0  0  0  0  0  0  0  0  0  0  0
   56.4330   29.0260   44.5680 C   0  0  0  0  0  0  0  0  0  0  0  0
   55.7608   28.1554   44.5552 H   0  0  0  0  0  0  0  0  0  0  0  0
   58.6690   26.4080   46.5510 C   0  0  0  0  0  0  0  0  0  0  0  0
   59.9620   27.0690   46.8530 C   0  0  0  0  0  0  0  0  0  0  0  0
   60.8920   27.0390   46.0010 O   0  0  0  0  0  0  0  0  0  0  0  0
   60.2000   27.6800   48.1270 N   0  0  0  0  0  0  0  0  0  0  0  0
   59.7460   28.9990   48.4730 C   0  0  0  0  0  0  0  0  0  0  0  0
   59.3570   29.8720   47.4450 C   0  0  0  0  0  0  0  0  0  0  0  0
   59.4205   29.5457   46.3964 H   0  0  0  0  0  0  0  0  0  0  0  0
   58.8900   31.1520   47.7470 C   0  0  0  0  0  0  0  0  0  0  0  0
   58.5942   31.8345   46.9366 H   0  0  0  0  0  0  0  0  0  0  0  0
   58.7980   31.5670   49.0770 C   0  0  0  0  0  0  0  0  0  0  0  0
   58.4390   32.5802   49.3107 H   0  0  0  0  0  0  0  0  0  0  0  0
   59.1600   30.7010   50.1130 C   0  0  0  0  0  0  0  0  0  0  0  0
   59.0815   31.0342   51.1584 H   0  0  0  0  0  0  0  0  0  0  0  0
   59.6250   29.4030   49.8230 C   0  0  0  0  0  0  0  0  0  0  0  0
   59.9390   28.4800   50.8380 O   0  0  0  0  0  0  0  0  0  0  0  0
   61.2210   27.8950   51.0790 C   0  0  0  0  0  0  0  0  0  0  0  0
   61.5539   28.1606   52.0932 H   0  0  0  0  0  0  0  0  0  0  0  0
   61.9303   28.2787   50.3309 H   0  0  0  0  0  0  0  0  0  0  0  0
   61.1540   26.3750   50.9560 C   0  0  0  0  0  0  0  0  0  0  0  0
   61.1342   25.9264   51.9602 H   0  0  0  0  0  0  0  0  0  0  0  0
   60.2425   26.0912   50.4096 H   0  0  0  0  0  0  0  0  0  0  0  0
   62.0370   26.0121   50.4096 H   0  0  0  0  0  0  0  0  0  0  0  0
   58.0790   25.5990   47.5380 C   0  0  0  0  0  0  0  0  0  0  0  0
   58.6017   25.4342   48.4917 H   0  0  0  0  0  0  0  0  0  0  0  0
   56.8380   25.0040   47.3190 C   0  0  0  0  0  0  0  0  0  0  0  0
   56.3868   24.3623   48.0901 H   0  0  0  0  0  0  0  0  0  0  0  0
  1  2  1  0
  2  3  2  0
  3  4  1  0
  4  5  1  0
  5  6  1  0
  6  7  1  0
  7  8  1  0
  8  9  2  0
  9 10  1  0
 10 11  2  0
 10 12  1  0
 12 13  1  0
 12 14  1  0
 14 15  1  0
 14 16  1  0
 14 17  1  0
 17 18  2  0
 18 19  1  0
 18 20  1  0
 20 21  1  0
 20 22  2  0
 22 23  1  0
 22 24  1  0
 24 25  1  0
 24 26  2  0
 26 27  1  0
  8 28  1  0
 28 29  1  0
 29 30  1  0
  4 31  2  0
 31 32  1  0
 32 33  2  0
 32 34  1  0
 34 35  1  0
 35 36  2  0
 36 37  1  0
 36 38  1  0
 38 39  1  0
 38 40  2  0
 40 41  1  0
 40 42  1  0
 42 43  1  0
 42 44  2  0
 44 45  1  0
 45 46  1  0
 46 47  1  0
 46 48  1  0
 46 49  1  0
 49 50  1  0
 49 51  1  0
 49 52  1  0
 31 53  1  0
 53 54  1  0
 53 55  2  0
 55 56  1  0
 55  2  1  0
 29  6  2  0
 44 35  1  0
 26 17  1  0
M  CHG  2  28  -1  34  -1
M  END
>  <UniqueID>  (16) 
14

>  <SMILES>  (16) 
CCOc1ccccc1[N-]C(=O)c1cccnc1Sc1c[n-]/c(=N/C(=O)NCc2ccccc2)s1

>  <Energy>  (16) 
99.31565018347264

>  <Genealogy>  (16) 
CCOc1ccccc1[N-]C(=O)c1cccnc1Sc1c[n-]c(=NC(=O)NCc2ccccc2)s1 (protonated)
CCOc1ccccc1[N-]C(=O)c1cccnc1Sc1c[n-]/c(=N/C(=O)NCc2ccccc2)s1 (cis-trans isomerization)
CCOc1ccccc1[N-]C(=O)c1cccnc1Sc1c[n-]/c(=N/C(=O)NCc2ccccc2)s1 (3D coordinates assigned)
CCOc1ccccc1[N-]C(=O)c1cccnc1Sc1c[n-]/c(=N/C(=O)NCc2ccccc2)s1 (optimized conformer: 99.31565018347264 kcal/mol)

>  <smiles>  (16) 
CCOc1ccccc1NC(=O)c1cccnc1Sc1c[nH]c(=NC(=O)NCc2ccccc2)s1

>  <score_type>  (16) 
oracle

>  <origin>  (16) 
adg

>  <m_score__min__energy>  (16) 
-13.449999999999999

>  <m_primary>  (16) 
energy

$$$$
16:0
     RDKit          3D

 69 72  0  0  0  0  0  0  0  0999 V2000
   58.3389   26.2457   43.9774 H   0  0  0  0  0  0  0  0  0  0  0  0
   58.0200   27.1550   44.5080 C   0  0  0  0  0  0  0  0  0  0  0  0
   57.6570   27.0420   45.8010 C   0  0  0  0  0  0  0  0  0  0  0  0
   58.6380   27.3870   46.8630 C   0  0  0  0  0  0  0  0  0  0  0  0
   58.3650   28.4620   47.7330 C   0  0  0  0  0  0  0  0  0  0  0  0
   57.4276   29.0267   47.6220 H   0  0  0  0  0  0  0  0  0  0  0  0
   59.2780   28.8210   48.7420 C   0  0  0  0  0  0  0  0  0  0  0  0
   59.0370   29.8680   49.6460 O   0  0  0  0  0  0  0  0  0  0  0  0
   58.5970   29.7180   51.0010 C   0  0  0  0  0  0  0  0  0  0  0  0
   58.2410   28.6887   51.1553 H   0  0  0  0  0  0  0  0  0  0  0  0
   57.4580   30.7110   51.2640 C   0  0  0  0  0  0  0  0  0  0  0  0
   56.6683   30.5515   50.5150 H   0  0  0  0  0  0  0  0  0  0  0  0
   57.0830   30.5344   52.2829 H   0  0  0  0  0  0  0  0  0  0  0  0
   57.9360   32.1800   51.1800 C   0  0  0  0  0  0  0  0  0  0  0  0
   57.5755   32.6138   50.2356 H   0  0  0  0  0  0  0  0  0  0  0  0
   57.5302   32.7115   52.0534 H   0  0  0  0  0  0  0  0  0  0  0  0
   59.4050   32.3050   51.2260 N   0  0  0  0  0  0  0  0  0  0  0  0
   59.6390   33.3060   51.4330 H   0  0  0  0  0  0  0  0  0  0  0  0
   59.9640   31.4730   52.2960 C   0  0  0  0  0  0  0  0  0  0  0  0
   61.0401   31.6812   52.3895 H   0  0  0  0  0  0  0  0  0  0  0  0
   59.4441   31.7117   53.2355 H   0  0  0  0  0  0  0  0  0  0  0  0
   59.7640   29.9750   51.9880 C   0  0  0  0  0  0  0  0  0  0  0  0
   60.6911   29.5795   51.5475 H   0  0  0  0  0  0  0  0  0  0  0  0
   59.5161   29.4715   52.9340 H   0  0  0  0  0  0  0  0  0  0  0  0
   60.4780   28.1140   48.8610 C   0  0  0  0  0  0  0  0  0  0  0  0
   61.2101   28.4073   49.6278 H   0  0  0  0  0  0  0  0  0  0  0  0
   60.7550   27.0390   48.0150 C   0  0  0  0  0  0  0  0  0  0  0  0
   61.6978   26.4837   48.1279 H   0  0  0  0  0  0  0  0  0  0  0  0
   59.8410   26.6630   47.0240 C   0  0  0  0  0  0  0  0  0  0  0  0
   60.2210   25.2420   46.0500 Cl  0  0  0  0  0  0  0  0  0  0  0  0
   56.3060   26.4990   46.1940 C   0  0  0  0  0  0  0  0  0  0  0  0
   56.2283   26.4678   47.2908 H   0  0  0  0  0  0  0  0  0  0  0  0
   55.5172   27.1499   45.7889 H   0  0  0  0  0  0  0  0  0  0  0  0
   56.1871   25.4832   45.7889 H   0  0  0  0  0  0  0  0  0  0  0  0
   58.0140   28.4300   43.7630 C   0  0  0  0  0  0  0  0  0  0  0  0
   58.0352   28.4193   42.6633 H   0  0  0  0  0  0  0  0  0  0  0  0
   57.9830   29.5970   44.4140 C   0  0  0  0  0  0  0  0  0  0  0  0
   58.9316   30.1115   44.6272 H   0  0  0  0  0  0  0  0  0  0  0  0
   56.7160   30.2210   44.8580 C   0  0  0  0  0  0  0  0  0  0  0  0
   55.6500   29.5480   44.8570 O   0  0  0  0  0  0  0  0  0  0  0  0
   56.6490   31.6040   45.2340 N   0  0  0  0  0  0  0  0  0  0  0  0
   57.7610   32.4900   45.4190 C   0  0  0  0  0  0  0  0  0  0  0  0
   58.1450   33.3250   44.3640 C   0  0  0  0  0  0  0  0  0  0  0  0
   57.5923   33.2959   43.4134 H   0  0  0  0  0  0  0  0  0  0  0  0
   59.2280   34.1960   44.5130 C   0  0  0  0  0  0  0  0  0  0  0  0
   59.5398   34.8335   43.6725 H   0  0  0  0  0  0  0  0  0  0  0  0
   59.9140   34.2580   45.7260 C   0  0  0  0  0  0  0  0  0  0  0  0
   60.7793   34.9285   45.8341 H   0  0  0  0  0  0  0  0  0  0  0  0
   59.5010   33.4650   46.8100 C   0  0  0  0  0  0  0  0  0  0  0  0
   60.3150   33.5890   48.3680 S   0  0  0  0  0  0  0  0  0  0  0  0
   61.4240   34.5990   48.2420 O   0  0  0  0  0  0  0  0  0  0  0  0
   59.3460   34.0710   49.4130 O   0  0  0  0  0  0  0  0  0  0  0  0
   60.9900   32.0360   48.8250 N   0  0  0  0  0  0  0  0  0  0  0  0
   60.2400   31.5470   49.3710 H   0  0  0  0  0  0  0  0  0  0  0  0
   61.3060   31.2050   47.6360 C   0  0  0  0  0  0  0  0  0  0  0  0
   61.0116   30.1659   47.8450 H   0  0  0  0  0  0  0  0  0  0  0  0
   60.7509   31.6223   46.7829 H   0  0  0  0  0  0  0  0  0  0  0  0
   62.8000   31.2290   47.2730 C   0  0  0  0  0  0  0  0  0  0  0  0
   63.3259   30.4535   47.8492 H   0  0  0  0  0  0  0  0  0  0  0  0
   62.9094   31.0372   46.1954 H   0  0  0  0  0  0  0  0  0  0  0  0
   63.3560   32.4880   47.5730 O   0  0  0  0  0  0  0  0  0  0  0  0
   63.4200   32.6750   48.9770 C   0  0  0  0  0  0  0  0  0  0  0  0
   64.2863   32.1177   49.3629 H   0  0  0  0  0  0  0  0  0  0  0  0
   63.5058   33.7572   49.1547 H   0  0  0  0  0  0  0  0  0  0  0  0
   62.1540   32.1910   49.7250 C   0  0  0  0  0  0  0  0  0  0  0  0
   62.3703   31.2192   50.1928 H   0  0  0  0  0  0  0  0  0  0  0  0
   61.8973   32.9526   50.4760 H   0  0  0  0  0  0  0  0  0  0  0  0
   58.4180   32.5900   46.6550 C   0  0  0  0  0  0  0  0  0  0  0  0
   58.0813   31.9789   47.5054 H   0  0  0  0  0  0  0  0  0  0  0  0
  1  2  1  0
  2  3  2  0
  3  4  1  0
  4  5  2  0
  5  6  1  0
  5  7  1  0
  7  8  1  0
  8  9  1  0
  9 10  1  0
  9 11  1  0
 11 12  1  0
 11 13  1  0
 11 14  1  0
 14 15  1  0
 14 16  1  0
 14 17  1  0
 17 18  1  0
 17 19  1  0
 19 20  1  0
 19 21  1  0
 19 22  1  0
 22 23  1  0
 22 24  1  0
  7 25  2  0
 25 26  1  0
 25 27  1  0
 27 28  1  0
 27 29  2  0
 29 30  1  0
  3 31  1  0
 31 32  1  0
 31 33  1  0
 31 34  1  0
  2 35  1  0
 35 36  1  0
 35 37  2  0
 37 38  1  0
 37 39  1  0
 39 40  2  0
 39 41  1  0
 41 42  1  0
 42 43  2  0
 43 44  1  0
 43 45  1  0
 45 46  1  0
 45 47  2  0
 47 48  1  0
 47 49  1  0
 49 50  1  0
 50 51  2  0
 50 52  2  0
 50 53  1  0
 53 54  1  0
 53 55  1  0
 55 56  1  0
 55 57  1  0
 55 58  1  0
 58 59  1  0
 58 60  1  0
 58 61  1  0
 61 62  1  0
 62 63  1  0
 62 64  1  0
 62 65  1  0
 65 66  1  0
 65 67  1  0
 49 68  2  0
 68 69  1  0
 29  4  1  0
 68 42  1  0
 22  9  1  0
 65 53  1  0
M  CHG  2  41  -1  53   1
M  END
>  <UniqueID>  (17) 
15

>  <SMILES>  (17) 
CC(=C/C=C/C(=O)[N-]c1cccc(S(=O)(=O)[NH+]2CCOCC2)c1)c1cc(OC2CCNCC2)ccc1Cl

>  <Energy>  (17) 
96.68855620117385

>  <Genealogy>  (17) 
CC(=CC=CC(=O)[N-]c1cccc(S(=O)(=O)[NH+]2CCOCC2)c1)c1cc(OC2CCNCC2)ccc1Cl (protonated)
CC(=C/C=C/C(=O)[N-]c1cccc(S(=O)(=O)[NH+]2CCOCC2)c1)c1cc(OC2CCNCC2)ccc1Cl (cis-trans isomerization)
CC(=C/C=C/C(=O)[N-]c1cccc(S(=O)(=O)[NH+]2CCOCC2)c1)c1cc(OC2CCNCC2)ccc1Cl (3D coordinates assigned)
CC(=C/C=C/C(=O)[N-]c1cccc(S(=O)(=O)[NH+]2CCOCC2)c1)c1cc(OC2CCNCC2)ccc1Cl (nonaromatic ring conformer: 96.68855620117385 kcal/mol)

>  <smiles>  (17) 
CC(=CC=CC(=O)Nc1cccc(S(=O)(=O)N2CCOCC2)c1)c1cc(OC2CCNCC2)ccc1Cl

>  <score_type>  (17) 
oracle

>  <origin>  (17) 
adg

>  <m_score__min__energy>  (17) 
-10.380000000000001

>  <m_primary>  (17) 
energy

$$$$
17:0
     RDKit          3D

 71 74  0  0  0  0  0  0  0  0999 V2000
   56.3600   24.8370   47.8000 O   0  0  0  0  0  0  0  0  0  0  0  0
   56.2970   25.2580   46.6140 C   0  0  0  0  0  0  0  0  0  0  0  0
   57.5680   25.5790   45.8680 C   0  0  0  0  0  0  0  0  0  0  0  0
   57.5260   26.9630   45.2710 C   0  0  0  0  0  0  0  0  0  0  0  0
   56.4760   27.8400   45.5870 C   0  0  0  0  0  0  0  0  0  0  0  0
   56.4250   29.1150   45.0180 C   0  0  0  0  0  0  0  0  0  0  0  0
   57.4270   29.5380   44.1280 C   0  0  0  0  0  0  0  0  0  0  0  0
   57.3710   30.8890   43.5270 C   0  0  0  0  0  0  0  0  0  0  0  0
   57.0370   31.0140   42.3170 O   0  0  0  0  0  0  0  0  0  0  0  0
   57.7020   32.0610   44.2920 N   0  0  0  0  0  0  0  0  0  0  0  0
   57.0510   32.3030   45.5840 C   0  0  0  0  0  0  0  0  0  0  0  0
   58.0380   32.9450   46.5650 C   0  0  0  0  0  0  0  0  0  0  0  0
   58.7840   34.0540   45.9460 N   0  0  0  0  0  0  0  0  0  0  0  0
   59.5750   34.9370   46.7740 C   0  0  0  0  0  0  0  0  0  0  0  0
   59.8910   36.0820   46.3410 O   0  0  0  0  0  0  0  0  0  0  0  0
   60.0110   34.5150   48.1580 C   0  0  0  0  0  0  0  0  0  0  0  0
   61.3920   33.8360   48.1730 C   0  0  0  0  0  0  0  0  0  0  0  0
   61.4040   32.5520   49.0160 C   0  0  0  0  0  0  0  0  0  0  0  0
   60.6980   31.4120   48.3250 C   0  0  0  0  0  0  0  0  0  0  0  0
   61.0670   31.0320   47.0230 C   0  0  0  0  0  0  0  0  0  0  0  0
   60.3900   29.9950   46.3740 C   0  0  0  0  0  0  0  0  0  0  0  0
   59.3360   29.3360   47.0150 C   0  0  0  0  0  0  0  0  0  0  0  0
   58.9600   29.7110   48.3070 C   0  0  0  0  0  0  0  0  0  0  0  0
   59.6360   30.7460   48.9610 C   0  0  0  0  0  0  0  0  0  0  0  0
   58.5700   34.3810   44.5290 C   0  0  0  0  0  0  0  0  0  0  0  0
   58.5270   33.1080   43.6750 C   0  0  0  0  0  0  0  0  0  0  0  0
   58.4630   28.6490   43.7940 C   0  0  0  0  0  0  0  0  0  0  0  0
   58.5110   27.3720   44.3600 C   0  0  0  0  0  0  0  0  0  0  0  0
   55.0140   25.3300   45.9810 N   0  0  0  0  0  0  0  0  0  0  0  0
   54.1990   24.1780   45.6160 C   0  0  0  0  0  0  0  0  0  0  0  0
   54.6450   23.6520   44.2530 C   0  0  0  0  0  0  0  0  0  0  0  0
   55.7280   22.6170   44.4110 C   0  0  0  0  0  0  0  0  0  0  0  0
   55.8290   21.8650   45.5900 C   0  0  0  0  0  0  0  0  0  0  0  0
   56.8530   20.9220   45.7180 C   0  0  0  0  0  0  0  0  0  0  0  0
   57.7550   20.7460   44.7130 N   0  0  0  0  0  0  0  0  0  0  0  0
   57.6880   21.4760   43.5670 C   0  0  0  0  0  0  0  0  0  0  0  0
   56.6780   22.4250   43.3950 C   0  0  0  0  0  0  0  0  0  0  0  0
   58.4167   25.5164   46.5650 H   0  0  0  0  0  0  0  0  0  0  0  0
   57.6788   24.8537   45.0485 H   0  0  0  0  0  0  0  0  0  0  0  0
   55.6891   27.5214   46.2865 H   0  0  0  0  0  0  0  0  0  0  0  0
   55.5951   29.7922   45.2683 H   0  0  0  0  0  0  0  0  0  0  0  0
   56.1942   32.9772   45.4380 H   0  0  0  0  0  0  0  0  0  0  0  0
   56.7088   31.3429   45.9976 H   0  0  0  0  0  0  0  0  0  0  0  0
   57.4792   33.3313   47.4301 H   0  0  0  0  0  0  0  0  0  0  0  0
   58.7623   32.1762   46.8723 H   0  0  0  0  0  0  0  0  0  0  0  0
   60.0523   35.4074   48.7998 H   0  0  0  0  0  0  0  0  0  0  0  0
   59.2790   33.7797   48.5234 H   0  0  0  0  0  0  0  0  0  0  0  0
   61.6725   33.5830   47.1399 H   0  0  0  0  0  0  0  0  0  0  0  0
   62.1070   34.5399   48.6238 H   0  0  0  0  0  0  0  0  0  0  0  0
   62.4480   32.2608   49.2037 H   0  0  0  0  0  0  0  0  0  0  0  0
   60.8719   32.7594   49.9561 H   0  0  0  0  0  0  0  0  0  0  0  0
   61.8912   31.5522   46.5130 H   0  0  0  0  0  0  0  0  0  0  0  0
   60.6868   29.6970   45.3576 H   0  0  0  0  0  0  0  0  0  0  0  0
   58.8030   28.5222   46.5016 H   0  0  0  0  0  0  0  0  0  0  0  0
   58.1313   29.1917   48.8106 H   0  0  0  0  0  0  0  0  0  0  0  0
   59.3354   31.0401   49.9774 H   0  0  0  0  0  0  0  0  0  0  0  0
   57.6159   34.9182   44.4233 H   0  0  0  0  0  0  0  0  0  0  0  0
   59.4043   35.0088   44.1829 H   0  0  0  0  0  0  0  0  0  0  0  0
   58.1078   33.3557   42.6886 H   0  0  0  0  0  0  0  0  0  0  0  0
   59.5537   32.7236   43.5849 H   0  0  0  0  0  0  0  0  0  0  0  0
   59.2416   28.9604   43.0821 H   0  0  0  0  0  0  0  0  0  0  0  0
   59.3256   26.6840   44.0896 H   0  0  0  0  0  0  0  0  0  0  0  0
   54.3207   23.3882   46.3719 H   0  0  0  0  0  0  0  0  0  0  0  0
   53.1416   24.4771   45.5662 H   0  0  0  0  0  0  0  0  0  0  0  0
   53.7835   23.1981   43.7414 H   0  0  0  0  0  0  0  0  0  0  0  0
   55.0407   24.4911   43.6619 H   0  0  0  0  0  0  0  0  0  0  0  0
   55.1085   22.0158   46.4074 H   0  0  0  0  0  0  0  0  0  0  0  0
   56.9306   20.3192   46.6349 H   0  0  0  0  0  0  0  0  0  0  0  0
   58.5150   20.0370   44.8250 H   0  0  0  0  0  0  0  0  0  0  0  0
   58.4324   21.3181   42.7726 H   0  0  0  0  0  0  0  0  0  0  0  0
   56.6270   23.0180   42.4699 H   0  0  0  0  0  0  0  0  0  0  0  0
  1  2  2  0
  2  3  1  0
  3  4  1  0
  4  5  2  0
  5  6  1  0
  6  7  2  0
  7  8  1  0
  8  9  2  0
  8 10  1  0
 10 11  1  0
 11 12  1  0
 12 13  1  0
 13 14  1  0
 14 15  2  0
 14 16  1  0
 16 17  1  0
 17 18  1  0
 18 19  1  0
 19 20  2  0
 20 21  1  0
 21 22  2  0
 22 23  1  0
 23 24  2  0
 13 25  1  0
 25 26  1  0
  7 27  1  0
 27 28  2  0
  2 29  1  0
 29 30  1  0
 30 31  1  0
 31 32  1  0
 32 33  2  0
 33 34  1  0
 34 35  2  0
 35 36  1  0
 36 37  2  0
 28  4  1  0
 37 32  1  0
 26 10  1  0
 24 19  1  0
  3 38  1  0
  3 39  1  0
  5 40  1  0
  6 41  1  0
 11 42  1  0
 11 43  1  0
 12 44  1  0
 12 45  1  0
 16 46  1  0
 16 47  1  0
 17 48  1  0
 17 49  1  0
 18 50  1  0
 18 51  1  0
 20 52  1  0
 21 53  1  0
 22 54  1  0
 23 55  1  0
 24 56  1  0
 25 57  1  0
 25 58  1  0
 26 59  1  0
 26 60  1  0
 27 61  1  0
 28 62  1  0
 30 63  1  0
 30 64  1  0
 31 65  1  0
 31 66  1  0
 33 67  1  0
 34 68  1  0
 35 69  1  0
 36 70  1  0
 37 71  1  0
M  CHG  2  29  -1  35   1
M  END
>  <UniqueID>  (18) 
16

>  <SMILES>  (18) 
O=C(Cc1ccc(C(=O)N2CCN(C(=O)CCCc3ccccc3)CC2)cc1)[N-]CCc1cc[nH+]cc1

>  <Energy>  (18) 
70.78813823385524

>  <Genealogy>  (18) 
O=C(Cc1ccc(C(=O)N2CCN(C(=O)CCCc3ccccc3)CC2)cc1)[N-]CCc1cc[nH+]cc1 (protonated)
O=C(Cc1ccc(C(=O)N2CCN(C(=O)CCCc3ccccc3)CC2)cc1)[N-]CCc1cc[nH+]cc1 (3D coordinates assigned)
O=C(Cc1ccc(C(=O)N2CCN(C(=O)CCCc3ccccc3)CC2)cc1)[N-]CCc1cc[nH+]cc1 (nonaromatic ring conformer: 70.78813823385524 kcal/mol)

>  <smiles>  (18) 
O=C(Cc1ccc(C(=O)N2CCN(C(=O)CCCc3ccccc3)CC2)cc1)NCCc1ccncc1

>  <score_type>  (18) 
oracle

>  <origin>  (18) 
adg

>  <m_score__min__energy>  (18) 
-10.74

>  <m_primary>  (18) 
energy

$$$$
18:0
     RDKit          3D

 44 46  0  0  0  0  0  0  0  0999 V2000
   57.7830   31.9220   42.0730 C   0  0  0  0  0  0  0  0  0  0  0  0
   56.9650   31.0540   43.0410 C   0  0  0  0  0  0  0  0  0  0  0  0
   56.3020   29.8950   42.2750 C   0  0  0  0  0  0  0  0  0  0  0  0
   57.8250   30.5880   44.2510 C   0  0  1  0  0  0  0  0  0  0  0  0
   58.4620   31.7300   44.9200 N   0  0  0  0  0  0  0  0  0  0  0  0
   57.6940   32.7900   45.5170 C   0  0  0  0  0  0  0  0  0  0  0  0
   56.4580   32.8780   45.2900 O   0  0  0  0  0  0  0  0  0  0  0  0
   58.3230   33.7910   46.3220 N   0  0  0  0  0  0  0  0  0  0  0  0
   59.6140   33.6850   46.9390 C   0  0  0  0  0  0  0  0  0  0  0  0
   59.7560   33.5460   48.3320 C   0  0  0  0  0  0  0  0  0  0  0  0
   61.0300   33.4740   48.9050 C   0  0  0  0  0  0  0  0  0  0  0  0
   62.1680   33.5570   48.0970 C   0  0  0  0  0  0  0  0  0  0  0  0
   63.7650   33.4680   48.8170 Cl  0  0  0  0  0  0  0  0  0  0  0  0
   62.0320   33.7230   46.7150 C   0  0  0  0  0  0  0  0  0  0  0  0
   60.7590   33.7950   46.1400 C   0  0  0  0  0  0  0  0  0  0  0  0
   57.0320   29.7760   45.2450 C   0  0  0  0  0  0  0  0  0  0  0  0
   55.7770   29.7090   45.1440 O   0  0  0  0  0  0  0  0  0  0  0  0
   57.7250   29.0250   46.2490 N   0  0  0  0  0  0  0  0  0  0  0  0
   57.9430   27.6070   46.2530 C   0  0  0  0  0  0  0  0  0  0  0  0
   59.1880   27.1140   45.7920 C   0  0  0  0  0  0  0  0  0  0  0  0
   59.4610   25.7330   45.7950 C   0  0  0  0  0  0  0  0  0  0  0  0
   58.4740   24.8800   46.2770 C   0  0  0  0  0  0  0  0  0  0  0  0
   58.5260   23.5440   46.3810 N   0  0  0  0  0  0  0  0  0  0  0  0
   57.3150   23.2560   46.9230 C   0  0  0  0  0  0  0  0  0  0  0  0
   56.9580   22.0780   47.1860 O   0  0  0  0  0  0  0  0  0  0  0  0
   56.5180   24.3270   47.1640 N   0  0  0  0  0  0  0  0  0  0  0  0
   57.2830   25.3450   46.7400 C   0  0  0  0  0  0  0  0  0  0  0  0
   56.9740   26.7030   46.7540 C   0  0  0  0  0  0  0  0  0  0  0  0
   58.4265   32.6048   42.6472 H   0  0  0  0  0  0  0  0  0  0  0  0
   58.4078   31.2754   41.4393 H   0  0  0  0  0  0  0  0  0  0  0  0
   57.1005   32.5074   41.4393 H   0  0  0  0  0  0  0  0  0  0  0  0
   56.1542   31.6577   43.4747 H   0  0  0  0  0  0  0  0  0  0  0  0
   55.8878   29.1710   42.9921 H   0  0  0  0  0  0  0  0  0  0  0  0
   55.4926   30.2889   41.6428 H   0  0  0  0  0  0  0  0  0  0  0  0
   57.0518   29.3969   41.6428 H   0  0  0  0  0  0  0  0  0  0  0  0
   58.6085   29.9332   43.8419 H   0  0  0  0  0  0  0  0  0  0  0  0
   59.5020   31.7760   44.9890 H   0  0  0  0  0  0  0  0  0  0  0  0
   58.8629   33.4938   48.9720 H   0  0  0  0  0  0  0  0  0  0  0  0
   61.1367   33.3519   49.9930 H   0  0  0  0  0  0  0  0  0  0  0  0
   62.9269   33.7970   46.0797 H   0  0  0  0  0  0  0  0  0  0  0  0
   60.6566   33.9388   45.0543 H   0  0  0  0  0  0  0  0  0  0  0  0
   59.9504   27.8182   45.4274 H   0  0  0  0  0  0  0  0  0  0  0  0
   60.4218   25.3421   45.4288 H   0  0  0  0  0  0  0  0  0  0  0  0
   56.0091   27.0619   47.1414 H   0  0  0  0  0  0  0  0  0  0  0  0
  1  2  1  0
  2  3  1  0
  2  4  1  0
  4  5  1  0
  5  6  1  0
  6  7  2  0
  6  8  1  0
  8  9  1  0
  9 10  2  0
 10 11  1  0
 11 12  2  0
 12 13  1  0
 12 14  1  0
 14 15  2  0
  4 16  1  0
 16 17  2  0
 16 18  1  0
 18 19  1  0
 19 20  2  0
 20 21  1  0
 21 22  2  0
 22 23  1  0
 23 24  1  0
 24 25  2  0
 24 26  1  0
 26 27  1  0
 27 28  2  0
 15  9  1  0
 28 19  1  0
 27 22  1  0
  1 29  1  0
  1 30  1  0
  1 31  1  0
  2 32  1  0
  3 33  1  0
  3 34  1  0
  3 35  1  0
  4 36  1  6
  5 37  1  0
 10 38  1  0
 11 39  1  0
 14 40  1  0
 15 41  1  0
 20 42  1  0
 21 43  1  0
 28 44  1  0
M  CHG  4   8  -1  18  -1  23  -1  26  -1
M  END
>  <UniqueID>  (19) 
17

>  <SMILES>  (19) 
CC(C)[C@@H](NC(=O)[N-]c1ccc(Cl)cc1)C(=O)[N-]c1ccc2[n-]c(=O)[n-]c2c1

>  <Energy>  (19) 
83.6273583131893

>  <Genealogy>  (19) 
CC(C)C(NC(=O)[N-]c1ccc(Cl)cc1)C(=O)[N-]c1ccc2[n-]c(=O)[n-]c2c1 (protonated)
CC(C)[C@@H](NC(=O)[N-]c1ccc(Cl)cc1)C(=O)[N-]c1ccc2[n-]c(=O)[n-]c2c1 (chirality)
CC(C)[C@@H](NC(=O)[N-]c1ccc(Cl)cc1)C(=O)[N-]c1ccc2[n-]c(=O)[n-]c2c1 (3D coordinates assigned)
CC(C)[C@@H](NC(=O)[N-]c1ccc(Cl)cc1)C(=O)[N-]c1ccc2[n-]c(=O)[n-]c2c1 (optimized conformer: 83.6273583131893 kcal/mol)

>  <smiles>  (19) 
CC(C)C(NC(=O)Nc1ccc(Cl)cc1)C(=O)Nc1ccc2[nH]c(=O)[nH]c2c1

>  <score_type>  (19) 
oracle

>  <origin>  (19) 
adg

>  <m_score__min__energy>  (19) 
-14.210000000000001

>  <m_primary>  (19) 
energy

$$$$
19:0
     RDKit          3D

 55 58  0  0  0  0  0  0  0  0999 V2000
   61.9140   33.5460   52.9490 C   0  0  0  0  0  0  0  0  0  0  0  0
   60.5320   33.1250   52.6800 N   0  0  0  0  0  0  0  0  0  0  0  0
   60.3010   32.0970   51.8080 C   0  0  0  0  0  0  0  0  0  0  0  0
   58.9940   31.6740   51.5120 C   0  0  0  0  0  0  0  0  0  0  0  0
   58.7980   30.5440   50.5280 C   0  0  0  0  0  0  0  0  0  0  0  0
   58.7650   31.0620   49.1190 C   0  0  0  0  0  0  0  0  0  0  0  0
   58.7100   30.2420   48.1630 O   0  0  0  0  0  0  0  0  0  0  0  0
   58.8090   32.4760   48.8660 N   0  0  0  0  0  0  0  0  0  0  0  0
   58.7950   33.0520   47.5500 C   0  0  0  0  0  0  0  0  0  0  0  0
   59.3060   34.3380   47.3090 C   0  0  0  0  0  0  0  0  0  0  0  0
   59.2960   34.8680   46.0160 C   0  0  0  0  0  0  0  0  0  0  0  0
   58.7790   34.1220   44.9550 C   0  0  0  0  0  0  0  0  0  0  0  0
   58.2680   32.8330   45.1770 C   0  0  0  0  0  0  0  0  0  0  0  0
   57.7150   32.0230   44.0300 C   0  0  0  0  0  0  0  0  0  0  0  0
   57.2750   30.6530   44.4860 C   0  0  0  0  0  0  0  0  0  0  0  0
   55.9430   30.3790   44.4740 N   0  0  0  0  0  0  0  0  0  0  0  0
   55.4580   29.2020   44.8600 N   0  0  0  0  0  0  0  0  0  0  0  0
   56.2700   28.2040   45.2840 C   0  0  0  0  0  0  0  0  0  0  0  0
   55.7620   27.1090   45.6480 O   0  0  0  0  0  0  0  0  0  0  0  0
   57.6590   28.4000   45.3170 C   0  0  0  0  0  0  0  0  0  0  0  0
   58.1780   29.6640   44.9460 C   0  0  0  0  0  0  0  0  0  0  0  0
   59.6760   29.9150   44.9320 C   0  0  0  0  0  0  0  0  0  0  0  0
   60.4660   28.9090   45.7700 C   0  0  0  0  0  0  0  0  0  0  0  0
   60.0210   27.4870   45.4510 C   0  0  0  0  0  0  0  0  0  0  0  0
   58.5560   27.2950   45.8410 C   0  0  0  0  0  0  0  0  0  0  0  0
   58.3060   32.2950   46.4750 C   0  0  0  0  0  0  0  0  0  0  0  0
   57.9100   32.3540   52.1110 C   0  0  0  0  0  0  0  0  0  0  0  0
   56.5460   32.0030   51.8380 N   0  0  0  0  0  0  0  0  0  0  0  0
   58.1710   33.4100   52.9890 C   0  0  0  0  0  0  0  0  0  0  0  0
   59.4860   33.7900   53.2630 C   0  0  0  0  0  0  0  0  0  0  0  0
   59.6950   34.7530   54.0510 O   0  0  0  0  0  0  0  0  0  0  0  0
   62.0772   33.5957   54.0357 H   0  0  0  0  0  0  0  0  0  0  0  0
   62.6114   32.8195   52.5063 H   0  0  0  0  0  0  0  0  0  0  0  0
   62.0879   34.5379   52.5063 H   0  0  0  0  0  0  0  0  0  0  0  0
   61.1535   31.5923   51.3298 H   0  0  0  0  0  0  0  0  0  0  0  0
   59.6280   29.8293   50.6299 H   0  0  0  0  0  0  0  0  0  0  0  0
   57.8387   30.0511   50.7444 H   0  0  0  0  0  0  0  0  0  0  0  0
   58.9960   33.1150   49.6720 H   0  0  0  0  0  0  0  0  0  0  0  0
   59.7154   34.9299   48.1409 H   0  0  0  0  0  0  0  0  0  0  0  0
   59.6967   35.8760   45.8335 H   0  0  0  0  0  0  0  0  0  0  0  0
   58.7719   34.5462   43.9401 H   0  0  0  0  0  0  0  0  0  0  0  0
   56.8511   32.5523   43.6016 H   0  0  0  0  0  0  0  0  0  0  0  0
   58.5087   31.8997   43.2784 H   0  0  0  0  0  0  0  0  0  0  0  0
   60.0299   29.8573   43.8921 H   0  0  0  0  0  0  0  0  0  0  0  0
   59.8438   30.9088   45.3726 H   0  0  0  0  0  0  0  0  0  0  0  0
   61.5378   29.0125   45.5453 H   0  0  0  0  0  0  0  0  0  0  0  0
   60.2823   29.1099   46.8358 H   0  0  0  0  0  0  0  0  0  0  0  0
   60.1376   27.3026   44.3729 H   0  0  0  0  0  0  0  0  0  0  0  0
   60.6409   26.7794   46.0211 H   0  0  0  0  0  0  0  0  0  0  0  0
   58.2065   26.3352   45.4328 H   0  0  0  0  0  0  0  0  0  0  0  0
   58.5001   27.3157   46.9394 H   0  0  0  0  0  0  0  0  0  0  0  0
   57.9485   31.2695   46.6497 H   0  0  0  0  0  0  0  0  0  0  0  0
   55.8560   31.8010   52.5910 H   0  0  0  0  0  0  0  0  0  0  0  0
   56.2050   31.9380   50.8530 H   0  0  0  0  0  0  0  0  0  0  0  0
   57.3362   33.9441   53.4663 H   0  0  0  0  0  0  0  0  0  0  0  0
  1  2  1  0
  2  3  1  0
  3  4  2  0
  4  5  1  0
  5  6  1  0
  6  7  2  0
  6  8  1  0
  8  9  1  0
  9 10  2  0
 10 11  1  0
 11 12  2  0
 12 13  1  0
 13 14  1  0
 14 15  1  0
 15 16  2  0
 16 17  1  0
 17 18  1  0
 18 19  2  0
 18 20  1  0
 20 21  2  0
 21 22  1  0
 22 23  1  0
 23 24  1  0
 24 25  1  0
 13 26  2  0
  4 27  1  0
 27 28  1  0
 27 29  2  0
 29 30  1  0
 30 31  2  0
 30  2  1  0
 26  9  1  0
 21 15  1  0
 25 20  1  0
  1 32  1  0
  1 33  1  0
  1 34  1  0
  3 35  1  0
  5 36  1  0
  5 37  1  0
  8 38  1  0
 10 39  1  0
 11 40  1  0
 12 41  1  0
 14 42  1  0
 14 43  1  0
 22 44  1  0
 22 45  1  0
 23 46  1  0
 23 47  1  0
 24 48  1  0
 24 49  1  0
 25 50  1  0
 25 51  1  0
 26 52  1  0
 28 53  1  0
 28 54  1  0
 29 55  1  0
M  CHG  1  17  -1
M  END
>  <UniqueID>  (20) 
18

>  <SMILES>  (20) 
Cn1cc(CC(=O)Nc2cccc(Cc3n[n-]c(=O)c4c3CCCC4)c2)c(N)cc1=O

>  <Energy>  (20) 
65.59555652065552

>  <Genealogy>  (20) 
Cn1cc(CC(=O)Nc2cccc(Cc3n[n-]c(=O)c4c3CCCC4)c2)c(N)cc1=O (protonated)
Cn1cc(CC(=O)Nc2cccc(Cc3n[n-]c(=O)c4c3CCCC4)c2)c(N)cc1=O (3D coordinates assigned)
Cn1cc(CC(=O)Nc2cccc(Cc3n[n-]c(=O)c4c3CCCC4)c2)c(N)cc1=O (nonaromatic ring conformer: 65.59555652065552 kcal/mol)

>  <smiles>  (20) 
Cn1cc(CC(=O)Nc2cccc(Cc3n[nH]c(=O)c4c3CCCC4)c2)c(N)cc1=O

>  <score_type>  (20) 
oracle

>  <origin>  (20) 
adg

>  <m_score__min__energy>  (20) 
-12.34

>  <m_primary>  (20) 
energy

$$$$
20:0
     RDKit          3D

 53 55  0  0  0  0  0  0  0  0999 V2000
   59.2720   34.7040   44.5070 C   0  0  0  0  0  0  0  0  0  0  0  0
   59.2620   34.2890   45.9540 C   0  0  0  0  0  0  0  0  0  0  0  0
   60.3530   34.6240   46.7710 C   0  0  0  0  0  0  0  0  0  0  0  0
   60.3880   34.2250   48.1080 C   0  0  0  0  0  0  0  0  0  0  0  0
   59.3290   33.4910   48.6620 C   0  0  0  0  0  0  0  0  0  0  0  0
   59.3860   33.0590   50.0790 C   0  0  0  0  0  0  0  0  0  0  0  0
   59.2750   33.9090   51.0040 O   0  0  0  0  0  0  0  0  0  0  0  0
   59.5540   31.6430   50.4440 C   0  0  0  0  0  0  0  0  0  0  0  0
   58.5340   31.0180   51.0940 N   0  0  0  0  0  0  0  0  0  0  0  0
   58.6070   29.7150   51.4690 C   0  0  0  0  0  0  0  0  0  0  0  0
   59.7510   28.9700   51.1870 C   0  0  0  0  0  0  0  0  0  0  0  0
   60.8110   29.5760   50.5120 C   0  0  0  0  0  0  0  0  0  0  0  0
   60.7330   30.9260   50.1370 C   0  0  0  0  0  0  0  0  0  0  0  0
   61.8470   31.5280   49.3190 C   0  0  0  0  0  0  0  0  0  0  0  0
   62.0170   30.7510   48.0860 N   0  0  0  0  0  0  0  0  0  0  0  0
   61.2280   31.3070   46.9770 C   0  0  0  0  0  0  0  0  0  0  0  0
   60.1340   30.3440   46.6070 C   0  0  0  0  0  0  0  0  0  0  0  0
   59.9520   29.1670   47.3490 C   0  0  0  0  0  0  0  0  0  0  0  0
   58.9250   28.2790   47.0200 C   0  0  0  0  0  0  0  0  0  0  0  0
   58.0550   28.5720   45.9660 C   0  0  0  0  0  0  0  0  0  0  0  0
   58.2050   29.7610   45.2410 C   0  0  0  0  0  0  0  0  0  0  0  0
   57.0960   30.1460   43.9300 S   0  0  0  0  0  0  0  0  0  0  0  0
   57.7220   31.5370   43.0170 C   0  0  0  0  0  0  0  0  0  0  0  0
   56.9580   28.9640   43.0120 O   0  0  0  0  0  0  0  0  0  0  0  0
   55.7430   30.4800   44.4940 O   0  0  0  0  0  0  0  0  0  0  0  0
   59.2500   30.6400   45.5570 C   0  0  0  0  0  0  0  0  0  0  0  0
   58.2330   33.1550   47.8480 C   0  0  0  0  0  0  0  0  0  0  0  0
   58.1950   33.5350   46.4950 C   0  0  0  0  0  0  0  0  0  0  0  0
   57.0190   33.1260   45.6490 C   0  0  0  0  0  0  0  0  0  0  0  0
   59.2984   35.8017   44.4405 H   0  0  0  0  0  0  0  0  0  0  0  0
   60.1603   34.2852   44.0116 H   0  0  0  0  0  0  0  0  0  0  0  0
   58.3645   34.3284   44.0116 H   0  0  0  0  0  0  0  0  0  0  0  0
   61.1879   35.2062   46.3539 H   0  0  0  0  0  0  0  0  0  0  0  0
   61.2540   34.4886   48.7329 H   0  0  0  0  0  0  0  0  0  0  0  0
   57.7625   29.2468   51.9959 H   0  0  0  0  0  0  0  0  0  0  0  0
   59.8173   27.9156   51.4934 H   0  0  0  0  0  0  0  0  0  0  0  0
   61.7123   28.9927   50.2726 H   0  0  0  0  0  0  0  0  0  0  0  0
   61.5962   32.5687   49.0660 H   0  0  0  0  0  0  0  0  0  0  0  0
   62.7817   31.5091   49.8986 H   0  0  0  0  0  0  0  0  0  0  0  0
   63.0300   30.7890   47.8220 H   0  0  0  0  0  0  0  0  0  0  0  0
   60.7841   32.2645   47.2870 H   0  0  0  0  0  0  0  0  0  0  0  0
   61.8821   31.4700   46.1077 H   0  0  0  0  0  0  0  0  0  0  0  0
   60.6207   28.9427   48.1931 H   0  0  0  0  0  0  0  0  0  0  0  0
   58.8008   27.3474   47.5915 H   0  0  0  0  0  0  0  0  0  0  0  0
   57.2512   27.8677   45.7055 H   0  0  0  0  0  0  0  0  0  0  0  0
   58.0697   32.3096   43.7186 H   0  0  0  0  0  0  0  0  0  0  0  0
   58.5609   31.2125   42.3838 H   0  0  0  0  0  0  0  0  0  0  0  0
   56.9228   31.9496   42.3838 H   0  0  0  0  0  0  0  0  0  0  0  0
   59.3783   31.5671   44.9791 H   0  0  0  0  0  0  0  0  0  0  0  0
   57.3937   32.5870   48.2757 H   0  0  0  0  0  0  0  0  0  0  0  0
   56.1820   32.8349   46.3007 H   0  0  0  0  0  0  0  0  0  0  0  0
   56.7128   33.9704   45.0140 H   0  0  0  0  0  0  0  0  0  0  0  0
   57.3028   32.2738   45.0140 H   0  0  0  0  0  0  0  0  0  0  0  0
  1  2  1  0
  2  3  2  0
  3  4  1  0
  4  5  2  0
  5  6  1  0
  6  7  2  0
  6  8  1  0
  8  9  2  0
  9 10  1  0
 10 11  2  0
 11 12  1  0
 12 13  2  0
 13 14  1  0
 14 15  1  0
 15 16  1  0
 16 17  1  0
 17 18  2  0
 18 19  1  0
 19 20  2  0
 20 21  1  0
 21 22  1  0
 22 23  1  0
 22 24  2  0
 22 25  2  0
 21 26  2  0
  5 27  1  0
 27 28  2  0
 28 29  1  0
 28  2  1  0
 13  8  1  0
 26 17  1  0
  1 30  1  0
  1 31  1  0
  1 32  1  0
  3 33  1  0
  4 34  1  0
 10 35  1  0
 11 36  1  0
 12 37  1  0
 14 38  1  0
 14 39  1  0
 15 40  1  0
 16 41  1  0
 16 42  1  0
 18 43  1  0
 19 44  1  0
 20 45  1  0
 23 46  1  0
 23 47  1  0
 23 48  1  0
 26 49  1  0
 27 50  1  0
 29 51  1  0
 29 52  1  0
 29 53  1  0
M  END
>  <UniqueID>  (21) 
19

>  <SMILES>  (21) 
Cc1ccc(C(=O)c2ncccc2CNCc2cccc(S(C)(=O)=O)c2)cc1C

>  <Energy>  (21) 
53.26380179248145

>  <Genealogy>  (21) 
Cc1ccc(C(=O)c2ncccc2CNCc2cccc(S(C)(=O)=O)c2)cc1C (3D coordinates assigned)
Cc1ccc(C(=O)c2ncccc2CNCc2cccc(S(C)(=O)=O)c2)cc1C (optimized conformer: 53.26380179248145 kcal/mol)

>  <smiles>  (21) 
Cc1ccc(C(=O)c2ncccc2CNCc2cccc(S(C)(=O)=O)c2)cc1C

>  <score_type>  (21) 
oracle

>  <origin>  (21) 
adg

>  <m_score__min__energy>  (21) 
-9.8100000000000005

>  <m_primary>  (21) 
energy

$$$$
21:0
     RDKit          3D

 59 62  0  0  1  0  0  0  0  0999 V2000
   59.1720   22.7340   45.2340 C   0  0  0  0  0  0  0  0  0  0  0  0
   58.9790   23.7090   46.2290 O   0  0  0  0  0  0  0  0  0  0  0  0
   58.4720   24.9710   45.9440 C   0  0  0  0  0  0  0  0  0  0  0  0
   59.3540   25.9770   45.6400 C   0  0  0  0  0  0  0  0  0  0  0  0
   58.8620   27.2350   45.3560 C   0  0  0  0  0  0  0  0  0  0  0  0
   57.4960   27.4180   45.3910 C   0  0  0  0  0  0  0  0  0  0  0  0
   56.9860   28.7510   45.0720 C   0  0  0  0  0  0  0  0  0  0  0  0
   55.8080   29.1000   44.5100 N   0  0  0  0  0  0  0  0  0  0  0  0
   55.7630   30.4060   44.3890 O   0  0  0  0  0  0  0  0  0  0  0  0
   56.9020   30.8980   44.8680 C   0  0  0  0  0  0  0  0  0  0  0  0
   57.2270   32.1120   44.9200 N   0  0  0  0  0  0  0  0  0  0  0  0
   58.4840   32.7080   44.7240 C   0  0  0  0  0  0  0  0  0  0  0  0
   59.1850   33.0020   46.0210 C   0  0  0  0  0  0  0  0  0  0  0  0
   59.8100   31.9790   46.7450 C   0  0  0  0  0  0  0  0  0  0  0  0
   60.4810   32.2810   47.9380 C   0  0  0  0  0  0  0  0  0  0  0  0
   60.4820   33.6100   48.3330 C   0  0  0  0  0  0  0  0  0  0  0  0
   61.1840   33.9380   49.5620 C   0  0  0  0  0  0  0  0  0  0  0  0
   60.5530   34.1260   50.6400 O   0  0  0  0  0  0  0  0  0  0  0  0
   62.5980   34.0630   49.6280 N   0  0  0  0  0  0  0  0  0  0  0  0
   63.2560   34.3960   50.8880 C   0  0  0  0  0  0  0  0  0  0  0  0
   64.6170   33.7360   50.8180 C   0  0  0  0  0  0  0  0  0  0  0  0
   64.5800   32.4710   50.1270 N   0  0  0  0  0  0  0  0  0  0  0  0
   65.8960   31.8730   50.1990 C   0  0  0  0  0  0  0  0  0  0  0  0
   64.1730   32.5400   48.7550 C   0  0  0  0  0  0  0  0  0  0  0  0
   63.4710   33.8730   48.4840 C   0  0  0  0  0  0  0  0  0  0  0  0
   59.8660   34.6110   47.6160 C   0  0  0  0  0  0  0  0  0  0  0  0
   59.2050   34.3100   46.4440 C   0  0  0  0  0  0  0  0  0  0  0  0
   57.6910   29.8890   45.3040 N   0  0  0  0  0  0  0  0  0  0  0  0
   56.5990   26.4170   45.6950 C   0  0  0  0  0  0  0  0  0  0  0  0
   55.2360   26.5950   45.7330 O   0  0  0  0  0  0  0  0  0  0  0  0
   57.1030   25.1480   45.9820 C   0  0  0  0  0  0  0  0  0  0  0  0
   56.1600   24.0330   46.3170 C   0  0  0  0  0  0  0  0  0  0  0  0
   59.3648   21.7600   45.7075 H   0  0  0  0  0  0  0  0  0  0  0  0
   58.2700   22.6653   44.6081 H   0  0  0  0  0  0  0  0  0  0  0  0
   60.0321   23.0141   44.6081 H   0  0  0  0  0  0  0  0  0  0  0  0
   60.4368   25.7840   45.6229 H   0  0  0  0  0  0  0  0  0  0  0  0
   59.5391   28.0661   45.1093 H   0  0  0  0  0  0  0  0  0  0  0  0
   59.1102   32.0258   44.1303 H   0  0  0  0  0  0  0  0  0  0  0  0
   58.3255   33.6638   44.2032 H   0  0  0  0  0  0  0  0  0  0  0  0
   59.7745   30.9424   46.3788 H   0  0  0  0  0  0  0  0  0  0  0  0
   60.9820   31.5021   48.5315 H   0  0  0  0  0  0  0  0  0  0  0  0
   63.3618   35.4861   50.9905 H   0  0  0  0  0  0  0  0  0  0  0  0
   62.6770   34.0481   51.7562 H   0  0  0  0  0  0  0  0  0  0  0  0
   65.3084   34.4077   50.2882 H   0  0  0  0  0  0  0  0  0  0  0  0
   64.9505   33.5453   51.8487 H   0  0  0  0  0  0  0  0  0  0  0  0
   66.1824   31.7428   51.2530 H   0  0  0  0  0  0  0  0  0  0  0  0
   65.8813   30.8931   49.6993 H   0  0  0  0  0  0  0  0  0  0  0  0
   66.6245   32.5285   49.6993 H   0  0  0  0  0  0  0  0  0  0  0  0
   65.0584   32.4563   48.1077 H   0  0  0  0  0  0  0  0  0  0  0  0
   63.4767   31.7153   48.5428 H   0  0  0  0  0  0  0  0  0  0  0  0
   64.2033   34.6908   48.4136 H   0  0  0  0  0  0  0  0  0  0  0  0
   62.9190   33.8693   47.5326 H   0  0  0  0  0  0  0  0  0  0  0  0
   59.9011   35.6493   47.9776 H   0  0  0  0  0  0  0  0  0  0  0  0
   58.7054   35.0978   45.8611 H   0  0  0  0  0  0  0  0  0  0  0  0
   58.6320   30.0010   45.7230 H   0  0  0  0  0  0  0  0  0  0  0  0
   54.7650   27.0920   44.9700 H   0  0  0  0  0  0  0  0  0  0  0  0
   56.0790   23.9372   47.4098 H   0  0  0  0  0  0  0  0  0  0  0  0
   55.1686   24.2516   45.8936 H   0  0  0  0  0  0  0  0  0  0  0  0
   56.5401   23.0916   45.8936 H   0  0  0  0  0  0  0  0  0  0  0  0
  1  2  1  0
  2  3  1  0
  3  4  2  0
  4  5  1  0
  5  6  2  0
  6  7  1  0
  7  8  2  0
  8  9  1  0
  9 10  1  0
 10 11  2  0
 11 12  1  0
 12 13  1  0
 13 14  2  0
 14 15  1  0
 15 16  2  0
 16 17  1  0
 17 18  2  0
 17 19  1  0
 19 20  1  0
 20 21  1  0
 21 22  1  0
 22 23  1  0
 22 24  1  0
 24 25  1  0
 16 26  1  0
 26 27  2  0
 10 28  1  0
  6 29  1  0
 29 30  1  0
 29 31  2  0
 31 32  1  0
 31  3  1  0
 28  7  1  0
 27 13  1  0
 25 19  1  0
  1 33  1  0
  1 34  1  0
  1 35  1  0
  4 36  1  0
  5 37  1  0
 12 38  1  0
 12 39  1  0
 14 40  1  0
 15 41  1  0
 20 42  1  0
 20 43  1  0
 21 44  1  0
 21 45  1  0
 23 46  1  0
 23 47  1  0
 23 48  1  0
 24 49  1  0
 24 50  1  0
 25 51  1  0
 25 52  1  0
 26 53  1  0
 27 54  1  0
 28 55  1  0
 30 56  1  0
 32 57  1  0
 32 58  1  0
 32 59  1  0
M  END
>  <smiles>  (22) 
COc1ccc(-c2noc(=NCc3ccc(C(=O)N4CCN(C)CC4)cc3)[nH]2)c(O)c1C

>  <score_type>  (22) 
oracle

>  <origin>  (22) 
adg

>  <m_score__min__energy>  (22) 
-11

>  <m_primary>  (22) 
energy

$$$$
22:0
     RDKit          3D

 49 51  0  0  0  0  0  0  0  0999 V2000
   59.5853   31.2587   46.5756 H   0  0  0  0  0  0  0  0  0  0  0  0
   59.1130   30.2790   46.7400 C   0  0  0  0  0  0  0  0  0  0  0  0
   59.3799   29.6812   47.6240 H   0  0  0  0  0  0  0  0  0  0  0  0
   58.2110   29.8130   45.8620 C   0  0  0  0  0  0  0  0  0  0  0  0
   57.5370   28.5890   45.9490 C   0  0  0  0  0  0  0  0  0  0  0  0
   57.6940   27.6330   46.8870 C   0  0  0  0  0  0  0  0  0  0  0  0
   58.2427   27.8928   47.8043 H   0  0  0  0  0  0  0  0  0  0  0  0
   57.1730   26.2590   46.7550 C   0  0  0  0  0  0  0  0  0  0  0  0
   57.8680   25.1670   47.1220 N   0  0  0  0  0  0  0  0  0  0  0  0
   57.0010   24.1550   46.9050 C   0  0  0  0  0  0  0  0  0  0  0  0
   57.2970   22.9500   47.1200 O   0  0  0  0  0  0  0  0  0  0  0  0
   55.7880   24.5350   46.4470 N   0  0  0  0  0  0  0  0  0  0  0  0
   55.9080   25.8710   46.3690 C   0  0  0  0  0  0  0  0  0  0  0  0
   54.8680   26.7160   45.9990 O   0  0  0  0  0  0  0  0  0  0  0  0
   56.7140   28.5160   44.8350 C   0  0  0  0  0  0  0  0  0  0  0  0
   56.0453   27.6849   44.5664 H   0  0  0  0  0  0  0  0  0  0  0  0
   56.8960   29.6870   44.1290 C   0  0  0  0  0  0  0  0  0  0  0  0
   56.2510   29.9820   42.8080 C   0  0  0  0  0  0  0  0  0  0  0  0
   55.2623   30.4342   42.9755 H   0  0  0  0  0  0  0  0  0  0  0  0
   56.8823   30.6809   42.2397 H   0  0  0  0  0  0  0  0  0  0  0  0
   56.1352   29.0474   42.2397 H   0  0  0  0  0  0  0  0  0  0  0  0
   57.8130   30.4760   44.7400 N   0  0  0  0  0  0  0  0  0  0  0  0
   58.2470   31.8030   44.2690 C   0  0  0  0  0  0  0  0  0  0  0  0
   59.2451   32.0188   44.6780 H   0  0  0  0  0  0  0  0  0  0  0  0
   58.2695   31.7889   43.1693 H   0  0  0  0  0  0  0  0  0  0  0  0
   57.2760   32.9030   44.7170 C   0  0  0  0  0  0  0  0  0  0  0  0
   57.1340   33.6118   43.8879 H   0  0  0  0  0  0  0  0  0  0  0  0
   56.3250   32.4263   44.9970 H   0  0  0  0  0  0  0  0  0  0  0  0
   57.7920   33.6490   45.9100 C   0  0  0  0  0  0  0  0  0  0  0  0
   57.1910   33.5480   47.0140 O   0  0  0  0  0  0  0  0  0  0  0  0
   58.9680   34.4600   45.7980 N   0  0  0  0  0  0  0  0  0  0  0  0
   59.4160   34.5560   44.8570 H   0  0  0  0  0  0  0  0  0  0  0  0
   59.5400   35.1510   46.9540 C   0  0  0  0  0  0  0  0  0  0  0  0
   60.4379   35.6998   46.6338 H   0  0  0  0  0  0  0  0  0  0  0  0
   58.7813   35.8397   47.3540 H   0  0  0  0  0  0  0  0  0  0  0  0
   59.9280   34.1650   48.0650 C   0  0  0  0  0  0  0  0  0  0  0  0
   59.6830   34.6097   49.0408 H   0  0  0  0  0  0  0  0  0  0  0  0
   59.3677   33.2308   47.9122 H   0  0  0  0  0  0  0  0  0  0  0  0
   61.4020   33.8490   48.0250 C   0  0  0  0  0  0  0  0  0  0  0  0
   62.1330   33.7010   49.2160 C   0  0  0  0  0  0  0  0  0  0  0  0
   61.6381   33.8541   50.1864 H   0  0  0  0  0  0  0  0  0  0  0  0
   63.4900   33.3590   49.1700 C   0  0  0  0  0  0  0  0  0  0  0  0
   64.0587   33.2464   50.1048 H   0  0  0  0  0  0  0  0  0  0  0  0
   64.1250   33.1600   47.9400 C   0  0  0  0  0  0  0  0  0  0  0  0
   65.1908   32.8897   47.9078 H   0  0  0  0  0  0  0  0  0  0  0  0
   63.4040   33.3050   46.7520 C   0  0  0  0  0  0  0  0  0  0  0  0
   63.9033   33.1520   45.7839 H   0  0  0  0  0  0  0  0  0  0  0  0
   62.0460   33.6450   46.7930 C   0  0  0  0  0  0  0  0  0  0  0  0
   61.4805   33.7529   45.8557 H   0  0  0  0  0  0  0  0  0  0  0  0
  1  2  1  0
  2  3  1  0
  2  4  2  0
  4  5  1  0
  5  6  2  0
  6  7  1  0
  6  8  1  0
  8  9  1  0
  9 10  1  0
 10 11  2  0
 10 12  1  0
 12 13  1  0
 13 14  1  0
  5 15  1  0
 15 16  1  0
 15 17  2  0
 17 18  1  0
 18 19  1  0
 18 20  1  0
 18 21  1  0
 17 22  1  0
 22 23  1  0
 23 24  1  0
 23 25  1  0
 23 26  1  0
 26 27  1  0
 26 28  1  0
 26 29  1  0
 29 30  2  0
 29 31  1  0
 31 32  1  0
 31 33  1  0
 33 34  1  0
 33 35  1  0
 33 36  1  0
 36 37  1  0
 36 38  1  0
 36 39  1  0
 39 40  2  0
 40 41  1  0
 40 42  1  0
 42 43  1  0
 42 44  2  0
 44 45  1  0
 44 46  1  0
 46 47  1  0
 46 48  2  0
 48 49  1  0
 22  4  1  0
 48 39  1  0
 13  8  2  0
M  CHG  3   9  -1  12  -1  14  -1
M  END
>  <UniqueID>  (23) 
20

>  <SMILES>  (23) 
C=c1/c(=C/c2[n-]c(=O)[n-]c2[O-])cc(C)n1CCC(=O)NCCc1ccccc1

>  <Energy>  (23) 
107.0863594381843

>  <Genealogy>  (23) 
C=c1c(=Cc2[n-]c(=O)[n-]c2[O-])cc(C)n1CCC(=O)NCCc1ccccc1 (protonated)
C=c1/c(=C/c2[n-]c(=O)[n-]c2[O-])cc(C)n1CCC(=O)NCCc1ccccc1 (cis-trans isomerization)
C=c1/c(=C/c2[n-]c(=O)[n-]c2[O-])cc(C)n1CCC(=O)NCCc1ccccc1 (3D coordinates assigned)
C=c1/c(=C/c2[n-]c(=O)[n-]c2[O-])cc(C)n1CCC(=O)NCCc1ccccc1 (optimized conformer: 107.0863594381843 kcal/mol)

>  <smiles>  (23) 
C=c1c(=Cc2[nH]c(=O)[nH]c2O)cc(C)n1CCC(=O)NCCc1ccccc1

>  <score_type>  (23) 
oracle

>  <origin>  (23) 
adg

>  <m_score__min__energy>  (23) 
-16.559999999999999

>  <m_primary>  (23) 
energy

$$$$
23:0
     RDKit          3D

 62 65  0  0  0  0  0  0  0  0999 V2000
   57.9850   30.2470   43.7760 C   0  0  0  0  0  0  0  0  0  0  0  0
   58.3240   30.3460   45.0720 C   0  0  0  0  0  0  0  0  0  0  0  0
   58.5070   29.2810   45.9640 C   0  0  0  0  0  0  0  0  0  0  0  0
   58.4310   27.9600   45.6830 C   0  0  0  0  0  0  0  0  0  0  0  0
   57.2590   27.0870   45.9240 C   0  0  0  0  0  0  0  0  0  0  0  0
   57.2850   25.8400   46.4290 N   0  0  0  0  0  0  0  0  0  0  0  0
   55.9890   25.4620   46.4140 C   0  0  0  0  0  0  0  0  0  0  0  0
   55.6060   24.3350   46.8220 O   0  0  0  0  0  0  0  0  0  0  0  0
   55.1340   26.3880   45.9280 N   0  0  0  0  0  0  0  0  0  0  0  0
   55.9540   27.4070   45.6230 C   0  0  0  0  0  0  0  0  0  0  0  0
   55.5170   28.6060   45.0760 O   0  0  0  0  0  0  0  0  0  0  0  0
   58.7980   29.8600   47.1910 C   0  0  0  0  0  0  0  0  0  0  0  0
   58.8050   31.2300   47.0070 C   0  0  0  0  0  0  0  0  0  0  0  0
   59.0460   32.2310   48.0840 C   0  0  0  0  0  0  0  0  0  0  0  0
   58.0500   32.7190   48.6850 O   0  0  0  0  0  0  0  0  0  0  0  0
   60.3790   32.6190   48.5080 N   0  0  0  0  0  0  0  0  0  0  0  0
   61.4190   31.7670   47.8860 C   0  0  0  0  0  0  0  0  0  0  0  0
   62.8170   32.2260   48.3100 C   0  0  0  0  0  0  0  0  0  0  0  0
   62.8990   32.3420   49.7670 N   0  0  0  0  0  0  0  0  0  0  0  0
   64.1680   32.6360   50.3650 C   0  0  0  0  0  0  0  0  0  0  0  0
   64.6000   33.8190   50.3190 O   0  0  0  0  0  0  0  0  0  0  0  0
   64.9580   31.5950   50.9850 N   0  0  0  0  0  0  0  0  0  0  0  0
   64.3590   30.2790   51.2560 C   0  0  0  0  0  0  0  0  0  0  0  0
   65.3570   29.3130   51.9060 C   0  0  0  0  0  0  0  0  0  0  0  0
   66.6530   29.3760   51.2170 N   0  0  0  0  0  0  0  0  0  0  0  0
   67.4050   28.1750   50.9660 C   0  0  0  0  0  0  0  0  0  0  0  0
   68.5000   28.2340   50.3390 O   0  0  0  0  0  0  0  0  0  0  0  0
   66.9190   26.9380   51.4120 O   0  0  0  0  0  0  0  0  0  0  0  0
   66.4240   25.9420   50.5260 C   0  0  0  0  0  0  0  0  0  0  0  0
   67.2380   30.6800   50.8690 C   0  0  0  0  0  0  0  0  0  0  0  0
   66.3600   31.8420   51.3490 C   0  0  0  0  0  0  0  0  0  0  0  0
   61.7250   32.0740   50.6000 C   0  0  0  0  0  0  0  0  0  0  0  0
   60.4670   32.7260   49.9950 C   0  0  0  0  0  0  0  0  0  0  0  0
   58.5350   31.5250   45.7120 N   0  0  0  0  0  0  0  0  0  0  0  0
   58.4990   32.8650   45.1100 C   0  0  0  0  0  0  0  0  0  0  0  0
   57.8681   31.1556   43.1671 H   0  0  0  0  0  0  0  0  0  0  0  0
   57.8242   29.2573   43.3236 H   0  0  0  0  0  0  0  0  0  0  0  0
   59.3199   27.4918   45.2350 H   0  0  0  0  0  0  0  0  0  0  0  0
   58.9878   29.3277   48.1347 H   0  0  0  0  0  0  0  0  0  0  0  0
   60.5440   33.5820   48.1240 H   0  0  0  0  0  0  0  0  0  0  0  0
   61.2693   30.7244   48.2031 H   0  0  0  0  0  0  0  0  0  0  0  0
   61.3360   31.8480   46.7921 H   0  0  0  0  0  0  0  0  0  0  0  0
   63.5595   31.4924   47.9630 H   0  0  0  0  0  0  0  0  0  0  0  0
   63.0188   33.2106   47.8630 H   0  0  0  0  0  0  0  0  0  0  0  0
   63.5021   30.4120   51.9328 H   0  0  0  0  0  0  0  0  0  0  0  0
   64.0453   29.8455   50.2949 H   0  0  0  0  0  0  0  0  0  0  0  0
   65.4939   29.5894   52.9619 H   0  0  0  0  0  0  0  0  0  0  0  0
   64.9626   28.2888   51.8317 H   0  0  0  0  0  0  0  0  0  0  0  0
   66.0088   25.1065   51.1087 H   0  0  0  0  0  0  0  0  0  0  0  0
   65.6359   26.3742   49.8920 H   0  0  0  0  0  0  0  0  0  0  0  0
   67.2445   25.5748   49.8920 H   0  0  0  0  0  0  0  0  0  0  0  0
   68.2285   30.7634   51.3401 H   0  0  0  0  0  0  0  0  0  0  0  0
   67.3162   30.7392   49.7734 H   0  0  0  0  0  0  0  0  0  0  0  0
   66.4421   31.9334   52.4421 H   0  0  0  0  0  0  0  0  0  0  0  0
   66.6990   32.7728   50.8708 H   0  0  0  0  0  0  0  0  0  0  0  0
   61.5711   30.9869   50.6679 H   0  0  0  0  0  0  0  0  0  0  0  0
   61.8969   32.4986   51.6001 H   0  0  0  0  0  0  0  0  0  0  0  0
   59.5822   32.2377   50.4293 H   0  0  0  0  0  0  0  0  0  0  0  0
   60.5205   33.7986   50.2329 H   0  0  0  0  0  0  0  0  0  0  0  0
   58.4786   33.6241   45.9059 H   0  0  0  0  0  0  0  0  0  0  0  0
   59.3935   33.0111   44.4868 H   0  0  0  0  0  0  0  0  0  0  0  0
   57.5979   32.9629   44.4868 H   0  0  0  0  0  0  0  0  0  0  0  0
  1  2  2  0
  2  3  1  0
  3  4  2  3
  4  5  1  0
  5  6  1  0
  6  7  1  0
  7  8  2  0
  7  9  1  0
  9 10  1  0
 10 11  1  0
  3 12  1  0
 12 13  2  0
 13 14  1  0
 14 15  2  0
 14 16  1  0
 16 17  1  0
 17 18  1  0
 18 19  1  0
 19 20  1  0
 20 21  2  0
 20 22  1  0
 22 23  1  0
 23 24  1  0
 24 25  1  0
 25 26  1  0
 26 27  2  0
 26 28  1  0
 28 29  1  0
 25 30  1  0
 30 31  1  0
 19 32  1  0
 32 33  1  0
 13 34  1  0
 34 35  1  0
 34  2  1  0
 10  5  2  0
 33 16  1  0
 31 22  1  0
  1 36  1  0
  1 37  1  0
  4 38  1  0
 12 39  1  0
 16 40  1  0
 17 41  1  0
 17 42  1  0
 18 43  1  0
 18 44  1  0
 23 45  1  0
 23 46  1  0
 24 47  1  0
 24 48  1  0
 29 49  1  0
 29 50  1  0
 29 51  1  0
 30 52  1  0
 30 53  1  0
 31 54  1  0
 31 55  1  0
 32 56  1  0
 32 57  1  0
 33 58  1  0
 33 59  1  0
 35 60  1  0
 35 61  1  0
 35 62  1  0
M  CHG  4   6  -1   9  -1  11  -1  16   1
M  END
>  <UniqueID>  (24) 
21

>  <SMILES>  (24) 
C=c1c(=Cc2[n-]c(=O)[n-]c2[O-])cc(C(=O)[NH+]2CCN(C(=O)N3CCN(C(=O)OC)CC3)CC2)n1C

>  <Energy>  (24) 
141.516479246717

>  <Genealogy>  (24) 
C=c1c(=Cc2[n-]c(=O)[n-]c2[O-])cc(C(=O)[NH+]2CCN(C(=O)N3CCN(C(=O)OC)CC3)CC2)n1C (protonated)
C=c1c(=Cc2[n-]c(=O)[n-]c2[O-])cc(C(=O)[NH+]2CCN(C(=O)N3CCN(C(=O)OC)CC3)CC2)n1C (3D coordinates assigned)
C=c1c(=Cc2[n-]c(=O)[n-]c2[O-])cc(C(=O)[NH+]2CCN(C(=O)N3CCN(C(=O)OC)CC3)CC2)n1C (nonaromatic ring conformer: 141.516479246717 kcal/mol)

>  <smiles>  (24) 
C=c1c(=Cc2[nH]c(=O)[nH]c2O)cc(C(=O)N2CCN(C(=O)N3CCN(C(=O)OC)CC3)CC2)n1C

>  <score_type>  (24) 
oracle

>  <origin>  (24) 
adg

>  <m_score__min__energy>  (24) 
-16.690000000000001

>  <m_primary>  (24) 
energy

$$$$
24:0
     RDKit          3D

 61 64  0  0  0  0  0  0  0  0999 V2000
   57.9490   26.9030   43.4930 C   0  0  0  0  0  0  0  0  0  0  0  0
   58.1430   26.7760   44.8160 C   0  0  0  0  0  0  0  0  0  0  0  0
   57.8530   25.6470   45.6000 C   0  0  0  0  0  0  0  0  0  0  0  0
   57.1250   24.5470   45.3290 C   0  0  0  0  0  0  0  0  0  0  0  0
   55.6580   24.4500   45.4040 C   0  0  0  0  0  0  0  0  0  0  0  0
   54.9410   23.3490   45.1040 N   0  0  0  0  0  0  0  0  0  0  0  0
   53.6640   23.7620   45.2450 C   0  0  0  0  0  0  0  0  0  0  0  0
   52.6790   22.9960   45.0650 O   0  0  0  0  0  0  0  0  0  0  0  0
   53.5230   25.0590   45.5940 N   0  0  0  0  0  0  0  0  0  0  0  0
   54.7960   25.4820   45.6760 C   0  0  0  0  0  0  0  0  0  0  0  0
   55.1620   26.7810   46.0010 O   0  0  0  0  0  0  0  0  0  0  0  0
   58.4960   25.8410   46.8090 C   0  0  0  0  0  0  0  0  0  0  0  0
   59.0920   27.0830   46.7480 C   0  0  0  0  0  0  0  0  0  0  0  0
   59.9460   27.6460   47.8160 C   0  0  0  0  0  0  0  0  0  0  0  0
   61.1190   27.1990   47.9250 O   0  0  0  0  0  0  0  0  0  0  0  0
   59.4750   28.6450   48.7660 N   0  0  0  0  0  0  0  0  0  0  0  0
   58.8630   29.8070   48.0560 C   0  0  0  0  0  0  0  0  0  0  0  0
   59.3080   31.1750   48.5920 C   0  0  0  0  0  0  0  0  0  0  0  0
   60.7700   31.2110   48.6920 N   0  0  0  0  0  0  0  0  0  0  0  0
   61.5570   32.3090   48.1800 C   0  0  0  0  0  0  0  0  0  0  0  0
   62.7830   32.1270   47.9380 O   0  0  0  0  0  0  0  0  0  0  0  0
   60.9310   33.6460   47.8570 C   0  0  0  0  0  0  0  0  0  0  0  0
   60.8790   33.9760   46.3480 C   0  0  0  0  0  0  0  0  0  0  0  0
   59.5640   34.4550   45.8640 N   0  0  0  0  0  0  0  0  0  0  0  0
   58.4830   34.5700   46.8610 C   0  0  0  0  0  0  0  0  0  0  0  0
   57.4720   33.4270   46.7380 C   0  0  0  0  0  0  0  0  0  0  0  0
   56.9820   33.3490   45.4180 O   0  0  0  0  0  0  0  0  0  0  0  0
   58.0290   32.9550   44.5590 C   0  0  0  0  0  0  0  0  0  0  0  0
   59.1480   34.0110   44.5170 C   0  0  0  0  0  0  0  0  0  0  0  0
   61.4610   30.0970   49.3510 C   0  0  0  0  0  0  0  0  0  0  0  0
   60.4730   29.0070   49.8080 C   0  0  0  0  0  0  0  0  0  0  0  0
   58.8320   27.6770   45.5610 N   0  0  0  0  0  0  0  0  0  0  0  0
   59.3410   28.9840   45.1290 C   0  0  0  0  0  0  0  0  0  0  0  0
   58.2165   27.8415   42.9855 H   0  0  0  0  0  0  0  0  0  0  0  0
   57.5226   26.0685   42.9170 H   0  0  0  0  0  0  0  0  0  0  0  0
   57.6737   23.6432   45.0255 H   0  0  0  0  0  0  0  0  0  0  0  0
   58.5262   25.1397   47.6560 H   0  0  0  0  0  0  0  0  0  0  0  0
   58.6980   28.1770   49.2930 H   0  0  0  0  0  0  0  0  0  0  0  0
   59.1388   29.7463   46.9929 H   0  0  0  0  0  0  0  0  0  0  0  0
   57.7770   29.7412   48.2180 H   0  0  0  0  0  0  0  0  0  0  0  0
   58.9682   31.9652   47.9063 H   0  0  0  0  0  0  0  0  0  0  0  0
   58.8692   31.3381   49.5874 H   0  0  0  0  0  0  0  0  0  0  0  0
   59.9019   33.6474   48.2456 H   0  0  0  0  0  0  0  0  0  0  0  0
   61.5659   34.4125   48.3254 H   0  0  0  0  0  0  0  0  0  0  0  0
   61.6252   34.7576   46.1423 H   0  0  0  0  0  0  0  0  0  0  0  0
   61.0811   33.0341   45.8170 H   0  0  0  0  0  0  0  0  0  0  0  0
   58.9241   34.5483   47.8685 H   0  0  0  0  0  0  0  0  0  0  0  0
   57.9522   35.5167   46.6820 H   0  0  0  0  0  0  0  0  0  0  0  0
   57.9630   32.4781   46.9998 H   0  0  0  0  0  0  0  0  0  0  0  0
   56.6315   33.6167   47.4218 H   0  0  0  0  0  0  0  0  0  0  0  0
   58.4480   32.0035   44.9184 H   0  0  0  0  0  0  0  0  0  0  0  0
   57.6205   32.8427   43.5439 H   0  0  0  0  0  0  0  0  0  0  0  0
   60.0200   33.5795   44.0038 H   0  0  0  0  0  0  0  0  0  0  0  0
   58.7559   34.8896   43.9839 H   0  0  0  0  0  0  0  0  0  0  0  0
   62.1790   29.6545   48.6448 H   0  0  0  0  0  0  0  0  0  0  0  0
   61.9756   30.4895   50.2405 H   0  0  0  0  0  0  0  0  0  0  0  0
   61.0451   28.1054   50.0721 H   0  0  0  0  0  0  0  0  0  0  0  0
   59.9165   29.4103   50.6669 H   0  0  0  0  0  0  0  0  0  0  0  0
   59.5789   29.5950   46.0122 H   0  0  0  0  0  0  0  0  0  0  0  0
   60.2497   28.8424   44.5255 H   0  0  0  0  0  0  0  0  0  0  0  0
   58.5759   29.4942   44.5255 H   0  0  0  0  0  0  0  0  0  0  0  0
  1  2  2  0
  2  3  1  0
  3  4  2  3
  4  5  1  0
  5  6  1  0
  6  7  1  0
  7  8  2  0
  7  9  1  0
  9 10  1  0
 10 11  1  0
  3 12  1  0
 12 13  2  0
 13 14  1  0
 14 15  2  0
 14 16  1  0
 16 17  1  0
 17 18  1  0
 18 19  1  0
 19 20  1  0
 20 21  2  0
 20 22  1  0
 22 23  1  0
 23 24  1  0
 24 25  1  0
 25 26  1  0
 26 27  1  0
 27 28  1  0
 28 29  1  0
 19 30  1  0
 30 31  1  0
 13 32  1  0
 32 33  1  0
 32  2  1  0
 10  5  2  0
 31 16  1  0
 29 24  1  0
  1 34  1  0
  1 35  1  0
  4 36  1  0
 12 37  1  0
 16 38  1  0
 17 39  1  0
 17 40  1  0
 18 41  1  0
 18 42  1  0
 22 43  1  0
 22 44  1  0
 23 45  1  0
 23 46  1  0
 25 47  1  0
 25 48  1  0
 26 49  1  0
 26 50  1  0
 28 51  1  0
 28 52  1  0
 29 53  1  0
 29 54  1  0
 30 55  1  0
 30 56  1  0
 31 57  1  0
 31 58  1  0
 33 59  1  0
 33 60  1  0
 33 61  1  0
M  CHG  4   6  -1   9  -1  11  -1  16   1
M  END
>  <UniqueID>  (25) 
22

>  <SMILES>  (25) 
C=c1c(=Cc2[n-]c(=O)[n-]c2[O-])cc(C(=O)[NH+]2CCN(C(=O)CCN3CCOCC3)CC2)n1C

>  <Energy>  (25) 
163.23935529663603

>  <Genealogy>  (25) 
C=c1c(=Cc2[n-]c(=O)[n-]c2[O-])cc(C(=O)[NH+]2CCN(C(=O)CCN3CCOCC3)CC2)n1C (protonated)
C=c1c(=Cc2[n-]c(=O)[n-]c2[O-])cc(C(=O)[NH+]2CCN(C(=O)CCN3CCOCC3)CC2)n1C (3D coordinates assigned)
C=c1c(=Cc2[n-]c(=O)[n-]c2[O-])cc(C(=O)[NH+]2CCN(C(=O)CCN3CCOCC3)CC2)n1C (nonaromatic ring conformer: 163.23935529663603 kcal/mol)

>  <smiles>  (25) 
C=c1c(=Cc2[nH]c(=O)[nH]c2O)cc(C(=O)N2CCN(C(=O)CCN3CCOCC3)CC2)n1C

>  <score_type>  (25) 
oracle

>  <origin>  (25) 
adg

>  <m_score__min__energy>  (25) 
-16.809999999999999

>  <m_primary>  (25) 
energy

$$$$
25:0
     RDKit          3D

 59 62  0  0  0  0  0  0  0  0999 V2000
   58.5840   31.5130   53.3060 C   0  0  0  0  0  0  0  0  0  0  0  0
   58.9550   32.0860   51.9610 C   0  0  0  0  0  0  0  0  0  0  0  0
   59.2930   33.4460   51.8860 C   0  0  0  0  0  0  0  0  0  0  0  0
   59.6000   34.0390   50.6620 C   0  0  0  0  0  0  0  0  0  0  0  0
   59.5840   33.2800   49.4880 C   0  0  0  0  0  0  0  0  0  0  0  0
   59.9340   34.0290   47.9310 S   0  0  0  0  0  0  0  0  0  0  0  0
   59.1960   35.3340   47.8160 O   0  0  0  0  0  0  0  0  0  0  0  0
   61.4080   34.3130   47.8620 O   0  0  0  0  0  0  0  0  0  0  0  0
   59.4930   32.9660   46.6100 N   0  0  0  0  0  0  0  0  0  0  0  0
   59.7280   33.6030   45.2890 C   0  0  0  0  0  0  0  0  0  0  0  0
   58.4470   33.8500   44.4690 C   0  0  0  0  0  0  0  0  0  0  0  0
   57.3180   34.3750   45.3580 C   0  0  0  0  0  0  0  0  0  0  0  0
   57.0280   33.4440   46.5480 C   0  0  0  0  0  0  0  0  0  0  0  0
   58.1380   32.4010   46.7770 C   0  0  0  0  0  0  0  0  0  0  0  0
   59.2600   31.9220   49.5480 C   0  0  0  0  0  0  0  0  0  0  0  0
   58.9580   31.3020   50.7760 C   0  0  0  0  0  0  0  0  0  0  0  0
   58.6330   29.8530   50.7740 C   0  0  0  0  0  0  0  0  0  0  0  0
   57.7550   29.4140   51.5660 O   0  0  0  0  0  0  0  0  0  0  0  0
   59.2470   28.9730   49.8250 N   0  0  0  0  0  0  0  0  0  0  0  0
   59.3740   29.1940   48.4130 C   0  0  0  0  0  0  0  0  0  0  0  0
   60.6110   29.4920   47.8180 C   0  0  0  0  0  0  0  0  0  0  0  0
   60.6880   29.7410   46.4470 C   0  0  0  0  0  0  0  0  0  0  0  0
   59.5340   29.7120   45.6610 C   0  0  0  0  0  0  0  0  0  0  0  0
   58.2830   29.4390   46.2400 C   0  0  0  0  0  0  0  0  0  0  0  0
   57.0550   29.4290   45.4100 C   0  0  0  0  0  0  0  0  0  0  0  0
   56.6720   30.4870   44.8410 O   0  0  0  0  0  0  0  0  0  0  0  0
   56.2810   28.2270   45.2960 N   0  0  0  0  0  0  0  0  0  0  0  0
   56.6790   26.8930   45.6520 C   0  0  0  0  0  0  0  0  0  0  0  0
   58.0330   26.5070   45.7170 C   0  0  0  0  0  0  0  0  0  0  0  0
   58.3770   25.2070   46.1010 C   0  0  0  0  0  0  0  0  0  0  0  0
   57.3820   24.2890   46.4390 C   0  0  0  0  0  0  0  0  0  0  0  0
   56.0380   24.6700   46.4000 C   0  0  0  0  0  0  0  0  0  0  0  0
   55.6860   25.9680   46.0160 C   0  0  0  0  0  0  0  0  0  0  0  0
   54.3460   26.3390   45.9940 O   0  0  0  0  0  0  0  0  0  0  0  0
   58.2150   29.1870   47.6250 C   0  0  0  0  0  0  0  0  0  0  0  0
   58.9964   32.1500   54.1023 H   0  0  0  0  0  0  0  0  0  0  0  0
   57.4886   31.4737   53.3983 H   0  0  0  0  0  0  0  0  0  0  0  0
   58.9964   30.4974   53.3983 H   0  0  0  0  0  0  0  0  0  0  0  0
   59.3160   34.0515   52.8040 H   0  0  0  0  0  0  0  0  0  0  0  0
   59.8557   35.1080   50.6199 H   0  0  0  0  0  0  0  0  0  0  0  0
   60.2224   34.5713   45.4562 H   0  0  0  0  0  0  0  0  0  0  0  0
   60.3456   32.9035   44.7066 H   0  0  0  0  0  0  0  0  0  0  0  0
   58.6600   34.5903   43.6837 H   0  0  0  0  0  0  0  0  0  0  0  0
   58.1271   32.8963   44.0239 H   0  0  0  0  0  0  0  0  0  0  0  0
   57.6038   35.3643   45.7448 H   0  0  0  0  0  0  0  0  0  0  0  0
   56.4063   34.4301   44.7451 H   0  0  0  0  0  0  0  0  0  0  0  0
   56.9286   34.0561   47.4565 H   0  0  0  0  0  0  0  0  0  0  0  0
   56.1018   32.8960   46.3205 H   0  0  0  0  0  0  0  0  0  0  0  0
   58.0447   32.0062   47.7994 H   0  0  0  0  0  0  0  0  0  0  0  0
   58.0120   31.6100   46.0230 H   0  0  0  0  0  0  0  0  0  0  0  0
   59.2405   31.3283   48.6222 H   0  0  0  0  0  0  0  0  0  0  0  0
   61.5214   29.5292   48.4343 H   0  0  0  0  0  0  0  0  0  0  0  0
   61.6612   29.9609   45.9838 H   0  0  0  0  0  0  0  0  0  0  0  0
   59.6048   29.9044   44.5803 H   0  0  0  0  0  0  0  0  0  0  0  0
   58.8220   27.2308   45.4648 H   0  0  0  0  0  0  0  0  0  0  0  0
   59.4348   24.9074   46.1367 H   0  0  0  0  0  0  0  0  0  0  0  0
   57.6554   23.2658   46.7360 H   0  0  0  0  0  0  0  0  0  0  0  0
   55.2548   23.9471   46.6721 H   0  0  0  0  0  0  0  0  0  0  0  0
   57.2408   28.9824   48.0930 H   0  0  0  0  0  0  0  0  0  0  0  0
  1  2  1  0
  2  3  2  0
  3  4  1  0
  4  5  2  0
  5  6  1  0
  6  7  2  0
  6  8  2  0
  6  9  1  0
  9 10  1  0
 10 11  1  0
 11 12  1  0
 12 13  1  0
 13 14  1  0
  5 15  1  0
 15 16  2  0
 16 17  1  0
 17 18  2  0
 17 19  1  0
 19 20  1  0
 20 21  2  0
 21 22  1  0
 22 23  2  0
 23 24  1  0
 24 25  1  0
 25 26  2  0
 25 27  1  0
 27 28  1  0
 28 29  2  0
 29 30  1  0
 30 31  2  0
 31 32  1  0
 32 33  2  0
 33 34  1  0
 24 35  2  0
 16  2  1  0
 35 20  1  0
 14  9  1  0
 33 28  1  0
  1 36  1  0
  1 37  1  0
  1 38  1  0
  3 39  1  0
  4 40  1  0
 10 41  1  0
 10 42  1  0
 11 43  1  0
 11 44  1  0
 12 45  1  0
 12 46  1  0
 13 47  1  0
 13 48  1  0
 14 49  1  0
 14 50  1  0
 15 51  1  0
 21 52  1  0
 22 53  1  0
 23 54  1  0
 29 55  1  0
 30 56  1  0
 31 57  1  0
 32 58  1  0
 35 59  1  0
M  CHG  3  19  -1  27  -1  34  -1
M  END
>  <UniqueID>  (26) 
23

>  <SMILES>  (26) 
Cc1ccc(S(=O)(=O)N2CCCCC2)cc1C(=O)[N-]c1cccc(C(=O)[N-]c2ccccc2[O-])c1

>  <Energy>  (26) 
82.48281016356529

>  <Genealogy>  (26) 
Cc1ccc(S(=O)(=O)N2CCCCC2)cc1C(=O)[N-]c1cccc(C(=O)[N-]c2ccccc2[O-])c1 (protonated)
Cc1ccc(S(=O)(=O)N2CCCCC2)cc1C(=O)[N-]c1cccc(C(=O)[N-]c2ccccc2[O-])c1 (3D coordinates assigned)
Cc1ccc(S(=O)(=O)N2CCCCC2)cc1C(=O)[N-]c1cccc(C(=O)[N-]c2ccccc2[O-])c1 (nonaromatic ring conformer: 82.48281016356529 kcal/mol)

>  <smiles>  (26) 
Cc1ccc(S(=O)(=O)N2CCCCC2)cc1C(=O)Nc1cccc(C(=O)Nc2ccccc2O)c1

>  <score_type>  (26) 
oracle

>  <origin>  (26) 
adg

>  <m_score__min__energy>  (26) 
-17.09

>  <m_primary>  (26) 
energy

$$$$
26:0
     RDKit          3D

 50 52  0  0  0  0  0  0  0  0999 V2000
   60.0129   26.0722   48.4357 H   0  0  0  0  0  0  0  0  0  0  0  0
   60.3660   26.7270   49.2460 C   0  0  0  0  0  0  0  0  0  0  0  0
   60.4216   26.3459   50.2764 H   0  0  0  0  0  0  0  0  0  0  0  0
   60.7310   27.9980   48.9760 C   0  0  0  0  0  0  0  0  0  0  0  0
   60.6450   28.5910   47.6770 C   0  0  0  0  0  0  0  0  0  0  0  0
   60.1900   27.8930   46.5940 C   0  0  0  0  0  0  0  0  0  0  0  0
   60.9332   27.6060   45.8356 H   0  0  0  0  0  0  0  0  0  0  0  0
   58.7870   27.4880   46.3490 C   0  0  0  0  0  0  0  0  0  0  0  0
   58.3460   26.2280   46.7720 C   0  0  0  0  0  0  0  0  0  0  0  0
   59.0513   25.5323   47.2500 H   0  0  0  0  0  0  0  0  0  0  0  0
   57.0140   25.8520   46.5890 C   0  0  0  0  0  0  0  0  0  0  0  0
   56.6769   24.8554   46.9103 H   0  0  0  0  0  0  0  0  0  0  0  0
   56.1070   26.7370   45.9990 C   0  0  0  0  0  0  0  0  0  0  0  0
   54.7850   26.3450   45.8180 O   0  0  0  0  0  0  0  0  0  0  0  0
   56.5210   28.0150   45.5970 C   0  0  0  0  0  0  0  0  0  0  0  0
   55.5720   28.8670   45.0080 O   0  0  0  0  0  0  0  0  0  0  0  0
   55.8660   30.0190   44.2160 C   0  0  0  0  0  0  0  0  0  0  0  0
   54.9246   30.5169   43.9406 H   0  0  0  0  0  0  0  0  0  0  0  0
   56.5010   30.6979   44.8041 H   0  0  0  0  0  0  0  0  0  0  0  0
   56.6140   29.6280   42.9470 C   0  0  0  0  0  0  0  0  0  0  0  0
   57.5592   29.1339   43.2160 H   0  0  0  0  0  0  0  0  0  0  0  0
   55.9952   28.9380   42.3545 H   0  0  0  0  0  0  0  0  0  0  0  0
   56.8274   30.5299   42.3545 H   0  0  0  0  0  0  0  0  0  0  0  0
   57.8650   28.3910   45.7890 C   0  0  0  0  0  0  0  0  0  0  0  0
   58.1962   29.3990   45.4987 H   0  0  0  0  0  0  0  0  0  0  0  0
   61.0890   29.9400   47.5570 C   0  0  0  0  0  0  0  0  0  0  0  0
   61.1950   30.4750   46.4160 O   0  0  0  0  0  0  0  0  0  0  0  0
   61.4610   30.6630   48.6600 N   0  0  0  0  0  0  0  0  0  0  0  0
   61.8050   32.0950   48.5120 C   0  0  0  0  0  0  0  0  0  0  0  0
   61.8035   32.5728   49.5028 H   0  0  0  0  0  0  0  0  0  0  0  0
   62.8021   32.1780   48.0550 H   0  0  0  0  0  0  0  0  0  0  0  0
   60.8000   32.7860   47.6250 C   0  0  0  0  0  0  0  0  0  0  0  0
   61.2350   33.5830   46.5570 C   0  0  0  0  0  0  0  0  0  0  0  0
   62.3112   33.6846   46.3532 H   0  0  0  0  0  0  0  0  0  0  0  0
   60.3090   34.2490   45.7500 C   0  0  0  0  0  0  0  0  0  0  0  0
   60.6615   34.8709   44.9140 H   0  0  0  0  0  0  0  0  0  0  0  0
   58.9360   34.1310   45.9970 C   0  0  0  0  0  0  0  0  0  0  0  0
   58.0470   34.8180   45.1560 O   0  0  0  0  0  0  0  0  0  0  0  0
   56.6980   34.4260   44.9200 C   0  0  0  0  0  0  0  0  0  0  0  0
   56.1858   34.2772   45.8820 H   0  0  0  0  0  0  0  0  0  0  0  0
   56.1826   35.2115   44.3479 H   0  0  0  0  0  0  0  0  0  0  0  0
   56.6839   33.4866   44.3479 H   0  0  0  0  0  0  0  0  0  0  0  0
   58.4970   33.3330   47.0690 C   0  0  0  0  0  0  0  0  0  0  0  0
   57.4205   33.2305   47.2706 H   0  0  0  0  0  0  0  0  0  0  0  0
   59.4240   32.6690   47.8800 C   0  0  0  0  0  0  0  0  0  0  0  0
   59.0734   32.0527   48.7210 H   0  0  0  0  0  0  0  0  0  0  0  0
   61.4890   30.0660   49.8890 C   0  0  0  0  0  0  0  0  0  0  0  0
   61.8290   30.7190   50.9140 O   0  0  0  0  0  0  0  0  0  0  0  0
   61.1600   28.7590   50.0250 N   0  0  0  0  0  0  0  0  0  0  0  0
   61.2170   28.3460   50.9860 H   0  0  0  0  0  0  0  0  0  0  0  0
  1  2  1  0
  2  3  1  0
  2  4  2  0
  4  5  1  0
  5  6  2  0
  6  7  1  0
  6  8  1  0
  8  9  2  0
  9 10  1  0
  9 11  1  0
 11 12  1  0
 11 13  2  0
 13 14  1  0
 13 15  1  0
 15 16  1  0
 16 17  1  0
 17 18  1  0
 17 19  1  0
 17 20  1  0
 20 21  1  0
 20 22  1  0
 20 23  1  0
 15 24  2  0
 24 25  1  0
  5 26  1  0
 26 27  2  0
 26 28  1  0
 28 29  1  0
 29 30  1  0
 29 31  1  0
 29 32  1  0
 32 33  2  0
 33 34  1  0
 33 35  1  0
 35 36  1  0
 35 37  2  0
 37 38  1  0
 38 39  1  0
 39 40  1  0
 39 41  1  0
 39 42  1  0
 37 43  1  0
 43 44  1  0
 43 45  2  0
 45 46  1  0
 28 47  1  0
 47 48  2  0
 47 49  1  0
 49 50  1  0
 49  4  1  0
 24  8  1  0
 45 32  1  0
M  CHG  1  14  -1
M  END
>  <UniqueID>  (27) 
24

>  <SMILES>  (27) 
C=c1[nH]c(=O)n(Cc2ccc(OC)cc2)c(=O)/c1=C\c1ccc([O-])c(OCC)c1

>  <Energy>  (27) 
73.46706242792906

>  <Genealogy>  (27) 
C=c1[nH]c(=O)n(Cc2ccc(OC)cc2)c(=O)c1=Cc1ccc([O-])c(OCC)c1 (protonated)
C=c1[nH]c(=O)n(Cc2ccc(OC)cc2)c(=O)/c1=C\c1ccc([O-])c(OCC)c1 (cis-trans isomerization)
C=c1[nH]c(=O)n(Cc2ccc(OC)cc2)c(=O)/c1=C\c1ccc([O-])c(OCC)c1 (3D coordinates assigned)
C=c1[nH]c(=O)n(Cc2ccc(OC)cc2)c(=O)/c1=C\c1ccc([O-])c(OCC)c1 (optimized conformer: 73.46706242792906 kcal/mol)

>  <smiles>  (27) 
C=c1[nH]c(=O)n(Cc2ccc(OC)cc2)c(=O)c1=Cc1ccc(O)c(OCC)c1

>  <score_type>  (27) 
oracle

>  <origin>  (27) 
adg

>  <m_score__min__energy>  (27) 
-11.130000000000001

>  <m_primary>  (27) 
energy

$$$$
27:0
     RDKit          3D

 66 70  0  0  0  0  0  0  0  0999 V2000
   57.5450   25.8160   47.4700 C   0  0  0  0  0  0  0  0  0  0  0  0
   58.1200   26.2560   46.3400 C   0  0  0  0  0  0  0  0  0  0  0  0
   57.7690   25.9000   45.0300 C   0  0  0  0  0  0  0  0  0  0  0  0
   57.0060   24.8930   44.5610 C   0  0  0  0  0  0  0  0  0  0  0  0
   55.6680   24.5330   45.0590 C   0  0  0  0  0  0  0  0  0  0  0  0
   55.0570   23.3540   44.8370 N   0  0  0  0  0  0  0  0  0  0  0  0
   53.8200   23.5410   45.3440 C   0  0  0  0  0  0  0  0  0  0  0  0
   52.9410   22.6400   45.3390 O   0  0  0  0  0  0  0  0  0  0  0  0
   53.5960   24.7730   45.8500 N   0  0  0  0  0  0  0  0  0  0  0  0
   54.7710   25.3920   45.6470 C   0  0  0  0  0  0  0  0  0  0  0  0
   55.0150   26.7160   45.9860 O   0  0  0  0  0  0  0  0  0  0  0  0
   58.4120   26.8020   44.1980 C   0  0  0  0  0  0  0  0  0  0  0  0
   59.1910   27.6050   45.0040 C   0  0  0  0  0  0  0  0  0  0  0  0
   60.1010   28.6820   44.4930 C   0  0  0  0  0  0  0  0  0  0  0  0
   59.0150   27.2800   46.3060 N   0  0  0  0  0  0  0  0  0  0  0  0
   59.6560   27.9170   47.4300 C   0  0  0  0  0  0  0  0  0  0  0  0
   60.0500   27.1640   48.5480 C   0  0  0  0  0  0  0  0  0  0  0  0
   60.6270   27.7920   49.6550 C   0  0  0  0  0  0  0  0  0  0  0  0
   60.8230   29.1760   49.6530 C   0  0  0  0  0  0  0  0  0  0  0  0
   60.4570   29.9370   48.5330 C   0  0  0  0  0  0  0  0  0  0  0  0
   60.6710   31.3560   48.5160 N   0  0  0  0  0  0  0  0  0  0  0  0
   60.0580   32.1980   49.5450 C   0  0  0  0  0  0  0  0  0  0  0  0
   60.0630   33.6720   49.1070 C   0  0  0  0  0  0  0  0  0  0  0  0
   59.8110   33.8030   47.6560 N   0  0  0  0  0  0  0  0  0  0  0  0
   58.4620   33.3270   47.2740 C   0  0  0  0  0  0  0  0  0  0  0  0
   58.3400   33.2580   45.7370 C   0  0  0  0  0  0  0  0  0  0  0  0
   57.5550   32.1110   45.2310 N   0  0  0  0  0  0  0  0  0  0  0  0
   57.6810   31.8780   43.7820 C   0  0  0  0  0  0  0  0  0  0  0  0
   56.6480   30.8210   43.3410 C   0  0  0  0  0  0  0  0  0  0  0  0
   55.9930   30.2140   44.4430 O   0  0  0  0  0  0  0  0  0  0  0  0
   56.9480   29.7150   45.3590 C   0  0  0  0  0  0  0  0  0  0  0  0
   57.7620   30.8650   45.9890 C   0  0  0  0  0  0  0  0  0  0  0  0
   60.8870   33.1750   46.8430 C   0  0  0  0  0  0  0  0  0  0  0  0
   61.5570   31.9590   47.5180 C   0  0  0  0  0  0  0  0  0  0  0  0
   59.8690   29.3040   47.4280 C   0  0  0  0  0  0  0  0  0  0  0  0
   57.9094   26.1688   48.4461 H   0  0  0  0  0  0  0  0  0  0  0  0
   56.7093   25.1025   47.4201 H   0  0  0  0  0  0  0  0  0  0  0  0
   57.4169   24.2900   43.7379 H   0  0  0  0  0  0  0  0  0  0  0  0
   58.3189   26.8655   43.1038 H   0  0  0  0  0  0  0  0  0  0  0  0
   60.5516   29.2152   45.3431 H   0  0  0  0  0  0  0  0  0  0  0  0
   60.8955   28.2307   43.8805 H   0  0  0  0  0  0  0  0  0  0  0  0
   59.5234   29.3900   43.8805 H   0  0  0  0  0  0  0  0  0  0  0  0
   59.9036   26.0738   48.5523 H   0  0  0  0  0  0  0  0  0  0  0  0
   60.9275   27.1962   50.5295 H   0  0  0  0  0  0  0  0  0  0  0  0
   61.2650   29.6692   50.5313 H   0  0  0  0  0  0  0  0  0  0  0  0
   59.0201   31.8723   49.7085 H   0  0  0  0  0  0  0  0  0  0  0  0
   60.6365   32.1011   50.4756 H   0  0  0  0  0  0  0  0  0  0  0  0
   59.2780   34.2117   49.6570 H   0  0  0  0  0  0  0  0  0  0  0  0
   61.0541   34.0957   49.3265 H   0  0  0  0  0  0  0  0  0  0  0  0
   58.2960   32.3255   47.6976 H   0  0  0  0  0  0  0  0  0  0  0  0
   57.7090   34.0276   47.6640 H   0  0  0  0  0  0  0  0  0  0  0  0
   57.8576   34.1835   45.3895 H   0  0  0  0  0  0  0  0  0  0  0  0
   59.3615   33.1311   45.3493 H   0  0  0  0  0  0  0  0  0  0  0  0
   57.4972   32.8184   43.2418 H   0  0  0  0  0  0  0  0  0  0  0  0
   58.6951   31.5176   43.5548 H   0  0  0  0  0  0  0  0  0  0  0  0
   55.8934   31.3077   42.7056 H   0  0  0  0  0  0  0  0  0  0  0  0
   57.1864   30.0327   42.7944 H   0  0  0  0  0  0  0  0  0  0  0  0
   56.4282   29.1632   46.1561 H   0  0  0  0  0  0  0  0  0  0  0  0
   57.6388   29.0510   44.8188 H   0  0  0  0  0  0  0  0  0  0  0  0
   57.4354   31.0140   47.0288 H   0  0  0  0  0  0  0  0  0  0  0  0
   58.8302   30.6036   45.9641 H   0  0  0  0  0  0  0  0  0  0  0  0
   60.4509   32.8440   45.8890 H   0  0  0  0  0  0  0  0  0  0  0  0
   61.6700   33.9360   46.7101 H   0  0  0  0  0  0  0  0  0  0  0  0
   61.7967   31.2087   46.7502 H   0  0  0  0  0  0  0  0  0  0  0  0
   62.4722   32.3003   48.0238 H   0  0  0  0  0  0  0  0  0  0  0  0
   59.5723   29.9000   46.5523 H   0  0  0  0  0  0  0  0  0  0  0  0
  1  2  2  0
  2  3  1  0
  3  4  2  3
  4  5  1  0
  5  6  1  0
  6  7  1  0
  7  8  2  0
  7  9  1  0
  9 10  1  0
 10 11  1  0
  3 12  1  0
 12 13  2  0
 13 14  1  0
 13 15  1  0
 15 16  1  0
 16 17  2  0
 17 18  1  0
 18 19  2  0
 19 20  1  0
 20 21  1  0
 21 22  1  0
 22 23  1  0
 23 24  1  0
 24 25  1  0
 25 26  1  0
 26 27  1  0
 27 28  1  0
 28 29  1  0
 29 30  1  0
 30 31  1  0
 31 32  1  0
 24 33  1  0
 33 34  1  0
 20 35  2  0
 15  2  1  0
 35 16  1  0
 10  5  2  0
 34 21  1  0
 32 27  1  0
  1 36  1  0
  1 37  1  0
  4 38  1  0
 12 39  1  0
 14 40  1  0
 14 41  1  0
 14 42  1  0
 17 43  1  0
 18 44  1  0
 19 45  1  0
 22 46  1  0
 22 47  1  0
 23 48  1  0
 23 49  1  0
 25 50  1  0
 25 51  1  0
 26 52  1  0
 26 53  1  0
 28 54  1  0
 28 55  1  0
 29 56  1  0
 29 57  1  0
 31 58  1  0
 31 59  1  0
 32 60  1  0
 32 61  1  0
 33 62  1  0
 33 63  1  0
 34 64  1  0
 34 65  1  0
 35 66  1  0
M  CHG  3   6  -1   9  -1  11  -1
M  END
>  <UniqueID>  (28) 
25

>  <SMILES>  (28) 
C=c1c(=Cc2[n-]c(=O)[n-]c2[O-])cc(C)n1-c1cccc(N2CCN(CCN3CCOCC3)CC2)c1

>  <Energy>  (28) 
167.94719184495338

>  <Genealogy>  (28) 
C=c1c(=Cc2[n-]c(=O)[n-]c2[O-])cc(C)n1-c1cccc(N2CCN(CCN3CCOCC3)CC2)c1 (protonated)
C=c1c(=Cc2[n-]c(=O)[n-]c2[O-])cc(C)n1-c1cccc(N2CCN(CCN3CCOCC3)CC2)c1 (3D coordinates assigned)
C=c1c(=Cc2[n-]c(=O)[n-]c2[O-])cc(C)n1-c1cccc(N2CCN(CCN3CCOCC3)CC2)c1 (nonaromatic ring conformer: 167.94719184495338 kcal/mol)

>  <smiles>  (28) 
C=c1c(=Cc2[nH]c(=O)[nH]c2O)cc(C)n1-c1cccc(N2CCN(CCN3CCOCC3)CC2)c1

>  <score_type>  (28) 
oracle

>  <origin>  (28) 
adg

>  <m_score__min__energy>  (28) 
-17.710000000000001

>  <m_primary>  (28) 
energy

$$$$
28:0
     RDKit          3D

 42 44  0  0  0  0  0  0  0  0999 V2000
   59.1262   29.2798   53.8760 H   0  0  0  0  0  0  0  0  0  0  0  0
   58.8150   29.8120   52.9650 C   0  0  0  0  0  0  0  0  0  0  0  0
   59.7010   30.3690   52.1000 N   0  0  0  0  0  0  0  0  0  0  0  0
   59.0720   30.9750   51.0660 C   0  0  0  0  0  0  0  0  0  0  0  0
   59.6820   31.6030   50.1060 N   0  0  0  0  0  0  0  0  0  0  0  0
   59.4240   32.9530   49.6890 C   0  0  0  0  0  0  0  0  0  0  0  0
   59.2890   33.8400   50.5730 O   0  0  0  0  0  0  0  0  0  0  0  0
   59.3510   33.3440   48.2580 C   0  0  0  0  0  0  0  0  0  0  0  0
   58.1280   33.2150   47.5770 C   0  0  0  0  0  0  0  0  0  0  0  0
   57.2420   32.8420   48.1116 H   0  0  0  0  0  0  0  0  0  0  0  0
   58.0300   33.5570   46.2270 C   0  0  0  0  0  0  0  0  0  0  0  0
   57.0703   33.4460   45.7010 H   0  0  0  0  0  0  0  0  0  0  0  0
   59.1460   34.0390   45.5440 C   0  0  0  0  0  0  0  0  0  0  0  0
   59.0675   34.2984   44.4779 H   0  0  0  0  0  0  0  0  0  0  0  0
   60.3630   34.1930   46.2110 C   0  0  0  0  0  0  0  0  0  0  0  0
   61.2389   34.5769   45.6675 H   0  0  0  0  0  0  0  0  0  0  0  0
   60.4770   33.8600   47.5760 C   0  0  0  0  0  0  0  0  0  0  0  0
   61.6800   34.0430   48.2790 O   0  0  0  0  0  0  0  0  0  0  0  0
   62.8280   33.2110   48.1530 C   0  0  0  0  0  0  0  0  0  0  0  0
   63.1981   32.9428   49.1536 H   0  0  0  0  0  0  0  0  0  0  0  0
   62.5595   32.2964   47.6040 H   0  0  0  0  0  0  0  0  0  0  0  0
   63.6136   33.7508   47.6040 H   0  0  0  0  0  0  0  0  0  0  0  0
   57.3990   30.8370   51.1660 S   0  0  0  0  0  0  0  0  0  0  0  0
   57.4830   29.9700   52.6040 C   0  0  0  0  0  0  0  0  0  0  0  0
   56.0980   29.4880   53.5640 S   0  0  0  0  0  0  0  0  0  0  0  0
   55.9140   28.0010   53.4490 O   0  0  0  0  0  0  0  0  0  0  0  0
   56.3320   29.8350   55.0080 O   0  0  0  0  0  0  0  0  0  0  0  0
   54.6690   30.2890   52.9870 N   0  0  0  0  0  0  0  0  0  0  0  0
   53.9120   29.3890   52.1210 C   0  0  0  0  0  0  0  0  0  0  0  0
   54.5966   28.8932   51.4170 H   0  0  0  0  0  0  0  0  0  0  0  0
   53.4052   28.6272   52.7316 H   0  0  0  0  0  0  0  0  0  0  0  0
   52.8930   30.1830   51.3560 C   0  0  0  0  0  0  0  0  0  0  0  0
   52.4460   29.7410   50.1000 C   0  0  0  0  0  0  0  0  0  0  0  0
   52.8268   28.7967   49.6836 H   0  0  0  0  0  0  0  0  0  0  0  0
   51.5180   30.4980   49.3770 C   0  0  0  0  0  0  0  0  0  0  0  0
   51.1642   30.1430   48.3978 H   0  0  0  0  0  0  0  0  0  0  0  0
   51.0390   31.7050   49.8960 C   0  0  0  0  0  0  0  0  0  0  0  0
   50.1170   32.4510   49.1730 O   0  0  0  0  0  0  0  0  0  0  0  0
   51.4930   32.1590   51.1410 C   0  0  0  0  0  0  0  0  0  0  0  0
   51.0260   33.3610   51.6590 O   0  0  0  0  0  0  0  0  0  0  0  0
   52.4220   31.4030   51.8650 C   0  0  0  0  0  0  0  0  0  0  0  0
   52.7847   31.7668   52.8377 H   0  0  0  0  0  0  0  0  0  0  0  0
  1  2  1  0
  2  3  1  0
  3  4  1  0
  4  5  2  0
  5  6  1  0
  6  7  2  0
  6  8  1  0
  8  9  2  0
  9 10  1  0
  9 11  1  0
 11 12  1  0
 11 13  2  0
 13 14  1  0
 13 15  1  0
 15 16  1  0
 15 17  2  0
 17 18  1  0
 18 19  1  0
 19 20  1  0
 19 21  1  0
 19 22  1  0
  4 23  1  0
 23 24  1  0
 24 25  1  0
 25 26  2  0
 25 27  2  0
 25 28  1  0
 28 29  1  0
 29 30  1  0
 29 31  1  0
 29 32  1  0
 32 33  2  0
 33 34  1  0
 33 35  1  0
 35 36  1  0
 35 37  2  0
 37 38  1  0
 37 39  1  0
 39 40  1  0
 39 41  2  0
 41 42  1  0
 24  2  2  0
 41 32  1  0
 17  8  1  0
M  CHG  4   3  -1  28  -1  38  -1  40  -1
M  END
>  <UniqueID>  (29) 
26

>  <SMILES>  (29) 
COc1ccccc1C(=O)/N=c1\[n-]cc(S(=O)(=O)[N-]Cc2ccc([O-])c([O-])c2)s1

>  <Energy>  (29) 
79.50362485723623

>  <Genealogy>  (29) 
COc1ccccc1C(=O)N=c1[n-]cc(S(=O)(=O)[N-]Cc2ccc([O-])c([O-])c2)s1 (protonated)
COc1ccccc1C(=O)/N=c1\[n-]cc(S(=O)(=O)[N-]Cc2ccc([O-])c([O-])c2)s1 (cis-trans isomerization)
COc1ccccc1C(=O)/N=c1\[n-]cc(S(=O)(=O)[N-]Cc2ccc([O-])c([O-])c2)s1 (3D coordinates assigned)
COc1ccccc1C(=O)/N=c1\[n-]cc(S(=O)(=O)[N-]Cc2ccc([O-])c([O-])c2)s1 (optimized conformer: 79.50362485723623 kcal/mol)

>  <smiles>  (29) 
COc1ccccc1C(=O)N=c1[nH]cc(S(=O)(=O)NCc2ccc(O)c(O)c2)s1

>  <score_type>  (29) 
oracle

>  <origin>  (29) 
adg

>  <m_score__min__energy>  (29) 
-19.120000000000001

>  <m_primary>  (29) 
energy

$$$$
29:0
     RDKit          3D

 53 56  0  0  0  0  0  0  0  0999 V2000
   62.8810   29.3450   51.8380 C   0  0  0  0  0  0  0  0  0  0  0  0
   63.9040   30.1740   51.6090 C   0  0  0  0  0  0  0  0  0  0  0  0
   65.0790   30.0820   52.4240 N   0  0  0  0  0  0  0  0  0  0  0  0
   63.8310   31.1980   50.5350 C   0  0  0  0  0  0  0  0  0  0  0  0
   64.8760   32.1240   50.3750 C   0  0  0  0  0  0  0  0  0  0  0  0
   64.8220   33.0830   49.3610 C   0  0  0  0  0  0  0  0  0  0  0  0
   63.7250   33.1350   48.5000 C   0  0  0  0  0  0  0  0  0  0  0  0
   62.6620   32.2300   48.6520 C   0  0  0  0  0  0  0  0  0  0  0  0
   61.5380   32.2390   47.7560 N   0  0  0  0  0  0  0  0  0  0  0  0
   60.5490   33.2860   47.7230 C   0  0  0  0  0  0  0  0  0  0  0  0
   60.6030   34.2280   48.5600 O   0  0  0  0  0  0  0  0  0  0  0  0
   59.4540   33.2790   46.7220 C   0  0  0  0  0  0  0  0  0  0  0  0
   58.5230   34.3320   46.7020 C   0  0  0  0  0  0  0  0  0  0  0  0
   57.4870   34.3440   45.7670 C   0  0  0  0  0  0  0  0  0  0  0  0
   57.3560   33.3020   44.8490 C   0  0  0  0  0  0  0  0  0  0  0  0
   58.2570   32.2270   44.8680 C   0  0  0  0  0  0  0  0  0  0  0  0
   58.1120   31.0910   43.8880 C   0  0  0  0  0  0  0  0  0  0  0  0
   57.5310   29.8630   44.5470 C   0  0  0  0  0  0  0  0  0  0  0  0
   56.1800   29.7170   44.5290 N   0  0  0  0  0  0  0  0  0  0  0  0
   55.5750   28.6540   45.0550 N   0  0  0  0  0  0  0  0  0  0  0  0
   56.2760   27.6480   45.6260 C   0  0  0  0  0  0  0  0  0  0  0  0
   55.6570   26.6660   46.1180 O   0  0  0  0  0  0  0  0  0  0  0  0
   57.6780   27.7080   45.6660 C   0  0  0  0  0  0  0  0  0  0  0  0
   58.3260   28.8540   45.1440 C   0  0  0  0  0  0  0  0  0  0  0  0
   59.8430   28.9440   45.1210 C   0  0  0  0  0  0  0  0  0  0  0  0
   60.5140   27.9960   46.1170 C   0  0  0  0  0  0  0  0  0  0  0  0
   59.9350   26.5930   45.9840 C   0  0  0  0  0  0  0  0  0  0  0  0
   58.4510   26.6000   46.3530 C   0  0  0  0  0  0  0  0  0  0  0  0
   59.3070   32.2240   45.8030 C   0  0  0  0  0  0  0  0  0  0  0  0
   62.7320   31.2530   49.6570 C   0  0  0  0  0  0  0  0  0  0  0  0
   61.9740   29.4065   51.2187 H   0  0  0  0  0  0  0  0  0  0  0  0
   62.9460   28.6012   52.6458 H   0  0  0  0  0  0  0  0  0  0  0  0
   66.0330   30.1480   52.0040 H   0  0  0  0  0  0  0  0  0  0  0  0
   65.0080   29.9950   53.4610 H   0  0  0  0  0  0  0  0  0  0  0  0
   65.7419   32.0933   51.0527 H   0  0  0  0  0  0  0  0  0  0  0  0
   65.6474   33.8001   49.2406 H   0  0  0  0  0  0  0  0  0  0  0  0
   63.6928   33.8881   47.6989 H   0  0  0  0  0  0  0  0  0  0  0  0
   61.4240   31.4080   47.1350 H   0  0  0  0  0  0  0  0  0  0  0  0
   58.6117   35.1528   47.4289 H   0  0  0  0  0  0  0  0  0  0  0  0
   56.7707   35.1787   45.7539 H   0  0  0  0  0  0  0  0  0  0  0  0
   56.5435   33.3233   44.1078 H   0  0  0  0  0  0  0  0  0  0  0  0
   57.4469   31.4066   43.0707 H   0  0  0  0  0  0  0  0  0  0  0  0
   59.1109   30.8368   43.5038 H   0  0  0  0  0  0  0  0  0  0  0  0
   60.1935   28.6941   44.1087 H   0  0  0  0  0  0  0  0  0  0  0  0
   60.1158   29.9700   45.4088 H   0  0  0  0  0  0  0  0  0  0  0  0
   61.5948   27.9632   45.9151 H   0  0  0  0  0  0  0  0  0  0  0  0
   60.3324   28.3627   47.1380 H   0  0  0  0  0  0  0  0  0  0  0  0
   60.0501   26.2488   44.9456 H   0  0  0  0  0  0  0  0  0  0  0  0
   60.4721   25.9158   46.6644 H   0  0  0  0  0  0  0  0  0  0  0  0
   58.0125   25.6339   46.0627 H   0  0  0  0  0  0  0  0  0  0  0  0
   58.3811   26.7718   47.4373 H   0  0  0  0  0  0  0  0  0  0  0  0
   60.0214   31.3876   45.8161 H   0  0  0  0  0  0  0  0  0  0  0  0
   61.9176   30.5208   49.7600 H   0  0  0  0  0  0  0  0  0  0  0  0
  1  2  2  0
  2  3  1  0
  2  4  1  0
  4  5  2  0
  5  6  1  0
  6  7  2  0
  7  8  1  0
  8  9  1  0
  9 10  1  0
 10 11  2  0
 10 12  1  0
 12 13  2  0
 13 14  1  0
 14 15  2  0
 15 16  1  0
 16 17  1  0
 17 18  1  0
 18 19  2  0
 19 20  1  0
 20 21  1  0
 21 22  2  0
 21 23  1  0
 23 24  2  0
 24 25  1  0
 25 26  1  0
 26 27  1  0
 27 28  1  0
 16 29  2  0
  8 30  2  0
 30  4  1  0
 29 12  1  0
 24 18  1  0
 28 23  1  0
  1 31  1  0
  1 32  1  0
  3 33  1  0
  3 34  1  0
  5 35  1  0
  6 36  1  0
  7 37  1  0
  9 38  1  0
 13 39  1  0
 14 40  1  0
 15 41  1  0
 17 42  1  0
 17 43  1  0
 25 44  1  0
 25 45  1  0
 26 46  1  0
 26 47  1  0
 27 48  1  0
 27 49  1  0
 28 50  1  0
 28 51  1  0
 29 52  1  0
 30 53  1  0
M  CHG  1  20  -1
M  END
>  <UniqueID>  (30) 
27

>  <SMILES>  (30) 
C=C(N)c1cccc(NC(=O)c2cccc(Cc3n[n-]c(=O)c4c3CCCC4)c2)c1

>  <Energy>  (30) 
67.8180595349229

>  <Genealogy>  (30) 
C=C(N)c1cccc(NC(=O)c2cccc(Cc3n[n-]c(=O)c4c3CCCC4)c2)c1 (protonated)
C=C(N)c1cccc(NC(=O)c2cccc(Cc3n[n-]c(=O)c4c3CCCC4)c2)c1 (3D coordinates assigned)
C=C(N)c1cccc(NC(=O)c2cccc(Cc3n[n-]c(=O)c4c3CCCC4)c2)c1 (nonaromatic ring conformer: 67.8180595349229 kcal/mol)

>  <smiles>  (30) 
C=C(N)c1cccc(NC(=O)c2cccc(Cc3n[nH]c(=O)c4c3CCCC4)c2)c1

>  <score_type>  (30) 
oracle

>  <origin>  (30) 
adg

>  <m_score__min__energy>  (30) 
-11.69

>  <m_primary>  (30) 
energy

$$$$
30:0
     RDKit          3D

 37 38  0  0  1  0  0  0  0  0999 V2000
   59.1510   34.6230   44.9060 C   0  0  0  0  0  0  0  0  0  0  0  0
   58.5780   34.3680   46.0860 C   0  0  0  0  0  0  0  0  0  0  0  0
   58.1800   32.9630   46.4730 C   0  0  0  0  0  0  0  0  0  0  0  0
   58.5620   32.1410   45.3520 N   0  0  0  0  0  0  0  0  0  0  0  0
   57.9300   31.0550   45.0710 C   0  0  0  0  0  0  0  0  0  0  0  0
   58.0060   30.0320   45.9830 C   0  0  0  0  0  0  0  0  0  0  0  0
   57.3520   28.8390   45.7510 C   0  0  0  0  0  0  0  0  0  0  0  0
   57.5740   27.7700   46.6800 C   0  0  0  0  0  0  0  0  0  0  0  0
   58.0420   26.5830   46.4570 C   0  0  0  0  0  0  0  0  0  0  0  0
   57.4490   25.4930   45.7400 C   0  0  0  0  0  0  0  0  0  0  0  0
   58.0210   24.3470   45.2890 C   0  0  0  0  0  0  0  0  0  0  0  0
   57.3340   23.3000   44.6890 C   0  0  0  0  0  0  0  0  0  0  0  0
   55.9730   23.3950   44.5200 C   0  0  0  0  0  0  0  0  0  0  0  0
   55.2250   22.3860   43.9300 O   0  0  0  0  0  0  0  0  0  0  0  0
   55.3680   24.5460   44.9660 C   0  0  0  0  0  0  0  0  0  0  0  0
   56.0560   25.5780   45.5600 C   0  0  0  0  0  0  0  0  0  0  0  0
   55.3510   26.7090   45.9800 O   0  0  0  0  0  0  0  0  0  0  0  0
   56.6600   28.7650   44.5980 N   0  0  0  0  0  0  0  0  0  0  0  0
   56.6000   29.7970   43.7090 C   0  0  0  0  0  0  0  0  0  0  0  0
   55.9280   29.6880   42.6200 N   0  0  0  0  0  0  0  0  0  0  0  0
   57.2340   30.9640   43.9280 N   0  0  0  0  0  0  0  0  0  0  0  0
   59.4335   35.6530   44.6429 H   0  0  0  0  0  0  0  0  0  0  0  0
   59.3402   33.8029   44.1978 H   0  0  0  0  0  0  0  0  0  0  0  0
   58.3930   35.1950   46.7873 H   0  0  0  0  0  0  0  0  0  0  0  0
   58.7127   32.6475   47.3822 H   0  0  0  0  0  0  0  0  0  0  0  0
   57.1050   32.8855   46.6929 H   0  0  0  0  0  0  0  0  0  0  0  0
   58.5919   30.1639   46.9046 H   0  0  0  0  0  0  0  0  0  0  0  0
   57.3108   27.9876   47.7256 H   0  0  0  0  0  0  0  0  0  0  0  0
   59.0380   26.3827   46.8787 H   0  0  0  0  0  0  0  0  0  0  0  0
   59.1093   24.2401   45.4078 H   0  0  0  0  0  0  0  0  0  0  0  0
   57.8738   22.4028   44.3520 H   0  0  0  0  0  0  0  0  0  0  0  0
   55.5540   21.4550   43.7390 H   0  0  0  0  0  0  0  0  0  0  0  0
   54.2797   24.6465   44.8416 H   0  0  0  0  0  0  0  0  0  0  0  0
   55.1380   27.4910   45.4040 H   0  0  0  0  0  0  0  0  0  0  0  0
   56.1670   27.9050   44.2860 H   0  0  0  0  0  0  0  0  0  0  0  0
   55.4910   28.8320   42.2760 H   0  0  0  0  0  0  0  0  0  0  0  0
   57.2010   31.7700   43.2580 H   0  0  0  0  0  0  0  0  0  0  0  0
  1  2  2  0
  2  3  1  0
  3  4  1  0
  4  5  2  0
  5  6  1  0
  6  7  2  0
  7  8  1  0
  8  9  2  0
  9 10  1  0
 10 11  2  0
 11 12  1  0
 12 13  2  0
 13 14  1  0
 13 15  1  0
 15 16  2  0
 16 17  1  0
  7 18  1  0
 18 19  1  0
 19 20  2  3
 19 21  1  0
 21  5  1  0
 16 10  1  0
  1 22  1  0
  1 23  1  0
  2 24  1  0
  3 25  1  0
  3 26  1  0
  6 27  1  0
  8 28  1  0
  9 29  1  0
 11 30  1  0
 12 31  1  0
 14 32  1  0
 15 33  1  0
 17 34  1  0
 18 35  1  0
 20 36  1  0
 21 37  1  0
M  END
>  <smiles>  (31) 
C=CCN=c1cc(C=Cc2ccc(O)cc2O)[nH]c(=N)[nH]1

>  <score_type>  (31) 
oracle

>  <origin>  (31) 
adg

>  <m_score__min__energy>  (31) 
-8.5700000000000003

>  <m_primary>  (31) 
energy

$$$$
32:0
     RDKit          3D

 63 66  0  0  0  0  0  0  0  0999 V2000
   66.4670   33.0400   50.1210 C   0  0  0  0  0  0  0  0  0  0  0  0
   65.0010   33.0630   49.8500 C   0  0  0  0  0  0  0  0  0  0  0  0
   64.0060   32.9460   50.7990 C   0  0  0  0  0  0  0  0  0  0  0  0
   62.8340   32.9040   50.0670 C   0  0  0  0  0  0  0  0  0  0  0  0
   61.4790   32.7190   50.6310 C   0  0  0  0  0  0  0  0  0  0  0  0
   60.8680   33.7020   51.1300 O   0  0  0  0  0  0  0  0  0  0  0  0
   60.8180   31.4440   50.5600 N   0  0  0  0  0  0  0  0  0  0  0  0
   59.3850   31.3970   50.2520 C   0  0  0  0  0  0  0  0  0  0  0  0
   58.9480   29.9650   49.9230 C   0  0  0  0  0  0  0  0  0  0  0  0
   60.0330   29.2930   49.1830 N   0  0  0  0  0  0  0  0  0  0  0  0
   59.5800   28.0560   48.5100 C   0  0  0  0  0  0  0  0  0  0  0  0
   59.3390   28.3520   47.0560 C   0  0  0  0  0  0  0  0  0  0  0  0
   60.3520   28.1510   46.1050 C   0  0  0  0  0  0  0  0  0  0  0  0
   60.1160   28.4430   44.7590 C   0  0  0  0  0  0  0  0  0  0  0  0
   58.8760   28.9470   44.3540 C   0  0  0  0  0  0  0  0  0  0  0  0
   57.8650   29.1840   45.2980 C   0  0  0  0  0  0  0  0  0  0  0  0
   56.5460   29.7080   44.8740 C   0  0  0  0  0  0  0  0  0  0  0  0
   55.5410   28.9500   44.8740 O   0  0  0  0  0  0  0  0  0  0  0  0
   56.3820   31.0760   44.4790 N   0  0  0  0  0  0  0  0  0  0  0  0
   57.2710   32.1290   44.8800 C   0  0  0  0  0  0  0  0  0  0  0  0
   57.8900   32.9140   43.9060 C   0  0  0  0  0  0  0  0  0  0  0  0
   58.7540   33.9470   44.2770 C   0  0  0  0  0  0  0  0  0  0  0  0
   59.0420   34.1870   45.6320 C   0  0  0  0  0  0  0  0  0  0  0  0
   60.0070   35.2880   45.9910 C   0  0  0  0  0  0  0  0  0  0  0  0
   58.4750   33.3460   46.6200 C   0  0  0  0  0  0  0  0  0  0  0  0
   58.8380   33.4870   48.0750 C   0  0  0  0  0  0  0  0  0  0  0  0
   57.5630   32.3490   46.2350 C   0  0  0  0  0  0  0  0  0  0  0  0
   58.1060   28.8840   46.6500 C   0  0  0  0  0  0  0  0  0  0  0  0
   61.2080   29.0470   50.0530 C   0  0  0  0  0  0  0  0  0  0  0  0
   61.4930   30.2220   51.0130 C   0  0  0  0  0  0  0  0  0  0  0  0
   63.1480   32.9790   48.7510 N   0  0  0  0  0  0  0  0  0  0  0  0
   62.2360   32.9110   47.6160 C   0  0  0  0  0  0  0  0  0  0  0  0
   64.4640   33.0610   48.6140 N   0  0  0  0  0  0  0  0  0  0  0  0
   66.6390   33.0373   51.2075 H   0  0  0  0  0  0  0  0  0  0  0  0
   66.9077   32.1348   49.6777 H   0  0  0  0  0  0  0  0  0  0  0  0
   66.9358   33.9309   49.6777 H   0  0  0  0  0  0  0  0  0  0  0  0
   64.1198   32.8971   51.8920 H   0  0  0  0  0  0  0  0  0  0  0  0
   58.8166   31.7570   51.1223 H   0  0  0  0  0  0  0  0  0  0  0  0
   59.1901   32.0358   49.3780 H   0  0  0  0  0  0  0  0  0  0  0  0
   58.7428   29.4181   50.8551 H   0  0  0  0  0  0  0  0  0  0  0  0
   58.0351   29.9853   49.3096 H   0  0  0  0  0  0  0  0  0  0  0  0
   60.3533   27.2795   48.6054 H   0  0  0  0  0  0  0  0  0  0  0  0
   58.6503   27.6976   48.9761 H   0  0  0  0  0  0  0  0  0  0  0  0
   61.3322   27.7634   46.4196 H   0  0  0  0  0  0  0  0  0  0  0  0
   60.9088   28.2757   44.0150 H   0  0  0  0  0  0  0  0  0  0  0  0
   58.6922   29.1587   43.2903 H   0  0  0  0  0  0  0  0  0  0  0  0
   57.6965   32.7182   42.8410 H   0  0  0  0  0  0  0  0  0  0  0  0
   59.2132   34.5783   43.5020 H   0  0  0  0  0  0  0  0  0  0  0  0
   60.0789   35.3701   47.0856 H   0  0  0  0  0  0  0  0  0  0  0  0
   60.9986   35.0567   45.5747 H   0  0  0  0  0  0  0  0  0  0  0  0
   59.6477   36.2407   45.5747 H   0  0  0  0  0  0  0  0  0  0  0  0
   57.9925   33.1586   48.6973 H   0  0  0  0  0  0  0  0  0  0  0  0
   59.7185   32.8655   48.2951 H   0  0  0  0  0  0  0  0  0  0  0  0
   59.0681   34.5399   48.2951 H   0  0  0  0  0  0  0  0  0  0  0  0
   57.0725   31.7341   47.0040 H   0  0  0  0  0  0  0  0  0  0  0  0
   57.3199   29.0682   47.3971 H   0  0  0  0  0  0  0  0  0  0  0  0
   61.0211   28.1420   50.6497 H   0  0  0  0  0  0  0  0  0  0  0  0
   62.0861   28.9292   49.4011 H   0  0  0  0  0  0  0  0  0  0  0  0
   61.1303   29.9618   52.0183 H   0  0  0  0  0  0  0  0  0  0  0  0
   62.5774   30.4057   51.0314 H   0  0  0  0  0  0  0  0  0  0  0  0
   61.2013   32.8338   47.9812 H   0  0  0  0  0  0  0  0  0  0  0  0
   62.3425   33.8196   47.0051 H   0  0  0  0  0  0  0  0  0  0  0  0
   62.4760   32.0283   47.0051 H   0  0  0  0  0  0  0  0  0  0  0  0
  1  2  1  0
  2  3  1  0
  3  4  2  0
  4  5  1  0
  5  6  2  0
  5  7  1  0
  7  8  1  0
  8  9  1  0
  9 10  1  0
 10 11  1  0
 11 12  1  0
 12 13  2  0
 13 14  1  0
 14 15  2  0
 15 16  1  0
 16 17  1  0
 17 18  2  0
 17 19  1  0
 19 20  1  0
 20 21  2  0
 21 22  1  0
 22 23  2  0
 23 24  1  0
 23 25  1  0
 25 26  1  0
 25 27  2  0
 16 28  2  0
 10 29  1  0
 29 30  1  0
  4 31  1  0
 31 32  1  0
 31 33  1  0
 33  2  2  0
 30  7  1  0
 28 12  1  0
 27 20  1  0
  1 34  1  0
  1 35  1  0
  1 36  1  0
  3 37  1  0
  8 38  1  0
  8 39  1  0
  9 40  1  0
  9 41  1  0
 11 42  1  0
 11 43  1  0
 13 44  1  0
 14 45  1  0
 15 46  1  0
 21 47  1  0
 22 48  1  0
 24 49  1  0
 24 50  1  0
 24 51  1  0
 26 52  1  0
 26 53  1  0
 26 54  1  0
 27 55  1  0
 28 56  1  0
 29 57  1  0
 29 58  1  0
 30 59  1  0
 30 60  1  0
 32 61  1  0
 32 62  1  0
 32 63  1  0
M  CHG  1  19  -1
M  END
>  <UniqueID>  (32) 
28

>  <SMILES>  (32) 
Cc1cc(C(=O)N2CCN(Cc3cccc(C(=O)[N-]c4ccc(C)c(C)c4)c3)CC2)n(C)n1

>  <Energy>  (32) 
106.68974931466245

>  <Genealogy>  (32) 
Cc1cc(C(=O)N2CCN(Cc3cccc(C(=O)[N-]c4ccc(C)c(C)c4)c3)CC2)n(C)n1 (protonated)
Cc1cc(C(=O)N2CCN(Cc3cccc(C(=O)[N-]c4ccc(C)c(C)c4)c3)CC2)n(C)n1 (3D coordinates assigned)
Cc1cc(C(=O)N2CCN(Cc3cccc(C(=O)[N-]c4ccc(C)c(C)c4)c3)CC2)n(C)n1 (nonaromatic ring conformer: 106.68974931466245 kcal/mol)

>  <smiles>  (32) 
Cc1cc(C(=O)N2CCN(Cc3cccc(C(=O)Nc4ccc(C)c(C)c4)c3)CC2)n(C)n1

>  <score_type>  (32) 
oracle

>  <origin>  (32) 
adg

>  <m_score__min__energy>  (32) 
-11.130000000000001

>  <m_primary>  (32) 
energy

$$$$
33:0
     RDKit          3D

 66 71  0  0  0  0  0  0  0  0999 V2000
   60.0200   35.4640   45.9700 C   0  0  0  0  0  0  0  0  0  0  0  0
   59.1140   34.2710   45.7740 C   0  0  0  0  0  0  0  0  0  0  0  0
   58.5670   34.0720   44.5040 C   0  0  0  0  0  0  0  0  0  0  0  0
   57.8290   32.9240   44.2510 C   0  0  0  0  0  0  0  0  0  0  0  0
   57.3930   32.7230   43.0850 O   0  0  0  0  0  0  0  0  0  0  0  0
   57.6300   32.0090   45.2420 N   0  0  0  0  0  0  0  0  0  0  0  0
   56.9470   30.8000   44.9940 N   0  0  0  0  0  0  0  0  0  0  0  0
   57.5240   29.6700   44.3260 C   0  0  0  0  0  0  0  0  0  0  0  0
   57.1140   29.3490   43.1780 O   0  0  0  0  0  0  0  0  0  0  0  0
   58.5900   28.8790   44.9950 C   0  0  0  0  0  0  0  0  0  0  0  0
   59.6560   29.5600   45.6150 C   0  0  0  0  0  0  0  0  0  0  0  0
   60.7050   28.8560   46.2070 C   0  0  0  0  0  0  0  0  0  0  0  0
   60.7120   27.4620   46.1910 C   0  0  0  0  0  0  0  0  0  0  0  0
   59.6620   26.7680   45.5890 C   0  0  0  0  0  0  0  0  0  0  0  0
   58.5960   27.4600   44.9910 C   0  0  0  0  0  0  0  0  0  0  0  0
   57.4880   26.7120   44.4630 N   0  0  0  0  0  0  0  0  0  0  0  0
   57.2190   25.3390   44.8010 C   0  0  0  0  0  0  0  0  0  0  0  0
   56.7560   25.0250   46.0890 C   0  0  0  0  0  0  0  0  0  0  0  0
   56.4600   23.7020   46.4310 C   0  0  0  0  0  0  0  0  0  0  0  0
   56.6090   22.6850   45.4860 C   0  0  0  0  0  0  0  0  0  0  0  0
   57.0560   22.9880   44.1980 C   0  0  0  0  0  0  0  0  0  0  0  0
   57.3550   24.3090   43.8520 C   0  0  0  0  0  0  0  0  0  0  0  0
   58.1810   32.2010   46.4780 C   0  0  0  0  0  0  0  0  0  0  0  0
   58.0600   31.2910   47.3470 O   0  0  0  0  0  0  0  0  0  0  0  0
   58.8610   33.3610   46.7800 N   0  0  0  0  0  0  0  0  0  0  0  0
   59.3800   33.5630   48.1580 C   0  0  0  0  0  0  0  0  0  0  0  0
   60.7390   32.9200   48.3600 C   0  0  0  0  0  0  0  0  0  0  0  0
   61.8610   33.4620   47.7040 C   0  0  0  0  0  0  0  0  0  0  0  0
   63.1180   32.8660   47.8400 C   0  0  0  0  0  0  0  0  0  0  0  0
   63.2730   31.7290   48.6320 C   0  0  0  0  0  0  0  0  0  0  0  0
   62.1730   31.1900   49.3010 C   0  0  0  0  0  0  0  0  0  0  0  0
   60.9070   31.7790   49.1780 C   0  0  0  0  0  0  0  0  0  0  0  0
   59.8070   31.2190   49.9030 N   0  0  0  0  0  0  0  0  0  0  0  0
   59.2440   29.9980   49.7330 C   0  0  0  0  0  0  0  0  0  0  0  0
   59.6830   29.1410   48.9210 O   0  0  0  0  0  0  0  0  0  0  0  0
   58.1570   29.7760   50.5170 N   0  0  0  0  0  0  0  0  0  0  0  0
   58.0480   30.9370   51.1950 C   0  0  0  0  0  0  0  0  0  0  0  0
   57.0930   31.2750   52.1510 C   0  0  0  0  0  0  0  0  0  0  0  0
   57.1610   32.5600   52.7200 C   0  0  0  0  0  0  0  0  0  0  0  0
   58.1690   33.4690   52.3200 C   0  0  0  0  0  0  0  0  0  0  0  0
   59.1230   33.0960   51.3550 C   0  0  0  0  0  0  0  0  0  0  0  0
   59.0280   31.8120   50.8180 C   0  0  0  0  0  0  0  0  0  0  0  0
   60.1585   35.6464   47.0459 H   0  0  0  0  0  0  0  0  0  0  0  0
   60.9958   35.2639   45.5034 H   0  0  0  0  0  0  0  0  0  0  0  0
   59.5653   36.3503   45.5034 H   0  0  0  0  0  0  0  0  0  0  0  0
   58.7199   34.8189   43.7111 H   0  0  0  0  0  0  0  0  0  0  0  0
   59.6614   30.6598   45.6326 H   0  0  0  0  0  0  0  0  0  0  0  0
   61.5294   29.4028   46.6880 H   0  0  0  0  0  0  0  0  0  0  0  0
   61.5442   26.9100   46.6523 H   0  0  0  0  0  0  0  0  0  0  0  0
   59.6691   25.6680   45.5826 H   0  0  0  0  0  0  0  0  0  0  0  0
   56.8180   27.2170   43.8410 H   0  0  0  0  0  0  0  0  0  0  0  0
   56.6254   25.8245   46.8332 H   0  0  0  0  0  0  0  0  0  0  0  0
   56.1094   23.4621   47.4456 H   0  0  0  0  0  0  0  0  0  0  0  0
   56.3743   21.6448   45.7560 H   0  0  0  0  0  0  0  0  0  0  0  0
   57.1730   22.1858   43.4545 H   0  0  0  0  0  0  0  0  0  0  0  0
   57.6980   24.5443   42.8337 H   0  0  0  0  0  0  0  0  0  0  0  0
   59.4675   34.6428   48.3486 H   0  0  0  0  0  0  0  0  0  0  0  0
   58.6753   33.0882   48.8566 H   0  0  0  0  0  0  0  0  0  0  0  0
   61.7474   34.3608   47.0801 H   0  0  0  0  0  0  0  0  0  0  0  0
   63.9875   33.2952   47.3207 H   0  0  0  0  0  0  0  0  0  0  0  0
   64.2618   31.2570   48.7295 H   0  0  0  0  0  0  0  0  0  0  0  0
   62.3005   30.2963   49.9295 H   0  0  0  0  0  0  0  0  0  0  0  0
   56.3118   30.5611   52.4511 H   0  0  0  0  0  0  0  0  0  0  0  0
   56.4256   32.8601   53.4810 H   0  0  0  0  0  0  0  0  0  0  0  0
   58.2071   34.4737   52.7662 H   0  0  0  0  0  0  0  0  0  0  0  0
   59.9139   33.7908   51.0361 H   0  0  0  0  0  0  0  0  0  0  0  0
  1  2  1  0
  2  3  2  0
  3  4  1  0
  4  5  2  0
  4  6  1  0
  6  7  1  0
  7  8  1  0
  8  9  2  0
  8 10  1  0
 10 11  2  0
 11 12  1  0
 12 13  2  0
 13 14  1  0
 14 15  2  0
 15 16  1  0
 16 17  1  0
 17 18  2  0
 18 19  1  0
 19 20  2  0
 20 21  1  0
 21 22  2  0
  6 23  1  0
 23 24  2  0
 23 25  1  0
 25 26  1  0
 26 27  1  0
 27 28  2  0
 28 29  1  0
 29 30  2  0
 30 31  1  0
 31 32  2  0
 32 33  1  0
 33 34  1  0
 34 35  2  0
 34 36  1  0
 36 37  1  0
 37 38  2  0
 38 39  1  0
 39 40  2  0
 40 41  1  0
 41 42  2  0
 25  2  1  0
 32 27  1  0
 42 33  1  0
 15 10  1  0
 22 17  1  0
 42 37  1  0
  1 43  1  0
  1 44  1  0
  1 45  1  0
  3 46  1  0
 11 47  1  0
 12 48  1  0
 13 49  1  0
 14 50  1  0
 16 51  1  0
 18 52  1  0
 19 53  1  0
 20 54  1  0
 21 55  1  0
 22 56  1  0
 26 57  1  0
 26 58  1  0
 28 59  1  0
 29 60  1  0
 30 61  1  0
 31 62  1  0
 38 63  1  0
 39 64  1  0
 40 65  1  0
 41 66  1  0
M  CHG  2   7  -1  36  -1
M  END
>  <UniqueID>  (33) 
29

>  <SMILES>  (33) 
Cc1cc(=O)n([N-]C(=O)c2ccccc2Nc2ccccc2)c(=O)n1Cc1ccccc1-n1c(=O)[n-]c2ccccc21

>  <Energy>  (33) 
140.75197698307193

>  <Genealogy>  (33) 
Cc1cc(=O)n([N-]C(=O)c2ccccc2Nc2ccccc2)c(=O)n1Cc1ccccc1-n1c(=O)[n-]c2ccccc21 (protonated)
Cc1cc(=O)n([N-]C(=O)c2ccccc2Nc2ccccc2)c(=O)n1Cc1ccccc1-n1c(=O)[n-]c2ccccc21 (3D coordinates assigned)
Cc1cc(=O)n([N-]C(=O)c2ccccc2Nc2ccccc2)c(=O)n1Cc1ccccc1-n1c(=O)[n-]c2ccccc21 (optimized conformer: 140.75197698307193 kcal/mol)

>  <smiles>  (33) 
Cc1cc(=O)n(NC(=O)c2ccccc2Nc2ccccc2)c(=O)n1Cc1ccccc1-n1c(=O)[nH]c2ccccc21

>  <score_type>  (33) 
oracle

>  <origin>  (33) 
adg

>  <m_score__min__energy>  (33) 
-13.119999999999999

>  <m_primary>  (33) 
energy

$$$$
34:0
     RDKit          3D

 55 57  0  0  0  0  0  0  0  0999 V2000
   59.4370   31.6030   50.3820 O   0  0  0  0  0  0  0  0  0  0  0  0
   60.2640   30.8630   49.7880 C   0  0  0  0  0  0  0  0  0  0  0  0
   61.4820   30.5140   50.4620 N   0  0  0  0  0  0  0  0  0  0  0  0
   62.8050   31.0900   50.2190 C   0  0  0  0  0  0  0  0  0  0  0  0
   62.8060   32.6130   50.4100 C   0  0  0  0  0  0  0  0  0  0  0  0
   63.2040   33.3090   49.1690 N   0  0  0  0  0  0  0  0  0  0  0  0
   63.9270   32.4150   48.2630 C   0  0  0  0  0  0  0  0  0  0  0  0
   63.7410   32.9760   46.8630 C   0  0  0  0  0  0  0  0  0  0  0  0
   62.4890   33.8350   46.9390 C   0  0  0  0  0  0  0  0  0  0  0  0
   62.0560   33.7970   48.3970 C   0  0  0  0  0  0  0  0  0  0  0  0
   59.9330   30.3550   48.4450 C   0  0  0  0  0  0  0  0  0  0  0  0
   60.7090   30.7090   47.3310 C   0  0  0  0  0  0  0  0  0  0  0  0
   60.4050   30.1940   46.0680 C   0  0  0  0  0  0  0  0  0  0  0  0
   59.3230   29.3150   45.9050 C   0  0  0  0  0  0  0  0  0  0  0  0
   58.9900   28.7590   44.5810 C   0  0  0  0  0  0  0  0  0  0  0  0
   57.7410   28.5480   44.1450 C   0  0  0  0  0  0  0  0  0  0  0  0
   56.5350   29.8200   43.9280 S   0  0  0  0  0  0  0  0  0  0  0  0
   56.5260   30.2880   42.4990 O   0  0  0  0  0  0  0  0  0  0  0  0
   55.1740   29.2950   44.2920 O   0  0  0  0  0  0  0  0  0  0  0  0
   56.9110   31.1480   44.9850 N   0  0  0  0  0  0  0  0  0  0  0  0
   57.7170   32.1420   44.2740 C   0  0  0  0  0  0  0  0  0  0  0  0
   58.2700   33.1360   45.2570 C   0  0  0  0  0  0  0  0  0  0  0  0
   58.0890   32.9450   46.6370 C   0  0  0  0  0  0  0  0  0  0  0  0
   58.6350   33.8530   47.5510 C   0  0  0  0  0  0  0  0  0  0  0  0
   59.3730   34.9480   47.0940 C   0  0  0  0  0  0  0  0  0  0  0  0
   59.5700   35.1360   45.7220 C   0  0  0  0  0  0  0  0  0  0  0  0
   59.0260   34.2310   44.8060 C   0  0  0  0  0  0  0  0  0  0  0  0
   58.5110   29.0110   47.0050 C   0  0  0  0  0  0  0  0  0  0  0  0
   58.8160   29.5240   48.2690 C   0  0  0  0  0  0  0  0  0  0  0  0
   63.5231   30.6423   50.9218 H   0  0  0  0  0  0  0  0  0  0  0  0
   63.0860   30.8753   49.1774 H   0  0  0  0  0  0  0  0  0  0  0  0
   61.7949   32.9391   50.6953 H   0  0  0  0  0  0  0  0  0  0  0  0
   63.5322   32.8639   51.1972 H   0  0  0  0  0  0  0  0  0  0  0  0
   64.9953   32.3921   48.5243 H   0  0  0  0  0  0  0  0  0  0  0  0
   63.5461   31.3854   48.3326 H   0  0  0  0  0  0  0  0  0  0  0  0
   64.6097   33.5856   46.5735 H   0  0  0  0  0  0  0  0  0  0  0  0
   63.6469   32.1791   46.1106 H   0  0  0  0  0  0  0  0  0  0  0  0
   62.7121   34.8673   46.6313 H   0  0  0  0  0  0  0  0  0  0  0  0
   61.6990   33.4639   46.2695 H   0  0  0  0  0  0  0  0  0  0  0  0
   61.7741   34.8053   48.7344 H   0  0  0  0  0  0  0  0  0  0  0  0
   61.1830   33.1414   48.5319 H   0  0  0  0  0  0  0  0  0  0  0  0
   61.5604   31.3949   47.4523 H   0  0  0  0  0  0  0  0  0  0  0  0
   61.0158   30.4785   45.1985 H   0  0  0  0  0  0  0  0  0  0  0  0
   59.8206   28.5007   43.9076 H   0  0  0  0  0  0  0  0  0  0  0  0
   57.4473   27.5151   43.9066 H   0  0  0  0  0  0  0  0  0  0  0  0
   56.0020   31.5950   45.2460 H   0  0  0  0  0  0  0  0  0  0  0  0
   58.5465   31.6386   43.7559 H   0  0  0  0  0  0  0  0  0  0  0  0
   57.0883   32.6652   43.5384 H   0  0  0  0  0  0  0  0  0  0  0  0
   57.5163   32.0789   47.0002 H   0  0  0  0  0  0  0  0  0  0  0  0
   58.4831   33.7047   48.6303 H   0  0  0  0  0  0  0  0  0  0  0  0
   59.7993   35.6625   47.8136 H   0  0  0  0  0  0  0  0  0  0  0  0
   60.1535   35.9968   45.3635 H   0  0  0  0  0  0  0  0  0  0  0  0
   59.1904   34.3767   43.7282 H   0  0  0  0  0  0  0  0  0  0  0  0
   57.6297   28.3659   46.8737 H   0  0  0  0  0  0  0  0  0  0  0  0
   58.1776   29.2752   49.1296 H   0  0  0  0  0  0  0  0  0  0  0  0
  1  2  2  0
  2  3  1  0
  3  4  1  0
  4  5  1  0
  5  6  1  0
  6  7  1  0
  7  8  1  0
  8  9  1  0
  9 10  1  0
  2 11  1  0
 11 12  2  0
 12 13  1  0
 13 14  2  0
 14 15  1  0
 15 16  2  3
 16 17  1  0
 17 18  2  0
 17 19  2  0
 17 20  1  0
 20 21  1  0
 21 22  1  0
 22 23  2  0
 23 24  1  0
 24 25  2  0
 25 26  1  0
 26 27  2  0
 14 28  1  0
 28 29  2  0
 10  6  1  0
 29 11  1  0
 27 22  1  0
  4 30  1  0
  4 31  1  0
  5 32  1  0
  5 33  1  0
  7 34  1  0
  7 35  1  0
  8 36  1  0
  8 37  1  0
  9 38  1  0
  9 39  1  0
 10 40  1  0
 10 41  1  0
 12 42  1  0
 13 43  1  0
 15 44  1  0
 16 45  1  0
 20 46  1  0
 21 47  1  0
 21 48  1  0
 23 49  1  0
 24 50  1  0
 25 51  1  0
 26 52  1  0
 27 53  1  0
 28 54  1  0
 29 55  1  0
M  CHG  1   3  -1
M  END
>  <UniqueID>  (34) 
30

>  <SMILES>  (34) 
O=C([N-]CCN1CCCC1)c1ccc(C=CS(=O)(=O)NCc2ccccc2)cc1

>  <Energy>  (34) 
63.77984494812068

>  <Genealogy>  (34) 
O=C([N-]CCN1CCCC1)c1ccc(C=CS(=O)(=O)NCc2ccccc2)cc1 (protonated)
O=C([N-]CCN1CCCC1)c1ccc(C=CS(=O)(=O)NCc2ccccc2)cc1 (3D coordinates assigned)
O=C([N-]CCN1CCCC1)c1ccc(C=CS(=O)(=O)NCc2ccccc2)cc1 (nonaromatic ring conformer: 63.77984494812068 kcal/mol)

>  <smiles>  (34) 
O=C(NCCN1CCCC1)c1ccc(C=CS(=O)(=O)NCc2ccccc2)cc1

>  <score_type>  (34) 
oracle

>  <origin>  (34) 
adg

>  <m_score__min__energy>  (34) 
-11.25

>  <m_primary>  (34) 
energy

$$$$
35:0
     RDKit          3D

 54 56  0  0  1  0  0  0  0  0999 V2000
   60.5600   29.4110   48.8470 C   0  0  0  0  0  0  0  0  0  0  0  0
   59.1870   29.5580   48.3220 C   0  0  0  0  0  0  0  0  0  0  0  0
   58.5450   28.5620   47.8900 O   0  0  0  0  0  0  0  0  0  0  0  0
   58.5140   30.7820   48.2670 O   0  0  0  0  0  0  0  0  0  0  0  0
   59.1870   31.9370   48.7110 C   0  0  0  0  0  0  0  0  0  0  0  0
   59.0870   32.2940   50.0590 C   0  0  0  0  0  0  0  0  0  0  0  0
   59.7460   33.4370   50.5190 C   0  0  0  0  0  0  0  0  0  0  0  0
   60.4780   34.1810   49.6310 C   0  0  0  0  0  0  0  0  0  0  0  0
   60.5870   33.8460   48.3000 C   0  0  0  0  0  0  0  0  0  0  0  0
   59.9360   32.7090   47.8260 C   0  0  0  0  0  0  0  0  0  0  0  0
   60.0490   32.3260   46.3740 C   0  0  0  0  0  0  0  0  0  0  0  0
   59.0430   33.1580   45.6470 C   0  0  0  0  0  0  0  0  0  0  0  0
   57.6330   32.7630   45.9100 C   0  0  0  0  0  0  0  0  0  0  0  0
   57.0130   33.0940   46.9530 O   0  0  0  0  0  0  0  0  0  0  0  0
   57.0130   31.9670   44.8770 N   0  0  0  0  0  0  0  0  0  0  0  0
   57.3030   30.7030   44.7600 C   0  0  0  0  0  0  0  0  0  0  0  0
   57.5060   29.9910   43.6460 N   0  0  0  0  0  0  0  0  0  0  0  0
   57.7790   28.7200   44.0310 C   0  0  0  0  0  0  0  0  0  0  0  0
   58.0680   27.5640   43.1610 C   0  0  0  0  0  0  0  0  0  0  0  0
   58.1250   26.3340   44.0280 C   0  0  0  0  0  0  0  0  0  0  0  0
   58.9470   26.3530   44.9490 O   0  0  0  0  0  0  0  0  0  0  0  0
   57.2410   25.2510   43.7310 N   0  0  0  0  0  0  0  0  0  0  0  0
   57.1830   24.0380   44.4560 C   0  0  0  0  0  0  0  0  0  0  0  0
   57.4010   22.8170   43.8830 C   0  0  0  0  0  0  0  0  0  0  0  0
   57.3480   21.6060   44.5750 C   0  0  0  0  0  0  0  0  0  0  0  0
   57.0590   21.6390   45.9100 C   0  0  0  0  0  0  0  0  0  0  0  0
   56.8390   22.8600   46.4940 C   0  0  0  0  0  0  0  0  0  0  0  0
   56.8930   24.0740   45.7970 C   0  0  0  0  0  0  0  0  0  0  0  0
   56.6360   25.2630   46.5820 C   0  0  0  0  0  0  0  0  0  0  0  0
   55.5470   25.8610   46.7080 O   0  0  0  0  0  0  0  0  0  0  0  0
   57.6950   25.8570   47.3090 O   0  0  0  0  0  0  0  0  0  0  0  0
   57.7470   28.6420   45.3810 N   0  0  0  0  0  0  0  0  0  0  0  0
   57.4560   29.8630   45.7850 N   0  0  0  0  0  0  0  0  0  0  0  0
   60.5343   29.4137   49.9467 H   0  0  0  0  0  0  0  0  0  0  0  0
   60.9884   28.4619   48.4926 H   0  0  0  0  0  0  0  0  0  0  0  0
   61.1796   30.2479   48.4926 H   0  0  0  0  0  0  0  0  0  0  0  0
   58.4939   31.6796   50.7524 H   0  0  0  0  0  0  0  0  0  0  0  0
   59.6784   33.7345   51.5758 H   0  0  0  0  0  0  0  0  0  0  0  0
   60.9979   35.0794   49.9952 H   0  0  0  0  0  0  0  0  0  0  0  0
   61.1824   34.4701   47.6173 H   0  0  0  0  0  0  0  0  0  0  0  0
   61.0617   32.5385   46.0007 H   0  0  0  0  0  0  0  0  0  0  0  0
   59.8647   31.2517   46.2260 H   0  0  0  0  0  0  0  0  0  0  0  0
   59.1725   34.2061   45.9548 H   0  0  0  0  0  0  0  0  0  0  0  0
   59.2217   33.0092   44.5719 H   0  0  0  0  0  0  0  0  0  0  0  0
   57.2728   27.4544   42.4089 H   0  0  0  0  0  0  0  0  0  0  0  0
   59.0248   27.7083   42.6378 H   0  0  0  0  0  0  0  0  0  0  0  0
   56.6220   25.4290   42.9150 H   0  0  0  0  0  0  0  0  0  0  0  0
   57.6330   22.7864   42.8082 H   0  0  0  0  0  0  0  0  0  0  0  0
   57.5337   20.6519   44.0601 H   0  0  0  0  0  0  0  0  0  0  0  0
   57.0043   20.7121   46.4998 H   0  0  0  0  0  0  0  0  0  0  0  0
   56.6074   22.8878   47.5690 H   0  0  0  0  0  0  0  0  0  0  0  0
   58.1750   26.6550   46.9130 H   0  0  0  0  0  0  0  0  0  0  0  0
   57.9230   27.7760   45.9510 H   0  0  0  0  0  0  0  0  0  0  0  0
   57.3560   30.1350   46.8050 H   0  0  0  0  0  0  0  0  0  0  0  0
  1  2  1  0
  2  3  2  0
  2  4  1  0
  4  5  1  0
  5  6  2  0
  6  7  1  0
  7  8  2  0
  8  9  1  0
  9 10  2  0
 10 11  1  0
 11 12  1  0
 12 13  1  0
 13 14  2  0
 13 15  1  0
 15 16  2  0
 16 17  1  0
 17 18  2  0
 18 19  1  0
 19 20  1  0
 20 21  2  0
 20 22  1  0
 22 23  1  0
 23 24  2  0
 24 25  1  0
 25 26  2  0
 26 27  1  0
 27 28  2  0
 28 29  1  0
 29 30  2  0
 29 31  1  0
 18 32  1  0
 32 33  1  0
 10  5  1  0
 33 16  1  0
 28 23  1  0
  1 34  1  0
  1 35  1  0
  1 36  1  0
  6 37  1  0
  7 38  1  0
  8 39  1  0
  9 40  1  0
 11 41  1  0
 11 42  1  0
 12 43  1  0
 12 44  1  0
 19 45  1  0
 19 46  1  0
 22 47  1  0
 24 48  1  0
 25 49  1  0
 26 50  1  0
 27 51  1  0
 31 52  1  0
 32 53  1  0
 33 54  1  0
M  END
>  <smiles>  (35) 
CC(=O)Oc1ccccc1CCC(=O)N=c1nc(CC(=O)Nc2ccccc2C(=O)O)[nH][nH]1

>  <score_type>  (35) 
oracle

>  <origin>  (35) 
adg

>  <m_score__min__energy>  (35) 
-9.4600000000000009

>  <m_primary>  (35) 
energy

$$$$
36:0
     RDKit          3D

 37 39  0  0  0  0  0  0  0  0999 V2000
   58.9816   29.4510   43.4088 H   0  0  0  0  0  0  0  0  0  0  0  0
   58.5110   29.5990   44.3920 C   0  0  0  0  0  0  0  0  0  0  0  0
   58.4220   30.8640   44.8520 C   0  0  0  0  0  0  0  0  0  0  0  0
   59.0720   31.3320   46.1070 C   0  0  0  0  0  0  0  0  0  0  0  0
   60.0650   30.7160   46.5820 O   0  0  0  0  0  0  0  0  0  0  0  0
   58.6270   32.5540   46.7310 N   0  0  0  0  0  0  0  0  0  0  0  0
   59.0140   32.8600   48.0830 C   0  0  0  0  0  0  0  0  0  0  0  0
   58.5330   32.0860   49.1520 C   0  0  0  0  0  0  0  0  0  0  0  0
   57.8558   31.2416   48.9560 H   0  0  0  0  0  0  0  0  0  0  0  0
   58.9120   32.3850   50.4650 C   0  0  0  0  0  0  0  0  0  0  0  0
   58.5325   31.7754   51.2983 H   0  0  0  0  0  0  0  0  0  0  0  0
   59.7720   33.4570   50.7200 C   0  0  0  0  0  0  0  0  0  0  0  0
   60.1470   33.7520   52.0250 O   0  0  0  0  0  0  0  0  0  0  0  0
   60.2550   34.2330   49.6610 C   0  0  0  0  0  0  0  0  0  0  0  0
   60.9323   35.0762   49.8614 H   0  0  0  0  0  0  0  0  0  0  0  0
   59.8770   33.9370   48.3480 C   0  0  0  0  0  0  0  0  0  0  0  0
   60.2571   34.5504   47.5178 H   0  0  0  0  0  0  0  0  0  0  0  0
   57.6150   33.3840   46.0650 C   0  0  0  0  0  0  0  0  0  0  0  0
   57.7431   34.4309   46.3773 H   0  0  0  0  0  0  0  0  0  0  0  0
   56.6158   33.0225   46.3494 H   0  0  0  0  0  0  0  0  0  0  0  0
   57.7600   33.2910   44.5450 C   0  0  0  0  0  0  0  0  0  0  0  0
   58.7612   33.6433   44.2559 H   0  0  0  0  0  0  0  0  0  0  0  0
   56.9847   33.9160   44.0778 H   0  0  0  0  0  0  0  0  0  0  0  0
   57.5790   31.8460   44.0690 C   0  0  0  0  0  0  0  0  0  0  0  0
   57.8636   31.7866   43.0081 H   0  0  0  0  0  0  0  0  0  0  0  0
   56.5240   31.5750   44.2227 H   0  0  0  0  0  0  0  0  0  0  0  0
   58.0280   28.3960   45.1010 C   0  0  0  0  0  0  0  0  0  0  0  0
   58.9560   27.4520   45.5690 C   0  0  0  0  0  0  0  0  0  0  0  0
   60.0333   27.6318   45.4384 H   0  0  0  0  0  0  0  0  0  0  0  0
   58.5170   26.2850   46.2000 C   0  0  0  0  0  0  0  0  0  0  0  0
   59.2495   25.5569   46.5786 H   0  0  0  0  0  0  0  0  0  0  0  0
   57.1490   26.0410   46.3510 C   0  0  0  0  0  0  0  0  0  0  0  0
   56.8057   25.1264   46.8567 H   0  0  0  0  0  0  0  0  0  0  0  0
   56.2170   26.9600   45.8590 C   0  0  0  0  0  0  0  0  0  0  0  0
   54.8560   26.7100   45.9960 O   0  0  0  0  0  0  0  0  0  0  0  0
   56.6530   28.1290   45.2260 C   0  0  0  0  0  0  0  0  0  0  0  0
   55.9176   28.8418   44.8246 H   0  0  0  0  0  0  0  0  0  0  0  0
  1  2  1  0
  2  3  2  0
  3  4  1  0
  4  5  2  0
  4  6  1  0
  6  7  1  0
  7  8  2  0
  8  9  1  0
  8 10  1  0
 10 11  1  0
 10 12  2  0
 12 13  1  0
 12 14  1  0
 14 15  1  0
 14 16  2  0
 16 17  1  0
  6 18  1  0
 18 19  1  0
 18 20  1  0
 18 21  1  0
 21 22  1  0
 21 23  1  0
 21 24  1  0
 24 25  1  0
 24 26  1  0
  2 27  1  0
 27 28  2  0
 28 29  1  0
 28 30  1  0
 30 31  1  0
 30 32  2  0
 32 33  1  0
 32 34  1  0
 34 35  1  0
 34 36  2  0
 36 37  1  0
 24  3  1  0
 36 27  1  0
 16  7  1  0
M  CHG  2  13  -1  35  -1
M  END
>  <UniqueID>  (36) 
31

>  <SMILES>  (36) 
O=C1/C(=C\c2cccc([O-])c2)CCCN1c1ccc([O-])cc1

>  <Energy>  (36) 
52.853417251092374

>  <Genealogy>  (36) 
O=C1C(=Cc2cccc([O-])c2)CCCN1c1ccc([O-])cc1 (protonated)
O=C1/C(=C\c2cccc([O-])c2)CCCN1c1ccc([O-])cc1 (cis-trans isomerization)
O=C1/C(=C\c2cccc([O-])c2)CCCN1c1ccc([O-])cc1 (3D coordinates assigned)
O=C1/C(=C\c2cccc([O-])c2)CCCN1c1ccc([O-])cc1 (nonaromatic ring conformer: 52.853417251092374 kcal/mol)

>  <smiles>  (36) 
O=C1C(=Cc2cccc(O)c2)CCCN1c1ccc(O)cc1

>  <score_type>  (36) 
oracle

>  <origin>  (36) 
adg

>  <m_score__min__energy>  (36) 
-11.91

>  <m_primary>  (36) 
energy

$$$$
37:0
     RDKit          3D

 31 32  0  0  0  0  0  0  0  0999 V2000
   54.8740   26.3190   45.9860 N   0  0  0  0  0  0  0  0  0  0  0  0
   56.3050   25.3860   46.2420 S   0  0  0  0  0  0  0  0  0  0  0  0
   56.1960   24.6450   47.5460 O   0  0  0  0  0  0  0  0  0  0  0  0
   56.4580   24.3850   45.1310 O   0  0  0  0  0  0  0  0  0  0  0  0
   57.7010   26.4570   46.2790 C   0  0  0  0  0  0  0  0  0  0  0  0
   58.9860   25.9330   46.4640 C   0  0  0  0  0  0  0  0  0  0  0  0
   60.0950   26.7820   46.4730 C   0  0  0  0  0  0  0  0  0  0  0  0
   59.9270   28.1590   46.3000 C   0  0  0  0  0  0  0  0  0  0  0  0
   58.6400   28.7000   46.1260 C   0  0  0  0  0  0  0  0  0  0  0  0
   58.4430   30.1100   45.9170 N   0  0  0  0  0  0  0  0  0  0  0  0
   58.8630   31.1220   46.8490 C   0  0  0  0  0  0  0  0  0  0  0  0
   59.0860   30.8160   48.0510 O   0  0  0  0  0  0  0  0  0  0  0  0
   58.9930   32.5370   46.4270 C   0  0  0  0  0  0  0  0  0  0  0  0
   60.0280   33.2920   46.7660 C   0  0  0  0  0  0  0  0  0  0  0  0
   59.9040   35.0110   46.3210 S   0  0  0  0  0  0  0  0  0  0  0  0
   58.5190   34.5940   45.2170 C   0  0  0  0  0  0  0  0  0  0  0  0
   57.9080   33.2720   45.6980 C   0  0  1  0  0  0  0  0  0  0  0  0
   57.3660   32.4840   44.5370 C   0  0  0  0  0  0  0  0  0  0  0  0
   57.8040   32.6910   43.3740 O   0  0  0  0  0  0  0  0  0  0  0  0
   56.4060   31.5000   44.7410 O   0  0  0  0  0  0  0  0  0  0  0  0
   57.5340   27.8380   46.0960 C   0  0  0  0  0  0  0  0  0  0  0  0
   55.1480   27.3250   46.0550 H   0  0  0  0  0  0  0  0  0  0  0  0
   59.1225   24.8503   46.6026 H   0  0  0  0  0  0  0  0  0  0  0  0
   61.1032   26.3661   46.6166 H   0  0  0  0  0  0  0  0  0  0  0  0
   60.8046   28.8222   46.2999 H   0  0  0  0  0  0  0  0  0  0  0  0
   57.8640   30.4050   45.0990 H   0  0  0  0  0  0  0  0  0  0  0  0
   60.9058   32.8833   47.2880 H   0  0  0  0  0  0  0  0  0  0  0  0
   57.7608   35.3901   45.2529 H   0  0  0  0  0  0  0  0  0  0  0  0
   58.8741   34.4951   44.1806 H   0  0  0  0  0  0  0  0  0  0  0  0
   57.0540   33.4425   46.3701 H   0  0  0  0  0  0  0  0  0  0  0  0
   56.5273   28.2481   45.9276 H   0  0  0  0  0  0  0  0  0  0  0  0
  1  2  1  0
  2  3  2  0
  2  4  2  0
  2  5  1  0
  5  6  2  0
  6  7  1  0
  7  8  2  0
  8  9  1  0
  9 10  1  0
 10 11  1  0
 11 12  2  0
 11 13  1  0
 13 14  2  0
 14 15  1  0
 15 16  1  0
 16 17  1  0
 17 18  1  0
 18 19  2  0
 18 20  1  0
  9 21  2  0
 21  5  1  0
 17 13  1  0
  1 22  1  0
  6 23  1  0
  7 24  1  0
  8 25  1  0
 10 26  1  0
 14 27  1  0
 16 28  1  0
 16 29  1  0
 17 30  1  1
 21 31  1  0
M  CHG  2   1  -1  20  -1
M  END
>  <UniqueID>  (37) 
32

>  <SMILES>  (37) 
[NH-]S(=O)(=O)c1cccc(NC(=O)C2=CSC[C@H]2C(=O)[O-])c1

>  <Energy>  (37) 
40.67891049429278

>  <Genealogy>  (37) 
[NH-]S(=O)(=O)c1cccc(NC(=O)C2=CSCC2C(=O)[O-])c1 (protonated)
[NH-]S(=O)(=O)c1cccc(NC(=O)C2=CSC[C@H]2C(=O)[O-])c1 (chirality)
[NH-]S(=O)(=O)c1cccc(NC(=O)C2=CSC[C@H]2C(=O)[O-])c1 (3D coordinates assigned)
[NH-]S(=O)(=O)c1cccc(NC(=O)C2=CSC[C@H]2C(=O)[O-])c1 (nonaromatic ring conformer: 40.67891049429278 kcal/mol)

>  <smiles>  (37) 
NS(=O)(=O)c1cccc(NC(=O)C2=CSCC2C(=O)O)c1

>  <score_type>  (37) 
oracle

>  <origin>  (37) 
adg

>  <m_score__min__energy>  (37) 
-11.83

>  <m_primary>  (37) 
energy

$$$$
38:0
     RDKit          3D

 51 54  0  0  0  0  0  0  0  0999 V2000
   61.4218   27.7831   48.4664 H   0  0  0  0  0  0  0  0  0  0  0  0
   60.7130   27.6620   47.6340 C   0  0  0  0  0  0  0  0  0  0  0  0
   60.7568   26.7638   47.0006 H   0  0  0  0  0  0  0  0  0  0  0  0
   59.7940   28.6110   47.3910 C   0  0  0  0  0  0  0  0  0  0  0  0
   58.8290   28.6000   46.3740 C   0  0  0  0  0  0  0  0  0  0  0  0
   58.4130   27.6100   45.5610 C   0  0  0  0  0  0  0  0  0  0  0  0
   59.0365   27.3839   44.6835 H   0  0  0  0  0  0  0  0  0  0  0  0
   57.1950   26.8050   45.7470 C   0  0  0  0  0  0  0  0  0  0  0  0
   57.1710   25.5480   46.2310 N   0  0  0  0  0  0  0  0  0  0  0  0
   55.8510   25.2850   46.3500 C   0  0  0  0  0  0  0  0  0  0  0  0
   55.4160   24.1800   46.7650 O   0  0  0  0  0  0  0  0  0  0  0  0
   55.0360   26.3030   45.9990 N   0  0  0  0  0  0  0  0  0  0  0  0
   55.9040   27.2600   45.6340 C   0  0  0  0  0  0  0  0  0  0  0  0
   55.5240   28.5280   45.2110 O   0  0  0  0  0  0  0  0  0  0  0  0
   58.2970   29.8740   46.3340 C   0  0  0  0  0  0  0  0  0  0  0  0
   57.5472   30.2460   45.6202 H   0  0  0  0  0  0  0  0  0  0  0  0
   58.8830   30.5950   47.3590 C   0  0  0  0  0  0  0  0  0  0  0  0
   58.6350   32.0380   47.6290 C   0  0  0  0  0  0  0  0  0  0  0  0
   58.1910   32.3630   48.7640 O   0  0  0  0  0  0  0  0  0  0  0  0
   58.9560   33.0880   46.6810 N   0  0  0  0  0  0  0  0  0  0  0  0
   59.8650   32.8120   46.2330 H   0  0  0  0  0  0  0  0  0  0  0  0
   59.1910   34.3950   47.3350 C   0  0  0  0  0  0  0  0  0  0  0  0
   58.2377   34.7754   47.7306 H   0  0  0  0  0  0  0  0  0  0  0  0
   59.9179   34.2532   48.1484 H   0  0  0  0  0  0  0  0  0  0  0  0
   59.7670   35.4200   46.3360 C   0  0  0  0  0  0  0  0  0  0  0  0
   59.4717   36.4295   46.6580 H   0  0  0  0  0  0  0  0  0  0  0  0
   60.8603   35.2990   46.3289 H   0  0  0  0  0  0  0  0  0  0  0  0
   59.2650   35.1950   44.8990 C   0  0  0  0  0  0  0  0  0  0  0  0
   59.1909   36.1669   44.3892 H   0  0  0  0  0  0  0  0  0  0  0  0
   59.9785   34.5369   44.3815 H   0  0  0  0  0  0  0  0  0  0  0  0
   57.8920   34.5210   44.8880 C   0  0  0  0  0  0  0  0  0  0  0  0
   57.1687   35.1731   45.3995 H   0  0  0  0  0  0  0  0  0  0  0  0
   57.5950   34.3554   43.8419 H   0  0  0  0  0  0  0  0  0  0  0  0
   57.9320   33.1550   45.6050 C   0  0  0  0  0  0  0  0  0  0  0  0
   56.9442   32.9647   46.0501 H   0  0  0  0  0  0  0  0  0  0  0  0
   58.1987   32.3985   44.8523 H   0  0  0  0  0  0  0  0  0  0  0  0
   59.7840   29.8200   48.0160 N   0  0  0  0  0  0  0  0  0  0  0  0
   60.5670   30.1970   49.2070 C   0  0  0  0  0  0  0  0  0  0  0  0
   59.8775   30.4632   50.0217 H   0  0  0  0  0  0  0  0  0  0  0  0
   61.1955   29.3427   49.4988 H   0  0  0  0  0  0  0  0  0  0  0  0
   61.4620   31.3750   48.9130 C   0  0  0  0  0  0  0  0  0  0  0  0
   62.2560   31.3880   47.7540 C   0  0  0  0  0  0  0  0  0  0  0  0
   62.2165   30.5407   47.0536 H   0  0  0  0  0  0  0  0  0  0  0  0
   63.0960   32.4730   47.4870 C   0  0  0  0  0  0  0  0  0  0  0  0
   63.7094   32.4807   46.5739 H   0  0  0  0  0  0  0  0  0  0  0  0
   63.1580   33.5480   48.3780 C   0  0  0  0  0  0  0  0  0  0  0  0
   63.8169   34.4026   48.1648 H   0  0  0  0  0  0  0  0  0  0  0  0
   62.3820   33.5360   49.5400 C   0  0  0  0  0  0  0  0  0  0  0  0
   62.4327   34.3807   50.2428 H   0  0  0  0  0  0  0  0  0  0  0  0
   61.5410   32.4520   49.8110 C   0  0  0  0  0  0  0  0  0  0  0  0
   60.9388   32.4428   50.7315 H   0  0  0  0  0  0  0  0  0  0  0  0
  1  2  1  0
  2  3  1  0
  2  4  2  0
  4  5  1  0
  5  6  2  0
  6  7  1  0
  6  8  1  0
  8  9  1  0
  9 10  1  0
 10 11  2  0
 10 12  1  0
 12 13  1  0
 13 14  1  0
  5 15  1  0
 15 16  1  0
 15 17  2  0
 17 18  1  0
 18 19  2  0
 18 20  1  0
 20 21  1  0
 20 22  1  0
 22 23  1  0
 22 24  1  0
 22 25  1  0
 25 26  1  0
 25 27  1  0
 25 28  1  0
 28 29  1  0
 28 30  1  0
 28 31  1  0
 31 32  1  0
 31 33  1  0
 31 34  1  0
 34 35  1  0
 34 36  1  0
 17 37  1  0
 37 38  1  0
 38 39  1  0
 38 40  1  0
 38 41  1  0
 41 42  2  0
 42 43  1  0
 42 44  1  0
 44 45  1  0
 44 46  2  0
 46 47  1  0
 46 48  1  0
 48 49  1  0
 48 50  2  0
 50 51  1  0
 37  4  1  0
 50 41  1  0
 13  8  2  0
 34 20  1  0
M  CHG  4   9  -1  12  -1  14  -1  20   1
M  END
>  <UniqueID>  (38) 
33

>  <SMILES>  (38) 
C=c1/c(=C\c2[n-]c(=O)[n-]c2[O-])cc(C(=O)[NH+]2CCCCC2)n1Cc1ccccc1

>  <Energy>  (38) 
136.1063927042044

>  <Genealogy>  (38) 
C=c1c(=Cc2[n-]c(=O)[n-]c2[O-])cc(C(=O)[NH+]2CCCCC2)n1Cc1ccccc1 (protonated)
C=c1/c(=C\c2[n-]c(=O)[n-]c2[O-])cc(C(=O)[NH+]2CCCCC2)n1Cc1ccccc1 (cis-trans isomerization)
C=c1/c(=C\c2[n-]c(=O)[n-]c2[O-])cc(C(=O)[NH+]2CCCCC2)n1Cc1ccccc1 (3D coordinates assigned)
C=c1/c(=C\c2[n-]c(=O)[n-]c2[O-])cc(C(=O)[NH+]2CCCCC2)n1Cc1ccccc1 (nonaromatic ring conformer: 136.1063927042044 kcal/mol)

>  <smiles>  (38) 
C=c1c(=Cc2[nH]c(=O)[nH]c2O)cc(C(=O)N2CCCCC2)n1Cc1ccccc1

>  <score_type>  (38) 
oracle

>  <origin>  (38) 
adg

>  <m_score__min__energy>  (38) 
-15.289999999999999

>  <m_primary>  (38) 
energy

$$$$
39:0
     RDKit          3D

 35 37  0  0  0  0  0  0  0  0999 V2000
   58.2580   35.4090   51.9130 H   0  0  0  0  0  0  0  0  0  0  0  0
   57.8950   34.6100   52.4220 O   0  0  0  0  0  0  0  0  0  0  0  0
   58.1190   33.3030   51.9940 C   0  0  0  0  0  0  0  0  0  0  0  0
   57.4010   32.2590   52.5930 C   0  0  0  0  0  0  0  0  0  0  0  0
   56.7270   32.4721   53.4358 H   0  0  0  0  0  0  0  0  0  0  0  0
   57.5360   30.9520   52.1270 C   0  0  0  0  0  0  0  0  0  0  0  0
   56.9768   30.1313   52.6000 H   0  0  0  0  0  0  0  0  0  0  0  0
   58.3880   30.6990   51.0550 C   0  0  0  0  0  0  0  0  0  0  0  0
   58.4890   29.6761   50.6631 H   0  0  0  0  0  0  0  0  0  0  0  0
   59.0940   31.7130   50.4930 N   0  0  0  0  0  0  0  0  0  0  0  0
   59.0160   32.9990   50.9340 C   0  0  0  0  0  0  0  0  0  0  0  0
   59.7500   33.8900   50.3260 N   0  0  0  0  0  0  0  0  0  0  0  0
   60.1950   33.9200   48.9610 C   0  0  0  0  0  0  0  0  0  0  0  0
   61.3420   34.3680   48.6850 O   0  0  0  0  0  0  0  0  0  0  0  0
   59.3610   33.3170   47.8950 C   0  0  0  0  0  0  0  0  0  0  0  0
   59.4310   31.9390   47.6220 C   0  0  0  0  0  0  0  0  0  0  0  0
   60.1133   31.3021   48.2042 H   0  0  0  0  0  0  0  0  0  0  0  0
   58.6410   31.3710   46.6170 C   0  0  0  0  0  0  0  0  0  0  0  0
   58.6985   30.2903   46.4199 H   0  0  0  0  0  0  0  0  0  0  0  0
   57.7740   32.1760   45.8580 C   0  0  0  0  0  0  0  0  0  0  0  0
   56.9280   31.6310   44.8340 N   0  0  0  0  0  0  0  0  0  0  0  0
   57.1480   30.4190   44.0990 C   0  0  0  0  0  0  0  0  0  0  0  0
   57.5000   30.4550   42.8890 O   0  0  0  0  0  0  0  0  0  0  0  0
   56.9120   29.1210   44.7440 C   0  0  0  0  0  0  0  0  0  0  0  0
   55.6820   28.6520   45.0360 N   0  0  0  0  0  0  0  0  0  0  0  0
   55.9000   27.4530   45.6090 C   0  0  0  0  0  0  0  0  0  0  0  0
   54.8790   26.6290   46.0630 O   0  0  0  0  0  0  0  0  0  0  0  0
   57.2410   27.1520   45.6860 C   0  0  0  0  0  0  0  0  0  0  0  0
   57.6944   26.2418   46.1054 H   0  0  0  0  0  0  0  0  0  0  0  0
   57.8970   28.2270   45.1290 C   0  0  0  0  0  0  0  0  0  0  0  0
   58.9839   28.3506   45.0133 H   0  0  0  0  0  0  0  0  0  0  0  0
   57.6820   33.5410   46.1460 C   0  0  0  0  0  0  0  0  0  0  0  0
   56.9818   34.1715   45.5784 H   0  0  0  0  0  0  0  0  0  0  0  0
   58.4710   34.1120   47.1480 C   0  0  0  0  0  0  0  0  0  0  0  0
   58.3962   35.1898   47.3545 H   0  0  0  0  0  0  0  0  0  0  0  0
  1  2  1  0
  2  3  1  0
  3  4  2  0
  4  5  1  0
  4  6  1  0
  6  7  1  0
  6  8  2  0
  8  9  1  0
  8 10  1  0
 10 11  1  0
 11 12  2  0
 12 13  1  0
 13 14  2  0
 13 15  1  0
 15 16  2  0
 16 17  1  0
 16 18  1  0
 18 19  1  0
 18 20  2  0
 20 21  1  0
 21 22  1  0
 22 23  2  0
 22 24  1  0
 24 25  1  0
 25 26  1  0
 26 27  1  0
 26 28  2  0
 28 29  1  0
 28 30  1  0
 30 31  1  0
 20 32  1  0
 32 33  1  0
 32 34  2  0
 34 35  1  0
 11  3  1  0
 34 15  1  0
 30 24  2  0
M  CHG  4  10  -1  21  -1  25  -1  27  -1
M  END
>  <UniqueID>  (39) 
34

>  <SMILES>  (39) 
O=C(/N=c1/[n-]cccc1O)c1ccc([N-]C(=O)c2ccc([O-])[n-]2)cc1

>  <Energy>  (39) 
78.75904622938037

>  <Genealogy>  (39) 
O=C(N=c1[n-]cccc1O)c1ccc([N-]C(=O)c2ccc([O-])[n-]2)cc1 (protonated)
O=C(/N=c1/[n-]cccc1O)c1ccc([N-]C(=O)c2ccc([O-])[n-]2)cc1 (cis-trans isomerization)
O=C(/N=c1/[n-]cccc1O)c1ccc([N-]C(=O)c2ccc([O-])[n-]2)cc1 (3D coordinates assigned)
O=C(/N=c1/[n-]cccc1O)c1ccc([N-]C(=O)c2ccc([O-])[n-]2)cc1 (optimized conformer: 78.75904622938037 kcal/mol)

>  <smiles>  (39) 
O=C(N=c1[nH]cccc1O)c1ccc(NC(=O)c2ccc(O)[nH]2)cc1

>  <score_type>  (39) 
oracle

>  <origin>  (39) 
adg

>  <m_score__min__energy>  (39) 
-15.27

>  <m_primary>  (39) 
energy

$$$$
40:0
     RDKit          3D

 45 47  0  0  0  0  0  0  0  0999 V2000
   62.5340   29.7860   51.0440 C   0  0  0  0  0  0  0  0  0  0  0  0
   63.3020   31.0770   50.9510 C   0  0  0  0  0  0  0  0  0  0  0  0
   64.5390   31.0030   51.1880 O   0  0  0  0  0  0  0  0  0  0  0  0
   62.6820   32.2960   50.6190 N   0  0  0  0  0  0  0  0  0  0  0  0
   61.2620   32.4270   50.3440 C   0  0  0  0  0  0  0  0  0  0  0  0
   61.0050   33.7400   49.6040 C   0  0  0  0  0  0  0  0  0  0  0  0
   62.0600   33.9210   48.6400 N   0  0  0  0  0  0  0  0  0  0  0  0
   61.8980   33.9030   47.2340 C   0  0  0  0  0  0  0  0  0  0  0  0
   62.9150   34.0690   46.4870 O   0  0  0  0  0  0  0  0  0  0  0  0
   60.6350   33.7040   46.5450 C   0  0  0  0  0  0  0  0  0  0  0  0
   59.9100   34.7120   45.9500 C   0  0  0  0  0  0  0  0  0  0  0  0
   58.7300   34.3840   45.3450 C   0  0  0  0  0  0  0  0  0  0  0  0
   58.2210   33.1240   45.2910 C   0  0  0  0  0  0  0  0  0  0  0  0
   58.9460   32.0880   45.8900 C   0  0  0  0  0  0  0  0  0  0  0  0
   58.3900   30.7410   45.8410 C   0  0  0  0  0  0  0  0  0  0  0  0
   57.1390   30.5540   45.3600 N   0  0  0  0  0  0  0  0  0  0  0  0
   56.5500   29.3470   45.2950 C   0  0  0  0  0  0  0  0  0  0  0  0
   55.3790   29.1960   44.8430 O   0  0  0  0  0  0  0  0  0  0  0  0
   57.2300   28.2080   45.7350 C   0  0  0  0  0  0  0  0  0  0  0  0
   56.6300   26.8790   45.6970 C   0  0  0  0  0  0  0  0  0  0  0  0
   57.2760   25.8760   45.2910 O   0  0  0  0  0  0  0  0  0  0  0  0
   55.3200   26.6800   46.1080 O   0  0  0  0  0  0  0  0  0  0  0  0
   58.5020   28.4110   46.2220 C   0  0  0  0  0  0  0  0  0  0  0  0
   59.0400   29.6440   46.2620 N   0  0  0  0  0  0  0  0  0  0  0  0
   60.1390   32.4000   46.5040 C   0  0  0  0  0  0  0  0  0  0  0  0
   63.4070   34.1450   49.1860 C   0  0  0  0  0  0  0  0  0  0  0  0
   63.5010   33.4960   50.5380 C   0  0  0  0  0  0  0  0  0  0  0  0
   62.3797   29.5266   52.1018 H   0  0  0  0  0  0  0  0  0  0  0  0
   61.5586   29.9031   50.5491 H   0  0  0  0  0  0  0  0  0  0  0  0
   63.1024   28.9848   50.5491 H   0  0  0  0  0  0  0  0  0  0  0  0
   60.9300   31.5837   49.7206 H   0  0  0  0  0  0  0  0  0  0  0  0
   60.7034   32.4248   51.2916 H   0  0  0  0  0  0  0  0  0  0  0  0
   60.0334   33.6950   49.0902 H   0  0  0  0  0  0  0  0  0  0  0  0
   60.9863   34.5810   50.3128 H   0  0  0  0  0  0  0  0  0  0  0  0
   60.2705   35.7512   45.9615 H   0  0  0  0  0  0  0  0  0  0  0  0
   58.1537   35.1919   44.8704 H   0  0  0  0  0  0  0  0  0  0  0  0
   57.2629   32.9243   44.7888 H   0  0  0  0  0  0  0  0  0  0  0  0
   54.7300   27.4700   46.3670 H   0  0  0  0  0  0  0  0  0  0  0  0
   59.0871   27.5526   46.5837 H   0  0  0  0  0  0  0  0  0  0  0  0
   59.9930   29.7250   46.6380 H   0  0  0  0  0  0  0  0  0  0  0  0
   60.7199   31.5949   46.9776 H   0  0  0  0  0  0  0  0  0  0  0  0
   64.1562   33.7037   48.5122 H   0  0  0  0  0  0  0  0  0  0  0  0
   63.5958   35.2247   49.2781 H   0  0  0  0  0  0  0  0  0  0  0  0
   64.5496   33.2252   50.7309 H   0  0  0  0  0  0  0  0  0  0  0  0
   63.1335   34.2123   51.2876 H   0  0  0  0  0  0  0  0  0  0  0  0
  1  2  1  0
  2  3  2  0
  2  4  1  0
  4  5  1  0
  5  6  1  0
  6  7  1  0
  7  8  1  0
  8  9  2  0
  8 10  1  0
 10 11  2  0
 11 12  1  0
 12 13  2  0
 13 14  1  0
 14 15  1  0
 15 16  2  0
 16 17  1  0
 17 18  2  0
 17 19  1  0
 19 20  1  0
 20 21  2  0
 20 22  1  0
 19 23  2  0
 23 24  1  0
 14 25  2  0
  7 26  1  0
 26 27  1  0
 27  4  1  0
 25 10  1  0
 24 15  1  0
  1 28  1  0
  1 29  1  0
  1 30  1  0
  5 31  1  0
  5 32  1  0
  6 33  1  0
  6 34  1  0
 11 35  1  0
 12 36  1  0
 13 37  1  0
 22 38  1  0
 23 39  1  0
 24 40  1  0
 25 41  1  0
 26 42  1  0
 26 43  1  0
 27 44  1  0
 27 45  1  0
M  END
>  <smiles>  (40) 
CC(=O)N1CCN(C(=O)c2cccc(-c3nc(=O)c(C(=O)O)c[nH]3)c2)CC1

>  <score_type>  (40) 
oracle

>  <origin>  (40) 
adg

>  <m_score__min__energy>  (40) 
-9.3499999999999996

>  <m_primary>  (40) 
energy

$$$$
41:0
     RDKit          3D

 50 52  0  0  0  0  0  0  0  0999 V2000
   57.7710   31.9610   42.5620 C   0  0  0  0  0  0  0  0  0  0  0  0
   57.0040   30.8970   42.8170 C   0  0  0  0  0  0  0  0  0  0  0  0
   56.2850   30.7280   44.1370 C   0  0  0  0  0  0  0  0  0  0  0  0
   57.0270   29.8820   45.0960 N   0  0  0  0  0  0  0  0  0  0  0  0
   57.4430   28.5850   44.5090 C   0  0  0  0  0  0  0  0  0  0  0  0
   58.4910   27.8260   45.3600 C   0  0  0  0  0  0  0  0  0  0  0  0
   58.5870   28.3490   46.7690 C   0  0  0  0  0  0  0  0  0  0  0  0
   58.7580   27.5710   47.6960 O   0  0  0  0  0  0  0  0  0  0  0  0
   58.5080   29.8330   47.0400 C   0  0  1  0  0  0  0  0  0  0  0  0
   59.8060   30.3690   47.6200 C   0  0  0  0  0  0  0  0  0  0  0  0
   60.1110   30.1280   48.9120 C   0  0  0  0  0  0  0  0  0  0  0  0
   61.2970   30.7490   49.6000 C   0  0  0  0  0  0  0  0  0  0  0  0
   62.2590   31.4540   48.6280 C   0  0  0  0  0  0  0  0  0  0  0  0
   61.5540   32.1470   47.5270 N   0  0  2  0  0  0  0  0  0  0  0  0
   60.7220   33.2920   47.9800 C   0  0  0  0  0  0  0  0  0  0  0  0
   59.6420   33.6360   46.9790 C   0  0  0  0  0  0  0  0  0  0  0  0
   59.9730   34.1830   45.7290 C   0  0  0  0  0  0  0  0  0  0  0  0
   58.9690   34.4780   44.8020 C   0  0  0  0  0  0  0  0  0  0  0  0
   57.6300   34.2370   45.1180 C   0  0  0  0  0  0  0  0  0  0  0  0
   57.2920   33.6950   46.3610 C   0  0  0  0  0  0  0  0  0  0  0  0
   58.2940   33.3950   47.2890 C   0  0  0  0  0  0  0  0  0  0  0  0
   60.7550   31.1750   46.7510 C   0  0  0  0  0  0  0  0  0  0  0  0
   58.1370   30.5900   45.7570 C   0  0  0  0  0  0  0  0  0  0  0  0
   58.2798   32.0522   41.5910 H   0  0  0  0  0  0  0  0  0  0  0  0
   57.8937   32.7457   43.3231 H   0  0  0  0  0  0  0  0  0  0  0  0
   56.8922   30.1217   42.0448 H   0  0  0  0  0  0  0  0  0  0  0  0
   56.1391   31.7215   44.5862 H   0  0  0  0  0  0  0  0  0  0  0  0
   55.3284   30.2266   43.9283 H   0  0  0  0  0  0  0  0  0  0  0  0
   56.5519   27.9483   44.4059 H   0  0  0  0  0  0  0  0  0  0  0  0
   57.9140   28.8062   43.5399 H   0  0  0  0  0  0  0  0  0  0  0  0
   58.2101   26.7631   45.3979 H   0  0  0  0  0  0  0  0  0  0  0  0
   59.4723   27.9716   44.8848 H   0  0  0  0  0  0  0  0  0  0  0  0
   57.7202   29.9947   47.7905 H   0  0  0  0  0  0  0  0  0  0  0  0
   59.4651   29.4484   49.4873 H   0  0  0  0  0  0  0  0  0  0  0  0
   60.9316   31.4880   50.3283 H   0  0  0  0  0  0  0  0  0  0  0  0
   61.8579   29.9358   50.0838 H   0  0  0  0  0  0  0  0  0  0  0  0
   62.8469   32.1945   49.1902 H   0  0  0  0  0  0  0  0  0  0  0  0
   62.9000   30.6819   48.1774 H   0  0  0  0  0  0  0  0  0  0  0  0
   62.2850   32.5210   46.8750 H   0  0  0  0  0  0  0  0  0  0  0  0
   60.2486   33.0305   48.9379 H   0  0  0  0  0  0  0  0  0  0  0  0
   61.3782   34.1683   48.0877 H   0  0  0  0  0  0  0  0  0  0  0  0
   61.0258   34.3801   45.4783 H   0  0  0  0  0  0  0  0  0  0  0  0
   59.2341   34.9008   43.8217 H   0  0  0  0  0  0  0  0  0  0  0  0
   56.8415   34.4738   44.3885 H   0  0  0  0  0  0  0  0  0  0  0  0
   56.2375   33.5044   46.6094 H   0  0  0  0  0  0  0  0  0  0  0  0
   58.0249   32.9682   48.2665 H   0  0  0  0  0  0  0  0  0  0  0  0
   60.1657   31.7231   46.0011 H   0  0  0  0  0  0  0  0  0  0  0  0
   61.4558   30.4690   46.2815 H   0  0  0  0  0  0  0  0  0  0  0  0
   57.8252   31.6145   46.0085 H   0  0  0  0  0  0  0  0  0  0  0  0
   59.0060   30.6363   45.0842 H   0  0  0  0  0  0  0  0  0  0  0  0
  1  2  2  0
  2  3  1  0
  3  4  1  0
  4  5  1  0
  5  6  1  0
  6  7  1  0
  7  8  2  0
  7  9  1  0
  9 10  1  0
 10 11  2  0
 11 12  1  0
 12 13  1  0
 13 14  1  0
 14 15  1  0
 15 16  1  0
 16 17  2  0
 17 18  1  0
 18 19  2  0
 19 20  1  0
 20 21  2  0
 14 22  1  0
  9 23  1  0
 23  4  1  0
 22 10  1  0
 21 16  1  0
  1 24  1  0
  1 25  1  0
  2 26  1  0
  3 27  1  0
  3 28  1  0
  5 29  1  0
  5 30  1  0
  6 31  1  0
  6 32  1  0
  9 33  1  1
 11 34  1  0
 12 35  1  0
 12 36  1  0
 13 37  1  0
 13 38  1  0
 14 39  1  6
 15 40  1  0
 15 41  1  0
 17 42  1  0
 18 43  1  0
 19 44  1  0
 20 45  1  0
 21 46  1  0
 22 47  1  0
 22 48  1  0
 23 49  1  0
 23 50  1  0
M  CHG  1  14   1
M  END
>  <UniqueID>  (41) 
35

>  <SMILES>  (41) 
C=CCN1CCC(=O)[C@@H](C2=CCC[N@H+](Cc3ccccc3)C2)C1

>  <Energy>  (41) 
60.4833645075375

>  <Genealogy>  (41) 
C=CCN1CCC(=O)C(C2=CCC[NH+](Cc3ccccc3)C2)C1 (protonated)
C=CCN1CCC(=O)[C@@H](C2=CCC[N@H+](Cc3ccccc3)C2)C1 (chirality)
C=CCN1CCC(=O)[C@@H](C2=CCC[N@H+](Cc3ccccc3)C2)C1 (3D coordinates assigned)
C=CCN1CCC(=O)[C@@H](C2=CCC[N@H+](Cc3ccccc3)C2)C1 (nonaromatic ring conformer: 60.4833645075375 kcal/mol)

>  <smiles>  (41) 
C=CCN1CCC(=O)C(C2=CCCN(Cc3ccccc3)C2)C1

>  <score_type>  (41) 
oracle

>  <origin>  (41) 
adg

>  <m_score__min__energy>  (41) 
-7.0800000000000001

>  <m_primary>  (41) 
energy

$$$$
42:0
     RDKit          3D

 43 46  0  0  0  0  0  0  0  0999 V2000
   51.5038   32.2394   49.6906 H   0  0  0  0  0  0  0  0  0  0  0  0
   51.4130   31.9190   50.7390 C   0  0  0  0  0  0  0  0  0  0  0  0
   50.7650   32.7070   51.6340 N   0  0  0  0  0  0  0  0  0  0  0  0
   50.6360   32.3450   52.9370 C   0  0  0  0  0  0  0  0  0  0  0  0
   50.1080   33.0067   53.6394 H   0  0  0  0  0  0  0  0  0  0  0  0
   51.1710   31.1360   53.3890 C   0  0  0  0  0  0  0  0  0  0  0  0
   51.0739   30.8479   54.4462 H   0  0  0  0  0  0  0  0  0  0  0  0
   51.8370   30.2870   52.4790 C   0  0  0  0  0  0  0  0  0  0  0  0
   52.3710   29.1450   52.8200 N   0  0  0  0  0  0  0  0  0  0  0  0
   53.6180   28.8900   53.4910 C   0  0  0  0  0  0  0  0  0  0  0  0
   53.6810   28.0420   54.4230 O   0  0  0  0  0  0  0  0  0  0  0  0
   54.8550   29.5580   53.0220 C   0  0  0  0  0  0  0  0  0  0  0  0
   54.8240   30.8930   52.5820 C   0  0  0  0  0  0  0  0  0  0  0  0
   53.8729   31.4457   52.5865 H   0  0  0  0  0  0  0  0  0  0  0  0
   55.9890   31.5250   52.1390 C   0  0  0  0  0  0  0  0  0  0  0  0
   55.9457   32.5687   51.7943 H   0  0  0  0  0  0  0  0  0  0  0  0
   57.2170   30.8380   52.1300 C   0  0  0  0  0  0  0  0  0  0  0  0
   58.4660   31.4880   51.6550 C   0  0  0  0  0  0  0  0  0  0  0  0
   59.5770   30.7330   51.4420 N   0  0  0  0  0  0  0  0  0  0  0  0
   60.7240   31.2650   51.0190 N   0  0  0  0  0  0  0  0  0  0  0  0
   60.8520   32.5940   50.7690 C   0  0  0  0  0  0  0  0  0  0  0  0
   62.0090   33.0450   50.3690 N   0  0  0  0  0  0  0  0  0  0  0  0
   62.4360   33.2840   49.0180 C   0  0  0  0  0  0  0  0  0  0  0  0
   61.5380   33.7140   48.0290 C   0  0  0  0  0  0  0  0  0  0  0  0
   60.4896   33.9221   48.2891 H   0  0  0  0  0  0  0  0  0  0  0  0
   61.9780   33.8770   46.7150 C   0  0  0  0  0  0  0  0  0  0  0  0
   61.2852   34.2314   45.9376 H   0  0  0  0  0  0  0  0  0  0  0  0
   63.3060   33.5860   46.3960 C   0  0  0  0  0  0  0  0  0  0  0  0
   63.6653   33.7209   45.3651 H   0  0  0  0  0  0  0  0  0  0  0  0
   64.1560   33.1360   47.3580 N   0  0  0  0  0  0  0  0  0  0  0  0
   65.1430   32.9090   47.1020 H   0  0  0  0  0  0  0  0  0  0  0  0
   63.7480   32.9690   48.6470 C   0  0  0  0  0  0  0  0  0  0  0  0
   64.4528   32.5850   49.3992 H   0  0  0  0  0  0  0  0  0  0  0  0
   59.7460   33.4300   51.0020 C   0  0  0  0  0  0  0  0  0  0  0  0
   59.8258   34.5147   50.8376 H   0  0  0  0  0  0  0  0  0  0  0  0
   58.5480   32.8720   51.4430 C   0  0  0  0  0  0  0  0  0  0  0  0
   57.6723   33.5126   51.6237 H   0  0  0  0  0  0  0  0  0  0  0  0
   57.2450   29.4990   52.5570 C   0  0  0  0  0  0  0  0  0  0  0  0
   58.1935   28.9422   52.5417 H   0  0  0  0  0  0  0  0  0  0  0  0
   56.0790   28.8680   53.0010 C   0  0  0  0  0  0  0  0  0  0  0  0
   56.1202   27.8214   53.3371 H   0  0  0  0  0  0  0  0  0  0  0  0
   51.9650   30.7020   51.1460 C   0  0  0  0  0  0  0  0  0  0  0  0
   52.4995   30.0700   50.4214 H   0  0  0  0  0  0  0  0  0  0  0  0
  1  2  1  0
  2  3  1  0
  3  4  1  0
  4  5  1  0
  4  6  2  0
  6  7  1  0
  6  8  1  0
  8  9  2  3
  9 10  1  0
 10 11  2  0
 10 12  1  0
 12 13  2  0
 13 14  1  0
 13 15  1  0
 15 16  1  0
 15 17  2  0
 17 18  1  0
 18 19  2  0
 19 20  1  0
 20 21  1  0
 21 22  2  0
 22 23  1  0
 23 24  2  0
 24 25  1  0
 24 26  1  0
 26 27  1  0
 26 28  2  0
 28 29  1  0
 28 30  1  0
 30 31  1  0
 30 32  2  0
 32 33  1  0
 21 34  1  0
 34 35  1  0
 34 36  2  0
 36 37  1  0
 17 38  1  0
 38 39  1  0
 38 40  2  0
 40 41  1  0
  8 42  1  0
 42 43  1  0
 42  2  2  0
 40 12  1  0
 36 18  1  0
 32 23  1  0
M  CHG  3   3  -1  20  -1  30   1
M  END
>  <UniqueID>  (42) 
36

>  <SMILES>  (42) 
O=C(N=c1cc[n-]cc1)c1ccc(-c2cc/c(=N\c3ccc[nH+]c3)[n-]n2)cc1

>  <Energy>  (42) 
72.22924159347203

>  <Genealogy>  (42) 
O=C(N=c1cc[n-]cc1)c1ccc(-c2ccc(=Nc3ccc[nH+]c3)[n-]n2)cc1 (protonated)
O=C(N=c1cc[n-]cc1)c1ccc(-c2cc/c(=N\c3ccc[nH+]c3)[n-]n2)cc1 (cis-trans isomerization)
O=C(N=c1cc[n-]cc1)c1ccc(-c2cc/c(=N\c3ccc[nH+]c3)[n-]n2)cc1 (3D coordinates assigned)
O=C(N=c1cc[n-]cc1)c1ccc(-c2cc/c(=N\c3ccc[nH+]c3)[n-]n2)cc1 (optimized conformer: 72.22924159347203 kcal/mol)

>  <smiles>  (42) 
O=C(N=c1cc[nH]cc1)c1ccc(-c2ccc(=Nc3cccnc3)[nH]n2)cc1

>  <score_type>  (42) 
oracle

>  <origin>  (42) 
adg

>  <m_score__min__energy>  (42) 
-10.539999999999999

>  <m_primary>  (42) 
energy

$$$$
43:0
     RDKit          3D

 48 51  0  0  1  0  0  0  0  0999 V2000
   60.3650   29.3580   45.3000 O   0  0  0  0  0  0  0  0  0  0  0  0
   59.2230   29.2330   45.8500 C   0  0  0  0  0  0  0  0  0  0  0  0
   59.0870   28.8180   47.1930 N   0  0  0  0  0  0  0  0  0  0  0  0
   60.2110   28.5090   48.0630 C   0  0  0  0  0  0  0  0  0  0  0  0
   61.0400   29.7260   48.3040 C   0  0  0  0  0  0  0  0  0  0  0  0
   61.4150   30.3120   49.4920 C   0  0  0  0  0  0  0  0  0  0  0  0
   62.2070   31.4110   49.1460 C   0  0  0  0  0  0  0  0  0  0  0  0
   62.8620   32.3660   49.8990 C   0  0  0  0  0  0  0  0  0  0  0  0
   63.5810   33.3430   49.2370 C   0  0  0  0  0  0  0  0  0  0  0  0
   63.6800   33.4170   47.8670 C   0  0  0  0  0  0  0  0  0  0  0  0
   63.0260   32.4640   47.1220 C   0  0  0  0  0  0  0  0  0  0  0  0
   62.2900   31.4620   47.7610 C   0  0  0  0  0  0  0  0  0  0  0  0
   61.5770   30.4340   47.2730 N   0  0  0  0  0  0  0  0  0  0  0  0
   58.0880   29.5550   44.9800 C   0  0  0  0  0  0  0  0  0  0  0  0
   58.3220   30.5970   44.0760 C   0  0  0  0  0  0  0  0  0  0  0  0
   57.3490   31.0200   43.1940 C   0  0  0  0  0  0  0  0  0  0  0  0
   56.1360   30.3630   43.2500 C   0  0  0  0  0  0  0  0  0  0  0  0
   55.9070   29.3370   44.1390 C   0  0  0  0  0  0  0  0  0  0  0  0
   56.8830   28.9010   45.0370 C   0  0  0  0  0  0  0  0  0  0  0  0
   56.6680   27.8540   45.9500 N   0  0  0  0  0  0  0  0  0  0  0  0
   56.7700   26.6120   45.6380 C   0  0  0  0  0  0  0  0  0  0  0  0
   56.1290   25.6160   46.2600 N   0  0  0  0  0  0  0  0  0  0  0  0
   56.2220   24.3250   45.9510 C   0  0  0  0  0  0  0  0  0  0  0  0
   57.0410   23.9590   44.9070 C   0  0  0  0  0  0  0  0  0  0  0  0
   57.1460   22.5500   44.5680 C   0  0  0  0  0  0  0  0  0  0  0  0
   58.1430   21.7110   45.0300 O   0  0  0  0  0  0  0  0  0  0  0  0
   56.2600   22.0370   43.7880 N   0  0  0  0  0  0  0  0  0  0  0  0
   56.3010   20.7610   43.2820 O   0  0  0  0  0  0  0  0  0  0  0  0
   57.7150   24.9540   44.2460 C   0  0  0  0  0  0  0  0  0  0  0  0
   57.5790   26.2620   44.6080 N   0  0  0  0  0  0  0  0  0  0  0  0
   58.0900   28.7390   47.5520 H   0  0  0  0  0  0  0  0  0  0  0  0
   59.8310   28.1343   49.0249 H   0  0  0  0  0  0  0  0  0  0  0  0
   60.8359   27.7454   47.5767 H   0  0  0  0  0  0  0  0  0  0  0  0
   61.1463   29.9827   50.5066 H   0  0  0  0  0  0  0  0  0  0  0  0
   62.8125   32.3492   50.9978 H   0  0  0  0  0  0  0  0  0  0  0  0
   64.1023   34.1025   49.8381 H   0  0  0  0  0  0  0  0  0  0  0  0
   64.2640   34.2135   47.3826 H   0  0  0  0  0  0  0  0  0  0  0  0
   63.0820   32.4901   46.0237 H   0  0  0  0  0  0  0  0  0  0  0  0
   61.4690   30.2320   46.2460 H   0  0  0  0  0  0  0  0  0  0  0  0
   59.3050   31.0906   44.0683 H   0  0  0  0  0  0  0  0  0  0  0  0
   57.5305   31.8390   42.4824 H   0  0  0  0  0  0  0  0  0  0  0  0
   55.3305   30.6676   42.5656 H   0  0  0  0  0  0  0  0  0  0  0  0
   54.9232   28.8449   44.1418 H   0  0  0  0  0  0  0  0  0  0  0  0
   55.6579   23.5685   46.5163 H   0  0  0  0  0  0  0  0  0  0  0  0
   58.2980   20.7820   44.6540 H   0  0  0  0  0  0  0  0  0  0  0  0
   57.0650   20.1670   43.6160 H   0  0  0  0  0  0  0  0  0  0  0  0
   58.3778   24.6922   43.4081 H   0  0  0  0  0  0  0  0  0  0  0  0
   58.1010   26.9890   44.0870 H   0  0  0  0  0  0  0  0  0  0  0  0
  1  2  2  0
  2  3  1  0
  3  4  1  0
  4  5  1  0
  5  6  2  0
  6  7  1  0
  7  8  2  0
  8  9  1  0
  9 10  2  0
 10 11  1  0
 11 12  2  0
 12 13  1  0
  2 14  1  0
 14 15  2  0
 15 16  1  0
 16 17  2  0
 17 18  1  0
 18 19  2  0
 19 20  1  0
 20 21  2  3
 21 22  1  0
 22 23  2  0
 23 24  1  0
 24 25  1  0
 25 26  1  0
 25 27  2  0
 27 28  1  0
 24 29  2  0
 29 30  1  0
 13  5  1  0
 19 14  1  0
 30 21  1  0
 12  7  1  0
  3 31  1  0
  4 32  1  0
  4 33  1  0
  6 34  1  0
  8 35  1  0
  9 36  1  0
 10 37  1  0
 11 38  1  0
 13 39  1  0
 15 40  1  0
 16 41  1  0
 17 42  1  0
 18 43  1  0
 23 44  1  0
 26 45  1  0
 28 46  1  0
 29 47  1  0
 30 48  1  0
M  END
>  <smiles>  (43) 
O=C(NCc1cc2ccccc2[nH]1)c1ccccc1N=c1ncc(C(O)=NO)c[nH]1

>  <score_type>  (43) 
oracle

>  <origin>  (43) 
adg

>  <m_score__min__energy>  (43) 
-8.4499999999999993

>  <m_primary>  (43) 
energy

$$$$
44:0
     RDKit          3D

 69 73  0  0  0  0  0  0  0  0999 V2000
   63.3860   34.0480   46.6830 O   0  0  0  0  0  0  0  0  0  0  0  0
   62.1730   33.8290   46.9640 C   0  0  0  0  0  0  0  0  0  0  0  0
   61.1220   34.2140   46.0110 C   0  0  0  0  0  0  0  0  0  0  0  0
   59.8140   34.1050   46.2970 C   0  0  0  0  0  0  0  0  0  0  0  0
   58.9480   33.0430   45.7560 C   0  0  0  0  0  0  0  0  0  0  0  0
   58.4520   33.1450   44.4520 C   0  0  0  0  0  0  0  0  0  0  0  0
   57.6520   32.1260   43.9230 C   0  0  0  0  0  0  0  0  0  0  0  0
   57.3290   31.0000   44.6980 C   0  0  0  0  0  0  0  0  0  0  0  0
   56.4200   29.6640   43.9890 S   0  0  0  0  0  0  0  0  0  0  0  0
   55.9470   30.0640   42.6190 O   0  0  0  0  0  0  0  0  0  0  0  0
   55.2170   29.3480   44.8340 O   0  0  0  0  0  0  0  0  0  0  0  0
   57.4520   28.2770   43.8000 N   0  0  0  0  0  0  0  0  0  0  0  0
   58.5600   27.9010   44.6340 C   0  0  0  0  0  0  0  0  0  0  0  0
   59.6730   28.7440   44.8190 C   0  0  0  0  0  0  0  0  0  0  0  0
   60.7400   28.3390   45.6300 C   0  0  0  0  0  0  0  0  0  0  0  0
   60.7040   27.0990   46.2650 C   0  0  0  0  0  0  0  0  0  0  0  0
   59.6080   26.2530   46.0880 C   0  0  0  0  0  0  0  0  0  0  0  0
   58.5270   26.6540   45.2930 C   0  0  0  0  0  0  0  0  0  0  0  0
   57.4540   25.7290   45.0670 N   0  0  0  0  0  0  0  0  0  0  0  0
   57.3720   25.0290   43.7860 C   0  0  0  0  0  0  0  0  0  0  0  0
   56.6780   23.6850   43.9920 C   0  0  0  0  0  0  0  0  0  0  0  0
   55.4290   23.8610   44.6320 O   0  0  0  0  0  0  0  0  0  0  0  0
   55.6210   24.3750   45.9440 C   0  0  0  0  0  0  0  0  0  0  0  0
   56.2530   25.7680   45.9020 C   0  0  0  0  0  0  0  0  0  0  0  0
   57.7730   30.9310   46.0230 C   0  0  0  0  0  0  0  0  0  0  0  0
   58.5690   31.9500   46.5530 C   0  0  0  0  0  0  0  0  0  0  0  0
   61.8300   33.1760   48.1920 N   0  0  0  0  0  0  0  0  0  0  0  0
   62.1850   33.7940   49.4780 C   0  0  0  0  0  0  0  0  0  0  0  0
   61.0470   33.5940   50.4950 C   0  0  0  0  0  0  0  0  0  0  0  0
   60.4540   32.2450   50.4030 N   0  0  0  0  0  0  0  0  0  0  0  0
   59.1980   31.9710   51.0620 C   0  0  0  0  0  0  0  0  0  0  0  0
   58.5270   32.9910   51.7570 C   0  0  0  0  0  0  0  0  0  0  0  0
   57.3050   32.7330   52.3860 C   0  0  0  0  0  0  0  0  0  0  0  0
   56.7300   31.4600   52.3120 C   0  0  0  0  0  0  0  0  0  0  0  0
   57.3880   30.4400   51.6210 C   0  0  0  0  0  0  0  0  0  0  0  0
   58.6130   30.6900   50.9970 C   0  0  0  0  0  0  0  0  0  0  0  0
   61.0880   31.2400   49.5360 C   0  0  0  0  0  0  0  0  0  0  0  0
   61.2630   31.8220   48.1330 C   0  0  0  0  0  0  0  0  0  0  0  0
   61.4177   34.6061   45.0267 H   0  0  0  0  0  0  0  0  0  0  0  0
   59.3652   34.8490   46.9716 H   0  0  0  0  0  0  0  0  0  0  0  0
   58.6913   34.0280   43.8412 H   0  0  0  0  0  0  0  0  0  0  0  0
   57.2736   32.2074   42.8934 H   0  0  0  0  0  0  0  0  0  0  0  0
   59.7041   29.7257   44.3237 H   0  0  0  0  0  0  0  0  0  0  0  0
   61.6081   29.0006   45.7662 H   0  0  0  0  0  0  0  0  0  0  0  0
   61.5408   26.7864   46.9069 H   0  0  0  0  0  0  0  0  0  0  0  0
   59.5933   25.2669   46.5751 H   0  0  0  0  0  0  0  0  0  0  0  0
   56.7954   25.6351   43.0718 H   0  0  0  0  0  0  0  0  0  0  0  0
   58.3847   24.8650   43.3890 H   0  0  0  0  0  0  0  0  0  0  0  0
   56.5187   23.2071   43.0141 H   0  0  0  0  0  0  0  0  0  0  0  0
   57.3148   23.0514   44.6268 H   0  0  0  0  0  0  0  0  0  0  0  0
   54.6471   24.4373   46.4517 H   0  0  0  0  0  0  0  0  0  0  0  0
   56.2979   23.7001   46.4884 H   0  0  0  0  0  0  0  0  0  0  0  0
   55.5342   26.4850   45.4786 H   0  0  0  0  0  0  0  0  0  0  0  0
   56.5228   26.0812   46.9214 H   0  0  0  0  0  0  0  0  0  0  0  0
   57.4944   30.0712   46.6500 H   0  0  0  0  0  0  0  0  0  0  0  0
   58.9007   31.8959   47.6004 H   0  0  0  0  0  0  0  0  0  0  0  0
   63.1036   33.3279   49.8640 H   0  0  0  0  0  0  0  0  0  0  0  0
   62.3462   34.8715   49.3265 H   0  0  0  0  0  0  0  0  0  0  0  0
   61.4478   33.7374   51.5093 H   0  0  0  0  0  0  0  0  0  0  0  0
   60.2586   34.3278   50.2715 H   0  0  0  0  0  0  0  0  0  0  0  0
   58.9655   33.9986   51.8067 H   0  0  0  0  0  0  0  0  0  0  0  0
   56.7942   33.5338   52.9408 H   0  0  0  0  0  0  0  0  0  0  0  0
   55.7624   31.2628   52.7966 H   0  0  0  0  0  0  0  0  0  0  0  0
   56.9404   29.4366   51.5678 H   0  0  0  0  0  0  0  0  0  0  0  0
   59.1238   29.8826   50.4519 H   0  0  0  0  0  0  0  0  0  0  0  0
   62.0717   30.9684   49.9466 H   0  0  0  0  0  0  0  0  0  0  0  0
   60.4535   30.3428   49.4865 H   0  0  0  0  0  0  0  0  0  0  0  0
   61.9391   31.1737   47.5563 H   0  0  0  0  0  0  0  0  0  0  0  0
   60.2761   31.8759   47.6502 H   0  0  0  0  0  0  0  0  0  0  0  0
  1  2  2  0
  2  3  1  0
  3  4  2  3
  4  5  1  0
  5  6  2  0
  6  7  1  0
  7  8  2  0
  8  9  1  0
  9 10  2  0
  9 11  2  0
  9 12  1  0
 12 13  1  0
 13 14  2  0
 14 15  1  0
 15 16  2  0
 16 17  1  0
 17 18  2  0
 18 19  1  0
 19 20  1  0
 20 21  1  0
 21 22  1  0
 22 23  1  0
 23 24  1  0
  8 25  1  0
 25 26  2  0
  2 27  1  0
 27 28  1  0
 28 29  1  0
 29 30  1  0
 30 31  1  0
 31 32  2  0
 32 33  1  0
 33 34  2  0
 34 35  1  0
 35 36  2  0
 30 37  1  0
 37 38  1  0
 26  5  1  0
 38 27  1  0
 18 13  1  0
 24 19  1  0
 36 31  1  0
  3 39  1  0
  4 40  1  0
  6 41  1  0
  7 42  1  0
 14 43  1  0
 15 44  1  0
 16 45  1  0
 17 46  1  0
 20 47  1  0
 20 48  1  0
 21 49  1  0
 21 50  1  0
 23 51  1  0
 23 52  1  0
 24 53  1  0
 24 54  1  0
 25 55  1  0
 26 56  1  0
 28 57  1  0
 28 58  1  0
 29 59  1  0
 29 60  1  0
 32 61  1  0
 33 62  1  0
 34 63  1  0
 35 64  1  0
 36 65  1  0
 37 66  1  0
 37 67  1  0
 38 68  1  0
 38 69  1  0
M  CHG  1  12  -1
M  END
>  <UniqueID>  (44) 
37

>  <SMILES>  (44) 
O=C(C=Cc1ccc(S(=O)(=O)[N-]c2ccccc2N2CCOCC2)cc1)N1CCN(c2ccccc2)CC1

>  <Energy>  (44) 
103.97393465876544

>  <Genealogy>  (44) 
O=C(C=Cc1ccc(S(=O)(=O)[N-]c2ccccc2N2CCOCC2)cc1)N1CCN(c2ccccc2)CC1 (protonated)
O=C(C=Cc1ccc(S(=O)(=O)[N-]c2ccccc2N2CCOCC2)cc1)N1CCN(c2ccccc2)CC1 (3D coordinates assigned)
O=C(C=Cc1ccc(S(=O)(=O)[N-]c2ccccc2N2CCOCC2)cc1)N1CCN(c2ccccc2)CC1 (nonaromatic ring conformer: 103.97393465876544 kcal/mol)

>  <smiles>  (44) 
O=C(C=Cc1ccc(S(=O)(=O)Nc2ccccc2N2CCOCC2)cc1)N1CCN(c2ccccc2)CC1

>  <score_type>  (44) 
oracle

>  <origin>  (44) 
adg

>  <m_score__min__energy>  (44) 
-11.470000000000001

>  <m_primary>  (44) 
energy

$$$$
45:0
     RDKit          3D

 60 64  0  0  0  0  0  0  0  0999 V2000
   60.2075   34.3476   45.8455 H   0  0  0  0  0  0  0  0  0  0  0  0
   59.6780   33.4230   46.1190 C   0  0  0  0  0  0  0  0  0  0  0  0
   58.6710   32.9670   45.3350 N   0  0  0  0  0  0  0  0  0  0  0  0
   57.9940   31.8290   45.6470 C   0  0  0  0  0  0  0  0  0  0  0  0
   57.0370   31.3820   44.8890 N   0  0  0  0  0  0  0  0  0  0  0  0
   56.8270   30.0160   44.5050 C   0  0  0  0  0  0  0  0  0  0  0  0
   55.6750   29.7100   43.3770 S   0  0  0  0  0  0  0  0  0  0  0  0
   57.6670   28.9650   45.0240 N   0  0  0  0  0  0  0  0  0  0  0  0
   58.4210   29.2080   45.7050 H   0  0  0  0  0  0  0  0  0  0  0  0
   57.4740   27.5690   44.7510 C   0  0  0  0  0  0  0  0  0  0  0  0
   57.9690   27.0260   43.5590 C   0  0  0  0  0  0  0  0  0  0  0  0
   58.5288   27.6621   42.8576 H   0  0  0  0  0  0  0  0  0  0  0  0
   57.7540   25.6790   43.2580 C   0  0  0  0  0  0  0  0  0  0  0  0
   58.1544   25.2542   42.3257 H   0  0  0  0  0  0  0  0  0  0  0  0
   57.0320   24.8710   44.1380 C   0  0  0  0  0  0  0  0  0  0  0  0
   56.8643   23.8115   43.8943 H   0  0  0  0  0  0  0  0  0  0  0  0
   56.5180   25.4020   45.3330 C   0  0  0  0  0  0  0  0  0  0  0  0
   55.7230   24.5450   46.2440 C   0  0  0  0  0  0  0  0  0  0  0  0
   55.9730   24.5730   47.4810 O   0  0  0  0  0  0  0  0  0  0  0  0
   54.6670   23.6910   45.7580 N   0  0  0  0  0  0  0  0  0  0  0  0
   54.4380   22.3740   46.3560 C   0  0  0  0  0  0  0  0  0  0  0  0
   54.8597   21.5962   45.7024 H   0  0  0  0  0  0  0  0  0  0  0  0
   54.9252   22.3290   47.3412 H   0  0  0  0  0  0  0  0  0  0  0  0
   52.9320   22.1420   46.5200 C   0  0  0  0  0  0  0  0  0  0  0  0
   52.7607   21.1056   46.8463 H   0  0  0  0  0  0  0  0  0  0  0  0
   52.5469   22.8492   47.2693 H   0  0  0  0  0  0  0  0  0  0  0  0
   52.2510   22.3620   45.2980 O   0  0  0  0  0  0  0  0  0  0  0  0
   52.3700   23.7220   44.9200 C   0  0  0  0  0  0  0  0  0  0  0  0
   51.7623   23.9010   44.0208 H   0  0  0  0  0  0  0  0  0  0  0  0
   52.0184   24.3513   45.7509 H   0  0  0  0  0  0  0  0  0  0  0  0
   53.8280   24.0760   44.6190 C   0  0  0  0  0  0  0  0  0  0  0  0
   54.1590   23.5355   43.7200 H   0  0  0  0  0  0  0  0  0  0  0  0
   53.9155   25.1590   44.4472 H   0  0  0  0  0  0  0  0  0  0  0  0
   56.7240   26.7620   45.6210 C   0  0  0  0  0  0  0  0  0  0  0  0
   56.2943   27.1975   46.5351 H   0  0  0  0  0  0  0  0  0  0  0  0
   58.3560   31.1170   46.7450 N   0  0  0  0  0  0  0  0  0  0  0  0
   59.3660   31.5180   47.5630 C   0  0  0  0  0  0  0  0  0  0  0  0
   59.7240   30.6470   48.7060 C   0  0  0  0  0  0  0  0  0  0  0  0
   60.7340   29.6740   48.5860 C   0  0  0  0  0  0  0  0  0  0  0  0
   61.2747   29.5604   47.6348 H   0  0  0  0  0  0  0  0  0  0  0  0
   61.0530   28.8510   49.6710 C   0  0  0  0  0  0  0  0  0  0  0  0
   61.8520   28.1011   49.5752 H   0  0  0  0  0  0  0  0  0  0  0  0
   60.3580   28.9800   50.8770 C   0  0  0  0  0  0  0  0  0  0  0  0
   60.6133   28.3354   51.7310 H   0  0  0  0  0  0  0  0  0  0  0  0
   59.3390   29.9280   50.9970 C   0  0  0  0  0  0  0  0  0  0  0  0
   58.7886   30.0248   51.9444 H   0  0  0  0  0  0  0  0  0  0  0  0
   59.0170   30.7540   49.9160 C   0  0  0  0  0  0  0  0  0  0  0  0
   58.2064   31.4912   50.0129 H   0  0  0  0  0  0  0  0  0  0  0  0
   60.0490   32.7250   47.2750 C   0  0  0  0  0  0  0  0  0  0  0  0
   61.0840   33.2980   48.1690 C   0  0  0  0  0  0  0  0  0  0  0  0
   62.4040   33.4710   47.7150 C   0  0  0  0  0  0  0  0  0  0  0  0
   62.6723   33.1791   46.6889 H   0  0  0  0  0  0  0  0  0  0  0  0
   63.3770   34.0120   48.5610 C   0  0  0  0  0  0  0  0  0  0  0  0
   64.4058   34.1511   48.1974 H   0  0  0  0  0  0  0  0  0  0  0  0
   63.0430   34.3760   49.8680 C   0  0  0  0  0  0  0  0  0  0  0  0
   63.8084   34.8044   50.5318 H   0  0  0  0  0  0  0  0  0  0  0  0
   61.7360   34.1960   50.3330 C   0  0  0  0  0  0  0  0  0  0  0  0
   61.4752   34.4795   51.3633 H   0  0  0  0  0  0  0  0  0  0  0  0
   60.7610   33.6560   49.4890 C   0  0  0  0  0  0  0  0  0  0  0  0
   59.7357   33.5106   49.8601 H   0  0  0  0  0  0  0  0  0  0  0  0
  1  2  1  0
  2  3  1  0
  3  4  1  0
  4  5  2  0
  5  6  1  0
  6  7  2  0
  6  8  1  0
  8  9  1  0
  8 10  1  0
 10 11  2  0
 11 12  1  0
 11 13  1  0
 13 14  1  0
 13 15  2  0
 15 16  1  0
 15 17  1  0
 17 18  1  0
 18 19  2  0
 18 20  1  0
 20 21  1  0
 21 22  1  0
 21 23  1  0
 21 24  1  0
 24 25  1  0
 24 26  1  0
 24 27  1  0
 27 28  1  0
 28 29  1  0
 28 30  1  0
 28 31  1  0
 31 32  1  0
 31 33  1  0
 17 34  2  0
 34 35  1  0
  4 36  1  0
 36 37  2  0
 37 38  1  0
 38 39  2  0
 39 40  1  0
 39 41  1  0
 41 42  1  0
 41 43  2  0
 43 44  1  0
 43 45  1  0
 45 46  1  0
 45 47  2  0
 47 48  1  0
 37 49  1  0
 49 50  1  0
 50 51  2  0
 51 52  1  0
 51 53  1  0
 53 54  1  0
 53 55  2  0
 55 56  1  0
 55 57  1  0
 57 58  1  0
 57 59  2  0
 59 60  1  0
 49  2  2  0
 59 50  1  0
 34 10  1  0
 47 38  1  0
 31 20  1  0
M  CHG  1   3  -1
M  END
>  <UniqueID>  (45) 
38

>  <SMILES>  (45) 
O=C(c1cccc(NC(=S)/N=c2/nc(-c3ccccc3)c(-c3ccccc3)c[n-]2)c1)N1CCOCC1

>  <Energy>  (45) 
96.26945072028047

>  <Genealogy>  (45) 
O=C(c1cccc(NC(=S)N=c2nc(-c3ccccc3)c(-c3ccccc3)c[n-]2)c1)N1CCOCC1 (protonated)
O=C(c1cccc(NC(=S)/N=c2/nc(-c3ccccc3)c(-c3ccccc3)c[n-]2)c1)N1CCOCC1 (cis-trans isomerization)
O=C(c1cccc(NC(=S)/N=c2/nc(-c3ccccc3)c(-c3ccccc3)c[n-]2)c1)N1CCOCC1 (3D coordinates assigned)
O=C(c1cccc(NC(=S)/N=c2/nc(-c3ccccc3)c(-c3ccccc3)c[n-]2)c1)N1CCOCC1 (nonaromatic ring conformer: 96.26945072028047 kcal/mol)

>  <smiles>  (45) 
O=C(c1cccc(NC(=S)N=c2nc(-c3ccccc3)c(-c3ccccc3)c[nH]2)c1)N1CCOCC1

>  <score_type>  (45) 
oracle

>  <origin>  (45) 
adg

>  <m_score__min__energy>  (45) 
-10.56

>  <m_primary>  (45) 
energy

$$$$
46:0
     RDKit          3D

 68 71  0  0  0  0  0  0  0  0999 V2000
   55.4070   29.3920   45.6070 H   0  0  0  0  0  0  0  0  0  0  0  0
   55.6260   30.0810   44.8550 N   0  0  0  0  0  0  0  0  0  0  0  0
   56.9720   30.4740   44.5870 C   0  0  0  0  0  0  0  0  0  0  0  0
   57.7200   29.6940   43.9400 O   0  0  0  0  0  0  0  0  0  0  0  0
   57.4830   31.7840   45.0570 C   0  0  0  0  0  0  0  0  0  0  0  0
   56.6500   32.9190   45.0670 C   0  0  0  0  0  0  0  0  0  0  0  0
   55.6051   32.8329   44.7341 H   0  0  0  0  0  0  0  0  0  0  0  0
   57.1420   34.1540   45.4970 C   0  0  0  0  0  0  0  0  0  0  0  0
   56.4840   35.0355   45.4973 H   0  0  0  0  0  0  0  0  0  0  0  0
   58.4640   34.2740   45.9260 C   0  0  0  0  0  0  0  0  0  0  0  0
   58.8455   35.2500   46.2605 H   0  0  0  0  0  0  0  0  0  0  0  0
   59.3080   33.1540   45.9320 C   0  0  0  0  0  0  0  0  0  0  0  0
   60.7490   33.2800   46.3550 C   0  0  0  0  0  0  0  0  0  0  0  0
   61.3659   32.5969   45.7527 H   0  0  0  0  0  0  0  0  0  0  0  0
   61.0798   34.3177   46.2010 H   0  0  0  0  0  0  0  0  0  0  0  0
   60.8910   32.9350   47.7830 N   0  0  0  0  0  0  0  0  0  0  0  0
   62.1100   33.5380   48.3690 C   0  0  0  0  0  0  0  0  0  0  0  0
   62.9828   32.9462   48.0559 H   0  0  0  0  0  0  0  0  0  0  0  0
   62.1778   34.5755   48.0098 H   0  0  0  0  0  0  0  0  0  0  0  0
   62.0630   33.5750   49.9120 C   0  0  0  0  0  0  0  0  0  0  0  0
   63.0733   33.3775   50.2996 H   0  0  0  0  0  0  0  0  0  0  0  0
   61.7003   34.5700   50.2095 H   0  0  0  0  0  0  0  0  0  0  0  0
   61.1380   32.5770   50.4770 N   0  0  0  0  0  0  0  0  0  0  0  0
   61.7420   30.9390   50.3160 S   0  0  0  0  0  0  0  0  0  0  0  0
   63.1550   30.9790   49.8020 O   0  0  0  0  0  0  0  0  0  0  0  0
   61.7460   30.2330   51.6440 O   0  0  0  0  0  0  0  0  0  0  0  0
   60.7580   30.0320   49.1690 C   0  0  0  0  0  0  0  0  0  0  0  0
   59.6070   29.3550   49.5950 C   0  0  0  0  0  0  0  0  0  0  0  0
   59.3299   29.3612   50.6595 H   0  0  0  0  0  0  0  0  0  0  0  0
   58.8100   28.6720   48.6720 C   0  0  0  0  0  0  0  0  0  0  0  0
   57.9017   28.1535   49.0129 H   0  0  0  0  0  0  0  0  0  0  0  0
   59.1610   28.6430   47.3110 C   0  0  0  0  0  0  0  0  0  0  0  0
   58.3070   27.9270   46.3300 C   0  0  0  0  0  0  0  0  0  0  0  0
   57.0210   28.1190   46.3680 N   0  0  0  0  0  0  0  0  0  0  0  0
   56.1760   27.7410   45.3490 O   0  0  0  0  0  0  0  0  0  0  0  0
   56.3460   28.0650   44.4040 H   0  0  0  0  0  0  0  0  0  0  0  0
   58.9200   26.9970   45.3510 C   0  0  0  0  0  0  0  0  0  0  0  0
   58.6040   27.0770   44.1320 O   0  0  0  0  0  0  0  0  0  0  0  0
   59.8640   26.0080   45.7750 N   0  0  0  0  0  0  0  0  0  0  0  0
   59.4900   24.6160   45.9960 C   0  0  0  0  0  0  0  0  0  0  0  0
   59.4805   24.0840   45.0333 H   0  0  0  0  0  0  0  0  0  0  0  0
   60.2203   24.1487   46.6729 H   0  0  0  0  0  0  0  0  0  0  0  0
   58.1020   24.5430   46.6280 C   0  0  0  0  0  0  0  0  0  0  0  0
   58.1198   23.8242   47.4605 H   0  0  0  0  0  0  0  0  0  0  0  0
   57.8244   25.5412   46.9976 H   0  0  0  0  0  0  0  0  0  0  0  0
   57.0860   24.0980   45.6090 C   0  0  0  0  0  0  0  0  0  0  0  0
   55.7190   24.3390   45.8230 C   0  0  0  0  0  0  0  0  0  0  0  0
   55.3858   24.8119   46.7586 H   0  0  0  0  0  0  0  0  0  0  0  0
   54.7800   23.9800   44.8510 C   0  0  0  0  0  0  0  0  0  0  0  0
   53.7100   24.1656   45.0260 H   0  0  0  0  0  0  0  0  0  0  0  0
   55.1990   23.3860   43.6580 C   0  0  0  0  0  0  0  0  0  0  0  0
   54.4588   23.1016   42.8956 H   0  0  0  0  0  0  0  0  0  0  0  0
   56.5590   23.1530   43.4330 C   0  0  0  0  0  0  0  0  0  0  0  0
   56.8885   22.6884   42.4920 H   0  0  0  0  0  0  0  0  0  0  0  0
   57.5010   23.5100   44.4030 C   0  0  0  0  0  0  0  0  0  0  0  0
   58.5707   23.3296   44.2208 H   0  0  0  0  0  0  0  0  0  0  0  0
   60.3180   29.3240   46.8910 C   0  0  0  0  0  0  0  0  0  0  0  0
   60.6030   29.3126   45.8286 H   0  0  0  0  0  0  0  0  0  0  0  0
   61.1080   30.0150   47.8140 C   0  0  0  0  0  0  0  0  0  0  0  0
   62.0084   30.5476   47.4741 H   0  0  0  0  0  0  0  0  0  0  0  0
   59.7580   32.7170   49.9570 C   0  0  0  0  0  0  0  0  0  0  0  0
   59.2938   31.7202   49.9272 H   0  0  0  0  0  0  0  0  0  0  0  0
   59.2250   33.4038   50.6310 H   0  0  0  0  0  0  0  0  0  0  0  0
   59.6960   33.3270   48.5440 C   0  0  0  0  0  0  0  0  0  0  0  0
   58.7967   32.9612   48.0268 H   0  0  0  0  0  0  0  0  0  0  0  0
   59.6567   34.4235   48.6217 H   0  0  0  0  0  0  0  0  0  0  0  0
   58.8150   31.9130   45.4920 C   0  0  0  0  0  0  0  0  0  0  0  0
   59.4769   31.0344   45.4878 H   0  0  0  0  0  0  0  0  0  0  0  0
  1  2  1  0
  2  3  1  0
  3  4  2  0
  3  5  1  0
  5  6  2  0
  6  7  1  0
  6  8  1  0
  8  9  1  0
  8 10  2  0
 10 11  1  0
 10 12  1  0
 12 13  1  0
 13 14  1  0
 13 15  1  0
 13 16  1  0
 16 17  1  0
 17 18  1  0
 17 19  1  0
 17 20  1  0
 20 21  1  0
 20 22  1  0
 20 23  1  0
 23 24  1  0
 24 25  2  0
 24 26  2  0
 24 27  1  0
 27 28  2  0
 28 29  1  0
 28 30  1  0
 30 31  1  0
 30 32  2  0
 32 33  1  0
 33 34  2  0
 34 35  1  0
 35 36  1  0
 33 37  1  0
 37 38  2  0
 37 39  1  0
 39 40  1  0
 40 41  1  0
 40 42  1  0
 40 43  1  0
 43 44  1  0
 43 45  1  0
 43 46  1  0
 46 47  2  0
 47 48  1  0
 47 49  1  0
 49 50  1  0
 49 51  2  0
 51 52  1  0
 51 53  1  0
 53 54  1  0
 53 55  2  0
 55 56  1  0
 32 57  1  0
 57 58  1  0
 57 59  2  0
 59 60  1  0
 23 61  1  0
 61 62  1  0
 61 63  1  0
 61 64  1  0
 64 65  1  0
 64 66  1  0
 12 67  2  0
 67 68  1  0
 67  5  1  0
 64 16  1  0
 59 27  1  0
 55 46  1  0
M  CHG  2   2  -1  39  -1
M  END
>  <UniqueID>  (46) 
39

>  <SMILES>  (46) 
[NH-]C(=O)c1cccc(CN2CCN(S(=O)(=O)c3ccc(/C(=N/O)C(=O)[N-]CCc4ccccc4)cc3)CC2)c1

>  <Energy>  (46) 
81.0893646506998

>  <Genealogy>  (46) 
[NH-]C(=O)c1cccc(CN2CCN(S(=O)(=O)c3ccc(C(=NO)C(=O)[N-]CCc4ccccc4)cc3)CC2)c1 (protonated)
[NH-]C(=O)c1cccc(CN2CCN(S(=O)(=O)c3ccc(/C(=N/O)C(=O)[N-]CCc4ccccc4)cc3)CC2)c1 (cis-trans isomerization)
[NH-]C(=O)c1cccc(CN2CCN(S(=O)(=O)c3ccc(/C(=N/O)C(=O)[N-]CCc4ccccc4)cc3)CC2)c1 (3D coordinates assigned)
[NH-]C(=O)c1cccc(CN2CCN(S(=O)(=O)c3ccc(/C(=N/O)C(=O)[N-]CCc4ccccc4)cc3)CC2)c1 (nonaromatic ring conformer: 81.0893646506998 kcal/mol)

>  <smiles>  (46) 
NC(=O)c1cccc(CN2CCN(S(=O)(=O)c3ccc(C(=NO)C(=O)NCCc4ccccc4)cc3)CC2)c1

>  <score_type>  (46) 
oracle

>  <origin>  (46) 
adg

>  <m_score__min__energy>  (46) 
-15.4

>  <m_primary>  (46) 
energy

$$$$
47:0
     RDKit          3D

 70 74  0  0  0  0  0  0  0  0999 V2000
   57.8590   32.1460   51.1780 C   0  0  0  0  0  0  0  0  0  0  0  0
   59.1620   32.0830   51.4670 C   0  0  0  0  0  0  0  0  0  0  0  0
   60.0970   33.2130   51.1410 C   0  0  0  0  0  0  0  0  0  0  0  0
   61.1390   32.7630   50.2170 N   0  0  0  0  0  0  0  0  0  0  0  0
   62.0270   31.6790   50.4390 C   0  0  0  0  0  0  0  0  0  0  0  0
   61.9340   30.8720   51.4020 O   0  0  0  0  0  0  0  0  0  0  0  0
   63.0530   31.6480   49.4240 C   0  0  0  0  0  0  0  0  0  0  0  0
   62.8300   32.6730   48.6120 C   0  0  0  0  0  0  0  0  0  0  0  0
   63.8280   33.0290   47.2130 Cl  0  0  0  0  0  0  0  0  0  0  0  0
   61.6190   33.4870   49.0380 C   0  0  2  0  0  0  0  0  0  0  0  0
   62.0270   34.7780   49.4200 O   0  0  0  0  0  0  0  0  0  0  0  0
   60.5340   33.5110   47.9650 C   0  0  0  0  0  0  0  0  0  0  0  0
   59.3630   32.7470   48.1240 C   0  0  0  0  0  0  0  0  0  0  0  0
   58.3450   32.7930   47.1710 C   0  0  0  0  0  0  0  0  0  0  0  0
   58.4640   33.6160   46.0380 C   0  0  0  0  0  0  0  0  0  0  0  0
   57.3990   33.6380   45.0080 C   0  0  0  0  0  0  0  0  0  0  0  0
   56.5520   34.5720   44.9860 O   0  0  0  0  0  0  0  0  0  0  0  0
   57.3210   32.6030   44.0200 N   0  0  0  0  0  0  0  0  0  0  0  0
   57.1460   31.3360   44.2720 C   0  0  0  0  0  0  0  0  0  0  0  0
   58.2120   30.4840   44.6270 C   0  0  0  0  0  0  0  0  0  0  0  0
   57.9570   29.1440   44.9350 C   0  0  0  0  0  0  0  0  0  0  0  0
   59.0320   28.3170   45.2940 O   0  0  0  0  0  0  0  0  0  0  0  0
   59.6170   28.2570   46.5670 C   0  0  0  0  0  0  0  0  0  0  0  0
   59.6920   29.4280   47.3270 C   0  0  0  0  0  0  0  0  0  0  0  0
   60.2700   29.4100   48.6010 C   0  0  0  0  0  0  0  0  0  0  0  0
   60.7850   28.2180   49.1300 C   0  0  0  0  0  0  0  0  0  0  0  0
   61.3780   28.2300   50.4380 N   0  0  0  0  0  0  0  0  0  0  0  0
   61.5890   27.0490   51.2330 C   0  0  0  0  0  0  0  0  0  0  0  0
   61.0040   25.9710   50.9470 O   0  0  0  0  0  0  0  0  0  0  0  0
   62.4460   27.0830   52.3810 N   0  0  0  0  0  0  0  0  0  0  0  0
   63.8130   27.5200   52.3910 C   0  0  0  0  0  0  0  0  0  0  0  0
   64.8240   26.5730   52.5890 C   0  0  0  0  0  0  0  0  0  0  0  0
   66.1660   26.9600   52.5670 C   0  0  0  0  0  0  0  0  0  0  0  0
   66.5080   28.2950   52.3450 C   0  0  0  0  0  0  0  0  0  0  0  0
   65.5080   29.2620   52.1450 C   0  0  0  0  0  0  0  0  0  0  0  0
   65.8770   30.6940   51.8460 C   0  0  0  0  0  0  0  0  0  0  0  0
   64.8160   31.5380   52.1200 F   0  0  0  0  0  0  0  0  0  0  0  0
   66.2140   30.8430   50.5120 F   0  0  0  0  0  0  0  0  0  0  0  0
   66.9570   31.0580   52.6270 F   0  0  0  0  0  0  0  0  0  0  0  0
   64.1610   28.8580   52.1330 C   0  0  0  0  0  0  0  0  0  0  0  0
   60.6620   27.0300   48.3890 C   0  0  0  0  0  0  0  0  0  0  0  0
   60.0830   27.0490   47.1180 C   0  0  0  0  0  0  0  0  0  0  0  0
   56.6450   28.6560   44.8400 C   0  0  0  0  0  0  0  0  0  0  0  0
   55.6150   29.5250   44.4800 C   0  0  0  0  0  0  0  0  0  0  0  0
   55.8850   30.8300   44.2120 N   0  0  0  0  0  0  0  0  0  0  0  0
   59.6170   34.4050   45.8920 C   0  0  0  0  0  0  0  0  0  0  0  0
   60.6340   34.3630   46.8480 C   0  0  0  0  0  0  0  0  0  0  0  0
   57.1986   31.3028   51.4287 H   0  0  0  0  0  0  0  0  0  0  0  0
   57.4467   33.0411   50.6893 H   0  0  0  0  0  0  0  0  0  0  0  0
   59.5600   31.1815   51.9557 H   0  0  0  0  0  0  0  0  0  0  0  0
   59.5281   34.0311   50.6751 H   0  0  0  0  0  0  0  0  0  0  0  0
   60.5709   33.5631   52.0699 H   0  0  0  0  0  0  0  0  0  0  0  0
   63.8667   30.9127   49.3397 H   0  0  0  0  0  0  0  0  0  0  0  0
   62.8200   34.6800   50.0100 H   0  0  0  0  0  0  0  0  0  0  0  0
   59.2488   32.1057   49.0104 H   0  0  0  0  0  0  0  0  0  0  0  0
   57.4419   32.1801   47.3076 H   0  0  0  0  0  0  0  0  0  0  0  0
   59.2407   30.8721   44.6615 H   0  0  0  0  0  0  0  0  0  0  0  0
   59.2940   30.3696   46.9207 H   0  0  0  0  0  0  0  0  0  0  0  0
   60.3207   30.3368   49.1913 H   0  0  0  0  0  0  0  0  0  0  0  0
   61.8090   29.1250   50.7620 H   0  0  0  0  0  0  0  0  0  0  0  0
   64.5608   25.5192   52.7627 H   0  0  0  0  0  0  0  0  0  0  0  0
   66.9555   26.2106   52.7251 H   0  0  0  0  0  0  0  0  0  0  0  0
   67.5670   28.5920   52.3265 H   0  0  0  0  0  0  0  0  0  0  0  0
   63.3727   29.5950   51.9199 H   0  0  0  0  0  0  0  0  0  0  0  0
   61.0233   26.0810   48.8119 H   0  0  0  0  0  0  0  0  0  0  0  0
   59.9908   26.1147   46.5448 H   0  0  0  0  0  0  0  0  0  0  0  0
   56.4305   27.5973   45.0476 H   0  0  0  0  0  0  0  0  0  0  0  0
   54.5819   29.1534   44.4128 H   0  0  0  0  0  0  0  0  0  0  0  0
   59.7198   35.0624   45.0160 H   0  0  0  0  0  0  0  0  0  0  0  0
   61.5216   35.0014   46.7275 H   0  0  0  0  0  0  0  0  0  0  0  0
  1  2  2  0
  2  3  1  0
  3  4  1  0
  4  5  1  0
  5  6  2  0
  5  7  1  0
  7  8  2  0
  8  9  1  0
  8 10  1  0
 10 11  1  1
 10 12  1  0
 12 13  2  0
 13 14  1  0
 14 15  2  0
 15 16  1  0
 16 17  2  0
 16 18  1  0
 18 19  2  3
 19 20  1  0
 20 21  2  0
 21 22  1  0
 22 23  1  0
 23 24  2  0
 24 25  1  0
 25 26  2  0
 26 27  1  0
 27 28  1  0
 28 29  2  0
 28 30  1  0
 30 31  1  0
 31 32  2  0
 32 33  1  0
 33 34  2  0
 34 35  1  0
 35 36  1  0
 36 37  1  0
 36 38  1  0
 36 39  1  0
 35 40  2  0
 26 41  1  0
 41 42  2  0
 21 43  1  0
 43 44  2  0
 44 45  1  0
 15 46  1  0
 46 47  2  0
 10  4  1  0
 47 12  1  0
 45 19  1  0
 42 23  1  0
 40 31  1  0
  1 48  1  0
  1 49  1  0
  2 50  1  0
  3 51  1  0
  3 52  1  0
  7 53  1  0
 11 54  1  0
 13 55  1  0
 14 56  1  0
 20 57  1  0
 24 58  1  0
 25 59  1  0
 27 60  1  0
 32 61  1  0
 33 62  1  0
 34 63  1  0
 40 64  1  0
 41 65  1  0
 42 66  1  0
 43 67  1  0
 44 68  1  0
 46 69  1  0
 47 70  1  0
M  CHG  2  30  -1  45  -1
M  END
>  <UniqueID>  (47) 
40

>  <SMILES>  (47) 
C=CCN1C(=O)C=C(Cl)[C@@]1(O)c1ccc(C(=O)N=c2cc(Oc3ccc(NC(=O)[N-]c4cccc(C(F)(F)F)c4)cc3)cc[n-]2)cc1

>  <Energy>  (47) 
117.71943869576512

>  <Genealogy>  (47) 
C=CCN1C(=O)C=C(Cl)C1(O)c1ccc(C(=O)N=c2cc(Oc3ccc(NC(=O)[N-]c4cccc(C(F)(F)F)c4)cc3)cc[n-]2)cc1 (protonated)
C=CCN1C(=O)C=C(Cl)[C@@]1(O)c1ccc(C(=O)N=c2cc(Oc3ccc(NC(=O)[N-]c4cccc(C(F)(F)F)c4)cc3)cc[n-]2)cc1 (chirality)
C=CCN1C(=O)C=C(Cl)[C@@]1(O)c1ccc(C(=O)N=c2cc(Oc3ccc(NC(=O)[N-]c4cccc(C(F)(F)F)c4)cc3)cc[n-]2)cc1 (3D coordinates assigned)
C=CCN1C(=O)C=C(Cl)[C@@]1(O)c1ccc(C(=O)N=c2cc(Oc3ccc(NC(=O)[N-]c4cccc(C(F)(F)F)c4)cc3)cc[n-]2)cc1 (nonaromatic ring conformer: 117.71943869576512 kcal/mol)

>  <smiles>  (47) 
C=CCN1C(=O)C=C(Cl)C1(O)c1ccc(C(=O)N=c2cc(Oc3ccc(NC(=O)Nc4cccc(C(F)(F)F)c4)cc3)cc[nH]2)cc1

>  <score_type>  (47) 
oracle

>  <origin>  (47) 
adg

>  <m_score__min__energy>  (47) 
-11.109999999999999

>  <m_primary>  (47) 
energy

$$$$
48:0
     RDKit          3D

 39 40  0  0  0  0  0  0  0  0999 V2000
   60.1820   29.9340   49.3150 C   0  0  0  0  0  0  0  0  0  0  0  0
   60.7030   30.0670   47.9240 C   0  0  0  0  0  0  0  0  0  0  0  0
   61.5750   30.9400   47.6670 O   0  0  0  0  0  0  0  0  0  0  0  0
   60.1630   29.2380   46.8880 N   0  0  0  0  0  0  0  0  0  0  0  0
   60.6240   29.2120   45.6750 C   0  0  0  0  0  0  0  0  0  0  0  0
   60.0660   28.2310   44.6910 C   0  0  0  0  0  0  0  0  0  0  0  0
   58.6670   27.8200   45.0790 C   0  0  0  0  0  0  0  0  0  0  0  0
   58.4780   26.6280   45.7980 C   0  0  0  0  0  0  0  0  0  0  0  0
   57.2030   26.2480   46.2180 C   0  0  0  0  0  0  0  0  0  0  0  0
   56.0990   27.0490   45.9190 C   0  0  0  0  0  0  0  0  0  0  0  0
   54.8310   26.6540   46.3300 O   0  0  0  0  0  0  0  0  0  0  0  0
   56.2690   28.2390   45.2030 C   0  0  0  0  0  0  0  0  0  0  0  0
   55.1520   28.9990   44.8720 O   0  0  0  0  0  0  0  0  0  0  0  0
   57.5560   28.6440   44.7980 C   0  0  0  0  0  0  0  0  0  0  0  0
   57.7420   29.8370   44.0860 O   0  0  0  0  0  0  0  0  0  0  0  0
   56.9130   30.9860   44.2470 C   0  0  0  0  0  0  0  0  0  0  0  0
   57.6130   32.0100   45.0980 C   0  0  0  0  0  0  0  0  0  0  0  0
   57.8280   33.3060   44.6090 C   0  0  0  0  0  0  0  0  0  0  0  0
   58.4950   34.2540   45.3910 C   0  0  0  0  0  0  0  0  0  0  0  0
   58.9670   33.9150   46.6680 C   0  0  0  0  0  0  0  0  0  0  0  0
   59.6640   34.9300   47.4780 C   0  0  0  0  0  0  0  0  0  0  0  0
   59.6440   34.8810   48.7370 O   0  0  0  0  0  0  0  0  0  0  0  0
   58.7760   32.6070   47.1460 C   0  0  0  0  0  0  0  0  0  0  0  0
   58.1070   31.6600   46.3640 C   0  0  0  0  0  0  0  0  0  0  0  0
   60.9912   30.1406   50.0309 H   0  0  0  0  0  0  0  0  0  0  0  0
   59.3631   30.6519   49.4700 H   0  0  0  0  0  0  0  0  0  0  0  0
   59.8074   28.9114   49.4700 H   0  0  0  0  0  0  0  0  0  0  0  0
   61.4206   29.9071   45.3714 H   0  0  0  0  0  0  0  0  0  0  0  0
   60.0422   28.6944   43.6937 H   0  0  0  0  0  0  0  0  0  0  0  0
   60.7067   27.3369   44.6825 H   0  0  0  0  0  0  0  0  0  0  0  0
   59.3423   25.9890   46.0318 H   0  0  0  0  0  0  0  0  0  0  0  0
   57.0672   25.3157   46.7857 H   0  0  0  0  0  0  0  0  0  0  0  0
   56.6958   31.4198   43.2597 H   0  0  0  0  0  0  0  0  0  0  0  0
   55.9748   30.6885   44.7382 H   0  0  0  0  0  0  0  0  0  0  0  0
   57.4702   33.5786   43.6051 H   0  0  0  0  0  0  0  0  0  0  0  0
   58.6506   35.2714   45.0028 H   0  0  0  0  0  0  0  0  0  0  0  0
   60.2098   35.7425   46.9760 H   0  0  0  0  0  0  0  0  0  0  0  0
   59.1546   32.3269   48.1401 H   0  0  0  0  0  0  0  0  0  0  0  0
   57.9675   30.6367   46.7428 H   0  0  0  0  0  0  0  0  0  0  0  0
  1  2  1  0
  2  3  2  0
  2  4  1  0
  4  5  2  3
  5  6  1  0
  6  7  1  0
  7  8  2  0
  8  9  1  0
  9 10  2  0
 10 11  1  0
 10 12  1  0
 12 13  1  0
 12 14  2  0
 14 15  1  0
 15 16  1  0
 16 17  1  0
 17 18  2  0
 18 19  1  0
 19 20  2  0
 20 21  1  0
 21 22  2  0
 20 23  1  0
 23 24  2  0
 14  7  1  0
 24 17  1  0
  1 25  1  0
  1 26  1  0
  1 27  1  0
  5 28  1  0
  6 29  1  0
  6 30  1  0
  8 31  1  0
  9 32  1  0
 16 33  1  0
 16 34  1  0
 18 35  1  0
 19 36  1  0
 21 37  1  0
 23 38  1  0
 24 39  1  0
M  CHG  2  11  -1  13  -1
M  END
>  <UniqueID>  (48) 
41

>  <SMILES>  (48) 
CC(=O)N=CCc1ccc([O-])c([O-])c1OCc1ccc(C=O)cc1

>  <Energy>  (48) 
36.92032185065797

>  <Genealogy>  (48) 
CC(=O)N=CCc1ccc([O-])c([O-])c1OCc1ccc(C=O)cc1 (protonated)
CC(=O)N=CCc1ccc([O-])c([O-])c1OCc1ccc(C=O)cc1 (3D coordinates assigned)
CC(=O)N=CCc1ccc([O-])c([O-])c1OCc1ccc(C=O)cc1 (optimized conformer: 36.92032185065797 kcal/mol)

>  <smiles>  (48) 
CC(=O)N=CCc1ccc(O)c(O)c1OCc1ccc(C=O)cc1

>  <score_type>  (48) 
oracle

>  <origin>  (48) 
adg

>  <m_score__min__energy>  (48) 
-14.220000000000001

>  <m_primary>  (48) 
energy

$$$$
49:0
     RDKit          3D

 34 35  0  0  0  0  0  0  0  0999 V2000
   55.8950   29.3200   42.5200 O   0  0  0  0  0  0  0  0  0  0  0  0
   56.2490   29.8960   43.5840 C   0  0  0  0  0  0  0  0  0  0  0  0
   56.0040   29.2800   44.8540 N   0  0  0  0  0  0  0  0  0  0  0  0
   56.8980   28.3030   45.4630 C   0  0  0  0  0  0  0  0  0  0  0  0
   58.1440   28.9780   45.9680 C   0  0  0  0  0  0  0  0  0  0  0  0
   58.2510   29.3680   47.3140 C   0  0  0  0  0  0  0  0  0  0  0  0
   59.4200   29.9760   47.7800 C   0  0  0  0  0  0  0  0  0  0  0  0
   60.4910   30.1980   46.9090 C   0  0  0  0  0  0  0  0  0  0  0  0
   61.9580   30.9600   47.4960 Cl  0  0  0  0  0  0  0  0  0  0  0  0
   60.3930   29.8070   45.5690 C   0  0  0  0  0  0  0  0  0  0  0  0
   59.2250   29.1990   45.1010 C   0  0  0  0  0  0  0  0  0  0  0  0
   56.9130   31.2070   43.5280 C   0  0  0  0  0  0  0  0  0  0  0  0
   57.2760   31.6690   42.4110 O   0  0  0  0  0  0  0  0  0  0  0  0
   57.1450   31.9620   44.7280 N   0  0  0  0  0  0  0  0  0  0  0  0
   57.8420   33.2470   44.7210 C   0  0  0  0  0  0  0  0  0  0  0  0
   58.4790   33.5020   46.0590 C   0  0  0  0  0  0  0  0  0  0  0  0
   59.6000   34.3360   46.1770 C   0  0  0  0  0  0  0  0  0  0  0  0
   60.1870   34.5420   47.4270 C   0  0  0  0  0  0  0  0  0  0  0  0
   59.6490   33.9080   48.5490 C   0  0  0  0  0  0  0  0  0  0  0  0
   58.5660   33.0980   48.4190 N   0  0  0  0  0  0  0  0  0  0  0  0
   57.9750   32.8820   47.2130 C   0  0  0  0  0  0  0  0  0  0  0  0
   56.3834   27.8152   46.3040 H   0  0  0  0  0  0  0  0  0  0  0  0
   57.1781   27.5547   44.7070 H   0  0  0  0  0  0  0  0  0  0  0  0
   57.4116   29.1941   48.0033 H   0  0  0  0  0  0  0  0  0  0  0  0
   59.4976   30.2805   48.8342 H   0  0  0  0  0  0  0  0  0  0  0  0
   61.2360   29.9784   44.8835 H   0  0  0  0  0  0  0  0  0  0  0  0
   59.1526   28.8920   44.0472 H   0  0  0  0  0  0  0  0  0  0  0  0
   56.8030   31.5930   45.6430 H   0  0  0  0  0  0  0  0  0  0  0  0
   58.6213   33.2330   43.9448 H   0  0  0  0  0  0  0  0  0  0  0  0
   57.1163   34.0467   44.5118 H   0  0  0  0  0  0  0  0  0  0  0  0
   60.0166   34.8276   45.2855 H   0  0  0  0  0  0  0  0  0  0  0  0
   61.0648   35.1974   47.5271 H   0  0  0  0  0  0  0  0  0  0  0  0
   60.1025   34.0646   49.5389 H   0  0  0  0  0  0  0  0  0  0  0  0
   57.0997   32.2196   47.1419 H   0  0  0  0  0  0  0  0  0  0  0  0
  1  2  2  0
  2  3  1  0
  3  4  1  0
  4  5  1  0
  5  6  2  0
  6  7  1  0
  7  8  2  0
  8  9  1  0
  8 10  1  0
 10 11  2  0
  2 12  1  0
 12 13  2  0
 12 14  1  0
 14 15  1  0
 15 16  1  0
 16 17  2  0
 17 18  1  0
 18 19  2  0
 19 20  1  0
 20 21  2  0
 11  5  1  0
 21 16  1  0
  4 22  1  0
  4 23  1  0
  6 24  1  0
  7 25  1  0
 10 26  1  0
 11 27  1  0
 14 28  1  0
 15 29  1  0
 15 30  1  0
 17 31  1  0
 18 32  1  0
 19 33  1  0
 21 34  1  0
M  CHG  1   3  -1
M  END
>  <UniqueID>  (49) 
42

>  <SMILES>  (49) 
O=C([N-]Cc1ccc(Cl)cc1)C(=O)NCc1cccnc1

>  <Energy>  (49) 
29.240894714683993

>  <Genealogy>  (49) 
O=C([N-]Cc1ccc(Cl)cc1)C(=O)NCc1cccnc1 (protonated)
O=C([N-]Cc1ccc(Cl)cc1)C(=O)NCc1cccnc1 (3D coordinates assigned)
O=C([N-]Cc1ccc(Cl)cc1)C(=O)NCc1cccnc1 (optimized conformer: 29.240894714683993 kcal/mol)

>  <smiles>  (49) 
O=C(NCc1ccc(Cl)cc1)C(=O)NCc1cccnc1

>  <score_type>  (49) 
oracle

>  <origin>  (49) 
adg

>  <m_score__min__energy>  (49) 
-9.1999999999999993

>  <m_primary>  (49) 
energy

$$$$
50:0
     RDKit          3D

 49 51  0  0  0  0  0  0  0  0999 V2000
   57.8110   31.8720   45.9740 C   0  0  0  0  0  0  0  0  0  0  0  0
   57.5510   31.4990   44.7170 C   0  0  0  0  0  0  0  0  0  0  0  0
   57.9040   32.2610   43.6610 N   0  0  0  0  0  0  0  0  0  0  0  0
   57.3710   31.6930   42.5650 C   0  0  0  0  0  0  0  0  0  0  0  0
   57.4540   32.2860   41.1970 C   0  0  0  0  0  0  0  0  0  0  0  0
   56.6600   30.5610   42.9040 C   0  0  0  0  0  0  0  0  0  0  0  0
   56.8000   30.3980   44.2730 C   0  0  0  0  0  0  0  0  0  0  0  0
   56.2770   29.3550   44.9450 C   0  0  0  0  0  0  0  0  0  0  0  0
   56.9990   28.1320   45.3240 C   0  0  0  0  0  0  0  0  0  0  0  0
   58.3420   28.0670   45.4020 N   0  0  0  0  0  0  0  0  0  0  0  0
   58.6290   26.8360   45.8810 C   0  0  0  0  0  0  0  0  0  0  0  0
   60.0330   26.3720   46.1070 C   0  0  0  0  0  0  0  0  0  0  0  0
   57.4640   26.1190   46.1460 C   0  0  0  0  0  0  0  0  0  0  0  0
   57.3250   24.7610   46.7100 C   0  0  0  0  0  0  0  0  0  0  0  0
   58.2210   23.9070   46.4750 O   0  0  0  0  0  0  0  0  0  0  0  0
   56.1940   24.4410   47.5370 N   0  0  0  0  0  0  0  0  0  0  0  0
   55.1250   23.7540   47.2410 C   0  0  0  0  0  0  0  0  0  0  0  0
   54.6790   23.4090   45.8410 C   0  0  0  0  0  0  0  0  0  0  0  0
   55.8020   22.9230   45.0040 N   0  0  0  0  0  0  0  0  0  0  0  0
   55.8780   21.4490   45.0660 C   0  0  0  0  0  0  0  0  0  0  0  0
   57.0380   20.9170   44.1930 C   0  0  0  0  0  0  0  0  0  0  0  0
   57.6060   21.9220   43.3730 O   0  0  0  0  0  0  0  0  0  0  0  0
   56.5870   22.5800   42.6500 C   0  0  0  0  0  0  0  0  0  0  0  0
   55.6590   23.3690   43.5970 C   0  0  0  0  0  0  0  0  0  0  0  0
   56.4350   26.9670   45.8000 C   0  0  0  0  0  0  0  0  0  0  0  0
   55.0740   26.7130   45.9370 O   0  0  0  0  0  0  0  0  0  0  0  0
   57.5095   31.2271   46.8126 H   0  0  0  0  0  0  0  0  0  0  0  0
   58.3264   32.8238   46.1698 H   0  0  0  0  0  0  0  0  0  0  0  0
   58.4400   33.1570   43.6870 H   0  0  0  0  0  0  0  0  0  0  0  0
   57.6061   33.3725   41.2770 H   0  0  0  0  0  0  0  0  0  0  0  0
   58.2980   31.8367   40.6532 H   0  0  0  0  0  0  0  0  0  0  0  0
   56.5191   32.0857   40.6532 H   0  0  0  0  0  0  0  0  0  0  0  0
   56.0919   29.9131   42.2203 H   0  0  0  0  0  0  0  0  0  0  0  0
   55.2183   29.4241   45.2354 H   0  0  0  0  0  0  0  0  0  0  0  0
   60.2284   26.3074   47.1876 H   0  0  0  0  0  0  0  0  0  0  0  0
   60.1697   25.3809   45.6498 H   0  0  0  0  0  0  0  0  0  0  0  0
   60.7334   27.0865   45.6498 H   0  0  0  0  0  0  0  0  0  0  0  0
   54.5016   23.3994   48.0750 H   0  0  0  0  0  0  0  0  0  0  0  0
   53.9114   22.6230   45.8964 H   0  0  0  0  0  0  0  0  0  0  0  0
   54.2801   24.3229   45.3767 H   0  0  0  0  0  0  0  0  0  0  0  0
   56.7010   23.3070   45.3820 H   0  0  0  0  0  0  0  0  0  0  0  0
   56.0421   21.1408   46.1091 H   0  0  0  0  0  0  0  0  0  0  0  0
   54.9335   21.0330   44.6854 H   0  0  0  0  0  0  0  0  0  0  0  0
   57.8212   20.5165   44.8534 H   0  0  0  0  0  0  0  0  0  0  0  0
   56.6285   20.1389   43.5320 H   0  0  0  0  0  0  0  0  0  0  0  0
   57.0466   23.2768   41.9336 H   0  0  0  0  0  0  0  0  0  0  0  0
   55.9878   21.8239   42.1215 H   0  0  0  0  0  0  0  0  0  0  0  0
   55.9117   24.4378   43.5346 H   0  0  0  0  0  0  0  0  0  0  0  0
   54.6194   23.1903   43.2851 H   0  0  0  0  0  0  0  0  0  0  0  0
  1  2  2  0
  2  3  1  0
  3  4  1  0
  4  5  1  0
  4  6  2  0
  6  7  1  0
  7  8  2  3
  8  9  1  0
  9 10  1  0
 10 11  1  0
 11 12  1  0
 11 13  2  0
 13 14  1  0
 14 15  2  0
 14 16  1  0
 16 17  2  3
 17 18  1  0
 18 19  1  0
 19 20  1  0
 20 21  1  0
 21 22  1  0
 22 23  1  0
 23 24  1  0
 13 25  1  0
 25 26  1  0
  7  2  1  0
 25  9  2  0
 24 19  1  0
  1 27  1  0
  1 28  1  0
  3 29  1  0
  5 30  1  0
  5 31  1  0
  5 32  1  0
  6 33  1  0
  8 34  1  0
 12 35  1  0
 12 36  1  0
 12 37  1  0
 17 38  1  0
 18 39  1  0
 18 40  1  0
 19 41  1  0
 20 42  1  0
 20 43  1  0
 21 44  1  0
 21 45  1  0
 23 46  1  0
 23 47  1  0
 24 48  1  0
 24 49  1  0
M  CHG  3  10  -1  19   1  26  -1
M  END
>  <UniqueID>  (50) 
43

>  <SMILES>  (50) 
C=c1[nH]c(C)cc1=Cc1[n-]c(C)c(C(=O)N=CC[NH+]2CCOCC2)c1[O-]

>  <Energy>  (50) 
126.45221457209772

>  <Genealogy>  (50) 
C=c1[nH]c(C)cc1=Cc1[n-]c(C)c(C(=O)N=CC[NH+]2CCOCC2)c1[O-] (protonated)
C=c1[nH]c(C)cc1=Cc1[n-]c(C)c(C(=O)N=CC[NH+]2CCOCC2)c1[O-] (3D coordinates assigned)
C=c1[nH]c(C)cc1=Cc1[n-]c(C)c(C(=O)N=CC[NH+]2CCOCC2)c1[O-] (nonaromatic ring conformer: 126.45221457209772 kcal/mol)

>  <smiles>  (50) 
C=c1[nH]c(C)cc1=Cc1[nH]c(C)c(C(=O)N=CCN2CCOCC2)c1O

>  <score_type>  (50) 
oracle

>  <origin>  (50) 
adg

>  <m_score__min__energy>  (50) 
-11.42

>  <m_primary>  (50) 
energy

$$$$
51:0
     RDKit          3D

 51 54  0  0  0  0  0  0  0  0999 V2000
   55.9400   27.4320   45.5760 O   0  0  0  0  0  0  0  0  0  0  0  0
   56.8650   28.2750   45.7220 C   0  0  0  0  0  0  0  0  0  0  0  0
   56.5590   29.6660   45.5540 N   0  0  0  0  0  0  0  0  0  0  0  0
   57.0250   30.5150   44.4930 C   0  0  0  0  0  0  0  0  0  0  0  0
   56.4880   30.4160   43.1970 C   0  0  0  0  0  0  0  0  0  0  0  0
   56.9650   31.2320   42.1690 C   0  0  0  0  0  0  0  0  0  0  0  0
   57.9730   32.1610   42.4260 C   0  0  0  0  0  0  0  0  0  0  0  0
   58.4990   32.2860   43.7130 C   0  0  0  0  0  0  0  0  0  0  0  0
   58.0230   31.4770   44.7580 C   0  0  0  0  0  0  0  0  0  0  0  0
   58.5810   31.6180   46.0760 N   0  0  0  0  0  0  0  0  0  0  0  0
   59.9390   31.1370   46.3620 C   0  0  0  0  0  0  0  0  0  0  0  0
   59.9800   30.4450   47.7310 C   0  0  0  0  0  0  0  0  0  0  0  0
   59.2400   31.2100   48.7500 N   0  0  0  0  0  0  0  0  0  0  0  0
   58.9390   30.5930   50.0160 C   0  0  0  0  0  0  0  0  0  0  0  0
   57.7720   30.6780   50.4860 O   0  0  0  0  0  0  0  0  0  0  0  0
   59.9670   29.8440   50.7690 C   0  0  0  0  0  0  0  0  0  0  0  0
   60.5600   30.4010   51.9170 C   0  0  0  0  0  0  0  0  0  0  0  0
   61.5190   29.6790   52.6360 C   0  0  0  0  0  0  0  0  0  0  0  0
   61.8860   28.3960   52.2230 C   0  0  0  0  0  0  0  0  0  0  0  0
   61.2920   27.8290   51.0930 C   0  0  0  0  0  0  0  0  0  0  0  0
   60.3320   28.5460   50.3700 C   0  0  0  0  0  0  0  0  0  0  0  0
   58.6210   32.4920   48.3930 C   0  0  0  0  0  0  0  0  0  0  0  0
   57.8090   32.3300   47.1070 C   0  0  0  0  0  0  0  0  0  0  0  0
   58.2170   27.8080   46.1010 C   0  0  0  0  0  0  0  0  0  0  0  0
   58.4090   27.1540   47.3310 C   0  0  0  0  0  0  0  0  0  0  0  0
   59.6780   26.7000   47.7010 C   0  0  0  0  0  0  0  0  0  0  0  0
   60.7690   26.9030   46.8540 C   0  0  0  0  0  0  0  0  0  0  0  0
   60.5950   27.5680   45.6370 C   0  0  0  0  0  0  0  0  0  0  0  0
   59.3280   28.0250   45.2590 C   0  0  0  0  0  0  0  0  0  0  0  0
   59.1980   28.7090   44.0950 F   0  0  0  0  0  0  0  0  0  0  0  0
   55.6868   29.6908   42.9916 H   0  0  0  0  0  0  0  0  0  0  0  0
   56.5455   31.1420   41.1561 H   0  0  0  0  0  0  0  0  0  0  0  0
   58.3542   32.7964   41.6130 H   0  0  0  0  0  0  0  0  0  0  0  0
   59.2915   33.0229   43.9101 H   0  0  0  0  0  0  0  0  0  0  0  0
   60.2420   30.4209   45.5839 H   0  0  0  0  0  0  0  0  0  0  0  0
   60.6280   31.9944   46.3730 H   0  0  0  0  0  0  0  0  0  0  0  0
   59.5300   29.4455   47.6390 H   0  0  0  0  0  0  0  0  0  0  0  0
   61.0307   30.3761   48.0494 H   0  0  0  0  0  0  0  0  0  0  0  0
   60.2686   31.4079   52.2505 H   0  0  0  0  0  0  0  0  0  0  0  0
   61.9849   30.1226   53.5283 H   0  0  0  0  0  0  0  0  0  0  0  0
   62.6430   27.8320   52.7878 H   0  0  0  0  0  0  0  0  0  0  0  0
   61.5793   26.8172   50.7709 H   0  0  0  0  0  0  0  0  0  0  0  0
   59.8609   28.0922   49.4857 H   0  0  0  0  0  0  0  0  0  0  0  0
   57.9563   32.8167   49.2071 H   0  0  0  0  0  0  0  0  0  0  0  0
   59.4068   33.2456   48.2360 H   0  0  0  0  0  0  0  0  0  0  0  0
   56.8953   31.7592   47.3291 H   0  0  0  0  0  0  0  0  0  0  0  0
   57.5581   33.3306   46.7252 H   0  0  0  0  0  0  0  0  0  0  0  0
   57.5548   26.9987   48.0064 H   0  0  0  0  0  0  0  0  0  0  0  0
   59.8174   26.1818   48.6613 H   0  0  0  0  0  0  0  0  0  0  0  0
   61.7658   26.5395   47.1444 H   0  0  0  0  0  0  0  0  0  0  0  0
   61.4573   27.7326   44.9742 H   0  0  0  0  0  0  0  0  0  0  0  0
  1  2  2  0
  2  3  1  0
  3  4  1  0
  4  5  2  0
  5  6  1  0
  6  7  2  0
  7  8  1  0
  8  9  2  0
  9 10  1  0
 10 11  1  0
 11 12  1  0
 12 13  1  0
 13 14  1  0
 14 15  2  0
 14 16  1  0
 16 17  2  0
 17 18  1  0
 18 19  2  0
 19 20  1  0
 20 21  2  0
 13 22  1  0
 22 23  1  0
  2 24  1  0
 24 25  2  0
 25 26  1  0
 26 27  2  0
 27 28  1  0
 28 29  2  0
 29 30  1  0
  9  4  1  0
 23 10  1  0
 29 24  1  0
 21 16  1  0
  5 31  1  0
  6 32  1  0
  7 33  1  0
  8 34  1  0
 11 35  1  0
 11 36  1  0
 12 37  1  0
 12 38  1  0
 17 39  1  0
 18 40  1  0
 19 41  1  0
 20 42  1  0
 21 43  1  0
 22 44  1  0
 22 45  1  0
 23 46  1  0
 23 47  1  0
 25 48  1  0
 26 49  1  0
 27 50  1  0
 28 51  1  0
M  CHG  1   3  -1
M  END
>  <UniqueID>  (51) 
44

>  <SMILES>  (51) 
O=C([N-]c1ccccc1N1CCN(C(=O)c2ccccc2)CC1)c1ccccc1F

>  <Energy>  (51) 
73.53535731764819

>  <Genealogy>  (51) 
O=C([N-]c1ccccc1N1CCN(C(=O)c2ccccc2)CC1)c1ccccc1F (protonated)
O=C([N-]c1ccccc1N1CCN(C(=O)c2ccccc2)CC1)c1ccccc1F (3D coordinates assigned)
O=C([N-]c1ccccc1N1CCN(C(=O)c2ccccc2)CC1)c1ccccc1F (nonaromatic ring conformer: 73.53535731764819 kcal/mol)

>  <smiles>  (51) 
O=C(Nc1ccccc1N1CCN(C(=O)c2ccccc2)CC1)c1ccccc1F

>  <score_type>  (51) 
oracle

>  <origin>  (51) 
adg

>  <m_score__min__energy>  (51) 
-10.130000000000001

>  <m_primary>  (51) 
energy

$$$$
52:0
     RDKit          3D

 30 31  0  0  0  0  0  0  0  0999 V2000
   55.8600   30.3840   44.8700 N   0  0  0  0  0  0  0  0  0  0  0  0
   57.0850   31.1110   44.8970 C   0  0  0  0  0  0  0  0  0  0  0  0
   57.0850   32.3290   45.2190 O   0  0  0  0  0  0  0  0  0  0  0  0
   58.3730   30.4170   44.5880 C   0  0  0  0  0  0  0  0  0  0  0  0
   58.1900   28.9270   44.6680 C   0  0  0  0  0  0  0  0  0  0  0  0
   58.3440   28.2600   45.8920 C   0  0  0  0  0  0  0  0  0  0  0  0
   58.2050   26.8700   45.9610 C   0  0  0  0  0  0  0  0  0  0  0  0
   57.9070   26.1260   44.8080 C   0  0  0  0  0  0  0  0  0  0  0  0
   57.7700   24.6250   44.8780 C   0  0  0  0  0  0  0  0  0  0  0  0
   56.3140   24.2030   44.9350 C   0  0  0  0  0  0  0  0  0  0  0  0
   55.7530   23.3260   43.9770 C   0  0  0  0  0  0  0  0  0  0  0  0
   56.4900   22.8160   42.9080 O   0  0  0  0  0  0  0  0  0  0  0  0
   54.4480   22.9590   44.0860 N   0  0  0  0  0  0  0  0  0  0  0  0
   53.6670   23.4100   45.0980 C   0  0  0  0  0  0  0  0  0  0  0  0
   52.4640   23.0510   45.1700 O   0  0  0  0  0  0  0  0  0  0  0  0
   54.1820   24.2460   46.0320 N   0  0  0  0  0  0  0  0  0  0  0  0
   55.4760   24.6490   45.9780 C   0  0  0  0  0  0  0  0  0  0  0  0
   55.9120   25.4240   46.8710 O   0  0  0  0  0  0  0  0  0  0  0  0
   57.7810   26.7940   43.5780 C   0  0  0  0  0  0  0  0  0  0  0  0
   57.9210   28.1820   43.5090 C   0  0  0  0  0  0  0  0  0  0  0  0
   55.6250   29.7010   45.6240 H   0  0  0  0  0  0  0  0  0  0  0  0
   58.6986   30.6895   43.5732 H   0  0  0  0  0  0  0  0  0  0  0  0
   59.1329   30.7259   45.3209 H   0  0  0  0  0  0  0  0  0  0  0  0
   58.5752   28.8328   46.8022 H   0  0  0  0  0  0  0  0  0  0  0  0
   58.3300   26.3559   46.9254 H   0  0  0  0  0  0  0  0  0  0  0  0
   58.2363   24.1813   43.9860 H   0  0  0  0  0  0  0  0  0  0  0  0
   58.2675   24.2748   45.7944 H   0  0  0  0  0  0  0  0  0  0  0  0
   56.5600   23.2710   42.0090 H   0  0  0  0  0  0  0  0  0  0  0  0
   57.5707   26.2199   42.6635 H   0  0  0  0  0  0  0  0  0  0  0  0
   57.8199   28.6943   42.5409 H   0  0  0  0  0  0  0  0  0  0  0  0
  1  2  1  0
  2  3  2  0
  2  4  1  0
  4  5  1  0
  5  6  2  0
  6  7  1  0
  7  8  2  0
  8  9  1  0
  9 10  1  0
 10 11  2  0
 11 12  1  0
 11 13  1  0
 13 14  1  0
 14 15  2  0
 14 16  1  0
 16 17  1  0
 17 18  2  0
  8 19  1  0
 19 20  2  0
 20  5  1  0
 17 10  1  0
  1 21  1  0
  4 22  1  0
  4 23  1  0
  6 24  1  0
  7 25  1  0
  9 26  1  0
  9 27  1  0
 12 28  1  0
 19 29  1  0
 20 30  1  0
M  CHG  3   1  -1  13  -1  16  -1
M  END
>  <UniqueID>  (52) 
45

>  <SMILES>  (52) 
[NH-]C(=O)Cc1ccc(Cc2c(O)[n-]c(=O)[n-]c2=O)cc1

>  <Energy>  (52) 
31.46470120220935

>  <Genealogy>  (52) 
[NH-]C(=O)Cc1ccc(Cc2c(O)[n-]c(=O)[n-]c2=O)cc1 (protonated)
[NH-]C(=O)Cc1ccc(Cc2c(O)[n-]c(=O)[n-]c2=O)cc1 (3D coordinates assigned)
[NH-]C(=O)Cc1ccc(Cc2c(O)[n-]c(=O)[n-]c2=O)cc1 (optimized conformer: 31.46470120220935 kcal/mol)

>  <smiles>  (52) 
NC(=O)Cc1ccc(Cc2c(O)[nH]c(=O)[nH]c2=O)cc1

>  <score_type>  (52) 
oracle

>  <origin>  (52) 
adg

>  <m_score__min__energy>  (52) 
-13.300000000000001

>  <m_primary>  (52) 
energy

$$$$
53:0
     RDKit          3D

 36 38  0  0  0  0  0  0  0  0999 V2000
   66.1050   29.5320   51.6310 C   0  0  0  0  0  0  0  0  0  0  0  0
   65.2730   30.6720   51.8200 O   0  0  0  0  0  0  0  0  0  0  0  0
   64.5180   31.2810   50.8050 C   0  0  0  0  0  0  0  0  0  0  0  0
   63.2140   30.8600   50.4860 C   0  0  0  0  0  0  0  0  0  0  0  0
   62.4960   31.4920   49.4680 C   0  0  0  0  0  0  0  0  0  0  0  0
   63.0650   32.5510   48.7410 C   0  0  0  0  0  0  0  0  0  0  0  0
   62.2930   33.2190   47.6660 C   0  0  0  0  0  0  0  0  0  0  0  0
   62.9010   33.6790   46.6590 O   0  0  0  0  0  0  0  0  0  0  0  0
   60.8700   33.3920   47.7780 N   0  0  0  0  0  0  0  0  0  0  0  0
   60.0050   33.6390   46.6550 C   0  0  0  0  0  0  0  0  0  0  0  0
   59.8820   34.9420   46.1570 C   0  0  0  0  0  0  0  0  0  0  0  0
   59.0340   35.2090   45.0820 C   0  0  0  0  0  0  0  0  0  0  0  0
   58.2910   34.1810   44.4990 C   0  0  0  0  0  0  0  0  0  0  0  0
   58.3840   32.8650   44.9920 C   0  0  0  0  0  0  0  0  0  0  0  0
   57.5880   31.7570   44.3990 C   0  0  0  0  0  0  0  0  0  0  0  0
   57.7100   31.3140   43.0760 C   0  0  0  0  0  0  0  0  0  0  0  0
   56.6350   30.0410   42.8370 S   0  0  0  0  0  0  0  0  0  0  0  0
   56.0680   30.1070   44.4110 C   0  0  0  0  0  0  0  0  0  0  0  0
   55.1820   29.3460   44.8810 O   0  0  0  0  0  0  0  0  0  0  0  0
   56.6680   31.0710   45.1360 N   0  0  0  0  0  0  0  0  0  0  0  0
   59.2390   32.6090   46.0810 C   0  0  0  0  0  0  0  0  0  0  0  0
   64.3640   32.9770   49.0690 C   0  0  0  0  0  0  0  0  0  0  0  0
   65.0860   32.3460   50.0890 C   0  0  0  0  0  0  0  0  0  0  0  0
   66.8510   32.9610   50.4990 Br  0  0  0  0  0  0  0  0  0  0  0  0
   66.4004   29.1273   52.6102 H   0  0  0  0  0  0  0  0  0  0  0  0
   65.5532   28.7646   51.0684 H   0  0  0  0  0  0  0  0  0  0  0  0
   67.0042   29.8235   51.0684 H   0  0  0  0  0  0  0  0  0  0  0  0
   62.7570   30.0279   51.0417 H   0  0  0  0  0  0  0  0  0  0  0  0
   61.4748   31.1572   49.2332 H   0  0  0  0  0  0  0  0  0  0  0  0
   60.4580   33.4580   48.7350 H   0  0  0  0  0  0  0  0  0  0  0  0
   60.4572   35.7595   46.6160 H   0  0  0  0  0  0  0  0  0  0  0  0
   58.9504   36.2341   44.6920 H   0  0  0  0  0  0  0  0  0  0  0  0
   57.6284   34.4003   43.6488 H   0  0  0  0  0  0  0  0  0  0  0  0
   58.3934   31.7283   42.3202 H   0  0  0  0  0  0  0  0  0  0  0  0
   59.3087   31.5895   46.4882 H   0  0  0  0  0  0  0  0  0  0  0  0
   64.8176   33.8145   48.5187 H   0  0  0  0  0  0  0  0  0  0  0  0
  1  2  1  0
  2  3  1  0
  3  4  2  0
  4  5  1  0
  5  6  2  0
  6  7  1  0
  7  8  2  0
  7  9  1  0
  9 10  1  0
 10 11  2  0
 11 12  1  0
 12 13  2  0
 13 14  1  0
 14 15  1  0
 15 16  2  0
 16 17  1  0
 17 18  1  0
 18 19  2  0
 18 20  1  0
 14 21  2  0
  6 22  1  0
 22 23  2  0
 23 24  1  0
 23  3  1  0
 21 10  1  0
 20 15  1  0
  1 25  1  0
  1 26  1  0
  1 27  1  0
  4 28  1  0
  5 29  1  0
  9 30  1  0
 11 31  1  0
 12 32  1  0
 13 33  1  0
 16 34  1  0
 21 35  1  0
 22 36  1  0
M  CHG  1  20  -1
M  END
>  <UniqueID>  (53) 
46

>  <SMILES>  (53) 
COc1ccc(C(=O)Nc2cccc(-c3csc(=O)[n-]3)c2)cc1Br

>  <Energy>  (53) 
76.80624731767386

>  <Genealogy>  (53) 
COc1ccc(C(=O)Nc2cccc(-c3csc(=O)[n-]3)c2)cc1Br (protonated)
COc1ccc(C(=O)Nc2cccc(-c3csc(=O)[n-]3)c2)cc1Br (3D coordinates assigned)
COc1ccc(C(=O)Nc2cccc(-c3csc(=O)[n-]3)c2)cc1Br (optimized conformer: 76.80624731767386 kcal/mol)

>  <smiles>  (53) 
COc1ccc(C(=O)Nc2cccc(-c3csc(=O)[nH]3)c2)cc1Br

>  <score_type>  (53) 
oracle

>  <origin>  (53) 
adg

>  <m_score__min__energy>  (53) 
-10.210000000000001

>  <m_primary>  (53) 
energy

$$$$
54:0
     RDKit          3D

 65 68  0  0  0  0  0  0  0  0999 V2000
   52.3290   30.0930   50.2260 C   0  0  0  0  0  0  0  0  0  0  0  0
   51.6860   31.0660   51.5680 S   0  0  0  0  0  0  0  0  0  0  0  0
   50.6560   30.2690   52.3180 O   0  0  0  0  0  0  0  0  0  0  0  0
   51.0600   32.3140   51.0110 O   0  0  0  0  0  0  0  0  0  0  0  0
   52.9930   31.4900   52.6250 N   0  0  0  0  0  0  0  0  0  0  0  0
   54.2770   30.8540   52.6360 C   0  0  0  0  0  0  0  0  0  0  0  0
   54.4060   29.6150   53.2760 C   0  0  0  0  0  0  0  0  0  0  0  0
   55.6340   28.9500   53.2900 C   0  0  0  0  0  0  0  0  0  0  0  0
   56.7470   29.5250   52.6780 C   0  0  0  0  0  0  0  0  0  0  0  0
   56.6420   30.7780   52.0560 C   0  0  0  0  0  0  0  0  0  0  0  0
   57.8310   31.4010   51.4510 C   0  0  0  0  0  0  0  0  0  0  0  0
   58.4550   30.7870   50.3530 C   0  0  0  0  0  0  0  0  0  0  0  0
   59.6040   31.3590   49.7750 C   0  0  0  0  0  0  0  0  0  0  0  0
   60.2340   30.8010   48.6520 O   0  0  0  0  0  0  0  0  0  0  0  0
   60.0380   29.5000   48.1680 C   0  0  0  0  0  0  0  0  0  0  0  0
   60.5150   28.3730   48.8620 C   0  0  0  0  0  0  0  0  0  0  0  0
   60.3280   27.0920   48.3390 C   0  0  0  0  0  0  0  0  0  0  0  0
   59.6820   26.9140   47.1100 C   0  0  0  0  0  0  0  0  0  0  0  0
   59.4830   25.5800   46.6160 N   0  0  0  0  0  0  0  0  0  0  0  0
   58.2370   25.0050   46.2030 C   0  0  0  0  0  0  0  0  0  0  0  0
   57.8680   23.9110   46.7080 O   0  0  0  0  0  0  0  0  0  0  0  0
   57.3990   25.6390   45.1190 C   0  0  0  0  0  0  0  0  0  0  0  0
   56.3280   26.5450   45.6560 C   0  0  0  0  0  0  0  0  0  0  0  0
   56.4710   27.7990   45.6390 O   0  0  0  0  0  0  0  0  0  0  0  0
   55.1590   25.9620   46.2400 N   0  0  0  0  0  0  0  0  0  0  0  0
   54.3190   24.9860   45.5530 C   0  0  0  0  0  0  0  0  0  0  0  0
   54.6710   23.5620   45.9920 C   0  0  0  0  0  0  0  0  0  0  0  0
   55.5110   22.8630   44.9510 C   0  0  0  0  0  0  0  0  0  0  0  0
   55.4960   23.3100   43.6190 C   0  0  0  0  0  0  0  0  0  0  0  0
   56.2430   22.6410   42.6430 C   0  0  0  0  0  0  0  0  0  0  0  0
   57.0010   21.5170   42.9870 C   0  0  0  0  0  0  0  0  0  0  0  0
   57.0110   21.0580   44.3090 C   0  0  0  0  0  0  0  0  0  0  0  0
   56.2650   21.7240   45.2880 C   0  0  0  0  0  0  0  0  0  0  0  0
   59.1870   28.0390   46.4250 C   0  0  0  0  0  0  0  0  0  0  0  0
   59.3860   29.3240   46.9400 C   0  0  0  0  0  0  0  0  0  0  0  0
   58.7890   30.7130   46.0420 Cl  0  0  0  0  0  0  0  0  0  0  0  0
   60.1130   32.5520   50.3000 C   0  0  0  0  0  0  0  0  0  0  0  0
   59.4970   33.1650   51.3970 C   0  0  0  0  0  0  0  0  0  0  0  0
   58.3590   32.5940   51.9730 C   0  0  0  0  0  0  0  0  0  0  0  0
   57.7640   33.2090   53.0700 O   0  0  0  0  0  0  0  0  0  0  0  0
   55.4060   31.4410   52.0320 C   0  0  0  0  0  0  0  0  0  0  0  0
   52.8932   29.2393   50.6295 H   0  0  0  0  0  0  0  0  0  0  0  0
   51.4965   29.7237   49.6091 H   0  0  0  0  0  0  0  0  0  0  0  0
   52.9951   30.7141   49.6091 H   0  0  0  0  0  0  0  0  0  0  0  0
   53.5341   29.1625   53.7711 H   0  0  0  0  0  0  0  0  0  0  0  0
   55.7232   27.9714   53.7844 H   0  0  0  0  0  0  0  0  0  0  0  0
   57.7106   28.9944   52.6829 H   0  0  0  0  0  0  0  0  0  0  0  0
   58.0434   29.8533   49.9421 H   0  0  0  0  0  0  0  0  0  0  0  0
   61.0378   28.5017   49.8212 H   0  0  0  0  0  0  0  0  0  0  0  0
   60.6910   26.2162   48.8969 H   0  0  0  0  0  0  0  0  0  0  0  0
   58.0595   26.2271   44.4649 H   0  0  0  0  0  0  0  0  0  0  0  0
   56.8976   24.8255   44.5741 H   0  0  0  0  0  0  0  0  0  0  0  0
   53.2641   25.1866   45.7914 H   0  0  0  0  0  0  0  0  0  0  0  0
   54.4898   25.0737   44.4699 H   0  0  0  0  0  0  0  0  0  0  0  0
   55.2332   23.6061   46.9365 H   0  0  0  0  0  0  0  0  0  0  0  0
   53.7367   22.9965   46.1234 H   0  0  0  0  0  0  0  0  0  0  0  0
   54.8950   24.1888   43.3425 H   0  0  0  0  0  0  0  0  0  0  0  0
   56.2341   22.9998   41.6032 H   0  0  0  0  0  0  0  0  0  0  0  0
   57.5891   20.9939   42.2186 H   0  0  0  0  0  0  0  0  0  0  0  0
   57.6058   20.1729   44.5789 H   0  0  0  0  0  0  0  0  0  0  0  0
   56.2682   21.3557   46.3245 H   0  0  0  0  0  0  0  0  0  0  0  0
   58.6406   27.9071   45.4794 H   0  0  0  0  0  0  0  0  0  0  0  0
   61.0039   33.0115   49.8471 H   0  0  0  0  0  0  0  0  0  0  0  0
   59.9097   34.0987   51.8069 H   0  0  0  0  0  0  0  0  0  0  0  0
   55.3183   32.4212   51.5405 H   0  0  0  0  0  0  0  0  0  0  0  0
  1  2  1  0
  2  3  2  0
  2  4  2  0
  2  5  1  0
  5  6  1  0
  6  7  2  0
  7  8  1  0
  8  9  2  0
  9 10  1  0
 10 11  1  0
 11 12  2  0
 12 13  1  0
 13 14  1  0
 14 15  1  0
 15 16  2  0
 16 17  1  0
 17 18  2  0
 18 19  1  0
 19 20  1  0
 20 21  2  0
 20 22  1  0
 22 23  1  0
 23 24  2  0
 23 25  1  0
 25 26  1  0
 26 27  1  0
 27 28  1  0
 28 29  2  0
 29 30  1  0
 30 31  2  0
 31 32  1  0
 32 33  2  0
 18 34  1  0
 34 35  2  0
 35 36  1  0
 13 37  2  0
 37 38  1  0
 38 39  2  0
 39 40  1  0
 10 41  2  0
 41  6  1  0
 39 11  1  0
 35 15  1  0
 33 28  1  0
  1 42  1  0
  1 43  1  0
  1 44  1  0
  7 45  1  0
  8 46  1  0
  9 47  1  0
 12 48  1  0
 16 49  1  0
 17 50  1  0
 22 51  1  0
 22 52  1  0
 26 53  1  0
 26 54  1  0
 27 55  1  0
 27 56  1  0
 29 57  1  0
 30 58  1  0
 31 59  1  0
 32 60  1  0
 33 61  1  0
 34 62  1  0
 37 63  1  0
 38 64  1  0
 41 65  1  0
M  CHG  4   5  -1  19  -1  25  -1  40  -1
M  END
>  <UniqueID>  (54) 
47

>  <SMILES>  (54) 
CS(=O)(=O)[N-]c1cccc(-c2cc(Oc3ccc([N-]C(=O)CC(=O)[N-]CCc4ccccc4)cc3Cl)ccc2[O-])c1

>  <Energy>  (54) 
83.55166046189025

>  <Genealogy>  (54) 
CS(=O)(=O)[N-]c1cccc(-c2cc(Oc3ccc([N-]C(=O)CC(=O)[N-]CCc4ccccc4)cc3Cl)ccc2[O-])c1 (protonated)
CS(=O)(=O)[N-]c1cccc(-c2cc(Oc3ccc([N-]C(=O)CC(=O)[N-]CCc4ccccc4)cc3Cl)ccc2[O-])c1 (3D coordinates assigned)
CS(=O)(=O)[N-]c1cccc(-c2cc(Oc3ccc([N-]C(=O)CC(=O)[N-]CCc4ccccc4)cc3Cl)ccc2[O-])c1 (optimized conformer: 83.55166046189025 kcal/mol)

>  <smiles>  (54) 
CS(=O)(=O)Nc1cccc(-c2cc(Oc3ccc(NC(=O)CC(=O)NCCc4ccccc4)cc3Cl)ccc2O)c1

>  <score_type>  (54) 
oracle

>  <origin>  (54) 
adg

>  <m_score__min__energy>  (54) 
-15.67

>  <m_primary>  (54) 
energy

$$$$
55:0
     RDKit          3D

 61 64  0  0  0  0  0  0  0  0999 V2000
   56.6380   23.2920   43.0130 C   0  0  0  0  0  0  0  0  0  0  0  0
   56.1900   24.0240   44.2430 C   0  0  0  0  0  0  0  0  0  0  0  0
   55.1040   23.6780   44.7820 O   0  0  0  0  0  0  0  0  0  0  0  0
   56.9910   25.1280   44.8360 C   0  0  0  0  0  0  0  0  0  0  0  0
   57.7770   25.9770   44.0340 C   0  0  0  0  0  0  0  0  0  0  0  0
   58.5260   27.0080   44.6080 C   0  0  0  0  0  0  0  0  0  0  0  0
   58.5120   27.2160   45.9970 C   0  0  0  0  0  0  0  0  0  0  0  0
   59.2870   28.2840   46.5870 N   0  0  0  0  0  0  0  0  0  0  0  0
   58.9240   28.8230   47.9050 C   0  0  0  0  0  0  0  0  0  0  0  0
   60.1750   29.2760   48.6660 C   0  0  0  0  0  0  0  0  0  0  0  0
   61.0460   30.1360   47.8450 N   0  0  0  0  0  0  0  0  0  0  0  0
   62.1210   30.8490   48.5120 C   0  0  0  0  0  0  0  0  0  0  0  0
   62.3850   30.5550   49.7110 O   0  0  0  0  0  0  0  0  0  0  0  0
   62.9380   31.9400   47.8240 C   0  0  2  0  0  0  0  0  0  0  0  0
   64.1140   32.4700   48.6880 C   0  0  0  0  0  0  0  0  0  0  0  0
   63.7670   33.7290   49.5060 C   0  0  0  0  0  0  0  0  0  0  0  0
   62.2610   33.8920   49.7050 C   0  0  0  0  0  0  0  0  0  0  0  0
   61.5580   34.0090   48.4130 N   0  0  0  0  0  0  0  0  0  0  0  0
   59.8330   33.8470   48.6420 S   0  0  0  0  0  0  0  0  0  0  0  0
   59.2960   35.0300   49.4000 O   0  0  0  0  0  0  0  0  0  0  0  0
   59.5420   32.6010   49.4320 O   0  0  0  0  0  0  0  0  0  0  0  0
   59.0290   33.7280   47.0800 C   0  0  0  0  0  0  0  0  0  0  0  0
   59.2840   34.6840   46.0870 C   0  0  0  0  0  0  0  0  0  0  0  0
   58.6320   34.6070   44.8530 C   0  0  0  0  0  0  0  0  0  0  0  0
   57.7190   33.5770   44.6070 C   0  0  0  0  0  0  0  0  0  0  0  0
   57.4550   32.6260   45.5960 C   0  0  0  0  0  0  0  0  0  0  0  0
   58.1060   32.7010   46.8310 C   0  0  0  0  0  0  0  0  0  0  0  0
   62.0550   33.1150   47.3360 C   0  0  0  0  0  0  0  0  0  0  0  0
   60.7660   30.2700   46.4060 C   0  0  0  0  0  0  0  0  0  0  0  0
   60.3630   28.9170   45.8120 C   0  0  0  0  0  0  0  0  0  0  0  0
   57.7260   26.3720   46.8000 C   0  0  0  0  0  0  0  0  0  0  0  0
   56.9760   25.3410   46.2260 C   0  0  0  0  0  0  0  0  0  0  0  0
   57.1915   22.3876   43.3057 H   0  0  0  0  0  0  0  0  0  0  0  0
   55.7595   23.0069   42.4156 H   0  0  0  0  0  0  0  0  0  0  0  0
   57.2916   23.9446   42.4156 H   0  0  0  0  0  0  0  0  0  0  0  0
   57.8019   25.8274   42.9445 H   0  0  0  0  0  0  0  0  0  0  0  0
   59.1326   27.6631   43.9655 H   0  0  0  0  0  0  0  0  0  0  0  0
   58.2512   29.6829   47.7711 H   0  0  0  0  0  0  0  0  0  0  0  0
   58.4226   28.0341   48.4848 H   0  0  0  0  0  0  0  0  0  0  0  0
   59.8625   29.8378   49.5586 H   0  0  0  0  0  0  0  0  0  0  0  0
   60.7481   28.3774   48.9384 H   0  0  0  0  0  0  0  0  0  0  0  0
   63.3802   31.4498   46.9441 H   0  0  0  0  0  0  0  0  0  0  0  0
   64.4170   31.6756   49.3859 H   0  0  0  0  0  0  0  0  0  0  0  0
   64.9200   32.7510   47.9941 H   0  0  0  0  0  0  0  0  0  0  0  0
   64.2485   33.6543   50.4922 H   0  0  0  0  0  0  0  0  0  0  0  0
   64.1302   34.6046   48.9480 H   0  0  0  0  0  0  0  0  0  0  0  0
   61.8742   33.0153   50.2451 H   0  0  0  0  0  0  0  0  0  0  0  0
   62.0849   34.8130   50.2802 H   0  0  0  0  0  0  0  0  0  0  0  0
   59.9993   35.4972   46.2795 H   0  0  0  0  0  0  0  0  0  0  0  0
   58.8373   35.3571   44.0750 H   0  0  0  0  0  0  0  0  0  0  0  0
   57.2084   33.5154   43.6346 H   0  0  0  0  0  0  0  0  0  0  0  0
   56.7344   31.8177   45.4028 H   0  0  0  0  0  0  0  0  0  0  0  0
   57.8941   31.9531   47.6093 H   0  0  0  0  0  0  0  0  0  0  0  0
   61.1845   32.6942   46.8115 H   0  0  0  0  0  0  0  0  0  0  0  0
   62.6934   33.7345   46.6889 H   0  0  0  0  0  0  0  0  0  0  0  0
   59.9452   30.9880   46.2618 H   0  0  0  0  0  0  0  0  0  0  0  0
   61.6740   30.6266   45.8976 H   0  0  0  0  0  0  0  0  0  0  0  0
   60.0166   29.0697   44.7792 H   0  0  0  0  0  0  0  0  0  0  0  0
   61.2410   28.2548   45.8385 H   0  0  0  0  0  0  0  0  0  0  0  0
   57.7006   26.5238   47.8892 H   0  0  0  0  0  0  0  0  0  0  0  0
   56.3670   24.6888   46.8693 H   0  0  0  0  0  0  0  0  0  0  0  0
  1  2  1  0
  2  3  2  0
  2  4  1  0
  4  5  2  0
  5  6  1  0
  6  7  2  0
  7  8  1  0
  8  9  1  0
  9 10  1  0
 10 11  1  0
 11 12  1  0
 12 13  2  0
 12 14  1  0
 14 15  1  0
 15 16  1  0
 16 17  1  0
 17 18  1  0
 18 19  1  0
 19 20  2  0
 19 21  2  0
 19 22  1  0
 22 23  2  0
 23 24  1  0
 24 25  2  0
 25 26  1  0
 26 27  2  0
 18 28  1  0
 11 29  1  0
 29 30  1  0
  7 31  1  0
 31 32  2  0
 32  4  1  0
 30  8  1  0
 28 14  1  0
 27 22  1  0
  1 33  1  0
  1 34  1  0
  1 35  1  0
  5 36  1  0
  6 37  1  0
  9 38  1  0
  9 39  1  0
 10 40  1  0
 10 41  1  0
 14 42  1  6
 15 43  1  0
 15 44  1  0
 16 45  1  0
 16 46  1  0
 17 47  1  0
 17 48  1  0
 23 49  1  0
 24 50  1  0
 25 51  1  0
 26 52  1  0
 27 53  1  0
 28 54  1  0
 28 55  1  0
 29 56  1  0
 29 57  1  0
 30 58  1  0
 30 59  1  0
 31 60  1  0
 32 61  1  0
M  END
>  <UniqueID>  (55) 
48

>  <SMILES>  (55) 
CC(=O)c1ccc(N2CCN(C(=O)[C@@H]3CCCN(S(=O)(=O)c4ccccc4)C3)CC2)cc1

>  <Energy>  (55) 
77.96157679154139

>  <Genealogy>  (55) 
CC(=O)c1ccc(N2CCN(C(=O)[C@@H]3CCCN(S(=O)(=O)c4ccccc4)C3)CC2)cc1 (chirality)
CC(=O)c1ccc(N2CCN(C(=O)[C@@H]3CCCN(S(=O)(=O)c4ccccc4)C3)CC2)cc1 (3D coordinates assigned)
CC(=O)c1ccc(N2CCN(C(=O)[C@@H]3CCCN(S(=O)(=O)c4ccccc4)C3)CC2)cc1 (nonaromatic ring conformer: 77.96157679154139 kcal/mol)

>  <smiles>  (55) 
CC(=O)c1ccc(N2CCN(C(=O)C3CCCN(S(=O)(=O)c4ccccc4)C3)CC2)cc1

>  <score_type>  (55) 
oracle

>  <origin>  (55) 
adg

>  <m_score__min__energy>  (55) 
-9.7300000000000004

>  <m_primary>  (55) 
energy

$$$$
56:0
     RDKit          3D

 53 56  0  0  1  0  0  0  0  0999 V2000
   63.2290   32.1010   47.5750 C   0  0  0  0  0  0  0  0  0  0  0  0
   63.0400   33.4250   47.5870 C   0  0  0  0  0  0  0  0  0  0  0  0
   63.3750   34.2040   46.3880 C   0  0  0  0  0  0  0  0  0  0  0  0
   62.4990   34.0210   48.8580 C   0  0  0  0  0  0  0  0  0  0  0  0
   61.2010   34.5670   48.5150 N   0  0  0  0  0  0  0  0  0  0  0  0
   60.3650   33.9800   47.7430 C   0  0  0  0  0  0  0  0  0  0  0  0
   59.7370   34.7550   46.8220 N   0  0  0  0  0  0  0  0  0  0  0  0
   58.8650   34.1850   45.9970 C   0  0  0  0  0  0  0  0  0  0  0  0
   58.2920   34.9170   45.1510 O   0  0  0  0  0  0  0  0  0  0  0  0
   58.6390   32.8430   46.1090 C   0  0  0  0  0  0  0  0  0  0  0  0
   57.7270   32.2770   45.2320 C   0  0  0  0  0  0  0  0  0  0  0  0
   57.5090   30.9630   45.3470 N   0  0  0  0  0  0  0  0  0  0  0  0
   58.1190   30.1670   46.2580 C   0  0  0  0  0  0  0  0  0  0  0  0
   57.7920   28.7850   46.2600 N   0  0  0  0  0  0  0  0  0  0  0  0
   57.0370   28.1180   45.2440 C   0  0  0  0  0  0  0  0  0  0  0  0
   56.9650   26.6470   45.5480 C   0  0  0  0  0  0  0  0  0  0  0  0
   58.2270   26.0660   45.9280 N   0  0  0  0  0  0  0  0  0  0  0  0
   58.6860   24.7860   45.5760 C   0  0  0  0  0  0  0  0  0  0  0  0
   59.8240   24.3780   45.9640 O   0  0  0  0  0  0  0  0  0  0  0  0
   57.9410   23.8260   44.7600 C   0  0  0  0  0  0  0  0  0  0  0  0
   58.2450   22.4830   45.0100 C   0  0  0  0  0  0  0  0  0  0  0  0
   57.6420   21.4540   44.3070 C   0  0  0  0  0  0  0  0  0  0  0  0
   56.7140   21.8050   43.3320 C   0  0  0  0  0  0  0  0  0  0  0  0
   56.3990   23.1460   43.0720 C   0  0  0  0  0  0  0  0  0  0  0  0
   57.0230   24.1690   43.7990 C   0  0  0  0  0  0  0  0  0  0  0  0
   59.1020   26.8710   46.7740 C   0  0  0  0  0  0  0  0  0  0  0  0
   58.2590   27.9830   47.3980 C   0  0  0  0  0  0  0  0  0  0  0  0
   59.0120   30.7200   47.1150 N   0  0  0  0  0  0  0  0  0  0  0  0
   59.2780   32.0470   47.0500 C   0  0  0  0  0  0  0  0  0  0  0  0
   60.1490   32.6600   47.8610 N   0  0  0  0  0  0  0  0  0  0  0  0
   62.9834   31.5023   48.4645 H   0  0  0  0  0  0  0  0  0  0  0  0
   63.6301   31.6108   46.6756 H   0  0  0  0  0  0  0  0  0  0  0  0
   63.7931   35.1763   46.6875 H   0  0  0  0  0  0  0  0  0  0  0  0
   64.1165   33.6548   45.7892 H   0  0  0  0  0  0  0  0  0  0  0  0
   62.4663   34.3644   45.7892 H   0  0  0  0  0  0  0  0  0  0  0  0
   62.3965   33.2458   49.6316 H   0  0  0  0  0  0  0  0  0  0  0  0
   63.1702   34.7935   49.2614 H   0  0  0  0  0  0  0  0  0  0  0  0
   59.9240   35.7920   46.7470 H   0  0  0  0  0  0  0  0  0  0  0  0
   57.2059   32.8819   44.4753 H   0  0  0  0  0  0  0  0  0  0  0  0
   56.0195   28.5348   45.2118 H   0  0  0  0  0  0  0  0  0  0  0  0
   57.5278   28.2648   44.2706 H   0  0  0  0  0  0  0  0  0  0  0  0
   56.2531   26.4986   46.3733 H   0  0  0  0  0  0  0  0  0  0  0  0
   56.6491   26.1451   44.6216 H   0  0  0  0  0  0  0  0  0  0  0  0
   58.9840   22.2380   45.7871 H   0  0  0  0  0  0  0  0  0  0  0  0
   57.8869   20.4012   44.5112 H   0  0  0  0  0  0  0  0  0  0  0  0
   56.2166   21.0132   42.7525 H   0  0  0  0  0  0  0  0  0  0  0  0
   55.6606   23.3959   42.2959 H   0  0  0  0  0  0  0  0  0  0  0  0
   56.7821   25.2244   43.6035 H   0  0  0  0  0  0  0  0  0  0  0  0
   59.5376   26.2433   47.5654 H   0  0  0  0  0  0  0  0  0  0  0  0
   59.9219   27.2997   46.1791 H   0  0  0  0  0  0  0  0  0  0  0  0
   57.4064   27.5597   47.9492 H   0  0  0  0  0  0  0  0  0  0  0  0
   58.8325   28.5825   48.1202 H   0  0  0  0  0  0  0  0  0  0  0  0
   60.6670   32.1080   48.6000 H   0  0  0  0  0  0  0  0  0  0  0  0
  1  2  2  0
  2  3  1  0
  2  4  1  0
  4  5  1  0
  5  6  2  0
  6  7  1  0
  7  8  1  0
  8  9  2  0
  8 10  1  0
 10 11  2  0
 11 12  1  0
 12 13  2  0
 13 14  1  0
 14 15  1  0
 15 16  1  0
 16 17  1  0
 17 18  1  0
 18 19  2  0
 18 20  1  0
 20 21  2  0
 21 22  1  0
 22 23  2  0
 23 24  1  0
 24 25  2  0
 17 26  1  0
 26 27  1  0
 13 28  1  0
 28 29  2  0
 29 30  1  0
 30  6  1  0
 29 10  1  0
 27 14  1  0
 25 20  1  0
  1 31  1  0
  1 32  1  0
  3 33  1  0
  3 34  1  0
  3 35  1  0
  4 36  1  0
  4 37  1  0
  7 38  1  0
 11 39  1  0
 15 40  1  0
 15 41  1  0
 16 42  1  0
 16 43  1  0
 21 44  1  0
 22 45  1  0
 23 46  1  0
 24 47  1  0
 25 48  1  0
 26 49  1  0
 26 50  1  0
 27 51  1  0
 27 52  1  0
 30 53  1  0
M  END
>  <smiles>  (56) 
C=C(C)CN=c1[nH]c(=O)c2cnc(N3CCN(C(=O)c4ccccc4)CC3)nc2[nH]1

>  <score_type>  (56) 
oracle

>  <origin>  (56) 
adg

>  <m_score__min__energy>  (56) 
-8.2100000000000009

>  <m_primary>  (56) 
energy

$$$$
57:0
     RDKit          3D

 42 44  0  0  0  0  0  0  0  0999 V2000
   56.2700   29.3460   42.6080 C   0  0  0  0  0  0  0  0  0  0  0  0
   57.1270   29.3960   43.6260 C   0  0  0  0  0  0  0  0  0  0  0  0
   58.2160   28.4830   43.7940 N   0  0  0  0  0  0  0  0  0  0  0  0
   58.8300   28.9560   45.0130 C   0  0  0  0  0  0  0  0  0  0  0  0
   60.0410   28.2740   45.5750 C   0  0  0  0  0  0  0  0  0  0  0  0
   58.2190   30.0220   45.5630 C   0  0  0  0  0  0  0  0  0  0  0  0
   58.5760   30.7480   46.8030 C   0  0  0  0  0  0  0  0  0  0  0  0
   59.3430   30.1980   47.6380 O   0  0  0  0  0  0  0  0  0  0  0  0
   58.0990   32.0770   47.0420 N   0  0  0  0  0  0  0  0  0  0  0  0
   58.5900   33.2570   46.3940 C   0  0  0  0  0  0  0  0  0  0  0  0
   58.0750   33.7740   45.2250 C   0  0  0  0  0  0  0  0  0  0  0  0
   58.8380   34.8890   44.9380 C   0  0  0  0  0  0  0  0  0  0  0  0
   59.7750   35.0740   45.8890 N   0  0  0  0  0  0  0  0  0  0  0  0
   59.6300   34.0840   46.7920 C   0  0  0  0  0  0  0  0  0  0  0  0
   60.3770   34.0370   48.0640 C   0  0  0  0  0  0  0  0  0  0  0  0
   59.9020   34.6100   49.0800 O   0  0  0  0  0  0  0  0  0  0  0  0
   61.6600   33.3910   48.1430 N   0  0  0  0  0  0  0  0  0  0  0  0
   62.6160   33.8080   49.1720 C   0  0  0  0  0  0  0  0  0  0  0  0
   64.0390   33.4560   48.7310 C   0  0  0  0  0  0  0  0  0  0  0  0
   64.1310   32.0910   48.3650 O   0  0  0  0  0  0  0  0  0  0  0  0
   63.3320   31.8500   47.2230 C   0  0  0  0  0  0  0  0  0  0  0  0
   61.8500   32.0670   47.5390 C   0  0  0  0  0  0  0  0  0  0  0  0
   57.1040   30.3560   44.7030 C   0  0  0  0  0  0  0  0  0  0  0  0
   56.2870   31.3020   44.8510 O   0  0  0  0  0  0  0  0  0  0  0  0
   55.4538   30.0802   42.5396 H   0  0  0  0  0  0  0  0  0  0  0  0
   56.3783   28.5705   41.8355 H   0  0  0  0  0  0  0  0  0  0  0  0
   58.8880   28.5620   42.9960 H   0  0  0  0  0  0  0  0  0  0  0  0
   57.8600   27.5080   43.9250 H   0  0  0  0  0  0  0  0  0  0  0  0
   59.9984   28.2980   46.6739 H   0  0  0  0  0  0  0  0  0  0  0  0
   60.0658   27.2292   45.2317 H   0  0  0  0  0  0  0  0  0  0  0  0
   60.9473   28.7944   45.2317 H   0  0  0  0  0  0  0  0  0  0  0  0
   57.2303   33.3799   44.6408 H   0  0  0  0  0  0  0  0  0  0  0  0
   58.7004   35.5345   44.0580 H   0  0  0  0  0  0  0  0  0  0  0  0
   60.4510   35.8700   45.9360 H   0  0  0  0  0  0  0  0  0  0  0  0
   62.5389   34.8948   49.3232 H   0  0  0  0  0  0  0  0  0  0  0  0
   62.3877   33.2858   50.1128 H   0  0  0  0  0  0  0  0  0  0  0  0
   64.3132   34.0798   47.8675 H   0  0  0  0  0  0  0  0  0  0  0  0
   64.7238   33.6416   49.5716 H   0  0  0  0  0  0  0  0  0  0  0  0
   63.6339   32.5387   46.4201 H   0  0  0  0  0  0  0  0  0  0  0  0
   63.4753   30.8061   46.9071 H   0  0  0  0  0  0  0  0  0  0  0  0
   61.2650   32.0020   46.6097 H   0  0  0  0  0  0  0  0  0  0  0  0
   61.5116   31.2937   48.2443 H   0  0  0  0  0  0  0  0  0  0  0  0
  1  2  2  0
  2  3  1  0
  3  4  1  0
  4  5  1  0
  4  6  2  0
  6  7  1  0
  7  8  2  0
  7  9  1  0
  9 10  1  0
 10 11  1  0
 11 12  2  0
 12 13  1  0
 13 14  1  0
 14 15  1  0
 15 16  2  0
 15 17  1  0
 17 18  1  0
 18 19  1  0
 19 20  1  0
 20 21  1  0
 21 22  1  0
  6 23  1  0
 23 24  2  0
 23  2  1  0
 14 10  2  0
 22 17  1  0
  1 25  1  0
  1 26  1  0
  3 27  1  0
  3 28  1  0
  5 29  1  0
  5 30  1  0
  5 31  1  0
 11 32  1  0
 12 33  1  0
 13 34  1  0
 18 35  1  0
 18 36  1  0
 19 37  1  0
 19 38  1  0
 21 39  1  0
 21 40  1  0
 22 41  1  0
 22 42  1  0
M  CHG  2   3   1   9  -1
M  END
>  <UniqueID>  (57) 
49

>  <SMILES>  (57) 
C=C1[NH2+]C(C)=C(C(=O)[N-]c2cc[nH]c2C(=O)N2CCOCC2)C1=O

>  <Energy>  (57) 
96.02413301759424

>  <Genealogy>  (57) 
C=C1[NH2+]C(C)=C(C(=O)[N-]c2cc[nH]c2C(=O)N2CCOCC2)C1=O (protonated)
C=C1[NH2+]C(C)=C(C(=O)[N-]c2cc[nH]c2C(=O)N2CCOCC2)C1=O (3D coordinates assigned)
C=C1[NH2+]C(C)=C(C(=O)[N-]c2cc[nH]c2C(=O)N2CCOCC2)C1=O (nonaromatic ring conformer: 96.02413301759424 kcal/mol)

>  <smiles>  (57) 
C=C1NC(C)=C(C(=O)Nc2cc[nH]c2C(=O)N2CCOCC2)C1=O

>  <score_type>  (57) 
oracle

>  <origin>  (57) 
adg

>  <m_score__min__energy>  (57) 
-8.4100000000000001

>  <m_primary>  (57) 
energy

$$$$
58:0
     RDKit          3D

 60 64  0  0  0  0  0  0  0  0999 V2000
   55.9690   29.5480   42.9170 O   0  0  0  0  0  0  0  0  0  0  0  0
   56.4190   29.9730   44.0160 C   0  0  0  0  0  0  0  0  0  0  0  0
   56.0930   31.2930   44.4750 N   0  0  0  0  0  0  0  0  0  0  0  0
   57.0190   32.2940   44.9190 C   0  0  0  0  0  0  0  0  0  0  0  0
   58.2350   32.4330   44.2400 C   0  0  0  0  0  0  0  0  0  0  0  0
   59.1730   33.3850   44.6490 C   0  0  0  0  0  0  0  0  0  0  0  0
   58.9080   34.2090   45.7530 C   0  0  0  0  0  0  0  0  0  0  0  0
   59.9320   35.2120   46.2160 C   0  0  0  0  0  0  0  0  0  0  0  0
   61.3000   34.5380   46.3910 C   0  0  0  0  0  0  0  0  0  0  0  0
   61.3670   33.6210   47.5470 N   0  0  0  0  0  0  0  0  0  0  0  0
   61.2730   32.1720   47.2590 C   0  0  0  0  0  0  0  0  0  0  0  0
   59.8860   31.5860   47.5450 C   0  0  0  0  0  0  0  0  0  0  0  0
   59.4180   32.0470   48.8520 N   0  0  0  0  0  0  0  0  0  0  0  0
   59.2470   31.1420   49.9610 C   0  0  0  0  0  0  0  0  0  0  0  0
   58.1680   31.2850   50.8510 C   0  0  0  0  0  0  0  0  0  0  0  0
   58.0340   30.3920   51.9160 C   0  0  0  0  0  0  0  0  0  0  0  0
   58.9710   29.3740   52.0930 C   0  0  0  0  0  0  0  0  0  0  0  0
   60.0380   29.2670   51.2000 C   0  0  0  0  0  0  0  0  0  0  0  0
   60.1520   30.1440   50.1670 N   0  0  0  0  0  0  0  0  0  0  0  0
   59.3670   33.4940   49.0490 C   0  0  0  0  0  0  0  0  0  0  0  0
   60.7570   34.0900   48.8100 C   0  0  0  0  0  0  0  0  0  0  0  0
   57.7090   34.0440   46.4630 C   0  0  0  0  0  0  0  0  0  0  0  0
   56.7700   33.0920   46.0510 C   0  0  0  0  0  0  0  0  0  0  0  0
   57.3050   29.1530   44.7860 N   0  0  0  0  0  0  0  0  0  0  0  0
   57.7040   27.7980   44.3980 C   0  0  0  0  0  0  0  0  0  0  0  0
   58.6000   27.3870   45.5050 C   0  0  0  0  0  0  0  0  0  0  0  0
   59.2730   26.1740   45.6580 C   0  0  0  0  0  0  0  0  0  0  0  0
   60.0770   25.9920   46.7950 C   0  0  0  0  0  0  0  0  0  0  0  0
   60.1960   27.0180   47.7520 C   0  0  0  0  0  0  0  0  0  0  0  0
   59.5090   28.2310   47.5780 C   0  0  0  0  0  0  0  0  0  0  0  0
   58.7150   28.3900   46.4410 C   0  0  0  0  0  0  0  0  0  0  0  0
   57.9070   29.5710   46.0520 C   0  0  0  0  0  0  0  0  0  0  0  0
   58.4544   31.7873   43.3769 H   0  0  0  0  0  0  0  0  0  0  0  0
   60.1225   33.4885   44.1033 H   0  0  0  0  0  0  0  0  0  0  0  0
   60.0165   36.0150   45.4689 H   0  0  0  0  0  0  0  0  0  0  0  0
   59.6126   35.6276   47.1831 H   0  0  0  0  0  0  0  0  0  0  0  0
   61.5236   33.9644   45.4794 H   0  0  0  0  0  0  0  0  0  0  0  0
   62.0318   35.3388   46.5733 H   0  0  0  0  0  0  0  0  0  0  0  0
   61.5076   32.0113   46.1964 H   0  0  0  0  0  0  0  0  0  0  0  0
   61.9859   31.6609   47.9227 H   0  0  0  0  0  0  0  0  0  0  0  0
   59.1818   31.9157   46.7669 H   0  0  0  0  0  0  0  0  0  0  0  0
   59.9467   30.4877   47.5455 H   0  0  0  0  0  0  0  0  0  0  0  0
   57.4356   32.0935   50.7095 H   0  0  0  0  0  0  0  0  0  0  0  0
   57.1903   30.4912   52.6148 H   0  0  0  0  0  0  0  0  0  0  0  0
   58.8700   28.6637   52.9269 H   0  0  0  0  0  0  0  0  0  0  0  0
   60.7874   28.4726   51.3318 H   0  0  0  0  0  0  0  0  0  0  0  0
   58.6515   33.9358   48.3398 H   0  0  0  0  0  0  0  0  0  0  0  0
   59.0456   33.7133   50.0779 H   0  0  0  0  0  0  0  0  0  0  0  0
   60.6689   35.1859   48.7732 H   0  0  0  0  0  0  0  0  0  0  0  0
   61.4064   33.7629   49.6354 H   0  0  0  0  0  0  0  0  0  0  0  0
   57.5064   34.6659   47.3474 H   0  0  0  0  0  0  0  0  0  0  0  0
   55.8334   32.9669   46.6142 H   0  0  0  0  0  0  0  0  0  0  0  0
   56.8306   27.1330   44.3281 H   0  0  0  0  0  0  0  0  0  0  0  0
   58.1854   27.7530   43.4099 H   0  0  0  0  0  0  0  0  0  0  0  0
   59.1759   25.3782   44.9048 H   0  0  0  0  0  0  0  0  0  0  0  0
   60.6160   25.0439   46.9386 H   0  0  0  0  0  0  0  0  0  0  0  0
   60.8292   26.8692   48.6391 H   0  0  0  0  0  0  0  0  0  0  0  0
   59.5949   29.0375   48.3211 H   0  0  0  0  0  0  0  0  0  0  0  0
   57.1348   29.7875   46.8049 H   0  0  0  0  0  0  0  0  0  0  0  0
   58.4997   30.4938   45.9672 H   0  0  0  0  0  0  0  0  0  0  0  0
  1  2  2  0
  2  3  1  0
  3  4  1  0
  4  5  2  0
  5  6  1  0
  6  7  2  0
  7  8  1  0
  8  9  1  0
  9 10  1  0
 10 11  1  0
 11 12  1  0
 12 13  1  0
 13 14  1  0
 14 15  2  0
 15 16  1  0
 16 17  2  0
 17 18  1  0
 18 19  2  0
 13 20  1  0
 20 21  1  0
  7 22  1  0
 22 23  2  0
  2 24  1  0
 24 25  1  0
 25 26  1  0
 26 27  2  0
 27 28  1  0
 28 29  2  0
 29 30  1  0
 30 31  2  0
 31 32  1  0
 23  4  1  0
 32 24  1  0
 21 10  1  0
 31 26  1  0
 19 14  1  0
  5 33  1  0
  6 34  1  0
  8 35  1  0
  8 36  1  0
  9 37  1  0
  9 38  1  0
 11 39  1  0
 11 40  1  0
 12 41  1  0
 12 42  1  0
 15 43  1  0
 16 44  1  0
 17 45  1  0
 18 46  1  0
 20 47  1  0
 20 48  1  0
 21 49  1  0
 21 50  1  0
 22 51  1  0
 23 52  1  0
 25 53  1  0
 25 54  1  0
 27 55  1  0
 28 56  1  0
 29 57  1  0
 30 58  1  0
 32 59  1  0
 32 60  1  0
M  CHG  1   3  -1
M  END
>  <UniqueID>  (58) 
50

>  <SMILES>  (58) 
O=C([N-]c1ccc(CCN2CCN(c3ccccn3)CC2)cc1)N1Cc2ccccc2C1

>  <Energy>  (58) 
89.75332373338411

>  <Genealogy>  (58) 
O=C([N-]c1ccc(CCN2CCN(c3ccccn3)CC2)cc1)N1Cc2ccccc2C1 (protonated)
O=C([N-]c1ccc(CCN2CCN(c3ccccn3)CC2)cc1)N1Cc2ccccc2C1 (3D coordinates assigned)
O=C([N-]c1ccc(CCN2CCN(c3ccccn3)CC2)cc1)N1Cc2ccccc2C1 (nonaromatic ring conformer: 89.75332373338411 kcal/mol)

>  <smiles>  (58) 
O=C(Nc1ccc(CCN2CCN(c3ccccn3)CC2)cc1)N1Cc2ccccc2C1

>  <score_type>  (58) 
oracle

>  <origin>  (58) 
adg

>  <m_score__min__energy>  (58) 
-10.94

>  <m_primary>  (58) 
energy

$$$$
59:0
     RDKit          3D

 49 51  0  0  0  0  0  0  0  0999 V2000
   54.9043   27.5404   54.0269 H   0  0  0  0  0  0  0  0  0  0  0  0
   54.1860   28.2640   53.6140 C   0  0  0  0  0  0  0  0  0  0  0  0
   53.1057   28.0997   53.7401 H   0  0  0  0  0  0  0  0  0  0  0  0
   54.6280   29.3480   52.9560 C   0  0  0  0  0  0  0  0  0  0  0  0
   53.8450   30.3580   52.3740 C   0  0  0  0  0  0  0  0  0  0  0  0
   52.5200   30.4320   52.1460 C   0  0  0  0  0  0  0  0  0  0  0  0
   51.8529   30.1320   52.9676 H   0  0  0  0  0  0  0  0  0  0  0  0
   51.8850   30.8780   50.8970 C   0  0  0  0  0  0  0  0  0  0  0  0
   51.7530   30.0960   49.8110 N   0  0  0  0  0  0  0  0  0  0  0  0
   51.0150   30.8540   48.9700 C   0  0  0  0  0  0  0  0  0  0  0  0
   50.6870   30.4640   47.8190 O   0  0  0  0  0  0  0  0  0  0  0  0
   50.6440   32.0550   49.4640 N   0  0  0  0  0  0  0  0  0  0  0  0
   51.1900   32.0480   50.6910 C   0  0  0  0  0  0  0  0  0  0  0  0
   51.0330   33.0780   51.6100 O   0  0  0  0  0  0  0  0  0  0  0  0
   54.7210   31.3710   52.0280 C   0  0  0  0  0  0  0  0  0  0  0  0
   54.4553   32.3383   51.5766 H   0  0  0  0  0  0  0  0  0  0  0  0
   55.9900   30.9410   52.3550 C   0  0  0  0  0  0  0  0  0  0  0  0
   57.2030   31.7670   52.1620 C   0  0  0  0  0  0  0  0  0  0  0  0
   57.8290   32.1410   53.1890 O   0  0  0  0  0  0  0  0  0  0  0  0
   57.7640   31.9780   50.8380 N   0  0  0  0  0  0  0  0  0  0  0  0
   56.9930   32.3420   50.2320 H   0  0  0  0  0  0  0  0  0  0  0  0
   58.1870   30.6970   50.2190 C   0  0  0  0  0  0  0  0  0  0  0  0
   57.5534   29.8933   50.6222 H   0  0  0  0  0  0  0  0  0  0  0  0
   58.0783   30.8206   49.1314 H   0  0  0  0  0  0  0  0  0  0  0  0
   59.6700   30.3240   50.4790 C   0  0  1  0  0  0  0  0  0  0  0  0
   59.7231   29.2618   50.7599 H   0  0  0  0  0  0  0  0  0  0  0  0
   60.5150   30.4700   49.1930 C   0  0  0  0  0  0  0  0  0  0  0  0
   61.5657   30.6515   49.4633 H   0  0  0  0  0  0  0  0  0  0  0  0
   60.4432   29.5461   48.6003 H   0  0  0  0  0  0  0  0  0  0  0  0
   60.1374   31.3162   48.6003 H   0  0  0  0  0  0  0  0  0  0  0  0
   60.2140   31.0870   51.6280 N   0  0  0  0  0  0  0  0  0  0  0  0
   61.5440   30.5940   52.0440 C   0  0  0  0  0  0  0  0  0  0  0  0
   61.6002   30.5732   53.1424 H   0  0  0  0  0  0  0  0  0  0  0  0
   61.6986   29.5788   51.6496 H   0  0  0  0  0  0  0  0  0  0  0  0
   62.3229   31.2631   51.6496 H   0  0  0  0  0  0  0  0  0  0  0  0
   60.1920   32.5520   51.3940 C   0  0  2  0  0  0  0  0  0  0  0  0
   60.9739   32.7727   50.6524 H   0  0  0  0  0  0  0  0  0  0  0  0
   60.5170   33.3340   52.6830 C   0  0  0  0  0  0  0  0  0  0  0  0
   60.2616   32.7195   53.5589 H   0  0  0  0  0  0  0  0  0  0  0  0
   61.5900   33.5754   52.7047 H   0  0  0  0  0  0  0  0  0  0  0  0
   59.9312   34.2648   52.7047 H   0  0  0  0  0  0  0  0  0  0  0  0
   58.8220   33.0130   50.8120 C   0  0  0  0  0  0  0  0  0  0  0  0
   58.4728   33.8760   51.3980 H   0  0  0  0  0  0  0  0  0  0  0  0
   58.9974   33.2543   49.7532 H   0  0  0  0  0  0  0  0  0  0  0  0
   55.9410   29.6950   52.8850 N   0  0  0  0  0  0  0  0  0  0  0  0
   57.0830   28.8780   53.3110 C   0  0  0  0  0  0  0  0  0  0  0  0
   57.1235   28.8490   54.4099 H   0  0  0  0  0  0  0  0  0  0  0  0
   56.9682   27.8558   52.9212 H   0  0  0  0  0  0  0  0  0  0  0  0
   58.0134   29.3167   52.9212 H   0  0  0  0  0  0  0  0  0  0  0  0
  1  2  1  0
  2  3  1  0
  2  4  2  0
  4  5  1  0
  5  6  2  0
  6  7  1  0
  6  8  1  0
  8  9  1  0
  9 10  1  0
 10 11  2  0
 10 12  1  0
 12 13  1  0
 13 14  1  0
  5 15  1  0
 15 16  1  0
 15 17  2  0
 17 18  1  0
 18 19  2  0
 18 20  1  0
 20 21  1  0
 20 22  1  0
 22 23  1  0
 22 24  1  0
 22 25  1  0
 25 26  1  1
 25 27  1  0
 27 28  1  0
 27 29  1  0
 27 30  1  0
 25 31  1  0
 31 32  1  0
 32 33  1  0
 32 34  1  0
 32 35  1  0
 31 36  1  0
 36 37  1  6
 36 38  1  0
 38 39  1  0
 38 40  1  0
 38 41  1  0
 36 42  1  0
 42 43  1  0
 42 44  1  0
 17 45  1  0
 45 46  1  0
 46 47  1  0
 46 48  1  0
 46 49  1  0
 45  4  1  0
 13  8  2  0
 42 20  1  0
M  CHG  4   9  -1  12  -1  14  -1  20   1
M  END
>  <UniqueID>  (59) 
51

>  <SMILES>  (59) 
C=c1/c(=C\c2[n-]c(=O)[n-]c2[O-])cc(C(=O)[NH+]2C[C@@H](C)N(C)[C@H](C)C2)n1C

>  <Energy>  (59) 
143.90907676794845

>  <Genealogy>  (59) 
C=c1c(=Cc2[n-]c(=O)[n-]c2[O-])cc(C(=O)[NH+]2CC(C)N(C)C(C)C2)n1C (protonated)
C=c1c(=Cc2[n-]c(=O)[n-]c2[O-])cc(C(=O)[NH+]2C[C@@H](C)N(C)[C@H](C)C2)n1C (chirality)
C=c1/c(=C\c2[n-]c(=O)[n-]c2[O-])cc(C(=O)[NH+]2C[C@@H](C)N(C)[C@H](C)C2)n1C (cis-trans isomerization)
C=c1/c(=C\c2[n-]c(=O)[n-]c2[O-])cc(C(=O)[NH+]2C[C@@H](C)N(C)[C@H](C)C2)n1C (3D coordinates assigned)
C=c1/c(=C\c2[n-]c(=O)[n-]c2[O-])cc(C(=O)[NH+]2C[C@@H](C)N(C)[C@H](C)C2)n1C (nonaromatic ring conformer: 143.90907676794845 kcal/mol)

>  <smiles>  (59) 
C=c1c(=Cc2[nH]c(=O)[nH]c2O)cc(C(=O)N2CC(C)N(C)C(C)C2)n1C

>  <score_type>  (59) 
oracle

>  <origin>  (59) 
adg

>  <m_score__min__energy>  (59) 
-15.960000000000001

>  <m_primary>  (59) 
energy

$$$$
60:0
     RDKit          3D

 32 34  0  0  0  0  0  0  0  0999 V2000
   57.3920   31.6080   41.9530 O   0  0  0  0  0  0  0  0  0  0  0  0
   57.6300   31.7490   43.1820 C   0  0  0  0  0  0  0  0  0  0  0  0
   57.9470   33.0600   43.6720 N   0  0  0  0  0  0  0  0  0  0  0  0
   58.0950   33.3890   44.9220 C   0  0  0  0  0  0  0  0  0  0  0  0
   57.3120   32.9190   45.9180 N   0  0  0  0  0  0  0  0  0  0  0  0
   57.7960   33.5310   47.0130 C   0  0  0  0  0  0  0  0  0  0  0  0
   58.8390   34.3510   46.6530 C   0  0  0  0  0  0  0  0  0  0  0  0
   59.0320   34.2700   45.3240 N   0  0  0  0  0  0  0  0  0  0  0  0
   57.6300   30.5540   44.0600 C   0  0  0  0  0  0  0  0  0  0  0  0
   56.4430   29.8350   44.2710 C   0  0  0  0  0  0  0  0  0  0  0  0
   56.4360   28.7030   45.0910 C   0  0  0  0  0  0  0  0  0  0  0  0
   57.6200   28.2620   45.7020 C   0  0  0  0  0  0  0  0  0  0  0  0
   57.6050   27.0680   46.6190 C   0  0  0  0  0  0  0  0  0  0  0  0
   57.0480   25.8570   45.9050 C   0  0  0  0  0  0  0  0  0  0  0  0
   55.6650   25.7150   45.6870 C   0  0  0  0  0  0  0  0  0  0  0  0
   54.7770   26.7060   46.0880 O   0  0  0  0  0  0  0  0  0  0  0  0
   55.1840   24.6030   45.0750 N   0  0  0  0  0  0  0  0  0  0  0  0
   56.0150   23.6110   44.6690 C   0  0  0  0  0  0  0  0  0  0  0  0
   55.5440   22.5890   44.1040 O   0  0  0  0  0  0  0  0  0  0  0  0
   57.3520   23.7170   44.8730 N   0  0  0  0  0  0  0  0  0  0  0  0
   57.8850   24.8080   45.4790 C   0  0  0  0  0  0  0  0  0  0  0  0
   59.1320   24.8680   45.6520 O   0  0  0  0  0  0  0  0  0  0  0  0
   58.8110   28.9710   45.4800 C   0  0  0  0  0  0  0  0  0  0  0  0
   58.8170   30.1020   44.6590 C   0  0  0  0  0  0  0  0  0  0  0  0
   57.4167   33.3966   48.0368 H   0  0  0  0  0  0  0  0  0  0  0  0
   59.4243   34.9758   47.3437 H   0  0  0  0  0  0  0  0  0  0  0  0
   55.5116   30.1648   43.7875 H   0  0  0  0  0  0  0  0  0  0  0  0
   55.4972   28.1547   45.2583 H   0  0  0  0  0  0  0  0  0  0  0  0
   58.6319   26.8526   46.9493 H   0  0  0  0  0  0  0  0  0  0  0  0
   56.9666   27.2940   47.4858 H   0  0  0  0  0  0  0  0  0  0  0  0
   59.7445   28.6346   45.9547 H   0  0  0  0  0  0  0  0  0  0  0  0
   59.7585   30.6421   44.4807 H   0  0  0  0  0  0  0  0  0  0  0  0
  1  2  2  0
  2  3  1  0
  3  4  2  3
  4  5  1  0
  5  6  1  0
  6  7  2  0
  7  8  1  0
  2  9  1  0
  9 10  2  0
 10 11  1  0
 11 12  2  0
 12 13  1  0
 13 14  1  0
 14 15  2  0
 15 16  1  0
 15 17  1  0
 17 18  1  0
 18 19  2  0
 18 20  1  0
 20 21  1  0
 21 22  2  0
 12 23  1  0
 23 24  2  0
  8  4  1  0
 24  9  1  0
 21 14  1  0
  6 25  1  0
  7 26  1  0
 10 27  1  0
 11 28  1  0
 13 29  1  0
 13 30  1  0
 23 31  1  0
 24 32  1  0
M  CHG  5   5  -1   8  -1  16  -1  17  -1  20  -1
M  END
>  <UniqueID>  (60) 
52

>  <SMILES>  (60) 
O=C(N=c1[n-]cc[n-]1)c1ccc(Cc2c([O-])[n-]c(=O)[n-]c2=O)cc1

>  <Energy>  (60) 
71.5928665742754

>  <Genealogy>  (60) 
O=C(N=c1[n-]cc[n-]1)c1ccc(Cc2c([O-])[n-]c(=O)[n-]c2=O)cc1 (protonated)
O=C(N=c1[n-]cc[n-]1)c1ccc(Cc2c([O-])[n-]c(=O)[n-]c2=O)cc1 (3D coordinates assigned)
O=C(N=c1[n-]cc[n-]1)c1ccc(Cc2c([O-])[n-]c(=O)[n-]c2=O)cc1 (optimized conformer: 71.5928665742754 kcal/mol)

>  <smiles>  (60) 
O=C(N=c1[nH]cc[nH]1)c1ccc(Cc2c(O)[nH]c(=O)[nH]c2=O)cc1

>  <score_type>  (60) 
oracle

>  <origin>  (60) 
adg

>  <m_score__min__energy>  (60) 
-16.59

>  <m_primary>  (60) 
energy

$$$$
61:0
     RDKit          3D

 49 52  0  0  0  0  0  0  0  0999 V2000
   58.0680   32.1830   42.4470 C   0  0  0  0  0  0  0  0  0  0  0  0
   58.0750   32.7210   43.8520 C   0  0  0  0  0  0  0  0  0  0  0  0
   58.8700   33.8430   44.1440 C   0  0  0  0  0  0  0  0  0  0  0  0
   58.9380   34.3460   45.4450 C   0  0  0  0  0  0  0  0  0  0  0  0
   58.2140   33.7360   46.4700 C   0  0  0  0  0  0  0  0  0  0  0  0
   57.4040   32.6330   46.1920 C   0  0  0  0  0  0  0  0  0  0  0  0
   57.2980   32.1380   44.8850 C   0  0  0  0  0  0  0  0  0  0  0  0
   56.4320   31.0180   44.6550 N   0  0  0  0  0  0  0  0  0  0  0  0
   56.6700   29.6630   45.0610 C   0  0  0  0  0  0  0  0  0  0  0  0
   55.7570   28.8160   44.8710 O   0  0  0  0  0  0  0  0  0  0  0  0
   57.9340   29.2400   45.6210 N   0  0  0  0  0  0  0  0  0  0  0  0
   57.9740   28.2680   46.7340 C   0  0  0  0  0  0  0  0  0  0  0  0
   59.3160   28.3440   47.4890 C   0  0  2  0  0  0  0  0  0  0  0  0
   59.4600   29.6570   48.2570 C   0  0  0  0  0  0  0  0  0  0  0  0
   60.1710   30.5590   47.2590 C   0  0  1  0  0  0  0  0  0  0  0  0
   61.4920   31.0700   47.7870 C   0  0  0  0  0  0  0  0  0  0  0  0
   62.5000   31.0490   47.0300 O   0  0  0  0  0  0  0  0  0  0  0  0
   61.6170   31.5190   49.1480 N   0  0  0  0  0  0  0  0  0  0  0  0
   62.7630   32.2180   49.6620 C   0  0  0  0  0  0  0  0  0  0  0  0
   62.6410   33.4810   50.2720 C   0  0  0  0  0  0  0  0  0  0  0  0
   63.7690   34.1270   50.7870 C   0  0  0  0  0  0  0  0  0  0  0  0
   65.0230   33.5160   50.7100 C   0  0  0  0  0  0  0  0  0  0  0  0
   65.1490   32.2530   50.1280 C   0  0  0  0  0  0  0  0  0  0  0  0
   64.0240   31.6030   49.6120 C   0  0  0  0  0  0  0  0  0  0  0  0
   60.3590   29.6370   46.0430 C   0  0  2  0  0  0  0  0  0  0  0  0
   59.1870   29.7760   45.0480 C   0  0  0  0  0  0  0  0  0  0  0  0
   60.3520   28.3230   46.5390 O   0  0  0  0  0  0  0  0  0  0  0  0
   58.0537   31.0835   42.4755 H   0  0  0  0  0  0  0  0  0  0  0  0
   57.1745   32.5478   41.9191 H   0  0  0  0  0  0  0  0  0  0  0  0
   58.9707   32.5244   41.9191 H   0  0  0  0  0  0  0  0  0  0  0  0
   59.4434   34.3289   43.3408 H   0  0  0  0  0  0  0  0  0  0  0  0
   59.5633   35.2245   45.6621 H   0  0  0  0  0  0  0  0  0  0  0  0
   58.2813   34.1240   47.4971 H   0  0  0  0  0  0  0  0  0  0  0  0
   56.8444   32.1485   47.0057 H   0  0  0  0  0  0  0  0  0  0  0  0
   57.1549   28.4894   47.4340 H   0  0  0  0  0  0  0  0  0  0  0  0
   57.8639   27.2557   46.3180 H   0  0  0  0  0  0  0  0  0  0  0  0
   59.3577   27.4997   48.1929 H   0  0  0  0  0  0  0  0  0  0  0  0
   58.4759   30.0663   48.5290 H   0  0  0  0  0  0  0  0  0  0  0  0
   60.0037   29.5470   49.2069 H   0  0  0  0  0  0  0  0  0  0  0  0
   59.6048   31.4737   47.0295 H   0  0  0  0  0  0  0  0  0  0  0  0
   60.8640   31.2580   49.8240 H   0  0  0  0  0  0  0  0  0  0  0  0
   61.6541   33.9616   50.3437 H   0  0  0  0  0  0  0  0  0  0  0  0
   63.6689   35.1181   51.2536 H   0  0  0  0  0  0  0  0  0  0  0  0
   65.9107   34.0296   51.1077 H   0  0  0  0  0  0  0  0  0  0  0  0
   66.1352   31.7686   50.0754 H   0  0  0  0  0  0  0  0  0  0  0  0
   64.1275   30.6037   49.1641 H   0  0  0  0  0  0  0  0  0  0  0  0
   61.2906   29.8954   45.5182 H   0  0  0  0  0  0  0  0  0  0  0  0
   59.0452   30.8398   44.8068 H   0  0  0  0  0  0  0  0  0  0  0  0
   59.4293   29.2021   44.1414 H   0  0  0  0  0  0  0  0  0  0  0  0
  1  2  1  0
  2  3  2  0
  3  4  1  0
  4  5  2  0
  5  6  1  0
  6  7  2  0
  7  8  1  0
  8  9  1  0
  9 10  2  0
  9 11  1  0
 11 12  1  0
 12 13  1  0
 13 14  1  0
 14 15  1  0
 15 16  1  0
 16 17  2  0
 16 18  1  0
 18 19  1  0
 19 20  2  0
 20 21  1  0
 21 22  2  0
 22 23  1  0
 23 24  2  0
 15 25  1  0
 25 26  1  0
 25 27  1  0
  7  2  1  0
 26 11  1  0
 27 13  1  0
 24 19  1  0
  1 28  1  0
  1 29  1  0
  1 30  1  0
  3 31  1  0
  4 32  1  0
  5 33  1  0
  6 34  1  0
 12 35  1  0
 12 36  1  0
 13 37  1  1
 14 38  1  0
 14 39  1  0
 15 40  1  6
 18 41  1  0
 20 42  1  0
 21 43  1  0
 22 44  1  0
 23 45  1  0
 24 46  1  0
 25 47  1  6
 26 48  1  0
 26 49  1  0
M  CHG  1   8  -1
M  END
>  <UniqueID>  (61) 
53

>  <SMILES>  (61) 
Cc1ccccc1[N-]C(=O)N1CC2O[C@@H](C[C@H]2C(=O)Nc2ccccc2)C1

>  <Energy>  (61) 
70.00802202460302

>  <Genealogy>  (61) 
Cc1ccccc1[N-]C(=O)N1CC2CC(C(=O)Nc3ccccc3)C(C1)O2 (protonated)
Cc1ccccc1[N-]C(=O)N1CC2O[C@@H](C[C@H]2C(=O)Nc2ccccc2)C1 (chirality)
Cc1ccccc1[N-]C(=O)N1CC2O[C@@H](C[C@H]2C(=O)Nc2ccccc2)C1 (3D coordinates assigned)
Cc1ccccc1[N-]C(=O)N1CC2O[C@@H](C[C@H]2C(=O)Nc2ccccc2)C1 (nonaromatic ring conformer: 70.00802202460302 kcal/mol)

>  <smiles>  (61) 
Cc1ccccc1NC(=O)N1CC2CC(C(=O)Nc3ccccc3)C(C1)O2

>  <score_type>  (61) 
oracle

>  <origin>  (61) 
adg

>  <m_score__min__energy>  (61) 
-9.8599999999999994

>  <m_primary>  (61) 
energy

$$$$
62:0
     RDKit          3D

 50 53  0  0  0  0  0  0  0  0999 V2000
   59.9830   30.5690   49.5570 H   0  0  0  0  0  0  0  0  0  0  0  0
   59.9530   30.1920   48.6220 O   0  0  0  0  0  0  0  0  0  0  0  0
   59.2990   30.7770   47.5300 C   0  0  0  0  0  0  0  0  0  0  0  0
   59.4670   32.1560   47.3220 C   0  0  0  0  0  0  0  0  0  0  0  0
   60.3080   32.9620   48.2460 C   0  0  0  0  0  0  0  0  0  0  0  0
   60.9310   33.9660   47.8010 O   0  0  0  0  0  0  0  0  0  0  0  0
   60.3500   32.6420   49.6480 N   0  0  0  0  0  0  0  0  0  0  0  0
   59.3930   32.6870   50.5330 C   0  0  0  0  0  0  0  0  0  0  0  0
   58.4550   31.6980   50.5130 N   0  0  0  0  0  0  0  0  0  0  0  0
   57.4250   31.6520   51.3980 C   0  0  0  0  0  0  0  0  0  0  0  0
   56.6878   30.8376   51.3408 H   0  0  0  0  0  0  0  0  0  0  0  0
   57.3010   32.6360   52.3790 C   0  0  0  0  0  0  0  0  0  0  0  0
   56.4644   32.6089   53.0927 H   0  0  0  0  0  0  0  0  0  0  0  0
   58.2510   33.6540   52.4430 C   0  0  0  0  0  0  0  0  0  0  0  0
   58.1702   34.4331   53.2154 H   0  0  0  0  0  0  0  0  0  0  0  0
   59.3060   33.6860   51.5270 C   0  0  0  0  0  0  0  0  0  0  0  0
   60.0624   34.4829   51.5800 H   0  0  0  0  0  0  0  0  0  0  0  0
   58.8440   32.7690   46.2200 C   0  0  0  0  0  0  0  0  0  0  0  0
   59.0120   34.0100   46.0410 O   0  0  0  0  0  0  0  0  0  0  0  0
   58.0800   32.0440   45.3350 N   0  0  0  0  0  0  0  0  0  0  0  0
   57.4720   32.7490   44.1790 C   0  0  0  0  0  0  0  0  0  0  0  0
   57.5819   33.8342   44.3212 H   0  0  0  0  0  0  0  0  0  0  0  0
   56.4086   32.4736   44.1205 H   0  0  0  0  0  0  0  0  0  0  0  0
   58.1420   32.3510   42.8910 C   0  0  0  0  0  0  0  0  0  0  0  0
   59.2404   32.3069   42.8506 H   0  0  0  0  0  0  0  0  0  0  0  0
   57.4390   32.0500   41.7960 C   0  0  0  0  0  0  0  0  0  0  0  0
   57.9590   31.7628   40.8702 H   0  0  0  0  0  0  0  0  0  0  0  0
   56.3400   32.0893   41.8199 H   0  0  0  0  0  0  0  0  0  0  0  0
   57.8740   30.6910   45.5400 C   0  0  0  0  0  0  0  0  0  0  0  0
   57.0510   29.9250   44.6750 C   0  0  0  0  0  0  0  0  0  0  0  0
   56.5658   30.4155   43.8182 H   0  0  0  0  0  0  0  0  0  0  0  0
   56.8450   28.5640   44.8890 C   0  0  0  0  0  0  0  0  0  0  0  0
   56.2034   27.9948   44.2003 H   0  0  0  0  0  0  0  0  0  0  0  0
   57.4430   27.9190   45.9650 C   0  0  0  0  0  0  0  0  0  0  0  0
   57.1900   26.5200   46.1590 N   0  0  0  0  0  0  0  0  0  0  0  0
   56.0040   25.8090   45.7760 C   0  0  0  0  0  0  0  0  0  0  0  0
   54.8840   26.3310   46.0210 O   0  0  0  0  0  0  0  0  0  0  0  0
   56.0590   24.5120   45.0630 C   0  0  0  0  0  0  0  0  0  0  0  0
   56.5850   24.4420   43.7630 C   0  0  0  0  0  0  0  0  0  0  0  0
   56.9638   25.3497   43.2705 H   0  0  0  0  0  0  0  0  0  0  0  0
   56.6250   23.2140   43.0980 C   0  0  0  0  0  0  0  0  0  0  0  0
   57.0274   23.1563   42.0759 H   0  0  0  0  0  0  0  0  0  0  0  0
   56.1680   22.0910   43.7110 N   0  0  0  0  0  0  0  0  0  0  0  0
   55.6670   22.1230   44.9740 C   0  0  0  0  0  0  0  0  0  0  0  0
   55.3071   21.1964   45.4451 H   0  0  0  0  0  0  0  0  0  0  0  0
   55.6080   23.3290   45.6750 C   0  0  0  0  0  0  0  0  0  0  0  0
   55.2109   23.3536   46.7005 H   0  0  0  0  0  0  0  0  0  0  0  0
   58.2250   28.6590   46.8610 C   0  0  0  0  0  0  0  0  0  0  0  0
   58.6487   28.1613   47.7457 H   0  0  0  0  0  0  0  0  0  0  0  0
   58.4800   30.0330   46.6500 C   0  0  0  0  0  0  0  0  0  0  0  0
  1  2  1  0
  2  3  1  0
  3  4  2  0
  4  5  1  0
  5  6  2  0
  5  7  1  0
  7  8  2  0
  8  9  1  0
  9 10  1  0
 10 11  1  0
 10 12  2  0
 12 13  1  0
 12 14  1  0
 14 15  1  0
 14 16  2  0
 16 17  1  0
  4 18  1  0
 18 19  2  0
 18 20  1  0
 20 21  1  0
 21 22  1  0
 21 23  1  0
 21 24  1  0
 24 25  1  0
 24 26  2  0
 26 27  1  0
 26 28  1  0
 20 29  1  0
 29 30  2  0
 30 31  1  0
 30 32  1  0
 32 33  1  0
 32 34  2  0
 34 35  1  0
 35 36  1  0
 36 37  2  0
 36 38  1  0
 38 39  2  0
 39 40  1  0
 39 41  1  0
 41 42  1  0
 41 43  2  0
 43 44  1  0
 44 45  1  0
 44 46  2  0
 46 47  1  0
 34 48  1  0
 48 49  1  0
 48 50  2  0
 50  3  1  0
 16  8  1  0
 50 29  1  0
 46 38  1  0
M  CHG  2   9  -1  35  -1
M  END
>  <UniqueID>  (62) 
54

>  <SMILES>  (62) 
C=CCn1c(=O)c(C(=O)/N=c2\cccc[n-]2)c(O)c2cc([N-]C(=O)c3ccncc3)ccc21

>  <Energy>  (62) 
88.52819593060073

>  <Genealogy>  (62) 
C=CCn1c(=O)c(C(=O)N=c2cccc[n-]2)c(O)c2cc([N-]C(=O)c3ccncc3)ccc21 (protonated)
C=CCn1c(=O)c(C(=O)/N=c2\cccc[n-]2)c(O)c2cc([N-]C(=O)c3ccncc3)ccc21 (cis-trans isomerization)
C=CCn1c(=O)c(C(=O)/N=c2\cccc[n-]2)c(O)c2cc([N-]C(=O)c3ccncc3)ccc21 (3D coordinates assigned)
C=CCn1c(=O)c(C(=O)/N=c2\cccc[n-]2)c(O)c2cc([N-]C(=O)c3ccncc3)ccc21 (optimized conformer: 88.52819593060073 kcal/mol)

>  <smiles>  (62) 
C=CCn1c(=O)c(C(=O)N=c2cccc[nH]2)c(O)c2cc(NC(=O)c3ccncc3)ccc21

>  <score_type>  (62) 
oracle

>  <origin>  (62) 
adg

>  <m_score__min__energy>  (62) 
-12.050000000000001

>  <m_primary>  (62) 
energy

$$$$
63:0
     RDKit          3D

 32 34  0  0  0  0  0  0  0  0999 V2000
   64.8220   32.3830   47.0450 H   0  0  0  0  0  0  0  0  0  0  0  0
   64.4870   33.1760   47.5810 O   0  0  0  0  0  0  0  0  0  0  0  0
   63.1390   33.5210   47.6060 C   0  0  0  0  0  0  0  0  0  0  0  0
   62.4720   33.7890   46.4060 C   0  0  0  0  0  0  0  0  0  0  0  0
   63.0147   33.7257   45.4513 H   0  0  0  0  0  0  0  0  0  0  0  0
   61.1180   34.1370   46.4160 C   0  0  0  0  0  0  0  0  0  0  0  0
   60.5972   34.3395   45.4685 H   0  0  0  0  0  0  0  0  0  0  0  0
   60.4200   34.2290   47.6320 C   0  0  0  0  0  0  0  0  0  0  0  0
   58.9540   34.5640   47.6410 C   0  0  0  0  0  0  0  0  0  0  0  0
   58.8249   35.6399   47.4518 H   0  0  0  0  0  0  0  0  0  0  0  0
   58.5300   34.3046   48.6223 H   0  0  0  0  0  0  0  0  0  0  0  0
   58.2460   33.7860   46.5790 C   0  0  0  0  0  0  0  0  0  0  0  0
   57.5290   34.3230   45.6160 O   0  0  0  0  0  0  0  0  0  0  0  0
   56.9980   33.4070   44.8600 N   0  0  0  0  0  0  0  0  0  0  0  0
   57.3950   32.2210   45.3580 C   0  0  0  0  0  0  0  0  0  0  0  0
   57.0090   31.0850   44.8570 N   0  0  0  0  0  0  0  0  0  0  0  0
   57.7890   29.8820   44.7970 C   0  0  0  0  0  0  0  0  0  0  0  0
   58.9780   29.9480   44.3860 O   0  0  0  0  0  0  0  0  0  0  0  0
   57.2630   28.5930   45.2870 C   0  0  0  0  0  0  0  0  0  0  0  0
   55.9550   28.2610   45.2610 N   0  0  0  0  0  0  0  0  0  0  0  0
   55.9000   27.0350   45.8120 C   0  0  0  0  0  0  0  0  0  0  0  0
   54.7190   26.3240   45.9700 O   0  0  0  0  0  0  0  0  0  0  0  0
   57.1430   26.5840   46.1950 C   0  0  0  0  0  0  0  0  0  0  0  0
   57.3835   25.6208   46.6686 H   0  0  0  0  0  0  0  0  0  0  0  0
   58.0220   27.5890   45.8620 C   0  0  0  0  0  0  0  0  0  0  0  0
   59.1104   27.5934   46.0211 H   0  0  0  0  0  0  0  0  0  0  0  0
   58.1920   32.4130   46.4740 C   0  0  0  0  0  0  0  0  0  0  0  0
   58.6650   31.6566   47.1175 H   0  0  0  0  0  0  0  0  0  0  0  0
   61.0900   33.9460   48.8330 C   0  0  0  0  0  0  0  0  0  0  0  0
   60.5470   33.9976   49.7883 H   0  0  0  0  0  0  0  0  0  0  0  0
   62.4440   33.5990   48.8200 C   0  0  0  0  0  0  0  0  0  0  0  0
   62.9651   33.3867   49.7652 H   0  0  0  0  0  0  0  0  0  0  0  0
  1  2  1  0
  2  3  1  0
  3  4  2  0
  4  5  1  0
  4  6  1  0
  6  7  1  0
  6  8  2  0
  8  9  1  0
  9 10  1  0
  9 11  1  0
  9 12  1  0
 12 13  1  0
 13 14  1  0
 14 15  1  0
 15 16  2  0
 16 17  1  0
 17 18  2  0
 17 19  1  0
 19 20  1  0
 20 21  1  0
 21 22  1  0
 21 23  2  0
 23 24  1  0
 23 25  1  0
 25 26  1  0
 15 27  1  0
 27 28  1  0
  8 29  1  0
 29 30  1  0
 29 31  2  0
 31 32  1  0
 31  3  1  0
 27 12  2  0
 25 19  2  0
M  CHG  3  14  -1  20  -1  22  -1
M  END
>  <UniqueID>  (63) 
55

>  <SMILES>  (63) 
O=C(/N=c1\cc(Cc2ccc(O)cc2)o[n-]1)c1ccc([O-])[n-]1

>  <Energy>  (63) 
94.96559642266624

>  <Genealogy>  (63) 
O=C(N=c1cc(Cc2ccc(O)cc2)o[n-]1)c1ccc([O-])[n-]1 (protonated)
O=C(/N=c1\cc(Cc2ccc(O)cc2)o[n-]1)c1ccc([O-])[n-]1 (cis-trans isomerization)
O=C(/N=c1\cc(Cc2ccc(O)cc2)o[n-]1)c1ccc([O-])[n-]1 (3D coordinates assigned)
O=C(/N=c1\cc(Cc2ccc(O)cc2)o[n-]1)c1ccc([O-])[n-]1 (optimized conformer: 94.96559642266624 kcal/mol)

>  <smiles>  (63) 
O=C(N=c1cc(Cc2ccc(O)cc2)o[nH]1)c1ccc(O)[nH]1

>  <score_type>  (63) 
oracle

>  <origin>  (63) 
adg

>  <m_score__min__energy>  (63) 
-14.69

>  <m_primary>  (63) 
energy

$$$$
64:0
     RDKit          3D

 49 50  0  0  0  0  0  0  0  0999 V2000
   50.3910   24.8290   43.9390 C   0  0  0  0  0  0  0  0  0  0  0  0
   51.4670   24.0380   43.9020 C   0  0  0  0  0  0  0  0  0  0  0  0
   52.1570   23.5900   45.1560 C   0  0  0  0  0  0  0  0  0  0  0  0
   53.5720   23.3890   44.8860 N   0  0  0  0  0  0  0  0  0  0  0  0
   54.6090   24.2630   45.3410 C   0  0  0  0  0  0  0  0  0  0  0  0
   54.3380   25.4580   45.6360 O   0  0  0  0  0  0  0  0  0  0  0  0
   56.0120   23.8030   45.4290 C   0  0  0  0  0  0  0  0  0  0  0  0
   57.0590   24.3650   44.8010 C   0  0  0  0  0  0  0  0  0  0  0  0
   57.3650   25.8070   44.8130 C   0  0  0  0  0  0  0  0  0  0  0  0
   57.1450   26.5560   45.9750 C   0  0  0  0  0  0  0  0  0  0  0  0
   57.3790   27.9340   45.9790 C   0  0  0  0  0  0  0  0  0  0  0  0
   57.8520   28.5810   44.8230 C   0  0  0  0  0  0  0  0  0  0  0  0
   58.0810   30.0460   44.8120 C   0  0  0  0  0  0  0  0  0  0  0  0
   58.1960   30.6470   43.7100 O   0  0  0  0  0  0  0  0  0  0  0  0
   58.1140   30.7930   46.0390 N   0  0  0  0  0  0  0  0  0  0  0  0
   58.6930   32.1040   46.1580 C   0  0  0  0  0  0  0  0  0  0  0  0
   58.1740   33.1990   45.4480 C   0  0  0  0  0  0  0  0  0  0  0  0
   58.7630   34.4590   45.5660 C   0  0  0  0  0  0  0  0  0  0  0  0
   59.8830   34.6360   46.3800 C   0  0  0  0  0  0  0  0  0  0  0  0
   60.4360   33.5490   47.0790 C   0  0  0  0  0  0  0  0  0  0  0  0
   61.5950   33.7310   47.9190 N   0  0  0  0  0  0  0  0  0  0  0  0
   61.4370   34.1770   49.3030 C   0  0  0  0  0  0  0  0  0  0  0  0
   63.1910   33.3800   47.3200 S   0  0  0  0  0  0  0  0  0  0  0  0
   63.3800   31.6740   47.1060 N   0  0  0  0  0  0  0  0  0  0  0  0
   64.2230   33.8480   48.3080 O   0  0  0  0  0  0  0  0  0  0  0  0
   63.4030   34.0810   46.0080 O   0  0  0  0  0  0  0  0  0  0  0  0
   59.8310   32.2840   46.9600 C   0  0  0  0  0  0  0  0  0  0  0  0
   58.1190   27.8150   43.6750 C   0  0  0  0  0  0  0  0  0  0  0  0
   57.8810   26.4380   43.6710 C   0  0  0  0  0  0  0  0  0  0  0  0
   49.9057   25.1416   43.0026 H   0  0  0  0  0  0  0  0  0  0  0  0
   49.9904   25.1677   44.9058 H   0  0  0  0  0  0  0  0  0  0  0  0
   51.8564   23.7072   42.9279 H   0  0  0  0  0  0  0  0  0  0  0  0
   52.0378   24.3580   45.9344 H   0  0  0  0  0  0  0  0  0  0  0  0
   51.7121   22.6452   45.5016 H   0  0  0  0  0  0  0  0  0  0  0  0
   56.2158   22.9268   46.0620 H   0  0  0  0  0  0  0  0  0  0  0  0
   57.7344   23.7031   44.2391 H   0  0  0  0  0  0  0  0  0  0  0  0
   56.7867   26.0583   46.8882 H   0  0  0  0  0  0  0  0  0  0  0  0
   57.1919   28.5169   46.8929 H   0  0  0  0  0  0  0  0  0  0  0  0
   57.5930   30.4110   46.8620 H   0  0  0  0  0  0  0  0  0  0  0  0
   57.2989   33.0630   44.7956 H   0  0  0  0  0  0  0  0  0  0  0  0
   58.3435   35.3144   45.0162 H   0  0  0  0  0  0  0  0  0  0  0  0
   60.3363   35.6337   46.4752 H   0  0  0  0  0  0  0  0  0  0  0  0
   61.7251   33.3638   49.9854 H   0  0  0  0  0  0  0  0  0  0  0  0
   62.0801   35.0512   49.4822 H   0  0  0  0  0  0  0  0  0  0  0  0
   60.3870   34.4514   49.4822 H   0  0  0  0  0  0  0  0  0  0  0  0
   64.3910   31.4910   46.9210 H   0  0  0  0  0  0  0  0  0  0  0  0
   60.2550   31.4258   47.5020 H   0  0  0  0  0  0  0  0  0  0  0  0
   58.5181   28.3029   42.7735 H   0  0  0  0  0  0  0  0  0  0  0  0
   58.0990   25.8467   42.7694 H   0  0  0  0  0  0  0  0  0  0  0  0
  1  2  2  0
  2  3  1  0
  3  4  1  0
  4  5  1  0
  5  6  2  0
  5  7  1  0
  7  8  2  3
  8  9  1  0
  9 10  2  0
 10 11  1  0
 11 12  2  0
 12 13  1  0
 13 14  2  0
 13 15  1  0
 15 16  1  0
 16 17  2  0
 17 18  1  0
 18 19  2  0
 19 20  1  0
 20 21  1  0
 21 22  1  0
 21 23  1  0
 23 24  1  0
 23 25  2  0
 23 26  2  0
 20 27  2  0
 12 28  1  0
 28 29  2  0
 29  9  1  0
 27 16  1  0
  1 30  1  0
  1 31  1  0
  2 32  1  0
  3 33  1  0
  3 34  1  0
  7 35  1  0
  8 36  1  0
 10 37  1  0
 11 38  1  0
 15 39  1  0
 17 40  1  0
 18 41  1  0
 19 42  1  0
 22 43  1  0
 22 44  1  0
 22 45  1  0
 24 46  1  0
 27 47  1  0
 28 48  1  0
 29 49  1  0
M  CHG  2   4  -1  24  -1
M  END
>  <UniqueID>  (64) 
56

>  <SMILES>  (64) 
C=CC[N-]C(=O)C=Cc1ccc(C(=O)Nc2cccc(N(C)S([NH-])(=O)=O)c2)cc1

>  <Energy>  (64) 
57.97257585547689

>  <Genealogy>  (64) 
C=CC[N-]C(=O)C=Cc1ccc(C(=O)Nc2cccc(N(C)S([NH-])(=O)=O)c2)cc1 (protonated)
C=CC[N-]C(=O)C=Cc1ccc(C(=O)Nc2cccc(N(C)S([NH-])(=O)=O)c2)cc1 (3D coordinates assigned)
C=CC[N-]C(=O)C=Cc1ccc(C(=O)Nc2cccc(N(C)S([NH-])(=O)=O)c2)cc1 (optimized conformer: 57.97257585547689 kcal/mol)

>  <smiles>  (64) 
C=CCNC(=O)C=Cc1ccc(C(=O)Nc2cccc(N(C)S(N)(=O)=O)c2)cc1

>  <score_type>  (64) 
oracle

>  <origin>  (64) 
adg

>  <m_score__min__energy>  (64) 
-11.960000000000001

>  <m_primary>  (64) 
energy

$$$$
65:0
     RDKit          3D

 24 24  0  0  0  0  0  0  0  0999 V2000
   59.4290   26.1772   45.4571 H   0  0  0  0  0  0  0  0  0  0  0  0
   58.6080   26.7690   45.8880 C   0  0  0  0  0  0  0  0  0  0  0  0
   58.4670   28.1680   45.4290 C   0  0  0  0  0  0  0  0  0  0  0  0
   59.1330   29.0930   45.9690 O   0  0  0  0  0  0  0  0  0  0  0  0
   57.5230   28.4770   44.3940 N   0  0  0  0  0  0  0  0  0  0  0  0
   56.9070   27.7180   44.0240 H   0  0  0  0  0  0  0  0  0  0  0  0
   57.3520   29.8280   43.8630 C   0  0  0  0  0  0  0  0  0  0  0  0
   57.6354   29.8374   42.8002 H   0  0  0  0  0  0  0  0  0  0  0  0
   57.9922   30.5171   44.4333 H   0  0  0  0  0  0  0  0  0  0  0  0
   55.9010   30.2780   43.9990 C   0  0  0  0  0  0  0  0  0  0  0  0
   55.6405   30.3588   45.0647 H   0  0  0  0  0  0  0  0  0  0  0  0
   55.7741   31.2577   43.5152 H   0  0  0  0  0  0  0  0  0  0  0  0
   55.2420   29.5420   43.5152 H   0  0  0  0  0  0  0  0  0  0  0  0
   57.8180   26.1620   46.7860 C   0  0  0  0  0  0  0  0  0  0  0  0
   58.1274   26.1977   47.8410 H   0  0  0  0  0  0  0  0  0  0  0  0
   56.5620   25.4480   46.4660 C   0  0  0  0  0  0  0  0  0  0  0  0
   55.4590   26.1140   45.9040 C   0  0  0  0  0  0  0  0  0  0  0  0
   55.5200   27.4720   45.6130 O   0  0  0  0  0  0  0  0  0  0  0  0
   54.3120   25.4310   45.6530 N   0  0  0  0  0  0  0  0  0  0  0  0
   54.2010   24.1120   45.9530 C   0  0  0  0  0  0  0  0  0  0  0  0
   53.1290   23.4990   45.7070 O   0  0  0  0  0  0  0  0  0  0  0  0
   55.2420   23.4540   46.5230 N   0  0  0  0  0  0  0  0  0  0  0  0
   56.4120   24.0910   46.7920 C   0  0  0  0  0  0  0  0  0  0  0  0
   57.3560   23.4500   47.3270 O   0  0  0  0  0  0  0  0  0  0  0  0
  1  2  1  0
  2  3  1  0
  3  4  2  0
  3  5  1  0
  5  6  1  0
  5  7  1  0
  7  8  1  0
  7  9  1  0
  7 10  1  0
 10 11  1  0
 10 12  1  0
 10 13  1  0
  2 14  2  0
 14 15  1  0
 14 16  1  0
 16 17  2  0
 17 18  1  0
 17 19  1  0
 19 20  1  0
 20 21  2  0
 20 22  1  0
 22 23  1  0
 23 24  2  0
 23 16  1  0
M  CHG  3  18  -1  19  -1  22  -1
M  END
>  <UniqueID>  (65) 
57

>  <SMILES>  (65) 
CCNC(=O)/C=C\c1c([O-])[n-]c(=O)[n-]c1=O

>  <Energy>  (65) 
27.762657182208297

>  <Genealogy>  (65) 
CCNC(=O)C=Cc1c([O-])[n-]c(=O)[n-]c1=O (protonated)
CCNC(=O)/C=C\c1c([O-])[n-]c(=O)[n-]c1=O (cis-trans isomerization)
CCNC(=O)/C=C\c1c([O-])[n-]c(=O)[n-]c1=O (3D coordinates assigned)
CCNC(=O)/C=C\c1c([O-])[n-]c(=O)[n-]c1=O (optimized conformer: 27.762657182208297 kcal/mol)

>  <smiles>  (65) 
CCNC(=O)C=Cc1c(O)[nH]c(=O)[nH]c1=O

>  <score_type>  (65) 
oracle

>  <origin>  (65) 
adg

>  <m_score__min__energy>  (65) 
-13.77

>  <m_primary>  (65) 
energy

$$$$
66:0
     RDKit          3D

 59 62  0  0  0  0  0  0  0  0999 V2000
   62.9540   33.8270   46.3490 C   0  0  0  0  0  0  0  0  0  0  0  0
   63.5720   32.7250   46.7870 C   0  0  0  0  0  0  0  0  0  0  0  0
   62.9390   31.8060   47.7930 C   0  0  0  0  0  0  0  0  0  0  0  0
   63.1080   32.3590   49.1850 C   0  0  0  0  0  0  0  0  0  0  0  0
   64.1640   33.2440   49.4620 C   0  0  0  0  0  0  0  0  0  0  0  0
   64.3260   33.7700   50.7450 C   0  0  0  0  0  0  0  0  0  0  0  0
   63.4450   33.4120   51.7650 C   0  0  0  0  0  0  0  0  0  0  0  0
   62.3980   32.5240   51.5080 C   0  0  0  0  0  0  0  0  0  0  0  0
   62.2220   31.9860   50.2180 C   0  0  0  0  0  0  0  0  0  0  0  0
   61.1870   31.0810   49.9290 O   0  0  0  0  0  0  0  0  0  0  0  0
   59.8110   31.4300   49.8180 C   0  0  0  0  0  0  0  0  0  0  0  0
   59.6780   32.6720   48.9960 C   0  0  0  0  0  0  0  0  0  0  0  0
   59.7600   33.9170   49.5080 N   0  0  0  0  0  0  0  0  0  0  0  0
   59.6080   34.7620   48.4990 N   0  0  0  0  0  0  0  0  0  0  0  0
   59.4390   34.0200   47.3880 C   0  0  0  0  0  0  0  0  0  0  0  0
   59.2530   34.7270   45.7450 S   0  0  0  0  0  0  0  0  0  0  0  0
   57.5130   34.1990   45.5290 C   0  0  0  0  0  0  0  0  0  0  0  0
   57.4250   32.9840   44.6620 C   0  0  0  0  0  0  0  0  0  0  0  0
   58.0840   32.7970   43.4620 C   0  0  0  0  0  0  0  0  0  0  0  0
   57.8010   31.5040   43.0780 C   0  0  0  0  0  0  0  0  0  0  0  0
   56.9860   30.9900   44.0700 C   0  0  0  0  0  0  0  0  0  0  0  0
   56.5020   29.6110   44.1590 C   0  0  0  0  0  0  0  0  0  0  0  0
   55.4780   29.3570   44.8470 O   0  0  0  0  0  0  0  0  0  0  0  0
   57.2280   28.5550   43.5240 N   0  0  0  0  0  0  0  0  0  0  0  0
   57.7760   27.4180   44.2540 C   0  0  0  0  0  0  0  0  0  0  0  0
   58.6710   27.9120   45.3580 C   0  0  0  0  0  0  0  0  0  0  0  0
   59.8980   28.5280   45.0620 C   0  0  0  0  0  0  0  0  0  0  0  0
   60.7510   28.9310   46.0940 C   0  0  0  0  0  0  0  0  0  0  0  0
   60.3880   28.7180   47.4260 C   0  0  0  0  0  0  0  0  0  0  0  0
   59.1760   28.0940   47.7290 C   0  0  0  0  0  0  0  0  0  0  0  0
   58.3220   27.6840   46.7000 C   0  0  0  0  0  0  0  0  0  0  0  0
   56.7650   31.8990   44.9900 O   0  0  0  0  0  0  0  0  0  0  0  0
   59.4850   32.7000   47.6620 N   0  0  0  0  0  0  0  0  0  0  0  0
   59.2310   31.5710   46.7700 C   0  0  0  0  0  0  0  0  0  0  0  0
   63.4469   34.4778   45.6117 H   0  0  0  0  0  0  0  0  0  0  0  0
   61.9528   34.0827   46.7260 H   0  0  0  0  0  0  0  0  0  0  0  0
   64.5730   32.4843   46.3995 H   0  0  0  0  0  0  0  0  0  0  0  0
   61.8665   31.7068   47.5696 H   0  0  0  0  0  0  0  0  0  0  0  0
   63.4280   30.8223   47.7367 H   0  0  0  0  0  0  0  0  0  0  0  0
   64.8668   33.5238   48.6634 H   0  0  0  0  0  0  0  0  0  0  0  0
   65.1503   34.4684   50.9518 H   0  0  0  0  0  0  0  0  0  0  0  0
   63.5749   33.8299   52.7742 H   0  0  0  0  0  0  0  0  0  0  0  0
   61.7074   32.2433   52.3169 H   0  0  0  0  0  0  0  0  0  0  0  0
   59.2621   30.6089   49.3337 H   0  0  0  0  0  0  0  0  0  0  0  0
   59.3949   31.6069   50.8208 H   0  0  0  0  0  0  0  0  0  0  0  0
   57.0818   33.9695   46.5146 H   0  0  0  0  0  0  0  0  0  0  0  0
   56.9567   35.0155   45.0454 H   0  0  0  0  0  0  0  0  0  0  0  0
   58.7056   33.5284   42.9247 H   0  0  0  0  0  0  0  0  0  0  0  0
   58.1505   30.9883   42.1714 H   0  0  0  0  0  0  0  0  0  0  0  0
   56.9533   26.8288   44.6854 H   0  0  0  0  0  0  0  0  0  0  0  0
   58.3582   26.7877   43.5657 H   0  0  0  0  0  0  0  0  0  0  0  0
   60.1890   28.6940   44.0143 H   0  0  0  0  0  0  0  0  0  0  0  0
   61.7092   29.4164   45.8567 H   0  0  0  0  0  0  0  0  0  0  0  0
   61.0572   29.0420   48.2367 H   0  0  0  0  0  0  0  0  0  0  0  0
   58.8926   27.9247   48.7783 H   0  0  0  0  0  0  0  0  0  0  0  0
   57.3740   27.1814   46.9420 H   0  0  0  0  0  0  0  0  0  0  0  0
   59.0283   30.6700   47.3676 H   0  0  0  0  0  0  0  0  0  0  0  0
   58.3605   31.7937   46.1355 H   0  0  0  0  0  0  0  0  0  0  0  0
   60.1130   31.3994   46.1355 H   0  0  0  0  0  0  0  0  0  0  0  0
  1  2  2  0
  2  3  1  0
  3  4  1  0
  4  5  2  0
  5  6  1  0
  6  7  2  0
  7  8  1  0
  8  9  2  0
  9 10  1  0
 10 11  1  0
 11 12  1  0
 12 13  2  0
 13 14  1  0
 14 15  2  0
 15 16  1  0
 16 17  1  0
 17 18  1  0
 18 19  2  0
 19 20  1  0
 20 21  2  0
 21 22  1  0
 22 23  2  0
 22 24  1  0
 24 25  1  0
 25 26  1  0
 26 27  2  0
 27 28  1  0
 28 29  2  0
 29 30  1  0
 30 31  2  0
 21 32  1  0
 15 33  1  0
 33 34  1  0
  9  4  1  0
 33 12  1  0
 32 18  1  0
 31 26  1  0
  1 35  1  0
  1 36  1  0
  2 37  1  0
  3 38  1  0
  3 39  1  0
  5 40  1  0
  6 41  1  0
  7 42  1  0
  8 43  1  0
 11 44  1  0
 11 45  1  0
 17 46  1  0
 17 47  1  0
 19 48  1  0
 20 49  1  0
 25 50  1  0
 25 51  1  0
 27 52  1  0
 28 53  1  0
 29 54  1  0
 30 55  1  0
 31 56  1  0
 34 57  1  0
 34 58  1  0
 34 59  1  0
M  CHG  1  24  -1
M  END
>  <UniqueID>  (66) 
58

>  <SMILES>  (66) 
C=CCc1ccccc1OCc1nnc(SCc2ccc(C(=O)[N-]Cc3ccccc3)o2)n1C

>  <Energy>  (66) 
105.10868853711676

>  <Genealogy>  (66) 
C=CCc1ccccc1OCc1nnc(SCc2ccc(C(=O)[N-]Cc3ccccc3)o2)n1C (protonated)
C=CCc1ccccc1OCc1nnc(SCc2ccc(C(=O)[N-]Cc3ccccc3)o2)n1C (3D coordinates assigned)
C=CCc1ccccc1OCc1nnc(SCc2ccc(C(=O)[N-]Cc3ccccc3)o2)n1C (optimized conformer: 105.10868853711676 kcal/mol)

>  <smiles>  (66) 
C=CCc1ccccc1OCc1nnc(SCc2ccc(C(=O)NCc3ccccc3)o2)n1C

>  <score_type>  (66) 
oracle

>  <origin>  (66) 
adg

>  <m_score__min__energy>  (66) 
-11.210000000000001

>  <m_primary>  (66) 
energy

$$$$
67:0
     RDKit          3D

 36 38  0  0  0  0  0  0  0  0999 V2000
   55.8940   24.0970   44.4700 C   0  0  0  0  0  0  0  0  0  0  0  0
   55.5240   25.2150   45.8030 S   0  0  0  0  0  0  0  0  0  0  0  0
   54.1410   25.7720   45.6230 O   0  0  0  0  0  0  0  0  0  0  0  0
   55.5890   24.4820   47.1130 O   0  0  0  0  0  0  0  0  0  0  0  0
   56.6870   26.5260   45.8080 C   0  0  0  0  0  0  0  0  0  0  0  0
   57.9080   26.3490   46.3800 N   0  0  0  0  0  0  0  0  0  0  0  0
   58.8250   27.3510   46.4070 C   0  0  0  0  0  0  0  0  0  0  0  0
   59.9460   27.1470   46.9440 O   0  0  0  0  0  0  0  0  0  0  0  0
   58.5110   28.5960   45.8380 C   0  0  0  0  0  0  0  0  0  0  0  0
   59.4080   29.6750   45.8200 C   0  0  0  0  0  0  0  0  0  0  0  0
   59.0430   30.8580   45.2540 N   0  0  0  0  0  0  0  0  0  0  0  0
   57.8020   31.0420   44.7090 C   0  0  0  0  0  0  0  0  0  0  0  0
   57.4240   32.3310   44.0900 C   0  0  0  0  0  0  0  0  0  0  0  0
   57.4920   33.5280   44.6960 C   0  0  0  0  0  0  0  0  0  0  0  0
   58.3570   33.8550   45.8510 C   0  0  0  0  0  0  0  0  0  0  0  0
   59.4960   34.6710   45.7130 C   0  0  0  0  0  0  0  0  0  0  0  0
   60.3070   34.9420   46.8180 C   0  0  0  0  0  0  0  0  0  0  0  0
   60.0030   34.3870   48.0640 C   0  0  0  0  0  0  0  0  0  0  0  0
   58.8910   33.5500   48.2020 C   0  0  0  0  0  0  0  0  0  0  0  0
   58.0770   33.2770   47.1000 C   0  0  0  0  0  0  0  0  0  0  0  0
   56.8900   29.9790   44.6810 C   0  0  0  0  0  0  0  0  0  0  0  0
   57.2410   28.7560   45.2540 C   0  0  0  0  0  0  0  0  0  0  0  0
   56.3600   27.7220   45.2540 N   0  0  0  0  0  0  0  0  0  0  0  0
   56.2145   23.1287   44.8819 H   0  0  0  0  0  0  0  0  0  0  0  0
   54.9955   23.9533   43.8519 H   0  0  0  0  0  0  0  0  0  0  0  0
   56.7008   24.5177   43.8519 H   0  0  0  0  0  0  0  0  0  0  0  0
   60.4082   29.5646   46.2642 H   0  0  0  0  0  0  0  0  0  0  0  0
   59.7480   31.6270   45.2270 H   0  0  0  0  0  0  0  0  0  0  0  0
   57.0588   32.3077   43.0527 H   0  0  0  0  0  0  0  0  0  0  0  0
   56.8521   34.3309   44.3011 H   0  0  0  0  0  0  0  0  0  0  0  0
   59.7485   35.0971   44.7308 H   0  0  0  0  0  0  0  0  0  0  0  0
   61.1864   35.5934   46.7070 H   0  0  0  0  0  0  0  0  0  0  0  0
   60.6374   34.6081   48.9350 H   0  0  0  0  0  0  0  0  0  0  0  0
   58.6568   33.1056   49.1806 H   0  0  0  0  0  0  0  0  0  0  0  0
   57.2125   32.6060   47.2111 H   0  0  0  0  0  0  0  0  0  0  0  0
   55.9040   30.1075   44.2106 H   0  0  0  0  0  0  0  0  0  0  0  0
  1  2  1  0
  2  3  2  0
  2  4  2  0
  2  5  1  0
  5  6  2  0
  6  7  1  0
  7  8  2  0
  7  9  1  0
  9 10  2  0
 10 11  1  0
 11 12  2  0
 12 13  1  0
 13 14  2  3
 14 15  1  0
 15 16  2  0
 16 17  1  0
 17 18  2  0
 18 19  1  0
 19 20  2  0
 12 21  1  0
 21 22  2  0
 22 23  1  0
 23  5  1  0
 22  9  1  0
 20 15  1  0
  1 24  1  0
  1 25  1  0
  1 26  1  0
 10 27  1  0
 11 28  1  0
 13 29  1  0
 14 30  1  0
 16 31  1  0
 17 32  1  0
 18 33  1  0
 19 34  1  0
 20 35  1  0
 21 36  1  0
M  CHG  2  11   1  23  -1
M  END
>  <UniqueID>  (67) 
59

>  <SMILES>  (67) 
CS(=O)(=O)c1nc(=O)c2c[nH+]c(C=Cc3ccccc3)cc2[n-]1

>  <Energy>  (67) 
49.3505369160015

>  <Genealogy>  (67) 
CS(=O)(=O)c1nc(=O)c2c[nH+]c(C=Cc3ccccc3)cc2[n-]1 (protonated)
CS(=O)(=O)c1nc(=O)c2c[nH+]c(C=Cc3ccccc3)cc2[n-]1 (3D coordinates assigned)
CS(=O)(=O)c1nc(=O)c2c[nH+]c(C=Cc3ccccc3)cc2[n-]1 (optimized conformer: 49.3505369160015 kcal/mol)

>  <smiles>  (67) 
CS(=O)(=O)c1nc(=O)c2cnc(C=Cc3ccccc3)cc2[nH]1

>  <score_type>  (67) 
oracle

>  <origin>  (67) 
adg

>  <m_score__min__energy>  (67) 
-8.4700000000000006

>  <m_primary>  (67) 
energy

$$$$
68:0
     RDKit          3D

 42 44  0  0  0  0  0  0  0  0999 V2000
   55.1520   29.3360   44.8090 N   0  0  0  0  0  0  0  0  0  0  0  0
   56.8720   29.5520   44.8110 S   0  0  0  0  0  0  0  0  0  0  0  0
   57.2140   30.8800   45.4240 O   0  0  0  0  0  0  0  0  0  0  0  0
   57.3450   29.5370   43.3850 O   0  0  0  0  0  0  0  0  0  0  0  0
   57.6590   28.2550   45.7280 C   0  0  0  0  0  0  0  0  0  0  0  0
   56.9220   27.0880   45.9750 C   0  0  0  0  0  0  0  0  0  0  0  0
   57.4360   26.0740   46.7860 C   0  0  0  0  0  0  0  0  0  0  0  0
   56.4160   24.4960   47.1090 Br  0  0  0  0  0  0  0  0  0  0  0  0
   58.7070   26.2090   47.3510 C   0  0  0  0  0  0  0  0  0  0  0  0
   59.4700   27.3500   47.0960 C   0  0  0  0  0  0  0  0  0  0  0  0
   58.9720   28.3760   46.2680 C   0  0  0  0  0  0  0  0  0  0  0  0
   59.8230   29.5600   46.0340 C   0  0  0  0  0  0  0  0  0  0  0  0
   60.2950   29.7700   44.8830 O   0  0  0  0  0  0  0  0  0  0  0  0
   60.0750   30.4630   47.1110 N   0  0  0  0  0  0  0  0  0  0  0  0
   61.0430   31.5250   47.1250 C   0  0  0  0  0  0  0  0  0  0  0  0
   62.3620   31.1840   47.4620 C   0  0  0  0  0  0  0  0  0  0  0  0
   63.3580   32.1550   47.5350 C   0  0  0  0  0  0  0  0  0  0  0  0
   63.0560   33.4830   47.2380 C   0  0  0  0  0  0  0  0  0  0  0  0
   61.7570   33.8410   46.8670 C   0  0  0  0  0  0  0  0  0  0  0  0
   60.7370   32.8720   46.8000 C   0  0  0  0  0  0  0  0  0  0  0  0
   59.4260   33.2650   46.3430 N   0  0  0  0  0  0  0  0  0  0  0  0
   58.3810   33.5500   47.3320 C   0  0  0  0  0  0  0  0  0  0  0  0
   56.9990   33.4750   46.6800 C   0  0  0  0  0  0  0  0  0  0  0  0
   56.9410   34.2750   45.5150 O   0  0  0  0  0  0  0  0  0  0  0  0
   57.8410   33.7870   44.5340 C   0  0  0  0  0  0  0  0  0  0  0  0
   59.2950   33.8680   45.0180 C   0  0  0  0  0  0  0  0  0  0  0  0
   54.8290   29.4120   45.7910 H   0  0  0  0  0  0  0  0  0  0  0  0
   55.9257   26.9696   45.5240 H   0  0  0  0  0  0  0  0  0  0  0  0
   59.1072   25.4145   47.9981 H   0  0  0  0  0  0  0  0  0  0  0  0
   60.4691   27.4491   47.5455 H   0  0  0  0  0  0  0  0  0  0  0  0
   62.6131   30.1338   47.6717 H   0  0  0  0  0  0  0  0  0  0  0  0
   64.3809   31.8744   47.8265 H   0  0  0  0  0  0  0  0  0  0  0  0
   63.8417   34.2507   47.2957 H   0  0  0  0  0  0  0  0  0  0  0  0
   61.5290   34.8896   46.6250 H   0  0  0  0  0  0  0  0  0  0  0  0
   58.4394   32.8112   48.1449 H   0  0  0  0  0  0  0  0  0  0  0  0
   58.5336   34.5632   47.7322 H   0  0  0  0  0  0  0  0  0  0  0  0
   56.7858   32.4304   46.4093 H   0  0  0  0  0  0  0  0  0  0  0  0
   56.2537   33.8486   47.3976 H   0  0  0  0  0  0  0  0  0  0  0  0
   57.5953   32.7378   44.3133 H   0  0  0  0  0  0  0  0  0  0  0  0
   57.7411   34.4094   43.6325 H   0  0  0  0  0  0  0  0  0  0  0  0
   59.9431   33.3309   44.3098 H   0  0  0  0  0  0  0  0  0  0  0  0
   59.5929   34.9253   45.0764 H   0  0  0  0  0  0  0  0  0  0  0  0
  1  2  1  0
  2  3  2  0
  2  4  2  0
  2  5  1  0
  5  6  2  0
  6  7  1  0
  7  8  1  0
  7  9  2  0
  9 10  1  0
 10 11  2  0
 11 12  1  0
 12 13  2  0
 12 14  1  0
 14 15  1  0
 15 16  2  0
 16 17  1  0
 17 18  2  0
 18 19  1  0
 19 20  2  0
 20 21  1  0
 21 22  1  0
 22 23  1  0
 23 24  1  0
 24 25  1  0
 25 26  1  0
 11  5  1  0
 20 15  1  0
 26 21  1  0
  1 27  1  0
  6 28  1  0
  9 29  1  0
 10 30  1  0
 16 31  1  0
 17 32  1  0
 18 33  1  0
 19 34  1  0
 22 35  1  0
 22 36  1  0
 23 37  1  0
 23 38  1  0
 25 39  1  0
 25 40  1  0
 26 41  1  0
 26 42  1  0
M  CHG  2   1  -1  14  -1
M  END
>  <UniqueID>  (68) 
60

>  <SMILES>  (68) 
[NH-]S(=O)(=O)c1cc(Br)ccc1C(=O)[N-]c1ccccc1N1CCOCC1

>  <Energy>  (68) 
63.86130883542708

>  <Genealogy>  (68) 
[NH-]S(=O)(=O)c1cc(Br)ccc1C(=O)[N-]c1ccccc1N1CCOCC1 (protonated)
[NH-]S(=O)(=O)c1cc(Br)ccc1C(=O)[N-]c1ccccc1N1CCOCC1 (3D coordinates assigned)
[NH-]S(=O)(=O)c1cc(Br)ccc1C(=O)[N-]c1ccccc1N1CCOCC1 (nonaromatic ring conformer: 63.86130883542708 kcal/mol)

>  <smiles>  (68) 
NS(=O)(=O)c1cc(Br)ccc1C(=O)Nc1ccccc1N1CCOCC1

>  <score_type>  (68) 
oracle

>  <origin>  (68) 
adg

>  <m_score__min__energy>  (68) 
-12.44

>  <m_primary>  (68) 
energy

$$$$
69:0
     RDKit          3D

 38 40  0  0  0  0  0  0  0  0999 V2000
   57.3450   30.5080   42.9820 O   0  0  0  0  0  0  0  0  0  0  0  0
   56.9960   30.4630   44.1890 C   0  0  0  0  0  0  0  0  0  0  0  0
   56.7240   31.6970   44.8710 N   0  0  0  0  0  0  0  0  0  0  0  0
   57.3910   32.9790   44.6460 C   0  0  0  0  0  0  0  0  0  0  0  0
   58.1970   33.3870   45.8520 C   0  0  0  0  0  0  0  0  0  0  0  0
   59.0410   34.5080   45.7900 C   0  0  0  0  0  0  0  0  0  0  0  0
   59.7800   34.8970   46.9110 C   0  0  0  0  0  0  0  0  0  0  0  0
   59.6860   34.1690   48.1000 C   0  0  0  0  0  0  0  0  0  0  0  0
   60.4190   34.5590   49.2140 O   0  0  0  0  0  0  0  0  0  0  0  0
   58.8560   33.0460   48.1670 C   0  0  0  0  0  0  0  0  0  0  0  0
   58.1180   32.6520   47.0470 C   0  0  0  0  0  0  0  0  0  0  0  0
   56.8380   29.1480   44.8310 C   0  0  0  0  0  0  0  0  0  0  0  0
   57.8630   28.2930   45.2000 C   0  0  0  0  0  0  0  0  0  0  0  0
   57.2510   27.1790   45.7320 C   0  0  0  0  0  0  0  0  0  0  0  0
   57.9300   25.9350   46.2160 C   0  0  0  0  0  0  0  0  0  0  0  0
   57.5180   24.7550   45.3760 C   0  0  0  0  0  0  0  0  0  0  0  0
   57.2820   24.9270   44.0000 C   0  0  0  0  0  0  0  0  0  0  0  0
   56.9330   23.8350   43.2000 C   0  0  0  0  0  0  0  0  0  0  0  0
   56.8250   22.5610   43.7620 C   0  0  0  0  0  0  0  0  0  0  0  0
   57.0690   22.3760   45.1250 C   0  0  0  0  0  0  0  0  0  0  0  0
   57.4200   23.4640   45.9330 C   0  0  0  0  0  0  0  0  0  0  0  0
   57.6690   23.2540   47.2850 O   0  0  0  0  0  0  0  0  0  0  0  0
   55.8960   27.3990   45.6250 C   0  0  0  0  0  0  0  0  0  0  0  0
   54.9070   26.5050   46.0180 O   0  0  0  0  0  0  0  0  0  0  0  0
   55.6290   28.5970   45.0720 N   0  0  0  0  0  0  0  0  0  0  0  0
   58.0617   32.8883   43.7789 H   0  0  0  0  0  0  0  0  0  0  0  0
   56.6240   33.7456   44.4612 H   0  0  0  0  0  0  0  0  0  0  0  0
   59.1208   35.0823   44.8552 H   0  0  0  0  0  0  0  0  0  0  0  0
   60.4367   35.7778   46.8570 H   0  0  0  0  0  0  0  0  0  0  0  0
   58.7835   32.4716   49.1023 H   0  0  0  0  0  0  0  0  0  0  0  0
   57.4727   31.7628   47.1014 H   0  0  0  0  0  0  0  0  0  0  0  0
   58.9436   28.4674   45.0908 H   0  0  0  0  0  0  0  0  0  0  0  0
   59.0200   26.0663   46.1477 H   0  0  0  0  0  0  0  0  0  0  0  0
   57.6378   25.7507   47.2603 H   0  0  0  0  0  0  0  0  0  0  0  0
   57.3726   25.9269   43.5507 H   0  0  0  0  0  0  0  0  0  0  0  0
   56.7431   23.9794   42.1262 H   0  0  0  0  0  0  0  0  0  0  0  0
   56.5478   21.7033   43.1314 H   0  0  0  0  0  0  0  0  0  0  0  0
   56.9850   21.3714   45.5651 H   0  0  0  0  0  0  0  0  0  0  0  0
  1  2  2  0
  2  3  1  0
  3  4  1  0
  4  5  1  0
  5  6  2  0
  6  7  1  0
  7  8  2  0
  8  9  1  0
  8 10  1  0
 10 11  2  0
  2 12  1  0
 12 13  2  0
 13 14  1  0
 14 15  1  0
 15 16  1  0
 16 17  2  0
 17 18  1  0
 18 19  2  0
 19 20  1  0
 20 21  2  0
 21 22  1  0
 14 23  2  0
 23 24  1  0
 23 25  1  0
 11  5  1  0
 25 12  1  0
 21 16  1  0
  4 26  1  0
  4 27  1  0
  6 28  1  0
  7 29  1  0
 10 30  1  0
 11 31  1  0
 13 32  1  0
 15 33  1  0
 15 34  1  0
 17 35  1  0
 18 36  1  0
 19 37  1  0
 20 38  1  0
M  CHG  5   3  -1   9  -1  22  -1  24  -1  25  -1
M  END
>  <UniqueID>  (69) 
61

>  <SMILES>  (69) 
O=C([N-]Cc1ccc([O-])cc1)c1cc(Cc2ccccc2[O-])c([O-])[n-]1

>  <Energy>  (69) 
66.41859762653363

>  <Genealogy>  (69) 
O=C([N-]Cc1ccc([O-])cc1)c1cc(Cc2ccccc2[O-])c([O-])[n-]1 (protonated)
O=C([N-]Cc1ccc([O-])cc1)c1cc(Cc2ccccc2[O-])c([O-])[n-]1 (3D coordinates assigned)
O=C([N-]Cc1ccc([O-])cc1)c1cc(Cc2ccccc2[O-])c([O-])[n-]1 (optimized conformer: 66.41859762653363 kcal/mol)

>  <smiles>  (69) 
O=C(NCc1ccc(O)cc1)c1cc(Cc2ccccc2O)c(O)[nH]1

>  <score_type>  (69) 
oracle

>  <origin>  (69) 
adg

>  <m_score__min__energy>  (69) 
-17.68

>  <m_primary>  (69) 
energy

$$$$
70:0
     RDKit          3D

 57 60  0  0  0  0  0  0  0  0999 V2000
   60.6642   25.6691   46.3213 H   0  0  0  0  0  0  0  0  0  0  0  0
   60.3100   26.6270   46.7300 C   0  0  0  0  0  0  0  0  0  0  0  0
   60.7590   27.0550   47.9390 N   0  0  0  0  0  0  0  0  0  0  0  0
   60.3480   28.2270   48.4920 C   0  0  0  0  0  0  0  0  0  0  0  0
   60.8370   28.5730   49.6490 N   0  0  0  0  0  0  0  0  0  0  0  0
   60.8080   29.9130   50.2320 C   0  0  0  0  0  0  0  0  0  0  0  0
   60.2340   30.5819   49.5739 H   0  0  0  0  0  0  0  0  0  0  0  0
   60.3350   29.8596   51.2237 H   0  0  0  0  0  0  0  0  0  0  0  0
   62.2310   30.4600   50.3900 C   0  0  0  0  0  0  0  0  0  0  0  0
   62.3716   30.8014   51.4262 H   0  0  0  0  0  0  0  0  0  0  0  0
   62.9427   29.6572   50.1474 H   0  0  0  0  0  0  0  0  0  0  0  0
   62.4710   31.5940   49.4710 N   0  0  0  0  0  0  0  0  0  0  0  0
   63.8720   32.0500   49.5630 C   0  0  0  0  0  0  0  0  0  0  0  0
   64.0652   32.4200   50.5807 H   0  0  0  0  0  0  0  0  0  0  0  0
   64.5354   31.2034   49.3324 H   0  0  0  0  0  0  0  0  0  0  0  0
   64.1440   33.1830   48.5520 C   0  0  0  0  0  0  0  0  0  0  0  0
   64.5050   34.0677   49.0969 H   0  0  0  0  0  0  0  0  0  0  0  0
   64.8973   32.8275   47.8335 H   0  0  0  0  0  0  0  0  0  0  0  0
   62.9780   33.5330   47.8310 O   0  0  0  0  0  0  0  0  0  0  0  0
   62.5040   32.4050   47.1220 C   0  0  0  0  0  0  0  0  0  0  0  0
   61.6030   32.6902   46.5591 H   0  0  0  0  0  0  0  0  0  0  0  0
   63.3008   32.0659   46.4437 H   0  0  0  0  0  0  0  0  0  0  0  0
   62.1530   31.2420   48.0720 C   0  0  0  0  0  0  0  0  0  0  0  0
   61.0784   31.0216   47.9908 H   0  0  0  0  0  0  0  0  0  0  0  0
   62.7468   30.3613   47.7860 H   0  0  0  0  0  0  0  0  0  0  0  0
   59.4220   29.0280   47.7920 C   0  0  0  0  0  0  0  0  0  0  0  0
   59.0706   29.9740   48.2297 H   0  0  0  0  0  0  0  0  0  0  0  0
   58.9490   28.6160   46.5350 C   0  0  0  0  0  0  0  0  0  0  0  0
   58.0030   29.4710   45.7720 C   0  0  0  0  0  0  0  0  0  0  0  0
   56.8030   28.9370   45.2820 C   0  0  0  0  0  0  0  0  0  0  0  0
   56.5454   27.8821   45.4577 H   0  0  0  0  0  0  0  0  0  0  0  0
   55.9430   29.7690   44.5680 C   0  0  0  0  0  0  0  0  0  0  0  0
   54.8590   29.3170   44.1120 O   0  0  0  0  0  0  0  0  0  0  0  0
   56.2720   31.0700   44.3660 N   0  0  0  0  0  0  0  0  0  0  0  0
   57.4320   31.5890   44.8430 C   0  0  0  0  0  0  0  0  0  0  0  0
   57.6910   32.8450   44.6170 N   0  0  0  0  0  0  0  0  0  0  0  0
   57.4260   33.9550   45.5270 C   0  0  0  0  0  0  0  0  0  0  0  0
   56.3674   33.9409   45.8255 H   0  0  0  0  0  0  0  0  0  0  0  0
   57.6495   34.9068   45.0228 H   0  0  0  0  0  0  0  0  0  0  0  0
   58.2970   33.8140   46.7510 C   0  0  0  0  0  0  0  0  0  0  0  0
   57.9450   32.8570   47.7230 C   0  0  0  0  0  0  0  0  0  0  0  0
   57.0663   32.2149   47.5632 H   0  0  0  0  0  0  0  0  0  0  0  0
   58.7020   32.7170   48.8870 C   0  0  0  0  0  0  0  0  0  0  0  0
   58.4230   31.9606   49.6353 H   0  0  0  0  0  0  0  0  0  0  0  0
   59.8130   33.5350   49.1040 C   0  0  0  0  0  0  0  0  0  0  0  0
   60.4083   33.4211   50.0219 H   0  0  0  0  0  0  0  0  0  0  0  0
   60.1690   34.4980   48.1560 C   0  0  0  0  0  0  0  0  0  0  0  0
   61.0475   35.1363   48.3314 H   0  0  0  0  0  0  0  0  0  0  0  0
   59.4150   34.6590   46.9800 C   0  0  0  0  0  0  0  0  0  0  0  0
   59.8290   35.7070   45.9810 C   0  0  0  0  0  0  0  0  0  0  0  0
   60.1826   36.6021   46.5138 H   0  0  0  0  0  0  0  0  0  0  0  0
   60.6387   35.3123   45.3497 H   0  0  0  0  0  0  0  0  0  0  0  0
   58.9681   35.9722   45.3497 H   0  0  0  0  0  0  0  0  0  0  0  0
   58.2940   30.7870   45.5420 N   0  0  0  0  0  0  0  0  0  0  0  0
   59.2020   31.1670   45.8900 H   0  0  0  0  0  0  0  0  0  0  0  0
   59.4020   27.3980   46.0060 C   0  0  0  0  0  0  0  0  0  0  0  0
   59.0425   27.0533   45.0252 H   0  0  0  0  0  0  0  0  0  0  0  0
  1  2  1  0
  2  3  1  0
  3  4  1  0
  4  5  2  0
  5  6  1  0
  6  7  1  0
  6  8  1  0
  6  9  1  0
  9 10  1  0
  9 11  1  0
  9 12  1  0
 12 13  1  0
 13 14  1  0
 13 15  1  0
 13 16  1  0
 16 17  1  0
 16 18  1  0
 16 19  1  0
 19 20  1  0
 20 21  1  0
 20 22  1  0
 20 23  1  0
 23 24  1  0
 23 25  1  0
  4 26  1  0
 26 27  1  0
 26 28  2  0
 28 29  1  0
 29 30  2  0
 30 31  1  0
 30 32  1  0
 32 33  2  0
 32 34  1  0
 34 35  1  0
 35 36  2  3
 36 37  1  0
 37 38  1  0
 37 39  1  0
 37 40  1  0
 40 41  2  0
 41 42  1  0
 41 43  1  0
 43 44  1  0
 43 45  2  0
 45 46  1  0
 45 47  1  0
 47 48  1  0
 47 49  2  0
 49 50  1  0
 50 51  1  0
 50 52  1  0
 50 53  1  0
 35 54  1  0
 54 55  1  0
 28 56  1  0
 56 57  1  0
 56  2  2  0
 23 12  1  0
 54 29  1  0
 49 40  1  0
M  CHG  2   3  -1  34  -1
M  END
>  <UniqueID>  (70) 
62

>  <SMILES>  (70) 
Cc1ccccc1CN=c1[n-]c(=O)cc(-c2cc[n-]/c(=N/CCN3CCOCC3)c2)[nH]1

>  <Energy>  (70) 
78.17779737646026

>  <Genealogy>  (70) 
Cc1ccccc1CN=c1[n-]c(=O)cc(-c2cc[n-]c(=NCCN3CCOCC3)c2)[nH]1 (protonated)
Cc1ccccc1CN=c1[n-]c(=O)cc(-c2cc[n-]/c(=N/CCN3CCOCC3)c2)[nH]1 (cis-trans isomerization)
Cc1ccccc1CN=c1[n-]c(=O)cc(-c2cc[n-]/c(=N/CCN3CCOCC3)c2)[nH]1 (3D coordinates assigned)
Cc1ccccc1CN=c1[n-]c(=O)cc(-c2cc[n-]/c(=N/CCN3CCOCC3)c2)[nH]1 (nonaromatic ring conformer: 78.17779737646026 kcal/mol)

>  <smiles>  (70) 
Cc1ccccc1CN=c1[nH]c(-c2cc[nH]c(=NCCN3CCOCC3)c2)cc(=O)[nH]1

>  <score_type>  (70) 
oracle

>  <origin>  (70) 
adg

>  <m_score__min__energy>  (70) 
-12.1

>  <m_primary>  (70) 
energy

$$$$
71:0
     RDKit          3D

 55 58  0  0  0  0  0  0  0  0999 V2000
   57.5630   34.2320   45.9170 O   0  0  0  0  0  0  0  0  0  0  0  0
   58.0830   33.2180   46.4560 C   0  0  0  0  0  0  0  0  0  0  0  0
   58.4990   33.2960   47.8980 C   0  0  0  0  0  0  0  0  0  0  0  0
   59.5930   34.3530   48.1200 C   0  0  0  0  0  0  0  0  0  0  0  0
   60.9760   33.7490   48.1020 C   0  0  0  0  0  0  0  0  0  0  0  0
   61.3180   32.7760   47.1460 C   0  0  0  0  0  0  0  0  0  0  0  0
   62.6130   32.2410   47.1150 C   0  0  0  0  0  0  0  0  0  0  0  0
   63.5720   32.6750   48.0360 C   0  0  0  0  0  0  0  0  0  0  0  0
   63.2380   33.6460   48.9870 C   0  0  0  0  0  0  0  0  0  0  0  0
   61.9480   34.1840   49.0200 C   0  0  0  0  0  0  0  0  0  0  0  0
   58.3230   32.0260   45.6920 N   0  0  0  0  0  0  0  0  0  0  0  0
   57.8790   31.8390   44.3310 C   0  0  0  0  0  0  0  0  0  0  0  0
   58.1930   32.7870   43.3380 C   0  0  0  0  0  0  0  0  0  0  0  0
   57.7750   32.5980   42.0150 C   0  0  0  0  0  0  0  0  0  0  0  0
   57.0230   31.4730   41.6720 C   0  0  0  0  0  0  0  0  0  0  0  0
   56.6700   30.5460   42.6510 C   0  0  0  0  0  0  0  0  0  0  0  0
   57.0790   30.7250   43.9800 C   0  0  0  0  0  0  0  0  0  0  0  0
   56.5420   29.5140   45.1970 S   0  0  0  0  0  0  0  0  0  0  0  0
   58.2060   29.1470   45.7380 C   0  0  0  0  0  0  0  0  0  0  0  0
   59.1100   28.5420   44.8660 C   0  0  0  0  0  0  0  0  0  0  0  0
   60.4130   28.3210   45.3080 C   0  0  0  0  0  0  0  0  0  0  0  0
   60.7760   28.6990   46.5610 N   0  0  0  0  0  0  0  0  0  0  0  0
   59.8830   29.2900   47.3980 C   0  0  0  0  0  0  0  0  0  0  0  0
   60.3910   29.7880   49.0390 S   0  0  0  0  0  0  0  0  0  0  0  0
   58.6900   30.0720   49.6480 C   0  0  0  0  0  0  0  0  0  0  0  0
   58.6490   31.2730   50.5520 C   0  0  0  0  0  0  0  0  0  0  0  0
   59.8020   32.0590   50.7260 C   0  0  0  0  0  0  0  0  0  0  0  0
   59.7860   33.1540   51.5950 C   0  0  0  0  0  0  0  0  0  0  0  0
   58.6200   33.4760   52.2940 C   0  0  0  0  0  0  0  0  0  0  0  0
   57.4690   32.7000   52.1290 C   0  0  0  0  0  0  0  0  0  0  0  0
   57.4810   31.6010   51.2630 C   0  0  0  0  0  0  0  0  0  0  0  0
   58.6070   29.5060   46.9840 N   0  0  0  0  0  0  0  0  0  0  0  0
   57.6219   33.5578   48.5080 H   0  0  0  0  0  0  0  0  0  0  0  0
   58.9055   32.3165   48.1901 H   0  0  0  0  0  0  0  0  0  0  0  0
   59.5247   35.1074   47.3224 H   0  0  0  0  0  0  0  0  0  0  0  0
   59.4327   34.8045   49.1102 H   0  0  0  0  0  0  0  0  0  0  0  0
   60.5662   32.4335   46.4197 H   0  0  0  0  0  0  0  0  0  0  0  0
   62.8753   31.4794   46.3659 H   0  0  0  0  0  0  0  0  0  0  0  0
   64.5878   32.2535   48.0129 H   0  0  0  0  0  0  0  0  0  0  0  0
   63.9929   33.9870   49.7108 H   0  0  0  0  0  0  0  0  0  0  0  0
   61.6926   34.9503   49.7668 H   0  0  0  0  0  0  0  0  0  0  0  0
   58.9160   31.2880   46.1300 H   0  0  0  0  0  0  0  0  0  0  0  0
   58.7717   33.6838   43.6040 H   0  0  0  0  0  0  0  0  0  0  0  0
   58.0397   33.3373   41.2447 H   0  0  0  0  0  0  0  0  0  0  0  0
   56.7091   31.3182   40.6292 H   0  0  0  0  0  0  0  0  0  0  0  0
   56.0662   29.6677   42.3790 H   0  0  0  0  0  0  0  0  0  0  0  0
   58.8018   28.2459   43.8524 H   0  0  0  0  0  0  0  0  0  0  0  0
   61.1463   27.8412   44.6432 H   0  0  0  0  0  0  0  0  0  0  0  0
   58.0219   30.2410   48.7907 H   0  0  0  0  0  0  0  0  0  0  0  0
   58.3624   29.1881   50.2149 H   0  0  0  0  0  0  0  0  0  0  0  0
   60.7214   31.8109   50.1754 H   0  0  0  0  0  0  0  0  0  0  0  0
   60.6924   33.7627   51.7285 H   0  0  0  0  0  0  0  0  0  0  0  0
   58.6076   34.3403   52.9743 H   0  0  0  0  0  0  0  0  0  0  0  0
   56.5521   32.9538   52.6811 H   0  0  0  0  0  0  0  0  0  0  0  0
   56.5738   30.9916   51.1380 H   0  0  0  0  0  0  0  0  0  0  0  0
  1  2  2  0
  2  3  1  0
  3  4  1  0
  4  5  1  0
  5  6  2  0
  6  7  1  0
  7  8  2  0
  8  9  1  0
  9 10  2  0
  2 11  1  0
 11 12  1  0
 12 13  2  0
 13 14  1  0
 14 15  2  0
 15 16  1  0
 16 17  2  0
 17 18  1  0
 18 19  1  0
 19 20  2  0
 20 21  1  0
 21 22  2  0
 22 23  1  0
 23 24  1  0
 24 25  1  0
 25 26  1  0
 26 27  2  0
 27 28  1  0
 28 29  2  0
 29 30  1  0
 30 31  2  0
 23 32  2  0
 10  5  1  0
 17 12  1  0
 32 19  1  0
 31 26  1  0
  3 33  1  0
  3 34  1  0
  4 35  1  0
  4 36  1  0
  6 37  1  0
  7 38  1  0
  8 39  1  0
  9 40  1  0
 10 41  1  0
 11 42  1  0
 13 43  1  0
 14 44  1  0
 15 45  1  0
 16 46  1  0
 20 47  1  0
 21 48  1  0
 25 49  1  0
 25 50  1  0
 27 51  1  0
 28 52  1  0
 29 53  1  0
 30 54  1  0
 31 55  1  0
M  END
>  <UniqueID>  (71) 
63

>  <SMILES>  (71) 
O=C(CCc1ccccc1)Nc1ccccc1Sc1ccnc(SCc2ccccc2)n1

>  <Energy>  (71) 
50.41880027655018

>  <Genealogy>  (71) 
O=C(CCc1ccccc1)Nc1ccccc1Sc1ccnc(SCc2ccccc2)n1 (3D coordinates assigned)
O=C(CCc1ccccc1)Nc1ccccc1Sc1ccnc(SCc2ccccc2)n1 (optimized conformer: 50.41880027655018 kcal/mol)

>  <smiles>  (71) 
O=C(CCc1ccccc1)Nc1ccccc1Sc1ccnc(SCc2ccccc2)n1

>  <score_type>  (71) 
oracle

>  <origin>  (71) 
adg

>  <m_score__min__energy>  (71) 
-10.140000000000001

>  <m_primary>  (71) 
energy

$$$$
72:0
     RDKit          3D

 64 68  0  0  0  0  0  0  0  0999 V2000
   51.2150   32.3720   51.2570 N   0  0  0  0  0  0  0  0  0  0  0  0
   51.6720   30.7510   51.6390 S   0  0  0  0  0  0  0  0  0  0  0  0
   51.5740   29.8970   50.4060 O   0  0  0  0  0  0  0  0  0  0  0  0
   50.7390   30.2010   52.6810 O   0  0  0  0  0  0  0  0  0  0  0  0
   53.3240   30.7330   52.2470 C   0  0  0  0  0  0  0  0  0  0  0  0
   53.5960   30.2620   53.5380 C   0  0  0  0  0  0  0  0  0  0  0  0
   54.9070   30.2550   54.0220 C   0  0  0  0  0  0  0  0  0  0  0  0
   55.9650   30.7190   53.2260 C   0  0  0  0  0  0  0  0  0  0  0  0
   57.3070   30.6870   53.7520 N   0  0  0  0  0  0  0  0  0  0  0  0
   58.4400   31.4080   53.1700 C   0  0  0  0  0  0  0  0  0  0  0  0
   58.6220   31.0360   51.7210 C   0  0  0  0  0  0  0  0  0  0  0  0
   58.4550   29.7070   51.2990 C   0  0  0  0  0  0  0  0  0  0  0  0
   58.6250   29.3670   49.9540 C   0  0  0  0  0  0  0  0  0  0  0  0
   58.9460   30.3520   49.0050 C   0  0  0  0  0  0  0  0  0  0  0  0
   59.1420   29.9840   47.5850 C   0  0  0  0  0  0  0  0  0  0  0  0
   59.7140   30.8000   46.8100 O   0  0  0  0  0  0  0  0  0  0  0  0
   58.6770   28.7260   47.0650 N   0  0  0  0  0  0  0  0  0  0  0  0
   58.0530   28.7000   45.7330 C   0  0  0  0  0  0  0  0  0  0  0  0
   57.6830   27.2740   45.2990 C   0  0  0  0  0  0  0  0  0  0  0  0
   57.0040   26.5160   46.4560 C   0  0  0  0  0  0  0  0  0  0  0  0
   56.5720   25.1610   46.0320 N   0  0  0  0  0  0  0  0  0  0  0  0
   55.1700   24.9300   45.7790 C   0  0  0  0  0  0  0  0  0  0  0  0
   54.3710   25.8930   45.6260 O   0  0  0  0  0  0  0  0  0  0  0  0
   54.6940   23.6260   45.6540 O   0  0  0  0  0  0  0  0  0  0  0  0
   55.4790   22.5100   46.0580 C   0  0  0  0  0  0  0  0  0  0  0  0
   56.9310   22.7310   45.7330 C   0  0  0  0  0  0  0  0  0  0  0  0
   57.7650   21.6310   45.4810 C   0  0  0  0  0  0  0  0  0  0  0  0
   59.1220   21.8230   45.2280 C   0  0  0  0  0  0  0  0  0  0  0  0
   59.6570   23.1090   45.2370 C   0  0  0  0  0  0  0  0  0  0  0  0
   58.8400   24.2100   45.5040 C   0  0  0  0  0  0  0  0  0  0  0  0
   57.4640   24.0410   45.7710 C   0  0  0  0  0  0  0  0  0  0  0  0
   57.8210   26.5140   47.7790 C   0  0  0  0  0  0  0  0  0  0  0  0
   59.0250   27.4700   47.7440 C   0  0  0  0  0  0  0  0  0  0  0  0
   59.1130   31.6800   49.4300 C   0  0  0  0  0  0  0  0  0  0  0  0
   58.9420   32.0210   50.7750 C   0  0  0  0  0  0  0  0  0  0  0  0
   55.6830   31.2080   51.9360 C   0  0  0  0  0  0  0  0  0  0  0  0
   54.3720   31.2140   51.4530 C   0  0  0  0  0  0  0  0  0  0  0  0
   50.2380   32.3350   50.8900 H   0  0  0  0  0  0  0  0  0  0  0  0
   52.7752   29.8966   54.1726 H   0  0  0  0  0  0  0  0  0  0  0  0
   55.1113   29.8822   55.0365 H   0  0  0  0  0  0  0  0  0  0  0  0
   57.5060   30.0710   54.5720 H   0  0  0  0  0  0  0  0  0  0  0  0
   58.2559   32.4899   53.2444 H   0  0  0  0  0  0  0  0  0  0  0  0
   59.3522   31.1366   53.7215 H   0  0  0  0  0  0  0  0  0  0  0  0
   58.1891   28.9298   52.0306 H   0  0  0  0  0  0  0  0  0  0  0  0
   58.5066   28.3206   49.6362 H   0  0  0  0  0  0  0  0  0  0  0  0
   57.1395   29.3123   45.7567 H   0  0  0  0  0  0  0  0  0  0  0  0
   58.7798   29.0977   45.0094 H   0  0  0  0  0  0  0  0  0  0  0  0
   56.9923   27.3236   44.4443 H   0  0  0  0  0  0  0  0  0  0  0  0
   58.6013   26.7395   45.0144 H   0  0  0  0  0  0  0  0  0  0  0  0
   56.0959   27.0843   46.7059 H   0  0  0  0  0  0  0  0  0  0  0  0
   55.3703   22.3669   47.1432 H   0  0  0  0  0  0  0  0  0  0  0  0
   55.1288   21.6188   45.5166 H   0  0  0  0  0  0  0  0  0  0  0  0
   57.3463   20.6138   45.4831 H   0  0  0  0  0  0  0  0  0  0  0  0
   59.7706   20.9589   45.0212 H   0  0  0  0  0  0  0  0  0  0  0  0
   60.7276   23.2582   45.0329 H   0  0  0  0  0  0  0  0  0  0  0  0
   59.2739   25.2208   45.5063 H   0  0  0  0  0  0  0  0  0  0  0  0
   57.1566   26.8172   48.6016 H   0  0  0  0  0  0  0  0  0  0  0  0
   58.2134   25.4963   47.9215 H   0  0  0  0  0  0  0  0  0  0  0  0
   59.3384   27.6925   48.7747 H   0  0  0  0  0  0  0  0  0  0  0  0
   59.8427   26.9856   47.1902 H   0  0  0  0  0  0  0  0  0  0  0  0
   59.3803   32.4576   48.6993 H   0  0  0  0  0  0  0  0  0  0  0  0
   59.0590   33.0675   51.0931 H   0  0  0  0  0  0  0  0  0  0  0  0
   56.4999   31.5876   51.3047 H   0  0  0  0  0  0  0  0  0  0  0  0
   54.1622   31.5985   50.4440 H   0  0  0  0  0  0  0  0  0  0  0  0
  1  2  1  0
  2  3  2  0
  2  4  2  0
  2  5  1  0
  5  6  2  0
  6  7  1  0
  7  8  2  0
  8  9  1  0
  9 10  1  0
 10 11  1  0
 11 12  2  0
 12 13  1  0
 13 14  2  0
 14 15  1  0
 15 16  2  0
 15 17  1  0
 17 18  1  0
 18 19  1  0
 19 20  1  0
 20 21  1  0
 21 22  1  0
 22 23  2  0
 22 24  1  0
 24 25  1  0
 25 26  1  0
 26 27  2  0
 27 28  1  0
 28 29  2  0
 29 30  1  0
 30 31  2  0
 20 32  1  0
 32 33  1  0
 14 34  1  0
 34 35  2  0
  8 36  1  0
 36 37  2  0
 37  5  1  0
 35 11  1  0
 33 17  1  0
 31 21  1  0
 31 26  1  0
  1 38  1  0
  6 39  1  0
  7 40  1  0
  9 41  1  0
 10 42  1  0
 10 43  1  0
 12 44  1  0
 13 45  1  0
 18 46  1  0
 18 47  1  0
 19 48  1  0
 19 49  1  0
 20 50  1  0
 25 51  1  0
 25 52  1  0
 27 53  1  0
 28 54  1  0
 29 55  1  0
 30 56  1  0
 32 57  1  0
 32 58  1  0
 33 59  1  0
 33 60  1  0
 34 61  1  0
 35 62  1  0
 36 63  1  0
 37 64  1  0
M  CHG  1   1  -1
M  END
>  <UniqueID>  (72) 
64

>  <SMILES>  (72) 
[NH-]S(=O)(=O)c1ccc(NCc2ccc(C(=O)N3CCC(N4C(=O)OCc5ccccc54)CC3)cc2)cc1

>  <Energy>  (72) 
84.25526276954126

>  <Genealogy>  (72) 
[NH-]S(=O)(=O)c1ccc(NCc2ccc(C(=O)N3CCC(N4C(=O)OCc5ccccc54)CC3)cc2)cc1 (protonated)
[NH-]S(=O)(=O)c1ccc(NCc2ccc(C(=O)N3CCC(N4C(=O)OCc5ccccc54)CC3)cc2)cc1 (3D coordinates assigned)
[NH-]S(=O)(=O)c1ccc(NCc2ccc(C(=O)N3CCC(N4C(=O)OCc5ccccc54)CC3)cc2)cc1 (nonaromatic ring conformer: 84.25526276954126 kcal/mol)

>  <smiles>  (72) 
NS(=O)(=O)c1ccc(NCc2ccc(C(=O)N3CCC(N4C(=O)OCc5ccccc54)CC3)cc2)cc1

>  <score_type>  (72) 
oracle

>  <origin>  (72) 
adg

>  <m_score__min__energy>  (72) 
-12.449999999999999

>  <m_primary>  (72) 
energy

$$$$
73:0
     RDKit          3D

 42 44  0  0  0  0  0  0  0  0999 V2000
   58.0520   29.9910   45.5510 C   0  0  0  0  0  0  0  0  0  0  0  0
   58.8090   28.6370   45.5500 C   0  0  0  0  0  0  0  0  0  0  0  0
   59.2510   28.3090   44.1120 C   0  0  0  0  0  0  0  0  0  0  0  0
   60.0650   28.7800   46.4220 C   0  0  0  0  0  0  0  0  0  0  0  0
   60.7710   29.7700   46.2810 O   0  0  0  0  0  0  0  0  0  0  0  0
   60.4830   27.7620   47.3710 N   0  0  1  0  0  0  0  0  0  0  0  0
   60.2930   28.1890   48.7790 C   0  0  0  0  0  0  0  0  0  0  0  0
   60.0890   29.6770   48.9490 C   0  0  0  0  0  0  0  0  0  0  0  0
   58.9190   30.1400   48.9910 O   0  0  0  0  0  0  0  0  0  0  0  0
   61.1950   30.5610   49.1670 N   0  0  0  0  0  0  0  0  0  0  0  0
   61.5640   31.5560   48.4110 C   0  0  0  0  0  0  0  0  0  0  0  0
   60.6580   32.5260   47.9330 C   0  0  0  0  0  0  0  0  0  0  0  0
   61.1270   33.5690   47.1320 C   0  0  0  0  0  0  0  0  0  0  0  0
   62.4480   33.6550   46.8250 N   0  0  0  0  0  0  0  0  0  0  0  0
   63.3470   32.7460   47.2850 C   0  0  0  0  0  0  0  0  0  0  0  0
   62.9210   31.6860   48.0910 C   0  0  0  0  0  0  0  0  0  0  0  0
   59.9350   26.4210   47.0790 C   0  0  0  0  0  0  0  0  0  0  0  0
   58.4600   26.4470   46.8010 C   0  0  0  0  0  0  0  0  0  0  0  0
   57.6550   25.3740   47.2160 C   0  0  0  0  0  0  0  0  0  0  0  0
   56.2980   25.3490   46.9020 C   0  0  0  0  0  0  0  0  0  0  0  0
   55.7400   26.3750   46.1400 C   0  0  0  0  0  0  0  0  0  0  0  0
   54.3920   26.3360   45.8060 O   0  0  0  0  0  0  0  0  0  0  0  0
   56.5380   27.4370   45.7040 C   0  0  0  0  0  0  0  0  0  0  0  0
   57.9060   27.5060   46.0540 C   0  0  0  0  0  0  0  0  0  0  0  0
   57.8734   30.3105   46.5883 H   0  0  0  0  0  0  0  0  0  0  0  0
   58.6568   30.7496   45.0327 H   0  0  0  0  0  0  0  0  0  0  0  0
   57.0890   29.8730   45.0327 H   0  0  0  0  0  0  0  0  0  0  0  0
   60.1341   27.6537   44.1403 H   0  0  0  0  0  0  0  0  0  0  0  0
   58.4321   27.7982   43.5842 H   0  0  0  0  0  0  0  0  0  0  0  0
   59.5026   29.2407   43.5842 H   0  0  0  0  0  0  0  0  0  0  0  0
   61.5190   27.6600   47.2470 H   0  0  0  0  0  0  0  0  0  0  0  0
   59.4100   27.6708   49.1812 H   0  0  0  0  0  0  0  0  0  0  0  0
   61.2174   27.9315   49.3167 H   0  0  0  0  0  0  0  0  0  0  0  0
   59.5903   32.4611   48.1894 H   0  0  0  0  0  0  0  0  0  0  0  0
   60.4248   34.3237   46.7481 H   0  0  0  0  0  0  0  0  0  0  0  0
   64.4108   32.8441   47.0231 H   0  0  0  0  0  0  0  0  0  0  0  0
   63.6500   30.9560   48.4728 H   0  0  0  0  0  0  0  0  0  0  0  0
   60.4522   26.0135   46.1979 H   0  0  0  0  0  0  0  0  0  0  0  0
   60.0948   25.7952   47.9694 H   0  0  0  0  0  0  0  0  0  0  0  0
   58.0983   24.5485   47.7923 H   0  0  0  0  0  0  0  0  0  0  0  0
   55.6668   24.5202   47.2550 H   0  0  0  0  0  0  0  0  0  0  0  0
   56.0960   28.2286   45.0810 H   0  0  0  0  0  0  0  0  0  0  0  0
  1  2  1  0
  2  3  1  0
  2  4  1  0
  4  5  2  0
  4  6  1  0
  6  7  1  0
  7  8  1  0
  8  9  2  0
  8 10  1  0
 10 11  2  3
 11 12  1  0
 12 13  2  0
 13 14  1  0
 14 15  1  0
 15 16  2  0
  6 17  1  0
 17 18  1  0
 18 19  2  0
 19 20  1  0
 20 21  2  0
 21 22  1  0
 21 23  1  0
 23 24  2  0
 24  2  1  0
 16 11  1  0
 24 18  1  0
  1 25  1  0
  1 26  1  0
  1 27  1  0
  3 28  1  0
  3 29  1  0
  3 30  1  0
  6 31  1  1
  7 32  1  0
  7 33  1  0
 12 34  1  0
 13 35  1  0
 15 36  1  0
 16 37  1  0
 17 38  1  0
 17 39  1  0
 19 40  1  0
 20 41  1  0
 23 42  1  0
M  CHG  3   6   1  14  -1  22  -1
M  END
>  <UniqueID>  (73) 
65

>  <SMILES>  (73) 
CC1(C)C(=O)[N@@H+](CC(=O)N=c2cc[n-]cc2)Cc2ccc([O-])cc21

>  <Energy>  (73) 
62.86558769319239

>  <Genealogy>  (73) 
CC1(C)C(=O)[NH+](CC(=O)N=c2cc[n-]cc2)Cc2ccc([O-])cc21 (protonated)
CC1(C)C(=O)[N@@H+](CC(=O)N=c2cc[n-]cc2)Cc2ccc([O-])cc21 (chirality)
CC1(C)C(=O)[N@@H+](CC(=O)N=c2cc[n-]cc2)Cc2ccc([O-])cc21 (3D coordinates assigned)
CC1(C)C(=O)[N@@H+](CC(=O)N=c2cc[n-]cc2)Cc2ccc([O-])cc21 (nonaromatic ring conformer: 62.86558769319239 kcal/mol)

>  <smiles>  (73) 
CC1(C)C(=O)N(CC(=O)N=c2cc[nH]cc2)Cc2ccc(O)cc21

>  <score_type>  (73) 
oracle

>  <origin>  (73) 
adg

>  <m_score__min__energy>  (73) 
-9.3300000000000001

>  <m_primary>  (73) 
energy

$$$$
74:0
     RDKit          3D

 43 45  0  0  0  0  0  0  0  0999 V2000
   57.3880   30.1190   52.0270 C   0  0  0  0  0  0  0  0  0  0  0  0
   58.1920   30.9880   51.1070 C   0  0  0  0  0  0  0  0  0  0  0  0
   58.4530   32.3280   51.4380 C   0  0  0  0  0  0  0  0  0  0  0  0
   59.2270   33.1240   50.5880 C   0  0  0  0  0  0  0  0  0  0  0  0
   59.7610   32.5850   49.4070 C   0  0  0  0  0  0  0  0  0  0  0  0
   60.7050   33.6110   48.3310 S   0  0  0  0  0  0  0  0  0  0  0  0
   60.1380   35.0030   48.3660 O   0  0  0  0  0  0  0  0  0  0  0  0
   62.1460   33.6590   48.7580 O   0  0  0  0  0  0  0  0  0  0  0  0
   60.6100   32.9960   46.7130 N   0  0  0  0  0  0  0  0  0  0  0  0
   59.3940   32.8110   45.9770 C   0  0  0  0  0  0  0  0  0  0  0  0
   58.5540   33.8870   45.6350 C   0  0  0  0  0  0  0  0  0  0  0  0
   57.3830   33.6600   44.9080 C   0  0  0  0  0  0  0  0  0  0  0  0
   57.0460   32.3660   44.5090 C   0  0  0  0  0  0  0  0  0  0  0  0
   57.8830   31.2880   44.8180 C   0  0  0  0  0  0  0  0  0  0  0  0
   57.5180   29.9720   44.3720 N   0  0  0  0  0  0  0  0  0  0  0  0
   56.7810   28.9980   45.1240 C   0  0  0  0  0  0  0  0  0  0  0  0
   55.5350   29.1360   45.2310 O   0  0  0  0  0  0  0  0  0  0  0  0
   57.4290   27.7870   45.6810 C   0  0  0  0  0  0  0  0  0  0  0  0
   58.8320   27.7430   45.7620 C   0  0  0  0  0  0  0  0  0  0  0  0
   59.4810   26.6020   46.2430 C   0  0  0  0  0  0  0  0  0  0  0  0
   60.8330   26.5690   46.3100 F   0  0  0  0  0  0  0  0  0  0  0  0
   58.7370   25.4910   46.6420 C   0  0  0  0  0  0  0  0  0  0  0  0
   57.3430   25.5250   46.5750 C   0  0  0  0  0  0  0  0  0  0  0  0
   56.6790   26.6650   46.1090 C   0  0  0  0  0  0  0  0  0  0  0  0
   55.2820   26.6600   46.1100 O   0  0  0  0  0  0  0  0  0  0  0  0
   59.0390   31.5140   45.5860 C   0  0  0  0  0  0  0  0  0  0  0  0
   59.5180   31.2430   49.0850 C   0  0  0  0  0  0  0  0  0  0  0  0
   58.7410   30.4480   49.9320 C   0  0  0  0  0  0  0  0  0  0  0  0
   57.6236   30.3736   53.0709 H   0  0  0  0  0  0  0  0  0  0  0  0
   56.3160   30.2829   51.8425 H   0  0  0  0  0  0  0  0  0  0  0  0
   57.6346   29.0630   51.8425 H   0  0  0  0  0  0  0  0  0  0  0  0
   58.0474   32.7522   52.3683 H   0  0  0  0  0  0  0  0  0  0  0  0
   59.4181   34.1762   50.8457 H   0  0  0  0  0  0  0  0  0  0  0  0
   58.8202   34.9095   45.9410 H   0  0  0  0  0  0  0  0  0  0  0  0
   56.7252   34.5029   44.6495 H   0  0  0  0  0  0  0  0  0  0  0  0
   56.1161   32.1922   43.9477 H   0  0  0  0  0  0  0  0  0  0  0  0
   59.4241   28.6139   45.4442 H   0  0  0  0  0  0  0  0  0  0  0  0
   59.2485   24.5890   47.0091 H   0  0  0  0  0  0  0  0  0  0  0  0
   56.7609   24.6470   46.8917 H   0  0  0  0  0  0  0  0  0  0  0  0
   54.7250   27.4600   46.3770 H   0  0  0  0  0  0  0  0  0  0  0  0
   59.6707   30.6637   45.8826 H   0  0  0  0  0  0  0  0  0  0  0  0
   59.9396   30.8145   48.1638 H   0  0  0  0  0  0  0  0  0  0  0  0
   58.5583   29.3936   49.6772 H   0  0  0  0  0  0  0  0  0  0  0  0
  1  2  1  0
  2  3  2  0
  3  4  1  0
  4  5  2  0
  5  6  1  0
  6  7  2  0
  6  8  2  0
  6  9  1  0
  9 10  1  0
 10 11  2  0
 11 12  1  0
 12 13  2  0
 13 14  1  0
 14 15  1  0
 15 16  1  0
 16 17  2  0
 16 18  1  0
 18 19  2  0
 19 20  1  0
 20 21  1  0
 20 22  2  0
 22 23  1  0
 23 24  2  0
 24 25  1  0
 14 26  2  0
  5 27  1  0
 27 28  2  0
 28  2  1  0
 26 10  1  0
 24 18  1  0
  1 29  1  0
  1 30  1  0
  1 31  1  0
  3 32  1  0
  4 33  1  0
 11 34  1  0
 12 35  1  0
 13 36  1  0
 19 37  1  0
 22 38  1  0
 23 39  1  0
 25 40  1  0
 26 41  1  0
 27 42  1  0
 28 43  1  0
M  CHG  2   9  -1  15  -1
M  END
>  <UniqueID>  (74) 
66

>  <SMILES>  (74) 
Cc1ccc(S(=O)(=O)[N-]c2cccc([N-]C(=O)c3cc(F)ccc3O)c2)cc1

>  <Energy>  (74) 
56.895361855874526

>  <Genealogy>  (74) 
Cc1ccc(S(=O)(=O)[N-]c2cccc([N-]C(=O)c3cc(F)ccc3O)c2)cc1 (protonated)
Cc1ccc(S(=O)(=O)[N-]c2cccc([N-]C(=O)c3cc(F)ccc3O)c2)cc1 (3D coordinates assigned)
Cc1ccc(S(=O)(=O)[N-]c2cccc([N-]C(=O)c3cc(F)ccc3O)c2)cc1 (optimized conformer: 56.895361855874526 kcal/mol)

>  <smiles>  (74) 
Cc1ccc(S(=O)(=O)Nc2cccc(NC(=O)c3cc(F)ccc3O)c2)cc1

>  <score_type>  (74) 
oracle

>  <origin>  (74) 
adg

>  <m_score__min__energy>  (74) 
-12.23

>  <m_primary>  (74) 
energy

$$$$
75:0
     RDKit          3D

 46 48  0  0  0  0  0  0  0  0999 V2000
   59.2324   26.3441   46.4054 H   0  0  0  0  0  0  0  0  0  0  0  0
   58.5370   27.1590   46.6550 C   0  0  0  0  0  0  0  0  0  0  0  0
   57.6540   27.6510   45.5740 C   0  0  0  0  0  0  0  0  0  0  0  0
   56.9830   26.8010   44.9290 O   0  0  0  0  0  0  0  0  0  0  0  0
   57.5920   29.0820   45.1770 C   0  0  0  0  0  0  0  0  0  0  0  0
   58.7650   29.8540   45.1280 C   0  0  0  0  0  0  0  0  0  0  0  0
   59.7341   29.3861   45.3560 H   0  0  0  0  0  0  0  0  0  0  0  0
   58.7140   31.2090   44.7930 C   0  0  0  0  0  0  0  0  0  0  0  0
   59.6395   31.8034   44.7792 H   0  0  0  0  0  0  0  0  0  0  0  0
   57.4870   31.8190   44.4730 C   0  0  0  0  0  0  0  0  0  0  0  0
   57.3970   33.2170   44.1290 N   0  0  0  0  0  0  0  0  0  0  0  0
   57.4300   33.4860   43.1190 H   0  0  0  0  0  0  0  0  0  0  0  0
   57.1750   34.2900   45.0980 C   0  0  0  0  0  0  0  0  0  0  0  0
   57.2244   35.2600   44.5817 H   0  0  0  0  0  0  0  0  0  0  0  0
   56.1848   34.1551   45.5576 H   0  0  0  0  0  0  0  0  0  0  0  0
   58.2440   34.2490   46.2000 C   0  0  0  0  0  0  0  0  0  0  0  0
   58.1039   35.1169   46.8612 H   0  0  0  0  0  0  0  0  0  0  0  0
   58.1258   33.3028   46.7484 H   0  0  0  0  0  0  0  0  0  0  0  0
   59.6690   34.2870   45.6310 C   0  0  0  0  0  0  0  0  0  0  0  0
   59.7900   33.4593   44.9167 H   0  0  0  0  0  0  0  0  0  0  0  0
   59.8153   35.2586   45.1364 H   0  0  0  0  0  0  0  0  0  0  0  0
   60.7060   34.1510   46.7170 C   0  0  0  0  0  0  0  0  0  0  0  0
   62.0140   33.7480   46.3990 C   0  0  0  0  0  0  0  0  0  0  0  0
   62.2921   33.5686   45.3500 H   0  0  0  0  0  0  0  0  0  0  0  0
   62.9640   33.5740   47.4110 C   0  0  0  0  0  0  0  0  0  0  0  0
   63.9864   33.2580   47.1562 H   0  0  0  0  0  0  0  0  0  0  0  0
   62.6160   33.8010   48.7450 C   0  0  0  0  0  0  0  0  0  0  0  0
   63.3641   33.6632   49.5395 H   0  0  0  0  0  0  0  0  0  0  0  0
   61.3180   34.2030   49.0700 C   0  0  0  0  0  0  0  0  0  0  0  0
   61.0459   34.3836   50.1204 H   0  0  0  0  0  0  0  0  0  0  0  0
   60.3650   34.3760   48.0630 C   0  0  0  0  0  0  0  0  0  0  0  0
   59.3434   34.6896   48.3240 H   0  0  0  0  0  0  0  0  0  0  0  0
   56.3190   31.0440   44.4990 C   0  0  0  0  0  0  0  0  0  0  0  0
   55.3549   31.5070   44.2420 H   0  0  0  0  0  0  0  0  0  0  0  0
   56.3630   29.6910   44.8470 C   0  0  0  0  0  0  0  0  0  0  0  0
   55.1760   28.9660   44.8860 O   0  0  0  0  0  0  0  0  0  0  0  0
   58.5610   27.6230   47.9140 C   0  0  0  0  0  0  0  0  0  0  0  0
   57.9119   27.1244   48.6489 H   0  0  0  0  0  0  0  0  0  0  0  0
   59.3870   28.7470   48.3920 C   0  0  0  0  0  0  0  0  0  0  0  0
   58.9430   30.3620   48.2750 S   0  0  0  0  0  0  0  0  0  0  0  0
   60.3550   30.9940   48.9320 C   0  0  0  0  0  0  0  0  0  0  0  0
   60.5690   32.0605   49.0954 H   0  0  0  0  0  0  0  0  0  0  0  0
   61.2050   29.9380   49.2330 C   0  0  0  0  0  0  0  0  0  0  0  0
   62.2023   30.0756   49.6763 H   0  0  0  0  0  0  0  0  0  0  0  0
   60.6730   28.6820   48.9190 C   0  0  0  0  0  0  0  0  0  0  0  0
   61.2169   27.7384   49.0734 H   0  0  0  0  0  0  0  0  0  0  0  0
  1  2  1  0
  2  3  1  0
  3  4  2  0
  3  5  1  0
  5  6  2  0
  6  7  1  0
  6  8  1  0
  8  9  1  0
  8 10  2  0
 10 11  1  0
 11 12  1  0
 11 13  1  0
 13 14  1  0
 13 15  1  0
 13 16  1  0
 16 17  1  0
 16 18  1  0
 16 19  1  0
 19 20  1  0
 19 21  1  0
 19 22  1  0
 22 23  2  0
 23 24  1  0
 23 25  1  0
 25 26  1  0
 25 27  2  0
 27 28  1  0
 27 29  1  0
 29 30  1  0
 29 31  2  0
 31 32  1  0
 10 33  1  0
 33 34  1  0
 33 35  2  0
 35 36  1  0
  2 37  2  0
 37 38  1  0
 37 39  1  0
 39 40  1  0
 40 41  1  0
 41 42  1  0
 41 43  2  0
 43 44  1  0
 43 45  1  0
 45 46  1  0
 35  5  1  0
 45 39  2  0
 31 22  1  0
M  CHG  1  36  -1
M  END
>  <UniqueID>  (75) 
67

>  <SMILES>  (75) 
O=C(/C=C\c1cccs1)c1ccc(NCCCc2ccccc2)cc1[O-]

>  <Energy>  (75) 
78.87361497521843

>  <Genealogy>  (75) 
O=C(C=Cc1cccs1)c1ccc(NCCCc2ccccc2)cc1[O-] (protonated)
O=C(/C=C\c1cccs1)c1ccc(NCCCc2ccccc2)cc1[O-] (cis-trans isomerization)
O=C(/C=C\c1cccs1)c1ccc(NCCCc2ccccc2)cc1[O-] (3D coordinates assigned)
O=C(/C=C\c1cccs1)c1ccc(NCCCc2ccccc2)cc1[O-] (optimized conformer: 78.87361497521843 kcal/mol)

>  <smiles>  (75) 
O=C(C=Cc1cccs1)c1ccc(NCCCc2ccccc2)cc1O

>  <score_type>  (75) 
oracle

>  <origin>  (75) 
adg

>  <m_score__min__energy>  (75) 
-12.539999999999999

>  <m_primary>  (75) 
energy

$$$$
76:0
     RDKit          3D

 42 45  0  0  0  0  0  0  0  0999 V2000
   58.1990   30.8260   45.0560 C   0  0  0  0  0  0  0  0  0  0  0  0
   58.6950   30.3110   46.1950 C   0  0  0  0  0  0  0  0  0  0  0  0
   58.8010   28.9450   46.5020 C   0  0  0  0  0  0  0  0  0  0  0  0
   58.4260   27.9080   45.7220 C   0  0  0  0  0  0  0  0  0  0  0  0
   57.2420   27.0420   45.9350 C   0  0  0  0  0  0  0  0  0  0  0  0
   57.2520   25.7910   46.4320 N   0  0  0  0  0  0  0  0  0  0  0  0
   55.9510   25.4310   46.4100 C   0  0  0  0  0  0  0  0  0  0  0  0
   55.5530   24.3050   46.8080 O   0  0  0  0  0  0  0  0  0  0  0  0
   55.1120   26.3700   45.9280 N   0  0  0  0  0  0  0  0  0  0  0  0
   55.9440   27.3810   45.6310 C   0  0  0  0  0  0  0  0  0  0  0  0
   55.5250   28.5910   45.0910 O   0  0  0  0  0  0  0  0  0  0  0  0
   59.3600   28.8820   47.7720 C   0  0  0  0  0  0  0  0  0  0  0  0
   59.5750   30.1790   48.1760 C   0  0  0  0  0  0  0  0  0  0  0  0
   60.2890   30.6250   49.7610 S   0  0  0  0  0  0  0  0  0  0  0  0
   58.7130   30.5110   50.5980 C   0  0  0  0  0  0  0  0  0  0  0  0
   58.2070   29.3560   51.0830 N   0  0  0  0  0  0  0  0  0  0  0  0
   57.0240   29.5130   51.6750 N   0  0  0  0  0  0  0  0  0  0  0  0
   56.5800   30.7880   51.6500 C   0  0  0  0  0  0  0  0  0  0  0  0
   55.3170   31.2340   52.3040 C   0  0  0  0  0  0  0  0  0  0  0  0
   57.6850   31.8100   50.8940 S   0  0  0  0  0  0  0  0  0  0  0  0
   59.1760   31.0550   47.2270 N   0  0  0  0  0  0  0  0  0  0  0  0
   59.1970   32.5200   47.3690 C   0  0  0  0  0  0  0  0  0  0  0  0
   60.5920   33.0010   47.6810 C   0  0  0  0  0  0  0  0  0  0  0  0
   60.8410   33.7460   48.8460 C   0  0  0  0  0  0  0  0  0  0  0  0
   62.1390   34.1740   49.1450 C   0  0  0  0  0  0  0  0  0  0  0  0
   63.1940   33.8620   48.2870 C   0  0  0  0  0  0  0  0  0  0  0  0
   62.9560   33.1220   47.1250 C   0  0  0  0  0  0  0  0  0  0  0  0
   61.6610   32.6920   46.8230 C   0  0  0  0  0  0  0  0  0  0  0  0
   58.1612   31.9164   44.9161 H   0  0  0  0  0  0  0  0  0  0  0  0
   57.8311   30.1568   44.2643 H   0  0  0  0  0  0  0  0  0  0  0  0
   59.0570   27.6858   44.8488 H   0  0  0  0  0  0  0  0  0  0  0  0
   59.5870   27.9705   48.3443 H   0  0  0  0  0  0  0  0  0  0  0  0
   55.4354   31.1922   53.3968 H   0  0  0  0  0  0  0  0  0  0  0  0
   55.0908   32.2664   51.9989 H   0  0  0  0  0  0  0  0  0  0  0  0
   54.4927   30.5726   51.9989 H   0  0  0  0  0  0  0  0  0  0  0  0
   58.8575   32.9796   46.4291 H   0  0  0  0  0  0  0  0  0  0  0  0
   58.5291   32.8068   48.1946 H   0  0  0  0  0  0  0  0  0  0  0  0
   60.0122   33.9937   49.5256 H   0  0  0  0  0  0  0  0  0  0  0  0
   62.3281   34.7575   50.0581 H   0  0  0  0  0  0  0  0  0  0  0  0
   64.2139   34.1985   48.5250 H   0  0  0  0  0  0  0  0  0  0  0  0
   63.7882   32.8782   46.4483 H   0  0  0  0  0  0  0  0  0  0  0  0
   61.4776   32.1085   45.9087 H   0  0  0  0  0  0  0  0  0  0  0  0
  1  2  2  0
  2  3  1  0
  3  4  2  3
  4  5  1  0
  5  6  1  0
  6  7  1  0
  7  8  2  0
  7  9  1  0
  9 10  1  0
 10 11  1  0
  3 12  1  0
 12 13  2  0
 13 14  1  0
 14 15  1  0
 15 16  2  0
 16 17  1  0
 17 18  2  0
 18 19  1  0
 18 20  1  0
 13 21  1  0
 21 22  1  0
 22 23  1  0
 23 24  2  0
 24 25  1  0
 25 26  2  0
 26 27  1  0
 27 28  2  0
 21  2  1  0
 28 23  1  0
 10  5  2  0
 20 15  1  0
  1 29  1  0
  1 30  1  0
  4 31  1  0
 12 32  1  0
 19 33  1  0
 19 34  1  0
 19 35  1  0
 22 36  1  0
 22 37  1  0
 24 38  1  0
 25 39  1  0
 26 40  1  0
 27 41  1  0
 28 42  1  0
M  CHG  3   6  -1   9  -1  11  -1
M  END
>  <UniqueID>  (76) 
68

>  <SMILES>  (76) 
C=c1c(=Cc2[n-]c(=O)[n-]c2[O-])cc(Sc2nnc(C)s2)n1Cc1ccccc1

>  <Energy>  (76) 
136.80381571829312

>  <Genealogy>  (76) 
C=c1c(=Cc2[n-]c(=O)[n-]c2[O-])cc(Sc2nnc(C)s2)n1Cc1ccccc1 (protonated)
C=c1c(=Cc2[n-]c(=O)[n-]c2[O-])cc(Sc2nnc(C)s2)n1Cc1ccccc1 (3D coordinates assigned)
C=c1c(=Cc2[n-]c(=O)[n-]c2[O-])cc(Sc2nnc(C)s2)n1Cc1ccccc1 (optimized conformer: 136.80381571829312 kcal/mol)

>  <smiles>  (76) 
C=c1c(=Cc2[nH]c(=O)[nH]c2O)cc(Sc2nnc(C)s2)n1Cc1ccccc1

>  <score_type>  (76) 
oracle

>  <origin>  (76) 
adg

>  <m_score__min__energy>  (76) 
-16.329999999999998

>  <m_primary>  (76) 
energy

$$$$
77:0
     RDKit          3D

 44 46  0  0  0  0  0  0  0  0999 V2000
   56.6212   29.9584   42.3559 H   0  0  0  0  0  0  0  0  0  0  0  0
   56.8030   30.4400   43.3280 C   0  0  0  0  0  0  0  0  0  0  0  0
   56.2630   29.7580   44.5320 C   0  0  0  0  0  0  0  0  0  0  0  0
   55.0860   29.3140   44.5480 O   0  0  0  0  0  0  0  0  0  0  0  0
   57.0610   29.6090   45.7130 N   0  0  0  0  0  0  0  0  0  0  0  0
   57.7410   28.4180   46.1330 C   0  0  0  0  0  0  0  0  0  0  0  0
   59.0640   28.4560   46.6070 C   0  0  0  0  0  0  0  0  0  0  0  0
   59.5925   29.4177   46.6829 H   0  0  0  0  0  0  0  0  0  0  0  0
   59.7090   27.2740   46.9820 C   0  0  0  0  0  0  0  0  0  0  0  0
   60.7391   27.3094   47.3663 H   0  0  0  0  0  0  0  0  0  0  0  0
   59.0490   26.0480   46.8700 C   0  0  0  0  0  0  0  0  0  0  0  0
   59.5556   25.1214   47.1777 H   0  0  0  0  0  0  0  0  0  0  0  0
   57.7420   25.9970   46.3660 C   0  0  0  0  0  0  0  0  0  0  0  0
   56.8880   24.4630   46.2240 S   0  0  0  0  0  0  0  0  0  0  0  0
   57.3610   23.5400   47.3130 O   0  0  0  0  0  0  0  0  0  0  0  0
   55.4070   24.6780   46.3810 O   0  0  0  0  0  0  0  0  0  0  0  0
   57.2390   23.7580   44.6660 N   0  0  0  0  0  0  0  0  0  0  0  0
   56.0470   23.7200   43.8210 C   0  0  0  0  0  0  0  0  0  0  0  0
   55.1499   23.5603   44.4371 H   0  0  0  0  0  0  0  0  0  0  0  0
   55.9143   24.6681   43.2792 H   0  0  0  0  0  0  0  0  0  0  0  0
   56.2350   22.5590   42.8570 C   0  0  0  0  0  0  0  0  0  0  0  0
   55.2934   22.0035   42.7350 H   0  0  0  0  0  0  0  0  0  0  0  0
   56.5347   22.9024   41.8559 H   0  0  0  0  0  0  0  0  0  0  0  0
   57.2970   21.6740   43.4940 C   0  0  0  0  0  0  0  0  0  0  0  0
   56.8930   20.6705   43.6933 H   0  0  0  0  0  0  0  0  0  0  0  0
   58.1686   21.5420   42.8361 H   0  0  0  0  0  0  0  0  0  0  0  0
   57.6700   22.3660   44.7960 C   0  0  0  0  0  0  0  0  0  0  0  0
   57.1556   21.8865   45.6419 H   0  0  0  0  0  0  0  0  0  0  0  0
   58.7517   22.3009   44.9849 H   0  0  0  0  0  0  0  0  0  0  0  0
   57.0960   27.1840   45.9930 C   0  0  0  0  0  0  0  0  0  0  0  0
   56.0743   27.1451   45.5872 H   0  0  0  0  0  0  0  0  0  0  0  0
   57.4940   31.5930   43.3200 C   0  0  0  0  0  0  0  0  0  0  0  0
   57.7484   32.0209   42.3391 H   0  0  0  0  0  0  0  0  0  0  0  0
   57.9400   32.3330   44.5160 C   0  0  0  0  0  0  0  0  0  0  0  0
   57.3290   33.5430   44.8880 C   0  0  0  0  0  0  0  0  0  0  0  0
   56.5370   33.9738   44.2578 H   0  0  0  0  0  0  0  0  0  0  0  0
   57.7250   34.2010   46.0570 C   0  0  0  0  0  0  0  0  0  0  0  0
   57.2561   35.1563   46.3354 H   0  0  0  0  0  0  0  0  0  0  0  0
   58.7160   33.6460   46.8720 C   0  0  0  0  0  0  0  0  0  0  0  0
   59.0305   34.1674   47.7881 H   0  0  0  0  0  0  0  0  0  0  0  0
   59.3070   32.4290   46.5230 C   0  0  0  0  0  0  0  0  0  0  0  0
   60.0839   31.9911   47.1670 H   0  0  0  0  0  0  0  0  0  0  0  0
   58.9120   31.7660   45.3550 C   0  0  0  0  0  0  0  0  0  0  0  0
   59.3646   30.7980   45.0940 H   0  0  0  0  0  0  0  0  0  0  0  0
  1  2  1  0
  2  3  1  0
  3  4  2  0
  3  5  1  0
  5  6  1  0
  6  7  2  0
  7  8  1  0
  7  9  1  0
  9 10  1  0
  9 11  2  0
 11 12  1  0
 11 13  1  0
 13 14  1  0
 14 15  2  0
 14 16  2  0
 14 17  1  0
 17 18  1  0
 18 19  1  0
 18 20  1  0
 18 21  1  0
 21 22  1  0
 21 23  1  0
 21 24  1  0
 24 25  1  0
 24 26  1  0
 24 27  1  0
 27 28  1  0
 27 29  1  0
 13 30  2  0
 30 31  1  0
  2 32  2  0
 32 33  1  0
 32 34  1  0
 34 35  2  0
 35 36  1  0
 35 37  1  0
 37 38  1  0
 37 39  2  0
 39 40  1  0
 39 41  1  0
 41 42  1  0
 41 43  2  0
 43 44  1  0
 30  6  1  0
 43 34  1  0
 27 17  1  0
M  CHG  1   5  -1
M  END
>  <UniqueID>  (77) 
69

>  <SMILES>  (77) 
O=C(/C=C\c1ccccc1)[N-]c1cccc(S(=O)(=O)N2CCCC2)c1

>  <Energy>  (77) 
59.34965470318723

>  <Genealogy>  (77) 
O=C(C=Cc1ccccc1)[N-]c1cccc(S(=O)(=O)N2CCCC2)c1 (protonated)
O=C(/C=C\c1ccccc1)[N-]c1cccc(S(=O)(=O)N2CCCC2)c1 (cis-trans isomerization)
O=C(/C=C\c1ccccc1)[N-]c1cccc(S(=O)(=O)N2CCCC2)c1 (3D coordinates assigned)
O=C(/C=C\c1ccccc1)[N-]c1cccc(S(=O)(=O)N2CCCC2)c1 (nonaromatic ring conformer: 59.34965470318723 kcal/mol)

>  <smiles>  (77) 
O=C(C=Cc1ccccc1)Nc1cccc(S(=O)(=O)N2CCCC2)c1

>  <score_type>  (77) 
oracle

>  <origin>  (77) 
adg

>  <m_score__min__energy>  (77) 
-10.970000000000001

>  <m_primary>  (77) 
energy

$$$$
78:0
     RDKit          3D

 38 42  0  0  0  0  0  0  0  0999 V2000
   65.9380   32.7900   49.7790 C   0  0  0  0  0  0  0  0  0  0  0  0
   64.6130   32.6850   49.7540 C   0  0  0  0  0  0  0  0  0  0  0  0
   63.8310   32.1060   50.8000 N   0  0  0  0  0  0  0  0  0  0  0  0
   62.4770   32.2050   50.3540 C   0  0  0  0  0  0  0  0  0  0  0  0
   62.3780   32.8010   49.1190 C   0  0  0  0  0  0  0  0  0  0  0  0
   61.1440   32.9920   48.5130 C   0  0  0  0  0  0  0  0  0  0  0  0
   61.0280   33.5730   47.2910 N   0  0  0  0  0  0  0  0  0  0  0  0
   59.8100   33.7400   46.7130 C   0  0  0  0  0  0  0  0  0  0  0  0
   59.6950   34.3400   45.4540 C   0  0  0  0  0  0  0  0  0  0  0  0
   58.4340   34.5020   44.8720 C   0  0  0  0  0  0  0  0  0  0  0  0
   57.2860   34.0660   45.5440 C   0  0  0  0  0  0  0  0  0  0  0  0
   57.3930   33.4640   46.8030 C   0  0  0  0  0  0  0  0  0  0  0  0
   58.6520   33.2990   47.3910 C   0  0  0  0  0  0  0  0  0  0  0  0
   58.7720   32.7170   48.6130 N   0  0  0  0  0  0  0  0  0  0  0  0
   59.9880   32.5510   49.2060 C   0  0  0  0  0  0  0  0  0  0  0  0
   60.1000   31.9550   50.4480 N   0  0  0  0  0  0  0  0  0  0  0  0
   58.9150   31.5160   51.1410 C   0  0  0  0  0  0  0  0  0  0  0  0
   57.9950   32.4550   51.6380 C   0  0  0  0  0  0  0  0  0  0  0  0
   56.8440   32.0270   52.3060 C   0  0  0  0  0  0  0  0  0  0  0  0
   56.6030   30.6610   52.4850 C   0  0  0  0  0  0  0  0  0  0  0  0
   55.1590   30.1270   53.3240 Cl  0  0  0  0  0  0  0  0  0  0  0  0
   57.5160   29.7220   51.9940 C   0  0  0  0  0  0  0  0  0  0  0  0
   58.6670   30.1460   51.3250 C   0  0  0  0  0  0  0  0  0  0  0  0
   61.3360   31.7770   51.0310 C   0  0  0  0  0  0  0  0  0  0  0  0
   61.4470   31.2430   52.1700 O   0  0  0  0  0  0  0  0  0  0  0  0
   63.7260   33.1330   48.6820 C   0  0  0  0  0  0  0  0  0  0  0  0
   64.0580   33.6910   47.6030 O   0  0  0  0  0  0  0  0  0  0  0  0
   66.4694   33.2496   48.9326 H   0  0  0  0  0  0  0  0  0  0  0  0
   66.5030   32.4173   50.6461 H   0  0  0  0  0  0  0  0  0  0  0  0
   64.1740   31.6960   51.6980 H   0  0  0  0  0  0  0  0  0  0  0  0
   60.5951   34.6836   44.9231 H   0  0  0  0  0  0  0  0  0  0  0  0
   58.3437   34.9738   43.8824 H   0  0  0  0  0  0  0  0  0  0  0  0
   56.2967   34.1969   45.0811 H   0  0  0  0  0  0  0  0  0  0  0  0
   56.4897   33.1214   47.3289 H   0  0  0  0  0  0  0  0  0  0  0  0
   58.1812   33.5304   51.5009 H   0  0  0  0  0  0  0  0  0  0  0  0
   56.1264   32.7661   52.6916 H   0  0  0  0  0  0  0  0  0  0  0  0
   57.3274   28.6475   52.1348 H   0  0  0  0  0  0  0  0  0  0  0  0
   59.3820   29.4036   50.9408 H   0  0  0  0  0  0  0  0  0  0  0  0
  1  2  2  0
  2  3  1  0
  3  4  1  0
  4  5  2  0
  5  6  1  0
  6  7  2  0
  7  8  1  0
  8  9  2  0
  9 10  1  0
 10 11  2  0
 11 12  1  0
 12 13  2  0
 13 14  1  0
 14 15  2  0
 15 16  1  0
 16 17  1  0
 17 18  2  0
 18 19  1  0
 19 20  2  0
 20 21  1  0
 20 22  1  0
 22 23  2  0
 16 24  1  0
 24 25  2  0
  5 26  1  0
 26 27  2  0
 26  2  1  0
 24  4  1  0
 15  6  1  0
 23 17  1  0
 13  8  1  0
  1 28  1  0
  1 29  1  0
  3 30  1  0
  9 31  1  0
 10 32  1  0
 11 33  1  0
 12 34  1  0
 18 35  1  0
 19 36  1  0
 22 37  1  0
 23 38  1  0
M  END
>  <UniqueID>  (78) 
70

>  <SMILES>  (78) 
C=C1Nc2c(c3nc4ccccc4nc3n(-c3ccc(Cl)cc3)c2=O)C1=O

>  <Energy>  (78) 
91.06923768999943

>  <Genealogy>  (78) 
C=C1Nc2c(c3nc4ccccc4nc3n(-c3ccc(Cl)cc3)c2=O)C1=O (3D coordinates assigned)
C=C1Nc2c(c3nc4ccccc4nc3n(-c3ccc(Cl)cc3)c2=O)C1=O (nonaromatic ring conformer: 91.06923768999943 kcal/mol)

>  <smiles>  (78) 
C=C1Nc2c(c3nc4ccccc4nc3n(-c3ccc(Cl)cc3)c2=O)C1=O

>  <score_type>  (78) 
oracle

>  <origin>  (78) 
adg

>  <m_score__min__energy>  (78) 
-7.75

>  <m_primary>  (78) 
energy

$$$$
79:0
     RDKit          3D

 59 62  0  0  0  0  0  0  0  0999 V2000
   59.5850   29.6340   44.9030 C   0  0  0  0  0  0  0  0  0  0  0  0
   59.4660   29.1660   46.1550 C   0  0  0  0  0  0  0  0  0  0  0  0
   58.8510   27.9700   46.5390 C   0  0  0  0  0  0  0  0  0  0  0  0
   58.2240   27.0800   45.7420 C   0  0  0  0  0  0  0  0  0  0  0  0
   57.4320   25.9410   46.2400 C   0  0  0  0  0  0  0  0  0  0  0  0
   57.9710   24.8950   46.8920 N   0  0  0  0  0  0  0  0  0  0  0  0
   56.8950   24.1570   47.2440 C   0  0  0  0  0  0  0  0  0  0  0  0
   56.9950   23.0680   47.8690 O   0  0  0  0  0  0  0  0  0  0  0  0
   55.7040   24.6810   46.8840 N   0  0  0  0  0  0  0  0  0  0  0  0
   56.0580   25.8190   46.2620 C   0  0  0  0  0  0  0  0  0  0  0  0
   55.1450   26.7460   45.7670 O   0  0  0  0  0  0  0  0  0  0  0  0
   58.9710   27.8950   47.9200 C   0  0  0  0  0  0  0  0  0  0  0  0
   59.6680   29.0180   48.3170 C   0  0  0  0  0  0  0  0  0  0  0  0
   60.0350   29.3070   49.7160 C   0  0  0  0  0  0  0  0  0  0  0  0
   61.1550   28.9180   50.1450 O   0  0  0  0  0  0  0  0  0  0  0  0
   59.1630   30.0710   50.5690 N   0  0  0  0  0  0  0  0  0  0  0  0
   58.3830   31.1810   50.0090 C   0  0  0  0  0  0  0  0  0  0  0  0
   57.5380   31.8670   51.0910 C   0  0  0  0  0  0  0  0  0  0  0  0
   58.3270   32.2390   52.2960 N   0  0  0  0  0  0  0  0  0  0  0  0
   58.9090   33.5950   52.1900 C   0  0  0  0  0  0  0  0  0  0  0  0
   60.1400   33.5860   51.3220 C   0  0  0  0  0  0  0  0  0  0  0  0
   61.3980   33.2840   51.8690 C   0  0  0  0  0  0  0  0  0  0  0  0
   62.5350   33.2650   51.0560 C   0  0  0  0  0  0  0  0  0  0  0  0
   62.4280   33.5340   49.6810 C   0  0  0  0  0  0  0  0  0  0  0  0
   63.6380   33.5160   48.8350 C   0  0  0  0  0  0  0  0  0  0  0  0
   64.6310   32.8290   49.2020 O   0  0  0  0  0  0  0  0  0  0  0  0
   63.7090   34.2200   47.5870 N   0  0  0  0  0  0  0  0  0  0  0  0
   63.0300   33.8140   46.3620 C   0  0  0  0  0  0  0  0  0  0  0  0
   61.1730   33.8590   49.1390 C   0  0  0  0  0  0  0  0  0  0  0  0
   60.0370   33.8780   49.9520 C   0  0  0  0  0  0  0  0  0  0  0  0
   59.3610   31.2450   52.6950 C   0  0  0  0  0  0  0  0  0  0  0  0
   59.1760   29.8820   52.0230 C   0  0  0  0  0  0  0  0  0  0  0  0
   59.9590   29.8000   47.2500 N   0  0  0  0  0  0  0  0  0  0  0  0
   60.6210   31.1100   47.2770 C   0  0  0  0  0  0  0  0  0  0  0  0
   60.0919   30.5930   44.7202 H   0  0  0  0  0  0  0  0  0  0  0  0
   59.1756   29.0587   44.0595 H   0  0  0  0  0  0  0  0  0  0  0  0
   58.3091   27.2126   44.6533 H   0  0  0  0  0  0  0  0  0  0  0  0
   54.7660   27.4680   46.3670 H   0  0  0  0  0  0  0  0  0  0  0  0
   58.5857   27.0963   48.5708 H   0  0  0  0  0  0  0  0  0  0  0  0
   59.0717   31.9182   49.5706 H   0  0  0  0  0  0  0  0  0  0  0  0
   57.7058   30.7784   49.2414 H   0  0  0  0  0  0  0  0  0  0  0  0
   57.0973   32.7804   50.6649 H   0  0  0  0  0  0  0  0  0  0  0  0
   56.7677   31.1498   51.4107 H   0  0  0  0  0  0  0  0  0  0  0  0
   58.1632   34.2735   51.7501 H   0  0  0  0  0  0  0  0  0  0  0  0
   59.1919   33.9354   53.1970 H   0  0  0  0  0  0  0  0  0  0  0  0
   61.4889   33.0614   52.9424 H   0  0  0  0  0  0  0  0  0  0  0  0
   63.5180   33.0384   51.4947 H   0  0  0  0  0  0  0  0  0  0  0  0
   62.1115   33.2648   46.6166 H   0  0  0  0  0  0  0  0  0  0  0  0
   62.7722   34.7063   45.7727 H   0  0  0  0  0  0  0  0  0  0  0  0
   63.6941   33.1646   45.7727 H   0  0  0  0  0  0  0  0  0  0  0  0
   61.0845   34.0997   48.0693 H   0  0  0  0  0  0  0  0  0  0  0  0
   59.0568   34.1229   49.5169 H   0  0  0  0  0  0  0  0  0  0  0  0
   60.3502   31.6395   52.4197 H   0  0  0  0  0  0  0  0  0  0  0  0
   59.2659   31.0909   53.7800 H   0  0  0  0  0  0  0  0  0  0  0  0
   60.0061   29.2163   52.3021 H   0  0  0  0  0  0  0  0  0  0  0  0
   58.2283   29.4292   52.3499 H   0  0  0  0  0  0  0  0  0  0  0  0
   60.7777   31.4202   48.3207 H   0  0  0  0  0  0  0  0  0  0  0  0
   61.5923   31.0406   46.7653 H   0  0  0  0  0  0  0  0  0  0  0  0
   59.9890   31.8508   46.7653 H   0  0  0  0  0  0  0  0  0  0  0  0
  1  2  2  0
  2  3  1  0
  3  4  2  3
  4  5  1  0
  5  6  1  0
  6  7  1  0
  7  8  2  0
  7  9  1  0
  9 10  1  0
 10 11  1  0
  3 12  1  0
 12 13  2  0
 13 14  1  0
 14 15  2  0
 14 16  1  0
 16 17  1  0
 17 18  1  0
 18 19  1  0
 19 20  1  0
 20 21  1  0
 21 22  2  0
 22 23  1  0
 23 24  2  0
 24 25  1  0
 25 26  2  0
 25 27  1  0
 27 28  1  0
 24 29  1  0
 29 30  2  0
 19 31  1  0
 31 32  1  0
 13 33  1  0
 33 34  1  0
 33  2  1  0
 10  5  2  0
 32 16  1  0
 30 21  1  0
  1 35  1  0
  1 36  1  0
  4 37  1  0
 11 38  1  0
 12 39  1  0
 17 40  1  0
 17 41  1  0
 18 42  1  0
 18 43  1  0
 20 44  1  0
 20 45  1  0
 22 46  1  0
 23 47  1  0
 28 48  1  0
 28 49  1  0
 28 50  1  0
 29 51  1  0
 30 52  1  0
 31 53  1  0
 31 54  1  0
 32 55  1  0
 32 56  1  0
 34 57  1  0
 34 58  1  0
 34 59  1  0
M  CHG  3   6  -1   9  -1  27  -1
M  END
>  <UniqueID>  (79) 
71

>  <SMILES>  (79) 
C=c1c(=Cc2[n-]c(=O)[n-]c2O)cc(C(=O)N2CCN(Cc3ccc(C(=O)[N-]C)cc3)CC2)n1C

>  <Energy>  (79) 
143.83509137349708

>  <Genealogy>  (79) 
C=c1c(=Cc2[n-]c(=O)[n-]c2O)cc(C(=O)N2CCN(Cc3ccc(C(=O)[N-]C)cc3)CC2)n1C (protonated)
C=c1c(=Cc2[n-]c(=O)[n-]c2O)cc(C(=O)N2CCN(Cc3ccc(C(=O)[N-]C)cc3)CC2)n1C (3D coordinates assigned)
C=c1c(=Cc2[n-]c(=O)[n-]c2O)cc(C(=O)N2CCN(Cc3ccc(C(=O)[N-]C)cc3)CC2)n1C (nonaromatic ring conformer: 143.83509137349708 kcal/mol)

>  <smiles>  (79) 
C=c1c(=Cc2[nH]c(=O)[nH]c2O)cc(C(=O)N2CCN(Cc3ccc(C(=O)NC)cc3)CC2)n1C

>  <score_type>  (79) 
oracle

>  <origin>  (79) 
adg

>  <m_score__min__energy>  (79) 
-15.73

>  <m_primary>  (79) 
energy

$$$$
80:0
     RDKit          3D

 23 24  0  0  0  0  0  0  0  0999 V2000
   57.2320   25.9670   45.4370 O   0  0  0  0  0  0  0  0  0  0  0  0
   56.4780   26.9430   45.6910 C   0  0  0  0  0  0  0  0  0  0  0  0
   55.1440   26.6970   45.9920 O   0  0  0  0  0  0  0  0  0  0  0  0
   56.9960   28.3340   45.6690 C   0  0  0  0  0  0  0  0  0  0  0  0
   58.2380   28.6260   46.2540 C   0  0  0  0  0  0  0  0  0  0  0  0
   58.7210   29.8940   46.2400 N   0  0  0  0  0  0  0  0  0  0  0  0
   58.0260   30.9120   45.6660 C   0  0  0  0  0  0  0  0  0  0  0  0
   58.5780   32.2900   45.6650 C   0  0  0  0  0  0  0  0  0  0  0  0
   57.9670   33.3050   44.9040 C   0  0  0  0  0  0  0  0  0  0  0  0
   58.4870   34.6020   44.9030 C   0  0  0  0  0  0  0  0  0  0  0  0
   59.6210   34.9040   45.6610 C   0  0  0  0  0  0  0  0  0  0  0  0
   60.2400   33.9070   46.4230 C   0  0  0  0  0  0  0  0  0  0  0  0
   61.3720   34.1940   47.1830 O   0  0  0  0  0  0  0  0  0  0  0  0
   59.7210   32.6070   46.4250 C   0  0  0  0  0  0  0  0  0  0  0  0
   56.8210   30.6530   45.0940 N   0  0  0  0  0  0  0  0  0  0  0  0
   56.2910   29.4030   45.0800 C   0  0  0  0  0  0  0  0  0  0  0  0
   55.1700   29.2210   44.5360 O   0  0  0  0  0  0  0  0  0  0  0  0
   58.8228   27.8229   46.7262 H   0  0  0  0  0  0  0  0  0  0  0  0
   57.0732   33.0751   44.3055 H   0  0  0  0  0  0  0  0  0  0  0  0
   58.0023   35.3870   44.3040 H   0  0  0  0  0  0  0  0  0  0  0  0
   60.0275   35.9261   45.6588 H   0  0  0  0  0  0  0  0  0  0  0  0
   61.3820   34.0690   48.1890 H   0  0  0  0  0  0  0  0  0  0  0  0
   60.2101   31.8258   47.0255 H   0  0  0  0  0  0  0  0  0  0  0  0
  1  2  2  0
  2  3  1  0
  2  4  1  0
  4  5  2  0
  5  6  1  0
  6  7  1  0
  7  8  1  0
  8  9  2  0
  9 10  1  0
 10 11  2  0
 11 12  1  0
 12 13  1  0
 12 14  2  0
  7 15  2  0
 15 16  1  0
 16 17  2  0
 16  4  1  0
 14  8  1  0
  5 18  1  0
  9 19  1  0
 10 20  1  0
 11 21  1  0
 13 22  1  0
 14 23  1  0
M  CHG  2   3  -1   6  -1
M  END
>  <UniqueID>  (80) 
72

>  <SMILES>  (80) 
O=C([O-])c1c[n-]c(-c2cccc(O)c2)nc1=O

>  <Energy>  (80) 
28.464360160482

>  <Genealogy>  (80) 
O=C([O-])c1c[n-]c(-c2cccc(O)c2)nc1=O (protonated)
O=C([O-])c1c[n-]c(-c2cccc(O)c2)nc1=O (3D coordinates assigned)
O=C([O-])c1c[n-]c(-c2cccc(O)c2)nc1=O (optimized conformer: 28.464360160482 kcal/mol)

>  <smiles>  (80) 
O=C(O)c1c[nH]c(-c2cccc(O)c2)nc1=O

>  <score_type>  (80) 
oracle

>  <origin>  (80) 
adg

>  <m_score__min__energy>  (80) 
-10.27

>  <m_primary>  (80) 
energy

$$$$
81:0
     RDKit          3D

 90 94  0  0  1  0  0  0  0  0999 V2000
   57.3960   24.8680   43.6630 C   0  0  0  0  0  0  0  0  0  0  0  0
   56.8250   23.5520   44.1690 C   0  0  0  0  0  0  0  0  0  0  0  0
   57.9780   22.6150   44.4850 C   0  0  0  0  0  0  0  0  0  0  0  0
   55.9140   22.9510   43.1220 C   0  0  0  0  0  0  0  0  0  0  0  0
   56.0500   23.8560   45.3090 O   0  0  0  0  0  0  0  0  0  0  0  0
   56.3320   25.0540   45.9830 C   0  0  0  0  0  0  0  0  0  0  0  0
   55.4100   25.9070   45.9840 O   0  0  0  0  0  0  0  0  0  0  0  0
   57.5870   25.2340   46.6030 N   0  0  0  0  0  0  0  0  0  0  0  0
   57.9890   26.4220   47.3230 C   0  0  0  0  0  0  0  0  0  0  0  0
   58.5620   27.3820   46.3530 C   0  0  0  0  0  0  0  0  0  0  0  0
   59.8770   27.7810   46.3380 C   0  0  0  0  0  0  0  0  0  0  0  0
   60.3950   28.6830   45.4300 C   0  0  0  0  0  0  0  0  0  0  0  0
   59.5150   29.1920   44.4980 C   0  0  0  0  0  0  0  0  0  0  0  0
   58.1860   28.8200   44.4770 C   0  0  0  0  0  0  0  0  0  0  0  0
   57.2950   29.4230   43.4270 C   0  0  0  0  0  0  0  0  0  0  0  0
   56.9260   30.7550   43.9280 C   0  0  0  0  0  0  0  0  0  0  0  0
   56.0080   30.8150   44.7970 O   0  0  0  0  0  0  0  0  0  0  0  0
   57.4160   30.3140   50.8600 N   0  0  0  0  0  0  0  0  0  0  0  0
   58.5050   30.1140   50.2090 C   0  0  0  0  0  0  0  0  0  0  0  0
   59.4510   29.1830   50.2080 N   0  0  0  0  0  0  0  0  0  0  0  0
   60.4120   29.3500   49.3760 N   0  0  0  0  0  0  0  0  0  0  0  0
   60.6190   30.1920   48.5950 C   0  0  0  0  0  0  0  0  0  0  0  0
   61.5960   30.6080   47.5670 C   0  0  0  0  0  0  0  0  0  0  0  0
   62.1400   31.9470   48.0080 C   0  0  0  0  0  0  0  0  0  0  0  0
   61.5260   33.3310   47.0500 S   0  0  0  0  0  0  0  0  0  0  0  0
   60.7410   34.5250   48.1300 C   0  0  0  0  0  0  0  0  0  0  0  0
   59.2660   34.6100   47.7850 C   0  0  0  0  0  0  0  0  0  0  0  0
   59.0350   34.1520   46.3760 C   0  0  0  0  0  0  0  0  0  0  0  0
   59.3050   34.3650   45.2740 N   0  0  0  0  0  0  0  0  0  0  0  0
   58.9600   33.8040   44.1610 N   0  0  0  0  0  0  0  0  0  0  0  0
   58.1200   32.7650   44.3020 C   0  0  0  0  0  0  0  0  0  0  0  0
   57.5640   31.9670   43.4710 N   0  0  0  0  0  0  0  0  0  0  0  0
   57.4060   30.0300   52.2520 C   0  0  0  0  0  0  0  0  0  0  0  0
   56.9640   28.9660   52.7510 O   0  0  0  0  0  0  0  0  0  0  0  0
   57.9450   31.0330   53.2490 C   0  0  0  0  0  0  0  0  0  0  0  0
   59.0170   31.8360   52.6640 C   0  0  0  0  0  0  0  0  0  0  0  0
   58.6410   32.9620   51.9340 C   0  0  0  0  0  0  0  0  0  0  0  0
   59.5460   33.8270   51.3700 C   0  0  0  0  0  0  0  0  0  0  0  0
   60.8790   33.5970   51.5160 C   0  0  0  0  0  0  0  0  0  0  0  0
   61.2740   32.4940   52.2310 C   0  0  0  0  0  0  0  0  0  0  0  0
   60.3610   31.6050   52.8090 C   0  0  0  0  0  0  0  0  0  0  0  0
   60.8840   30.5500   53.4930 O   0  0  0  0  0  0  0  0  0  0  0  0
   61.1070   29.3120   52.9600 C   0  0  0  0  0  0  0  0  0  0  0  0
   62.1210   28.9510   52.1100 C   0  0  0  0  0  0  0  0  0  0  0  0
   62.2960   27.6860   51.6030 C   0  0  0  0  0  0  0  0  0  0  0  0
   61.3910   26.6900   51.9670 C   0  0  0  0  0  0  0  0  0  0  0  0
   60.3580   27.0120   52.8180 C   0  0  0  0  0  0  0  0  0  0  0  0
   60.2100   28.2990   53.3120 C   0  0  0  0  0  0  0  0  0  0  0  0
   57.8580   32.6430   46.1420 S   0  0  0  0  0  0  0  0  0  0  0  0
   59.0920   31.3110   48.8820 S   0  0  0  0  0  0  0  0  0  0  0  0
   57.6870   27.9070   45.4040 C   0  0  0  0  0  0  0  0  0  0  0  0
   57.6709   25.5017   44.5191 H   0  0  0  0  0  0  0  0  0  0  0  0
   58.2889   24.6695   43.0520 H   0  0  0  0  0  0  0  0  0  0  0  0
   56.6410   25.3845   43.0520 H   0  0  0  0  0  0  0  0  0  0  0  0
   58.0889   22.5249   45.5757 H   0  0  0  0  0  0  0  0  0  0  0  0
   57.7736   21.6238   44.0541 H   0  0  0  0  0  0  0  0  0  0  0  0
   58.9065   23.0178   44.0541 H   0  0  0  0  0  0  0  0  0  0  0  0
   55.0938   22.4099   43.6166 H   0  0  0  0  0  0  0  0  0  0  0  0
   55.4982   23.7527   42.4940 H   0  0  0  0  0  0  0  0  0  0  0  0
   56.4874   22.2533   42.4940 H   0  0  0  0  0  0  0  0  0  0  0  0
   58.2850   24.4630   46.5440 H   0  0  0  0  0  0  0  0  0  0  0  0
   57.1150   26.8704   47.8180 H   0  0  0  0  0  0  0  0  0  0  0  0
   58.7357   26.1662   48.0891 H   0  0  0  0  0  0  0  0  0  0  0  0
   60.5559   27.3574   47.0928 H   0  0  0  0  0  0  0  0  0  0  0  0
   61.4540   28.9800   45.4490 H   0  0  0  0  0  0  0  0  0  0  0  0
   59.8816   29.9128   43.7524 H   0  0  0  0  0  0  0  0  0  0  0  0
   57.8335   29.5092   42.4717 H   0  0  0  0  0  0  0  0  0  0  0  0
   56.4070   28.7999   43.2445 H   0  0  0  0  0  0  0  0  0  0  0  0
   59.3950   28.3460   50.8720 H   0  0  0  0  0  0  0  0  0  0  0  0
   61.1014   30.7023   46.5890 H   0  0  0  0  0  0  0  0  0  0  0  0
   62.4019   29.8668   47.4615 H   0  0  0  0  0  0  0  0  0  0  0  0
   63.2360   31.9223   47.9177 H   0  0  0  0  0  0  0  0  0  0  0  0
   61.8051   32.1022   49.0442 H   0  0  0  0  0  0  0  0  0  0  0  0
   61.2093   35.5107   47.9919 H   0  0  0  0  0  0  0  0  0  0  0  0
   60.8597   34.2120   49.1778 H   0  0  0  0  0  0  0  0  0  0  0  0
   58.9285   35.6518   47.8881 H   0  0  0  0  0  0  0  0  0  0  0  0
   58.6999   33.9616   48.4699 H   0  0  0  0  0  0  0  0  0  0  0  0
   59.2760   34.0920   43.1830 H   0  0  0  0  0  0  0  0  0  0  0  0
   57.1287   31.6995   53.5645 H   0  0  0  0  0  0  0  0  0  0  0  0
   58.3520   30.4834   54.1106 H   0  0  0  0  0  0  0  0  0  0  0  0
   57.5683   33.1676   51.8034 H   0  0  0  0  0  0  0  0  0  0  0  0
   59.1950   34.7017   50.8029 H   0  0  0  0  0  0  0  0  0  0  0  0
   61.6209   34.2774   51.0725 H   0  0  0  0  0  0  0  0  0  0  0  0
   62.3500   32.3014   52.3544 H   0  0  0  0  0  0  0  0  0  0  0  0
   62.8429   29.7265   51.8142 H   0  0  0  0  0  0  0  0  0  0  0  0
   63.1326   27.4638   50.9242 H   0  0  0  0  0  0  0  0  0  0  0  0
   61.5004   25.6657   51.5813 H   0  0  0  0  0  0  0  0  0  0  0  0
   59.6372   26.2345   53.1113 H   0  0  0  0  0  0  0  0  0  0  0  0
   59.3747   28.5264   53.9907 H   0  0  0  0  0  0  0  0  0  0  0  0
   56.6285   27.6081   45.3870 H   0  0  0  0  0  0  0  0  0  0  0  0
  1  2  1  0
  2  3  1  0
  2  4  1  0
  2  5  1  0
  5  6  1  0
  6  7  2  0
  6  8  1  0
  8  9  1  0
  9 10  1  0
 10 11  2  0
 11 12  1  0
 12 13  2  0
 13 14  1  0
 14 15  1  0
 15 16  1  0
 16 17  2  0
 16 18  1  0
 18 19  2  0
 19 20  1  0
 20 21  1  0
 21 22  2  0
 22 23  1  0
 23 24  1  0
 24 25  1  0
 25 26  1  0
 26 27  1  0
 27 28  1  0
 28 29  2  0
 29 30  1  0
 30 31  1  0
 31 32  2  0
 32 33  1  0
 33 34  2  0
 33 35  1  0
 35 36  1  0
 36 37  2  0
 37 38  1  0
 38 39  2  0
 39 40  1  0
 40 41  2  0
 41 42  1  0
 42 43  1  0
 43 44  2  0
 44 45  1  0
 45 46  2  0
 46 47  1  0
 47 48  2  0
 31 49  1  0
 22 50  1  0
 14 51  2  0
 51 10  1  0
 50 19  1  0
 49 28  1  0
 41 36  1  0
 48 43  1  0
  1 52  1  0
  1 53  1  0
  1 54  1  0
  3 55  1  0
  3 56  1  0
  3 57  1  0
  4 58  1  0
  4 59  1  0
  4 60  1  0
  8 61  1  0
  9 62  1  0
  9 63  1  0
 11 64  1  0
 12 65  1  0
 13 66  1  0
 15 67  1  0
 15 68  1  0
 20 69  1  0
 23 70  1  0
 23 71  1  0
 24 72  1  0
 24 73  1  0
 26 74  1  0
 26 75  1  0
 27 76  1  0
 27 77  1  0
 30 78  1  0
 35 79  1  0
 35 80  1  0
 37 81  1  0
 38 82  1  0
 39 83  1  0
 40 84  1  0
 44 85  1  0
 45 86  1  0
 46 87  1  0
 47 88  1  0
 48 89  1  0
 51 90  1  0
M  END
>  <smiles>  (81) 
CC(C)(C)OC(=O)NCc1cccc(CC(=O)N=c2[nH]nc(CCSCCc3n[nH]c(=NC(=O)Cc4ccccc4Oc4ccccc4)s3)s2)c1

>  <score_type>  (81) 
oracle

>  <origin>  (81) 
adg

>  <m_score__min__energy>  (81) 
-11.31

>  <m_primary>  (81) 
energy

$$$$
82:0
     RDKit          3D

 50 52  0  0  0  0  0  0  0  0999 V2000
   57.0040   30.8220   43.6390 C   0  0  0  0  0  0  0  0  0  0  0  0
   57.5890   29.8900   44.3970 C   0  0  0  0  0  0  0  0  0  0  0  0
   58.9070   30.1350   45.0760 C   0  0  0  0  0  0  0  0  0  0  0  0
   59.2130   29.0340   46.0620 C   0  0  0  0  0  0  0  0  0  0  0  0
   59.0660   27.6960   45.6570 C   0  0  0  0  0  0  0  0  0  0  0  0
   59.2680   26.6560   46.5650 C   0  0  0  0  0  0  0  0  0  0  0  0
   59.6040   26.9390   47.8880 C   0  0  0  0  0  0  0  0  0  0  0  0
   59.7490   28.2630   48.3070 C   0  0  0  0  0  0  0  0  0  0  0  0
   59.5690   29.3250   47.3970 C   0  0  0  0  0  0  0  0  0  0  0  0
   59.7350   30.6680   47.7790 O   0  0  0  0  0  0  0  0  0  0  0  0
   58.6950   31.6410   47.8950 C   0  0  0  0  0  0  0  0  0  0  0  0
   58.9420   32.8530   47.0180 C   0  0  0  0  0  0  0  0  0  0  0  0
   57.9990   33.1130   46.0040 C   0  0  0  0  0  0  0  0  0  0  0  0
   58.1350   34.2090   45.1580 C   0  0  0  0  0  0  0  0  0  0  0  0
   59.2250   35.0580   45.2950 C   0  0  0  0  0  0  0  0  0  0  0  0
   60.1900   34.8100   46.2690 C   0  0  0  0  0  0  0  0  0  0  0  0
   60.0840   33.7070   47.1470 C   0  0  0  0  0  0  0  0  0  0  0  0
   61.1750   33.4560   48.1520 C   0  0  0  0  0  0  0  0  0  0  0  0
   61.5860   34.4200   48.8570 O   0  0  0  0  0  0  0  0  0  0  0  0
   61.7480   32.1260   48.3460 N   0  0  0  0  0  0  0  0  0  0  0  0
   62.4420   31.6570   47.1280 C   0  0  0  0  0  0  0  0  0  0  0  0
   63.7270   32.4630   46.8350 C   0  0  0  0  0  0  0  0  0  0  0  0
   64.1950   33.2140   48.0090 N   0  0  0  0  0  0  0  0  0  0  0  0
   64.1090   32.4010   49.2220 C   0  0  0  0  0  0  0  0  0  0  0  0
   62.6430   32.0250   49.5310 C   0  0  0  0  0  0  0  0  0  0  0  0
   56.0387   30.6113   43.1554 H   0  0  0  0  0  0  0  0  0  0  0  0
   57.4877   31.7999   43.4986 H   0  0  0  0  0  0  0  0  0  0  0  0
   57.0924   28.9172   44.5275 H   0  0  0  0  0  0  0  0  0  0  0  0
   59.7026   30.1714   44.3173 H   0  0  0  0  0  0  0  0  0  0  0  0
   58.8526   31.0902   45.6188 H   0  0  0  0  0  0  0  0  0  0  0  0
   58.7898   27.4673   44.6171 H   0  0  0  0  0  0  0  0  0  0  0  0
   59.1620   25.6116   46.2365 H   0  0  0  0  0  0  0  0  0  0  0  0
   59.7552   26.1173   48.6035 H   0  0  0  0  0  0  0  0  0  0  0  0
   60.0055   28.4792   49.3546 H   0  0  0  0  0  0  0  0  0  0  0  0
   57.7423   31.1778   47.5986 H   0  0  0  0  0  0  0  0  0  0  0  0
   58.6673   31.9816   48.9406 H   0  0  0  0  0  0  0  0  0  0  0  0
   57.1400   32.4374   45.8790 H   0  0  0  0  0  0  0  0  0  0  0  0
   57.3801   34.4027   44.3817 H   0  0  0  0  0  0  0  0  0  0  0  0
   59.3271   35.9298   44.6320 H   0  0  0  0  0  0  0  0  0  0  0  0
   61.0527   35.4868   46.3567 H   0  0  0  0  0  0  0  0  0  0  0  0
   60.9630   31.4670   48.5460 H   0  0  0  0  0  0  0  0  0  0  0  0
   62.7113   30.5987   47.2602 H   0  0  0  0  0  0  0  0  0  0  0  0
   61.7579   31.7957   46.2778 H   0  0  0  0  0  0  0  0  0  0  0  0
   64.5184   31.7657   46.5228 H   0  0  0  0  0  0  0  0  0  0  0  0
   63.4951   33.1891   46.0419 H   0  0  0  0  0  0  0  0  0  0  0  0
   65.2010   33.4580   47.8560 H   0  0  0  0  0  0  0  0  0  0  0  0
   64.6948   31.4807   49.0810 H   0  0  0  0  0  0  0  0  0  0  0  0
   64.5072   32.9846   50.0651 H   0  0  0  0  0  0  0  0  0  0  0  0
   62.6184   30.9890   49.9000 H   0  0  0  0  0  0  0  0  0  0  0  0
   62.2738   32.7404   50.2806 H   0  0  0  0  0  0  0  0  0  0  0  0
  1  2  2  0
  2  3  1  0
  3  4  1  0
  4  5  2  0
  5  6  1  0
  6  7  2  0
  7  8  1  0
  8  9  2  0
  9 10  1  0
 10 11  1  0
 11 12  1  0
 12 13  2  0
 13 14  1  0
 14 15  2  0
 15 16  1  0
 16 17  2  0
 17 18  1  0
 18 19  2  0
 18 20  1  0
 20 21  1  0
 21 22  1  0
 22 23  1  0
 23 24  1  0
 24 25  1  0
  9  4  1  0
 17 12  1  0
 25 20  1  0
  1 26  1  0
  1 27  1  0
  2 28  1  0
  3 29  1  0
  3 30  1  0
  5 31  1  0
  6 32  1  0
  7 33  1  0
  8 34  1  0
 11 35  1  0
 11 36  1  0
 13 37  1  0
 14 38  1  0
 15 39  1  0
 16 40  1  0
 20 41  1  0
 21 42  1  0
 21 43  1  0
 22 44  1  0
 22 45  1  0
 23 46  1  0
 24 47  1  0
 24 48  1  0
 25 49  1  0
 25 50  1  0
M  CHG  1  20   1
M  END
>  <UniqueID>  (82) 
73

>  <SMILES>  (82) 
C=CCc1ccccc1OCc1ccccc1C(=O)[NH+]1CCNCC1

>  <Energy>  (82) 
66.43462088664073

>  <Genealogy>  (82) 
C=CCc1ccccc1OCc1ccccc1C(=O)[NH+]1CCNCC1 (protonated)
C=CCc1ccccc1OCc1ccccc1C(=O)[NH+]1CCNCC1 (3D coordinates assigned)
C=CCc1ccccc1OCc1ccccc1C(=O)[NH+]1CCNCC1 (nonaromatic ring conformer: 66.43462088664073 kcal/mol)

>  <smiles>  (82) 
C=CCc1ccccc1OCc1ccccc1C(=O)N1CCNCC1

>  <score_type>  (82) 
oracle

>  <origin>  (82) 
adg

>  <m_score__min__energy>  (82) 
-6.2000000000000002

>  <m_primary>  (82) 
energy

$$$$
83:0
     RDKit          3D

 40 41  0  0  0  0  0  0  0  0999 V2000
   51.0230   32.6730   49.5350 O   0  0  0  0  0  0  0  0  0  0  0  0
   51.4030   32.3390   50.6880 C   0  0  0  0  0  0  0  0  0  0  0  0
   51.0290   33.1020   51.7870 O   0  0  0  0  0  0  0  0  0  0  0  0
   52.2010   31.0930   50.8810 C   0  0  0  0  0  0  0  0  0  0  0  0
   53.3760   31.3930   51.6880 N   0  0  0  0  0  0  0  0  0  0  0  0
   54.3760   30.4320   52.0440 C   0  0  0  0  0  0  0  0  0  0  0  0
   54.0870   29.2070   52.0070 O   0  0  0  0  0  0  0  0  0  0  0  0
   55.7460   30.8500   52.4870 C   0  0  0  0  0  0  0  0  0  0  0  0
   56.7220   30.1440   51.7270 O   0  0  0  0  0  0  0  0  0  0  0  0
   57.7310   30.7570   50.9690 C   0  0  0  0  0  0  0  0  0  0  0  0
   57.9610   32.1450   50.9980 C   0  0  0  0  0  0  0  0  0  0  0  0
   58.9830   32.7060   50.2260 C   0  0  0  0  0  0  0  0  0  0  0  0
   59.7910   31.8900   49.4230 C   0  0  0  0  0  0  0  0  0  0  0  0
   61.0950   32.5940   48.4670 S   0  0  0  0  0  0  0  0  0  0  0  0
   61.4620   33.9270   49.0580 O   0  0  0  0  0  0  0  0  0  0  0  0
   62.3070   31.7060   48.5560 O   0  0  0  0  0  0  0  0  0  0  0  0
   60.6570   32.8110   46.7850 N   0  0  0  0  0  0  0  0  0  0  0  0
   60.8160   34.2080   46.3270 C   0  0  0  0  0  0  0  0  0  0  0  0
   59.4810   34.9650   46.2390 C   0  0  0  0  0  0  0  0  0  0  0  0
   58.5720   34.4690   47.1920 O   0  0  0  0  0  0  0  0  0  0  0  0
   58.1610   33.1670   46.8250 C   0  0  0  0  0  0  0  0  0  0  0  0
   59.3400   32.2320   46.4640 C   0  0  0  0  0  0  0  0  0  0  0  0
   59.5560   30.5090   49.3860 C   0  0  0  0  0  0  0  0  0  0  0  0
   58.5330   29.9480   50.1560 C   0  0  0  0  0  0  0  0  0  0  0  0
   51.5861   30.3387   51.3938 H   0  0  0  0  0  0  0  0  0  0  0  0
   52.5165   30.7026   49.9022 H   0  0  0  0  0  0  0  0  0  0  0  0
   55.8692   31.9316   52.3292 H   0  0  0  0  0  0  0  0  0  0  0  0
   55.8740   30.6207   53.5552 H   0  0  0  0  0  0  0  0  0  0  0  0
   57.3344   32.7911   51.6304 H   0  0  0  0  0  0  0  0  0  0  0  0
   59.1534   33.7925   50.2491 H   0  0  0  0  0  0  0  0  0  0  0  0
   61.4730   34.7363   47.0336 H   0  0  0  0  0  0  0  0  0  0  0  0
   61.2446   34.1763   45.3144 H   0  0  0  0  0  0  0  0  0  0  0  0
   59.6574   36.0341   46.4285 H   0  0  0  0  0  0  0  0  0  0  0  0
   59.0566   34.8242   45.2340 H   0  0  0  0  0  0  0  0  0  0  0  0
   57.6097   32.7244   47.6677 H   0  0  0  0  0  0  0  0  0  0  0  0
   57.5351   33.2643   45.9257 H   0  0  0  0  0  0  0  0  0  0  0  0
   59.2252   31.2919   47.0235 H   0  0  0  0  0  0  0  0  0  0  0  0
   59.3092   32.0706   45.3763 H   0  0  0  0  0  0  0  0  0  0  0  0
   60.1788   29.8640   48.7487 H   0  0  0  0  0  0  0  0  0  0  0  0
   58.3571   28.8627   50.1226 H   0  0  0  0  0  0  0  0  0  0  0  0
  1  2  2  0
  2  3  1  0
  2  4  1  0
  4  5  1  0
  5  6  1  0
  6  7  2  0
  6  8  1  0
  8  9  1  0
  9 10  1  0
 10 11  2  0
 11 12  1  0
 12 13  2  0
 13 14  1  0
 14 15  2  0
 14 16  2  0
 14 17  1  0
 17 18  1  0
 18 19  1  0
 19 20  1  0
 20 21  1  0
 21 22  1  0
 13 23  1  0
 23 24  2  0
 24 10  1  0
 22 17  1  0
  4 25  1  0
  4 26  1  0
  8 27  1  0
  8 28  1  0
 11 29  1  0
 12 30  1  0
 18 31  1  0
 18 32  1  0
 19 33  1  0
 19 34  1  0
 21 35  1  0
 21 36  1  0
 22 37  1  0
 22 38  1  0
 23 39  1  0
 24 40  1  0
M  CHG  2   3  -1   5  -1
M  END
>  <UniqueID>  (83) 
74

>  <SMILES>  (83) 
O=C([O-])C[N-]C(=O)COc1ccc(S(=O)(=O)N2CCOCC2)cc1

>  <Energy>  (83) 
44.56745814299512

>  <Genealogy>  (83) 
O=C([O-])C[N-]C(=O)COc1ccc(S(=O)(=O)N2CCOCC2)cc1 (protonated)
O=C([O-])C[N-]C(=O)COc1ccc(S(=O)(=O)N2CCOCC2)cc1 (3D coordinates assigned)
O=C([O-])C[N-]C(=O)COc1ccc(S(=O)(=O)N2CCOCC2)cc1 (nonaromatic ring conformer: 44.56745814299512 kcal/mol)

>  <smiles>  (83) 
O=C(O)CNC(=O)COc1ccc(S(=O)(=O)N2CCOCC2)cc1

>  <score_type>  (83) 
oracle

>  <origin>  (83) 
adg

>  <m_score__min__energy>  (83) 
-12.539999999999999

>  <m_primary>  (83) 
energy

$$$$
84:0
     RDKit          3D

 29 30  0  0  0  0  0  0  0  0999 V2000
   55.1430   28.2020   45.7140 H   0  0  0  0  0  0  0  0  0  0  0  0
   55.5200   28.7090   44.9220 O   0  0  0  0  0  0  0  0  0  0  0  0
   56.6110   29.5570   45.0710 C   0  0  0  0  0  0  0  0  0  0  0  0
   56.6490   30.8120   44.5920 N   0  0  0  0  0  0  0  0  0  0  0  0
   57.8740   31.2540   44.9500 C   0  0  0  0  0  0  0  0  0  0  0  0
   58.2600   32.4610   44.6410 N   0  0  0  0  0  0  0  0  0  0  0  0
   58.2780   33.6260   45.4700 C   0  0  0  0  0  0  0  0  0  0  0  0
   57.3570   34.4770   45.3420 O   0  0  0  0  0  0  0  0  0  0  0  0
   59.2970   33.7860   46.5370 C   0  0  0  0  0  0  0  0  0  0  0  0
   58.9070   34.1120   47.8490 C   0  0  0  0  0  0  0  0  0  0  0  0
   57.8403   34.2371   48.0865 H   0  0  0  0  0  0  0  0  0  0  0  0
   59.8660   34.2780   48.8530 C   0  0  0  0  0  0  0  0  0  0  0  0
   59.5513   34.5321   49.8759 H   0  0  0  0  0  0  0  0  0  0  0  0
   61.2220   34.1220   48.5600 C   0  0  0  0  0  0  0  0  0  0  0  0
   61.9744   34.2548   49.3514 H   0  0  0  0  0  0  0  0  0  0  0  0
   61.6240   33.7970   47.2610 C   0  0  0  0  0  0  0  0  0  0  0  0
   63.3280   33.6030   46.8940 Cl  0  0  0  0  0  0  0  0  0  0  0  0
   60.6670   33.6300   46.2530 C   0  0  0  0  0  0  0  0  0  0  0  0
   60.9877   33.3752   45.2321 H   0  0  0  0  0  0  0  0  0  0  0  0
   58.5980   30.3180   45.6340 N   0  0  0  0  0  0  0  0  0  0  0  0
   60.0090   30.2870   46.0360 C   0  0  0  0  0  0  0  0  0  0  0  0
   60.5322   31.1433   45.5855 H   0  0  0  0  0  0  0  0  0  0  0  0
   60.4559   29.3433   45.6899 H   0  0  0  0  0  0  0  0  0  0  0  0
   60.1360   30.3640   47.5540 C   0  0  0  0  0  0  0  0  0  0  0  0
   59.2839   29.8474   48.0199 H   0  0  0  0  0  0  0  0  0  0  0  0
   61.0735   29.8821   47.8684 H   0  0  0  0  0  0  0  0  0  0  0  0
   60.1422   31.4181   47.8684 H   0  0  0  0  0  0  0  0  0  0  0  0
   57.7900   29.2440   45.7000 C   0  0  0  0  0  0  0  0  0  0  0  0
   58.0324   28.2822   46.1755 H   0  0  0  0  0  0  0  0  0  0  0  0
  1  2  1  0
  2  3  1  0
  3  4  1  0
  4  5  1  0
  5  6  2  0
  6  7  1  0
  7  8  2  0
  7  9  1  0
  9 10  2  0
 10 11  1  0
 10 12  1  0
 12 13  1  0
 12 14  2  0
 14 15  1  0
 14 16  1  0
 16 17  1  0
 16 18  2  0
 18 19  1  0
  5 20  1  0
 20 21  1  0
 21 22  1  0
 21 23  1  0
 21 24  1  0
 24 25  1  0
 24 26  1  0
 24 27  1  0
 20 28  1  0
 28 29  1  0
 28  3  2  0
 18  9  1  0
M  CHG  1   4  -1
M  END
>  <UniqueID>  (84) 
75

>  <SMILES>  (84) 
CCn1cc(O)[n-]/c1=N/C(=O)c1cccc(Cl)c1

>  <Energy>  (84) 
71.10181638279417

>  <Genealogy>  (84) 
CCn1cc(O)[n-]c1=NC(=O)c1cccc(Cl)c1 (protonated)
CCn1cc(O)[n-]/c1=N/C(=O)c1cccc(Cl)c1 (cis-trans isomerization)
CCn1cc(O)[n-]/c1=N/C(=O)c1cccc(Cl)c1 (3D coordinates assigned)
CCn1cc(O)[n-]/c1=N/C(=O)c1cccc(Cl)c1 (optimized conformer: 71.10181638279417 kcal/mol)

>  <smiles>  (84) 
CCn1cc(O)[nH]c1=NC(=O)c1cccc(Cl)c1

>  <score_type>  (84) 
oracle

>  <origin>  (84) 
adg

>  <m_score__min__energy>  (84) 
-9.3499999999999996

>  <m_primary>  (84) 
energy

$$$$
85:0
     RDKit          3D

 41 43  0  0  0  0  0  0  0  0999 V2000
   57.9731   33.2874   42.9032 H   0  0  0  0  0  0  0  0  0  0  0  0
   57.8650   32.9840   43.9550 C   0  0  0  0  0  0  0  0  0  0  0  0
   57.8940   33.9460   44.8910 C   0  0  0  0  0  0  0  0  0  0  0  0
   57.1421   34.7471   44.8379 H   0  0  0  0  0  0  0  0  0  0  0  0
   58.8870   33.9860   45.9940 C   0  0  0  0  0  0  0  0  0  0  0  0
   58.5160   34.1270   47.3480 C   0  0  0  0  0  0  0  0  0  0  0  0
   57.4535   34.2210   47.6169 H   0  0  0  0  0  0  0  0  0  0  0  0
   59.4910   34.1480   48.3500 C   0  0  0  0  0  0  0  0  0  0  0  0
   59.1938   34.2672   49.4024 H   0  0  0  0  0  0  0  0  0  0  0  0
   60.8410   34.0180   48.0180 C   0  0  0  0  0  0  0  0  0  0  0  0
   61.6061   34.0392   48.8080 H   0  0  0  0  0  0  0  0  0  0  0  0
   61.2200   33.8610   46.6830 C   0  0  0  0  0  0  0  0  0  0  0  0
   62.2835   33.7553   46.4226 H   0  0  0  0  0  0  0  0  0  0  0  0
   60.2490   33.8380   45.6770 C   0  0  0  0  0  0  0  0  0  0  0  0
   60.5532   33.7030   44.6286 H   0  0  0  0  0  0  0  0  0  0  0  0
   57.6970   31.5400   44.2450 C   0  0  0  0  0  0  0  0  0  0  0  0
   58.7990   30.8010   44.3380 O   0  0  0  0  0  0  0  0  0  0  0  0
   58.7860   29.4970   44.5950 C   0  0  0  0  0  0  0  0  0  0  0  0
   59.8830   28.8790   44.6780 O   0  0  0  0  0  0  0  0  0  0  0  0
   57.5670   28.8200   44.7900 C   0  0  0  0  0  0  0  0  0  0  0  0
   57.5290   27.3650   45.0750 C   0  0  0  0  0  0  0  0  0  0  0  0
   57.7890   26.4340   44.0550 C   0  0  0  0  0  0  0  0  0  0  0  0
   58.0212   26.7859   43.0390 H   0  0  0  0  0  0  0  0  0  0  0  0
   57.7540   25.0630   44.3250 C   0  0  0  0  0  0  0  0  0  0  0  0
   57.9536   24.3409   43.5196 H   0  0  0  0  0  0  0  0  0  0  0  0
   57.4660   24.6050   45.6160 C   0  0  0  0  0  0  0  0  0  0  0  0
   57.4050   22.8770   45.9500 S   0  0  0  0  0  0  0  0  0  0  0  0
   58.7270   22.2460   45.6140 O   0  0  0  0  0  0  0  0  0  0  0  0
   57.1190   22.6500   47.4080 O   0  0  0  0  0  0  0  0  0  0  0  0
   56.1230   22.1310   44.9690 C   0  0  0  0  0  0  0  0  0  0  0  0
   55.3642   21.6894   45.6317 H   0  0  0  0  0  0  0  0  0  0  0  0
   55.6542   22.8973   44.3342 H   0  0  0  0  0  0  0  0  0  0  0  0
   56.5576   21.3448   44.3342 H   0  0  0  0  0  0  0  0  0  0  0  0
   57.2000   25.5290   46.6350 C   0  0  0  0  0  0  0  0  0  0  0  0
   56.9637   25.1741   47.6490 H   0  0  0  0  0  0  0  0  0  0  0  0
   57.2340   26.9010   46.3670 C   0  0  0  0  0  0  0  0  0  0  0  0
   57.0285   27.6209   47.1729 H   0  0  0  0  0  0  0  0  0  0  0  0
   56.3820   29.5700   44.7090 C   0  0  0  0  0  0  0  0  0  0  0  0
   55.1410   28.9630   44.8790 O   0  0  0  0  0  0  0  0  0  0  0  0
   56.4430   30.9360   44.4410 C   0  0  0  0  0  0  0  0  0  0  0  0
   55.5216   31.5341   44.3836 H   0  0  0  0  0  0  0  0  0  0  0  0
  1  2  1  0
  2  3  2  0
  3  4  1  0
  3  5  1  0
  5  6  2  0
  6  7  1  0
  6  8  1  0
  8  9  1  0
  8 10  2  0
 10 11  1  0
 10 12  1  0
 12 13  1  0
 12 14  2  0
 14 15  1  0
  2 16  1  0
 16 17  1  0
 17 18  1  0
 18 19  2  0
 18 20  1  0
 20 21  1  0
 21 22  2  0
 22 23  1  0
 22 24  1  0
 24 25  1  0
 24 26  2  0
 26 27  1  0
 27 28  2  0
 27 29  2  0
 27 30  1  0
 30 31  1  0
 30 32  1  0
 30 33  1  0
 26 34  1  0
 34 35  1  0
 34 36  2  0
 36 37  1  0
 20 38  2  0
 38 39  1  0
 38 40  1  0
 40 41  1  0
 14  5  1  0
 40 16  2  0
 36 21  1  0
M  CHG  1  39  -1
M  END
>  <UniqueID>  (85) 
76

>  <SMILES>  (85) 
CS(=O)(=O)c1ccc(-c2c([O-])cc(/C=C/c3ccccc3)oc2=O)cc1

>  <Energy>  (85) 
55.20160566795273

>  <Genealogy>  (85) 
CS(=O)(=O)c1ccc(-c2c([O-])cc(C=Cc3ccccc3)oc2=O)cc1 (protonated)
CS(=O)(=O)c1ccc(-c2c([O-])cc(/C=C/c3ccccc3)oc2=O)cc1 (cis-trans isomerization)
CS(=O)(=O)c1ccc(-c2c([O-])cc(/C=C/c3ccccc3)oc2=O)cc1 (3D coordinates assigned)
CS(=O)(=O)c1ccc(-c2c([O-])cc(/C=C/c3ccccc3)oc2=O)cc1 (optimized conformer: 55.20160566795273 kcal/mol)

>  <smiles>  (85) 
CS(=O)(=O)c1ccc(-c2c(O)cc(C=Cc3ccccc3)oc2=O)cc1

>  <score_type>  (85) 
oracle

>  <origin>  (85) 
adg

>  <m_score__min__energy>  (85) 
-12.710000000000001

>  <m_primary>  (85) 
energy

$$$$
86:0
     RDKit          3D

 59 62  0  0  0  0  0  0  0  0999 V2000
   57.5238   34.8999   44.6780 H   0  0  0  0  0  0  0  0  0  0  0  0
   58.1700   34.0220   44.8250 C   0  0  0  0  0  0  0  0  0  0  0  0
   58.1150   33.0360   43.9150 C   0  0  0  0  0  0  0  0  0  0  0  0
   58.4464   33.2560   42.8894 H   0  0  0  0  0  0  0  0  0  0  0  0
   57.6320   31.6670   44.2170 C   0  0  0  0  0  0  0  0  0  0  0  0
   56.6480   31.0120   43.4220 C   0  0  0  0  0  0  0  0  0  0  0  0
   56.2138   31.5330   42.5559 H   0  0  0  0  0  0  0  0  0  0  0  0
   56.2250   29.7060   43.7320 C   0  0  0  0  0  0  0  0  0  0  0  0
   55.4601   29.1991   43.1253 H   0  0  0  0  0  0  0  0  0  0  0  0
   56.8030   29.0760   44.8280 C   0  0  0  0  0  0  0  0  0  0  0  0
   56.5540   27.8340   45.2850 N   0  0  0  0  0  0  0  0  0  0  0  0
   57.3950   27.7380   46.3460 C   0  0  0  0  0  0  0  0  0  0  0  0
   57.4750   26.7010   47.0570 O   0  0  0  0  0  0  0  0  0  0  0  0
   58.1380   28.8500   46.5620 N   0  0  0  0  0  0  0  0  0  0  0  0
   59.3400   29.1120   47.7890 S   0  0  0  0  0  0  0  0  0  0  0  0
   59.7630   27.7960   48.3800 O   0  0  0  0  0  0  0  0  0  0  0  0
   58.7660   29.9710   48.8800 O   0  0  0  0  0  0  0  0  0  0  0  0
   60.7570   29.9110   47.0710 C   0  0  0  0  0  0  0  0  0  0  0  0
   61.4140   30.2814   47.8717 H   0  0  0  0  0  0  0  0  0  0  0  0
   61.3079   29.1906   46.4485 H   0  0  0  0  0  0  0  0  0  0  0  0
   60.4257   30.7553   46.4485 H   0  0  0  0  0  0  0  0  0  0  0  0
   57.7560   29.6910   45.5900 C   0  0  0  0  0  0  0  0  0  0  0  0
   58.2040   30.9820   45.3140 C   0  0  0  0  0  0  0  0  0  0  0  0
   58.9811   31.4548   45.9325 H   0  0  0  0  0  0  0  0  0  0  0  0
   59.0530   33.9950   46.0180 C   0  0  0  0  0  0  0  0  0  0  0  0
   58.6250   34.4150   47.2940 C   0  0  0  0  0  0  0  0  0  0  0  0
   57.5950   34.7750   47.4337 H   0  0  0  0  0  0  0  0  0  0  0  0
   59.5010   34.3770   48.3830 C   0  0  0  0  0  0  0  0  0  0  0  0
   59.1509   34.6917   49.3772 H   0  0  0  0  0  0  0  0  0  0  0  0
   60.8240   33.9400   48.2160 C   0  0  0  0  0  0  0  0  0  0  0  0
   61.7550   33.8660   49.3980 C   0  0  0  0  0  0  0  0  0  0  0  0
   62.3832   34.7686   49.4230 H   0  0  0  0  0  0  0  0  0  0  0  0
   62.3876   32.9713   49.3017 H   0  0  0  0  0  0  0  0  0  0  0  0
   60.9450   33.7720   50.7080 C   0  0  0  0  0  0  0  0  0  0  0  0
   59.8956   34.0128   50.4825 H   0  0  0  0  0  0  0  0  0  0  0  0
   61.4032   34.4803   51.4139 H   0  0  0  0  0  0  0  0  0  0  0  0
   60.9870   32.4420   51.3540 N   0  0  0  0  0  0  0  0  0  0  0  0
   62.1830   31.6300   51.0270 C   0  0  0  0  0  0  0  0  0  0  0  0
   62.6320   31.2660   51.9629 H   0  0  0  0  0  0  0  0  0  0  0  0
   62.8854   32.2682   50.4708 H   0  0  0  0  0  0  0  0  0  0  0  0
   61.8340   30.4210   50.1400 C   0  0  0  0  0  0  0  0  0  0  0  0
   62.7479   29.8329   49.9700 H   0  0  0  0  0  0  0  0  0  0  0  0
   61.4199   30.8072   49.1970 H   0  0  0  0  0  0  0  0  0  0  0  0
   60.8060   29.5380   50.7570 N   0  0  0  0  0  0  0  0  0  0  0  0
   60.2180   29.1510   49.9810 H   0  0  0  0  0  0  0  0  0  0  0  0
   61.4340   28.3860   51.4300 C   0  0  0  0  0  0  0  0  0  0  0  0
   61.3636   28.5151   52.5201 H   0  0  0  0  0  0  0  0  0  0  0  0
   60.9148   27.4619   51.1360 H   0  0  0  0  0  0  0  0  0  0  0  0
   62.4920   28.3216   51.1360 H   0  0  0  0  0  0  0  0  0  0  0  0
   59.8990   30.2470   51.6970 C   0  0  0  0  0  0  0  0  0  0  0  0
   60.3323   30.2110   52.7074 H   0  0  0  0  0  0  0  0  0  0  0  0
   58.9189   29.7482   51.6733 H   0  0  0  0  0  0  0  0  0  0  0  0
   59.7030   31.7120   51.2910 C   0  0  0  0  0  0  0  0  0  0  0  0
   58.9837   32.1846   51.9761 H   0  0  0  0  0  0  0  0  0  0  0  0
   59.3231   31.7479   50.2593 H   0  0  0  0  0  0  0  0  0  0  0  0
   61.2540   33.5250   46.9490 C   0  0  0  0  0  0  0  0  0  0  0  0
   62.2855   33.1686   46.8115 H   0  0  0  0  0  0  0  0  0  0  0  0
   60.3800   33.5610   45.8580 C   0  0  0  0  0  0  0  0  0  0  0  0
   60.7345   33.2467   44.8653 H   0  0  0  0  0  0  0  0  0  0  0  0
  1  2  1  0
  2  3  2  0
  3  4  1  0
  3  5  1  0
  5  6  2  0
  6  7  1  0
  6  8  1  0
  8  9  1  0
  8 10  2  0
 10 11  1  0
 11 12  1  0
 12 13  2  0
 12 14  1  0
 14 15  1  0
 15 16  2  0
 15 17  2  0
 15 18  1  0
 18 19  1  0
 18 20  1  0
 18 21  1  0
 14 22  1  0
 22 23  2  0
 23 24  1  0
  2 25  1  0
 25 26  2  0
 26 27  1  0
 26 28  1  0
 28 29  1  0
 28 30  2  0
 30 31  1  0
 31 32  1  0
 31 33  1  0
 31 34  1  0
 34 35  1  0
 34 36  1  0
 34 37  1  0
 37 38  1  0
 38 39  1  0
 38 40  1  0
 38 41  1  0
 41 42  1  0
 41 43  1  0
 41 44  1  0
 44 45  1  0
 44 46  1  0
 46 47  1  0
 46 48  1  0
 46 49  1  0
 44 50  1  0
 50 51  1  0
 50 52  1  0
 50 53  1  0
 53 54  1  0
 53 55  1  0
 30 56  1  0
 56 57  1  0
 56 58  2  0
 58 59  1  0
 23  5  1  0
 58 25  1  0
 22 10  1  0
 53 37  1  0
M  CHG  2  11  -1  44   1
M  END
>  <UniqueID>  (86) 
77

>  <SMILES>  (86) 
C[NH+]1CCN(CCc2ccc(/C=C/c3ccc4[n-]c(=O)n(S(C)(=O)=O)c4c3)cc2)CC1

>  <Energy>  (86) 
116.15775866052498

>  <Genealogy>  (86) 
C[NH+]1CCN(CCc2ccc(C=Cc3ccc4[n-]c(=O)n(S(C)(=O)=O)c4c3)cc2)CC1 (protonated)
C[NH+]1CCN(CCc2ccc(/C=C/c3ccc4[n-]c(=O)n(S(C)(=O)=O)c4c3)cc2)CC1 (cis-trans isomerization)
C[NH+]1CCN(CCc2ccc(/C=C/c3ccc4[n-]c(=O)n(S(C)(=O)=O)c4c3)cc2)CC1 (3D coordinates assigned)
C[NH+]1CCN(CCc2ccc(/C=C/c3ccc4[n-]c(=O)n(S(C)(=O)=O)c4c3)cc2)CC1 (nonaromatic ring conformer: 116.15775866052498 kcal/mol)

>  <smiles>  (86) 
CN1CCN(CCc2ccc(C=Cc3ccc4[nH]c(=O)n(S(C)(=O)=O)c4c3)cc2)CC1

>  <score_type>  (86) 
oracle

>  <origin>  (86) 
adg

>  <m_score__min__energy>  (86) 
-9.7400000000000002

>  <m_primary>  (86) 
energy

$$$$
87:0
     RDKit          3D

 63 66  0  0  0  0  0  0  0  0999 V2000
   61.2450   28.4420   49.5730 O   0  0  0  0  0  0  0  0  0  0  0  0
   60.2230   28.9080   49.0030 C   0  0  0  0  0  0  0  0  0  0  0  0
   59.5920   30.1290   49.5430 C   0  0  0  0  0  0  0  0  0  0  0  0
   58.3550   30.0820   50.2060 C   0  0  0  0  0  0  0  0  0  0  0  0
   57.7920   31.2640   50.6940 C   0  0  0  0  0  0  0  0  0  0  0  0
   56.6750   31.2390   51.2760 O   0  0  0  0  0  0  0  0  0  0  0  0
   58.4690   32.4740   50.5320 C   0  0  0  0  0  0  0  0  0  0  0  0
   59.7120   32.4860   49.8850 C   0  0  0  0  0  0  0  0  0  0  0  0
   60.4690   33.7710   49.6890 C   0  0  0  0  0  0  0  0  0  0  0  0
   61.6970   33.5630   48.8240 C   0  0  0  0  0  0  0  0  0  0  0  0
   61.5520   33.7370   47.4330 C   0  0  0  0  0  0  0  0  0  0  0  0
   62.6330   33.5640   46.5720 C   0  0  0  0  0  0  0  0  0  0  0  0
   63.8820   33.2210   47.0810 C   0  0  0  0  0  0  0  0  0  0  0  0
   64.0570   33.0580   48.4560 C   0  0  0  0  0  0  0  0  0  0  0  0
   62.9800   33.2300   49.3520 C   0  0  0  0  0  0  0  0  0  0  0  0
   63.2230   33.0820   50.8430 C   0  0  0  0  0  0  0  0  0  0  0  0
   62.4390   32.0840   51.3980 F   0  0  0  0  0  0  0  0  0  0  0  0
   64.5490   32.7550   51.0690 F   0  0  0  0  0  0  0  0  0  0  0  0
   62.9220   34.2660   51.4900 F   0  0  0  0  0  0  0  0  0  0  0  0
   60.2360   31.3220   49.4140 N   0  0  0  0  0  0  0  0  0  0  0  0
   59.7070   28.2560   47.8290 N   0  0  0  0  0  0  0  0  0  0  0  0
   58.3440   27.6980   47.8760 C   0  0  0  0  0  0  0  0  0  0  0  0
   58.0130   26.8820   46.6200 C   0  0  0  0  0  0  0  0  0  0  0  0
   59.2570   26.1460   46.1300 C   0  0  0  0  0  0  0  0  0  0  0  0
   60.3500   27.1360   45.6930 C   0  0  0  0  0  0  0  0  0  0  0  0
   60.4040   28.4390   46.5420 C   0  0  1  0  0  0  0  0  0  0  0  0
   59.8130   29.6650   45.7890 C   0  0  0  0  0  0  0  0  0  0  0  0
   58.2800   29.6280   45.6530 C   0  0  0  0  0  0  0  0  0  0  0  0
   57.6100   31.0060   44.7230 S   0  0  0  0  0  0  0  0  0  0  0  0
   58.1130   30.9340   43.3080 O   0  0  0  0  0  0  0  0  0  0  0  0
   56.1100   30.9060   44.7050 O   0  0  0  0  0  0  0  0  0  0  0  0
   58.1160   32.5420   45.4250 C   0  0  0  0  0  0  0  0  0  0  0  0
   58.6890   33.5440   44.6250 C   0  0  0  0  0  0  0  0  0  0  0  0
   59.0410   34.7770   45.1880 C   0  0  0  0  0  0  0  0  0  0  0  0
   58.8370   35.0100   46.5520 C   0  0  0  0  0  0  0  0  0  0  0  0
   58.2890   34.0060   47.3560 C   0  0  0  0  0  0  0  0  0  0  0  0
   57.9340   32.7740   46.7970 C   0  0  0  0  0  0  0  0  0  0  0  0
   57.8337   29.1227   50.3400 H   0  0  0  0  0  0  0  0  0  0  0  0
   58.0306   33.4098   50.9089 H   0  0  0  0  0  0  0  0  0  0  0  0
   59.8090   34.5047   49.2031 H   0  0  0  0  0  0  0  0  0  0  0  0
   60.7969   34.1335   50.6744 H   0  0  0  0  0  0  0  0  0  0  0  0
   60.5703   34.0136   47.0211 H   0  0  0  0  0  0  0  0  0  0  0  0
   62.4994   33.6986   45.4885 H   0  0  0  0  0  0  0  0  0  0  0  0
   64.7327   33.0781   46.3985 H   0  0  0  0  0  0  0  0  0  0  0  0
   65.0497   32.7913   48.8476 H   0  0  0  0  0  0  0  0  0  0  0  0
   58.2580   27.0446   48.7568 H   0  0  0  0  0  0  0  0  0  0  0  0
   57.6352   28.5373   47.9322 H   0  0  0  0  0  0  0  0  0  0  0  0
   57.2273   26.1499   46.8583 H   0  0  0  0  0  0  0  0  0  0  0  0
   57.6629   27.5629   45.8301 H   0  0  0  0  0  0  0  0  0  0  0  0
   59.6465   25.5173   46.9442 H   0  0  0  0  0  0  0  0  0  0  0  0
   58.9787   25.5280   45.2636 H   0  0  0  0  0  0  0  0  0  0  0  0
   61.3244   26.6317   45.7720 H   0  0  0  0  0  0  0  0  0  0  0  0
   60.1102   27.4385   44.6630 H   0  0  0  0  0  0  0  0  0  0  0  0
   61.4677   28.6466   46.7304 H   0  0  0  0  0  0  0  0  0  0  0  0
   60.0910   30.5767   46.3381 H   0  0  0  0  0  0  0  0  0  0  0  0
   60.2265   29.6461   44.7699 H   0  0  0  0  0  0  0  0  0  0  0  0
   57.9983   28.6946   45.1436 H   0  0  0  0  0  0  0  0  0  0  0  0
   57.8639   29.6913   46.6693 H   0  0  0  0  0  0  0  0  0  0  0  0
   58.8616   33.3600   43.5543 H   0  0  0  0  0  0  0  0  0  0  0  0
   59.4788   35.5639   44.5562 H   0  0  0  0  0  0  0  0  0  0  0  0
   59.1073   35.9815   46.9914 H   0  0  0  0  0  0  0  0  0  0  0  0
   58.1367   34.1854   48.4305 H   0  0  0  0  0  0  0  0  0  0  0  0
   57.5107   31.9842   47.4350 H   0  0  0  0  0  0  0  0  0  0  0  0
  1  2  2  0
  2  3  1  0
  3  4  2  0
  4  5  1  0
  5  6  2  0
  5  7  1  0
  7  8  2  0
  8  9  1  0
  9 10  1  0
 10 11  2  0
 11 12  1  0
 12 13  2  0
 13 14  1  0
 14 15  2  0
 15 16  1  0
 16 17  1  0
 16 18  1  0
 16 19  1  0
  8 20  1  0
  2 21  1  0
 21 22  1  0
 22 23  1  0
 23 24  1  0
 24 25  1  0
 25 26  1  0
 26 27  1  0
 27 28  1  0
 28 29  1  0
 29 30  2  0
 29 31  2  0
 29 32  1  0
 32 33  2  0
 33 34  1  0
 34 35  2  0
 35 36  1  0
 36 37  2  0
 20  3  1  0
 26 21  1  0
 37 32  1  0
 15 10  1  0
  4 38  1  0
  7 39  1  0
  9 40  1  0
  9 41  1  0
 11 42  1  0
 12 43  1  0
 13 44  1  0
 14 45  1  0
 22 46  1  0
 22 47  1  0
 23 48  1  0
 23 49  1  0
 24 50  1  0
 24 51  1  0
 25 52  1  0
 25 53  1  0
 26 54  1  1
 27 55  1  0
 27 56  1  0
 28 57  1  0
 28 58  1  0
 33 59  1  0
 34 60  1  0
 35 61  1  0
 36 62  1  0
 37 63  1  0
M  CHG  1  20  -1
M  END
>  <UniqueID>  (87) 
78

>  <SMILES>  (87) 
O=C(c1cc(=O)cc(Cc2ccccc2C(F)(F)F)[n-]1)N1CCCC[C@H]1CCS(=O)(=O)c1ccccc1

>  <Energy>  (87) 
74.6634437600278

>  <Genealogy>  (87) 
O=C(c1cc(=O)cc(Cc2ccccc2C(F)(F)F)[n-]1)N1CCCCC1CCS(=O)(=O)c1ccccc1 (protonated)
O=C(c1cc(=O)cc(Cc2ccccc2C(F)(F)F)[n-]1)N1CCCC[C@H]1CCS(=O)(=O)c1ccccc1 (chirality)
O=C(c1cc(=O)cc(Cc2ccccc2C(F)(F)F)[n-]1)N1CCCC[C@H]1CCS(=O)(=O)c1ccccc1 (3D coordinates assigned)
O=C(c1cc(=O)cc(Cc2ccccc2C(F)(F)F)[n-]1)N1CCCC[C@H]1CCS(=O)(=O)c1ccccc1 (nonaromatic ring conformer: 74.6634437600278 kcal/mol)

>  <smiles>  (87) 
O=C(c1cc(=O)cc(Cc2ccccc2C(F)(F)F)[nH]1)N1CCCCC1CCS(=O)(=O)c1ccccc1

>  <score_type>  (87) 
oracle

>  <origin>  (87) 
adg

>  <m_score__min__energy>  (87) 
-11.06

>  <m_primary>  (87) 
energy

$$$$
88:0
     RDKit          3D

 49 52  0  0  0  0  0  0  0  0999 V2000
   54.7750   28.5840   44.5160 H   0  0  0  0  0  0  0  0  0  0  0  0
   55.5870   28.5450   45.1190 O   0  0  0  0  0  0  0  0  0  0  0  0
   56.0290   27.3320   45.6360 C   0  0  0  0  0  0  0  0  0  0  0  0
   55.2100   26.3690   46.0920 N   0  0  0  0  0  0  0  0  0  0  0  0
   56.0750   25.4290   46.5310 C   0  0  0  0  0  0  0  0  0  0  0  0
   55.6950   24.3470   47.0510 O   0  0  0  0  0  0  0  0  0  0  0  0
   57.3800   25.7450   46.3820 N   0  0  0  0  0  0  0  0  0  0  0  0
   57.3430   26.9470   45.7830 C   0  0  0  0  0  0  0  0  0  0  0  0
   58.5390   27.7630   45.5210 C   0  0  0  0  0  0  0  0  0  0  0  0
   59.1116   27.5340   44.6101 H   0  0  0  0  0  0  0  0  0  0  0  0
   58.9960   28.7660   46.2970 C   0  0  0  0  0  0  0  0  0  0  0  0
   58.6520   30.0840   46.0810 C   0  0  0  0  0  0  0  0  0  0  0  0
   57.9424   30.4596   45.3291 H   0  0  0  0  0  0  0  0  0  0  0  0
   59.3650   30.8420   46.9850 C   0  0  0  0  0  0  0  0  0  0  0  0
   59.2920   32.3160   47.0280 C   0  0  0  0  0  0  0  0  0  0  0  0
   58.1980   32.8600   47.3340 O   0  0  0  0  0  0  0  0  0  0  0  0
   60.4590   33.1040   46.7450 N   0  0  0  0  0  0  0  0  0  0  0  0
   61.5220   33.3260   47.4740 C   0  0  0  0  0  0  0  0  0  0  0  0
   62.8010   32.8370   47.1300 C   0  0  0  0  0  0  0  0  0  0  0  0
   62.9357   32.2401   46.2159 H   0  0  0  0  0  0  0  0  0  0  0  0
   63.8940   33.1130   47.9530 C   0  0  0  0  0  0  0  0  0  0  0  0
   64.8924   32.7405   47.6802 H   0  0  0  0  0  0  0  0  0  0  0  0
   63.7310   33.8380   49.0870 N   0  0  0  0  0  0  0  0  0  0  0  0
   62.5140   34.3090   49.4630 C   0  0  0  0  0  0  0  0  0  0  0  0
   62.4168   34.8928   50.3902 H   0  0  0  0  0  0  0  0  0  0  0  0
   61.3800   34.0560   48.6770 C   0  0  0  0  0  0  0  0  0  0  0  0
   60.0390   34.5860   49.1120 C   0  0  0  0  0  0  0  0  0  0  0  0
   59.9911   34.6049   50.2108 H   0  0  0  0  0  0  0  0  0  0  0  0
   59.9034   35.6054   48.7215 H   0  0  0  0  0  0  0  0  0  0  0  0
   59.2431   33.9348   48.7215 H   0  0  0  0  0  0  0  0  0  0  0  0
   60.1080   30.0450   47.7970 N   0  0  0  0  0  0  0  0  0  0  0  0
   60.8380   30.4880   49.0000 C   0  0  0  0  0  0  0  0  0  0  0  0
   61.4195   29.6446   49.4006 H   0  0  0  0  0  0  0  0  0  0  0  0
   61.5076   31.3155   48.7228 H   0  0  0  0  0  0  0  0  0  0  0  0
   59.8780   30.9740   50.0570 C   0  0  0  0  0  0  0  0  0  0  0  0
   58.5820   30.4360   50.1400 C   0  0  0  0  0  0  0  0  0  0  0  0
   58.2735   29.6425   49.4435 H   0  0  0  0  0  0  0  0  0  0  0  0
   57.6830   30.9040   51.1030 C   0  0  0  0  0  0  0  0  0  0  0  0
   56.6706   30.4779   51.1618 H   0  0  0  0  0  0  0  0  0  0  0  0
   58.0680   31.9120   51.9910 C   0  0  0  0  0  0  0  0  0  0  0  0
   57.1940   32.3650   52.9230 F   0  0  0  0  0  0  0  0  0  0  0  0
   59.3550   32.4520   51.9170 C   0  0  0  0  0  0  0  0  0  0  0  0
   59.6581   33.2456   52.6158 H   0  0  0  0  0  0  0  0  0  0  0  0
   60.2580   31.9860   50.9570 C   0  0  0  0  0  0  0  0  0  0  0  0
   61.2705   32.4127   50.9052 H   0  0  0  0  0  0  0  0  0  0  0  0
   59.8610   28.7610   47.4030 C   0  0  0  0  0  0  0  0  0  0  0  0
   60.2850   27.6730   48.0700 C   0  0  0  0  0  0  0  0  0  0  0  0
   60.9656   27.7838   48.9270 H   0  0  0  0  0  0  0  0  0  0  0  0
   59.9512   26.6722   47.7586 H   0  0  0  0  0  0  0  0  0  0  0  0
  1  2  1  0
  2  3  1  0
  3  4  1  0
  4  5  1  0
  5  6  2  0
  5  7  1  0
  7  8  1  0
  8  9  1  0
  9 10  1  0
  9 11  2  3
 11 12  1  0
 12 13  1  0
 12 14  2  0
 14 15  1  0
 15 16  2  0
 15 17  1  0
 17 18  2  0
 18 19  1  0
 19 20  1  0
 19 21  2  0
 21 22  1  0
 21 23  1  0
 23 24  1  0
 24 25  1  0
 24 26  2  0
 26 27  1  0
 27 28  1  0
 27 29  1  0
 27 30  1  0
 14 31  1  0
 31 32  1  0
 32 33  1  0
 32 34  1  0
 32 35  1  0
 35 36  2  0
 36 37  1  0
 36 38  1  0
 38 39  1  0
 38 40  2  0
 40 41  1  0
 40 42  1  0
 42 43  1  0
 42 44  2  0
 44 45  1  0
 31 46  1  0
 46 47  2  0
 47 48  1  0
 47 49  1  0
  8  3  2  0
 46 11  1  0
 26 18  1  0
 44 35  1  0
M  CHG  3   4  -1   7  -1  23  -1
M  END
>  <UniqueID>  (88) 
79

>  <SMILES>  (88) 
C=c1c(=Cc2[n-]c(=O)[n-]c2O)cc(C(=O)/N=c2\cc[n-]cc2C)n1Cc1ccc(F)cc1

>  <Energy>  (88) 
134.86547115423542

>  <Genealogy>  (88) 
C=c1c(=Cc2[n-]c(=O)[n-]c2O)cc(C(=O)N=c2cc[n-]cc2C)n1Cc1ccc(F)cc1 (protonated)
C=c1c(=Cc2[n-]c(=O)[n-]c2O)cc(C(=O)/N=c2\cc[n-]cc2C)n1Cc1ccc(F)cc1 (cis-trans isomerization)
C=c1c(=Cc2[n-]c(=O)[n-]c2O)cc(C(=O)/N=c2\cc[n-]cc2C)n1Cc1ccc(F)cc1 (3D coordinates assigned)
C=c1c(=Cc2[n-]c(=O)[n-]c2O)cc(C(=O)/N=c2\cc[n-]cc2C)n1Cc1ccc(F)cc1 (optimized conformer: 134.86547115423542 kcal/mol)

>  <smiles>  (88) 
C=c1c(=Cc2[nH]c(=O)[nH]c2O)cc(C(=O)N=c2cc[nH]cc2C)n1Cc1ccc(F)cc1

>  <score_type>  (88) 
oracle

>  <origin>  (88) 
adg

>  <m_score__min__energy>  (88) 
-13.94

>  <m_primary>  (88) 
energy

$$$$
89:0
     RDKit          3D

 51 53  0  0  0  0  0  0  0  0999 V2000
   54.2650   24.7980   45.5400 C   0  0  0  0  0  0  0  0  0  0  0  0
   55.0730   25.8980   45.9770 O   0  0  0  0  0  0  0  0  0  0  0  0
   56.2770   25.7140   46.6450 C   0  0  0  0  0  0  0  0  0  0  0  0
   56.3140   24.8180   47.5360 O   0  0  0  0  0  0  0  0  0  0  0  0
   57.4220   26.5290   46.3120 C   0  0  0  0  0  0  0  0  0  0  0  0
   58.6600   26.3880   46.9480 C   0  0  0  0  0  0  0  0  0  0  0  0
   59.7350   27.1950   46.5940 C   0  0  0  0  0  0  0  0  0  0  0  0
   59.6080   28.1570   45.6050 C   0  0  0  0  0  0  0  0  0  0  0  0
   58.3970   28.2940   44.9810 C   0  0  0  0  0  0  0  0  0  0  0  0
   58.1660   29.2600   43.9440 N   0  0  0  0  0  0  0  0  0  0  0  0
   57.0500   30.1510   43.9980 C   0  0  0  0  0  0  0  0  0  0  0  0
   56.2930   30.0270   45.0100 O   0  0  0  0  0  0  0  0  0  0  0  0
   56.7700   31.1620   42.9540 C   0  0  0  0  0  0  0  0  0  0  0  0
   58.1370   32.3350   42.7270 S   0  0  0  0  0  0  0  0  0  0  0  0
   58.5390   33.1550   44.2620 C   0  0  0  0  0  0  0  0  0  0  0  0
   59.1230   34.3880   44.2660 N   0  0  0  0  0  0  0  0  0  0  0  0
   59.4190   34.9920   45.4540 C   0  0  0  0  0  0  0  0  0  0  0  0
   59.9570   36.1270   45.5080 O   0  0  0  0  0  0  0  0  0  0  0  0
   59.1020   34.3020   46.6310 C   0  0  0  0  0  0  0  0  0  0  0  0
   59.4330   34.9590   47.8950 C   0  0  0  0  0  0  0  0  0  0  0  0
   58.5170   33.0690   46.6300 C   0  0  0  0  0  0  0  0  0  0  0  0
   58.1500   32.2880   47.8260 C   0  0  0  0  0  0  0  0  0  0  0  0
   59.2250   31.3210   48.1410 C   0  0  0  0  0  0  0  0  0  0  0  0
   60.5130   31.4020   47.7260 C   0  0  0  0  0  0  0  0  0  0  0  0
   61.4830   30.4620   48.0660 C   0  0  0  0  0  0  0  0  0  0  0  0
   61.1090   29.4070   48.8580 C   0  0  0  0  0  0  0  0  0  0  0  0
   59.8150   29.2780   49.3050 C   0  0  0  0  0  0  0  0  0  0  0  0
   58.8720   30.2430   48.9410 C   0  0  0  0  0  0  0  0  0  0  0  0
   58.2490   32.5220   45.4110 N   0  0  0  0  0  0  0  0  0  0  0  0
   57.3160   27.4960   45.3250 C   0  0  0  0  0  0  0  0  0  0  0  0
   53.8711   24.2617   46.4159 H   0  0  0  0  0  0  0  0  0  0  0  0
   53.4280   25.1757   44.9343 H   0  0  0  0  0  0  0  0  0  0  0  0
   54.8757   24.1123   44.9343 H   0  0  0  0  0  0  0  0  0  0  0  0
   58.7840   25.6308   47.7362 H   0  0  0  0  0  0  0  0  0  0  0  0
   60.7001   27.0681   47.1063 H   0  0  0  0  0  0  0  0  0  0  0  0
   60.4598   28.7955   45.3277 H   0  0  0  0  0  0  0  0  0  0  0  0
   58.8070   29.3190   43.1480 H   0  0  0  0  0  0  0  0  0  0  0  0
   56.5903   30.6428   42.0010 H   0  0  0  0  0  0  0  0  0  0  0  0
   55.8899   31.7372   43.2772 H   0  0  0  0  0  0  0  0  0  0  0  0
   59.1127   34.3232   48.7336 H   0  0  0  0  0  0  0  0  0  0  0  0
   60.5197   35.1199   47.9511 H   0  0  0  0  0  0  0  0  0  0  0  0
   58.9155   35.9281   47.9511 H   0  0  0  0  0  0  0  0  0  0  0  0
   58.0099   32.9691   48.6783 H   0  0  0  0  0  0  0  0  0  0  0  0
   57.2152   31.7420   47.6311 H   0  0  0  0  0  0  0  0  0  0  0  0
   60.8061   32.2506   47.0904 H   0  0  0  0  0  0  0  0  0  0  0  0
   62.5187   30.5630   47.7096 H   0  0  0  0  0  0  0  0  0  0  0  0
   61.8566   28.6512   49.1405 H   0  0  0  0  0  0  0  0  0  0  0  0
   59.5263   28.4274   49.9400 H   0  0  0  0  0  0  0  0  0  0  0  0
   57.8345   30.1469   49.2937 H   0  0  0  0  0  0  0  0  0  0  0  0
   57.8010   31.5780   45.3730 H   0  0  0  0  0  0  0  0  0  0  0  0
   56.3566   27.6332   44.8047 H   0  0  0  0  0  0  0  0  0  0  0  0
  1  2  1  0
  2  3  1  0
  3  4  2  0
  3  5  1  0
  5  6  2  0
  6  7  1  0
  7  8  2  0
  8  9  1  0
  9 10  1  0
 10 11  1  0
 11 12  2  0
 11 13  1  0
 13 14  1  0
 14 15  1  0
 15 16  2  0
 16 17  1  0
 17 18  2  0
 17 19  1  0
 19 20  1  0
 19 21  2  0
 21 22  1  0
 22 23  1  0
 23 24  2  0
 24 25  1  0
 25 26  2  0
 26 27  1  0
 27 28  2  0
 21 29  1  0
  9 30  2  0
 30  5  1  0
 29 15  1  0
 28 23  1  0
  1 31  1  0
  1 32  1  0
  1 33  1  0
  6 34  1  0
  7 35  1  0
  8 36  1  0
 10 37  1  0
 13 38  1  0
 13 39  1  0
 20 40  1  0
 20 41  1  0
 20 42  1  0
 22 43  1  0
 22 44  1  0
 24 45  1  0
 25 46  1  0
 26 47  1  0
 27 48  1  0
 28 49  1  0
 29 50  1  0
 30 51  1  0
M  END
>  <smiles>  (89) 
COC(=O)c1cccc(NC(=O)CSc2nc(=O)c(C)c(Cc3ccccc3)[nH]2)c1

>  <score_type>  (89) 
oracle

>  <origin>  (89) 
adg

>  <m_score__min__energy>  (89) 
-9.1999999999999993

>  <m_primary>  (89) 
energy

$$$$
90:0
     RDKit          3D

 46 48  0  0  0  0  0  0  0  0999 V2000
   54.1927   24.5189   45.6146 H   0  0  0  0  0  0  0  0  0  0  0  0
   55.1510   25.0430   45.4840 C   0  0  0  0  0  0  0  0  0  0  0  0
   55.3840   26.2810   45.9930 N   0  0  0  0  0  0  0  0  0  0  0  0
   56.6300   26.7140   45.6910 C   0  0  0  0  0  0  0  0  0  0  0  0
   57.1280   27.8480   46.0830 N   0  0  0  0  0  0  0  0  0  0  0  0
   57.4890   28.9520   45.2400 C   0  0  0  0  0  0  0  0  0  0  0  0
   58.6620   29.0060   44.7880 O   0  0  0  0  0  0  0  0  0  0  0  0
   56.5260   29.9500   44.8590 N   0  0  0  0  0  0  0  0  0  0  0  0
   55.5110   29.7820   45.0350 H   0  0  0  0  0  0  0  0  0  0  0  0
   56.8980   31.1450   44.1080 C   0  0  0  0  0  0  0  0  0  0  0  0
   55.9864   31.6659   43.7799 H   0  0  0  0  0  0  0  0  0  0  0  0
   57.4965   30.8470   43.2345 H   0  0  0  0  0  0  0  0  0  0  0  0
   57.7150   32.0690   44.9690 C   0  0  0  0  0  0  0  0  0  0  0  0
   57.8450   31.8360   46.3470 C   0  0  0  0  0  0  0  0  0  0  0  0
   57.3277   30.9821   46.8088 H   0  0  0  0  0  0  0  0  0  0  0  0
   58.6280   32.6830   47.1350 C   0  0  0  0  0  0  0  0  0  0  0  0
   58.7152   32.4979   48.2158 H   0  0  0  0  0  0  0  0  0  0  0  0
   59.3050   33.7700   46.5560 C   0  0  0  0  0  0  0  0  0  0  0  0
   60.1610   34.6840   47.4090 C   0  0  0  0  0  0  0  0  0  0  0  0
   59.6847   34.7828   48.3956 H   0  0  0  0  0  0  0  0  0  0  0  0
   60.2322   35.6432   46.8752 H   0  0  0  0  0  0  0  0  0  0  0  0
   61.5460   34.2000   47.6070 N   0  0  0  0  0  0  0  0  0  0  0  0
   62.1910   33.7410   46.3600 C   0  0  0  0  0  0  0  0  0  0  0  0
   61.5334   33.0111   45.8651 H   0  0  0  0  0  0  0  0  0  0  0  0
   62.3590   34.6166   45.7158 H   0  0  0  0  0  0  0  0  0  0  0  0
   63.5540   33.0780   46.6400 C   0  0  0  0  0  0  0  0  0  0  0  0
   63.4364   31.9848   46.6075 H   0  0  0  0  0  0  0  0  0  0  0  0
   64.2706   33.4098   45.8742 H   0  0  0  0  0  0  0  0  0  0  0  0
   64.0640   33.4680   47.9610 N   0  0  0  0  0  0  0  0  0  0  0  0
   65.0180   33.0560   48.0900 H   0  0  0  0  0  0  0  0  0  0  0  0
   63.1660   33.0450   49.0590 C   0  0  2  0  0  0  0  0  0  0  0  0
   63.3599   33.7226   49.9035 H   0  0  0  0  0  0  0  0  0  0  0  0
   63.4750   31.6150   49.5350 C   0  0  0  0  0  0  0  0  0  0  0  0
   63.4809   31.5878   50.6346 H   0  0  0  0  0  0  0  0  0  0  0  0
   62.7046   30.9277   49.1553 H   0  0  0  0  0  0  0  0  0  0  0  0
   64.4604   31.3071   49.1553 H   0  0  0  0  0  0  0  0  0  0  0  0
   61.6750   33.1960   48.6750 C   0  0  0  0  0  0  0  0  0  0  0  0
   61.2877   32.2298   48.3195 H   0  0  0  0  0  0  0  0  0  0  0  0
   61.0992   33.5187   49.5550 H   0  0  0  0  0  0  0  0  0  0  0  0
   59.1610   34.0090   45.1790 C   0  0  0  0  0  0  0  0  0  0  0  0
   59.6675   34.8698   44.7182 H   0  0  0  0  0  0  0  0  0  0  0  0
   58.3790   33.1610   44.3910 C   0  0  0  0  0  0  0  0  0  0  0  0
   58.2835   33.3506   43.3117 H   0  0  0  0  0  0  0  0  0  0  0  0
   57.4990   25.5810   44.8030 S   0  0  0  0  0  0  0  0  0  0  0  0
   56.2170   24.4910   44.7860 C   0  0  0  0  0  0  0  0  0  0  0  0
   56.2440   22.7780   43.9520 Br  0  0  0  0  0  0  0  0  0  0  0  0
  1  2  1  0
  2  3  1  0
  3  4  1  0
  4  5  2  0
  5  6  1  0
  6  7  2  0
  6  8  1  0
  8  9  1  0
  8 10  1  0
 10 11  1  0
 10 12  1  0
 10 13  1  0
 13 14  2  0
 14 15  1  0
 14 16  1  0
 16 17  1  0
 16 18  2  0
 18 19  1  0
 19 20  1  0
 19 21  1  0
 19 22  1  0
 22 23  1  0
 23 24  1  0
 23 25  1  0
 23 26  1  0
 26 27  1  0
 26 28  1  0
 26 29  1  0
 29 30  1  0
 29 31  1  0
 31 32  1  1
 31 33  1  0
 33 34  1  0
 33 35  1  0
 33 36  1  0
 31 37  1  0
 37 38  1  0
 37 39  1  0
 18 40  1  0
 40 41  1  0
 40 42  2  0
 42 43  1  0
  4 44  1  0
 44 45  1  0
 45 46  1  0
 45  2  2  0
 42 13  1  0
 37 22  1  0
M  CHG  1   3  -1
M  END
>  <UniqueID>  (90) 
80

>  <SMILES>  (90) 
C[C@@H]1CN(Cc2ccc(CNC(=O)/N=c3\[n-]cc(Br)s3)cc2)CCN1

>  <Energy>  (90) 
88.02000181379421

>  <Genealogy>  (90) 
CC1CN(Cc2ccc(CNC(=O)N=c3[n-]cc(Br)s3)cc2)CCN1 (protonated)
C[C@@H]1CN(Cc2ccc(CNC(=O)N=c3[n-]cc(Br)s3)cc2)CCN1 (chirality)
C[C@@H]1CN(Cc2ccc(CNC(=O)/N=c3\[n-]cc(Br)s3)cc2)CCN1 (cis-trans isomerization)
C[C@@H]1CN(Cc2ccc(CNC(=O)/N=c3\[n-]cc(Br)s3)cc2)CCN1 (3D coordinates assigned)
C[C@@H]1CN(Cc2ccc(CNC(=O)/N=c3\[n-]cc(Br)s3)cc2)CCN1 (nonaromatic ring conformer: 88.02000181379421 kcal/mol)

>  <smiles>  (90) 
CC1CN(Cc2ccc(CNC(=O)N=c3[nH]cc(Br)s3)cc2)CCN1

>  <score_type>  (90) 
oracle

>  <origin>  (90) 
adg

>  <m_score__min__energy>  (90) 
-10.859999999999999

>  <m_primary>  (90) 
energy

$$$$
