0:0
     RDKit          3D

 62 66  0  0  0  0  0  0  0  0999 V2000
   54.2970   31.9120   50.8700 H   0  0  0  0  0  0  0  0  0  0  0  0
   54.0950   31.2140   51.6210 N   0  0  0  0  0  0  0  0  0  0  0  0
   54.9910   30.8040   52.4640 C   0  0  0  0  0  0  0  0  0  0  0  0
   56.4140   30.6620   52.0580 C   0  0  0  0  0  0  0  0  0  0  0  0
   57.1710   29.5470   52.4570 C   0  0  0  0  0  0  0  0  0  0  0  0
   56.7066   28.7661   53.0770 H   0  0  0  0  0  0  0  0  0  0  0  0
   58.5110   29.4220   52.0720 C   0  0  0  0  0  0  0  0  0  0  0  0
   59.0894   28.5405   52.3859 H   0  0  0  0  0  0  0  0  0  0  0  0
   59.1230   30.4150   51.2870 C   0  0  0  0  0  0  0  0  0  0  0  0
   60.5500   30.3080   50.9060 C   0  0  0  0  0  0  0  0  0  0  0  0
   61.3940   31.0900   51.4220 O   0  0  0  0  0  0  0  0  0  0  0  0
   60.9760   29.2780   50.0010 N   0  0  0  0  0  0  0  0  0  0  0  0
   60.3190   28.8670   48.7940 C   0  0  0  0  0  0  0  0  0  0  0  0
   60.7370   27.6630   48.1730 C   0  0  0  0  0  0  0  0  0  0  0  0
   61.5394   27.0664   48.6315 H   0  0  0  0  0  0  0  0  0  0  0  0
   60.1400   27.2210   46.9790 C   0  0  0  0  0  0  0  0  0  0  0  0
   60.4652   26.2924   46.4872 H   0  0  0  0  0  0  0  0  0  0  0  0
   59.1220   28.0040   46.4440 C   0  0  0  0  0  0  0  0  0  0  0  0
   58.4380   27.8230   45.3490 O   0  0  0  0  0  0  0  0  0  0  0  0
   57.5950   28.8410   45.2800 C   0  0  0  0  0  0  0  0  0  0  0  0
   56.6440   29.0390   44.1380 C   0  0  0  0  0  0  0  0  0  0  0  0
   57.1642   28.7941   43.2003 H   0  0  0  0  0  0  0  0  0  0  0  0
   55.7794   28.3803   44.3074 H   0  0  0  0  0  0  0  0  0  0  0  0
   56.1190   30.4800   44.0470 C   0  0  0  0  0  0  0  0  0  0  0  0
   55.2631   30.4945   43.3562 H   0  0  0  0  0  0  0  0  0  0  0  0
   55.8415   30.7854   45.0667 H   0  0  0  0  0  0  0  0  0  0  0  0
   57.1650   31.4900   43.5450 C   0  0  0  0  0  0  0  0  0  0  0  0
   57.9597   30.9438   43.0157 H   0  0  0  0  0  0  0  0  0  0  0  0
   56.6558   32.2008   42.8776 H   0  0  0  0  0  0  0  0  0  0  0  0
   57.7820   32.2730   44.6700 C   0  0  0  0  0  0  0  0  0  0  0  0
   58.9460   31.8370   45.2290 N   0  0  0  0  0  0  0  0  0  0  0  0
   59.5610   32.5160   46.2330 C   0  0  0  0  0  0  0  0  0  0  0  0
   60.7630   32.0380   46.7680 C   0  0  0  0  0  0  0  0  0  0  0  0
   61.2026   31.1067   46.3815 H   0  0  0  0  0  0  0  0  0  0  0  0
   61.4110   32.7440   47.7980 C   0  0  0  0  0  0  0  0  0  0  0  0
   62.7000   32.2500   48.3360 C   0  0  0  0  0  0  0  0  0  0  0  0
   63.9030   32.4420   47.5850 N   0  0  0  0  0  0  0  0  0  0  0  0
   63.9030   32.9940   46.7040 H   0  0  0  0  0  0  0  0  0  0  0  0
   64.8170   32.0770   47.9310 H   0  0  0  0  0  0  0  0  0  0  0  0
   62.7510   31.6450   49.4850 N   0  0  0  0  0  0  0  0  0  0  0  0
   63.0250   32.1450   50.3600 H   0  0  0  0  0  0  0  0  0  0  0  0
   62.4920   30.6370   49.5670 H   0  0  0  0  0  0  0  0  0  0  0  0
   60.8320   33.9320   48.2900 C   0  0  0  0  0  0  0  0  0  0  0  0
   61.3312   34.4887   49.0968 H   0  0  0  0  0  0  0  0  0  0  0  0
   59.6290   34.4080   47.7610 C   0  0  0  0  0  0  0  0  0  0  0  0
   59.1834   35.3330   48.1557 H   0  0  0  0  0  0  0  0  0  0  0  0
   58.9900   33.7090   46.7290 C   0  0  0  0  0  0  0  0  0  0  0  0
   57.7930   34.1750   46.1660 C   0  0  0  0  0  0  0  0  0  0  0  0
   57.3321   35.1015   46.5391 H   0  0  0  0  0  0  0  0  0  0  0  0
   57.1880   33.4600   45.1310 C   0  0  0  0  0  0  0  0  0  0  0  0
   56.2530   33.8232   44.6795 H   0  0  0  0  0  0  0  0  0  0  0  0
   57.7100   29.7090   46.3180 N   0  0  0  0  0  0  0  0  0  0  0  0
   58.6910   29.1460   47.0440 C   0  0  0  0  0  0  0  0  0  0  0  0
   59.2530   29.6120   48.2290 C   0  0  0  0  0  0  0  0  0  0  0  0
   58.8823   30.5284   48.7115 H   0  0  0  0  0  0  0  0  0  0  0  0
   58.3610   31.5260   50.8830 C   0  0  0  0  0  0  0  0  0  0  0  0
   58.8238   32.3076   50.2626 H   0  0  0  0  0  0  0  0  0  0  0  0
   57.0230   31.6460   51.2620 C   0  0  0  0  0  0  0  0  0  0  0  0
   56.4401   32.5194   50.9342 H   0  0  0  0  0  0  0  0  0  0  0  0
   54.5860   30.4670   53.7940 N   0  0  0  0  0  0  0  0  0  0  0  0
   55.2900   30.2390   54.5320 H   0  0  0  0  0  0  0  0  0  0  0  0
   53.5750   30.4820   54.0560 H   0  0  0  0  0  0  0  0  0  0  0  0
  1  2  1  0
  2  3  2  0
  3  4  1  0
  4  5  2  0
  5  6  1  0
  5  7  1  0
  7  8  1  0
  7  9  2  0
  9 10  1  0
 10 11  2  0
 10 12  1  0
 12 13  1  0
 13 14  2  0
 14 15  1  0
 14 16  1  0
 16 17  1  0
 16 18  2  0
 18 19  1  0
 19 20  1  0
 20 21  1  0
 21 22  1  0
 21 23  1  0
 21 24  1  0
 24 25  1  0
 24 26  1  0
 24 27  1  0
 27 28  1  0
 27 29  1  0
 27 30  1  0
 30 31  2  0
 31 32  1  0
 32 33  2  0
 33 34  1  0
 33 35  1  0
 35 36  1  0
 36 37  1  0
 37 38  1  0
 37 39  1  0
 36 40  2  0
 40 41  1  0
 40 42  1  0
 35 43  2  0
 43 44  1  0
 43 45  1  0
 45 46  1  0
 45 47  2  0
 47 48  1  0
 48 49  1  0
 48 50  2  0
 50 51  1  0
 20 52  2  0
 52 53  1  0
 53 54  2  0
 54 55  1  0
  9 56  1  0
 56 57  1  0
 56 58  2  0
 58 59  1  0
  3 60  1  0
 60 61  1  0
 60 62  1  0
 58  4  1  0
 54 13  1  0
 53 18  1  0
 50 30  1  0
 47 32  1  0
M  CHG  2  12  -1  40   1
M  END
>  <UniqueID>  (1) 
1

>  <SMILES>  (1) 
[H]/N=C(/N)c1ccc(C(=O)[N-]c2ccc3oc(CCCc4ccc5ccc(C(N)=[NH2+])cc5n4)nc3c2)cc1

>  <Energy>  (1) 
112.77870570912583

>  <Genealogy>  (1) 
N=C(N)c1ccc(C(=O)[N-]c2ccc3oc(CCCc4ccc5ccc(C(N)=[NH2+])cc5n4)nc3c2)cc1 (protonated)
[H]/N=C(/N)c1ccc(C(=O)[N-]c2ccc3oc(CCCc4ccc5ccc(C(N)=[NH2+])cc5n4)nc3c2)cc1 (cis-trans isomerization)
[H]/N=C(/N)c1ccc(C(=O)[N-]c2ccc3oc(CCCc4ccc5ccc(C(N)=[NH2+])cc5n4)nc3c2)cc1 (3D coordinates assigned)
[H]/N=C(/N)c1ccc(C(=O)[N-]c2ccc3oc(CCCc4ccc5ccc(C(N)=[NH2+])cc5n4)nc3c2)cc1 (optimized conformer: 112.77870570912583 kcal/mol)

>  <smiles>  (1) 
N=C(N)c1ccc(C(=O)Nc2ccc3oc(CCCc4ccc5ccc(C(=N)N)cc5n4)nc3c2)cc1

>  <score_type>  (1) 
oracle

>  <origin>  (1) 
adg

>  <m_score__min__energy>  (1) 
-11.380000000000001

>  <m_primary>  (1) 
energy

$$$$
1:0
     RDKit          3D

 50 53  0  0  0  0  0  0  0  0999 V2000
   62.6620   33.7060   51.3990 C   0  0  0  0  0  0  0  0  0  0  0  0
   61.4370   33.7370   50.5370 C   0  0  0  0  0  0  0  0  0  0  0  0
   60.3120   33.8800   51.0850 O   0  0  0  0  0  0  0  0  0  0  0  0
   61.5100   33.5600   49.1120 N   0  0  0  0  0  0  0  0  0  0  0  0
   62.7440   33.7660   48.3510 C   0  0  0  0  0  0  0  0  0  0  0  0
   62.3280   33.8260   46.8610 C   0  0  0  0  0  0  0  0  0  0  0  0
   60.8620   33.5670   46.9050 C   0  0  0  0  0  0  0  0  0  0  0  0
   59.9840   33.4520   45.8270 C   0  0  0  0  0  0  0  0  0  0  0  0
   58.6360   33.1400   46.0860 C   0  0  0  0  0  0  0  0  0  0  0  0
   57.5000   33.0460   44.7440 S   0  0  0  0  0  0  0  0  0  0  0  0
   56.5750   34.2290   44.8060 O   0  0  0  0  0  0  0  0  0  0  0  0
   58.2190   33.0700   43.4230 O   0  0  0  0  0  0  0  0  0  0  0  0
   56.5680   31.5890   44.8780 N   0  0  0  0  0  0  0  0  0  0  0  0
   57.1050   30.2970   45.2020 C   0  0  0  0  0  0  0  0  0  0  0  0
   58.4630   30.1170   45.5110 C   0  0  0  0  0  0  0  0  0  0  0  0
   58.9650   28.8520   45.8730 C   0  0  0  0  0  0  0  0  0  0  0  0
   60.4060   28.7180   46.2160 C   0  0  0  0  0  0  0  0  0  0  0  0
   61.1050   27.8380   45.6420 O   0  0  0  0  0  0  0  0  0  0  0  0
   60.9940   29.5260   47.2460 N   0  0  0  0  0  0  0  0  0  0  0  0
   60.8840   29.4100   48.5420 C   0  0  0  0  0  0  0  0  0  0  0  0
   61.1760   30.5070   49.2960 N   0  0  0  0  0  0  0  0  0  0  0  0
   61.0830   30.5120   50.6510 C   0  0  0  0  0  0  0  0  0  0  0  0
   60.6780   29.3620   51.3270 C   0  0  0  0  0  0  0  0  0  0  0  0
   60.3970   28.2070   50.5990 C   0  0  0  0  0  0  0  0  0  0  0  0
   60.5140   28.2050   49.2020 C   0  0  0  0  0  0  0  0  0  0  0  0
   60.3130   27.0120   48.5110 O   0  0  0  0  0  0  0  0  0  0  0  0
   58.0780   27.7540   45.9030 C   0  0  0  0  0  0  0  0  0  0  0  0
   58.5160   26.4800   46.2490 O   0  0  0  0  0  0  0  0  0  0  0  0
   56.7330   27.9280   45.5650 C   0  0  0  0  0  0  0  0  0  0  0  0
   56.2480   29.1890   45.2110 C   0  0  0  0  0  0  0  0  0  0  0  0
   54.9080   29.3380   44.8730 O   0  0  0  0  0  0  0  0  0  0  0  0
   58.2060   32.9300   47.4150 C   0  0  0  0  0  0  0  0  0  0  0  0
   59.1090   33.0610   48.4810 C   0  0  0  0  0  0  0  0  0  0  0  0
   60.4340   33.4120   48.1970 C   0  0  0  0  0  0  0  0  0  0  0  0
   62.3653   33.7135   52.4582 H   0  0  0  0  0  0  0  0  0  0  0  0
   63.2373   32.7930   51.1858 H   0  0  0  0  0  0  0  0  0  0  0  0
   63.2828   34.5887   51.1858 H   0  0  0  0  0  0  0  0  0  0  0  0
   63.2241   34.7091   48.6511 H   0  0  0  0  0  0  0  0  0  0  0  0
   63.4668   32.9570   48.5330 H   0  0  0  0  0  0  0  0  0  0  0  0
   62.5407   34.8163   46.4319 H   0  0  0  0  0  0  0  0  0  0  0  0
   62.8738   33.1074   46.2320 H   0  0  0  0  0  0  0  0  0  0  0  0
   60.3376   33.6020   44.7963 H   0  0  0  0  0  0  0  0  0  0  0  0
   59.1459   30.9783   45.4696 H   0  0  0  0  0  0  0  0  0  0  0  0
   61.3274   31.4240   51.2154 H   0  0  0  0  0  0  0  0  0  0  0  0
   60.5813   29.3660   52.4227 H   0  0  0  0  0  0  0  0  0  0  0  0
   60.0819   27.2927   51.1232 H   0  0  0  0  0  0  0  0  0  0  0  0
   60.2180   26.9870   47.5020 H   0  0  0  0  0  0  0  0  0  0  0  0
   56.0511   27.0650   45.5779 H   0  0  0  0  0  0  0  0  0  0  0  0
   57.1580   32.6624   47.6153 H   0  0  0  0  0  0  0  0  0  0  0  0
   58.7827   32.8915   49.5177 H   0  0  0  0  0  0  0  0  0  0  0  0
  1  2  1  0
  2  3  2  0
  2  4  1  0
  4  5  1  0
  5  6  1  0
  6  7  1  0
  7  8  2  0
  8  9  1  0
  9 10  1  0
 10 11  2  0
 10 12  2  0
 10 13  1  0
 13 14  1  0
 14 15  2  0
 15 16  1  0
 16 17  1  0
 17 18  2  0
 17 19  1  0
 19 20  2  3
 20 21  1  0
 21 22  1  0
 22 23  2  0
 23 24  1  0
 24 25  2  0
 25 26  1  0
 16 27  2  0
 27 28  1  0
 27 29  1  0
 29 30  2  0
 30 31  1  0
  9 32  2  0
 32 33  1  0
 33 34  2  0
 34  4  1  0
 34  7  1  0
 30 14  1  0
 25 20  1  0
  1 35  1  0
  1 36  1  0
  1 37  1  0
  5 38  1  0
  5 39  1  0
  6 40  1  0
  6 41  1  0
  8 42  1  0
 15 43  1  0
 22 44  1  0
 23 45  1  0
 24 46  1  0
 26 47  1  0
 29 48  1  0
 32 49  1  0
 33 50  1  0
M  CHG  4  13  -1  21  -1  28  -1  31  -1
M  END
>  <UniqueID>  (2) 
2

>  <SMILES>  (2) 
CC(=O)N1CCc2cc(S(=O)(=O)[N-]c3cc(C(=O)N=c4[n-]cccc4O)c([O-])cc3[O-])ccc21

>  <Energy>  (2) 
88.65307814262525

>  <Genealogy>  (2) 
CC(=O)N1CCc2cc(S(=O)(=O)[N-]c3cc(C(=O)N=c4[n-]cccc4O)c([O-])cc3[O-])ccc21 (protonated)
CC(=O)N1CCc2cc(S(=O)(=O)[N-]c3cc(C(=O)N=c4[n-]cccc4O)c([O-])cc3[O-])ccc21 (3D coordinates assigned)
CC(=O)N1CCc2cc(S(=O)(=O)[N-]c3cc(C(=O)N=c4[n-]cccc4O)c([O-])cc3[O-])ccc21 (nonaromatic ring conformer: 88.65307814262525 kcal/mol)

>  <smiles>  (2) 
CC(=O)N1CCc2cc(S(=O)(=O)Nc3cc(C(=O)N=c4[nH]cccc4O)c(O)cc3O)ccc21

>  <score_type>  (2) 
oracle

>  <origin>  (2) 
adg

>  <m_score__min__energy>  (2) 
-17.420000000000002

>  <m_primary>  (2) 
energy

$$$$
2:0
     RDKit          3D

 43 44  0  0  0  0  0  0  0  0999 V2000
   56.5010   30.2260   52.7630 C   0  0  0  0  0  0  0  0  0  0  0  0
   57.1720   29.7450   51.6020 O   0  0  0  0  0  0  0  0  0  0  0  0
   58.1290   30.4740   50.8810 C   0  0  0  0  0  0  0  0  0  0  0  0
   59.1880   29.8550   50.1910 C   0  0  0  0  0  0  0  0  0  0  0  0
   60.1160   30.6270   49.4860 C   0  0  0  0  0  0  0  0  0  0  0  0
   60.0010   32.0250   49.4560 C   0  0  0  0  0  0  0  0  0  0  0  0
   60.9600   32.8180   48.7340 N   0  0  0  0  0  0  0  0  0  0  0  0
   60.7210   34.2450   48.4990 C   0  0  0  0  0  0  0  0  0  0  0  0
   59.8230   34.4320   47.3060 C   0  0  0  0  0  0  0  0  0  0  0  0
   58.8890   35.2740   47.3660 O   0  0  0  0  0  0  0  0  0  0  0  0
   59.9600   33.6350   46.1230 N   0  0  0  0  0  0  0  0  0  0  0  0
   59.0400   32.6370   45.6610 C   0  0  0  0  0  0  0  0  0  0  0  0
   59.0110   31.3500   46.2220 C   0  0  0  0  0  0  0  0  0  0  0  0
   58.1240   30.3870   45.7310 C   0  0  0  0  0  0  0  0  0  0  0  0
   57.2620   30.6900   44.6610 C   0  0  0  0  0  0  0  0  0  0  0  0
   56.3210   29.6720   44.1370 C   0  0  0  0  0  0  0  0  0  0  0  0
   55.1350   29.3400   44.8570 N   0  0  0  0  0  0  0  0  0  0  0  0
   56.5590   29.0860   43.0460 O   0  0  0  0  0  0  0  0  0  0  0  0
   57.3150   31.9740   44.0870 C   0  0  0  0  0  0  0  0  0  0  0  0
   58.2050   32.9340   44.5790 C   0  0  0  0  0  0  0  0  0  0  0  0
   62.3340   32.0590   47.9820 S   0  0  0  0  0  0  0  0  0  0  0  0
   63.2100   33.2400   46.9810 C   0  0  0  0  0  0  0  0  0  0  0  0
   63.2520   31.5190   49.0430 O   0  0  0  0  0  0  0  0  0  0  0  0
   61.8770   30.9180   47.1150 O   0  0  0  0  0  0  0  0  0  0  0  0
   58.9450   32.6400   50.1450 C   0  0  0  0  0  0  0  0  0  0  0  0
   58.0190   31.8680   50.8510 C   0  0  0  0  0  0  0  0  0  0  0  0
   57.0152   29.8574   53.6628 H   0  0  0  0  0  0  0  0  0  0  0  0
   56.5081   31.3260   52.7613 H   0  0  0  0  0  0  0  0  0  0  0  0
   55.4616   29.8660   52.7613 H   0  0  0  0  0  0  0  0  0  0  0  0
   59.2859   28.7595   50.2065 H   0  0  0  0  0  0  0  0  0  0  0  0
   60.9419   30.1352   48.9512 H   0  0  0  0  0  0  0  0  0  0  0  0
   60.2422   34.6842   49.3866 H   0  0  0  0  0  0  0  0  0  0  0  0
   61.6827   34.7429   48.3059 H   0  0  0  0  0  0  0  0  0  0  0  0
   59.6888   31.0984   47.0510 H   0  0  0  0  0  0  0  0  0  0  0  0
   58.0999   29.3852   46.1846 H   0  0  0  0  0  0  0  0  0  0  0  0
   55.1490   28.6240   45.6170 H   0  0  0  0  0  0  0  0  0  0  0  0
   56.6519   32.2241   43.2457 H   0  0  0  0  0  0  0  0  0  0  0  0
   58.2486   33.9290   44.1120 H   0  0  0  0  0  0  0  0  0  0  0  0
   63.7383   33.9522   47.6320 H   0  0  0  0  0  0  0  0  0  0  0  0
   63.9381   32.7140   46.3460 H   0  0  0  0  0  0  0  0  0  0  0  0
   62.4954   33.7841   46.3460 H   0  0  0  0  0  0  0  0  0  0  0  0
   58.8456   33.7354   50.1293 H   0  0  0  0  0  0  0  0  0  0  0  0
   57.1956   32.3612   51.3884 H   0  0  0  0  0  0  0  0  0  0  0  0
  1  2  1  0
  2  3  1  0
  3  4  2  0
  4  5  1  0
  5  6  2  0
  6  7  1  0
  7  8  1  0
  8  9  1  0
  9 10  2  0
  9 11  1  0
 11 12  1  0
 12 13  2  0
 13 14  1  0
 14 15  2  0
 15 16  1  0
 16 17  1  0
 16 18  2  0
 15 19  1  0
 19 20  2  0
  7 21  1  0
 21 22  1  0
 21 23  2  0
 21 24  2  0
  6 25  1  0
 25 26  2  0
 26  3  1  0
 20 12  1  0
  1 27  1  0
  1 28  1  0
  1 29  1  0
  4 30  1  0
  5 31  1  0
  8 32  1  0
  8 33  1  0
 13 34  1  0
 14 35  1  0
 17 36  1  0
 19 37  1  0
 20 38  1  0
 22 39  1  0
 22 40  1  0
 22 41  1  0
 25 42  1  0
 26 43  1  0
M  CHG  2  11  -1  17  -1
M  END
>  <UniqueID>  (3) 
3

>  <SMILES>  (3) 
COc1ccc(N(CC(=O)[N-]c2ccc(C([NH-])=O)cc2)S(C)(=O)=O)cc1

>  <Energy>  (3) 
47.48137262859017

>  <Genealogy>  (3) 
COc1ccc(N(CC(=O)[N-]c2ccc(C([NH-])=O)cc2)S(C)(=O)=O)cc1 (protonated)
COc1ccc(N(CC(=O)[N-]c2ccc(C([NH-])=O)cc2)S(C)(=O)=O)cc1 (3D coordinates assigned)
COc1ccc(N(CC(=O)[N-]c2ccc(C([NH-])=O)cc2)S(C)(=O)=O)cc1 (optimized conformer: 47.48137262859017 kcal/mol)

>  <smiles>  (3) 
COc1ccc(N(CC(=O)Nc2ccc(C(N)=O)cc2)S(C)(=O)=O)cc1

>  <score_type>  (3) 
oracle

>  <origin>  (3) 
adg

>  <m_score__min__energy>  (3) 
-11.119999999999999

>  <m_primary>  (3) 
energy

$$$$
3:0
     RDKit          3D

 41 43  0  0  0  0  0  0  0  0999 V2000
   60.9980   30.4550   46.5790 N   0  0  0  0  0  0  0  0  0  0  0  0
   60.1840   31.2790   47.1730 C   0  0  0  0  0  0  0  0  0  0  0  0
   60.5770   31.9550   48.3790 N   0  0  0  0  0  0  0  0  0  0  0  0
   61.9240   32.3530   48.6910 C   0  0  0  0  0  0  0  0  0  0  0  0
   62.7510   32.8410   47.6680 C   0  0  0  0  0  0  0  0  0  0  0  0
   64.0730   33.2080   47.9410 C   0  0  0  0  0  0  0  0  0  0  0  0
   64.5820   33.0760   49.2360 C   0  0  0  0  0  0  0  0  0  0  0  0
   63.7730   32.5690   50.2560 C   0  0  0  0  0  0  0  0  0  0  0  0
   62.4510   32.2020   49.9860 C   0  0  0  0  0  0  0  0  0  0  0  0
   58.8730   31.5290   46.6410 N   0  0  0  0  0  0  0  0  0  0  0  0
   58.1060   30.5750   45.8840 C   0  0  0  0  0  0  0  0  0  0  0  0
   57.3570   30.9790   44.7650 C   0  0  0  0  0  0  0  0  0  0  0  0
   56.6370   30.0460   44.0170 C   0  0  0  0  0  0  0  0  0  0  0  0
   55.8980   30.4720   42.9170 O   0  0  0  0  0  0  0  0  0  0  0  0
   56.6710   28.6930   44.3720 C   0  0  0  0  0  0  0  0  0  0  0  0
   57.4300   28.2630   45.4730 C   0  0  0  0  0  0  0  0  0  0  0  0
   57.4740   26.8230   45.8170 C   0  0  0  0  0  0  0  0  0  0  0  0
   58.7120   26.1630   45.9110 C   0  0  0  0  0  0  0  0  0  0  0  0
   58.7660   24.8010   46.2220 C   0  0  0  0  0  0  0  0  0  0  0  0
   57.5860   24.0850   46.4390 C   0  0  0  0  0  0  0  0  0  0  0  0
   56.3510   24.7290   46.3480 C   0  0  0  0  0  0  0  0  0  0  0  0
   56.2880   26.0940   46.0410 C   0  0  0  0  0  0  0  0  0  0  0  0
   55.0460   26.7180   45.9750 O   0  0  0  0  0  0  0  0  0  0  0  0
   58.1510   29.2110   46.2270 C   0  0  0  0  0  0  0  0  0  0  0  0
   58.8920   28.8050   47.3340 O   0  0  0  0  0  0  0  0  0  0  0  0
   60.7500   29.4510   46.4420 H   0  0  0  0  0  0  0  0  0  0  0  0
   61.9250   30.7720   46.2190 H   0  0  0  0  0  0  0  0  0  0  0  0
   59.8240   32.1910   49.0640 H   0  0  0  0  0  0  0  0  0  0  0  0
   62.3575   32.9356   46.6452 H   0  0  0  0  0  0  0  0  0  0  0  0
   64.7121   33.6005   47.1363 H   0  0  0  0  0  0  0  0  0  0  0  0
   65.6194   33.3712   49.4521 H   0  0  0  0  0  0  0  0  0  0  0  0
   64.1767   32.4583   51.2732 H   0  0  0  0  0  0  0  0  0  0  0  0
   61.8208   31.7936   50.7897 H   0  0  0  0  0  0  0  0  0  0  0  0
   58.4410   32.4580   46.8450 H   0  0  0  0  0  0  0  0  0  0  0  0
   57.3382   32.0402   44.4762 H   0  0  0  0  0  0  0  0  0  0  0  0
   55.5060   29.8130   42.2530 H   0  0  0  0  0  0  0  0  0  0  0  0
   56.0988   27.9602   43.7842 H   0  0  0  0  0  0  0  0  0  0  0  0
   59.6438   26.7217   45.7388 H   0  0  0  0  0  0  0  0  0  0  0  0
   59.7386   24.2925   46.2959 H   0  0  0  0  0  0  0  0  0  0  0  0
   57.6303   23.0130   46.6817 H   0  0  0  0  0  0  0  0  0  0  0  0
   55.4237   24.1623   46.5181 H   0  0  0  0  0  0  0  0  0  0  0  0
  1  2  2  0
  2  3  1  0
  3  4  1  0
  4  5  2  0
  5  6  1  0
  6  7  2  0
  7  8  1  0
  8  9  2  0
  2 10  1  0
 10 11  1  0
 11 12  2  0
 12 13  1  0
 13 14  1  0
 13 15  2  0
 15 16  1  0
 16 17  1  0
 17 18  2  0
 18 19  1  0
 19 20  2  0
 20 21  1  0
 21 22  2  0
 22 23  1  0
 16 24  2  0
 24 25  1  0
  9  4  1  0
 24 11  1  0
 22 17  1  0
  1 26  1  0
  1 27  1  0
  3 28  1  0
  5 29  1  0
  6 30  1  0
  7 31  1  0
  8 32  1  0
  9 33  1  0
 10 34  1  0
 12 35  1  0
 14 36  1  0
 15 37  1  0
 18 38  1  0
 19 39  1  0
 20 40  1  0
 21 41  1  0
M  CHG  3   1   1  23  -1  25  -1
M  END
>  <UniqueID>  (4) 
4

>  <SMILES>  (4) 
[NH2+]=C(Nc1ccccc1)Nc1cc(O)cc(-c2ccccc2[O-])c1[O-]

>  <Energy>  (4) 
60.78563767995211

>  <Genealogy>  (4) 
[NH2+]=C(Nc1ccccc1)Nc1cc(O)cc(-c2ccccc2[O-])c1[O-] (protonated)
[NH2+]=C(Nc1ccccc1)Nc1cc(O)cc(-c2ccccc2[O-])c1[O-] (3D coordinates assigned)
[NH2+]=C(Nc1ccccc1)Nc1cc(O)cc(-c2ccccc2[O-])c1[O-] (optimized conformer: 60.78563767995211 kcal/mol)

>  <smiles>  (4) 
N=C(Nc1ccccc1)Nc1cc(O)cc(-c2ccccc2O)c1O

>  <score_type>  (4) 
oracle

>  <origin>  (4) 
adg

>  <m_score__min__energy>  (4) 
-9.9900000000000002

>  <m_primary>  (4) 
energy

$$$$
4:0
     RDKit          3D

 57 60  0  0  0  0  0  0  0  0999 V2000
   59.0070   33.0970   52.2650 C   0  0  0  0  0  0  0  0  0  0  0  0
   57.9470   32.2250   51.7440 N   0  0  0  0  0  0  0  0  0  0  0  0
   56.6230   32.2090   52.3720 C   0  0  0  0  0  0  0  0  0  0  0  0
   58.2470   31.2480   50.7300 C   0  0  0  0  0  0  0  0  0  0  0  0
   57.7400   30.0960   50.8120 O   0  0  0  0  0  0  0  0  0  0  0  0
   59.1370   31.5590   49.5890 C   0  0  0  0  0  0  0  0  0  0  0  0
   59.4990   32.8910   49.3210 C   0  0  0  0  0  0  0  0  0  0  0  0
   60.3610   33.1890   48.2640 C   0  0  0  0  0  0  0  0  0  0  0  0
   60.8790   32.1650   47.4680 C   0  0  0  0  0  0  0  0  0  0  0  0
   60.5520   30.8270   47.7360 C   0  0  0  0  0  0  0  0  0  0  0  0
   61.1110   29.7210   46.8760 C   0  0  0  0  0  0  0  0  0  0  0  0
   60.0400   28.7760   46.4960 N   0  0  0  0  0  0  0  0  0  0  0  0
   59.7460   27.7200   47.3190 C   0  0  0  0  0  0  0  0  0  0  0  0
   60.4290   27.5180   48.3640 O   0  0  0  0  0  0  0  0  0  0  0  0
   58.6850   26.8620   47.0100 C   0  0  0  0  0  0  0  0  0  0  0  0
   58.3450   25.7660   47.8240 C   0  0  0  0  0  0  0  0  0  0  0  0
   57.2660   24.9510   47.4810 C   0  0  0  0  0  0  0  0  0  0  0  0
   56.5320   25.2370   46.3300 C   0  0  0  0  0  0  0  0  0  0  0  0
   56.8720   26.2990   45.5530 N   0  0  0  0  0  0  0  0  0  0  0  0
   57.9250   27.1170   45.8530 C   0  0  0  0  0  0  0  0  0  0  0  0
   58.2370   28.1770   45.0430 N   0  0  0  0  0  0  0  0  0  0  0  0
   57.3890   28.4730   43.8680 C   0  0  0  0  0  0  0  0  0  0  0  0
   56.9750   29.9170   43.8680 C   0  0  0  0  0  0  0  0  0  0  0  0
   55.9120   30.2550   44.4590 O   0  0  0  0  0  0  0  0  0  0  0  0
   57.7760   30.9030   43.2010 N   0  0  0  0  0  0  0  0  0  0  0  0
   57.4030   32.3160   43.1960 C   0  0  0  0  0  0  0  0  0  0  0  0
   57.5470   32.9020   44.5650 C   0  0  0  0  0  0  0  0  0  0  0  0
   58.1940   34.0800   44.8740 C   0  0  0  0  0  0  0  0  0  0  0  0
   58.1070   34.2020   46.2430 C   0  0  0  0  0  0  0  0  0  0  0  0
   57.4160   33.0900   46.6830 C   0  0  0  0  0  0  0  0  0  0  0  0
   57.0970   32.3330   45.6600 O   0  0  0  0  0  0  0  0  0  0  0  0
   59.2970   28.9920   45.3590 C   0  0  0  0  0  0  0  0  0  0  0  0
   59.5890   29.9570   44.5990 O   0  0  0  0  0  0  0  0  0  0  0  0
   59.6840   30.5310   48.8010 C   0  0  0  0  0  0  0  0  0  0  0  0
   58.9875   33.0810   53.3647 H   0  0  0  0  0  0  0  0  0  0  0  0
   59.9844   32.7381   51.9103 H   0  0  0  0  0  0  0  0  0  0  0  0
   58.8433   34.1253   51.9103 H   0  0  0  0  0  0  0  0  0  0  0  0
   56.7361   32.2104   53.4662 H   0  0  0  0  0  0  0  0  0  0  0  0
   56.0587   33.1004   52.0606 H   0  0  0  0  0  0  0  0  0  0  0  0
   56.0804   31.3042   52.0606 H   0  0  0  0  0  0  0  0  0  0  0  0
   59.1008   33.7027   49.9476 H   0  0  0  0  0  0  0  0  0  0  0  0
   60.6333   34.2345   48.0573 H   0  0  0  0  0  0  0  0  0  0  0  0
   61.5459   32.4083   46.6277 H   0  0  0  0  0  0  0  0  0  0  0  0
   61.5510   30.1557   45.9664 H   0  0  0  0  0  0  0  0  0  0  0  0
   61.8809   29.1794   47.4451 H   0  0  0  0  0  0  0  0  0  0  0  0
   58.9298   25.5518   48.7307 H   0  0  0  0  0  0  0  0  0  0  0  0
   56.9967   24.0912   48.1121 H   0  0  0  0  0  0  0  0  0  0  0  0
   55.6776   24.6028   46.0510 H   0  0  0  0  0  0  0  0  0  0  0  0
   57.9554   28.2589   42.9497 H   0  0  0  0  0  0  0  0  0  0  0  0
   56.4873   27.8445   43.9128 H   0  0  0  0  0  0  0  0  0  0  0  0
   58.6550   30.6000   42.7210 H   0  0  0  0  0  0  0  0  0  0  0  0
   58.0570   32.8603   42.4988 H   0  0  0  0  0  0  0  0  0  0  0  0
   56.3531   32.4052   42.8800 H   0  0  0  0  0  0  0  0  0  0  0  0
   58.6782   34.7764   44.1736 H   0  0  0  0  0  0  0  0  0  0  0  0
   58.5069   35.0195   46.8609 H   0  0  0  0  0  0  0  0  0  0  0  0
   57.1702   32.8719   47.7328 H   0  0  0  0  0  0  0  0  0  0  0  0
   59.4298   29.4835   49.0205 H   0  0  0  0  0  0  0  0  0  0  0  0
  1  2  1  0
  2  3  1  0
  2  4  1  0
  4  5  2  0
  4  6  1  0
  6  7  2  0
  7  8  1  0
  8  9  2  0
  9 10  1  0
 10 11  1  0
 11 12  1  0
 12 13  1  0
 13 14  2  0
 13 15  1  0
 15 16  2  0
 16 17  1  0
 17 18  2  0
 18 19  1  0
 19 20  2  0
 20 21  1  0
 21 22  1  0
 22 23  1  0
 23 24  2  0
 23 25  1  0
 25 26  1  0
 26 27  1  0
 27 28  2  0
 28 29  1  0
 29 30  2  0
 30 31  1  0
 21 32  1  0
 32 33  2  0
 10 34  2  0
 34  6  1  0
 32 12  1  0
 20 15  1  0
 31 27  1  0
  1 35  1  0
  1 36  1  0
  1 37  1  0
  3 38  1  0
  3 39  1  0
  3 40  1  0
  7 41  1  0
  8 42  1  0
  9 43  1  0
 11 44  1  0
 11 45  1  0
 16 46  1  0
 17 47  1  0
 18 48  1  0
 22 49  1  0
 22 50  1  0
 25 51  1  0
 26 52  1  0
 26 53  1  0
 28 54  1  0
 29 55  1  0
 30 56  1  0
 34 57  1  0
M  END
>  <UniqueID>  (5) 
5

>  <SMILES>  (5) 
CN(C)C(=O)c1cccc(Cn2c(=O)c3cccnc3n(CC(=O)NCc3ccco3)c2=O)c1

>  <Energy>  (5) 
95.25616699504398

>  <Genealogy>  (5) 
CN(C)C(=O)c1cccc(Cn2c(=O)c3cccnc3n(CC(=O)NCc3ccco3)c2=O)c1 (3D coordinates assigned)
CN(C)C(=O)c1cccc(Cn2c(=O)c3cccnc3n(CC(=O)NCc3ccco3)c2=O)c1 (optimized conformer: 95.25616699504398 kcal/mol)

>  <smiles>  (5) 
CN(C)C(=O)c1cccc(Cn2c(=O)c3cccnc3n(CC(=O)NCc3ccco3)c2=O)c1

>  <score_type>  (5) 
oracle

>  <origin>  (5) 
adg

>  <m_score__min__energy>  (5) 
-9.1600000000000001

>  <m_primary>  (5) 
energy

$$$$
5:0
     RDKit          3D

 68 70  0  0  0  0  0  0  0  0999 V2000
   62.0327   34.1156   51.3167 H   0  0  0  0  0  0  0  0  0  0  0  0
   61.4070   33.7890   50.4730 C   0  0  0  0  0  0  0  0  0  0  0  0
   59.9890   33.4590   50.7650 C   0  0  0  0  0  0  0  0  0  0  0  0
   59.3030   34.2020   51.5160 O   0  0  0  0  0  0  0  0  0  0  0  0
   59.3560   32.3270   50.1590 N   0  0  0  0  0  0  0  0  0  0  0  0
   58.2900   32.4190   49.1680 C   0  0  0  0  0  0  0  0  0  0  0  0
   57.3873   31.9289   49.5616 H   0  0  0  0  0  0  0  0  0  0  0  0
   58.0879   33.4805   48.9623 H   0  0  0  0  0  0  0  0  0  0  0  0
   58.7060   31.7340   47.8630 C   0  0  0  0  0  0  0  0  0  0  0  0
   59.6465   31.1891   48.0321 H   0  0  0  0  0  0  0  0  0  0  0  0
   57.8976   31.0498   47.5657 H   0  0  0  0  0  0  0  0  0  0  0  0
   58.9130   32.7310   46.7390 C   0  0  0  0  0  0  0  0  0  0  0  0
   59.7440   33.8410   46.9780 C   0  0  0  0  0  0  0  0  0  0  0  0
   60.2398   33.9481   47.9541 H   0  0  0  0  0  0  0  0  0  0  0  0
   59.9470   34.8070   45.9930 C   0  0  0  0  0  0  0  0  0  0  0  0
   60.6017   35.6676   46.1946 H   0  0  0  0  0  0  0  0  0  0  0  0
   59.3220   34.6840   44.7540 C   0  0  0  0  0  0  0  0  0  0  0  0
   59.4836   35.4473   43.9786 H   0  0  0  0  0  0  0  0  0  0  0  0
   58.4910   33.5930   44.4960 C   0  0  0  0  0  0  0  0  0  0  0  0
   58.0026   33.5014   43.5147 H   0  0  0  0  0  0  0  0  0  0  0  0
   58.2710   32.6090   45.4770 C   0  0  0  0  0  0  0  0  0  0  0  0
   57.3870   31.4280   45.1300 C   0  0  0  0  0  0  0  0  0  0  0  0
   56.7708   31.1721   46.0045 H   0  0  0  0  0  0  0  0  0  0  0  0
   56.7523   31.7075   44.2762 H   0  0  0  0  0  0  0  0  0  0  0  0
   58.1940   30.2490   44.7470 N   0  0  0  0  0  0  0  0  0  0  0  0
   58.9640   29.7200   45.9020 C   0  0  0  0  0  0  0  0  0  0  0  0
   59.9455   29.3769   45.5428 H   0  0  0  0  0  0  0  0  0  0  0  0
   59.0603   30.5330   46.6367 H   0  0  0  0  0  0  0  0  0  0  0  0
   58.2600   28.5490   46.5980 C   0  0  0  0  0  0  0  0  0  0  0  0
   58.9059   28.1614   47.3996 H   0  0  0  0  0  0  0  0  0  0  0  0
   57.3080   28.9027   47.0205 H   0  0  0  0  0  0  0  0  0  0  0  0
   57.9870   27.4770   45.6350 N   0  0  0  0  0  0  0  0  0  0  0  0
   57.8260   26.1160   46.0850 C   0  0  0  0  0  0  0  0  0  0  0  0
   57.0800   25.8320   47.2370 C   0  0  0  0  0  0  0  0  0  0  0  0
   56.6122   26.6530   47.8002 H   0  0  0  0  0  0  0  0  0  0  0  0
   56.9260   24.5170   47.6750 C   0  0  0  0  0  0  0  0  0  0  0  0
   56.3330   24.3078   48.5775 H   0  0  0  0  0  0  0  0  0  0  0  0
   57.5200   23.4630   46.9750 C   0  0  0  0  0  0  0  0  0  0  0  0
   57.3590   22.1700   47.4610 O   0  0  0  0  0  0  0  0  0  0  0  0
   58.2810   23.7220   45.8130 C   0  0  0  0  0  0  0  0  0  0  0  0
   58.9450   22.6330   45.0510 C   0  0  0  0  0  0  0  0  0  0  0  0
   60.1640   22.3770   45.2550 O   0  0  0  0  0  0  0  0  0  0  0  0
   58.2200   21.8730   44.0800 N   0  0  0  0  0  0  0  0  0  0  0  0
   56.6460   22.3240   43.5170 S   0  0  0  0  0  0  0  0  0  0  0  0
   55.6270   22.0910   44.5970 O   0  0  0  0  0  0  0  0  0  0  0  0
   56.2940   21.4860   42.3210 O   0  0  0  0  0  0  0  0  0  0  0  0
   56.6550   24.0400   43.0480 C   0  0  0  0  0  0  0  0  0  0  0  0
   56.6583   24.6671   43.9517 H   0  0  0  0  0  0  0  0  0  0  0  0
   57.5543   24.2523   42.4511 H   0  0  0  0  0  0  0  0  0  0  0  0
   55.7580   24.2617   42.4511 H   0  0  0  0  0  0  0  0  0  0  0  0
   58.4240   25.0560   45.3800 C   0  0  0  0  0  0  0  0  0  0  0  0
   59.0128   25.2713   44.4761 H   0  0  0  0  0  0  0  0  0  0  0  0
   57.9170   27.8070   44.2060 C   0  0  0  0  0  0  0  0  0  0  0  0
   58.9227   27.7425   43.7651 H   0  0  0  0  0  0  0  0  0  0  0  0
   57.2476   27.0970   43.6982 H   0  0  0  0  0  0  0  0  0  0  0  0
   57.3750   29.2310   44.0360 C   0  0  0  0  0  0  0  0  0  0  0  0
   57.3626   29.4765   42.9638 H   0  0  0  0  0  0  0  0  0  0  0  0
   56.3655   29.2550   44.4723 H   0  0  0  0  0  0  0  0  0  0  0  0
   61.9880   33.7220   49.2670 C   0  0  0  0  0  0  0  0  0  0  0  0
   61.9680   34.6264   48.6412 H   0  0  0  0  0  0  0  0  0  0  0  0
   62.6530   32.5240   48.7160 C   0  0  0  0  0  0  0  0  0  0  0  0
   62.7487   31.6207   49.3365 H   0  0  0  0  0  0  0  0  0  0  0  0
   63.1390   32.5260   47.4730 C   0  0  0  0  0  0  0  0  0  0  0  0
   63.3638   31.5694   46.9787 H   0  0  0  0  0  0  0  0  0  0  0  0
   63.3830   33.8070   46.7410 C   0  0  0  0  0  0  0  0  0  0  0  0
   63.5378   34.6198   47.4659 H   0  0  0  0  0  0  0  0  0  0  0  0
   64.2776   33.7037   46.1093 H   0  0  0  0  0  0  0  0  0  0  0  0
   62.5131   34.0398   46.1093 H   0  0  0  0  0  0  0  0  0  0  0  0
  1  2  1  0
  2  3  1  0
  3  4  2  0
  3  5  1  0
  5  6  1  0
  6  7  1  0
  6  8  1  0
  6  9  1  0
  9 10  1  0
  9 11  1  0
  9 12  1  0
 12 13  2  0
 13 14  1  0
 13 15  1  0
 15 16  1  0
 15 17  2  0
 17 18  1  0
 17 19  1  0
 19 20  1  0
 19 21  2  0
 21 22  1  0
 22 23  1  0
 22 24  1  0
 22 25  1  0
 25 26  1  0
 26 27  1  0
 26 28  1  0
 26 29  1  0
 29 30  1  0
 29 31  1  0
 29 32  1  0
 32 33  1  0
 33 34  2  0
 34 35  1  0
 34 36  1  0
 36 37  1  0
 36 38  2  0
 38 39  1  0
 38 40  1  0
 40 41  1  0
 41 42  2  0
 41 43  1  0
 43 44  1  0
 44 45  2  0
 44 46  2  0
 44 47  1  0
 47 48  1  0
 47 49  1  0
 47 50  1  0
 40 51  2  0
 51 52  1  0
 32 53  1  0
 53 54  1  0
 53 55  1  0
 53 56  1  0
 56 57  1  0
 56 58  1  0
  2 59  2  0
 59 60  1  0
 59 61  1  0
 61 62  1  0
 61 63  2  0
 63 64  1  0
 63 65  1  0
 65 66  1  0
 65 67  1  0
 65 68  1  0
 21 12  1  0
 56 25  1  0
 51 33  1  0
M  CHG  3   5  -1  39  -1  43  -1
M  END
>  <UniqueID>  (6) 
6

>  <SMILES>  (6) 
C/C=C/C=CC(=O)[N-]CCc1ccccc1CN1CCN(c2ccc([O-])c(C(=O)[N-]S(C)(=O)=O)c2)CC1

>  <Energy>  (6) 
76.71440896202957

>  <Genealogy>  (6) 
CC=CC=CC(=O)[N-]CCc1ccccc1CN1CCN(c2ccc([O-])c(C(=O)[N-]S(C)(=O)=O)c2)CC1 (protonated)
C/C=C/C=CC(=O)[N-]CCc1ccccc1CN1CCN(c2ccc([O-])c(C(=O)[N-]S(C)(=O)=O)c2)CC1 (cis-trans isomerization)
C/C=C/C=CC(=O)[N-]CCc1ccccc1CN1CCN(c2ccc([O-])c(C(=O)[N-]S(C)(=O)=O)c2)CC1 (3D coordinates assigned)
C/C=C/C=CC(=O)[N-]CCc1ccccc1CN1CCN(c2ccc([O-])c(C(=O)[N-]S(C)(=O)=O)c2)CC1 (nonaromatic ring conformer: 76.71440896202957 kcal/mol)

>  <smiles>  (6) 
CC=CC=CC(=O)NCCc1ccccc1CN1CCN(c2ccc(O)c(C(=O)NS(C)(=O)=O)c2)CC1

>  <score_type>  (6) 
oracle

>  <origin>  (6) 
adg

>  <m_score__min__energy>  (6) 
-13.199999999999999

>  <m_primary>  (6) 
energy

$$$$
6:0
     RDKit          3D

 28 29  0  0  0  0  0  0  0  0999 V2000
   55.1170   26.3400   46.1050 N   0  0  0  0  0  0  0  0  0  0  0  0
   56.3260   26.7780   45.9830 C   0  0  0  0  0  0  0  0  0  0  0  0
   56.6390   27.6690   45.0080 N   0  0  0  0  0  0  0  0  0  0  0  0
   57.9030   28.1610   44.8540 C   0  0  0  0  0  0  0  0  0  0  0  0
   58.1850   29.1290   43.8130 N   0  0  0  0  0  0  0  0  0  0  0  0
   57.2530   30.2740   43.7710 C   0  0  0  0  0  0  0  0  0  0  0  0
   57.8510   31.5420   44.3610 C   0  0  0  0  0  0  0  0  0  0  0  0
   58.0540   31.6190   45.7510 C   0  0  0  0  0  0  0  0  0  0  0  0
   58.5940   32.7690   46.3310 C   0  0  0  0  0  0  0  0  0  0  0  0
   58.9560   33.8530   45.5310 C   0  0  0  0  0  0  0  0  0  0  0  0
   59.6340   35.2970   46.2610 Cl  0  0  0  0  0  0  0  0  0  0  0  0
   58.7920   33.7820   44.1460 C   0  0  0  0  0  0  0  0  0  0  0  0
   58.2530   32.6330   43.5520 C   0  0  0  0  0  0  0  0  0  0  0  0
   58.1370   32.6040   41.7950 Cl  0  0  0  0  0  0  0  0  0  0  0  0
   58.9280   27.6760   45.7110 C   0  0  0  0  0  0  0  0  0  0  0  0
   60.3110   28.0450   45.5860 N   0  0  0  0  0  0  0  0  0  0  0  0
   60.7340   28.8510   44.7320 O   0  0  0  0  0  0  0  0  0  0  0  0
   58.5680   26.7760   46.7240 C   0  0  0  0  0  0  0  0  0  0  0  0
   59.4360   26.3450   47.5290 O   0  0  0  0  0  0  0  0  0  0  0  0
   57.2850   26.3480   46.8380 N   0  0  0  0  0  0  0  0  0  0  0  0
   54.4570   26.3210   45.2950 H   0  0  0  0  0  0  0  0  0  0  0  0
   59.1540   29.5010   43.9340 H   0  0  0  0  0  0  0  0  0  0  0  0
   58.1300   28.6370   42.8920 H   0  0  0  0  0  0  0  0  0  0  0  0
   56.9815   30.4680   42.7228 H   0  0  0  0  0  0  0  0  0  0  0  0
   56.3744   30.0086   44.3774 H   0  0  0  0  0  0  0  0  0  0  0  0
   57.7844   30.7638   46.3882 H   0  0  0  0  0  0  0  0  0  0  0  0
   58.7342   32.8201   47.4208 H   0  0  0  0  0  0  0  0  0  0  0  0
   59.0881   34.6343   43.5167 H   0  0  0  0  0  0  0  0  0  0  0  0
  1  2  2  3
  2  3  1  0
  3  4  1  0
  4  5  1  0
  5  6  1  0
  6  7  1  0
  7  8  2  0
  8  9  1  0
  9 10  2  0
 10 11  1  0
 10 12  1  0
 12 13  2  0
 13 14  1  0
  4 15  2  0
 15 16  1  0
 16 17  2  0
 15 18  1  0
 18 19  2  0
 18 20  1  0
 20  2  1  0
 13  7  1  0
  1 21  1  0
  5 22  1  0
  5 23  1  0
  6 24  1  0
  6 25  1  0
  8 26  1  0
  9 27  1  0
 12 28  1  0
M  CHG  3   3  -1   5   1  20  -1
M  END
>  <UniqueID>  (7) 
7

>  <SMILES>  (7) 
N=c1[n-]c([NH2+]Cc2ccc(Cl)cc2Cl)c(N=O)c(=O)[n-]1

>  <Energy>  (7) 
39.946579278469436

>  <Genealogy>  (7) 
N=c1[n-]c([NH2+]Cc2ccc(Cl)cc2Cl)c(N=O)c(=O)[n-]1 (protonated)
N=c1[n-]c([NH2+]Cc2ccc(Cl)cc2Cl)c(N=O)c(=O)[n-]1 (3D coordinates assigned)
N=c1[n-]c([NH2+]Cc2ccc(Cl)cc2Cl)c(N=O)c(=O)[n-]1 (optimized conformer: 39.946579278469436 kcal/mol)

>  <smiles>  (7) 
N=c1[nH]c(NCc2ccc(Cl)cc2Cl)c(N=O)c(=O)[nH]1

>  <score_type>  (7) 
oracle

>  <origin>  (7) 
adg

>  <m_score__min__energy>  (7) 
-10.09

>  <m_primary>  (7) 
energy

$$$$
7:0
     RDKit          3D

 60 63  0  0  0  0  0  0  0  0999 V2000
   61.0010   27.8750   49.8390 O   0  0  0  0  0  0  0  0  0  0  0  0
   60.0840   27.8650   48.9740 C   0  0  0  0  0  0  0  0  0  0  0  0
   60.2200   27.0120   47.7550 C   0  0  0  0  0  0  0  0  0  0  0  0
   59.2710   27.7290   46.3700 S   0  0  0  0  0  0  0  0  0  0  0  0
   57.9420   26.5310   46.4650 C   0  0  0  0  0  0  0  0  0  0  0  0
   58.1820   25.2860   46.9540 N   0  0  0  0  0  0  0  0  0  0  0  0
   57.1910   24.3600   47.0280 C   0  0  0  0  0  0  0  0  0  0  0  0
   57.4560   23.2050   47.4530 O   0  0  0  0  0  0  0  0  0  0  0  0
   55.8920   24.6930   46.6070 C   0  0  0  0  0  0  0  0  0  0  0  0
   54.8120   23.7500   46.6410 N   0  0  0  0  0  0  0  0  0  0  0  0
   54.0180   23.3400   45.5200 C   0  0  0  0  0  0  0  0  0  0  0  0
   53.0210   22.5980   45.7200 O   0  0  0  0  0  0  0  0  0  0  0  0
   54.3760   23.7130   44.1060 C   0  0  0  0  0  0  0  0  0  0  0  0
   55.2990   22.7690   43.5630 O   0  0  0  0  0  0  0  0  0  0  0  0
   56.4750   22.3290   44.1950 C   0  0  0  0  0  0  0  0  0  0  0  0
   56.5110   21.1930   45.0280 C   0  0  0  0  0  0  0  0  0  0  0  0
   57.7110   20.8000   45.6320 C   0  0  0  0  0  0  0  0  0  0  0  0
   58.8810   21.5320   45.4130 C   0  0  0  0  0  0  0  0  0  0  0  0
   58.8520   22.6620   44.5920 C   0  0  0  0  0  0  0  0  0  0  0  0
   57.6530   23.0590   43.9870 C   0  0  0  0  0  0  0  0  0  0  0  0
   55.6780   25.9710   46.0820 C   0  0  0  0  0  0  0  0  0  0  0  0
   54.4200   26.3390   45.6200 O   0  0  0  0  0  0  0  0  0  0  0  0
   56.6980   26.8640   46.0330 N   0  0  0  0  0  0  0  0  0  0  0  0
   58.9090   28.6680   49.1490 N   0  0  0  0  0  0  0  0  0  0  0  0
   58.9040   30.0450   49.5500 C   0  0  0  0  0  0  0  0  0  0  0  0
   59.4670   31.0440   48.7360 C   0  0  0  0  0  0  0  0  0  0  0  0
   59.4330   32.3880   49.1330 C   0  0  0  0  0  0  0  0  0  0  0  0
   60.1420   33.6360   48.1030 S   0  0  0  0  0  0  0  0  0  0  0  0
   60.8120   34.6680   48.9680 O   0  0  0  0  0  0  0  0  0  0  0  0
   61.1930   33.0140   47.2240 O   0  0  0  0  0  0  0  0  0  0  0  0
   58.9370   34.4060   47.0970 N   0  0  0  0  0  0  0  0  0  0  0  0
   57.8250   33.4770   46.8160 C   0  0  0  0  0  0  0  0  0  0  0  0
   57.0420   33.9300   45.5730 C   0  0  0  0  0  0  0  0  0  0  0  0
   57.8240   34.0000   44.3850 O   0  0  0  0  0  0  0  0  0  0  0  0
   59.2180   34.1390   44.6240 C   0  0  0  0  0  0  0  0  0  0  0  0
   59.5360   34.9810   45.8730 C   0  0  0  0  0  0  0  0  0  0  0  0
   58.8160   32.7340   50.3430 C   0  0  0  0  0  0  0  0  0  0  0  0
   58.2310   31.7490   51.1410 C   0  0  0  0  0  0  0  0  0  0  0  0
   58.2650   30.4090   50.7440 C   0  0  0  0  0  0  0  0  0  0  0  0
   57.6690   29.4400   51.5420 O   0  0  0  0  0  0  0  0  0  0  0  0
   61.2814   26.9487   47.4731 H   0  0  0  0  0  0  0  0  0  0  0  0
   59.8278   26.0082   47.9754 H   0  0  0  0  0  0  0  0  0  0  0  0
   53.4638   23.7233   43.4914 H   0  0  0  0  0  0  0  0  0  0  0  0
   54.8418   24.7095   44.1059 H   0  0  0  0  0  0  0  0  0  0  0  0
   55.5930   20.6131   45.2042 H   0  0  0  0  0  0  0  0  0  0  0  0
   57.7331   19.9122   46.2811 H   0  0  0  0  0  0  0  0  0  0  0  0
   59.8234   21.2190   45.8863 H   0  0  0  0  0  0  0  0  0  0  0  0
   59.7718   23.2404   44.4206 H   0  0  0  0  0  0  0  0  0  0  0  0
   57.6358   23.9509   43.3434 H   0  0  0  0  0  0  0  0  0  0  0  0
   59.9376   30.7687   47.7806 H   0  0  0  0  0  0  0  0  0  0  0  0
   58.2310   32.4699   46.6402 H   0  0  0  0  0  0  0  0  0  0  0  0
   57.1441   33.4675   47.6799 H   0  0  0  0  0  0  0  0  0  0  0  0
   56.2206   33.2181   45.4041 H   0  0  0  0  0  0  0  0  0  0  0  0
   56.6856   34.9503   45.7779 H   0  0  0  0  0  0  0  0  0  0  0  0
   59.6518   33.1370   44.7576 H   0  0  0  0  0  0  0  0  0  0  0  0
   59.6486   34.6623   43.7575 H   0  0  0  0  0  0  0  0  0  0  0  0
   60.6275   35.0286   46.0006 H   0  0  0  0  0  0  0  0  0  0  0  0
   59.1083   35.9835   45.7245 H   0  0  0  0  0  0  0  0  0  0  0  0
   58.7926   33.7855   50.6651 H   0  0  0  0  0  0  0  0  0  0  0  0
   57.7415   32.0284   52.0856 H   0  0  0  0  0  0  0  0  0  0  0  0
  1  2  2  0
  2  3  1  0
  3  4  1  0
  4  5  1  0
  5  6  2  0
  6  7  1  0
  7  8  2  0
  7  9  1  0
  9 10  1  0
 10 11  1  0
 11 12  2  0
 11 13  1  0
 13 14  1  0
 14 15  1  0
 15 16  2  0
 16 17  1  0
 17 18  2  0
 18 19  1  0
 19 20  2  0
  9 21  2  0
 21 22  1  0
 21 23  1  0
  2 24  1  0
 24 25  1  0
 25 26  2  0
 26 27  1  0
 27 28  1  0
 28 29  2  0
 28 30  2  0
 28 31  1  0
 31 32  1  0
 32 33  1  0
 33 34  1  0
 34 35  1  0
 35 36  1  0
 27 37  2  0
 37 38  1  0
 38 39  2  0
 39 40  1  0
 23  5  1  0
 39 25  1  0
 20 15  1  0
 36 31  1  0
  3 41  1  0
  3 42  1  0
 13 43  1  0
 13 44  1  0
 16 45  1  0
 17 46  1  0
 18 47  1  0
 19 48  1  0
 20 49  1  0
 26 50  1  0
 32 51  1  0
 32 52  1  0
 33 53  1  0
 33 54  1  0
 35 55  1  0
 35 56  1  0
 36 57  1  0
 36 58  1  0
 37 59  1  0
 38 60  1  0
M  CHG  5  10  -1  22  -1  23  -1  24  -1  40  -1
M  END
>  <UniqueID>  (8) 
8

>  <SMILES>  (8) 
O=C(CSc1nc(=O)c([N-]C(=O)COc2ccccc2)c([O-])[n-]1)[N-]c1cc(S(=O)(=O)N2CCOCC2)ccc1[O-]

>  <Energy>  (8) 
79.2601873057987

>  <Genealogy>  (8) 
O=C(CSc1nc(=O)c([N-]C(=O)COc2ccccc2)c([O-])[n-]1)[N-]c1cc(S(=O)(=O)N2CCOCC2)ccc1[O-] (protonated)
O=C(CSc1nc(=O)c([N-]C(=O)COc2ccccc2)c([O-])[n-]1)[N-]c1cc(S(=O)(=O)N2CCOCC2)ccc1[O-] (3D coordinates assigned)
O=C(CSc1nc(=O)c([N-]C(=O)COc2ccccc2)c([O-])[n-]1)[N-]c1cc(S(=O)(=O)N2CCOCC2)ccc1[O-] (nonaromatic ring conformer: 79.2601873057987 kcal/mol)

>  <smiles>  (8) 
O=C(CSc1nc(=O)c(NC(=O)COc2ccccc2)c(O)[nH]1)Nc1cc(S(=O)(=O)N2CCOCC2)ccc1O

>  <score_type>  (8) 
oracle

>  <origin>  (8) 
adg

>  <m_score__min__energy>  (8) 
-19.359999999999999

>  <m_primary>  (8) 
energy

$$$$
8:0
     RDKit          3D

 38 42  0  0  0  0  0  0  0  0999 V2000
   59.1628   27.0468   44.9895 H   0  0  0  0  0  0  0  0  0  0  0  0
   58.1890   27.2500   45.4590 C   0  0  0  0  0  0  0  0  0  0  0  0
   57.4930   26.1320   46.1180 C   0  0  0  0  0  0  0  0  0  0  0  0
   58.1360   25.1050   46.7010 N   0  0  0  0  0  0  0  0  0  0  0  0
   57.1370   24.3710   47.2360 C   0  0  0  0  0  0  0  0  0  0  0  0
   57.3430   23.3010   47.8650 O   0  0  0  0  0  0  0  0  0  0  0  0
   55.8990   24.8800   47.0540 N   0  0  0  0  0  0  0  0  0  0  0  0
   56.1420   26.0010   46.3550 C   0  0  0  0  0  0  0  0  0  0  0  0
   55.1530   26.9060   45.9920 O   0  0  0  0  0  0  0  0  0  0  0  0
   57.7090   28.5000   45.3960 C   0  0  0  0  0  0  0  0  0  0  0  0
   56.6060   28.9910   44.6910 C   0  0  0  0  0  0  0  0  0  0  0  0
   55.9227   28.3810   44.0820 H   0  0  0  0  0  0  0  0  0  0  0  0
   56.5040   30.3320   44.8700 N   0  0  0  0  0  0  0  0  0  0  0  0
   57.5060   30.6860   45.6580 N   0  0  0  0  0  0  0  0  0  0  0  0
   57.8170   31.9250   46.1070 C   0  0  0  0  0  0  0  0  0  0  0  0
   57.0910   32.9500   45.7780 N   0  0  0  0  0  0  0  0  0  0  0  0
   57.6340   34.1430   45.1340 C   0  0  0  0  0  0  0  0  0  0  0  0
   56.6805   34.5783   44.8003 H   0  0  0  0  0  0  0  0  0  0  0  0
   58.8800   34.6860   45.8080 C   0  0  0  0  0  0  0  0  0  0  0  0
   59.0717   35.7691   45.8199 H   0  0  0  0  0  0  0  0  0  0  0  0
   59.3247   34.5968   46.8101 H   0  0  0  0  0  0  0  0  0  0  0  0
   58.9940   33.9070   44.5060 C   0  0  0  0  0  0  0  0  0  0  0  0
   59.2683   34.4267   43.5761 H   0  0  0  0  0  0  0  0  0  0  0  0
   59.5556   33.0206   44.1760 H   0  0  0  0  0  0  0  0  0  0  0  0
   58.9140   32.0600   46.9070 N   0  0  0  0  0  0  0  0  0  0  0  0
   59.6740   30.9710   47.2420 C   0  0  0  0  0  0  0  0  0  0  0  0
   60.8280   31.1250   48.0820 N   0  0  0  0  0  0  0  0  0  0  0  0
   61.9480   31.9570   47.8540 C   0  0  0  0  0  0  0  0  0  0  0  0
   62.0850   32.7000   46.8470 O   0  0  0  0  0  0  0  0  0  0  0  0
   62.8790   31.8650   48.8610 O   0  0  0  0  0  0  0  0  0  0  0  0
   62.4260   30.9430   49.8460 C   0  0  0  0  0  0  0  0  0  0  0  0
   63.1334   30.1061   49.9418 H   0  0  0  0  0  0  0  0  0  0  0  0
   62.3468   31.4144   50.8367 H   0  0  0  0  0  0  0  0  0  0  0  0
   61.0530   30.4340   49.3450 C   0  0  0  0  0  0  0  0  0  0  0  0
   61.0782   29.3453   49.1901 H   0  0  0  0  0  0  0  0  0  0  0  0
   60.2508   30.6322   50.0711 H   0  0  0  0  0  0  0  0  0  0  0  0
   59.3370   29.7330   46.7740 N   0  0  0  0  0  0  0  0  0  0  0  0
   58.2430   29.6230   45.9820 C   0  0  0  0  0  0  0  0  0  0  0  0
  1  2  1  0
  2  3  1  0
  3  4  1  0
  4  5  1  0
  5  6  2  0
  5  7  1  0
  7  8  1  0
  8  9  1  0
  2 10  2  3
 10 11  1  0
 11 12  1  0
 11 13  2  0
 13 14  1  0
 14 15  1  0
 15 16  2  0
 16 17  1  0
 17 18  1  0
 17 19  1  0
 19 20  1  0
 19 21  1  0
 19 22  1  0
 22 23  1  0
 22 24  1  0
 15 25  1  0
 25 26  2  0
 26 27  1  0
 27 28  1  0
 28 29  2  0
 28 30  1  0
 30 31  1  0
 31 32  1  0
 31 33  1  0
 31 34  1  0
 34 35  1  0
 34 36  1  0
 26 37  1  0
 37 38  2  0
  8  3  2  0
 38 10  1  0
 38 14  1  0
 22 17  1  0
 34 27  1  0
M  CHG  3   4  -1   7  -1   9  -1
M  END
>  <UniqueID>  (9) 
9

>  <SMILES>  (9) 
O=C1OCCN1c1n/c(=N\C2CC2)n2ncc(=Cc3[n-]c(=O)[n-]c3[O-])c2n1

>  <Energy>  (9) 
395.16068484026005

>  <Genealogy>  (9) 
O=C1OCCN1c1nc(=NC2CC2)n2ncc(=Cc3[n-]c(=O)[n-]c3[O-])c2n1 (protonated)
O=C1OCCN1c1n/c(=N\C2CC2)n2ncc(=Cc3[n-]c(=O)[n-]c3[O-])c2n1 (cis-trans isomerization)
O=C1OCCN1c1n/c(=N\C2CC2)n2ncc(=Cc3[n-]c(=O)[n-]c3[O-])c2n1 (3D coordinates assigned)
O=C1OCCN1c1n/c(=N\C2CC2)n2ncc(=Cc3[n-]c(=O)[n-]c3[O-])c2n1 (nonaromatic ring conformer: 395.16068484026005 kcal/mol)

>  <smiles>  (9) 
O=C1OCCN1c1nc(=NC2CC2)n2ncc(=Cc3[nH]c(=O)[nH]c3O)c2n1

>  <score_type>  (9) 
oracle

>  <origin>  (9) 
adg

>  <m_score__min__energy>  (9) 
-15.76

>  <m_primary>  (9) 
energy

$$$$
9:0
     RDKit          3D

 45 48  0  0  0  0  0  0  0  0999 V2000
   55.9120   31.6360   44.5300 O   0  0  0  0  0  0  0  0  0  0  0  0
   57.0430   30.9040   43.8620 S   0  0  0  0  0  0  0  0  0  0  0  0
   56.7370   30.7590   42.3990 O   0  0  0  0  0  0  0  0  0  0  0  0
   58.5030   31.8240   44.0540 N   0  0  0  0  0  0  0  0  0  0  0  0
   58.8140   32.6030   45.2220 C   0  0  0  0  0  0  0  0  0  0  0  0
   58.8880   34.0160   45.1080 C   0  0  0  0  0  0  0  0  0  0  0  0
   59.1960   34.8170   46.2230 C   0  0  0  0  0  0  0  0  0  0  0  0
   59.4220   34.1730   47.4320 C   0  0  0  0  0  0  0  0  0  0  0  0
   59.7140   34.6900   48.5940 O   0  0  0  0  0  0  0  0  0  0  0  0
   59.8220   33.6630   49.4220 C   0  0  0  0  0  0  0  0  0  0  0  0
   60.1070   33.8170   50.8840 C   0  0  0  0  0  0  0  0  0  0  0  0
   61.6030   33.6640   51.1800 C   0  0  0  0  0  0  0  0  0  0  0  0
   62.3850   33.3100   49.9400 C   0  0  0  0  0  0  0  0  0  0  0  0
   62.8410   34.3200   49.0760 C   0  0  0  0  0  0  0  0  0  0  0  0
   63.5280   33.9870   47.9050 C   0  0  0  0  0  0  0  0  0  0  0  0
   63.7590   32.6460   47.5860 C   0  0  0  0  0  0  0  0  0  0  0  0
   63.3020   31.6360   48.4360 C   0  0  0  0  0  0  0  0  0  0  0  0
   62.6130   31.9640   49.6070 C   0  0  0  0  0  0  0  0  0  0  0  0
   59.5990   32.4600   48.8300 N   0  0  0  0  0  0  0  0  0  0  0  0
   59.3500   32.8200   47.5600 C   0  0  0  0  0  0  0  0  0  0  0  0
   59.0450   31.9940   46.4830 C   0  0  0  0  0  0  0  0  0  0  0  0
   57.2460   29.3000   44.5600 C   0  0  0  0  0  0  0  0  0  0  0  0
   58.5100   28.6940   44.5910 C   0  0  0  0  0  0  0  0  0  0  0  0
   58.6610   27.4140   45.1350 C   0  0  0  0  0  0  0  0  0  0  0  0
   57.5530   26.7360   45.6510 C   0  0  0  0  0  0  0  0  0  0  0  0
   56.2900   27.3400   45.6270 C   0  0  0  0  0  0  0  0  0  0  0  0
   55.1890   26.6670   46.1420 O   0  0  0  0  0  0  0  0  0  0  0  0
   56.1380   28.6200   45.0840 C   0  0  0  0  0  0  0  0  0  0  0  0
   59.2180   31.7390   43.2970 H   0  0  0  0  0  0  0  0  0  0  0  0
   58.7018   34.4916   44.1338 H   0  0  0  0  0  0  0  0  0  0  0  0
   59.2555   35.9122   46.1399 H   0  0  0  0  0  0  0  0  0  0  0  0
   59.7777   34.8147   51.2099 H   0  0  0  0  0  0  0  0  0  0  0  0
   59.5637   33.0302   51.4279 H   0  0  0  0  0  0  0  0  0  0  0  0
   61.9853   34.6133   51.5833 H   0  0  0  0  0  0  0  0  0  0  0  0
   61.7264   32.8479   51.9071 H   0  0  0  0  0  0  0  0  0  0  0  0
   62.6568   35.3762   49.3219 H   0  0  0  0  0  0  0  0  0  0  0  0
   63.8871   34.7812   47.2339 H   0  0  0  0  0  0  0  0  0  0  0  0
   64.3011   32.3857   46.6649 H   0  0  0  0  0  0  0  0  0  0  0  0
   63.4846   30.5811   48.1834 H   0  0  0  0  0  0  0  0  0  0  0  0
   62.2480   31.1658   50.2701 H   0  0  0  0  0  0  0  0  0  0  0  0
   58.9847   30.9024   46.6050 H   0  0  0  0  0  0  0  0  0  0  0  0
   59.3841   29.2257   44.1870 H   0  0  0  0  0  0  0  0  0  0  0  0
   59.6535   26.9403   45.1567 H   0  0  0  0  0  0  0  0  0  0  0  0
   57.6732   25.7284   46.0757 H   0  0  0  0  0  0  0  0  0  0  0  0
   55.1457   29.0945   45.0681 H   0  0  0  0  0  0  0  0  0  0  0  0
  1  2  2  0
  2  3  2  0
  2  4  1  0
  4  5  1  0
  5  6  2  0
  6  7  1  0
  7  8  2  0
  8  9  1  0
  9 10  1  0
 10 11  1  0
 11 12  1  0
 12 13  1  0
 13 14  2  0
 14 15  1  0
 15 16  2  0
 16 17  1  0
 17 18  2  0
 10 19  2  0
 19 20  1  0
 20 21  2  0
  2 22  1  0
 22 23  2  0
 23 24  1  0
 24 25  2  0
 25 26  1  0
 26 27  1  0
 26 28  2  0
 21  5  1  0
 28 22  1  0
 20  8  1  0
 18 13  1  0
  4 29  1  0
  6 30  1  0
  7 31  1  0
 11 32  1  0
 11 33  1  0
 12 34  1  0
 12 35  1  0
 14 36  1  0
 15 37  1  0
 16 38  1  0
 17 39  1  0
 18 40  1  0
 21 41  1  0
 23 42  1  0
 24 43  1  0
 25 44  1  0
 28 45  1  0
M  CHG  1  27  -1
M  END
>  <UniqueID>  (10) 
10

>  <SMILES>  (10) 
O=S(=O)(Nc1ccc2oc(CCc3ccccc3)nc2c1)c1cccc([O-])c1

>  <Energy>  (10) 
84.88234297272508

>  <Genealogy>  (10) 
O=S(=O)(Nc1ccc2oc(CCc3ccccc3)nc2c1)c1cccc([O-])c1 (protonated)
O=S(=O)(Nc1ccc2oc(CCc3ccccc3)nc2c1)c1cccc([O-])c1 (3D coordinates assigned)
O=S(=O)(Nc1ccc2oc(CCc3ccccc3)nc2c1)c1cccc([O-])c1 (optimized conformer: 84.88234297272508 kcal/mol)

>  <smiles>  (10) 
O=S(=O)(Nc1ccc2oc(CCc3ccccc3)nc2c1)c1cccc(O)c1

>  <score_type>  (10) 
oracle

>  <origin>  (10) 
adg

>  <m_score__min__energy>  (10) 
-12.77

>  <m_primary>  (10) 
energy

$$$$
10:0
     RDKit          3D

 40 41  0  0  0  0  0  0  0  0999 V2000
   60.3830   34.5560   48.3860 C   0  0  0  0  0  0  0  0  0  0  0  0
   60.0500   34.9630   46.9540 C   0  0  0  0  0  0  0  0  0  0  0  0
   59.1030   33.9750   46.3260 C   0  0  0  0  0  0  0  0  0  0  0  0
   59.0070   32.6690   46.8300 C   0  0  0  0  0  0  0  0  0  0  0  0
   58.1560   31.7410   46.2240 C   0  0  0  0  0  0  0  0  0  0  0  0
   57.4040   32.0940   45.0960 C   0  0  0  0  0  0  0  0  0  0  0  0
   56.5340   31.1110   44.5160 N   0  0  0  0  0  0  0  0  0  0  0  0
   56.6280   29.6870   44.6540 C   0  0  0  0  0  0  0  0  0  0  0  0
   55.5940   28.9800   44.7830 O   0  0  0  0  0  0  0  0  0  0  0  0
   57.9600   29.0260   44.5280 C   0  0  0  0  0  0  0  0  0  0  0  0
   58.4270   28.3020   46.1320 S   0  0  0  0  0  0  0  0  0  0  0  0
   57.4950   26.8020   45.8540 C   0  0  0  0  0  0  0  0  0  0  0  0
   56.1480   26.7390   45.9150 N   0  0  0  0  0  0  0  0  0  0  0  0
   55.6910   25.4850   45.6540 C   0  0  0  0  0  0  0  0  0  0  0  0
   54.2940   25.1920   45.6540 N   0  0  0  0  0  0  0  0  0  0  0  0
   56.6840   24.5380   45.3870 C   0  0  0  0  0  0  0  0  0  0  0  0
   56.4930   23.1020   45.0020 C   0  0  0  0  0  0  0  0  0  0  0  0
   55.9570   23.0030   43.6050 C   0  0  0  0  0  0  0  0  0  0  0  0
   56.7730   22.5040   42.5450 N   0  0  0  0  0  0  0  0  0  0  0  0
   54.7720   23.3570   43.3660 O   0  0  0  0  0  0  0  0  0  0  0  0
   58.1760   25.3160   45.4640 S   0  0  0  0  0  0  0  0  0  0  0  0
   57.4870   33.4090   44.6010 C   0  0  0  0  0  0  0  0  0  0  0  0
   58.3420   34.3370   45.2050 C   0  0  0  0  0  0  0  0  0  0  0  0
   59.8466   35.2116   49.0877 H   0  0  0  0  0  0  0  0  0  0  0  0
   60.0761   33.5127   48.5514 H   0  0  0  0  0  0  0  0  0  0  0  0
   61.4664   34.6502   48.5514 H   0  0  0  0  0  0  0  0  0  0  0  0
   59.5811   35.9580   46.9613 H   0  0  0  0  0  0  0  0  0  0  0  0
   60.9800   34.9834   46.3670 H   0  0  0  0  0  0  0  0  0  0  0  0
   59.6040   32.3745   47.7057 H   0  0  0  0  0  0  0  0  0  0  0  0
   58.0759   30.7243   46.6363 H   0  0  0  0  0  0  0  0  0  0  0  0
   57.9058   28.2322   43.7684 H   0  0  0  0  0  0  0  0  0  0  0  0
   58.7128   29.7690   44.2260 H   0  0  0  0  0  0  0  0  0  0  0  0
   53.6420   25.6380   46.3340 H   0  0  0  0  0  0  0  0  0  0  0  0
   53.9040   24.5220   44.9550 H   0  0  0  0  0  0  0  0  0  0  0  0
   57.4597   22.5801   45.0573 H   0  0  0  0  0  0  0  0  0  0  0  0
   55.7740   22.6393   45.6940 H   0  0  0  0  0  0  0  0  0  0  0  0
   56.3880   22.4310   41.5760 H   0  0  0  0  0  0  0  0  0  0  0  0
   57.7570   22.2050   42.7180 H   0  0  0  0  0  0  0  0  0  0  0  0
   56.8772   33.7082   43.7358 H   0  0  0  0  0  0  0  0  0  0  0  0
   58.4178   35.3563   44.7984 H   0  0  0  0  0  0  0  0  0  0  0  0
  1  2  1  0
  2  3  1  0
  3  4  2  0
  4  5  1  0
  5  6  2  0
  6  7  1  0
  7  8  1  0
  8  9  2  0
  8 10  1  0
 10 11  1  0
 11 12  1  0
 12 13  2  0
 13 14  1  0
 14 15  1  0
 14 16  2  0
 16 17  1  0
 17 18  1  0
 18 19  1  0
 18 20  2  0
 16 21  1  0
  6 22  1  0
 22 23  2  0
 23  3  1  0
 21 12  1  0
  1 24  1  0
  1 25  1  0
  1 26  1  0
  2 27  1  0
  2 28  1  0
  4 29  1  0
  5 30  1  0
 10 31  1  0
 10 32  1  0
 15 33  1  0
 15 34  1  0
 17 35  1  0
 17 36  1  0
 19 37  1  0
 19 38  1  0
 22 39  1  0
 23 40  1  0
M  CHG  1   7  -1
M  END
>  <UniqueID>  (11) 
11

>  <SMILES>  (11) 
CCc1ccc([N-]C(=O)CSc2nc(N)c(CC(N)=O)s2)cc1

>  <Energy>  (11) 
60.176258787767004

>  <Genealogy>  (11) 
CCc1ccc([N-]C(=O)CSc2nc(N)c(CC(N)=O)s2)cc1 (protonated)
CCc1ccc([N-]C(=O)CSc2nc(N)c(CC(N)=O)s2)cc1 (3D coordinates assigned)
CCc1ccc([N-]C(=O)CSc2nc(N)c(CC(N)=O)s2)cc1 (optimized conformer: 60.176258787767004 kcal/mol)

>  <smiles>  (11) 
CCc1ccc(NC(=O)CSc2nc(N)c(CC(N)=O)s2)cc1

>  <score_type>  (11) 
oracle

>  <origin>  (11) 
adg

>  <m_score__min__energy>  (11) 
-10.27

>  <m_primary>  (11) 
energy

$$$$
11:0
     RDKit          3D

 54 56  0  0  0  0  0  0  0  0999 V2000
   57.8320   32.8330   47.0380 O   0  0  0  0  0  0  0  0  0  0  0  0
   58.2160   32.9630   45.8830 C   0  0  0  0  0  0  0  0  0  0  0  0
   57.3170   32.6140   44.7210 C   0  0  0  0  0  0  0  0  0  0  0  0
   57.4410   31.1810   44.2980 C   0  0  0  0  0  0  0  0  0  0  0  0
   57.2060   30.2320   45.1530 N   0  0  0  0  0  0  0  0  0  0  0  0
   57.3530   28.8170   44.9340 C   0  0  0  0  0  0  0  0  0  0  0  0
   57.7860   28.2680   43.7100 C   0  0  0  0  0  0  0  0  0  0  0  0
   57.9000   26.8840   43.5580 C   0  0  0  0  0  0  0  0  0  0  0  0
   57.5920   26.0190   44.6210 C   0  0  0  0  0  0  0  0  0  0  0  0
   57.7000   24.5880   44.4580 N   0  0  0  0  0  0  0  0  0  0  0  0
   58.4590   23.7850   45.4290 C   0  0  0  0  0  0  0  0  0  0  0  0
   59.0550   22.5460   44.7500 C   0  0  0  0  0  0  0  0  0  0  0  0
   57.9810   21.6780   44.0670 C   0  0  0  0  0  0  0  0  0  0  0  0
   56.7130   22.4580   43.6750 C   0  0  0  0  0  0  0  0  0  0  0  0
   57.0140   23.9220   43.3380 C   0  0  0  0  0  0  0  0  0  0  0  0
   57.1730   26.5690   45.8440 C   0  0  0  0  0  0  0  0  0  0  0  0
   57.0570   27.9540   45.9950 C   0  0  0  0  0  0  0  0  0  0  0  0
   59.6090   33.4730   45.6250 C   0  0  0  0  0  0  0  0  0  0  0  0
   60.5420   33.1200   46.7510 C   0  0  0  0  0  0  0  0  0  0  0  0
   61.1530   34.0410   47.3600 O   0  0  0  0  0  0  0  0  0  0  0  0
   60.6860   31.7250   47.2120 C   0  0  0  0  0  0  0  0  0  0  0  0
   61.6340   31.4150   47.9840 O   0  0  0  0  0  0  0  0  0  0  0  0
   59.7470   30.7200   46.7960 N   0  0  0  0  0  0  0  0  0  0  0  0
   59.9210   29.3320   47.1160 C   0  0  0  0  0  0  0  0  0  0  0  0
   60.4320   28.4300   46.1570 C   0  0  0  0  0  0  0  0  0  0  0  0
   60.8150   28.9480   44.5190 Cl  0  0  0  0  0  0  0  0  0  0  0  0
   60.5960   27.0800   46.4860 C   0  0  0  0  0  0  0  0  0  0  0  0
   60.2460   26.6190   47.7560 C   0  0  0  0  0  0  0  0  0  0  0  0
   59.7230   27.5010   48.7030 C   0  0  0  0  0  0  0  0  0  0  0  0
   59.5520   28.8530   48.3870 C   0  0  0  0  0  0  0  0  0  0  0  0
   58.9080   29.9380   49.6120 Cl  0  0  0  0  0  0  0  0  0  0  0  0
   56.2741   32.8045   45.0144 H   0  0  0  0  0  0  0  0  0  0  0  0
   57.6224   33.2378   43.8680 H   0  0  0  0  0  0  0  0  0  0  0  0
   57.7303   30.9339   43.2659 H   0  0  0  0  0  0  0  0  0  0  0  0
   58.0355   28.9330   42.8700 H   0  0  0  0  0  0  0  0  0  0  0  0
   58.2343   26.4675   42.5963 H   0  0  0  0  0  0  0  0  0  0  0  0
   59.2728   24.3959   45.8468 H   0  0  0  0  0  0  0  0  0  0  0  0
   57.7798   23.4599   46.2308 H   0  0  0  0  0  0  0  0  0  0  0  0
   59.7802   22.8736   43.9905 H   0  0  0  0  0  0  0  0  0  0  0  0
   59.5355   21.9350   45.5283 H   0  0  0  0  0  0  0  0  0  0  0  0
   58.4155   21.2408   43.1559 H   0  0  0  0  0  0  0  0  0  0  0  0
   57.6754   20.9122   44.7951 H   0  0  0  0  0  0  0  0  0  0  0  0
   56.2599   21.9780   42.7950 H   0  0  0  0  0  0  0  0  0  0  0  0
   56.0286   22.4439   44.5361 H   0  0  0  0  0  0  0  0  0  0  0  0
   57.6574   23.9616   42.4467 H   0  0  0  0  0  0  0  0  0  0  0  0
   56.0633   24.4420   43.1486 H   0  0  0  0  0  0  0  0  0  0  0  0
   56.9346   25.9055   46.6884 H   0  0  0  0  0  0  0  0  0  0  0  0
   56.7292   28.3702   46.9590 H   0  0  0  0  0  0  0  0  0  0  0  0
   59.9869   33.0255   44.6939 H   0  0  0  0  0  0  0  0  0  0  0  0
   59.5659   34.5691   45.5429 H   0  0  0  0  0  0  0  0  0  0  0  0
   58.8440   31.0150   46.3610 H   0  0  0  0  0  0  0  0  0  0  0  0
   61.0021   26.3797   45.7413 H   0  0  0  0  0  0  0  0  0  0  0  0
   60.3827   25.5578   48.0113 H   0  0  0  0  0  0  0  0  0  0  0  0
   59.4444   27.1318   49.7010 H   0  0  0  0  0  0  0  0  0  0  0  0
  1  2  2  0
  2  3  1  0
  3  4  1  0
  4  5  2  3
  5  6  1  0
  6  7  2  0
  7  8  1  0
  8  9  2  0
  9 10  1  0
 10 11  1  0
 11 12  1  0
 12 13  1  0
 13 14  1  0
 14 15  1  0
  9 16  1  0
 16 17  2  0
  2 18  1  0
 18 19  1  0
 19 20  2  0
 19 21  1  0
 21 22  2  0
 21 23  1  0
 23 24  1  0
 24 25  2  0
 25 26  1  0
 25 27  1  0
 27 28  2  0
 28 29  1  0
 29 30  2  0
 30 31  1  0
 17  6  1  0
 30 24  1  0
 15 10  1  0
  3 32  1  0
  3 33  1  0
  4 34  1  0
  7 35  1  0
  8 36  1  0
 11 37  1  0
 11 38  1  0
 12 39  1  0
 12 40  1  0
 13 41  1  0
 13 42  1  0
 14 43  1  0
 14 44  1  0
 15 45  1  0
 15 46  1  0
 16 47  1  0
 17 48  1  0
 18 49  1  0
 18 50  1  0
 23 51  1  0
 27 52  1  0
 28 53  1  0
 29 54  1  0
M  END
>  <UniqueID>  (12) 
12

>  <SMILES>  (12) 
O=C(CC=Nc1ccc(N2CCCCC2)cc1)CC(=O)C(=O)Nc1c(Cl)cccc1Cl

>  <Energy>  (12) 
65.40348435738139

>  <Genealogy>  (12) 
O=C(CC=Nc1ccc(N2CCCCC2)cc1)CC(=O)C(=O)Nc1c(Cl)cccc1Cl (3D coordinates assigned)
O=C(CC=Nc1ccc(N2CCCCC2)cc1)CC(=O)C(=O)Nc1c(Cl)cccc1Cl (nonaromatic ring conformer: 65.40348435738139 kcal/mol)

>  <smiles>  (12) 
O=C(CC=Nc1ccc(N2CCCCC2)cc1)CC(=O)C(=O)Nc1c(Cl)cccc1Cl

>  <score_type>  (12) 
oracle

>  <origin>  (12) 
adg

>  <m_score__min__energy>  (12) 
-8.7599999999999998

>  <m_primary>  (12) 
energy

$$$$
12:0
     RDKit          3D

 48 50  0  0  0  0  0  0  0  0999 V2000
   56.7520   24.8830   47.8030 O   0  0  0  0  0  0  0  0  0  0  0  0
   57.0120   25.8450   47.0320 C   0  0  0  0  0  0  0  0  0  0  0  0
   56.1940   26.0420   45.7880 C   0  0  0  0  0  0  0  0  0  0  0  0
   54.8550   25.4980   45.9850 N   0  0  0  0  0  0  0  0  0  0  0  0
   54.3660   24.2690   45.4270 C   0  0  0  0  0  0  0  0  0  0  0  0
   53.1320   24.0310   45.4890 O   0  0  0  0  0  0  0  0  0  0  0  0
   55.2380   23.3080   44.7230 C   0  0  0  0  0  0  0  0  0  0  0  0
   55.8190   23.6120   43.4820 C   0  0  0  0  0  0  0  0  0  0  0  0
   56.6460   22.6710   42.8630 C   0  0  0  0  0  0  0  0  0  0  0  0
   56.9010   21.4500   43.4890 C   0  0  0  0  0  0  0  0  0  0  0  0
   56.3260   21.1900   44.7340 C   0  0  0  0  0  0  0  0  0  0  0  0
   55.5200   22.1150   45.3180 N   0  0  0  0  0  0  0  0  0  0  0  0
   58.0720   26.7460   47.3770 N   0  0  0  0  0  0  0  0  0  0  0  0
   58.5980   27.7420   46.4920 C   0  0  0  0  0  0  0  0  0  0  0  0
   59.9080   27.6480   46.0000 C   0  0  0  0  0  0  0  0  0  0  0  0
   60.3970   28.6150   45.1180 C   0  0  0  0  0  0  0  0  0  0  0  0
   59.5740   29.6680   44.7070 C   0  0  0  0  0  0  0  0  0  0  0  0
   58.2590   29.7630   45.1860 C   0  0  0  0  0  0  0  0  0  0  0  0
   57.1760   31.0100   44.5660 S   0  0  0  0  0  0  0  0  0  0  0  0
   57.6030   31.3930   43.1760 O   0  0  0  0  0  0  0  0  0  0  0  0
   55.7780   30.4620   44.4920 O   0  0  0  0  0  0  0  0  0  0  0  0
   57.2020   32.4310   45.5870 N   0  0  0  0  0  0  0  0  0  0  0  0
   58.1780   32.2610   46.6860 C   0  0  0  0  0  0  0  0  0  0  0  0
   58.5610   33.6050   47.3110 C   0  0  0  0  0  0  0  0  0  0  0  0
   59.2570   34.5100   46.2800 C   0  0  0  0  0  0  0  0  0  0  0  0
   58.8130   34.2190   44.8360 C   0  0  0  0  0  0  0  0  0  0  0  0
   57.3760   33.6740   44.7910 C   0  0  0  0  0  0  0  0  0  0  0  0
   57.7880   28.8150   46.1070 C   0  0  0  0  0  0  0  0  0  0  0  0
   56.1222   27.1167   45.5647 H   0  0  0  0  0  0  0  0  0  0  0  0
   56.6779   25.5203   44.9491 H   0  0  0  0  0  0  0  0  0  0  0  0
   55.6251   24.5821   43.0011 H   0  0  0  0  0  0  0  0  0  0  0  0
   57.0954   22.8923   41.8837 H   0  0  0  0  0  0  0  0  0  0  0  0
   57.5473   20.7016   43.0071 H   0  0  0  0  0  0  0  0  0  0  0  0
   56.5255   20.2354   45.2429 H   0  0  0  0  0  0  0  0  0  0  0  0
   60.5517   26.8113   46.3091 H   0  0  0  0  0  0  0  0  0  0  0  0
   61.4302   28.5479   44.7467 H   0  0  0  0  0  0  0  0  0  0  0  0
   59.9587   30.4237   44.0064 H   0  0  0  0  0  0  0  0  0  0  0  0
   57.7342   31.6198   47.4618 H   0  0  0  0  0  0  0  0  0  0  0  0
   59.0876   31.8023   46.2711 H   0  0  0  0  0  0  0  0  0  0  0  0
   57.6514   34.1058   47.6742 H   0  0  0  0  0  0  0  0  0  0  0  0
   59.2559   33.4207   48.1435 H   0  0  0  0  0  0  0  0  0  0  0  0
   59.0207   35.5581   46.5160 H   0  0  0  0  0  0  0  0  0  0  0  0
   60.3373   34.3118   46.3408 H   0  0  0  0  0  0  0  0  0  0  0  0
   58.8613   35.1499   44.2520 H   0  0  0  0  0  0  0  0  0  0  0  0
   59.4856   33.4582   44.4132 H   0  0  0  0  0  0  0  0  0  0  0  0
   56.6968   34.4427   45.1882 H   0  0  0  0  0  0  0  0  0  0  0  0
   57.1495   33.4284   43.7430 H   0  0  0  0  0  0  0  0  0  0  0  0
   56.7769   28.9163   46.5282 H   0  0  0  0  0  0  0  0  0  0  0  0
  1  2  2  0
  2  3  1  0
  3  4  1  0
  4  5  1  0
  5  6  2  0
  5  7  1  0
  7  8  2  0
  8  9  1  0
  9 10  2  0
 10 11  1  0
 11 12  2  0
  2 13  1  0
 13 14  1  0
 14 15  2  0
 15 16  1  0
 16 17  2  0
 17 18  1  0
 18 19  1  0
 19 20  2  0
 19 21  2  0
 19 22  1  0
 22 23  1  0
 23 24  1  0
 24 25  1  0
 25 26  1  0
 26 27  1  0
 18 28  2  0
 12  7  1  0
 28 14  1  0
 27 22  1  0
  3 29  1  0
  3 30  1  0
  8 31  1  0
  9 32  1  0
 10 33  1  0
 11 34  1  0
 15 35  1  0
 16 36  1  0
 17 37  1  0
 23 38  1  0
 23 39  1  0
 24 40  1  0
 24 41  1  0
 25 42  1  0
 25 43  1  0
 26 44  1  0
 26 45  1  0
 27 46  1  0
 27 47  1  0
 28 48  1  0
M  CHG  2   4  -1  13  -1
M  END
>  <UniqueID>  (13) 
13

>  <SMILES>  (13) 
O=C(C[N-]C(=O)c1ccccn1)[N-]c1cccc(S(=O)(=O)N2CCCCC2)c1

>  <Energy>  (13) 
59.93724916969121

>  <Genealogy>  (13) 
O=C(C[N-]C(=O)c1ccccn1)[N-]c1cccc(S(=O)(=O)N2CCCCC2)c1 (protonated)
O=C(C[N-]C(=O)c1ccccn1)[N-]c1cccc(S(=O)(=O)N2CCCCC2)c1 (3D coordinates assigned)
O=C(C[N-]C(=O)c1ccccn1)[N-]c1cccc(S(=O)(=O)N2CCCCC2)c1 (nonaromatic ring conformer: 59.93724916969121 kcal/mol)

>  <smiles>  (13) 
O=C(CNC(=O)c1ccccn1)Nc1cccc(S(=O)(=O)N2CCCCC2)c1

>  <score_type>  (13) 
oracle

>  <origin>  (13) 
adg

>  <m_score__min__energy>  (13) 
-13.4

>  <m_primary>  (13) 
energy

$$$$
13:0
     RDKit          3D

 48 50  0  0  0  0  0  0  0  0999 V2000
   55.1430   26.5430   46.0090 N   0  0  0  0  0  0  0  0  0  0  0  0
   56.5320   26.8320   45.8540 C   0  0  0  0  0  0  0  0  0  0  0  0
   57.3750   25.9130   46.0310 O   0  0  0  0  0  0  0  0  0  0  0  0
   56.9670   28.1850   45.4350 C   0  0  0  0  0  0  0  0  0  0  0  0
   56.0220   29.0350   44.8360 C   0  0  0  0  0  0  0  0  0  0  0  0
   56.3940   30.2910   44.3540 C   0  0  0  0  0  0  0  0  0  0  0  0
   57.7200   30.7250   44.4620 C   0  0  0  0  0  0  0  0  0  0  0  0
   58.1360   32.0670   43.9210 C   0  0  0  0  0  0  0  0  0  0  0  0
   58.6510   32.9190   45.0100 N   0  0  0  0  0  0  0  0  0  0  0  0
   59.0020   34.2640   44.5250 C   0  0  0  0  0  0  0  0  0  0  0  0
   59.7390   35.0510   45.6280 C   0  0  0  0  0  0  0  0  0  0  0  0
   59.4150   34.5880   47.0000 N   0  0  0  0  0  0  0  0  0  0  0  0
   60.3770   33.5800   47.5010 C   0  0  0  0  0  0  0  0  0  0  0  0
   59.6970   32.6000   48.4230 C   0  0  0  0  0  0  0  0  0  0  0  0
   59.6090   31.2450   48.0670 C   0  0  0  0  0  0  0  0  0  0  0  0
   58.9960   30.3240   48.9280 C   0  0  0  0  0  0  0  0  0  0  0  0
   58.9050   28.9790   48.5740 O   0  0  0  0  0  0  0  0  0  0  0  0
   58.4720   30.7590   50.1510 C   0  0  0  0  0  0  0  0  0  0  0  0
   57.8610   29.8500   51.0100 O   0  0  0  0  0  0  0  0  0  0  0  0
   58.5610   32.1080   50.5140 C   0  0  0  0  0  0  0  0  0  0  0  0
   58.0580   32.5290   51.7010 F   0  0  0  0  0  0  0  0  0  0  0  0
   59.1730   33.0250   49.6540 C   0  0  0  0  0  0  0  0  0  0  0  0
   58.0060   34.1480   47.1000 C   0  0  0  0  0  0  0  0  0  0  0  0
   57.6680   33.0090   46.1100 C   0  0  0  0  0  0  0  0  0  0  0  0
   58.6680   29.8930   45.0730 C   0  0  0  0  0  0  0  0  0  0  0  0
   58.3050   28.6330   45.5760 C   0  0  0  0  0  0  0  0  0  0  0  0
   59.2960   27.8630   46.2700 N   0  0  0  0  0  0  0  0  0  0  0  0
   54.5570   27.0790   46.6870 H   0  0  0  0  0  0  0  0  0  0  0  0
   54.9761   28.7065   44.7458 H   0  0  0  0  0  0  0  0  0  0  0  0
   55.6411   30.9429   43.8869 H   0  0  0  0  0  0  0  0  0  0  0  0
   58.9240   31.9260   43.1666 H   0  0  0  0  0  0  0  0  0  0  0  0
   57.2625   32.5564   43.4654 H   0  0  0  0  0  0  0  0  0  0  0  0
   59.6550   34.1740   43.6444 H   0  0  0  0  0  0  0  0  0  0  0  0
   58.0805   34.8007   44.2551 H   0  0  0  0  0  0  0  0  0  0  0  0
   60.8220   34.9415   45.4699 H   0  0  0  0  0  0  0  0  0  0  0  0
   59.4113   36.0984   45.5533 H   0  0  0  0  0  0  0  0  0  0  0  0
   60.8044   33.0342   46.6469 H   0  0  0  0  0  0  0  0  0  0  0  0
   61.1695   34.0980   48.0610 H   0  0  0  0  0  0  0  0  0  0  0  0
   60.0234   30.9039   47.1069 H   0  0  0  0  0  0  0  0  0  0  0  0
   58.4510   28.3020   49.1760 H   0  0  0  0  0  0  0  0  0  0  0  0
   59.2442   34.0839   49.9433 H   0  0  0  0  0  0  0  0  0  0  0  0
   57.8198   33.7919   48.1240 H   0  0  0  0  0  0  0  0  0  0  0  0
   57.3691   35.0088   46.8482 H   0  0  0  0  0  0  0  0  0  0  0  0
   57.6592   32.0546   46.6569 H   0  0  0  0  0  0  0  0  0  0  0  0
   56.6840   33.2248   45.6683 H   0  0  0  0  0  0  0  0  0  0  0  0
   59.7110   30.2316   45.1598 H   0  0  0  0  0  0  0  0  0  0  0  0
   60.0380   28.3090   46.8520 H   0  0  0  0  0  0  0  0  0  0  0  0
   59.3790   26.8360   46.1020 H   0  0  0  0  0  0  0  0  0  0  0  0
  1  2  1  0
  2  3  2  0
  2  4  1  0
  4  5  2  0
  5  6  1  0
  6  7  2  0
  7  8  1  0
  8  9  1  0
  9 10  1  0
 10 11  1  0
 11 12  1  0
 12 13  1  0
 13 14  1  0
 14 15  2  0
 15 16  1  0
 16 17  1  0
 16 18  2  0
 18 19  1  0
 18 20  1  0
 20 21  1  0
 20 22  2  0
 12 23  1  0
 23 24  1  0
  7 25  1  0
 25 26  2  0
 26 27  1  0
 26  4  1  0
 24  9  1  0
 22 14  1  0
  1 28  1  0
  5 29  1  0
  6 30  1  0
  8 31  1  0
  8 32  1  0
 10 33  1  0
 10 34  1  0
 11 35  1  0
 11 36  1  0
 13 37  1  0
 13 38  1  0
 15 39  1  0
 17 40  1  0
 22 41  1  0
 23 42  1  0
 23 43  1  0
 24 44  1  0
 24 45  1  0
 25 46  1  0
 27 47  1  0
 27 48  1  0
M  CHG  2   1  -1  19  -1
M  END
>  <UniqueID>  (14) 
14

>  <SMILES>  (14) 
[NH-]C(=O)c1ccc(CN2CCN(Cc3cc(O)c([O-])c(F)c3)CC2)cc1N

>  <Energy>  (14) 
65.04067898237655

>  <Genealogy>  (14) 
[NH-]C(=O)c1ccc(CN2CCN(Cc3cc(O)c([O-])c(F)c3)CC2)cc1N (protonated)
[NH-]C(=O)c1ccc(CN2CCN(Cc3cc(O)c([O-])c(F)c3)CC2)cc1N (3D coordinates assigned)
[NH-]C(=O)c1ccc(CN2CCN(Cc3cc(O)c([O-])c(F)c3)CC2)cc1N (nonaromatic ring conformer: 65.04067898237655 kcal/mol)

>  <smiles>  (14) 
NC(=O)c1ccc(CN2CCN(Cc3cc(O)c(O)c(F)c3)CC2)cc1N

>  <score_type>  (14) 
oracle

>  <origin>  (14) 
adg

>  <m_score__min__energy>  (14) 
-12.24

>  <m_primary>  (14) 
energy

$$$$
14:0
     RDKit          3D

 37 39  0  0  0  0  0  0  0  0999 V2000
   59.3070   33.6220   48.9250 C   0  0  0  0  0  0  0  0  0  0  0  0
   59.1980   33.8560   47.4720 C   0  0  0  0  0  0  0  0  0  0  0  0
   59.3200   35.1070   46.9360 N   0  0  0  0  0  0  0  0  0  0  0  0
   59.1860   35.0580   45.6360 N   0  0  0  0  0  0  0  0  0  0  0  0
   58.9710   33.7560   45.2950 C   0  0  0  0  0  0  0  0  0  0  0  0
   58.8100   33.4290   44.0940 O   0  0  0  0  0  0  0  0  0  0  0  0
   58.9730   32.9790   46.4320 C   0  0  0  0  0  0  0  0  0  0  0  0
   58.8380   31.5530   46.5800 C   0  0  0  0  0  0  0  0  0  0  0  0
   59.3790   31.0430   47.6210 O   0  0  0  0  0  0  0  0  0  0  0  0
   58.1660   30.6350   45.6960 C   0  0  0  0  0  0  0  0  0  0  0  0
   57.5610   30.9630   44.5060 C   0  0  0  0  0  0  0  0  0  0  0  0
   56.9740   30.0180   43.6690 C   0  0  0  0  0  0  0  0  0  0  0  0
   57.0040   28.6970   44.0620 C   0  0  0  0  0  0  0  0  0  0  0  0
   57.6010   28.3120   45.2530 C   0  0  0  0  0  0  0  0  0  0  0  0
   57.6200   26.9170   45.6230 C   0  0  0  0  0  0  0  0  0  0  0  0
   58.8500   26.2670   45.6250 C   0  0  0  0  0  0  0  0  0  0  0  0
   58.9470   24.9370   45.9650 C   0  0  0  0  0  0  0  0  0  0  0  0
   57.8210   24.2130   46.3130 C   0  0  0  0  0  0  0  0  0  0  0  0
   57.9640   22.8830   46.6470 O   0  0  0  0  0  0  0  0  0  0  0  0
   56.5810   24.8470   46.3170 C   0  0  0  0  0  0  0  0  0  0  0  0
   56.5060   26.1840   45.9730 C   0  0  0  0  0  0  0  0  0  0  0  0
   55.2670   26.8160   45.9780 O   0  0  0  0  0  0  0  0  0  0  0  0
   58.1700   29.2810   46.0490 C   0  0  0  0  0  0  0  0  0  0  0  0
   58.9029   34.4895   49.4674 H   0  0  0  0  0  0  0  0  0  0  0  0
   58.7355   32.7218   49.1953 H   0  0  0  0  0  0  0  0  0  0  0  0
   60.3638   33.4803   49.1953 H   0  0  0  0  0  0  0  0  0  0  0  0
   59.5000   36.0060   47.4730 H   0  0  0  0  0  0  0  0  0  0  0  0
   59.2380   35.8790   44.9920 H   0  0  0  0  0  0  0  0  0  0  0  0
   57.5397   32.0198   44.2014 H   0  0  0  0  0  0  0  0  0  0  0  0
   56.5003   30.3166   42.7222 H   0  0  0  0  0  0  0  0  0  0  0  0
   56.5450   27.9327   43.4177 H   0  0  0  0  0  0  0  0  0  0  0  0
   59.7580   26.8241   45.3509 H   0  0  0  0  0  0  0  0  0  0  0  0
   59.9305   24.4444   45.9600 H   0  0  0  0  0  0  0  0  0  0  0  0
   57.7640   22.5550   47.5670 H   0  0  0  0  0  0  0  0  0  0  0  0
   55.6723   24.2908   46.5905 H   0  0  0  0  0  0  0  0  0  0  0  0
   55.1470   27.5700   45.2960 H   0  0  0  0  0  0  0  0  0  0  0  0
   58.6440   28.9802   46.9950 H   0  0  0  0  0  0  0  0  0  0  0  0
  1  2  1  0
  2  3  1  0
  3  4  1  0
  4  5  1  0
  5  6  2  0
  5  7  1  0
  7  8  1  0
  8  9  2  0
  8 10  1  0
 10 11  2  0
 11 12  1  0
 12 13  2  0
 13 14  1  0
 14 15  1  0
 15 16  2  0
 16 17  1  0
 17 18  2  0
 18 19  1  0
 18 20  1  0
 20 21  2  0
 21 22  1  0
 14 23  2  0
  7  2  2  0
 23 10  1  0
 21 15  1  0
  1 24  1  0
  1 25  1  0
  1 26  1  0
  3 27  1  0
  4 28  1  0
 11 29  1  0
 12 30  1  0
 13 31  1  0
 16 32  1  0
 17 33  1  0
 19 34  1  0
 20 35  1  0
 22 36  1  0
 23 37  1  0
M  END
>  <smiles>  (15) 
Cc1[nH][nH]c(=O)c1C(=O)c1cccc(-c2ccc(O)cc2O)c1

>  <score_type>  (15) 
oracle

>  <origin>  (15) 
adg

>  <m_score__min__energy>  (15) 
-9

>  <m_primary>  (15) 
energy

$$$$
15:0
     RDKit          3D

 76 80  0  0  1  0  0  0  0  0999 V2000
   67.4000   33.3460   50.1600 C   0  0  0  0  0  0  0  0  0  0  0  0
   66.1130   32.5810   50.2720 C   0  0  0  0  0  0  0  0  0  0  0  0
   65.0820   32.9890   49.5490 N   0  0  0  0  0  0  0  0  0  0  0  0
   63.8530   32.3970   49.5470 C   0  0  0  0  0  0  0  0  0  0  0  0
   62.7740   32.9170   48.7160 C   0  0  0  0  0  0  0  0  0  0  0  0
   62.5690   32.5370   47.4070 C   0  0  0  0  0  0  0  0  0  0  0  0
   61.5020   33.0920   46.6880 C   0  0  0  0  0  0  0  0  0  0  0  0
   60.6570   34.0120   47.2740 C   0  0  0  0  0  0  0  0  0  0  0  0
   59.5110   34.6380   46.5640 C   0  0  0  0  0  0  0  0  0  0  0  0
   58.4980   33.5710   46.2770 C   0  0  0  0  0  0  0  0  0  0  0  0
   57.5380   33.3590   47.0850 O   0  0  0  0  0  0  0  0  0  0  0  0
   58.6030   32.7810   45.0920 N   0  0  0  0  0  0  0  0  0  0  0  0
   57.6110   31.7760   44.8690 C   0  0  0  0  0  0  0  0  0  0  0  0
   57.7020   31.3600   43.3930 C   0  0  0  0  0  0  0  0  0  0  0  0
   56.5710   30.3870   43.1450 C   0  0  0  0  0  0  0  0  0  0  0  0
   56.7770   29.2070   43.9190 N   0  0  0  0  0  0  0  0  0  0  0  0
   57.7740   28.3160   43.4220 C   0  0  0  0  0  0  0  0  0  0  0  0
   58.4560   27.6340   44.5460 C   0  0  0  0  0  0  0  0  0  0  0  0
   59.7000   28.1030   44.9320 C   0  0  0  0  0  0  0  0  0  0  0  0
   60.3700   27.4870   45.9740 C   0  0  0  0  0  0  0  0  0  0  0  0
   59.8550   26.4110   46.6600 C   0  0  0  0  0  0  0  0  0  0  0  0
   58.6130   25.9390   46.2780 C   0  0  0  0  0  0  0  0  0  0  0  0
   57.9460   26.5640   45.2300 C   0  0  0  0  0  0  0  0  0  0  0  0
   56.8600   29.4570   45.3390 C   0  0  0  0  0  0  0  0  0  0  0  0
   57.8140   30.5590   45.7100 C   0  0  0  0  0  0  0  0  0  0  0  0
   60.8590   34.3940   48.5850 C   0  0  0  0  0  0  0  0  0  0  0  0
   61.9130   33.8370   49.2770 C   0  0  0  0  0  0  0  0  0  0  0  0
   63.7180   31.2990   50.3690 C   0  0  0  0  0  0  0  0  0  0  0  0
   64.8050   30.8900   51.1120 C   0  0  0  0  0  0  0  0  0  0  0  0
   64.6980   29.8670   51.8870 N   0  0  0  0  0  0  0  0  0  0  0  0
   65.8080   29.3140   52.6320 C   0  0  1  0  0  0  0  0  0  0  0  0
   65.4360   28.6800   53.9300 C   0  0  0  0  0  0  0  0  0  0  0  0
   66.3840   28.2360   51.7500 C   0  0  0  0  0  0  0  0  0  0  0  0
   65.8480   26.9700   51.7190 C   0  0  0  0  0  0  0  0  0  0  0  0
   66.3720   25.9610   50.9110 C   0  0  0  0  0  0  0  0  0  0  0  0
   67.4780   26.2830   50.1200 C   0  0  0  0  0  0  0  0  0  0  0  0
   68.0240   27.5590   50.1470 C   0  0  0  0  0  0  0  0  0  0  0  0
   69.1130   27.8370   49.3550 F   0  0  0  0  0  0  0  0  0  0  0  0
   67.4850   28.5590   50.9650 C   0  0  0  0  0  0  0  0  0  0  0  0
   65.9990   31.5060   51.0830 N   0  0  0  0  0  0  0  0  0  0  0  0
   67.7808   33.5724   51.1668 H   0  0  0  0  0  0  0  0  0  0  0  0
   68.1400   32.7410   49.6155 H   0  0  0  0  0  0  0  0  0  0  0  0
   67.2222   34.2851   49.6155 H   0  0  0  0  0  0  0  0  0  0  0  0
   63.2373   31.8044   46.9309 H   0  0  0  0  0  0  0  0  0  0  0  0
   61.3359   32.7904   45.6433 H   0  0  0  0  0  0  0  0  0  0  0  0
   59.0617   35.4174   47.1970 H   0  0  0  0  0  0  0  0  0  0  0  0
   59.8521   35.1001   45.6259 H   0  0  0  0  0  0  0  0  0  0  0  0
   59.3650   32.9110   44.3920 H   0  0  0  0  0  0  0  0  0  0  0  0
   56.6308   32.1981   45.1354 H   0  0  0  0  0  0  0  0  0  0  0  0
   57.5934   32.2411   42.7434 H   0  0  0  0  0  0  0  0  0  0  0  0
   58.6760   30.8994   43.1711 H   0  0  0  0  0  0  0  0  0  0  0  0
   55.6173   30.8527   43.4342 H   0  0  0  0  0  0  0  0  0  0  0  0
   56.5432   30.1235   42.0774 H   0  0  0  0  0  0  0  0  0  0  0  0
   57.2992   27.5639   42.7748 H   0  0  0  0  0  0  0  0  0  0  0  0
   58.5154   28.8910   42.8478 H   0  0  0  0  0  0  0  0  0  0  0  0
   60.1532   28.9606   44.4132 H   0  0  0  0  0  0  0  0  0  0  0  0
   61.3571   27.8741   46.2668 H   0  0  0  0  0  0  0  0  0  0  0  0
   60.4126   25.9424   47.4843 H   0  0  0  0  0  0  0  0  0  0  0  0
   58.1588   25.0812   46.7957 H   0  0  0  0  0  0  0  0  0  0  0  0
   56.9585   26.1788   44.9359 H   0  0  0  0  0  0  0  0  0  0  0  0
   55.8580   29.7299   45.7016 H   0  0  0  0  0  0  0  0  0  0  0  0
   57.2412   28.5355   45.8033 H   0  0  0  0  0  0  0  0  0  0  0  0
   57.6567   30.8256   46.7656 H   0  0  0  0  0  0  0  0  0  0  0  0
   58.8383   30.1949   45.5421 H   0  0  0  0  0  0  0  0  0  0  0  0
   60.1941   35.1262   49.0665 H   0  0  0  0  0  0  0  0  0  0  0  0
   62.0745   34.1394   50.3222 H   0  0  0  0  0  0  0  0  0  0  0  0
   62.7615   30.7594   50.4311 H   0  0  0  0  0  0  0  0  0  0  0  0
   66.4957   30.1355   52.8813 H   0  0  0  0  0  0  0  0  0  0  0  0
   65.8013   29.3025   54.7601 H   0  0  0  0  0  0  0  0  0  0  0  0
   64.3416   28.5895   53.9935 H   0  0  0  0  0  0  0  0  0  0  0  0
   65.8909   27.6805   53.9935 H   0  0  0  0  0  0  0  0  0  0  0  0
   64.9771   26.7456   52.3524 H   0  0  0  0  0  0  0  0  0  0  0  0
   65.9325   24.9527   50.8970 H   0  0  0  0  0  0  0  0  0  0  0  0
   67.9214   25.5160   49.4680 H   0  0  0  0  0  0  0  0  0  0  0  0
   67.9193   29.5694   50.9860 H   0  0  0  0  0  0  0  0  0  0  0  0
   66.8280   31.2040   51.6430 H   0  0  0  0  0  0  0  0  0  0  0  0
  1  2  1  0
  2  3  2  0
  3  4  1  0
  4  5  1  0
  5  6  2  0
  6  7  1  0
  7  8  2  0
  8  9  1  0
  9 10  1  0
 10 11  2  0
 10 12  1  0
 12 13  1  0
 13 14  1  0
 14 15  1  0
 15 16  1  0
 16 17  1  0
 17 18  1  0
 18 19  2  0
 19 20  1  0
 20 21  2  0
 21 22  1  0
 22 23  2  0
 16 24  1  0
 24 25  1  0
  8 26  1  0
 26 27  2  0
  4 28  2  0
 28 29  1  0
 29 30  2  0
 30 31  1  0
 31 32  1  0
 31 33  1  0
 33 34  2  0
 34 35  1  0
 35 36  2  0
 36 37  1  0
 37 38  1  0
 37 39  2  0
 29 40  1  0
 40  2  1  0
 27  5  1  0
 39 33  1  0
 25 13  1  0
 23 18  1  0
  1 41  1  0
  1 42  1  0
  1 43  1  0
  6 44  1  0
  7 45  1  0
  9 46  1  0
  9 47  1  0
 12 48  1  0
 13 49  1  0
 14 50  1  0
 14 51  1  0
 15 52  1  0
 15 53  1  0
 17 54  1  0
 17 55  1  0
 19 56  1  0
 20 57  1  0
 21 58  1  0
 22 59  1  0
 23 60  1  0
 24 61  1  0
 24 62  1  0
 25 63  1  0
 25 64  1  0
 26 65  1  0
 27 66  1  0
 28 67  1  0
 31 68  1  1
 32 69  1  0
 32 70  1  0
 32 71  1  0
 34 72  1  0
 35 73  1  0
 36 74  1  0
 39 75  1  0
 40 76  1  0
M  END
>  <smiles>  (16) 
Cc1nc(-c2ccc(CC(=O)NC3CCN(Cc4ccccc4)CC3)cc2)cc(=NC(C)c2cccc(F)c2)[nH]1

>  <score_type>  (16) 
oracle

>  <origin>  (16) 
adg

>  <m_score__min__energy>  (16) 
-10.779999999999999

>  <m_primary>  (16) 
energy

$$$$
16:0
     RDKit          3D

 38 39  0  0  0  0  0  0  0  0999 V2000
   57.5769   22.5328   45.1015 H   0  0  0  0  0  0  0  0  0  0  0  0
   57.4180   22.5390   46.1900 C   0  0  0  0  0  0  0  0  0  0  0  0
   57.5550   21.4760   47.0050 N   0  0  0  0  0  0  0  0  0  0  0  0
   57.2860   21.8550   48.2450 N   0  0  0  0  0  0  0  0  0  0  0  0
   56.9790   23.1660   48.2360 C   0  0  0  0  0  0  0  0  0  0  0  0
   56.7166   23.7653   49.1203 H   0  0  0  0  0  0  0  0  0  0  0  0
   57.0460   23.6390   46.9390 C   0  0  0  0  0  0  0  0  0  0  0  0
   56.8040   25.0310   46.4770 C   0  0  0  0  0  0  0  0  0  0  0  0
   55.5170   25.4250   46.0780 C   0  0  0  0  0  0  0  0  0  0  0  0
   54.6909   24.6990   46.1000 H   0  0  0  0  0  0  0  0  0  0  0  0
   55.2870   26.6980   45.6650 N   0  0  0  0  0  0  0  0  0  0  0  0
   56.2850   27.6150   45.6190 C   0  0  0  0  0  0  0  0  0  0  0  0
   56.0240   28.8230   45.2230 N   0  0  0  0  0  0  0  0  0  0  0  0
   56.4350   29.3710   43.9320 C   0  0  0  0  0  0  0  0  0  0  0  0
   55.7204   30.1485   43.6242 H   0  0  0  0  0  0  0  0  0  0  0  0
   56.4537   28.5596   43.1896 H   0  0  0  0  0  0  0  0  0  0  0  0
   57.8420   29.9870   44.0340 C   0  0  0  0  0  0  0  0  0  0  0  0
   57.7296   31.0807   44.0676 H   0  0  0  0  0  0  0  0  0  0  0  0
   58.3925   29.6195   43.1554 H   0  0  0  0  0  0  0  0  0  0  0  0
   58.6490   29.5740   45.2180 N   0  0  0  0  0  0  0  0  0  0  0  0
   58.1580   28.7160   45.5730 H   0  0  0  0  0  0  0  0  0  0  0  0
   60.0170   29.0940   44.8640 C   0  0  0  0  0  0  0  0  0  0  0  0
   60.7011   29.9541   44.9122 H   0  0  0  0  0  0  0  0  0  0  0  0
   59.9317   28.6513   43.8606 H   0  0  0  0  0  0  0  0  0  0  0  0
   60.5840   27.9860   45.7680 C   0  0  0  0  0  0  0  0  0  0  0  0
   60.4415   28.2644   46.8226 H   0  0  0  0  0  0  0  0  0  0  0  0
   60.0584   27.0415   45.5639 H   0  0  0  0  0  0  0  0  0  0  0  0
   61.6575   27.8598   45.5639 H   0  0  0  0  0  0  0  0  0  0  0  0
   58.6320   30.5330   46.3540 C   0  0  0  0  0  0  0  0  0  0  0  0
   57.9490   30.1485   47.1258 H   0  0  0  0  0  0  0  0  0  0  0  0
   59.6646   30.6212   46.7226 H   0  0  0  0  0  0  0  0  0  0  0  0
   58.1700   31.9400   45.9510 C   0  0  0  0  0  0  0  0  0  0  0  0
   57.9747   32.5349   46.8554 H   0  0  0  0  0  0  0  0  0  0  0  0
   58.9554   32.4270   45.3544 H   0  0  0  0  0  0  0  0  0  0  0  0
   57.2488   31.8666   45.3544 H   0  0  0  0  0  0  0  0  0  0  0  0
   57.5440   27.2560   45.9890 N   0  0  0  0  0  0  0  0  0  0  0  0
   57.8270   25.9980   46.4110 C   0  0  0  0  0  0  0  0  0  0  0  0
   59.0150   25.7100   46.7190 O   0  0  0  0  0  0  0  0  0  0  0  0
  1  2  1  0
  2  3  2  0
  3  4  1  0
  4  5  1  0
  5  6  1  0
  5  7  2  0
  7  8  1  0
  8  9  2  0
  9 10  1  0
  9 11  1  0
 11 12  1  0
 12 13  2  0
 13 14  1  0
 14 15  1  0
 14 16  1  0
 14 17  1  0
 17 18  1  0
 17 19  1  0
 17 20  1  0
 20 21  1  0
 20 22  1  0
 22 23  1  0
 22 24  1  0
 22 25  1  0
 25 26  1  0
 25 27  1  0
 25 28  1  0
 20 29  1  0
 29 30  1  0
 29 31  1  0
 29 32  1  0
 32 33  1  0
 32 34  1  0
 32 35  1  0
 12 36  1  0
 36 37  1  0
 37 38  2  0
  7  2  1  0
 37  8  1  0
M  CHG  4   4  -1  11  -1  20   1  36  -1
M  END
>  <UniqueID>  (17) 
15

>  <SMILES>  (17) 
CC[NH+](CC)CC/N=c1/[n-]cc(-c2cn[n-]c2)c(=O)[n-]1

>  <Energy>  (17) 
80.08052916833049

>  <Genealogy>  (17) 
CC[NH+](CC)CCN=c1[n-]cc(-c2cn[n-]c2)c(=O)[n-]1 (protonated)
CC[NH+](CC)CC/N=c1/[n-]cc(-c2cn[n-]c2)c(=O)[n-]1 (cis-trans isomerization)
CC[NH+](CC)CC/N=c1/[n-]cc(-c2cn[n-]c2)c(=O)[n-]1 (3D coordinates assigned)
CC[NH+](CC)CC/N=c1/[n-]cc(-c2cn[n-]c2)c(=O)[n-]1 (optimized conformer: 80.08052916833049 kcal/mol)

>  <smiles>  (17) 
CCN(CC)CCN=c1[nH]cc(-c2cn[nH]c2)c(=O)[nH]1

>  <score_type>  (17) 
oracle

>  <origin>  (17) 
adg

>  <m_score__min__energy>  (17) 
-9.1099999999999994

>  <m_primary>  (17) 
energy

$$$$
17:0
     RDKit          3D

 54 57  0  0  0  0  0  0  0  0999 V2000
   57.3540   29.0890   43.8560 C   0  0  0  0  0  0  0  0  0  0  0  0
   56.2050   29.8190   44.4790 C   0  0  0  0  0  0  0  0  0  0  0  0
   55.2020   29.1630   44.8640 O   0  0  0  0  0  0  0  0  0  0  0  0
   56.1920   31.2470   44.6160 N   0  0  0  0  0  0  0  0  0  0  0  0
   57.2790   32.0780   45.0510 C   0  0  0  0  0  0  0  0  0  0  0  0
   58.2290   31.5430   45.9280 C   0  0  0  0  0  0  0  0  0  0  0  0
   59.3140   32.3150   46.3520 C   0  0  0  0  0  0  0  0  0  0  0  0
   59.4880   33.6200   45.8740 C   0  0  0  0  0  0  0  0  0  0  0  0
   60.5990   34.3920   46.3620 N   0  0  0  0  0  0  0  0  0  0  0  0
   61.5170   34.0010   47.1970 C   0  0  0  0  0  0  0  0  0  0  0  0
   61.1720   33.7450   48.4850 N   0  0  0  0  0  0  0  0  0  0  0  0
   62.0780   33.2980   49.3960 C   0  0  0  0  0  0  0  0  0  0  0  0
   61.6330   33.1580   50.8290 C   0  0  0  0  0  0  0  0  0  0  0  0
   60.2790   33.8460   51.0380 C   0  0  0  0  0  0  0  0  0  0  0  0
   59.1900   32.8290   51.2630 C   0  0  0  0  0  0  0  0  0  0  0  0
   58.1500   33.0960   52.1690 C   0  0  0  0  0  0  0  0  0  0  0  0
   57.1220   32.1650   52.3530 C   0  0  0  0  0  0  0  0  0  0  0  0
   57.1230   30.9680   51.6340 C   0  0  0  0  0  0  0  0  0  0  0  0
   58.1540   30.6950   50.7300 C   0  0  0  0  0  0  0  0  0  0  0  0
   59.1850   31.6230   50.5430 C   0  0  0  0  0  0  0  0  0  0  0  0
   63.4180   33.1050   48.9950 C   0  0  0  0  0  0  0  0  0  0  0  0
   64.4640   32.6210   49.9120 C   0  0  0  0  0  0  0  0  0  0  0  0
   64.5330   31.3910   50.1790 O   0  0  0  0  0  0  0  0  0  0  0  0
   65.3600   33.5460   50.5380 N   0  0  0  0  0  0  0  0  0  0  0  0
   66.4470   33.0870   51.3970 C   0  0  0  0  0  0  0  0  0  0  0  0
   67.3280   32.0420   50.7380 C   0  0  0  0  0  0  0  0  0  0  0  0
   67.8320   33.4680   50.9010 C   0  0  0  0  0  0  0  0  0  0  0  0
   63.7540   33.3870   47.6660 C   0  0  0  0  0  0  0  0  0  0  0  0
   62.8030   33.8150   46.7980 N   0  0  0  0  0  0  0  0  0  0  0  0
   58.5320   34.1600   44.9940 C   0  0  0  0  0  0  0  0  0  0  0  0
   57.4460   33.3870   44.5710 C   0  0  0  0  0  0  0  0  0  0  0  0
   57.9997   28.6788   44.6464 H   0  0  0  0  0  0  0  0  0  0  0  0
   56.9716   28.2678   43.2319 H   0  0  0  0  0  0  0  0  0  0  0  0
   57.9349   29.7840   43.2319 H   0  0  0  0  0  0  0  0  0  0  0  0
   58.1212   30.5085   46.2859 H   0  0  0  0  0  0  0  0  0  0  0  0
   60.0369   31.8946   47.0666 H   0  0  0  0  0  0  0  0  0  0  0  0
   61.5391   32.0904   51.0767 H   0  0  0  0  0  0  0  0  0  0  0  0
   62.3794   33.6335   51.4824 H   0  0  0  0  0  0  0  0  0  0  0  0
   60.3420   34.5067   51.9152 H   0  0  0  0  0  0  0  0  0  0  0  0
   60.0367   34.4278   50.1364 H   0  0  0  0  0  0  0  0  0  0  0  0
   58.1439   34.0392   52.7350 H   0  0  0  0  0  0  0  0  0  0  0  0
   56.3112   32.3764   53.0656 H   0  0  0  0  0  0  0  0  0  0  0  0
   56.3119   30.2392   51.7790 H   0  0  0  0  0  0  0  0  0  0  0  0
   58.1549   29.7508   50.1657 H   0  0  0  0  0  0  0  0  0  0  0  0
   59.9941   31.4071   49.8297 H   0  0  0  0  0  0  0  0  0  0  0  0
   65.1880   34.5720   50.4290 H   0  0  0  0  0  0  0  0  0  0  0  0
   65.9158   33.1748   52.3562 H   0  0  0  0  0  0  0  0  0  0  0  0
   67.7650   31.2320   51.3404 H   0  0  0  0  0  0  0  0  0  0  0  0
   67.2129   31.3499   49.8908 H   0  0  0  0  0  0  0  0  0  0  0  0
   68.6330   33.6896   51.6216 H   0  0  0  0  0  0  0  0  0  0  0  0
   68.2319   34.2349   50.2214 H   0  0  0  0  0  0  0  0  0  0  0  0
   64.7920   33.2613   47.3242 H   0  0  0  0  0  0  0  0  0  0  0  0
   58.6393   35.1949   44.6371 H   0  0  0  0  0  0  0  0  0  0  0  0
   56.7196   33.8062   43.8593 H   0  0  0  0  0  0  0  0  0  0  0  0
  1  2  1  0
  2  3  2  0
  2  4  1  0
  4  5  1  0
  5  6  2  0
  6  7  1  0
  7  8  2  0
  8  9  1  0
  9 10  2  3
 10 11  1  0
 11 12  2  0
 12 13  1  0
 13 14  1  0
 14 15  1  0
 15 16  2  0
 16 17  1  0
 17 18  2  0
 18 19  1  0
 19 20  2  0
 12 21  1  0
 21 22  1  0
 22 23  2  0
 22 24  1  0
 24 25  1  0
 25 26  1  0
 26 27  1  0
 21 28  2  0
 28 29  1  0
  8 30  1  0
 30 31  2  0
 31  5  1  0
 29 10  1  0
 20 15  1  0
 27 25  1  0
  1 32  1  0
  1 33  1  0
  1 34  1  0
  6 35  1  0
  7 36  1  0
 13 37  1  0
 13 38  1  0
 14 39  1  0
 14 40  1  0
 16 41  1  0
 17 42  1  0
 18 43  1  0
 19 44  1  0
 20 45  1  0
 24 46  1  0
 25 47  1  0
 26 48  1  0
 26 49  1  0
 27 50  1  0
 27 51  1  0
 28 52  1  0
 30 53  1  0
 31 54  1  0
M  CHG  2   4  -1  29  -1
M  END
>  <UniqueID>  (18) 
16

>  <SMILES>  (18) 
CC(=O)[N-]c1ccc(N=c2nc(CCc3ccccc3)c(C(=O)NC3CC3)c[n-]2)cc1

>  <Energy>  (18) 
333.01060142752385

>  <Genealogy>  (18) 
CC(=O)[N-]c1ccc(N=c2nc(CCc3ccccc3)c(C(=O)NC3CC3)c[n-]2)cc1 (protonated)
CC(=O)[N-]c1ccc(N=c2nc(CCc3ccccc3)c(C(=O)NC3CC3)c[n-]2)cc1 (3D coordinates assigned)
CC(=O)[N-]c1ccc(N=c2nc(CCc3ccccc3)c(C(=O)NC3CC3)c[n-]2)cc1 (nonaromatic ring conformer: 333.01060142752385 kcal/mol)

>  <smiles>  (18) 
CC(=O)Nc1ccc(N=c2nc(CCc3ccccc3)c(C(=O)NC3CC3)c[nH]2)cc1

>  <score_type>  (18) 
oracle

>  <origin>  (18) 
adg

>  <m_score__min__energy>  (18) 
-11.43

>  <m_primary>  (18) 
energy

$$$$
18:0
     RDKit          3D

 54 56  0  0  0  0  0  0  0  0999 V2000
   58.9680   28.1220   46.5060 C   0  0  0  0  0  0  0  0  0  0  0  0
   58.1000   28.0290   45.2550 C   0  0  0  0  0  0  0  0  0  0  0  0
   56.6650   27.6260   45.6060 C   0  0  0  0  0  0  0  0  0  0  0  0
   55.7200   28.6160   45.1010 N   0  0  0  0  0  0  0  0  0  0  0  0
   56.0570   29.6100   44.1270 C   0  0  0  0  0  0  0  0  0  0  0  0
   56.3640   29.2680   42.9540 O   0  0  0  0  0  0  0  0  0  0  0  0
   55.9860   31.0030   44.4490 N   0  0  0  0  0  0  0  0  0  0  0  0
   57.0360   31.7980   45.0190 C   0  0  0  0  0  0  0  0  0  0  0  0
   57.3860   32.9970   44.3930 C   0  0  0  0  0  0  0  0  0  0  0  0
   58.4210   33.7880   44.8980 C   0  0  0  0  0  0  0  0  0  0  0  0
   59.1400   33.3890   46.0410 C   0  0  0  0  0  0  0  0  0  0  0  0
   60.2590   34.2000   46.6080 C   0  0  0  0  0  0  0  0  0  0  0  0
   60.3900   35.3950   46.2220 O   0  0  0  0  0  0  0  0  0  0  0  0
   61.2720   33.6810   47.6120 C   0  0  0  0  0  0  0  0  0  0  0  0
   61.3230   34.5390   48.8940 C   0  0  0  0  0  0  0  0  0  0  0  0
   62.2910   33.9180   49.9130 C   0  0  0  0  0  0  0  0  0  0  0  0
   63.5450   33.4850   49.2790 N   0  0  0  0  0  0  0  0  0  0  0  0
   64.4650   32.6530   50.0120 C   0  0  0  0  0  0  0  0  0  0  0  0
   64.0540   31.4110   50.5200 C   0  0  0  0  0  0  0  0  0  0  0  0
   64.9620   30.6180   51.2220 C   0  0  0  0  0  0  0  0  0  0  0  0
   66.2380   31.0440   51.4080 N   0  0  0  0  0  0  0  0  0  0  0  0
   66.6780   32.2390   50.9260 C   0  0  0  0  0  0  0  0  0  0  0  0
   68.0770   32.6410   51.1590 C   0  0  0  0  0  0  0  0  0  0  0  0
   68.8290   32.0270   52.2050 N   0  0  0  0  0  0  0  0  0  0  0  0
   68.6190   33.5270   50.4420 O   0  0  0  0  0  0  0  0  0  0  0  0
   65.7920   33.0640   50.2140 C   0  0  0  0  0  0  0  0  0  0  0  0
   63.8250   33.8610   47.8850 C   0  0  0  0  0  0  0  0  0  0  0  0
   62.6670   33.4300   46.9750 C   0  0  0  0  0  0  0  0  0  0  0  0
   58.8040   32.1610   46.6450 C   0  0  0  0  0  0  0  0  0  0  0  0
   57.7690   31.3710   46.1370 C   0  0  0  0  0  0  0  0  0  0  0  0
   58.3310   28.0537   47.4002 H   0  0  0  0  0  0  0  0  0  0  0  0
   59.6951   27.2966   46.5100 H   0  0  0  0  0  0  0  0  0  0  0  0
   59.5038   29.0827   46.5100 H   0  0  0  0  0  0  0  0  0  0  0  0
   58.0855   29.0085   44.7546 H   0  0  0  0  0  0  0  0  0  0  0  0
   58.5253   27.2613   44.5919 H   0  0  0  0  0  0  0  0  0  0  0  0
   56.4422   26.6485   45.1533 H   0  0  0  0  0  0  0  0  0  0  0  0
   56.5688   27.5670   46.7002 H   0  0  0  0  0  0  0  0  0  0  0  0
   56.8415   33.3213   43.4939 H   0  0  0  0  0  0  0  0  0  0  0  0
   58.6771   34.7332   44.3970 H   0  0  0  0  0  0  0  0  0  0  0  0
   60.9180   32.6911   47.9358 H   0  0  0  0  0  0  0  0  0  0  0  0
   61.6658   35.5526   48.6389 H   0  0  0  0  0  0  0  0  0  0  0  0
   60.3167   34.5817   49.3363 H   0  0  0  0  0  0  0  0  0  0  0  0
   62.5222   34.6654   50.6862 H   0  0  0  0  0  0  0  0  0  0  0  0
   61.8057   33.0336   50.3516 H   0  0  0  0  0  0  0  0  0  0  0  0
   63.0214   31.0647   50.3655 H   0  0  0  0  0  0  0  0  0  0  0  0
   64.6437   29.6455   51.6258 H   0  0  0  0  0  0  0  0  0  0  0  0
   68.4590   31.1950   52.7150 H   0  0  0  0  0  0  0  0  0  0  0  0
   66.1370   34.0296   49.8157 H   0  0  0  0  0  0  0  0  0  0  0  0
   63.9499   34.9520   47.8214 H   0  0  0  0  0  0  0  0  0  0  0  0
   64.7457   33.3568   47.5561 H   0  0  0  0  0  0  0  0  0  0  0  0
   62.7303   33.9964   46.0342 H   0  0  0  0  0  0  0  0  0  0  0  0
   62.7637   32.3471   46.8080 H   0  0  0  0  0  0  0  0  0  0  0  0
   59.3638   31.8196   47.5282 H   0  0  0  0  0  0  0  0  0  0  0  0
   57.5279   30.4104   46.6156 H   0  0  0  0  0  0  0  0  0  0  0  0
  1  2  1  0
  2  3  1  0
  3  4  1  0
  4  5  1  0
  5  6  2  0
  5  7  1  0
  7  8  1  0
  8  9  2  0
  9 10  1  0
 10 11  2  0
 11 12  1  0
 12 13  2  0
 12 14  1  0
 14 15  1  0
 15 16  1  0
 16 17  1  0
 17 18  1  0
 18 19  2  0
 19 20  1  0
 20 21  2  0
 21 22  1  0
 22 23  1  0
 23 24  1  0
 23 25  2  0
 22 26  2  0
 17 27  1  0
 27 28  1  0
 11 29  1  0
 29 30  2  0
 30  8  1  0
 28 14  1  0
 26 18  1  0
  1 31  1  0
  1 32  1  0
  1 33  1  0
  2 34  1  0
  2 35  1  0
  3 36  1  0
  3 37  1  0
  9 38  1  0
 10 39  1  0
 14 40  1  0
 15 41  1  0
 15 42  1  0
 16 43  1  0
 16 44  1  0
 19 45  1  0
 20 46  1  0
 24 47  1  0
 26 48  1  0
 27 49  1  0
 27 50  1  0
 28 51  1  0
 28 52  1  0
 29 53  1  0
 30 54  1  0
M  CHG  3   4  -1   7  -1  24  -1
M  END
>  <UniqueID>  (19) 
17

>  <SMILES>  (19) 
CCC[N-]C(=O)[N-]c1ccc(C(=O)C2CCN(c3ccnc(C([NH-])=O)c3)CC2)cc1

>  <Energy>  (19) 
62.163657601479365

>  <Genealogy>  (19) 
CCC[N-]C(=O)[N-]c1ccc(C(=O)C2CCN(c3ccnc(C([NH-])=O)c3)CC2)cc1 (protonated)
CCC[N-]C(=O)[N-]c1ccc(C(=O)C2CCN(c3ccnc(C([NH-])=O)c3)CC2)cc1 (3D coordinates assigned)
CCC[N-]C(=O)[N-]c1ccc(C(=O)C2CCN(c3ccnc(C([NH-])=O)c3)CC2)cc1 (nonaromatic ring conformer: 62.163657601479365 kcal/mol)

>  <smiles>  (19) 
CCCNC(=O)Nc1ccc(C(=O)C2CCN(c3ccnc(C(N)=O)c3)CC2)cc1

>  <score_type>  (19) 
oracle

>  <origin>  (19) 
adg

>  <m_score__min__energy>  (19) 
-12.050000000000001

>  <m_primary>  (19) 
energy

$$$$
19:0
     RDKit          3D

 51 53  0  0  0  0  0  0  0  0999 V2000
   61.8520   33.9540   49.2450 C   0  0  0  0  0  0  0  0  0  0  0  0
   60.7960   33.7450   48.2050 C   0  0  0  0  0  0  0  0  0  0  0  0
   59.4800   33.4270   48.5790 C   0  0  0  0  0  0  0  0  0  0  0  0
   58.4860   33.2930   47.6030 C   0  0  0  0  0  0  0  0  0  0  0  0
   58.7960   33.4880   46.2450 C   0  0  0  0  0  0  0  0  0  0  0  0
   57.5470   33.3660   45.0060 S   0  0  0  0  0  0  0  0  0  0  0  0
   57.1740   34.7370   44.5080 O   0  0  0  0  0  0  0  0  0  0  0  0
   56.3240   32.7330   45.6110 O   0  0  0  0  0  0  0  0  0  0  0  0
   58.1270   32.3470   43.6460 C   0  0  0  0  0  0  0  0  0  0  0  0
   57.0630   31.3520   43.1510 C   0  0  0  0  0  0  0  0  0  0  0  0
   56.8140   30.2480   44.1370 C   0  0  0  0  0  0  0  0  0  0  0  0
   55.6350   29.9810   44.5020 O   0  0  0  0  0  0  0  0  0  0  0  0
   57.9180   29.4480   44.5860 N   0  0  0  0  0  0  0  0  0  0  0  0
   58.6940   29.6570   45.7760 C   0  0  0  0  0  0  0  0  0  0  0  0
   58.1440   29.2770   47.0090 C   0  0  0  0  0  0  0  0  0  0  0  0
   58.8690   29.4520   48.1920 C   0  0  0  0  0  0  0  0  0  0  0  0
   60.1670   29.9820   48.1500 C   0  0  0  0  0  0  0  0  0  0  0  0
   61.0710   30.1910   49.6470 S   0  0  0  0  0  0  0  0  0  0  0  0
   62.3820   30.8700   49.3620 O   0  0  0  0  0  0  0  0  0  0  0  0
   61.3350   28.8420   50.2550 O   0  0  0  0  0  0  0  0  0  0  0  0
   60.1310   31.1580   50.7380 N   0  0  0  0  0  0  0  0  0  0  0  0
   58.9490   30.8340   51.1650 C   0  0  0  0  0  0  0  0  0  0  0  0
   57.9150   31.6950   51.4910 C   0  0  0  0  0  0  0  0  0  0  0  0
   56.9150   30.8350   51.9100 C   0  0  0  0  0  0  0  0  0  0  0  0
   55.5610   31.2330   52.3850 C   0  0  0  0  0  0  0  0  0  0  0  0
   57.3430   29.5940   51.8230 O   0  0  0  0  0  0  0  0  0  0  0  0
   58.5630   29.5640   51.3740 N   0  0  0  0  0  0  0  0  0  0  0  0
   60.7290   30.3490   46.9180 C   0  0  0  0  0  0  0  0  0  0  0  0
   60.0010   30.1800   45.7350 C   0  0  0  0  0  0  0  0  0  0  0  0
   60.1050   33.8220   45.8730 C   0  0  0  0  0  0  0  0  0  0  0  0
   61.0990   33.9540   46.8470 C   0  0  0  0  0  0  0  0  0  0  0  0
   61.4038   33.8653   50.2456 H   0  0  0  0  0  0  0  0  0  0  0  0
   62.6385   33.1941   49.1268 H   0  0  0  0  0  0  0  0  0  0  0  0
   62.2897   34.9562   49.1268 H   0  0  0  0  0  0  0  0  0  0  0  0
   59.2303   33.2831   49.6406 H   0  0  0  0  0  0  0  0  0  0  0  0
   57.4586   33.0343   47.8990 H   0  0  0  0  0  0  0  0  0  0  0  0
   58.4098   33.0039   42.8103 H   0  0  0  0  0  0  0  0  0  0  0  0
   58.9832   31.7615   44.0123 H   0  0  0  0  0  0  0  0  0  0  0  0
   56.1214   31.8953   42.9828 H   0  0  0  0  0  0  0  0  0  0  0  0
   57.4348   30.8960   42.2216 H   0  0  0  0  0  0  0  0  0  0  0  0
   57.1359   28.8385   47.0457 H   0  0  0  0  0  0  0  0  0  0  0  0
   58.4206   29.1735   49.1571 H   0  0  0  0  0  0  0  0  0  0  0  0
   57.8936   32.7932   51.4316 H   0  0  0  0  0  0  0  0  0  0  0  0
   55.5450   31.2377   53.4849 H   0  0  0  0  0  0  0  0  0  0  0  0
   55.3222   32.2393   52.0105 H   0  0  0  0  0  0  0  0  0  0  0  0
   54.8156   30.5160   52.0105 H   0  0  0  0  0  0  0  0  0  0  0  0
   59.1300   28.7000   51.2280 H   0  0  0  0  0  0  0  0  0  0  0  0
   61.7444   30.7706   46.8819 H   0  0  0  0  0  0  0  0  0  0  0  0
   60.4509   30.4565   44.7701 H   0  0  0  0  0  0  0  0  0  0  0  0
   60.3509   33.9806   44.8126 H   0  0  0  0  0  0  0  0  0  0  0  0
   62.1235   34.2227   46.5502 H   0  0  0  0  0  0  0  0  0  0  0  0
  1  2  1  0
  2  3  2  0
  3  4  1  0
  4  5  2  0
  5  6  1  0
  6  7  2  0
  6  8  2  0
  6  9  1  0
  9 10  1  0
 10 11  1  0
 11 12  2  0
 11 13  1  0
 13 14  1  0
 14 15  2  0
 15 16  1  0
 16 17  2  0
 17 18  1  0
 18 19  2  0
 18 20  2  0
 18 21  1  0
 21 22  2  3
 22 23  1  0
 23 24  2  0
 24 25  1  0
 24 26  1  0
 26 27  1  0
 17 28  1  0
 28 29  2  0
  5 30  1  0
 30 31  2  0
 31  2  1  0
 29 14  1  0
 27 22  1  0
  1 32  1  0
  1 33  1  0
  1 34  1  0
  3 35  1  0
  4 36  1  0
  9 37  1  0
  9 38  1  0
 10 39  1  0
 10 40  1  0
 15 41  1  0
 16 42  1  0
 23 43  1  0
 25 44  1  0
 25 45  1  0
 25 46  1  0
 27 47  1  0
 28 48  1  0
 29 49  1  0
 30 50  1  0
 31 51  1  0
M  CHG  1  13  -1
M  END
>  <UniqueID>  (20) 
18

>  <SMILES>  (20) 
Cc1ccc(S(=O)(=O)CCC(=O)[N-]c2ccc(S(=O)(=O)N=c3cc(C)o[nH]3)cc2)cc1

>  <Energy>  (20) 
86.72494095656207

>  <Genealogy>  (20) 
Cc1ccc(S(=O)(=O)CCC(=O)[N-]c2ccc(S(=O)(=O)N=c3cc(C)o[nH]3)cc2)cc1 (protonated)
Cc1ccc(S(=O)(=O)CCC(=O)[N-]c2ccc(S(=O)(=O)N=c3cc(C)o[nH]3)cc2)cc1 (3D coordinates assigned)
Cc1ccc(S(=O)(=O)CCC(=O)[N-]c2ccc(S(=O)(=O)N=c3cc(C)o[nH]3)cc2)cc1 (optimized conformer: 86.72494095656207 kcal/mol)

>  <smiles>  (20) 
Cc1ccc(S(=O)(=O)CCC(=O)Nc2ccc(S(=O)(=O)N=c3cc(C)o[nH]3)cc2)cc1

>  <score_type>  (20) 
oracle

>  <origin>  (20) 
adg

>  <m_score__min__energy>  (20) 
-11.109999999999999

>  <m_primary>  (20) 
energy

$$$$
20:0
     RDKit          3D

 54 57  0  0  0  0  0  0  0  0999 V2000
   55.2040   25.5230   46.2610 O   0  0  0  0  0  0  0  0  0  0  0  0
   56.1830   26.3080   46.1650 C   0  0  0  0  0  0  0  0  0  0  0  0
   57.4350   25.9220   46.6450 C   0  0  0  0  0  0  0  0  0  0  0  0
   58.5250   26.7950   46.5270 C   0  0  0  0  0  0  0  0  0  0  0  0
   59.8450   26.3600   47.1310 C   0  0  0  0  0  0  0  0  0  0  0  0
   59.8280   26.5370   48.5300 O   0  0  0  0  0  0  0  0  0  0  0  0
   59.9180   27.8730   48.7680 N   0  0  0  0  0  0  0  0  0  0  0  0
   60.7090   28.3850   49.8510 C   0  0  0  0  0  0  0  0  0  0  0  0
   61.4640   27.3440   50.8690 S   0  0  0  0  0  0  0  0  0  0  0  0
   60.8250   29.7980   50.0910 N   0  0  0  0  0  0  0  0  0  0  0  0
   60.4270   30.8270   49.1300 C   0  0  0  0  0  0  0  0  0  0  0  0
   61.5940   31.6960   48.7400 C   0  0  0  0  0  0  0  0  0  0  0  0
   62.2870   31.4580   47.5410 C   0  0  0  0  0  0  0  0  0  0  0  0
   63.3800   32.2540   47.1880 C   0  0  0  0  0  0  0  0  0  0  0  0
   63.8000   33.2840   48.0360 C   0  0  0  0  0  0  0  0  0  0  0  0
   63.1280   33.5150   49.2390 C   0  0  0  0  0  0  0  0  0  0  0  0
   62.0330   32.7220   49.5950 C   0  0  0  0  0  0  0  0  0  0  0  0
   58.3120   28.0650   45.9310 C   0  0  0  0  0  0  0  0  0  0  0  0
   59.3280   29.0300   45.7730 C   0  0  0  0  0  0  0  0  0  0  0  0
   59.0460   30.2680   45.1930 C   0  0  0  0  0  0  0  0  0  0  0  0
   57.7580   30.5760   44.7510 C   0  0  0  0  0  0  0  0  0  0  0  0
   57.5390   31.8380   44.1740 O   0  0  0  0  0  0  0  0  0  0  0  0
   57.0390   32.9850   44.8620 C   0  0  0  0  0  0  0  0  0  0  0  0
   58.0810   33.5510   45.7900 C   0  0  0  0  0  0  0  0  0  0  0  0
   59.0580   34.4400   45.3090 C   0  0  0  0  0  0  0  0  0  0  0  0
   60.0180   34.9670   46.1780 C   0  0  0  0  0  0  0  0  0  0  0  0
   60.0050   34.6200   47.5310 C   0  0  0  0  0  0  0  0  0  0  0  0
   59.0290   33.7470   48.0200 C   0  0  0  0  0  0  0  0  0  0  0  0
   59.0130   33.4160   49.3350 F   0  0  0  0  0  0  0  0  0  0  0  0
   58.0660   33.2170   47.1540 C   0  0  0  0  0  0  0  0  0  0  0  0
   56.7360   29.6230   44.9000 C   0  0  0  0  0  0  0  0  0  0  0  0
   57.0050   28.3790   45.4810 C   0  0  0  0  0  0  0  0  0  0  0  0
   56.0150   27.5010   45.6120 O   0  0  0  0  0  0  0  0  0  0  0  0
   57.5660   24.9359   47.1144 H   0  0  0  0  0  0  0  0  0  0  0  0
   60.0156   25.2977   46.9022 H   0  0  0  0  0  0  0  0  0  0  0  0
   60.6521   26.9733   46.7037 H   0  0  0  0  0  0  0  0  0  0  0  0
   59.3030   28.5120   48.2210 H   0  0  0  0  0  0  0  0  0  0  0  0
   61.3180   30.1150   50.9560 H   0  0  0  0  0  0  0  0  0  0  0  0
   60.0270   30.3394   48.2288 H   0  0  0  0  0  0  0  0  0  0  0  0
   59.6636   31.4637   49.6010 H   0  0  0  0  0  0  0  0  0  0  0  0
   61.9676   30.6412   46.8771 H   0  0  0  0  0  0  0  0  0  0  0  0
   63.9107   32.0703   46.2421 H   0  0  0  0  0  0  0  0  0  0  0  0
   64.6588   33.9117   47.7560 H   0  0  0  0  0  0  0  0  0  0  0  0
   63.4612   34.3225   49.9075 H   0  0  0  0  0  0  0  0  0  0  0  0
   61.5130   32.9015   50.5476 H   0  0  0  0  0  0  0  0  0  0  0  0
   60.3509   28.8054   46.1095 H   0  0  0  0  0  0  0  0  0  0  0  0
   59.8496   31.0110   45.0827 H   0  0  0  0  0  0  0  0  0  0  0  0
   56.7574   33.7523   44.1258 H   0  0  0  0  0  0  0  0  0  0  0  0
   56.1641   32.6844   45.4572 H   0  0  0  0  0  0  0  0  0  0  0  0
   59.0672   34.7218   44.2457 H   0  0  0  0  0  0  0  0  0  0  0  0
   60.7852   35.6563   45.7955 H   0  0  0  0  0  0  0  0  0  0  0  0
   60.7632   35.0340   48.2120 H   0  0  0  0  0  0  0  0  0  0  0  0
   57.2945   32.5363   47.5431 H   0  0  0  0  0  0  0  0  0  0  0  0
   55.7172   29.8568   44.5574 H   0  0  0  0  0  0  0  0  0  0  0  0
  1  2  2  0
  2  3  1  0
  3  4  2  0
  4  5  1  0
  5  6  1  0
  6  7  1  0
  7  8  1  0
  8  9  2  0
  8 10  1  0
 10 11  1  0
 11 12  1  0
 12 13  2  0
 13 14  1  0
 14 15  2  0
 15 16  1  0
 16 17  2  0
  4 18  1  0
 18 19  2  0
 19 20  1  0
 20 21  2  0
 21 22  1  0
 22 23  1  0
 23 24  1  0
 24 25  2  0
 25 26  1  0
 26 27  2  0
 27 28  1  0
 28 29  1  0
 28 30  2  0
 21 31  1  0
 31 32  2  0
 32 33  1  0
 33  2  1  0
 17 12  1  0
 32 18  1  0
 30 24  1  0
  3 34  1  0
  5 35  1  0
  5 36  1  0
  7 37  1  0
 10 38  1  0
 11 39  1  0
 11 40  1  0
 13 41  1  0
 14 42  1  0
 15 43  1  0
 16 44  1  0
 17 45  1  0
 19 46  1  0
 20 47  1  0
 23 48  1  0
 23 49  1  0
 25 50  1  0
 26 51  1  0
 27 52  1  0
 30 53  1  0
 31 54  1  0
M  END
>  <UniqueID>  (21) 
19

>  <SMILES>  (21) 
O=c1cc(CONC(=S)NCc2ccccc2)c2ccc(OCc3cccc(F)c3)cc2o1

>  <Energy>  (21) 
60.21466151433028

>  <Genealogy>  (21) 
O=c1cc(CONC(=S)NCc2ccccc2)c2ccc(OCc3cccc(F)c3)cc2o1 (3D coordinates assigned)
O=c1cc(CONC(=S)NCc2ccccc2)c2ccc(OCc3cccc(F)c3)cc2o1 (optimized conformer: 60.21466151433028 kcal/mol)

>  <smiles>  (21) 
O=c1cc(CONC(=S)NCc2ccccc2)c2ccc(OCc3cccc(F)c3)cc2o1

>  <score_type>  (21) 
oracle

>  <origin>  (21) 
adg

>  <m_score__min__energy>  (21) 
-9.6699999999999999

>  <m_primary>  (21) 
energy

$$$$
21:0
     RDKit          3D

 30 31  0  0  0  0  0  0  0  0999 V2000
   55.0232   30.5854   43.5767 H   0  0  0  0  0  0  0  0  0  0  0  0
   55.9040   30.0730   43.9910 C   0  0  0  0  0  0  0  0  0  0  0  0
   55.7440   29.0550   44.8780 N   0  0  0  0  0  0  0  0  0  0  0  0
   56.8080   28.3880   45.4120 C   0  0  0  0  0  0  0  0  0  0  0  0
   56.6350   27.4210   46.2670 N   0  0  0  0  0  0  0  0  0  0  0  0
   56.2910   26.0650   45.9480 C   0  0  0  0  0  0  0  0  0  0  0  0
   55.0770   25.7280   45.9710 O   0  0  0  0  0  0  0  0  0  0  0  0
   57.3150   25.0400   45.6500 C   0  0  0  0  0  0  0  0  0  0  0  0
   58.6400   25.0050   46.0680 C   0  0  0  0  0  0  0  0  0  0  0  0
   59.3560   26.0260   46.8930 C   0  0  0  0  0  0  0  0  0  0  0  0
   59.2030   25.8079   47.9603 H   0  0  0  0  0  0  0  0  0  0  0  0
   60.4312   25.9949   46.6628 H   0  0  0  0  0  0  0  0  0  0  0  0
   58.9605   27.0263   46.6628 H   0  0  0  0  0  0  0  0  0  0  0  0
   59.2240   23.8730   45.6270 N   0  0  0  0  0  0  0  0  0  0  0  0
   58.3110   23.1810   44.9620 N   0  0  0  0  0  0  0  0  0  0  0  0
   58.5800   21.8890   44.3420 C   0  0  0  0  0  0  0  0  0  0  0  0
   58.7375   21.1324   45.1248 H   0  0  0  0  0  0  0  0  0  0  0  0
   57.7234   21.5969   43.7168 H   0  0  0  0  0  0  0  0  0  0  0  0
   59.4820   21.9630   43.7168 H   0  0  0  0  0  0  0  0  0  0  0  0
   57.1430   23.8590   44.9490 C   0  0  0  0  0  0  0  0  0  0  0  0
   55.8680   23.3670   44.3260 C   0  0  0  0  0  0  0  0  0  0  0  0
   55.1554   23.0920   45.1176 H   0  0  0  0  0  0  0  0  0  0  0  0
   55.4341   24.1622   43.7021 H   0  0  0  0  0  0  0  0  0  0  0  0
   56.0807   22.4864   43.7021 H   0  0  0  0  0  0  0  0  0  0  0  0
   58.1080   28.7670   45.0570 C   0  0  0  0  0  0  0  0  0  0  0  0
   58.9751   28.2480   45.4915 H   0  0  0  0  0  0  0  0  0  0  0  0
   58.2950   29.8090   44.1470 C   0  0  0  0  0  0  0  0  0  0  0  0
   59.3121   30.1108   43.8563 H   0  0  0  0  0  0  0  0  0  0  0  0
   57.1880   30.4680   43.6060 C   0  0  0  0  0  0  0  0  0  0  0  0
   57.4060   31.7780   42.4610 Cl  0  0  0  0  0  0  0  0  0  0  0  0
  1  2  1  0
  2  3  1  0
  3  4  1  0
  4  5  2  0
  5  6  1  0
  6  7  2  0
  6  8  1  0
  8  9  1  0
  9 10  1  0
 10 11  1  0
 10 12  1  0
 10 13  1  0
  9 14  2  0
 14 15  1  0
 15 16  1  0
 16 17  1  0
 16 18  1  0
 16 19  1  0
 15 20  1  0
 20 21  1  0
 21 22  1  0
 21 23  1  0
 21 24  1  0
  4 25  1  0
 25 26  1  0
 25 27  2  0
 27 28  1  0
 27 29  1  0
 29 30  1  0
 29  2  2  0
 20  8  2  0
M  CHG  1   3  -1
M  END
>  <UniqueID>  (22) 
20

>  <SMILES>  (22) 
Cc1nn(C)c(C)c1C(=O)/N=c1/ccc(Cl)c[n-]1

>  <Energy>  (22) 
66.42060089429988

>  <Genealogy>  (22) 
Cc1nn(C)c(C)c1C(=O)N=c1ccc(Cl)c[n-]1 (protonated)
Cc1nn(C)c(C)c1C(=O)/N=c1/ccc(Cl)c[n-]1 (cis-trans isomerization)
Cc1nn(C)c(C)c1C(=O)/N=c1/ccc(Cl)c[n-]1 (3D coordinates assigned)
Cc1nn(C)c(C)c1C(=O)/N=c1/ccc(Cl)c[n-]1 (optimized conformer: 66.42060089429988 kcal/mol)

>  <smiles>  (22) 
Cc1nn(C)c(C)c1C(=O)N=c1ccc(Cl)c[nH]1

>  <score_type>  (22) 
oracle

>  <origin>  (22) 
adg

>  <m_score__min__energy>  (22) 
-8.7200000000000006

>  <m_primary>  (22) 
energy

$$$$
22:0
     RDKit          3D

 42 43  0  0  0  0  0  0  0  0999 V2000
   57.9650   31.0140   53.6280 O   0  0  0  0  0  0  0  0  0  0  0  0
   57.3960   30.7510   52.5330 C   0  0  0  0  0  0  0  0  0  0  0  0
   57.1980   31.8390   51.5210 C   0  0  0  0  0  0  0  0  0  0  0  0
   58.5010   32.4980   51.1410 C   0  0  0  0  0  0  0  0  0  0  0  0
   59.4720   32.7620   52.1210 C   0  0  0  0  0  0  0  0  0  0  0  0
   60.7040   33.3320   51.7650 C   0  0  0  0  0  0  0  0  0  0  0  0
   61.6650   33.5970   52.7380 O   0  0  0  0  0  0  0  0  0  0  0  0
   60.9680   33.6400   50.4240 C   0  0  0  0  0  0  0  0  0  0  0  0
   62.1870   34.2080   50.0740 O   0  0  0  0  0  0  0  0  0  0  0  0
   60.0040   33.3780   49.4420 C   0  0  0  0  0  0  0  0  0  0  0  0
   60.3420   33.8020   47.6080 Br  0  0  0  0  0  0  0  0  0  0  0  0
   58.7820   32.7980   49.7980 C   0  0  0  0  0  0  0  0  0  0  0  0
   56.9150   29.4300   52.2710 N   0  0  0  0  0  0  0  0  0  0  0  0
   56.3670   28.5740   53.3170 C   0  0  0  0  0  0  0  0  0  0  0  0
   54.8620   28.4000   53.1310 C   0  0  0  0  0  0  0  0  0  0  0  0
   53.9290   29.4050   54.2820 S   0  0  0  0  0  0  0  0  0  0  0  0
   54.6750   29.4860   55.5850 O   0  0  0  0  0  0  0  0  0  0  0  0
   52.5990   28.7540   54.5310 O   0  0  0  0  0  0  0  0  0  0  0  0
   53.6570   31.0020   53.6440 N   0  0  0  0  0  0  0  0  0  0  0  0
   52.2380   31.2260   53.3590 C   0  0  0  0  0  0  0  0  0  0  0  0
   51.9360   30.9880   51.9030 C   0  0  0  0  0  0  0  0  0  0  0  0
   52.2320   29.7450   51.3190 C   0  0  0  0  0  0  0  0  0  0  0  0
   51.9490   29.5110   49.9710 C   0  0  0  0  0  0  0  0  0  0  0  0
   51.3620   30.5120   49.1920 C   0  0  0  0  0  0  0  0  0  0  0  0
   51.0850   30.2720   47.8520 O   0  0  0  0  0  0  0  0  0  0  0  0
   51.0560   31.7540   49.7640 C   0  0  0  0  0  0  0  0  0  0  0  0
   50.4700   32.7480   48.9890 O   0  0  0  0  0  0  0  0  0  0  0  0
   51.3380   31.9930   51.1150 C   0  0  0  0  0  0  0  0  0  0  0  0
   51.0250   33.2290   51.6710 O   0  0  0  0  0  0  0  0  0  0  0  0
   56.7418   31.4064   50.6184 H   0  0  0  0  0  0  0  0  0  0  0  0
   56.5461   32.6047   51.9668 H   0  0  0  0  0  0  0  0  0  0  0  0
   59.2655   32.5205   53.1741 H   0  0  0  0  0  0  0  0  0  0  0  0
   62.5670   33.9890   52.4980 H   0  0  0  0  0  0  0  0  0  0  0  0
   58.0360   32.5753   49.0209 H   0  0  0  0  0  0  0  0  0  0  0  0
   56.8539   27.5887   53.2706 H   0  0  0  0  0  0  0  0  0  0  0  0
   56.5530   29.0430   54.2945 H   0  0  0  0  0  0  0  0  0  0  0  0
   54.5940   28.6921   52.1049 H   0  0  0  0  0  0  0  0  0  0  0  0
   54.6140   27.3450   53.3194 H   0  0  0  0  0  0  0  0  0  0  0  0
   51.6354   30.5367   53.9687 H   0  0  0  0  0  0  0  0  0  0  0  0
   51.9923   32.2704   53.6018 H   0  0  0  0  0  0  0  0  0  0  0  0
   52.6896   28.9507   51.9271 H   0  0  0  0  0  0  0  0  0  0  0  0
   52.1889   28.5361   49.5215 H   0  0  0  0  0  0  0  0  0  0  0  0
  1  2  2  0
  2  3  1  0
  3  4  1  0
  4  5  2  0
  5  6  1  0
  6  7  1  0
  6  8  2  0
  8  9  1  0
  8 10  1  0
 10 11  1  0
 10 12  2  0
  2 13  1  0
 13 14  1  0
 14 15  1  0
 15 16  1  0
 16 17  2  0
 16 18  2  0
 16 19  1  0
 19 20  1  0
 20 21  1  0
 21 22  2  0
 22 23  1  0
 23 24  2  0
 24 25  1  0
 24 26  1  0
 26 27  1  0
 26 28  2  0
 28 29  1  0
 12  4  1  0
 28 21  1  0
  3 30  1  0
  3 31  1  0
  5 32  1  0
  7 33  1  0
 12 34  1  0
 14 35  1  0
 14 36  1  0
 15 37  1  0
 15 38  1  0
 20 39  1  0
 20 40  1  0
 22 41  1  0
 23 42  1  0
M  CHG  6   9  -1  13  -1  19  -1  25  -1  27  -1  29  -1
M  END
>  <UniqueID>  (23) 
21

>  <SMILES>  (23) 
O=C(Cc1cc(O)c([O-])c(Br)c1)[N-]CCS(=O)(=O)[N-]Cc1ccc([O-])c([O-])c1[O-]

>  <Energy>  (23) 
29.690081206742008

>  <Genealogy>  (23) 
O=C(Cc1cc(O)c([O-])c(Br)c1)[N-]CCS(=O)(=O)[N-]Cc1ccc([O-])c([O-])c1[O-] (protonated)
O=C(Cc1cc(O)c([O-])c(Br)c1)[N-]CCS(=O)(=O)[N-]Cc1ccc([O-])c([O-])c1[O-] (3D coordinates assigned)
O=C(Cc1cc(O)c([O-])c(Br)c1)[N-]CCS(=O)(=O)[N-]Cc1ccc([O-])c([O-])c1[O-] (optimized conformer: 29.690081206742008 kcal/mol)

>  <smiles>  (23) 
O=C(Cc1cc(O)c(O)c(Br)c1)NCCS(=O)(=O)NCc1ccc(O)c(O)c1O

>  <score_type>  (23) 
oracle

>  <origin>  (23) 
adg

>  <m_score__min__energy>  (23) 
-21.780000000000001

>  <m_primary>  (23) 
energy

$$$$
23:0
     RDKit          3D

 47 49  0  0  0  0  0  0  0  0999 V2000
   55.5441   21.2879   44.9821 H   0  0  0  0  0  0  0  0  0  0  0  0
   55.3160   22.3380   45.2170 C   0  0  0  0  0  0  0  0  0  0  0  0
   56.2570   23.2990   45.0180 N   0  0  0  0  0  0  0  0  0  0  0  0
   56.0350   24.6140   45.2890 C   0  0  0  0  0  0  0  0  0  0  0  0
   57.0140   25.4500   45.0720 N   0  0  0  0  0  0  0  0  0  0  0  0
   58.3230   25.4840   45.6600 C   0  0  0  0  0  0  0  0  0  0  0  0
   59.0410   24.4460   45.6490 O   0  0  0  0  0  0  0  0  0  0  0  0
   58.8750   26.7600   46.1740 C   0  0  0  0  0  0  0  0  0  0  0  0
   59.4290   26.8280   47.4600 C   0  0  0  0  0  0  0  0  0  0  0  0
   59.4594   25.9263   48.0893 H   0  0  0  0  0  0  0  0  0  0  0  0
   59.9420   28.0300   47.9480 C   0  0  0  0  0  0  0  0  0  0  0  0
   60.3748   28.0638   48.9587 H   0  0  0  0  0  0  0  0  0  0  0  0
   59.9140   29.1990   47.1670 C   0  0  0  0  0  0  0  0  0  0  0  0
   60.4670   30.4550   47.7370 C   0  0  0  0  0  0  0  0  0  0  0  0
   60.1760   30.8260   48.9050 O   0  0  0  0  0  0  0  0  0  0  0  0
   61.3240   31.2490   46.9820 O   0  0  0  0  0  0  0  0  0  0  0  0
   59.3580   29.1440   45.8650 C   0  0  0  0  0  0  0  0  0  0  0  0
   59.3310   30.3130   45.0810 O   0  0  0  0  0  0  0  0  0  0  0  0
   58.3880   30.6280   44.0550 C   0  0  0  0  0  0  0  0  0  0  0  0
   58.2049   29.7296   43.4473 H   0  0  0  0  0  0  0  0  0  0  0  0
   58.8033   31.4363   43.4351 H   0  0  0  0  0  0  0  0  0  0  0  0
   57.0900   31.0960   44.6400 C   0  0  0  0  0  0  0  0  0  0  0  0
   56.1100   30.3050   44.6770 O   0  0  0  0  0  0  0  0  0  0  0  0
   57.0020   32.3940   45.2410 N   0  0  0  0  0  0  0  0  0  0  0  0
   57.9760   33.0170   46.0910 C   0  0  0  0  0  0  0  0  0  0  0  0
   58.8920   33.9060   45.5190 C   0  0  0  0  0  0  0  0  0  0  0  0
   58.8619   34.0994   44.4365 H   0  0  0  0  0  0  0  0  0  0  0  0
   59.8460   34.5510   46.3130 C   0  0  0  0  0  0  0  0  0  0  0  0
   60.5677   35.2406   45.8509 H   0  0  0  0  0  0  0  0  0  0  0  0
   59.8860   34.3210   47.7010 C   0  0  0  0  0  0  0  0  0  0  0  0
   60.8250   34.9390   48.5400 O   0  0  0  0  0  0  0  0  0  0  0  0
   61.8250   34.2420   49.2770 C   0  0  0  0  0  0  0  0  0  0  0  0
   61.6422   34.3694   50.3542 H   0  0  0  0  0  0  0  0  0  0  0  0
   61.7890   33.1723   49.0230 H   0  0  0  0  0  0  0  0  0  0  0  0
   62.8161   34.6460   49.0230 H   0  0  0  0  0  0  0  0  0  0  0  0
   58.9540   33.4490   48.2740 C   0  0  0  0  0  0  0  0  0  0  0  0
   58.9718   33.2684   49.3589 H   0  0  0  0  0  0  0  0  0  0  0  0
   58.0000   32.8050   47.4800 C   0  0  0  0  0  0  0  0  0  0  0  0
   57.2658   32.1301   47.9442 H   0  0  0  0  0  0  0  0  0  0  0  0
   58.8530   27.9190   45.3820 C   0  0  0  0  0  0  0  0  0  0  0  0
   58.4342   27.8707   44.3660 H   0  0  0  0  0  0  0  0  0  0  0  0
   54.7510   25.0050   45.7520 C   0  0  0  0  0  0  0  0  0  0  0  0
   54.3950   26.3360   45.9360 O   0  0  0  0  0  0  0  0  0  0  0  0
   53.7820   24.0220   45.9810 C   0  0  0  0  0  0  0  0  0  0  0  0
   52.7935   24.3074   46.3702 H   0  0  0  0  0  0  0  0  0  0  0  0
   54.0640   22.6830   45.7180 C   0  0  0  0  0  0  0  0  0  0  0  0
   53.3061   21.9077   45.9041 H   0  0  0  0  0  0  0  0  0  0  0  0
  1  2  1  0
  2  3  1  0
  3  4  1  0
  4  5  2  0
  5  6  1  0
  6  7  2  0
  6  8  1  0
  8  9  2  0
  9 10  1  0
  9 11  1  0
 11 12  1  0
 11 13  2  0
 13 14  1  0
 14 15  2  0
 14 16  1  0
 13 17  1  0
 17 18  1  0
 18 19  1  0
 19 20  1  0
 19 21  1  0
 19 22  1  0
 22 23  2  0
 22 24  1  0
 24 25  1  0
 25 26  2  0
 26 27  1  0
 26 28  1  0
 28 29  1  0
 28 30  2  0
 30 31  1  0
 31 32  1  0
 32 33  1  0
 32 34  1  0
 32 35  1  0
 30 36  1  0
 36 37  1  0
 36 38  2  0
 38 39  1  0
 17 40  2  0
 40 41  1  0
  4 42  1  0
 42 43  1  0
 42 44  2  0
 44 45  1  0
 44 46  1  0
 46 47  1  0
 46  2  2  0
 40  8  1  0
 38 25  1  0
M  CHG  4   3  -1  16  -1  24  -1  43  -1
M  END
>  <UniqueID>  (24) 
22

>  <SMILES>  (24) 
COc1ccc([N-]C(=O)COc2cc(C(=O)/N=c3/[n-]cccc3[O-])ccc2C(=O)[O-])cc1

>  <Energy>  (24) 
68.68806252369764

>  <Genealogy>  (24) 
COc1ccc([N-]C(=O)COc2cc(C(=O)N=c3[n-]cccc3[O-])ccc2C(=O)[O-])cc1 (protonated)
COc1ccc([N-]C(=O)COc2cc(C(=O)/N=c3/[n-]cccc3[O-])ccc2C(=O)[O-])cc1 (cis-trans isomerization)
COc1ccc([N-]C(=O)COc2cc(C(=O)/N=c3/[n-]cccc3[O-])ccc2C(=O)[O-])cc1 (3D coordinates assigned)
COc1ccc([N-]C(=O)COc2cc(C(=O)/N=c3/[n-]cccc3[O-])ccc2C(=O)[O-])cc1 (optimized conformer: 68.68806252369764 kcal/mol)

>  <smiles>  (24) 
COc1ccc(NC(=O)COc2cc(C(=O)N=c3[nH]cccc3O)ccc2C(=O)O)cc1

>  <score_type>  (24) 
oracle

>  <origin>  (24) 
adg

>  <m_score__min__energy>  (24) 
-14.550000000000001

>  <m_primary>  (24) 
energy

$$$$
24:0
     RDKit          3D

 34 34  0  0  0  0  0  0  0  0999 V2000
   55.1280   26.4560   46.0040 N   0  0  0  0  0  0  0  0  0  0  0  0
   56.7820   26.9550   45.9270 S   0  0  0  0  0  0  0  0  0  0  0  0
   57.4860   26.1940   44.8390 O   0  0  0  0  0  0  0  0  0  0  0  0
   57.4450   26.6570   47.2410 O   0  0  0  0  0  0  0  0  0  0  0  0
   56.8710   28.6650   45.6230 N   0  0  0  0  0  0  0  0  0  0  0  0
   57.0340   28.9360   44.1940 C   0  0  0  0  0  0  0  0  0  0  0  0
   56.5150   30.2980   43.8570 C   0  0  0  0  0  0  0  0  0  0  0  0
   55.4820   30.7360   44.4300 O   0  0  0  0  0  0  0  0  0  0  0  0
   57.1860   31.0850   42.8680 N   0  0  0  0  0  0  0  0  0  0  0  0
   57.8320   32.3580   43.1640 C   0  0  0  0  0  0  0  0  0  0  0  0
   58.0430   32.4870   44.6470 C   0  0  0  0  0  0  0  0  0  0  0  0
   57.3220   33.4450   45.3770 C   0  0  0  0  0  0  0  0  0  0  0  0
   57.4520   33.5210   46.7660 C   0  0  0  0  0  0  0  0  0  0  0  0
   58.2960   32.6270   47.4490 C   0  0  0  0  0  0  0  0  0  0  0  0
   58.4490   32.6910   48.8770 N   0  0  0  0  0  0  0  0  0  0  0  0
   59.4470   33.4740   49.5530 C   0  0  0  0  0  0  0  0  0  0  0  0
   59.9180   33.0470   50.8330 N   0  0  0  0  0  0  0  0  0  0  0  0
   59.8690   34.5960   49.0510 N   0  0  0  0  0  0  0  0  0  0  0  0
   59.0380   31.6900   46.7160 C   0  0  0  0  0  0  0  0  0  0  0  0
   58.9050   31.6120   45.3270 C   0  0  0  0  0  0  0  0  0  0  0  0
   54.6580   27.0620   46.7120 H   0  0  0  0  0  0  0  0  0  0  0  0
   58.1015   28.8809   43.9345 H   0  0  0  0  0  0  0  0  0  0  0  0
   56.4659   28.1871   43.6226 H   0  0  0  0  0  0  0  0  0  0  0  0
   58.8041   32.4026   42.6512 H   0  0  0  0  0  0  0  0  0  0  0  0
   57.1916   33.1812   42.8144 H   0  0  0  0  0  0  0  0  0  0  0  0
   56.6504   34.1403   44.8521 H   0  0  0  0  0  0  0  0  0  0  0  0
   56.8920   34.2831   47.3277 H   0  0  0  0  0  0  0  0  0  0  0  0
   57.7950   32.1270   49.4660 H   0  0  0  0  0  0  0  0  0  0  0  0
   60.6210   33.6080   51.3630 H   0  0  0  0  0  0  0  0  0  0  0  0
   59.5680   32.1570   51.2520 H   0  0  0  0  0  0  0  0  0  0  0  0
   60.6910   34.6330   48.4070 H   0  0  0  0  0  0  0  0  0  0  0  0
   59.3720   35.4920   49.2540 H   0  0  0  0  0  0  0  0  0  0  0  0
   59.7294   31.0118   47.2376 H   0  0  0  0  0  0  0  0  0  0  0  0
   59.4786   30.8612   44.7637 H   0  0  0  0  0  0  0  0  0  0  0  0
  1  2  1  0
  2  3  2  0
  2  4  2  0
  2  5  1  0
  5  6  1  0
  6  7  1  0
  7  8  2  0
  7  9  1  0
  9 10  1  0
 10 11  1  0
 11 12  2  0
 12 13  1  0
 13 14  2  0
 14 15  1  0
 15 16  1  0
 16 17  1  0
 16 18  2  0
 14 19  1  0
 19 20  2  0
 20 11  1  0
  1 21  1  0
  6 22  1  0
  6 23  1  0
 10 24  1  0
 10 25  1  0
 12 26  1  0
 13 27  1  0
 15 28  1  0
 17 29  1  0
 17 30  1  0
 18 31  1  0
 18 32  1  0
 19 33  1  0
 20 34  1  0
M  CHG  4   1  -1   5  -1   9  -1  18   1
M  END
>  <UniqueID>  (25) 
23

>  <SMILES>  (25) 
[NH-]S(=O)(=O)[N-]CC(=O)[N-]Cc1ccc(NC(N)=[NH2+])cc1

>  <Energy>  (25) 
26.33355336823598

>  <Genealogy>  (25) 
[NH-]S(=O)(=O)[N-]CC(=O)[N-]Cc1ccc(NC(N)=[NH2+])cc1 (protonated)
[NH-]S(=O)(=O)[N-]CC(=O)[N-]Cc1ccc(NC(N)=[NH2+])cc1 (3D coordinates assigned)
[NH-]S(=O)(=O)[N-]CC(=O)[N-]Cc1ccc(NC(N)=[NH2+])cc1 (optimized conformer: 26.33355336823598 kcal/mol)

>  <smiles>  (25) 
N=C(N)Nc1ccc(CNC(=O)CNS(N)(=O)=O)cc1

>  <score_type>  (25) 
oracle

>  <origin>  (25) 
adg

>  <m_score__min__energy>  (25) 
-11.74

>  <m_primary>  (25) 
energy

$$$$
25:0
     RDKit          3D

 59 63  0  0  0  0  0  0  0  0999 V2000
   62.2240   32.9640   46.7570 C   0  0  0  0  0  0  0  0  0  0  0  0
   62.1270   31.6280   47.2380 O   0  0  0  0  0  0  0  0  0  0  0  0
   61.0020   30.8260   47.0200 C   0  0  0  0  0  0  0  0  0  0  0  0
   59.9770   31.2690   46.2540 N   0  0  0  0  0  0  0  0  0  0  0  0
   58.8690   30.5160   46.0220 C   0  0  0  0  0  0  0  0  0  0  0  0
   58.7790   29.2210   46.5840 C   0  0  0  0  0  0  0  0  0  0  0  0
   59.8680   28.7690   47.3890 C   0  0  0  0  0  0  0  0  0  0  0  0
   59.8950   27.4160   48.0780 C   0  0  0  0  0  0  0  0  0  0  0  0
   60.6770   27.4360   49.3720 C   0  0  0  0  0  0  0  0  0  0  0  0
   61.1260   26.3550   49.8390 O   0  0  0  0  0  0  0  0  0  0  0  0
   60.9300   28.6450   50.1040 N   0  0  0  0  0  0  0  0  0  0  0  0
   60.0710   29.3790   50.7540 C   0  0  0  0  0  0  0  0  0  0  0  0
   60.1150   29.6190   52.0860 N   0  0  0  0  0  0  0  0  0  0  0  0
   59.1310   30.4770   52.4630 C   0  0  0  0  0  0  0  0  0  0  0  0
   58.3320   30.9330   51.4310 C   0  0  0  0  0  0  0  0  0  0  0  0
   58.8300   30.2250   49.9900 S   0  0  0  0  0  0  0  0  0  0  0  0
   57.2550   31.9480   51.6130 C   0  0  0  0  0  0  0  0  0  0  0  0
   57.5090   32.7720   52.8130 N   0  0  0  0  0  0  0  0  0  0  0  0
   58.3260   33.9900   52.5970 C   0  0  0  0  0  0  0  0  0  0  0  0
   59.6130   33.7450   51.8390 C   0  0  0  0  0  0  0  0  0  0  0  0
   60.8000   33.4440   52.5270 C   0  0  0  0  0  0  0  0  0  0  0  0
   62.0060   33.3090   51.8320 C   0  0  0  0  0  0  0  0  0  0  0  0
   62.0310   33.4380   50.4380 C   0  0  0  0  0  0  0  0  0  0  0  0
   63.2820   33.3570   49.7300 C   0  0  0  0  0  0  0  0  0  0  0  0
   64.2840   33.2850   49.1570 N   0  0  0  0  0  0  0  0  0  0  0  0
   60.8410   33.6700   49.7390 C   0  0  0  0  0  0  0  0  0  0  0  0
   59.6370   33.8110   50.4350 C   0  0  0  0  0  0  0  0  0  0  0  0
   57.8180   31.9860   54.0340 C   0  0  0  0  0  0  0  0  0  0  0  0
   58.9770   30.9690   53.8700 C   0  0  0  0  0  0  0  0  0  0  0  0
   60.9380   29.5950   47.5840 N   0  0  0  0  0  0  0  0  0  0  0  0
   57.6130   28.4700   46.3010 C   0  0  0  0  0  0  0  0  0  0  0  0
   57.4450   27.3150   46.7730 O   0  0  0  0  0  0  0  0  0  0  0  0
   56.6440   28.9940   45.4990 N   0  0  0  0  0  0  0  0  0  0  0  0
   55.5210   28.2430   45.2190 O   0  0  0  0  0  0  0  0  0  0  0  0
   56.7600   30.2390   44.9660 C   0  0  0  0  0  0  0  0  0  0  0  0
   55.8460   30.6680   44.2060 O   0  0  0  0  0  0  0  0  0  0  0  0
   57.8540   31.0150   45.2470 N   0  0  0  0  0  0  0  0  0  0  0  0
   57.9760   32.3660   44.6670 C   0  0  0  0  0  0  0  0  0  0  0  0
   62.2744   33.6578   47.6092 H   0  0  0  0  0  0  0  0  0  0  0  0
   63.1321   33.0684   46.1450 H   0  0  0  0  0  0  0  0  0  0  0  0
   61.3405   33.1984   46.1450 H   0  0  0  0  0  0  0  0  0  0  0  0
   58.8608   27.1115   48.2964 H   0  0  0  0  0  0  0  0  0  0  0  0
   60.3928   26.7074   47.3997 H   0  0  0  0  0  0  0  0  0  0  0  0
   57.2208   32.6004   50.7280 H   0  0  0  0  0  0  0  0  0  0  0  0
   56.2954   31.4255   51.7403 H   0  0  0  0  0  0  0  0  0  0  0  0
   57.7232   34.7140   52.0291 H   0  0  0  0  0  0  0  0  0  0  0  0
   58.6103   34.3617   53.5925 H   0  0  0  0  0  0  0  0  0  0  0  0
   60.7809   33.3137   53.6191 H   0  0  0  0  0  0  0  0  0  0  0  0
   62.9362   33.1012   52.3812 H   0  0  0  0  0  0  0  0  0  0  0  0
   60.8531   33.7414   48.6414 H   0  0  0  0  0  0  0  0  0  0  0  0
   58.7015   33.9748   49.8800 H   0  0  0  0  0  0  0  0  0  0  0  0
   58.0891   32.6891   54.8353 H   0  0  0  0  0  0  0  0  0  0  0  0
   56.9170   31.3980   54.2630 H   0  0  0  0  0  0  0  0  0  0  0  0
   59.9153   31.4548   54.1759 H   0  0  0  0  0  0  0  0  0  0  0  0
   58.7410   30.0978   54.4987 H   0  0  0  0  0  0  0  0  0  0  0  0
   61.7410   29.2860   48.1770 H   0  0  0  0  0  0  0  0  0  0  0  0
   58.0430   33.1078   45.4764 H   0  0  0  0  0  0  0  0  0  0  0  0
   58.8825   32.4180   44.0461 H   0  0  0  0  0  0  0  0  0  0  0  0
   57.0935   32.5795   44.0461 H   0  0  0  0  0  0  0  0  0  0  0  0
  1  2  1  0
  2  3  1  0
  3  4  2  0
  4  5  1  0
  5  6  2  0
  6  7  1  0
  7  8  1  0
  8  9  1  0
  9 10  2  0
  9 11  1  0
 11 12  2  3
 12 13  1  0
 13 14  1  0
 14 15  2  0
 15 16  1  0
 15 17  1  0
 17 18  1  0
 18 19  1  0
 19 20  1  0
 20 21  2  0
 21 22  1  0
 22 23  2  0
 23 24  1  0
 24 25  3  0
 23 26  1  0
 26 27  2  0
 18 28  1  0
 28 29  1  0
  7 30  2  0
  6 31  1  0
 31 32  2  0
 31 33  1  0
 33 34  1  0
 33 35  1  0
 35 36  2  0
 35 37  1  0
 37 38  1  0
 30  3  1  0
 37  5  1  0
 16 12  1  0
 27 20  1  0
 29 14  1  0
  1 39  1  0
  1 40  1  0
  1 41  1  0
  8 42  1  0
  8 43  1  0
 17 44  1  0
 17 45  1  0
 19 46  1  0
 19 47  1  0
 21 48  1  0
 22 49  1  0
 26 50  1  0
 27 51  1  0
 28 52  1  0
 28 53  1  0
 29 54  1  0
 29 55  1  0
 30 56  1  0
 38 57  1  0
 38 58  1  0
 38 59  1  0
M  CHG  3  13  -1  30   1  34  -1
M  END
>  <UniqueID>  (26) 
24

>  <SMILES>  (26) 
COc1nc2c(c(CC(=O)N=c3[n-]c4c(s3)CN(Cc3ccc(C#N)cc3)CC4)[nH+]1)c(=O)n([O-])c(=O)n2C

>  <Energy>  (26) 
118.9174456938136

>  <Genealogy>  (26) 
COc1nc2c(c(CC(=O)N=c3[n-]c4c(s3)CN(Cc3ccc(C#N)cc3)CC4)[nH+]1)c(=O)n([O-])c(=O)n2C (protonated)
COc1nc2c(c(CC(=O)N=c3[n-]c4c(s3)CN(Cc3ccc(C#N)cc3)CC4)[nH+]1)c(=O)n([O-])c(=O)n2C (3D coordinates assigned)
COc1nc2c(c(CC(=O)N=c3[n-]c4c(s3)CN(Cc3ccc(C#N)cc3)CC4)[nH+]1)c(=O)n([O-])c(=O)n2C (nonaromatic ring conformer: 118.9174456938136 kcal/mol)

>  <smiles>  (26) 
COc1nc(CC(=O)N=c2[nH]c3c(s2)CN(Cc2ccc(C#N)cc2)CC3)c2c(=O)n(O)c(=O)n(C)c2n1

>  <score_type>  (26) 
oracle

>  <origin>  (26) 
adg

>  <m_score__min__energy>  (26) 
-12.109999999999999

>  <m_primary>  (26) 
energy

$$$$
26:0
     RDKit          3D

 66 69  0  0  0  0  0  0  0  0999 V2000
   57.9545   29.3684   43.4957 H   0  0  0  0  0  0  0  0  0  0  0  0
   57.4890   29.6420   44.4540 C   0  0  0  0  0  0  0  0  0  0  0  0
   56.6420   28.7650   45.0140 C   0  0  0  0  0  0  0  0  0  0  0  0
   55.5694   29.0079   45.0374 H   0  0  0  0  0  0  0  0  0  0  0  0
   57.0930   27.4850   45.6010 C   0  0  0  0  0  0  0  0  0  0  0  0
   58.4720   27.2730   45.7600 C   0  0  0  0  0  0  0  0  0  0  0  0
   59.1836   28.0461   45.4344 H   0  0  0  0  0  0  0  0  0  0  0  0
   58.9480   26.0890   46.3280 C   0  0  0  0  0  0  0  0  0  0  0  0
   60.0307   25.9287   46.4378 H   0  0  0  0  0  0  0  0  0  0  0  0
   58.0520   25.1100   46.7560 C   0  0  0  0  0  0  0  0  0  0  0  0
   58.4287   24.1754   47.1972 H   0  0  0  0  0  0  0  0  0  0  0  0
   56.6770   25.3150   46.6250 C   0  0  0  0  0  0  0  0  0  0  0  0
   55.9730   24.5412   46.9649 H   0  0  0  0  0  0  0  0  0  0  0  0
   56.1910   26.5010   46.0630 C   0  0  0  0  0  0  0  0  0  0  0  0
   54.8150   26.6990   46.0030 O   0  0  0  0  0  0  0  0  0  0  0  0
   57.8380   30.9590   45.0460 C   0  0  0  0  0  0  0  0  0  0  0  0
   57.6080   32.1160   44.2840 C   0  0  0  0  0  0  0  0  0  0  0  0
   57.1847   32.0252   43.2728 H   0  0  0  0  0  0  0  0  0  0  0  0
   57.9100   33.3800   44.7940 C   0  0  0  0  0  0  0  0  0  0  0  0
   57.7164   34.2752   44.1848 H   0  0  0  0  0  0  0  0  0  0  0  0
   58.4600   33.5170   46.0810 C   0  0  0  0  0  0  0  0  0  0  0  0
   58.7480   34.7730   46.6370 O   0  0  0  0  0  0  0  0  0  0  0  0
   59.6400   35.7260   46.0680 C   0  0  0  0  0  0  0  0  0  0  0  0
   60.1529   36.2740   46.8722 H   0  0  0  0  0  0  0  0  0  0  0  0
   60.3838   35.2064   45.4461 H   0  0  0  0  0  0  0  0  0  0  0  0
   59.0724   36.4339   45.4461 H   0  0  0  0  0  0  0  0  0  0  0  0
   58.7210   32.3640   46.8420 C   0  0  0  0  0  0  0  0  0  0  0  0
   59.2770   32.4850   48.1640 N   0  0  0  0  0  0  0  0  0  0  0  0
   59.9070   33.7460   48.5770 C   0  0  0  0  0  0  0  0  0  0  0  0
   59.4728   34.5759   48.0001 H   0  0  0  0  0  0  0  0  0  0  0  0
   59.7282   33.9036   49.6509 H   0  0  0  0  0  0  0  0  0  0  0  0
   61.3910   33.6880   48.3270 C   0  0  0  0  0  0  0  0  0  0  0  0
   62.2690   33.4140   49.3870 C   0  0  0  0  0  0  0  0  0  0  0  0
   61.8754   33.2861   50.4062 H   0  0  0  0  0  0  0  0  0  0  0  0
   63.6440   33.3030   49.1510 C   0  0  0  0  0  0  0  0  0  0  0  0
   64.3288   33.0932   49.9859 H   0  0  0  0  0  0  0  0  0  0  0  0
   64.1490   33.4580   47.8580 C   0  0  0  0  0  0  0  0  0  0  0  0
   65.2302   33.3717   47.6748 H   0  0  0  0  0  0  0  0  0  0  0  0
   63.2780   33.7230   46.7970 C   0  0  0  0  0  0  0  0  0  0  0  0
   63.7670   33.8620   45.5390 F   0  0  0  0  0  0  0  0  0  0  0  0
   61.9020   33.8330   47.0270 C   0  0  0  0  0  0  0  0  0  0  0  0
   61.2194   34.0334   46.1880 H   0  0  0  0  0  0  0  0  0  0  0  0
   59.2090   31.3530   49.0930 C   0  0  0  0  0  0  0  0  0  0  0  0
   60.2109   30.9121   49.2016 H   0  0  0  0  0  0  0  0  0  0  0  0
   58.5089   30.6043   48.6939 H   0  0  0  0  0  0  0  0  0  0  0  0
   58.7190   31.8120   50.4420 C   0  0  0  0  0  0  0  0  0  0  0  0
   59.5620   32.5650   51.2740 C   0  0  0  0  0  0  0  0  0  0  0  0
   60.5700   32.8401   50.9299 H   0  0  0  0  0  0  0  0  0  0  0  0
   59.1230   32.9660   52.5390 C   0  0  0  0  0  0  0  0  0  0  0  0
   59.7905   33.5470   53.1924 H   0  0  0  0  0  0  0  0  0  0  0  0
   57.8390   32.6310   52.9760 C   0  0  0  0  0  0  0  0  0  0  0  0
   57.5039   32.9434   53.9761 H   0  0  0  0  0  0  0  0  0  0  0  0
   56.9760   31.9010   52.1510 C   0  0  0  0  0  0  0  0  0  0  0  0
   55.6920   31.5940   52.6320 O   0  0  0  0  0  0  0  0  0  0  0  0
   54.8250   30.6360   52.0890 C   0  0  0  0  0  0  0  0  0  0  0  0
   55.0170   29.4030   52.2760 O   0  0  0  0  0  0  0  0  0  0  0  0
   53.7420   31.0740   51.2610 N   0  0  0  0  0  0  0  0  0  0  0  0
   53.6310   32.0960   51.0710 H   0  0  0  0  0  0  0  0  0  0  0  0
   52.8000   30.1370   50.6620 C   0  0  0  0  0  0  0  0  0  0  0  0
   52.2608   29.6007   51.4568 H   0  0  0  0  0  0  0  0  0  0  0  0
   52.0807   30.6883   50.0386 H   0  0  0  0  0  0  0  0  0  0  0  0
   53.3475   29.4148   50.0386 H   0  0  0  0  0  0  0  0  0  0  0  0
   57.4310   31.4700   50.8890 C   0  0  0  0  0  0  0  0  0  0  0  0
   56.7741   30.8621   50.2496 H   0  0  0  0  0  0  0  0  0  0  0  0
   58.4110   31.0960   46.3270 C   0  0  0  0  0  0  0  0  0  0  0  0
   58.6173   30.1990   46.9293 H   0  0  0  0  0  0  0  0  0  0  0  0
  1  2  1  0
  2  3  2  0
  3  4  1  0
  3  5  1  0
  5  6  2  0
  6  7  1  0
  6  8  1  0
  8  9  1  0
  8 10  2  0
 10 11  1  0
 10 12  1  0
 12 13  1  0
 12 14  2  0
 14 15  1  0
  2 16  1  0
 16 17  2  0
 17 18  1  0
 17 19  1  0
 19 20  1  0
 19 21  2  0
 21 22  1  0
 22 23  1  0
 23 24  1  0
 23 25  1  0
 23 26  1  0
 21 27  1  0
 27 28  1  0
 28 29  1  0
 29 30  1  0
 29 31  1  0
 29 32  1  0
 32 33  2  0
 33 34  1  0
 33 35  1  0
 35 36  1  0
 35 37  2  0
 37 38  1  0
 37 39  1  0
 39 40  1  0
 39 41  2  0
 41 42  1  0
 28 43  1  0
 43 44  1  0
 43 45  1  0
 43 46  1  0
 46 47  2  0
 47 48  1  0
 47 49  1  0
 49 50  1  0
 49 51  2  0
 51 52  1  0
 51 53  1  0
 53 54  1  0
 54 55  1  0
 55 56  2  0
 55 57  1  0
 57 58  1  0
 57 59  1  0
 59 60  1  0
 59 61  1  0
 59 62  1  0
 53 63  2  0
 63 64  1  0
 27 65  2  0
 65 66  1  0
 14  5  1  0
 65 16  1  0
 41 32  1  0
 63 46  1  0
M  CHG  1  15  -1
M  END
>  <UniqueID>  (27) 
25

>  <SMILES>  (27) 
CNC(=O)Oc1cccc(CN(Cc2cccc(F)c2)c2cc(/C=C/c3ccccc3[O-])ccc2OC)c1

>  <Energy>  (27) 
78.57114779824244

>  <Genealogy>  (27) 
CNC(=O)Oc1cccc(CN(Cc2cccc(F)c2)c2cc(C=Cc3ccccc3[O-])ccc2OC)c1 (protonated)
CNC(=O)Oc1cccc(CN(Cc2cccc(F)c2)c2cc(/C=C/c3ccccc3[O-])ccc2OC)c1 (cis-trans isomerization)
CNC(=O)Oc1cccc(CN(Cc2cccc(F)c2)c2cc(/C=C/c3ccccc3[O-])ccc2OC)c1 (3D coordinates assigned)
CNC(=O)Oc1cccc(CN(Cc2cccc(F)c2)c2cc(/C=C/c3ccccc3[O-])ccc2OC)c1 (optimized conformer: 78.57114779824244 kcal/mol)

>  <smiles>  (27) 
CNC(=O)Oc1cccc(CN(Cc2cccc(F)c2)c2cc(C=Cc3ccccc3O)ccc2OC)c1

>  <score_type>  (27) 
oracle

>  <origin>  (27) 
adg

>  <m_score__min__energy>  (27) 
-14.619999999999999

>  <m_primary>  (27) 
energy

$$$$
27:0
     RDKit          3D

 35 37  0  0  0  0  0  0  0  0999 V2000
   57.6304   32.4326   43.3033 H   0  0  0  0  0  0  0  0  0  0  0  0
   57.4250   32.3880   44.3830 C   0  0  0  0  0  0  0  0  0  0  0  0
   56.5720   31.4960   44.8030 N   0  0  0  0  0  0  0  0  0  0  0  0
   56.7710   30.0780   44.9210 C   0  0  0  0  0  0  0  0  0  0  0  0
   55.8380   29.3110   44.5630 O   0  0  0  0  0  0  0  0  0  0  0  0
   58.0790   29.4990   45.3270 C   0  0  0  0  0  0  0  0  0  0  0  0
   59.1450   30.3660   45.6320 C   0  0  0  0  0  0  0  0  0  0  0  0
   58.9924   31.4542   45.5828 H   0  0  0  0  0  0  0  0  0  0  0  0
   60.3930   29.8600   45.9960 C   0  0  0  0  0  0  0  0  0  0  0  0
   61.2159   30.5490   46.2369 H   0  0  0  0  0  0  0  0  0  0  0  0
   60.5990   28.4820   46.0550 C   0  0  0  0  0  0  0  0  0  0  0  0
   61.5835   28.0853   46.3437 H   0  0  0  0  0  0  0  0  0  0  0  0
   59.5570   27.6060   45.7480 C   0  0  0  0  0  0  0  0  0  0  0  0
   59.7244   26.5202   45.8028 H   0  0  0  0  0  0  0  0  0  0  0  0
   58.2940   28.0980   45.3690 C   0  0  0  0  0  0  0  0  0  0  0  0
   57.2160   27.1770   45.1230 N   0  0  0  0  0  0  0  0  0  0  0  0
   56.6500   27.2940   44.2540 H   0  0  0  0  0  0  0  0  0  0  0  0
   56.9130   26.0710   45.9880 C   0  0  0  0  0  0  0  0  0  0  0  0
   57.7030   25.7540   46.9180 O   0  0  0  0  0  0  0  0  0  0  0  0
   55.6920   25.2790   45.7720 C   0  0  0  0  0  0  0  0  0  0  0  0
   54.4750   25.7670   45.8480 O   0  0  0  0  0  0  0  0  0  0  0  0
   53.6200   24.8010   45.6050 C   0  0  0  0  0  0  0  0  0  0  0  0
   52.5255   24.9103   45.5998 H   0  0  0  0  0  0  0  0  0  0  0  0
   54.3030   23.6270   45.3570 C   0  0  0  0  0  0  0  0  0  0  0  0
   53.8662   22.6454   45.1208 H   0  0  0  0  0  0  0  0  0  0  0  0
   55.6420   23.9330   45.4650 C   0  0  0  0  0  0  0  0  0  0  0  0
   56.4932   23.2487   45.3341 H   0  0  0  0  0  0  0  0  0  0  0  0
   58.1330   33.3410   45.2570 C   0  0  0  0  0  0  0  0  0  0  0  0
   58.0160   33.3400   46.5640 O   0  0  0  0  0  0  0  0  0  0  0  0
   58.7860   34.2820   47.0570 C   0  0  0  0  0  0  0  0  0  0  0  0
   58.8878   34.5221   48.1256 H   0  0  0  0  0  0  0  0  0  0  0  0
   59.4480   34.9250   46.0320 C   0  0  0  0  0  0  0  0  0  0  0  0
   60.1602   35.7582   46.1248 H   0  0  0  0  0  0  0  0  0  0  0  0
   59.0370   34.3130   44.8690 C   0  0  0  0  0  0  0  0  0  0  0  0
   59.3605   34.5483   43.8443 H   0  0  0  0  0  0  0  0  0  0  0  0
  1  2  1  0
  2  3  2  0
  3  4  1  0
  4  5  2  0
  4  6  1  0
  6  7  2  0
  7  8  1  0
  7  9  1  0
  9 10  1  0
  9 11  2  0
 11 12  1  0
 11 13  1  0
 13 14  1  0
 13 15  2  0
 15 16  1  0
 16 17  1  0
 16 18  1  0
 18 19  2  0
 18 20  1  0
 20 21  1  0
 21 22  1  0
 22 23  1  0
 22 24  2  0
 24 25  1  0
 24 26  1  0
 26 27  1  0
  2 28  1  0
 28 29  1  0
 29 30  1  0
 30 31  1  0
 30 32  2  0
 32 33  1  0
 32 34  1  0
 34 35  1  0
 15  6  1  0
 26 20  2  0
 34 28  2  0
M  END
>  <UniqueID>  (28) 
26

>  <SMILES>  (28) 
O=C(Nc1ccccc1C(=O)/N=C\c1ccco1)c1ccco1

>  <Energy>  (28) 
104.85210862914248

>  <Genealogy>  (28) 
O=C(Nc1ccccc1C(=O)/N=C\c1ccco1)c1ccco1 (cis-trans isomerization)
O=C(Nc1ccccc1C(=O)/N=C\c1ccco1)c1ccco1 (3D coordinates assigned)
O=C(Nc1ccccc1C(=O)/N=C\c1ccco1)c1ccco1 (optimized conformer: 104.85210862914248 kcal/mol)

>  <smiles>  (28) 
O=C(Nc1ccccc1C(=O)N=Cc1ccco1)c1ccco1

>  <score_type>  (28) 
oracle

>  <origin>  (28) 
adg

>  <m_score__min__energy>  (28) 
-7.9400000000000004

>  <m_primary>  (28) 
energy

$$$$
28:0
     RDKit          3D

 49 51  0  0  0  0  0  0  0  0999 V2000
   58.1370   30.0580   51.5390 H   0  0  0  0  0  0  0  0  0  0  0  0
   57.3010   29.6470   51.8820 O   0  0  0  0  0  0  0  0  0  0  0  0
   56.6600   30.6230   52.6590 C   0  0  0  0  0  0  0  0  0  0  0  0
   56.6929   30.3197   53.7158 H   0  0  0  0  0  0  0  0  0  0  0  0
   55.6190   30.7151   52.3158 H   0  0  0  0  0  0  0  0  0  0  0  0
   57.3340   31.9630   52.5100 C   0  0  0  0  0  0  0  0  0  0  0  0
   56.6660   33.0100   52.7300 O   0  0  0  0  0  0  0  0  0  0  0  0
   58.7110   32.1090   52.1180 N   0  0  0  0  0  0  0  0  0  0  0  0
   59.2340   32.0550   50.9260 C   0  0  0  0  0  0  0  0  0  0  0  0
   59.8030   30.9150   50.4440 N   0  0  0  0  0  0  0  0  0  0  0  0
   60.3650   30.8520   49.2080 C   0  0  0  0  0  0  0  0  0  0  0  0
   60.8098   29.9108   48.8526 H   0  0  0  0  0  0  0  0  0  0  0  0
   60.3770   31.9850   48.3890 C   0  0  0  0  0  0  0  0  0  0  0  0
   61.1350   31.9210   46.7640 S   0  0  0  0  0  0  0  0  0  0  0  0
   59.7360   32.7370   45.9840 C   0  0  0  0  0  0  0  0  0  0  0  0
   59.9010   34.0150   45.5470 N   0  0  0  0  0  0  0  0  0  0  0  0
   58.8840   34.7260   44.9970 C   0  0  0  0  0  0  0  0  0  0  0  0
   59.0581   35.7553   44.6503 H   0  0  0  0  0  0  0  0  0  0  0  0
   57.6200   34.1540   44.8710 C   0  0  0  0  0  0  0  0  0  0  0  0
   56.7913   34.7289   44.4321 H   0  0  0  0  0  0  0  0  0  0  0  0
   57.4160   32.8450   45.3070 C   0  0  0  0  0  0  0  0  0  0  0  0
   56.4209   32.3857   45.2130 H   0  0  0  0  0  0  0  0  0  0  0  0
   58.4740   32.1110   45.8650 C   0  0  0  0  0  0  0  0  0  0  0  0
   58.2500   30.7120   46.2900 C   0  0  0  0  0  0  0  0  0  0  0  0
   58.1580   30.4490   47.5190 O   0  0  0  0  0  0  0  0  0  0  0  0
   58.1830   29.6580   45.3130 N   0  0  0  0  0  0  0  0  0  0  0  0
   58.4110   29.8900   44.3210 H   0  0  0  0  0  0  0  0  0  0  0  0
   57.8810   28.2870   45.6270 C   0  0  0  0  0  0  0  0  0  0  0  0
   58.8930   27.3910   46.0140 C   0  0  0  0  0  0  0  0  0  0  0  0
   59.9377   27.7324   46.0602 H   0  0  0  0  0  0  0  0  0  0  0  0
   58.5790   26.0700   46.3400 C   0  0  0  0  0  0  0  0  0  0  0  0
   59.3786   25.3727   46.6304 H   0  0  0  0  0  0  0  0  0  0  0  0
   57.2560   25.6310   46.2990 C   0  0  0  0  0  0  0  0  0  0  0  0
   57.0172   24.5872   46.5509 H   0  0  0  0  0  0  0  0  0  0  0  0
   56.2260   26.5170   45.9370 C   0  0  0  0  0  0  0  0  0  0  0  0
   54.8510   26.1070   45.8880 N   0  0  0  0  0  0  0  0  0  0  0  0
   54.2800   24.4930   45.6100 S   0  0  0  0  0  0  0  0  0  0  0  0
   52.8100   24.5130   45.2990 O   0  0  0  0  0  0  0  0  0  0  0  0
   54.4980   23.6840   46.8550 O   0  0  0  0  0  0  0  0  0  0  0  0
   55.1880   23.7420   44.2750 C   0  0  0  0  0  0  0  0  0  0  0  0
   55.9741   23.0918   44.6864 H   0  0  0  0  0  0  0  0  0  0  0  0
   54.5030   23.1430   43.6570 H   0  0  0  0  0  0  0  0  0  0  0  0
   55.6478   24.5272   43.6570 H   0  0  0  0  0  0  0  0  0  0  0  0
   56.5450   27.8440   45.6060 C   0  0  0  0  0  0  0  0  0  0  0  0
   55.5290   28.7240   45.2460 O   0  0  0  0  0  0  0  0  0  0  0  0
   59.7970   33.1660   48.8550 C   0  0  0  0  0  0  0  0  0  0  0  0
   59.7893   34.0639   48.2196 H   0  0  0  0  0  0  0  0  0  0  0  0
   59.2270   33.2060   50.1280 C   0  0  0  0  0  0  0  0  0  0  0  0
   58.7748   34.1361   50.5026 H   0  0  0  0  0  0  0  0  0  0  0  0
  1  2  1  0
  2  3  1  0
  3  4  1  0
  3  5  1  0
  3  6  1  0
  6  7  2  0
  6  8  1  0
  8  9  2  0
  9 10  1  0
 10 11  1  0
 11 12  1  0
 11 13  2  0
 13 14  1  0
 14 15  1  0
 15 16  2  0
 16 17  1  0
 17 18  1  0
 17 19  2  0
 19 20  1  0
 19 21  1  0
 21 22  1  0
 21 23  2  0
 23 24  1  0
 24 25  2  0
 24 26  1  0
 26 27  1  0
 26 28  1  0
 28 29  2  0
 29 30  1  0
 29 31  1  0
 31 32  1  0
 31 33  2  0
 33 34  1  0
 33 35  1  0
 35 36  1  0
 36 37  1  0
 37 38  2  0
 37 39  2  0
 37 40  1  0
 40 41  1  0
 40 42  1  0
 40 43  1  0
 35 44  2  0
 44 45  1  0
 13 46  1  0
 46 47  1  0
 46 48  2  0
 48 49  1  0
 48  9  1  0
 23 15  1  0
 44 28  1  0
M  CHG  3  10  -1  36  -1  45  -1
M  END
>  <UniqueID>  (29) 
27

>  <SMILES>  (29) 
CS(=O)(=O)[N-]c1cccc(NC(=O)c2cccnc2Sc2cc/c(=N/C(=O)CO)[n-]c2)c1[O-]

>  <Energy>  (29) 
60.7873383225339

>  <Genealogy>  (29) 
CS(=O)(=O)[N-]c1cccc(NC(=O)c2cccnc2Sc2ccc(=NC(=O)CO)[n-]c2)c1[O-] (protonated)
CS(=O)(=O)[N-]c1cccc(NC(=O)c2cccnc2Sc2cc/c(=N/C(=O)CO)[n-]c2)c1[O-] (cis-trans isomerization)
CS(=O)(=O)[N-]c1cccc(NC(=O)c2cccnc2Sc2cc/c(=N/C(=O)CO)[n-]c2)c1[O-] (3D coordinates assigned)
CS(=O)(=O)[N-]c1cccc(NC(=O)c2cccnc2Sc2cc/c(=N/C(=O)CO)[n-]c2)c1[O-] (optimized conformer: 60.7873383225339 kcal/mol)

>  <smiles>  (29) 
CS(=O)(=O)Nc1cccc(NC(=O)c2cccnc2Sc2ccc(=NC(=O)CO)[nH]c2)c1O

>  <score_type>  (29) 
oracle

>  <origin>  (29) 
adg

>  <m_score__min__energy>  (29) 
-14.869999999999999

>  <m_primary>  (29) 
energy

$$$$
29:0
     RDKit          3D

 49 50  0  0  0  0  0  0  0  0999 V2000
   60.3990   34.5360   45.9920 C   0  0  0  0  0  0  0  0  0  0  0  0
   59.4840   34.9390   47.1450 C   0  0  0  0  0  0  0  0  0  0  0  0
   58.1470   34.1950   47.0810 C   0  0  0  0  0  0  0  0  0  0  0  0
   58.3620   32.7420   47.2210 N   0  0  0  0  0  0  0  0  0  0  0  0
   58.1250   31.9160   46.1560 C   0  0  0  0  0  0  0  0  0  0  0  0
   57.6950   32.4480   44.9400 O   0  0  0  0  0  0  0  0  0  0  0  0
   58.2980   30.5320   46.2770 C   0  0  0  0  0  0  0  0  0  0  0  0
   58.0020   29.6160   45.1110 C   0  0  0  0  0  0  0  0  0  0  0  0
   56.5260   29.4180   44.9730 C   0  0  0  0  0  0  0  0  0  0  0  0
   55.7910   30.3870   44.6390 O   0  0  0  0  0  0  0  0  0  0  0  0
   55.9530   28.1360   45.2540 N   0  0  0  0  0  0  0  0  0  0  0  0
   56.7310   26.9900   45.7070 C   0  0  0  0  0  0  0  0  0  0  0  0
   55.8310   25.9640   46.3160 C   0  0  0  0  0  0  0  0  0  0  0  0
   54.4500   25.9310   45.9650 N   0  0  0  0  0  0  0  0  0  0  0  0
   56.2820   25.1500   47.1650 O   0  0  0  0  0  0  0  0  0  0  0  0
   58.6800   30.0170   47.5240 C   0  0  0  0  0  0  0  0  0  0  0  0
   58.7990   28.7680   47.6680 O   0  0  0  0  0  0  0  0  0  0  0  0
   58.9100   30.8580   48.5800 N   0  0  0  0  0  0  0  0  0  0  0  0
   59.2850   30.3110   49.8990 C   0  0  0  0  0  0  0  0  0  0  0  0
   60.7360   29.9120   49.8970 C   0  0  0  0  0  0  0  0  0  0  0  0
   61.0370   28.7020   49.7190 O   0  0  0  0  0  0  0  0  0  0  0  0
   61.7800   30.8450   50.2030 N   0  0  0  0  0  0  0  0  0  0  0  0
   62.2900   31.8620   49.3300 C   0  0  0  0  0  0  0  0  0  0  0  0
   62.6150   31.5220   48.0110 C   0  0  0  0  0  0  0  0  0  0  0  0
   63.0880   32.4970   47.1270 C   0  0  0  0  0  0  0  0  0  0  0  0
   63.2180   33.8220   47.5520 C   0  0  0  0  0  0  0  0  0  0  0  0
   62.8680   34.1740   48.8580 C   0  0  0  0  0  0  0  0  0  0  0  0
   62.3960   33.2010   49.7450 C   0  0  0  0  0  0  0  0  0  0  0  0
   58.7320   32.2120   48.4320 C   0  0  0  0  0  0  0  0  0  0  0  0
   58.9000   32.9770   49.4230 O   0  0  0  0  0  0  0  0  0  0  0  0
   61.3359   34.1234   46.3944 H   0  0  0  0  0  0  0  0  0  0  0  0
   59.8983   33.7751   45.3753 H   0  0  0  0  0  0  0  0  0  0  0  0
   60.6223   35.4190   45.3753 H   0  0  0  0  0  0  0  0  0  0  0  0
   59.9812   34.7010   48.0969 H   0  0  0  0  0  0  0  0  0  0  0  0
   59.2846   36.0181   47.0690 H   0  0  0  0  0  0  0  0  0  0  0  0
   57.4972   34.5458   47.8963 H   0  0  0  0  0  0  0  0  0  0  0  0
   57.6729   34.3944   46.1087 H   0  0  0  0  0  0  0  0  0  0  0  0
   58.3966   30.0642   44.1872 H   0  0  0  0  0  0  0  0  0  0  0  0
   58.4803   28.6415   45.2890 H   0  0  0  0  0  0  0  0  0  0  0  0
   57.2590   26.5473   44.8495 H   0  0  0  0  0  0  0  0  0  0  0  0
   57.4569   27.3248   46.4626 H   0  0  0  0  0  0  0  0  0  0  0  0
   54.1130   26.3600   45.0740 H   0  0  0  0  0  0  0  0  0  0  0  0
   59.1187   31.0763   50.6714 H   0  0  0  0  0  0  0  0  0  0  0  0
   58.6674   29.4259   50.1117 H   0  0  0  0  0  0  0  0  0  0  0  0
   62.4977   30.4832   47.6686 H   0  0  0  0  0  0  0  0  0  0  0  0
   63.3578   32.2209   46.0969 H   0  0  0  0  0  0  0  0  0  0  0  0
   63.5958   34.5876   46.8584 H   0  0  0  0  0  0  0  0  0  0  0  0
   62.9639   35.2185   49.1893 H   0  0  0  0  0  0  0  0  0  0  0  0
   62.1075   33.4837   50.7681 H   0  0  0  0  0  0  0  0  0  0  0  0
  1  2  1  0
  2  3  1  0
  3  4  1  0
  4  5  1  0
  5  6  1  0
  5  7  2  0
  7  8  1  0
  8  9  1  0
  9 10  2  0
  9 11  1  0
 11 12  1  0
 12 13  1  0
 13 14  1  0
 13 15  2  0
  7 16  1  0
 16 17  2  0
 16 18  1  0
 18 19  1  0
 19 20  1  0
 20 21  2  0
 20 22  1  0
 22 23  1  0
 23 24  2  0
 24 25  1  0
 25 26  2  0
 26 27  1  0
 27 28  2  0
 18 29  1  0
 29 30  2  0
 29  4  1  0
 28 23  1  0
  1 31  1  0
  1 32  1  0
  1 33  1  0
  2 34  1  0
  2 35  1  0
  3 36  1  0
  3 37  1  0
  8 38  1  0
  8 39  1  0
 12 40  1  0
 12 41  1  0
 14 42  1  0
 19 43  1  0
 19 44  1  0
 24 45  1  0
 25 46  1  0
 26 47  1  0
 27 48  1  0
 28 49  1  0
M  CHG  4   6  -1  11  -1  14  -1  22  -1
M  END
>  <UniqueID>  (30) 
28

>  <SMILES>  (30) 
CCCn1c([O-])c(CC(=O)[N-]CC([NH-])=O)c(=O)n(CC(=O)[N-]c2ccccc2)c1=O

>  <Energy>  (30) 
51.49374091479176

>  <Genealogy>  (30) 
CCCn1c([O-])c(CC(=O)[N-]CC([NH-])=O)c(=O)n(CC(=O)[N-]c2ccccc2)c1=O (protonated)
CCCn1c([O-])c(CC(=O)[N-]CC([NH-])=O)c(=O)n(CC(=O)[N-]c2ccccc2)c1=O (3D coordinates assigned)
CCCn1c([O-])c(CC(=O)[N-]CC([NH-])=O)c(=O)n(CC(=O)[N-]c2ccccc2)c1=O (optimized conformer: 51.49374091479176 kcal/mol)

>  <smiles>  (30) 
CCCn1c(O)c(CC(=O)NCC(N)=O)c(=O)n(CC(=O)Nc2ccccc2)c1=O

>  <score_type>  (30) 
oracle

>  <origin>  (30) 
adg

>  <m_score__min__energy>  (30) 
-15.34

>  <m_primary>  (30) 
energy

$$$$
30:0
     RDKit          3D

 33 34  0  0  0  0  0  0  0  0999 V2000
   54.7680   26.7110   45.2450 H   0  0  0  0  0  0  0  0  0  0  0  0
   55.1190   26.3540   46.1620 N   0  0  0  0  0  0  0  0  0  0  0  0
   56.8470   26.4040   46.0950 S   0  0  0  0  0  0  0  0  0  0  0  0
   57.3500   24.9980   45.9290 O   0  0  0  0  0  0  0  0  0  0  0  0
   57.4190   26.9670   47.3660 O   0  0  0  0  0  0  0  0  0  0  0  0
   57.3720   27.3320   44.7260 N   0  0  0  0  0  0  0  0  0  0  0  0
   57.7140   28.5830   44.5680 C   0  0  0  0  0  0  0  0  0  0  0  0
   56.5740   29.7150   44.0630 S   0  0  0  0  0  0  0  0  0  0  0  0
   57.6590   30.9750   44.2710 C   0  0  0  0  0  0  0  0  0  0  0  0
   57.3970   32.4040   43.9160 C   0  0  0  0  0  0  0  0  0  0  0  0
   56.6089   32.4486   43.1499 H   0  0  0  0  0  0  0  0  0  0  0  0
   58.3246   32.8519   43.5301 H   0  0  0  0  0  0  0  0  0  0  0  0
   56.9790   33.1260   45.0570 O   0  0  0  0  0  0  0  0  0  0  0  0
   58.0650   33.8350   45.6140 C   0  0  0  0  0  0  0  0  0  0  0  0
   58.0044   33.7954   46.7116 H   0  0  0  0  0  0  0  0  0  0  0  0
   59.0094   33.3790   45.2822 H   0  0  0  0  0  0  0  0  0  0  0  0
   58.0275   34.8831   45.2822 H   0  0  0  0  0  0  0  0  0  0  0  0
   58.8610   30.5160   44.6730 N   0  0  0  0  0  0  0  0  0  0  0  0
   58.9150   29.1920   44.8440 N   0  0  0  0  0  0  0  0  0  0  0  0
   60.2340   28.5990   45.0810 C   0  0  0  0  0  0  0  0  0  0  0  0
   60.3133   27.6514   44.5281 H   0  0  0  0  0  0  0  0  0  0  0  0
   61.0130   29.2949   44.7361 H   0  0  0  0  0  0  0  0  0  0  0  0
   60.4170   28.3360   46.5550 C   0  0  0  0  0  0  0  0  0  0  0  0
   60.4050   29.4120   47.4590 C   0  0  0  0  0  0  0  0  0  0  0  0
   60.3053   30.4410   47.0832 H   0  0  0  0  0  0  0  0  0  0  0  0
   60.5190   29.1820   48.8320 C   0  0  0  0  0  0  0  0  0  0  0  0
   60.5175   30.0299   49.5328 H   0  0  0  0  0  0  0  0  0  0  0  0
   60.6350   27.8760   49.3170 C   0  0  0  0  0  0  0  0  0  0  0  0
   60.7710   27.5900   51.0420 Cl  0  0  0  0  0  0  0  0  0  0  0  0
   60.6300   26.7990   48.4270 C   0  0  0  0  0  0  0  0  0  0  0  0
   60.7161   25.7715   48.8101 H   0  0  0  0  0  0  0  0  0  0  0  0
   60.5160   27.0220   47.0510 C   0  0  0  0  0  0  0  0  0  0  0  0
   60.4940   25.9590   46.2080 F   0  0  0  0  0  0  0  0  0  0  0  0
  1  2  1  0
  2  3  1  0
  3  4  2  0
  3  5  2  0
  3  6  1  0
  6  7  2  0
  7  8  1  0
  8  9  1  0
  9 10  1  0
 10 11  1  0
 10 12  1  0
 10 13  1  0
 13 14  1  0
 14 15  1  0
 14 16  1  0
 14 17  1  0
  9 18  2  0
 18 19  1  0
 19 20  1  0
 20 21  1  0
 20 22  1  0
 20 23  1  0
 23 24  2  0
 24 25  1  0
 24 26  1  0
 26 27  1  0
 26 28  2  0
 28 29  1  0
 28 30  1  0
 30 31  1  0
 30 32  2  0
 32 33  1  0
 19  7  1  0
 32 23  1  0
M  CHG  1   2  -1
M  END
>  <UniqueID>  (31) 
29

>  <SMILES>  (31) 
COCc1nn(Cc2ccc(Cl)cc2F)/c(=N\S([NH-])(=O)=O)s1

>  <Energy>  (31) 
83.03919072036642

>  <Genealogy>  (31) 
COCc1nn(Cc2ccc(Cl)cc2F)c(=NS([NH-])(=O)=O)s1 (protonated)
COCc1nn(Cc2ccc(Cl)cc2F)/c(=N\S([NH-])(=O)=O)s1 (cis-trans isomerization)
COCc1nn(Cc2ccc(Cl)cc2F)/c(=N\S([NH-])(=O)=O)s1 (3D coordinates assigned)
COCc1nn(Cc2ccc(Cl)cc2F)/c(=N\S([NH-])(=O)=O)s1 (optimized conformer: 83.03919072036642 kcal/mol)

>  <smiles>  (31) 
COCc1nn(Cc2ccc(Cl)cc2F)c(=NS(N)(=O)=O)s1

>  <score_type>  (31) 
oracle

>  <origin>  (31) 
adg

>  <m_score__min__energy>  (31) 
-9.6099999999999994

>  <m_primary>  (31) 
energy

$$$$
31:0
     RDKit          3D

 44 46  0  0  1  0  0  0  0  0999 V2000
   55.2920   29.7150   43.4320 C   0  0  0  0  0  0  0  0  0  0  0  0
   56.3260   29.8120   44.4960 C   0  0  0  0  0  0  0  0  0  0  0  0
   56.8360   31.0050   44.7630 N   0  0  0  0  0  0  0  0  0  0  0  0
   57.7770   31.1590   45.7150 C   0  0  0  0  0  0  0  0  0  0  0  0
   58.3390   32.4790   46.0080 C   0  0  0  0  0  0  0  0  0  0  0  0
   58.6550   32.8930   47.2840 C   0  0  0  0  0  0  0  0  0  0  0  0
   59.1880   34.1380   47.5680 C   0  0  0  0  0  0  0  0  0  0  0  0
   59.4240   35.0270   46.5420 C   0  0  0  0  0  0  0  0  0  0  0  0
   59.1160   34.6300   45.2740 C   0  0  0  0  0  0  0  0  0  0  0  0
   58.5770   33.3710   44.9820 C   0  0  0  0  0  0  0  0  0  0  0  0
   58.2830   33.0560   43.5590 C   0  0  0  0  0  0  0  0  0  0  0  0
   58.1720   30.0290   46.3870 C   0  0  0  0  0  0  0  0  0  0  0  0
   57.6320   28.7670   46.1060 C   0  0  0  0  0  0  0  0  0  0  0  0
   58.0340   27.7290   46.7630 N   0  0  0  0  0  0  0  0  0  0  0  0
   58.4060   26.5670   45.9830 C   0  0  0  0  0  0  0  0  0  0  0  0
   57.2310   25.7750   45.5680 C   0  0  0  0  0  0  0  0  0  0  0  0
   57.2680   24.7850   44.5990 C   0  0  0  0  0  0  0  0  0  0  0  0
   55.9790   24.2870   44.5040 C   0  0  0  0  0  0  0  0  0  0  0  0
   55.6160   23.1970   43.5570 C   0  0  0  0  0  0  0  0  0  0  0  0
   55.2120   24.9430   45.3720 N   0  0  0  0  0  0  0  0  0  0  0  0
   53.7900   24.6900   45.5560 C   0  0  0  0  0  0  0  0  0  0  0  0
   55.9590   25.8290   46.0060 N   0  0  0  0  0  0  0  0  0  0  0  0
   56.6980   28.6860   45.1420 N   0  0  0  0  0  0  0  0  0  0  0  0
   54.2981   29.6218   43.8940 H   0  0  0  0  0  0  0  0  0  0  0  0
   55.3226   30.6200   42.8074 H   0  0  0  0  0  0  0  0  0  0  0  0
   55.4903   28.8315   42.8074 H   0  0  0  0  0  0  0  0  0  0  0  0
   58.4745   32.1991   48.1183 H   0  0  0  0  0  0  0  0  0  0  0  0
   59.4218   34.4162   48.6062 H   0  0  0  0  0  0  0  0  0  0  0  0
   59.8466   36.0233   46.7389 H   0  0  0  0  0  0  0  0  0  0  0  0
   59.2990   35.3292   44.4447 H   0  0  0  0  0  0  0  0  0  0  0  0
   57.5332   32.2527   43.5086 H   0  0  0  0  0  0  0  0  0  0  0  0
   57.8925   33.9540   43.0578 H   0  0  0  0  0  0  0  0  0  0  0  0
   59.2057   32.7283   43.0578 H   0  0  0  0  0  0  0  0  0  0  0  0
   58.9376   30.1172   47.1719 H   0  0  0  0  0  0  0  0  0  0  0  0
   58.9436   26.9013   45.0835 H   0  0  0  0  0  0  0  0  0  0  0  0
   59.0402   25.9260   46.6130 H   0  0  0  0  0  0  0  0  0  0  0  0
   58.1455   24.4597   44.0209 H   0  0  0  0  0  0  0  0  0  0  0  0
   55.3182   22.3027   44.1240 H   0  0  0  0  0  0  0  0  0  0  0  0
   54.7787   23.5253   42.9236 H   0  0  0  0  0  0  0  0  0  0  0  0
   56.4830   22.9577   42.9236 H   0  0  0  0  0  0  0  0  0  0  0  0
   53.5609   24.6492   46.6311 H   0  0  0  0  0  0  0  0  0  0  0  0
   53.2101   25.4991   45.0879 H   0  0  0  0  0  0  0  0  0  0  0  0
   53.5247   23.7305   45.0879 H   0  0  0  0  0  0  0  0  0  0  0  0
   56.2680   27.7630   44.9000 H   0  0  0  0  0  0  0  0  0  0  0  0
  1  2  1  0
  2  3  2  0
  3  4  1  0
  4  5  1  0
  5  6  2  0
  6  7  1  0
  7  8  2  0
  8  9  1  0
  9 10  2  0
 10 11  1  0
  4 12  2  0
 12 13  1  0
 13 14  2  0
 14 15  1  0
 15 16  1  0
 16 17  1  0
 17 18  2  0
 18 19  1  0
 18 20  1  0
 20 21  1  0
 20 22  1  0
 13 23  1  0
 23  2  1  0
 10  5  1  0
 22 16  2  0
  1 24  1  0
  1 25  1  0
  1 26  1  0
  6 27  1  0
  7 28  1  0
  8 29  1  0
  9 30  1  0
 11 31  1  0
 11 32  1  0
 11 33  1  0
 12 34  1  0
 15 35  1  0
 15 36  1  0
 17 37  1  0
 19 38  1  0
 19 39  1  0
 19 40  1  0
 21 41  1  0
 21 42  1  0
 21 43  1  0
 23 44  1  0
M  END
>  <smiles>  (32) 
Cc1nc(-c2ccccc2C)cc(=NCc2cc(C)n(C)n2)[nH]1

>  <score_type>  (32) 
oracle

>  <origin>  (32) 
adg

>  <m_score__min__energy>  (32) 
-8.7300000000000004

>  <m_primary>  (32) 
energy

$$$$
32:0
     RDKit          3D

 60 62  0  0  0  0  0  0  0  0999 V2000
   57.7590   32.4330   41.1570 C   0  0  0  0  0  0  0  0  0  0  0  0
   57.6370   31.6640   42.4720 C   0  0  0  0  0  0  0  0  0  0  0  0
   57.3900   32.5700   43.6190 N   0  0  0  0  0  0  0  0  0  0  0  0
   56.8420   31.8710   44.8050 C   0  0  0  0  0  0  0  0  0  0  0  0
   56.6070   30.4210   44.5090 C   0  0  0  0  0  0  0  0  0  0  0  0
   55.4250   30.0040   44.3670 O   0  0  0  0  0  0  0  0  0  0  0  0
   57.7230   29.5420   44.3020 N   0  0  0  0  0  0  0  0  0  0  0  0
   57.6240   28.1070   44.2670 C   0  0  0  0  0  0  0  0  0  0  0  0
   57.1940   27.4190   45.4120 C   0  0  0  0  0  0  0  0  0  0  0  0
   57.0690   26.0270   45.3960 C   0  0  0  0  0  0  0  0  0  0  0  0
   57.3580   25.3100   44.2320 C   0  0  0  0  0  0  0  0  0  0  0  0
   57.1840   23.4070   44.2100 Br  0  0  0  0  0  0  0  0  0  0  0  0
   57.7650   25.9870   43.0790 C   0  0  0  0  0  0  0  0  0  0  0  0
   57.8910   27.3800   43.0920 C   0  0  0  0  0  0  0  0  0  0  0  0
   58.5860   33.3840   43.9530 C   0  0  0  0  0  0  0  0  0  0  0  0
   58.9340   33.3860   45.4340 C   0  0  0  0  0  0  0  0  0  0  0  0
   58.6890   34.5360   46.2030 C   0  0  0  0  0  0  0  0  0  0  0  0
   59.0210   34.5690   47.5580 C   0  0  0  0  0  0  0  0  0  0  0  0
   59.5930   33.4530   48.1670 C   0  0  0  0  0  0  0  0  0  0  0  0
   59.8260   32.2840   47.4280 C   0  0  0  0  0  0  0  0  0  0  0  0
   60.4160   31.0720   48.1050 C   0  0  0  0  0  0  0  0  0  0  0  0
   59.3710   30.0540   48.3590 N   0  0  0  0  0  0  0  0  0  0  0  0
   59.7070   29.1300   49.4630 C   0  0  0  0  0  0  0  0  0  0  0  0
   60.7680   28.0840   49.0660 C   0  0  0  0  0  0  0  0  0  0  0  0
   60.4250   27.3660   47.8230 N   0  0  0  0  0  0  0  0  0  0  0  0
   59.3960   26.3340   48.0370 C   0  0  0  0  0  0  0  0  0  0  0  0
   60.0760   28.2920   46.7280 C   0  0  0  0  0  0  0  0  0  0  0  0
   58.9980   29.3110   47.1400 C   0  0  0  0  0  0  0  0  0  0  0  0
   59.4790   32.2450   46.0630 C   0  0  0  0  0  0  0  0  0  0  0  0
   59.6620   31.0670   45.3450 O   0  0  0  0  0  0  0  0  0  0  0  0
   57.9281   33.4989   41.3699 H   0  0  0  0  0  0  0  0  0  0  0  0
   58.6054   32.0361   40.5773 H   0  0  0  0  0  0  0  0  0  0  0  0
   56.8313   32.3175   40.5773 H   0  0  0  0  0  0  0  0  0  0  0  0
   56.8007   30.9538   42.3928 H   0  0  0  0  0  0  0  0  0  0  0  0
   58.5868   31.1384   42.6500 H   0  0  0  0  0  0  0  0  0  0  0  0
   57.5569   31.9577   45.6365 H   0  0  0  0  0  0  0  0  0  0  0  0
   55.8818   32.3351   45.0743 H   0  0  0  0  0  0  0  0  0  0  0  0
   58.6520   29.9760   44.1020 H   0  0  0  0  0  0  0  0  0  0  0  0
   56.9538   27.9788   46.3279 H   0  0  0  0  0  0  0  0  0  0  0  0
   56.7424   25.4948   46.3016 H   0  0  0  0  0  0  0  0  0  0  0  0
   57.9864   25.4238   42.1604 H   0  0  0  0  0  0  0  0  0  0  0  0
   58.2004   27.9100   42.1791 H   0  0  0  0  0  0  0  0  0  0  0  0
   59.4452   32.9828   43.3955 H   0  0  0  0  0  0  0  0  0  0  0  0
   58.3531   34.4232   43.6775 H   0  0  0  0  0  0  0  0  0  0  0  0
   58.2312   35.4187   45.7326 H   0  0  0  0  0  0  0  0  0  0  0  0
   58.8308   35.4782   48.1473 H   0  0  0  0  0  0  0  0  0  0  0  0
   59.8630   33.4895   49.2327 H   0  0  0  0  0  0  0  0  0  0  0  0
   61.1924   30.6387   47.4573 H   0  0  0  0  0  0  0  0  0  0  0  0
   60.8504   31.3807   49.0673 H   0  0  0  0  0  0  0  0  0  0  0  0
   60.0930   29.7185   50.3084 H   0  0  0  0  0  0  0  0  0  0  0  0
   58.7892   28.5854   49.7295 H   0  0  0  0  0  0  0  0  0  0  0  0
   61.7305   28.5967   48.9217 H   0  0  0  0  0  0  0  0  0  0  0  0
   60.8195   27.3404   49.8750 H   0  0  0  0  0  0  0  0  0  0  0  0
   59.2462   26.1838   49.1164 H   0  0  0  0  0  0  0  0  0  0  0  0
   58.4506   26.6579   47.5772 H   0  0  0  0  0  0  0  0  0  0  0  0
   59.7227   25.3896   47.5772 H   0  0  0  0  0  0  0  0  0  0  0  0
   60.9815   28.8387   46.4261 H   0  0  0  0  0  0  0  0  0  0  0  0
   59.6708   27.6928   45.8993 H   0  0  0  0  0  0  0  0  0  0  0  0
   58.8553   30.0278   46.3179 H   0  0  0  0  0  0  0  0  0  0  0  0
   58.0722   28.7563   47.3524 H   0  0  0  0  0  0  0  0  0  0  0  0
  1  2  1  0
  2  3  1  0
  3  4  1  0
  4  5  1  0
  5  6  2  0
  5  7  1  0
  7  8  1  0
  8  9  2  0
  9 10  1  0
 10 11  2  0
 11 12  1  0
 11 13  1  0
 13 14  2  0
  3 15  1  0
 15 16  1  0
 16 17  2  0
 17 18  1  0
 18 19  2  0
 19 20  1  0
 20 21  1  0
 21 22  1  0
 22 23  1  0
 23 24  1  0
 24 25  1  0
 25 26  1  0
 25 27  1  0
 27 28  1  0
 20 29  2  0
 29 30  1  0
 14  8  1  0
 29 16  1  0
 28 22  1  0
  1 31  1  0
  1 32  1  0
  1 33  1  0
  2 34  1  0
  2 35  1  0
  4 36  1  0
  4 37  1  0
  7 38  1  0
  9 39  1  0
 10 40  1  0
 13 41  1  0
 14 42  1  0
 15 43  1  0
 15 44  1  0
 17 45  1  0
 18 46  1  0
 19 47  1  0
 21 48  1  0
 21 49  1  0
 23 50  1  0
 23 51  1  0
 24 52  1  0
 24 53  1  0
 26 54  1  0
 26 55  1  0
 26 56  1  0
 27 57  1  0
 27 58  1  0
 28 59  1  0
 28 60  1  0
M  CHG  1  30  -1
M  END
>  <UniqueID>  (33) 
30

>  <SMILES>  (33) 
CCN(CC(=O)Nc1ccc(Br)cc1)Cc1cccc(CN2CCN(C)CC2)c1[O-]

>  <Energy>  (33) 
73.86666181524942

>  <Genealogy>  (33) 
CCN(CC(=O)Nc1ccc(Br)cc1)Cc1cccc(CN2CCN(C)CC2)c1[O-] (protonated)
CCN(CC(=O)Nc1ccc(Br)cc1)Cc1cccc(CN2CCN(C)CC2)c1[O-] (3D coordinates assigned)
CCN(CC(=O)Nc1ccc(Br)cc1)Cc1cccc(CN2CCN(C)CC2)c1[O-] (nonaromatic ring conformer: 73.86666181524942 kcal/mol)

>  <smiles>  (33) 
CCN(CC(=O)Nc1ccc(Br)cc1)Cc1cccc(CN2CCN(C)CC2)c1O

>  <score_type>  (33) 
oracle

>  <origin>  (33) 
adg

>  <m_score__min__energy>  (33) 
-12.199999999999999

>  <m_primary>  (33) 
energy

$$$$
33:0
     RDKit          3D

 73 77  0  0  0  0  0  0  0  0999 V2000
   53.8840   28.2610   52.6640 N   0  0  0  0  0  0  0  0  0  0  0  0
   54.5530   29.7230   53.2960 S   0  0  0  0  0  0  0  0  0  0  0  0
   53.5420   30.8290   53.1560 O   0  0  0  0  0  0  0  0  0  0  0  0
   54.8710   29.5370   54.7520 O   0  0  0  0  0  0  0  0  0  0  0  0
   56.0230   30.1280   52.4190 C   0  0  0  0  0  0  0  0  0  0  0  0
   57.0980   29.2330   52.4180 C   0  0  0  0  0  0  0  0  0  0  0  0
   58.2500   29.5170   51.6810 C   0  0  0  0  0  0  0  0  0  0  0  0
   58.3480   30.7080   50.9420 C   0  0  0  0  0  0  0  0  0  0  0  0
   59.5490   30.9600   50.0640 C   0  0  0  0  0  0  0  0  0  0  0  0
   59.4520   32.2620   49.3830 N   0  0  0  0  0  0  0  0  0  0  0  0
   59.3140   32.4840   48.0540 C   0  0  0  0  0  0  0  0  0  0  0  0
   59.1610   31.4540   47.0060 C   0  0  0  0  0  0  0  0  0  0  0  0
   59.9070   30.2730   47.0810 C   0  0  0  0  0  0  0  0  0  0  0  0
   59.6790   29.2400   46.1740 C   0  0  0  0  0  0  0  0  0  0  0  0
   58.7100   29.3700   45.1630 C   0  0  0  0  0  0  0  0  0  0  0  0
   58.3570   28.1400   44.3480 C   0  0  0  0  0  0  0  0  0  0  0  0
   57.9950   26.9930   45.2620 C   0  0  0  0  0  0  0  0  0  0  0  0
   56.7320   26.9510   45.8800 C   0  0  0  0  0  0  0  0  0  0  0  0
   56.3450   25.8330   46.6260 C   0  0  0  0  0  0  0  0  0  0  0  0
   57.2230   24.7530   46.7790 C   0  0  0  0  0  0  0  0  0  0  0  0
   56.6830   23.2730   47.5630 S   0  0  0  0  0  0  0  0  0  0  0  0
   56.9790   23.3080   49.0360 O   0  0  0  0  0  0  0  0  0  0  0  0
   57.3940   22.0970   46.9550 O   0  0  0  0  0  0  0  0  0  0  0  0
   54.9790   23.1130   47.3090 N   0  0  0  0  0  0  0  0  0  0  0  0
   54.4340   22.7100   46.0510 C   0  0  0  0  0  0  0  0  0  0  0  0
   53.1820   22.6750   45.8940 O   0  0  0  0  0  0  0  0  0  0  0  0
   55.3190   22.3910   44.9070 C   0  0  0  0  0  0  0  0  0  0  0  0
   55.5980   23.4090   43.9760 C   0  0  0  0  0  0  0  0  0  0  0  0
   56.4370   23.1740   42.8870 C   0  0  0  0  0  0  0  0  0  0  0  0
   57.0110   21.9160   42.7080 C   0  0  0  0  0  0  0  0  0  0  0  0
   56.7480   20.8910   43.6190 C   0  0  0  0  0  0  0  0  0  0  0  0
   55.9050   21.1140   44.7180 C   0  0  0  0  0  0  0  0  0  0  0  0
   55.5780   19.7500   45.7830 Cl  0  0  0  0  0  0  0  0  0  0  0  0
   58.5020   24.8120   46.2100 C   0  0  0  0  0  0  0  0  0  0  0  0
   58.8890   25.9280   45.4630 C   0  0  0  0  0  0  0  0  0  0  0  0
   58.0180   30.6040   45.0250 C   0  0  0  0  0  0  0  0  0  0  0  0
   57.0330   30.8650   43.9080 C   0  0  0  0  0  0  0  0  0  0  0  0
   55.8430   29.9630   44.0210 C   0  0  0  0  0  0  0  0  0  0  0  0
   55.1490   29.7000   43.0030 O   0  0  0  0  0  0  0  0  0  0  0  0
   55.5090   29.3990   45.2460 O   0  0  0  0  0  0  0  0  0  0  0  0
   58.2670   31.6380   45.9450 C   0  0  0  0  0  0  0  0  0  0  0  0
   59.4320   33.8350   47.8150 C   0  0  0  0  0  0  0  0  0  0  0  0
   59.6310   34.4780   48.9780 N   0  0  0  0  0  0  0  0  0  0  0  0
   59.6440   33.5020   49.9140 C   0  0  0  0  0  0  0  0  0  0  0  0
   59.8490   33.8200   51.3360 C   0  0  0  0  0  0  0  0  0  0  0  0
   58.9030   34.1660   52.0880 O   0  0  0  0  0  0  0  0  0  0  0  0
   57.2670   31.6060   50.9460 C   0  0  0  0  0  0  0  0  0  0  0  0
   56.1110   31.3160   51.6780 C   0  0  0  0  0  0  0  0  0  0  0  0
   54.6000   27.8560   52.0190 H   0  0  0  0  0  0  0  0  0  0  0  0
   53.0640   28.5280   52.0790 H   0  0  0  0  0  0  0  0  0  0  0  0
   57.0359   28.3017   53.0000 H   0  0  0  0  0  0  0  0  0  0  0  0
   59.0867   28.8029   51.6791 H   0  0  0  0  0  0  0  0  0  0  0  0
   60.4561   30.9480   50.6861 H   0  0  0  0  0  0  0  0  0  0  0  0
   59.5905   30.1709   49.2988 H   0  0  0  0  0  0  0  0  0  0  0  0
   60.6764   30.1594   47.8588 H   0  0  0  0  0  0  0  0  0  0  0  0
   60.2640   28.3116   46.2497 H   0  0  0  0  0  0  0  0  0  0  0  0
   57.5007   28.3694   43.6967 H   0  0  0  0  0  0  0  0  0  0  0  0
   59.2265   27.8521   43.7389 H   0  0  0  0  0  0  0  0  0  0  0  0
   56.0442   27.8031   45.7759 H   0  0  0  0  0  0  0  0  0  0  0  0
   55.3496   25.8021   47.0931 H   0  0  0  0  0  0  0  0  0  0  0  0
   55.1480   24.4039   44.1092 H   0  0  0  0  0  0  0  0  0  0  0  0
   56.6459   23.9811   42.1693 H   0  0  0  0  0  0  0  0  0  0  0  0
   57.6717   21.7308   41.8482 H   0  0  0  0  0  0  0  0  0  0  0  0
   57.2053   19.9011   43.4739 H   0  0  0  0  0  0  0  0  0  0  0  0
   59.2040   23.9770   46.3517 H   0  0  0  0  0  0  0  0  0  0  0  0
   59.8992   25.9728   45.0300 H   0  0  0  0  0  0  0  0  0  0  0  0
   56.6977   31.9113   43.9611 H   0  0  0  0  0  0  0  0  0  0  0  0
   57.5319   30.6687   42.9475 H   0  0  0  0  0  0  0  0  0  0  0  0
   57.7527   32.6035   45.8293 H   0  0  0  0  0  0  0  0  0  0  0  0
   59.3726   34.3133   46.8262 H   0  0  0  0  0  0  0  0  0  0  0  0
   60.8639   33.7527   51.7549 H   0  0  0  0  0  0  0  0  0  0  0  0
   57.3303   32.5414   50.3707 H   0  0  0  0  0  0  0  0  0  0  0  0
   55.2676   32.0221   51.6727 H   0  0  0  0  0  0  0  0  0  0  0  0
  1  2  1  0
  2  3  2  0
  2  4  2  0
  2  5  1  0
  5  6  2  0
  6  7  1  0
  7  8  2  0
  8  9  1  0
  9 10  1  0
 10 11  1  0
 11 12  1  0
 12 13  2  0
 13 14  1  0
 14 15  2  0
 15 16  1  0
 16 17  1  0
 17 18  2  0
 18 19  1  0
 19 20  2  0
 20 21  1  0
 21 22  2  0
 21 23  2  0
 21 24  1  0
 24 25  1  0
 25 26  2  0
 25 27  1  0
 27 28  2  0
 28 29  1  0
 29 30  2  0
 30 31  1  0
 31 32  2  0
 32 33  1  0
 20 34  1  0
 34 35  2  0
 15 36  1  0
 36 37  1  0
 37 38  1  0
 38 39  2  0
 38 40  1  0
 36 41  2  0
 11 42  2  0
 42 43  1  0
 43 44  2  0
 44 45  1  0
 45 46  2  0
  8 47  1  0
 47 48  2  0
 48  5  1  0
 44 10  1  0
 41 12  1  0
 35 17  1  0
 32 27  1  0
  1 49  1  0
  1 50  1  0
  6 51  1  0
  7 52  1  0
  9 53  1  0
  9 54  1  0
 13 55  1  0
 14 56  1  0
 16 57  1  0
 16 58  1  0
 18 59  1  0
 19 60  1  0
 28 61  1  0
 29 62  1  0
 30 63  1  0
 31 64  1  0
 34 65  1  0
 35 66  1  0
 37 67  1  0
 37 68  1  0
 41 69  1  0
 42 70  1  0
 45 71  1  0
 47 72  1  0
 48 73  1  0
M  CHG  2  24  -1  40  -1
M  END
>  <UniqueID>  (34) 
31

>  <SMILES>  (34) 
NS(=O)(=O)c1ccc(Cn2c(-c3ccc(Cc4ccc(S(=O)(=O)[N-]C(=O)c5ccccc5Cl)cc4)c(CC(=O)[O-])c3)cnc2C=O)cc1

>  <Energy>  (34) 
116.57446612320032

>  <Genealogy>  (34) 
NS(=O)(=O)c1ccc(Cn2c(-c3ccc(Cc4ccc(S(=O)(=O)[N-]C(=O)c5ccccc5Cl)cc4)c(CC(=O)[O-])c3)cnc2C=O)cc1 (protonated)
NS(=O)(=O)c1ccc(Cn2c(-c3ccc(Cc4ccc(S(=O)(=O)[N-]C(=O)c5ccccc5Cl)cc4)c(CC(=O)[O-])c3)cnc2C=O)cc1 (3D coordinates assigned)
NS(=O)(=O)c1ccc(Cn2c(-c3ccc(Cc4ccc(S(=O)(=O)[N-]C(=O)c5ccccc5Cl)cc4)c(CC(=O)[O-])c3)cnc2C=O)cc1 (optimized conformer: 116.57446612320032 kcal/mol)

>  <smiles>  (34) 
NS(=O)(=O)c1ccc(Cn2c(-c3ccc(Cc4ccc(S(=O)(=O)NC(=O)c5ccccc5Cl)cc4)c(CC(=O)O)c3)cnc2C=O)cc1

>  <score_type>  (34) 
oracle

>  <origin>  (34) 
adg

>  <m_score__min__energy>  (34) 
-14.470000000000001

>  <m_primary>  (34) 
energy

$$$$
34:0
     RDKit          3D

 25 26  0  0  0  0  0  0  0  0999 V2000
   55.1410   28.0330   44.9000 H   0  0  0  0  0  0  0  0  0  0  0  0
   55.1420   29.0350   44.7520 O   0  0  0  0  0  0  0  0  0  0  0  0
   56.3260   29.7610   44.6360 C   0  0  0  0  0  0  0  0  0  0  0  0
   56.2580   31.1510   44.4650 C   0  0  0  0  0  0  0  0  0  0  0  0
   55.2791   31.6439   44.3715 H   0  0  0  0  0  0  0  0  0  0  0  0
   57.4250   31.9110   44.4130 C   0  0  0  0  0  0  0  0  0  0  0  0
   57.3732   33.0014   44.2772 H   0  0  0  0  0  0  0  0  0  0  0  0
   58.6580   31.2740   44.5350 C   0  0  0  0  0  0  0  0  0  0  0  0
   59.5866   31.8632   44.5107 H   0  0  0  0  0  0  0  0  0  0  0  0
   58.7130   29.9250   44.6840 N   0  0  0  0  0  0  0  0  0  0  0  0
   57.6010   29.1410   44.7200 C   0  0  0  0  0  0  0  0  0  0  0  0
   57.7710   27.8540   44.8530 N   0  0  0  0  0  0  0  0  0  0  0  0
   57.2370   26.9860   45.8620 C   0  0  0  0  0  0  0  0  0  0  0  0
   57.3140   27.3460   47.0660 O   0  0  0  0  0  0  0  0  0  0  0  0
   56.7020   25.6400   45.5190 C   0  0  0  0  0  0  0  0  0  0  0  0
   57.5830   24.6240   45.1040 C   0  0  0  0  0  0  0  0  0  0  0  0
   58.6612   24.8316   45.0381 H   0  0  0  0  0  0  0  0  0  0  0  0
   57.1020   23.3550   44.7750 C   0  0  0  0  0  0  0  0  0  0  0  0
   57.8017   22.5705   44.4509 H   0  0  0  0  0  0  0  0  0  0  0  0
   55.7370   23.0790   44.8560 C   0  0  0  0  0  0  0  0  0  0  0  0
   55.2730   21.8110   44.5250 O   0  0  0  0  0  0  0  0  0  0  0  0
   54.8430   24.0750   45.2670 C   0  0  0  0  0  0  0  0  0  0  0  0
   52.9670   23.6930   45.3730 Br  0  0  0  0  0  0  0  0  0  0  0  0
   55.3210   25.3540   45.5980 C   0  0  0  0  0  0  0  0  0  0  0  0
   54.4140   26.3370   45.9860 O   0  0  0  0  0  0  0  0  0  0  0  0
  1  2  1  0
  2  3  1  0
  3  4  2  0
  4  5  1  0
  4  6  1  0
  6  7  1  0
  6  8  2  0
  8  9  1  0
  8 10  1  0
 10 11  1  0
 11 12  2  0
 12 13  1  0
 13 14  2  0
 13 15  1  0
 15 16  2  0
 16 17  1  0
 16 18  1  0
 18 19  1  0
 18 20  2  0
 20 21  1  0
 20 22  1  0
 22 23  1  0
 22 24  2  0
 24 25  1  0
 11  3  1  0
 24 15  1  0
M  CHG  3  10  -1  21  -1  25  -1
M  END
>  <UniqueID>  (35) 
32

>  <SMILES>  (35) 
O=C(/N=c1/[n-]cccc1O)c1ccc([O-])c(Br)c1[O-]

>  <Energy>  (35) 
42.67061841460442

>  <Genealogy>  (35) 
O=C(N=c1[n-]cccc1O)c1ccc([O-])c(Br)c1[O-] (protonated)
O=C(/N=c1/[n-]cccc1O)c1ccc([O-])c(Br)c1[O-] (cis-trans isomerization)
O=C(/N=c1/[n-]cccc1O)c1ccc([O-])c(Br)c1[O-] (3D coordinates assigned)
O=C(/N=c1/[n-]cccc1O)c1ccc([O-])c(Br)c1[O-] (optimized conformer: 42.67061841460442 kcal/mol)

>  <smiles>  (35) 
O=C(N=c1[nH]cccc1O)c1ccc(O)c(Br)c1O

>  <score_type>  (35) 
oracle

>  <origin>  (35) 
adg

>  <m_score__min__energy>  (35) 
-14.23

>  <m_primary>  (35) 
energy

$$$$
35:0
     RDKit          3D

 57 60  0  0  0  0  0  0  0  0999 V2000
   59.5570   29.9060   50.1650 C   0  0  0  0  0  0  0  0  0  0  0  0
   59.9760   28.7470   49.3810 N   0  0  0  0  0  0  0  0  0  0  0  0
   60.6020   27.6560   49.8660 C   0  0  0  0  0  0  0  0  0  0  0  0
   60.8310   26.7210   48.9200 N   0  0  0  0  0  0  0  0  0  0  0  0
   60.3300   27.2590   47.7890 C   0  0  0  0  0  0  0  0  0  0  0  0
   59.8180   28.5090   48.0620 C   0  0  0  0  0  0  0  0  0  0  0  0
   59.1780   29.4030   47.0720 C   0  0  0  0  0  0  0  0  0  0  0  0
   59.5260   30.6140   47.0300 O   0  0  0  0  0  0  0  0  0  0  0  0
   58.1190   28.9320   46.2270 N   0  0  0  0  0  0  0  0  0  0  0  0
   57.7370   29.5620   44.9910 C   0  0  0  0  0  0  0  0  0  0  0  0
   57.0150   28.8680   44.0050 C   0  0  0  0  0  0  0  0  0  0  0  0
   56.6420   29.5090   42.8220 C   0  0  0  0  0  0  0  0  0  0  0  0
   56.9660   30.8510   42.6180 C   0  0  0  0  0  0  0  0  0  0  0  0
   57.6540   31.5700   43.6070 C   0  0  0  0  0  0  0  0  0  0  0  0
   57.9820   33.0250   43.3930 C   0  0  0  0  0  0  0  0  0  0  0  0
   57.5400   33.8300   44.5330 N   0  0  0  0  0  0  0  0  0  0  0  0
   58.2520   33.9360   45.7810 C   0  0  0  0  0  0  0  0  0  0  0  0
   59.3410   34.8130   45.9460 C   0  0  0  0  0  0  0  0  0  0  0  0
   60.0160   34.8820   47.1680 C   0  0  0  0  0  0  0  0  0  0  0  0
   59.6120   34.0860   48.2480 C   0  0  0  0  0  0  0  0  0  0  0  0
   60.3400   34.1780   49.5630 C   0  0  0  0  0  0  0  0  0  0  0  0
   61.5950   33.3990   49.5100 N   0  0  0  0  0  0  0  0  0  0  0  0
   62.7320   34.2720   49.1350 C   0  0  0  0  0  0  0  0  0  0  0  0
   63.9720   33.4650   48.7470 C   0  0  0  0  0  0  0  0  0  0  0  0
   63.7480   32.6110   47.1430 S   0  0  0  0  0  0  0  0  0  0  0  0
   61.9330   32.3780   47.2310 C   0  0  0  0  0  0  0  0  0  0  0  0
   61.4600   32.1780   48.6750 C   0  0  0  0  0  0  0  0  0  0  0  0
   58.5210   33.2170   48.0910 C   0  0  0  0  0  0  0  0  0  0  0  0
   57.8470   33.1450   46.8680 C   0  0  0  0  0  0  0  0  0  0  0  0
   58.0430   30.9170   44.7880 C   0  0  0  0  0  0  0  0  0  0  0  0
   59.6411   29.6734   51.2368 H   0  0  0  0  0  0  0  0  0  0  0  0
   60.2018   30.7640   49.9243 H   0  0  0  0  0  0  0  0  0  0  0  0
   58.5125   30.1533   49.9243 H   0  0  0  0  0  0  0  0  0  0  0  0
   60.8948   27.5402   50.9200 H   0  0  0  0  0  0  0  0  0  0  0  0
   60.3301   26.7748   46.8013 H   0  0  0  0  0  0  0  0  0  0  0  0
   57.5180   28.1590   46.5890 H   0  0  0  0  0  0  0  0  0  0  0  0
   56.7424   27.8146   44.1661 H   0  0  0  0  0  0  0  0  0  0  0  0
   56.0909   28.9544   42.0482 H   0  0  0  0  0  0  0  0  0  0  0  0
   56.6809   31.3469   41.6784 H   0  0  0  0  0  0  0  0  0  0  0  0
   59.0698   33.1358   43.2733 H   0  0  0  0  0  0  0  0  0  0  0  0
   57.4602   33.3753   42.4902 H   0  0  0  0  0  0  0  0  0  0  0  0
   56.6240   34.3270   44.4380 H   0  0  0  0  0  0  0  0  0  0  0  0
   59.6628   35.4482   45.1075 H   0  0  0  0  0  0  0  0  0  0  0  0
   60.8700   35.5657   47.2826 H   0  0  0  0  0  0  0  0  0  0  0  0
   60.5754   35.2315   49.7745 H   0  0  0  0  0  0  0  0  0  0  0  0
   59.6980   33.7687   50.3569 H   0  0  0  0  0  0  0  0  0  0  0  0
   62.4331   34.8964   48.2801 H   0  0  0  0  0  0  0  0  0  0  0  0
   62.9885   34.8890   50.0088 H   0  0  0  0  0  0  0  0  0  0  0  0
   64.8319   34.1468   48.6711 H   0  0  0  0  0  0  0  0  0  0  0  0
   64.1415   32.7023   49.5213 H   0  0  0  0  0  0  0  0  0  0  0  0
   61.4381   33.2670   46.8130 H   0  0  0  0  0  0  0  0  0  0  0  0
   61.6731   31.4772   46.6556 H   0  0  0  0  0  0  0  0  0  0  0  0
   60.4008   31.8816   48.6579 H   0  0  0  0  0  0  0  0  0  0  0  0
   62.0990   31.4032   49.1237 H   0  0  0  0  0  0  0  0  0  0  0  0
   58.1948   32.5898   48.9338 H   0  0  0  0  0  0  0  0  0  0  0  0
   56.9917   32.4624   46.7565 H   0  0  0  0  0  0  0  0  0  0  0  0
   58.5930   31.4728   45.5617 H   0  0  0  0  0  0  0  0  0  0  0  0
  1  2  1  0
  2  3  1  0
  3  4  2  0
  4  5  1  0
  5  6  2  0
  6  7  1  0
  7  8  2  0
  7  9  1  0
  9 10  1  0
 10 11  2  0
 11 12  1  0
 12 13  2  0
 13 14  1  0
 14 15  1  0
 15 16  1  0
 16 17  1  0
 17 18  2  0
 18 19  1  0
 19 20  2  0
 20 21  1  0
 21 22  1  0
 22 23  1  0
 23 24  1  0
 24 25  1  0
 25 26  1  0
 26 27  1  0
 20 28  1  0
 28 29  2  0
 14 30  2  0
  6  2  1  0
 30 10  1  0
 29 17  1  0
 27 22  1  0
  1 31  1  0
  1 32  1  0
  1 33  1  0
  3 34  1  0
  5 35  1  0
  9 36  1  0
 11 37  1  0
 12 38  1  0
 13 39  1  0
 15 40  1  0
 15 41  1  0
 16 42  1  0
 18 43  1  0
 19 44  1  0
 21 45  1  0
 21 46  1  0
 23 47  1  0
 23 48  1  0
 24 49  1  0
 24 50  1  0
 26 51  1  0
 26 52  1  0
 27 53  1  0
 27 54  1  0
 28 55  1  0
 29 56  1  0
 30 57  1  0
M  END
>  <UniqueID>  (36) 
33

>  <SMILES>  (36) 
Cn1cncc1C(=O)Nc1cccc(CNc2ccc(CN3CCSCC3)cc2)c1

>  <Energy>  (36) 
99.64059728176439

>  <Genealogy>  (36) 
Cn1cncc1C(=O)Nc1cccc(CNc2ccc(CN3CCSCC3)cc2)c1 (3D coordinates assigned)
Cn1cncc1C(=O)Nc1cccc(CNc2ccc(CN3CCSCC3)cc2)c1 (nonaromatic ring conformer: 99.64059728176439 kcal/mol)

>  <smiles>  (36) 
Cn1cncc1C(=O)Nc1cccc(CNc2ccc(CN3CCSCC3)cc2)c1

>  <score_type>  (36) 
oracle

>  <origin>  (36) 
adg

>  <m_score__min__energy>  (36) 
-9.5099999999999998

>  <m_primary>  (36) 
energy

$$$$
36:0
     RDKit          3D

 25 26  0  0  0  0  0  0  0  0999 V2000
   56.4741   22.0032   41.4671 H   0  0  0  0  0  0  0  0  0  0  0  0
   56.6000   21.9240   42.5570 C   0  0  0  0  0  0  0  0  0  0  0  0
   55.7710   22.6010   43.3940 N   0  0  0  0  0  0  0  0  0  0  0  0
   55.9050   22.5210   44.7470 C   0  0  0  0  0  0  0  0  0  0  0  0
   55.1110   23.1650   45.5530 N   0  0  0  0  0  0  0  0  0  0  0  0
   55.2090   24.5400   45.9570 C   0  0  0  0  0  0  0  0  0  0  0  0
   54.2990   25.3370   45.6060 O   0  0  0  0  0  0  0  0  0  0  0  0
   56.2840   24.9940   46.7940 N   0  0  0  0  0  0  0  0  0  0  0  0
   57.0830   26.1700   46.6020 C   0  0  0  0  0  0  0  0  0  0  0  0
   58.2230   26.4330   47.3830 C   0  0  0  0  0  0  0  0  0  0  0  0
   58.5357   25.7160   48.1564 H   0  0  0  0  0  0  0  0  0  0  0  0
   58.9610   27.6060   47.1780 C   0  0  0  0  0  0  0  0  0  0  0  0
   60.3830   27.9290   48.1530 Cl  0  0  0  0  0  0  0  0  0  0  0  0
   58.5580   28.5250   46.2050 C   0  0  0  0  0  0  0  0  0  0  0  0
   59.1430   29.4416   46.0388 H   0  0  0  0  0  0  0  0  0  0  0  0
   57.4120   28.2800   45.4430 C   0  0  0  0  0  0  0  0  0  0  0  0
   56.8980   29.4420   44.2330 Cl  0  0  0  0  0  0  0  0  0  0  0  0
   56.6730   27.1110   45.6470 C   0  0  0  0  0  0  0  0  0  0  0  0
   55.7643   26.9284   45.0546 H   0  0  0  0  0  0  0  0  0  0  0  0
   56.9210   21.7190   45.2800 C   0  0  0  0  0  0  0  0  0  0  0  0
   57.0463   21.6372   46.3698 H   0  0  0  0  0  0  0  0  0  0  0  0
   57.7530   21.0410   44.4430 N   0  0  0  0  0  0  0  0  0  0  0  0
   58.5110   20.4440   44.8440 H   0  0  0  0  0  0  0  0  0  0  0  0
   57.6130   21.1270   43.0930 C   0  0  0  0  0  0  0  0  0  0  0  0
   58.2926   20.5730   42.4287 H   0  0  0  0  0  0  0  0  0  0  0  0
  1  2  1  0
  2  3  1  0
  3  4  1  0
  4  5  2  0
  5  6  1  0
  6  7  2  0
  6  8  1  0
  8  9  1  0
  9 10  2  0
 10 11  1  0
 10 12  1  0
 12 13  1  0
 12 14  2  0
 14 15  1  0
 14 16  1  0
 16 17  1  0
 16 18  2  0
 18 19  1  0
  4 20  1  0
 20 21  1  0
 20 22  2  0
 22 23  1  0
 22 24  1  0
 24 25  1  0
 24  2  2  0
 18  9  1  0
M  CHG  3   3  -1   8  -1  22   1
M  END
>  <UniqueID>  (37) 
34

>  <SMILES>  (37) 
O=C(/N=c1/c[nH+]cc[n-]1)[N-]c1cc(Cl)cc(Cl)c1

>  <Energy>  (37) 
32.661850862022305

>  <Genealogy>  (37) 
O=C(N=c1c[nH+]cc[n-]1)[N-]c1cc(Cl)cc(Cl)c1 (protonated)
O=C(/N=c1/c[nH+]cc[n-]1)[N-]c1cc(Cl)cc(Cl)c1 (cis-trans isomerization)
O=C(/N=c1/c[nH+]cc[n-]1)[N-]c1cc(Cl)cc(Cl)c1 (3D coordinates assigned)
O=C(/N=c1/c[nH+]cc[n-]1)[N-]c1cc(Cl)cc(Cl)c1 (optimized conformer: 32.661850862022305 kcal/mol)

>  <smiles>  (37) 
O=C(N=c1cncc[nH]1)Nc1cc(Cl)cc(Cl)c1

>  <score_type>  (37) 
oracle

>  <origin>  (37) 
adg

>  <m_score__min__energy>  (37) 
-7.8700000000000001

>  <m_primary>  (37) 
energy

$$$$
37:0
     RDKit          3D

 33 34  0  0  0  0  0  0  0  0999 V2000
   55.0830   26.7000   46.0000 O   0  0  0  0  0  0  0  0  0  0  0  0
   55.9660   25.8530   46.2940 C   0  0  0  0  0  0  0  0  0  0  0  0
   55.5920   24.6270   46.8300 O   0  0  0  0  0  0  0  0  0  0  0  0
   57.4090   26.1450   46.0240 C   0  0  0  0  0  0  0  0  0  0  0  0
   57.5810   27.2380   44.9600 C   0  0  0  0  0  0  0  0  0  0  0  0
   58.0800   28.5380   45.5600 C   0  0  0  0  0  0  0  0  0  0  0  0
   59.2670   28.5010   46.3060 C   0  0  0  0  0  0  0  0  0  0  0  0
   59.8240   29.6670   46.8210 C   0  0  0  0  0  0  0  0  0  0  0  0
   59.2070   30.9070   46.6100 C   0  0  0  0  0  0  0  0  0  0  0  0
   59.8190   32.1280   47.1870 C   0  0  0  0  0  0  0  0  0  0  0  0
   59.0390   33.0230   47.9410 C   0  0  0  0  0  0  0  0  0  0  0  0
   59.6120   34.1800   48.4780 C   0  0  0  0  0  0  0  0  0  0  0  0
   60.9640   34.4580   48.2600 C   0  0  0  0  0  0  0  0  0  0  0  0
   61.7450   33.5810   47.5040 C   0  0  0  0  0  0  0  0  0  0  0  0
   61.1770   32.4220   46.9670 C   0  0  0  0  0  0  0  0  0  0  0  0
   58.0180   30.9720   45.8560 C   0  0  0  0  0  0  0  0  0  0  0  0
   57.4250   32.2220   45.6450 O   0  0  0  0  0  0  0  0  0  0  0  0
   57.4460   29.7870   45.3260 C   0  0  0  0  0  0  0  0  0  0  0  0
   56.2090   29.8680   44.5260 C   0  0  0  0  0  0  0  0  0  0  0  0
   56.1020   30.7240   43.6100 O   0  0  0  0  0  0  0  0  0  0  0  0
   55.1460   29.0140   44.7950 O   0  0  0  0  0  0  0  0  0  0  0  0
   57.8852   26.4791   46.9576 H   0  0  0  0  0  0  0  0  0  0  0  0
   57.8790   25.2246   45.6472 H   0  0  0  0  0  0  0  0  0  0  0  0
   58.3059   26.8918   44.2086 H   0  0  0  0  0  0  0  0  0  0  0  0
   56.5979   27.4281   44.5047 H   0  0  0  0  0  0  0  0  0  0  0  0
   59.7644   27.5366   46.4864 H   0  0  0  0  0  0  0  0  0  0  0  0
   60.7581   29.6149   47.3996 H   0  0  0  0  0  0  0  0  0  0  0  0
   57.9727   32.8118   48.1092 H   0  0  0  0  0  0  0  0  0  0  0  0
   58.9978   34.8721   49.0727 H   0  0  0  0  0  0  0  0  0  0  0  0
   61.4134   35.3681   48.6841 H   0  0  0  0  0  0  0  0  0  0  0  0
   62.8085   33.8025   47.3309 H   0  0  0  0  0  0  0  0  0  0  0  0
   61.7953   31.7362   46.3692 H   0  0  0  0  0  0  0  0  0  0  0  0
   56.7560   32.4060   44.9080 H   0  0  0  0  0  0  0  0  0  0  0  0
  1  2  2  0
  2  3  1  0
  2  4  1  0
  4  5  1  0
  5  6  1  0
  6  7  2  0
  7  8  1  0
  8  9  2  0
  9 10  1  0
 10 11  2  0
 11 12  1  0
 12 13  2  0
 13 14  1  0
 14 15  2  0
  9 16  1  0
 16 17  1  0
 16 18  2  0
 18 19  1  0
 19 20  2  0
 19 21  1  0
 18  6  1  0
 15 10  1  0
  4 22  1  0
  4 23  1  0
  5 24  1  0
  5 25  1  0
  7 26  1  0
  8 27  1  0
 11 28  1  0
 12 29  1  0
 13 30  1  0
 14 31  1  0
 15 32  1  0
 17 33  1  0
M  CHG  2   3  -1  21  -1
M  END
>  <UniqueID>  (38) 
35

>  <SMILES>  (38) 
O=C([O-])CCc1ccc(-c2ccccc2)c(O)c1C(=O)[O-]

>  <Energy>  (38) 
47.039679080466506

>  <Genealogy>  (38) 
O=C([O-])CCc1ccc(-c2ccccc2)c(O)c1C(=O)[O-] (protonated)
O=C([O-])CCc1ccc(-c2ccccc2)c(O)c1C(=O)[O-] (3D coordinates assigned)
O=C([O-])CCc1ccc(-c2ccccc2)c(O)c1C(=O)[O-] (optimized conformer: 47.039679080466506 kcal/mol)

>  <smiles>  (38) 
O=C(O)CCc1ccc(-c2ccccc2)c(O)c1C(=O)O

>  <score_type>  (38) 
oracle

>  <origin>  (38) 
adg

>  <m_score__min__energy>  (38) 
-12.32

>  <m_primary>  (38) 
energy

$$$$
38:0
     RDKit          3D

 62 65  0  0  0  0  0  0  0  0999 V2000
   68.0860   32.8130   51.4450 N   0  0  0  0  0  0  0  0  0  0  0  0
   67.0180   31.5340   51.8990 S   0  0  0  0  0  0  0  0  0  0  0  0
   66.7380   31.6250   53.3730 O   0  0  0  0  0  0  0  0  0  0  0  0
   67.6640   30.2080   51.6100 O   0  0  0  0  0  0  0  0  0  0  0  0
   65.5180   31.6690   50.9870 C   0  0  0  0  0  0  0  0  0  0  0  0
   64.4100   30.8730   51.3090 C   0  0  0  0  0  0  0  0  0  0  0  0
   63.2230   30.9930   50.5790 C   0  0  0  0  0  0  0  0  0  0  0  0
   63.1210   31.9240   49.5370 C   0  0  0  0  0  0  0  0  0  0  0  0
   61.9000   32.0120   48.7840 N   0  0  0  0  0  0  0  0  0  0  0  0
   61.7370   31.4740   47.4620 C   0  0  0  0  0  0  0  0  0  0  0  0
   62.7510   31.2200   46.7540 O   0  0  0  0  0  0  0  0  0  0  0  0
   60.3830   31.2600   46.9020 C   0  0  0  0  0  0  0  0  0  0  0  0
   59.6000   32.3560   46.5000 C   0  0  0  0  0  0  0  0  0  0  0  0
   58.3250   32.1550   45.9690 C   0  0  0  0  0  0  0  0  0  0  0  0
   57.8160   30.8620   45.8370 C   0  0  0  0  0  0  0  0  0  0  0  0
   58.5710   29.7580   46.2500 C   0  0  0  0  0  0  0  0  0  0  0  0
   58.0170   28.4460   46.0690 N   0  0  0  0  0  0  0  0  0  0  0  0
   58.1790   27.5790   44.9390 C   0  0  0  0  0  0  0  0  0  0  0  0
   58.9470   27.9520   44.0110 O   0  0  0  0  0  0  0  0  0  0  0  0
   57.4260   26.3060   44.7880 C   0  0  0  0  0  0  0  0  0  0  0  0
   57.7890   25.3930   43.7800 C   0  0  0  0  0  0  0  0  0  0  0  0
   57.0750   24.2060   43.6060 C   0  0  0  0  0  0  0  0  0  0  0  0
   55.9900   23.9120   44.4340 C   0  0  0  0  0  0  0  0  0  0  0  0
   55.6030   24.8160   45.4350 C   0  0  0  0  0  0  0  0  0  0  0  0
   54.5450   24.5070   46.3480 N   0  0  0  0  0  0  0  0  0  0  0  0
   53.5800   23.4640   46.1730 C   0  0  0  0  0  0  0  0  0  0  0  0
   52.9680   23.3510   45.0770 O   0  0  0  0  0  0  0  0  0  0  0  0
   53.2820   22.5450   47.2900 C   0  0  0  0  0  0  0  0  0  0  0  0
   52.0740   21.8260   47.3290 C   0  0  0  0  0  0  0  0  0  0  0  0
   51.8030   20.9590   48.3900 C   0  0  0  0  0  0  0  0  0  0  0  0
   52.7440   20.7750   49.4060 C   0  0  0  0  0  0  0  0  0  0  0  0
   53.9720   21.4460   49.3570 C   0  0  0  0  0  0  0  0  0  0  0  0
   54.9700   21.2280   50.4220 C   0  0  0  0  0  0  0  0  0  0  0  0
   56.1630   21.8400   50.4870 C   0  0  0  0  0  0  0  0  0  0  0  0
   57.2880   21.6120   49.5560 C   0  0  0  0  0  0  0  0  0  0  0  0
   57.3470   22.2700   48.4850 O   0  0  0  0  0  0  0  0  0  0  0  0
   58.3230   20.7370   49.8670 O   0  0  0  0  0  0  0  0  0  0  0  0
   54.2200   22.3580   48.3180 C   0  0  0  0  0  0  0  0  0  0  0  0
   56.3200   26.0080   45.6050 C   0  0  0  0  0  0  0  0  0  0  0  0
   59.8620   29.9590   46.7720 C   0  0  0  0  0  0  0  0  0  0  0  0
   64.2370   32.7140   49.2080 C   0  0  0  0  0  0  0  0  0  0  0  0
   65.4270   32.5840   49.9310 C   0  0  0  0  0  0  0  0  0  0  0  0
   68.1250   33.4790   52.2490 H   0  0  0  0  0  0  0  0  0  0  0  0
   64.4742   30.1524   52.1376 H   0  0  0  0  0  0  0  0  0  0  0  0
   62.3635   30.3519   50.8247 H   0  0  0  0  0  0  0  0  0  0  0  0
   61.1260   32.5970   49.1750 H   0  0  0  0  0  0  0  0  0  0  0  0
   59.9943   33.3776   46.6045 H   0  0  0  0  0  0  0  0  0  0  0  0
   57.7197   33.0177   45.6537 H   0  0  0  0  0  0  0  0  0  0  0  0
   56.8156   30.7097   45.4058 H   0  0  0  0  0  0  0  0  0  0  0  0
   58.6428   25.6168   43.1236 H   0  0  0  0  0  0  0  0  0  0  0  0
   57.3680   23.5006   42.8145 H   0  0  0  0  0  0  0  0  0  0  0  0
   55.4376   22.9701   44.3014 H   0  0  0  0  0  0  0  0  0  0  0  0
   51.3388   21.9470   46.5198 H   0  0  0  0  0  0  0  0  0  0  0  0
   50.8452   20.4192   48.4257 H   0  0  0  0  0  0  0  0  0  0  0  0
   52.5198   20.1015   50.2463 H   0  0  0  0  0  0  0  0  0  0  0  0
   54.7184   20.5132   51.2193 H   0  0  0  0  0  0  0  0  0  0  0  0
   56.3153   22.5686   51.2970 H   0  0  0  0  0  0  0  0  0  0  0  0
   55.1586   22.9316   48.3095 H   0  0  0  0  0  0  0  0  0  0  0  0
   56.0144   26.7192   46.3866 H   0  0  0  0  0  0  0  0  0  0  0  0
   60.4678   29.0942   47.0804 H   0  0  0  0  0  0  0  0  0  0  0  0
   64.1737   33.4357   48.3802 H   0  0  0  0  0  0  0  0  0  0  0  0
   66.2967   33.2043   49.6685 H   0  0  0  0  0  0  0  0  0  0  0  0
  1  2  1  0
  2  3  2  0
  2  4  2  0
  2  5  1  0
  5  6  2  0
  6  7  1  0
  7  8  2  0
  8  9  1  0
  9 10  1  0
 10 11  2  0
 10 12  1  0
 12 13  2  0
 13 14  1  0
 14 15  2  0
 15 16  1  0
 16 17  1  0
 17 18  1  0
 18 19  2  0
 18 20  1  0
 20 21  2  0
 21 22  1  0
 22 23  2  0
 23 24  1  0
 24 25  1  0
 25 26  1  0
 26 27  2  0
 26 28  1  0
 28 29  2  0
 29 30  1  0
 30 31  2  0
 31 32  1  0
 32 33  1  0
 33 34  2  3
 34 35  1  0
 35 36  2  0
 35 37  1  0
 32 38  2  0
 24 39  2  0
 16 40  2  0
  8 41  1  0
 41 42  2  0
 42  5  1  0
 40 12  1  0
 39 20  1  0
 38 28  1  0
  1 43  1  0
  6 44  1  0
  7 45  1  0
  9 46  1  0
 13 47  1  0
 14 48  1  0
 15 49  1  0
 21 50  1  0
 22 51  1  0
 23 52  1  0
 29 53  1  0
 30 54  1  0
 31 55  1  0
 33 56  1  0
 34 57  1  0
 38 58  1  0
 39 59  1  0
 40 60  1  0
 41 61  1  0
 42 62  1  0
M  CHG  4   1  -1  17  -1  25  -1  37  -1
M  END
>  <UniqueID>  (39) 
36

>  <SMILES>  (39) 
[NH-]S(=O)(=O)c1ccc(NC(=O)c2cccc([N-]C(=O)c3cccc([N-]C(=O)c4cccc(C=CC(=O)[O-])c4)c3)c2)cc1

>  <Energy>  (39) 
90.59889601493163

>  <Genealogy>  (39) 
[NH-]S(=O)(=O)c1ccc(NC(=O)c2cccc([N-]C(=O)c3cccc([N-]C(=O)c4cccc(C=CC(=O)[O-])c4)c3)c2)cc1 (protonated)
[NH-]S(=O)(=O)c1ccc(NC(=O)c2cccc([N-]C(=O)c3cccc([N-]C(=O)c4cccc(C=CC(=O)[O-])c4)c3)c2)cc1 (3D coordinates assigned)
[NH-]S(=O)(=O)c1ccc(NC(=O)c2cccc([N-]C(=O)c3cccc([N-]C(=O)c4cccc(C=CC(=O)[O-])c4)c3)c2)cc1 (optimized conformer: 90.59889601493163 kcal/mol)

>  <smiles>  (39) 
NS(=O)(=O)c1ccc(NC(=O)c2cccc(NC(=O)c3cccc(NC(=O)c4cccc(C=CC(=O)O)c4)c3)c2)cc1

>  <score_type>  (39) 
oracle

>  <origin>  (39) 
adg

>  <m_score__min__energy>  (39) 
-18.289999999999999

>  <m_primary>  (39) 
energy

$$$$
39:0
     RDKit          3D

 40 42  0  0  0  0  0  0  0  0999 V2000
   62.5120   30.4000   46.2790 H   0  0  0  0  0  0  0  0  0  0  0  0
   61.6400   30.6320   46.8030 N   0  0  0  0  0  0  0  0  0  0  0  0
   60.5080   30.0360   46.5850 C   0  0  0  0  0  0  0  0  0  0  0  0
   59.2550   30.7180   46.7800 N   0  0  0  0  0  0  0  0  0  0  0  0
   58.4080   30.1410   46.9870 H   0  0  0  0  0  0  0  0  0  0  0  0
   59.1190   32.1460   46.8290 C   0  0  0  0  0  0  0  0  0  0  0  0
   59.5920   32.8270   47.9600 C   0  0  0  0  0  0  0  0  0  0  0  0
   60.0122   32.2586   48.8029 H   0  0  0  0  0  0  0  0  0  0  0  0
   59.5340   34.2200   48.0250 C   0  0  0  0  0  0  0  0  0  0  0  0
   59.9163   34.7453   48.9126 H   0  0  0  0  0  0  0  0  0  0  0  0
   58.9910   34.9470   46.9640 C   0  0  0  0  0  0  0  0  0  0  0  0
   58.9587   36.0455   47.0107 H   0  0  0  0  0  0  0  0  0  0  0  0
   58.4890   34.2820   45.8440 C   0  0  0  0  0  0  0  0  0  0  0  0
   58.0591   34.8611   45.0135 H   0  0  0  0  0  0  0  0  0  0  0  0
   58.5280   32.8780   45.7680 C   0  0  0  0  0  0  0  0  0  0  0  0
   57.9070   32.2010   44.6060 C   0  0  0  0  0  0  0  0  0  0  0  0
   57.0270   31.2680   44.7180 N   0  0  0  0  0  0  0  0  0  0  0  0
   56.6480   30.9050   45.6220 H   0  0  0  0  0  0  0  0  0  0  0  0
   56.5980   30.8100   43.4030 C   0  0  0  0  0  0  0  0  0  0  0  0
   56.8136   29.7389   43.2755 H   0  0  0  0  0  0  0  0  0  0  0  0
   55.5148   30.9289   43.2528 H   0  0  0  0  0  0  0  0  0  0  0  0
   57.4200   31.6510   42.4120 C   0  0  0  0  0  0  0  0  0  0  0  0
   58.0577   31.0075   41.7881 H   0  0  0  0  0  0  0  0  0  0  0  0
   56.7883   32.2208   41.7147 H   0  0  0  0  0  0  0  0  0  0  0  0
   58.2260   32.5070   43.2620 N   0  0  0  0  0  0  0  0  0  0  0  0
   58.9540   33.1800   42.9330 H   0  0  0  0  0  0  0  0  0  0  0  0
   60.5080   28.5820   46.2220 C   0  0  0  0  0  0  0  0  0  0  0  0
   61.0032   28.4508   45.2486 H   0  0  0  0  0  0  0  0  0  0  0  0
   61.0478   28.0191   46.9977 H   0  0  0  0  0  0  0  0  0  0  0  0
   59.0980   28.0670   46.1350 C   0  0  0  0  0  0  0  0  0  0  0  0
   58.2310   28.5360   45.1340 C   0  0  0  0  0  0  0  0  0  0  0  0
   58.5918   29.2645   44.3930 H   0  0  0  0  0  0  0  0  0  0  0  0
   56.9100   28.0790   45.0770 C   0  0  0  0  0  0  0  0  0  0  0  0
   56.2367   28.4434   44.2872 H   0  0  0  0  0  0  0  0  0  0  0  0
   56.4440   27.1600   46.0220 C   0  0  0  0  0  0  0  0  0  0  0  0
   55.1320   26.7070   45.9630 O   0  0  0  0  0  0  0  0  0  0  0  0
   57.3000   26.6970   47.0270 C   0  0  0  0  0  0  0  0  0  0  0  0
   56.9332   25.9747   47.7711 H   0  0  0  0  0  0  0  0  0  0  0  0
   58.6210   27.1510   47.0870 C   0  0  0  0  0  0  0  0  0  0  0  0
   59.2891   26.7895   47.8826 H   0  0  0  0  0  0  0  0  0  0  0  0
  1  2  1  0
  2  3  2  0
  3  4  1  0
  4  5  1  0
  4  6  1  0
  6  7  2  0
  7  8  1  0
  7  9  1  0
  9 10  1  0
  9 11  2  0
 11 12  1  0
 11 13  1  0
 13 14  1  0
 13 15  2  0
 15 16  1  0
 16 17  2  0
 17 18  1  0
 17 19  1  0
 19 20  1  0
 19 21  1  0
 19 22  1  0
 22 23  1  0
 22 24  1  0
 22 25  1  0
 25 26  1  0
  3 27  1  0
 27 28  1  0
 27 29  1  0
 27 30  1  0
 30 31  2  0
 31 32  1  0
 31 33  1  0
 33 34  1  0
 33 35  2  0
 35 36  1  0
 35 37  1  0
 37 38  1  0
 37 39  2  0
 39 40  1  0
 15  6  1  0
 25 16  1  0
 39 30  1  0
M  CHG  2  17   1  36  -1
M  END
>  <UniqueID>  (40) 
37

>  <SMILES>  (40) 
[H]/N=C(/Cc1ccc([O-])cc1)Nc1ccccc1C1=[NH+]CCN1

>  <Energy>  (40) 
59.6224548929858

>  <Genealogy>  (40) 
N=C(Cc1ccc([O-])cc1)Nc1ccccc1C1=[NH+]CCN1 (protonated)
[H]/N=C(/Cc1ccc([O-])cc1)Nc1ccccc1C1=[NH+]CCN1 (cis-trans isomerization)
[H]/N=C(/Cc1ccc([O-])cc1)Nc1ccccc1C1=[NH+]CCN1 (3D coordinates assigned)
[H]/N=C(/Cc1ccc([O-])cc1)Nc1ccccc1C1=[NH+]CCN1 (nonaromatic ring conformer: 59.6224548929858 kcal/mol)

>  <smiles>  (40) 
N=C(Cc1ccc(O)cc1)Nc1ccccc1C1=NCCN1

>  <score_type>  (40) 
oracle

>  <origin>  (40) 
adg

>  <m_score__min__energy>  (40) 
-8.8200000000000003

>  <m_primary>  (40) 
energy

$$$$
40:0
     RDKit          3D

 41 43  0  0  0  0  0  0  0  0999 V2000
   57.3560   33.1680   47.1550 N   0  0  0  0  0  0  0  0  0  0  0  0
   58.1230   33.6150   45.9940 C   0  0  0  0  0  0  0  0  0  0  0  0
   57.7570   32.8170   44.7670 C   0  0  0  0  0  0  0  0  0  0  0  0
   58.4110   33.0560   43.5470 C   0  0  0  0  0  0  0  0  0  0  0  0
   58.1140   32.2770   42.4250 C   0  0  0  0  0  0  0  0  0  0  0  0
   57.1680   31.2520   42.5120 C   0  0  0  0  0  0  0  0  0  0  0  0
   56.5020   31.0050   43.7230 C   0  0  0  0  0  0  0  0  0  0  0  0
   55.5250   29.8670   43.8310 C   0  0  0  0  0  0  0  0  0  0  0  0
   55.9670   28.9340   44.8630 N   0  0  0  0  0  0  0  0  0  0  0  0
   57.2930   28.3930   44.8960 C   0  0  0  0  0  0  0  0  0  0  0  0
   58.2000   28.8870   44.1740 O   0  0  0  0  0  0  0  0  0  0  0  0
   57.5890   27.3180   45.7940 N   0  0  0  0  0  0  0  0  0  0  0  0
   57.0760   25.9820   45.6840 C   0  0  0  0  0  0  0  0  0  0  0  0
   57.9800   24.9300   45.5150 C   0  0  0  0  0  0  0  0  0  0  0  0
   57.5260   23.6140   45.4010 C   0  0  0  0  0  0  0  0  0  0  0  0
   56.1520   23.3190   45.4710 C   0  0  0  0  0  0  0  0  0  0  0  0
   55.6650   21.9190   45.3330 C   0  0  0  0  0  0  0  0  0  0  0  0
   54.6310   21.3070   46.0200 C   0  0  0  0  0  0  0  0  0  0  0  0
   54.5200   20.0300   45.6110 N   0  0  0  0  0  0  0  0  0  0  0  0
   55.4410   19.7990   44.6880 N   0  0  0  0  0  0  0  0  0  0  0  0
   56.1510   20.9280   44.4990 C   0  0  0  0  0  0  0  0  0  0  0  0
   55.2470   24.3780   45.6810 C   0  0  0  0  0  0  0  0  0  0  0  0
   55.7020   25.6960   45.8020 C   0  0  0  0  0  0  0  0  0  0  0  0
   54.7820   26.7040   46.0720 O   0  0  0  0  0  0  0  0  0  0  0  0
   56.8120   31.7820   44.8530 C   0  0  0  0  0  0  0  0  0  0  0  0
   57.9950   33.1200   47.9830 H   0  0  0  0  0  0  0  0  0  0  0  0
   56.6170   33.8800   47.3670 H   0  0  0  0  0  0  0  0  0  0  0  0
   57.9096   34.6781   45.8090 H   0  0  0  0  0  0  0  0  0  0  0  0
   59.1931   33.4684   46.2022 H   0  0  0  0  0  0  0  0  0  0  0  0
   59.1594   33.8589   43.4743 H   0  0  0  0  0  0  0  0  0  0  0  0
   58.6262   32.4713   41.4711 H   0  0  0  0  0  0  0  0  0  0  0  0
   56.9444   30.6364   41.6283 H   0  0  0  0  0  0  0  0  0  0  0  0
   54.5327   30.2611   44.0954 H   0  0  0  0  0  0  0  0  0  0  0  0
   55.4695   29.3423   42.8658 H   0  0  0  0  0  0  0  0  0  0  0  0
   55.2460   28.5210   45.4960 H   0  0  0  0  0  0  0  0  0  0  0  0
   59.0589   25.1401   45.4713 H   0  0  0  0  0  0  0  0  0  0  0  0
   58.2505   22.7993   45.2549 H   0  0  0  0  0  0  0  0  0  0  0  0
   53.9993   21.7889   46.7808 H   0  0  0  0  0  0  0  0  0  0  0  0
   56.9861   21.0438   43.7925 H   0  0  0  0  0  0  0  0  0  0  0  0
   54.1698   24.1665   45.7507 H   0  0  0  0  0  0  0  0  0  0  0  0
   56.3110   31.5778   45.8107 H   0  0  0  0  0  0  0  0  0  0  0  0
  1  2  1  0
  2  3  1  0
  3  4  2  0
  4  5  1  0
  5  6  2  0
  6  7  1  0
  7  8  1  0
  8  9  1  0
  9 10  1  0
 10 11  2  0
 10 12  1  0
 12 13  1  0
 13 14  2  0
 14 15  1  0
 15 16  2  0
 16 17  1  0
 17 18  1  0
 18 19  2  0
 19 20  1  0
 20 21  1  0
 16 22  1  0
 22 23  2  0
 23 24  1  0
  7 25  2  0
 25  3  1  0
 23 13  1  0
 21 17  2  0
  1 26  1  0
  1 27  1  0
  2 28  1  0
  2 29  1  0
  4 30  1  0
  5 31  1  0
  6 32  1  0
  8 33  1  0
  8 34  1  0
  9 35  1  0
 14 36  1  0
 15 37  1  0
 18 38  1  0
 21 39  1  0
 22 40  1  0
 25 41  1  0
M  CHG  3  12  -1  20  -1  24  -1
M  END
>  <UniqueID>  (41) 
38

>  <SMILES>  (41) 
NCc1cccc(CNC(=O)[N-]c2ccc(-c3cn[n-]c3)cc2[O-])c1

>  <Energy>  (41) 
76.38841629427182

>  <Genealogy>  (41) 
NCc1cccc(CNC(=O)[N-]c2ccc(-c3cn[n-]c3)cc2[O-])c1 (protonated)
NCc1cccc(CNC(=O)[N-]c2ccc(-c3cn[n-]c3)cc2[O-])c1 (3D coordinates assigned)
NCc1cccc(CNC(=O)[N-]c2ccc(-c3cn[n-]c3)cc2[O-])c1 (optimized conformer: 76.38841629427182 kcal/mol)

>  <smiles>  (41) 
NCc1cccc(CNC(=O)Nc2ccc(-c3cn[nH]c3)cc2O)c1

>  <score_type>  (41) 
oracle

>  <origin>  (41) 
adg

>  <m_score__min__energy>  (41) 
-14.34

>  <m_primary>  (41) 
energy

$$$$
41:0
     RDKit          3D

 42 44  0  0  0  0  0  0  0  0999 V2000
   55.1550   29.3390   44.8200 O   0  0  0  0  0  0  0  0  0  0  0  0
   56.3300   28.8870   44.8790 C   0  0  0  0  0  0  0  0  0  0  0  0
   57.3890   29.4990   43.9990 C   0  0  0  0  0  0  0  0  0  0  0  0
   57.0270   30.9370   43.5970 C   0  0  0  0  0  0  0  0  0  0  0  0
   57.5690   31.9350   44.5770 C   0  0  0  0  0  0  0  0  0  0  0  0
   57.9570   33.1670   44.1490 N   0  0  0  0  0  0  0  0  0  0  0  0
   58.5390   34.0580   44.9920 C   0  0  0  0  0  0  0  0  0  0  0  0
   58.8750   35.1910   44.5560 O   0  0  0  0  0  0  0  0  0  0  0  0
   58.7670   33.7020   46.3320 C   0  0  0  0  0  0  0  0  0  0  0  0
   59.3840   34.5690   47.2500 C   0  0  0  0  0  0  0  0  0  0  0  0
   59.6030   34.1520   48.5670 C   0  0  0  0  0  0  0  0  0  0  0  0
   59.2100   32.8740   48.9750 C   0  0  0  0  0  0  0  0  0  0  0  0
   58.5910   32.0070   48.0710 C   0  0  0  0  0  0  0  0  0  0  0  0
   58.3640   32.4170   46.7520 C   0  0  0  0  0  0  0  0  0  0  0  0
   57.7770   31.5700   45.8690 N   0  0  0  0  0  0  0  0  0  0  0  0
   56.6240   27.8620   45.8370 N   0  0  0  0  0  0  0  0  0  0  0  0
   57.8160   27.8060   46.6780 C   0  0  0  0  0  0  0  0  0  0  0  0
   58.4540   26.4540   46.5760 C   0  0  0  0  0  0  0  0  0  0  0  0
   59.4450   26.1710   47.3050 O   0  0  0  0  0  0  0  0  0  0  0  0
   57.9050   25.4660   45.6930 N   0  0  0  0  0  0  0  0  0  0  0  0
   58.5190   24.1490   45.5420 C   0  0  0  0  0  0  0  0  0  0  0  0
   57.7990   23.3480   44.5030 C   0  0  0  0  0  0  0  0  0  0  0  0
   57.9210   21.9770   44.3070 C   0  0  0  0  0  0  0  0  0  0  0  0
   57.0780   21.4890   43.3000 C   0  0  0  0  0  0  0  0  0  0  0  0
   56.2850   22.4680   42.7130 C   0  0  0  0  0  0  0  0  0  0  0  0
   56.6310   23.9420   43.4480 S   0  0  0  0  0  0  0  0  0  0  0  0
   58.3441   29.5103   44.5446 H   0  0  0  0  0  0  0  0  0  0  0  0
   57.4675   28.8946   43.0833 H   0  0  0  0  0  0  0  0  0  0  0  0
   57.4485   31.1471   42.6029 H   0  0  0  0  0  0  0  0  0  0  0  0
   55.9307   31.0261   43.5844 H   0  0  0  0  0  0  0  0  0  0  0  0
   59.6947   35.5754   46.9328 H   0  0  0  0  0  0  0  0  0  0  0  0
   60.0861   34.8320   49.2841 H   0  0  0  0  0  0  0  0  0  0  0  0
   59.3886   32.5500   50.0109 H   0  0  0  0  0  0  0  0  0  0  0  0
   58.2821   31.0024   48.3957 H   0  0  0  0  0  0  0  0  0  0  0  0
   58.5320   28.5723   46.3461 H   0  0  0  0  0  0  0  0  0  0  0  0
   57.5284   27.9909   47.7235 H   0  0  0  0  0  0  0  0  0  0  0  0
   57.0630   25.7130   45.1240 H   0  0  0  0  0  0  0  0  0  0  0  0
   59.5694   24.2724   45.2396 H   0  0  0  0  0  0  0  0  0  0  0  0
   58.4596   23.6178   46.5034 H   0  0  0  0  0  0  0  0  0  0  0  0
   58.6088   21.3408   44.8834 H   0  0  0  0  0  0  0  0  0  0  0  0
   57.0467   20.4306   43.0020 H   0  0  0  0  0  0  0  0  0  0  0  0
   55.5555   22.3069   41.9056 H   0  0  0  0  0  0  0  0  0  0  0  0
  1  2  2  0
  2  3  1  0
  3  4  1  0
  4  5  1  0
  5  6  2  0
  6  7  1  0
  7  8  2  0
  7  9  1  0
  9 10  2  0
 10 11  1  0
 11 12  2  0
 12 13  1  0
 13 14  2  0
 14 15  1  0
  2 16  1  0
 16 17  1  0
 17 18  1  0
 18 19  2  0
 18 20  1  0
 20 21  1  0
 21 22  1  0
 22 23  2  0
 23 24  1  0
 24 25  2  0
 25 26  1  0
 15  5  1  0
 26 22  1  0
 14  9  1  0
  3 27  1  0
  3 28  1  0
  4 29  1  0
  4 30  1  0
 10 31  1  0
 11 32  1  0
 12 33  1  0
 13 34  1  0
 17 35  1  0
 17 36  1  0
 20 37  1  0
 21 38  1  0
 21 39  1  0
 23 40  1  0
 24 41  1  0
 25 42  1  0
M  CHG  2  15  -1  16  -1
M  END
>  <UniqueID>  (42) 
39

>  <SMILES>  (42) 
O=C(CCc1nc(=O)c2ccccc2[n-]1)[N-]CC(=O)NCc1cccs1

>  <Energy>  (42) 
61.418647360158985

>  <Genealogy>  (42) 
O=C(CCc1nc(=O)c2ccccc2[n-]1)[N-]CC(=O)NCc1cccs1 (protonated)
O=C(CCc1nc(=O)c2ccccc2[n-]1)[N-]CC(=O)NCc1cccs1 (3D coordinates assigned)
O=C(CCc1nc(=O)c2ccccc2[n-]1)[N-]CC(=O)NCc1cccs1 (optimized conformer: 61.418647360158985 kcal/mol)

>  <smiles>  (42) 
O=C(CCc1nc(=O)c2ccccc2[nH]1)NCC(=O)NCc1cccs1

>  <score_type>  (42) 
oracle

>  <origin>  (42) 
adg

>  <m_score__min__energy>  (42) 
-11.42

>  <m_primary>  (42) 
energy

$$$$
42:0
     RDKit          3D

 56 59  0  0  0  0  0  0  0  0999 V2000
   63.7520   29.3360   53.3180 N   0  0  0  0  0  0  0  0  0  0  0  0
   63.1740   29.4720   52.0170 C   0  0  0  0  0  0  0  0  0  0  0  0
   62.3780   28.5860   51.6050 O   0  0  0  0  0  0  0  0  0  0  0  0
   63.5220   30.6120   51.1350 C   0  0  0  0  0  0  0  0  0  0  0  0
   62.7110   30.8870   50.0220 C   0  0  0  0  0  0  0  0  0  0  0  0
   62.9960   31.9640   49.1730 C   0  0  0  0  0  0  0  0  0  0  0  0
   62.1320   32.2400   48.0050 C   0  0  0  0  0  0  0  0  0  0  0  0
   62.6160   32.8620   47.0200 O   0  0  0  0  0  0  0  0  0  0  0  0
   60.7640   31.7900   47.9610 N   0  0  0  0  0  0  0  0  0  0  0  0
   59.7640   32.5400   47.1910 C   0  0  0  0  0  0  0  0  0  0  0  0
   59.2300   31.6660   46.0510 C   0  0  0  0  0  0  0  0  0  0  0  0
   58.9530   30.2940   46.5060 N   0  0  0  0  0  0  0  0  0  0  0  0
   58.4340   29.3380   45.5590 C   0  0  0  0  0  0  0  0  0  0  0  0
   57.8190   29.7440   44.5350 O   0  0  0  0  0  0  0  0  0  0  0  0
   58.5920   27.8800   45.7570 C   0  0  0  0  0  0  0  0  0  0  0  0
   59.8920   27.3790   45.9420 C   0  0  0  0  0  0  0  0  0  0  0  0
   60.1150   26.0060   46.0490 C   0  0  0  0  0  0  0  0  0  0  0  0
   59.0460   25.1160   45.9740 C   0  0  0  0  0  0  0  0  0  0  0  0
   57.7450   25.5970   45.8140 C   0  0  0  0  0  0  0  0  0  0  0  0
   57.4920   26.9780   45.7240 C   0  0  0  0  0  0  0  0  0  0  0  0
   56.0810   27.4320   45.6420 C   0  0  0  0  0  0  0  0  0  0  0  0
   55.1350   26.6800   45.9980 O   0  0  0  0  0  0  0  0  0  0  0  0
   55.7820   28.6890   45.1280 O   0  0  0  0  0  0  0  0  0  0  0  0
   59.0710   29.9660   47.9360 C   0  0  0  0  0  0  0  0  0  0  0  0
   60.4190   30.4560   48.4810 C   0  0  0  0  0  0  0  0  0  0  0  0
   64.1280   32.7520   49.4220 C   0  0  0  0  0  0  0  0  0  0  0  0
   64.9480   32.5050   50.5330 C   0  0  0  0  0  0  0  0  0  0  0  0
   66.1270   33.3710   50.7750 C   0  0  0  0  0  0  0  0  0  0  0  0
   67.3570   33.0870   50.1540 C   0  0  0  0  0  0  0  0  0  0  0  0
   68.4710   33.8980   50.3890 C   0  0  0  0  0  0  0  0  0  0  0  0
   68.3720   34.9930   51.2510 C   0  0  0  0  0  0  0  0  0  0  0  0
   67.1570   35.2800   51.8790 C   0  0  0  0  0  0  0  0  0  0  0  0
   66.0390   34.4730   51.6460 C   0  0  0  0  0  0  0  0  0  0  0  0
   64.6280   31.4460   51.4070 C   0  0  0  0  0  0  0  0  0  0  0  0
   65.3770   31.2580   52.5650 O   0  0  0  0  0  0  0  0  0  0  0  0
   63.4570   28.5530   53.9430 H   0  0  0  0  0  0  0  0  0  0  0  0
   64.5450   29.9420   53.6240 H   0  0  0  0  0  0  0  0  0  0  0  0
   61.8401   30.2480   49.8141 H   0  0  0  0  0  0  0  0  0  0  0  0
   58.9330   32.8270   47.8521 H   0  0  0  0  0  0  0  0  0  0  0  0
   60.2297   33.4436   46.7706 H   0  0  0  0  0  0  0  0  0  0  0  0
   58.2997   32.1095   45.6665 H   0  0  0  0  0  0  0  0  0  0  0  0
   59.9970   31.6198   45.2639 H   0  0  0  0  0  0  0  0  0  0  0  0
   60.7411   28.0756   46.0030 H   0  0  0  0  0  0  0  0  0  0  0  0
   61.1370   25.6255   46.1929 H   0  0  0  0  0  0  0  0  0  0  0  0
   59.2270   24.0331   46.0409 H   0  0  0  0  0  0  0  0  0  0  0  0
   56.9069   24.8868   45.7576 H   0  0  0  0  0  0  0  0  0  0  0  0
   58.2557   30.4546   48.4896 H   0  0  0  0  0  0  0  0  0  0  0  0
   59.0078   28.8750   48.0611 H   0  0  0  0  0  0  0  0  0  0  0  0
   60.3634   30.5046   49.5785 H   0  0  0  0  0  0  0  0  0  0  0  0
   61.1973   29.7496   48.1567 H   0  0  0  0  0  0  0  0  0  0  0  0
   64.3769   33.5756   48.7367 H   0  0  0  0  0  0  0  0  0  0  0  0
   67.4426   32.2220   49.4798 H   0  0  0  0  0  0  0  0  0  0  0  0
   69.4275   33.6736   49.8943 H   0  0  0  0  0  0  0  0  0  0  0  0
   69.2503   35.6291   51.4353 H   0  0  0  0  0  0  0  0  0  0  0  0
   67.0800   36.1422   52.5578 H   0  0  0  0  0  0  0  0  0  0  0  0
   65.0860   34.7006   52.1460 H   0  0  0  0  0  0  0  0  0  0  0  0
  1  2  1  0
  2  3  2  0
  2  4  1  0
  4  5  2  0
  5  6  1  0
  6  7  1  0
  7  8  2  0
  7  9  1  0
  9 10  1  0
 10 11  1  0
 11 12  1  0
 12 13  1  0
 13 14  2  0
 13 15  1  0
 15 16  2  0
 16 17  1  0
 17 18  2  0
 18 19  1  0
 19 20  2  0
 20 21  1  0
 21 22  2  0
 21 23  1  0
 12 24  1  0
 24 25  1  0
  6 26  2  0
 26 27  1  0
 27 28  1  0
 28 29  2  0
 29 30  1  0
 30 31  2  0
 31 32  1  0
 32 33  2  0
 27 34  2  0
 34 35  1  0
 34  4  1  0
 25  9  1  0
 33 28  1  0
 20 15  1  0
  1 36  1  0
  1 37  1  0
  5 38  1  0
 10 39  1  0
 10 40  1  0
 11 41  1  0
 11 42  1  0
 16 43  1  0
 17 44  1  0
 18 45  1  0
 19 46  1  0
 24 47  1  0
 24 48  1  0
 25 49  1  0
 25 50  1  0
 26 51  1  0
 29 52  1  0
 30 53  1  0
 31 54  1  0
 32 55  1  0
 33 56  1  0
M  CHG  2  23  -1  35  -1
M  END
>  <UniqueID>  (43) 
40

>  <SMILES>  (43) 
NC(=O)c1cc(C(=O)N2CCN(C(=O)c3ccccc3C(=O)[O-])CC2)cc(-c2ccccc2)c1[O-]

>  <Energy>  (43) 
85.58102170594546

>  <Genealogy>  (43) 
NC(=O)c1cc(C(=O)N2CCN(C(=O)c3ccccc3C(=O)[O-])CC2)cc(-c2ccccc2)c1[O-] (protonated)
NC(=O)c1cc(C(=O)N2CCN(C(=O)c3ccccc3C(=O)[O-])CC2)cc(-c2ccccc2)c1[O-] (3D coordinates assigned)
NC(=O)c1cc(C(=O)N2CCN(C(=O)c3ccccc3C(=O)[O-])CC2)cc(-c2ccccc2)c1[O-] (nonaromatic ring conformer: 85.58102170594546 kcal/mol)

>  <smiles>  (43) 
NC(=O)c1cc(C(=O)N2CCN(C(=O)c3ccccc3C(=O)O)CC2)cc(-c2ccccc2)c1O

>  <score_type>  (43) 
oracle

>  <origin>  (43) 
adg

>  <m_score__min__energy>  (43) 
-11.99

>  <m_primary>  (43) 
energy

$$$$
43:0
     RDKit          3D

 67 70  0  0  0  0  0  0  0  0999 V2000
   57.7980   31.8520   45.7610 O   0  0  0  0  0  0  0  0  0  0  0  0
   58.1290   32.6230   46.7020 C   0  0  0  0  0  0  0  0  0  0  0  0
   57.9660   34.1110   46.5250 C   0  0  0  0  0  0  0  0  0  0  0  0
   59.5750   34.9740   46.3710 S   0  0  0  0  0  0  0  0  0  0  0  0
   60.5870   33.4730   46.0940 C   0  0  0  0  0  0  0  0  0  0  0  0
   61.5320   33.2370   47.2410 C   0  0  0  0  0  0  0  0  0  0  0  0
   61.6190   34.1650   48.2920 C   0  0  0  0  0  0  0  0  0  0  0  0
   62.5830   34.0110   49.2900 C   0  0  0  0  0  0  0  0  0  0  0  0
   63.4780   32.9350   49.2470 C   0  0  0  0  0  0  0  0  0  0  0  0
   64.7910   32.8270   50.4220 S   0  0  0  0  0  0  0  0  0  0  0  0
   66.0190   32.2900   49.7410 O   0  0  0  0  0  0  0  0  0  0  0  0
   65.1070   34.2030   50.9400 O   0  0  0  0  0  0  0  0  0  0  0  0
   64.3650   31.7800   51.7600 N   0  0  0  0  0  0  0  0  0  0  0  0
   63.2140   32.3390   52.5060 C   0  0  0  0  0  0  0  0  0  0  0  0
   62.4730   31.2330   53.2760 C   0  0  0  0  0  0  0  0  0  0  0  0
   61.9370   30.2120   52.4420 O   0  0  0  0  0  0  0  0  0  0  0  0
   62.6310   30.0550   51.2110 C   0  0  0  0  0  0  0  0  0  0  0  0
   64.1340   30.3850   51.3090 C   0  0  0  0  0  0  0  0  0  0  0  0
   63.3600   31.9780   48.2270 C   0  0  0  0  0  0  0  0  0  0  0  0
   62.3930   32.1300   47.2290 C   0  0  0  0  0  0  0  0  0  0  0  0
   58.6040   32.0590   47.9470 N   0  0  0  0  0  0  0  0  0  0  0  0
   58.8770   32.8960   49.1260 C   0  0  0  0  0  0  0  0  0  0  0  0
   58.4060   32.1870   50.4010 C   0  0  0  0  0  0  0  0  0  0  0  0
   58.8780   30.7950   50.4670 N   0  0  0  0  0  0  0  0  0  0  0  0
   58.7900   30.0530   51.7050 C   0  0  0  0  0  0  0  0  0  0  0  0
   59.4820   29.0090   51.8580 O   0  0  0  0  0  0  0  0  0  0  0  0
   57.9450   30.5460   52.8560 C   0  0  0  0  0  0  0  0  0  0  0  0
   56.4860   30.2260   52.6580 C   0  0  0  0  0  0  0  0  0  0  0  0
   55.6460   31.1370   51.9970 C   0  0  0  0  0  0  0  0  0  0  0  0
   54.2920   30.8400   51.8070 C   0  0  0  0  0  0  0  0  0  0  0  0
   53.7700   29.6270   52.2680 C   0  0  0  0  0  0  0  0  0  0  0  0
   54.6040   28.7070   52.9120 C   0  0  0  0  0  0  0  0  0  0  0  0
   55.9580   29.0020   53.1040 C   0  0  0  0  0  0  0  0  0  0  0  0
   59.5740   30.2100   49.3110 C   0  0  0  0  0  0  0  0  0  0  0  0
   58.8800   30.6140   48.0040 C   0  0  0  0  0  0  0  0  0  0  0  0
   57.3767   34.2964   45.6149 H   0  0  0  0  0  0  0  0  0  0  0  0
   57.4587   34.5024   47.4191 H   0  0  0  0  0  0  0  0  0  0  0  0
   59.9203   32.6039   45.9932 H   0  0  0  0  0  0  0  0  0  0  0  0
   61.1787   33.6150   45.1776 H   0  0  0  0  0  0  0  0  0  0  0  0
   60.9243   35.0171   48.3288 H   0  0  0  0  0  0  0  0  0  0  0  0
   62.6397   34.7380   50.1136 H   0  0  0  0  0  0  0  0  0  0  0  0
   65.1920   31.7750   52.4030 H   0  0  0  0  0  0  0  0  0  0  0  0
   63.5784   33.0929   53.2193 H   0  0  0  0  0  0  0  0  0  0  0  0
   62.5172   32.7963   51.7881 H   0  0  0  0  0  0  0  0  0  0  0  0
   63.1783   30.7696   53.9816 H   0  0  0  0  0  0  0  0  0  0  0  0
   61.6223   31.7112   53.7835 H   0  0  0  0  0  0  0  0  0  0  0  0
   62.5240   29.0111   50.8811 H   0  0  0  0  0  0  0  0  0  0  0  0
   62.1887   30.7644   50.4961 H   0  0  0  0  0  0  0  0  0  0  0  0
   64.6034   29.6965   52.0271 H   0  0  0  0  0  0  0  0  0  0  0  0
   64.5742   30.2728   50.3072 H   0  0  0  0  0  0  0  0  0  0  0  0
   64.0303   31.1060   48.2129 H   0  0  0  0  0  0  0  0  0  0  0  0
   62.3070   31.3780   46.4308 H   0  0  0  0  0  0  0  0  0  0  0  0
   59.9584   33.0854   49.1943 H   0  0  0  0  0  0  0  0  0  0  0  0
   58.3341   33.8472   49.0236 H   0  0  0  0  0  0  0  0  0  0  0  0
   58.7915   32.7340   51.2740 H   0  0  0  0  0  0  0  0  0  0  0  0
   57.3061   32.1716   50.3933 H   0  0  0  0  0  0  0  0  0  0  0  0
   58.2919   30.0663   53.7831 H   0  0  0  0  0  0  0  0  0  0  0  0
   58.0500   31.6395   52.9127 H   0  0  0  0  0  0  0  0  0  0  0  0
   56.0546   32.0888   51.6268 H   0  0  0  0  0  0  0  0  0  0  0  0
   53.6377   31.5608   51.2948 H   0  0  0  0  0  0  0  0  0  0  0  0
   52.7041   29.3966   52.1242 H   0  0  0  0  0  0  0  0  0  0  0  0
   54.1946   27.7501   53.2680 H   0  0  0  0  0  0  0  0  0  0  0  0
   56.6118   28.2735   53.6058 H   0  0  0  0  0  0  0  0  0  0  0  0
   60.6135   30.5693   49.2947 H   0  0  0  0  0  0  0  0  0  0  0  0
   59.5525   29.1139   49.4007 H   0  0  0  0  0  0  0  0  0  0  0  0
   59.5301   30.3435   47.1589 H   0  0  0  0  0  0  0  0  0  0  0  0
   57.9179   30.0832   47.9534 H   0  0  0  0  0  0  0  0  0  0  0  0
  1  2  2  0
  2  3  1  0
  3  4  1  0
  4  5  1  0
  5  6  1  0
  6  7  2  0
  7  8  1  0
  8  9  2  0
  9 10  1  0
 10 11  2  0
 10 12  2  0
 10 13  1  0
 13 14  1  0
 14 15  1  0
 15 16  1  0
 16 17  1  0
 17 18  1  0
  9 19  1  0
 19 20  2  0
  2 21  1  0
 21 22  1  0
 22 23  1  0
 23 24  1  0
 24 25  1  0
 25 26  2  0
 25 27  1  0
 27 28  1  0
 28 29  2  0
 29 30  1  0
 30 31  2  0
 31 32  1  0
 32 33  2  0
 24 34  1  0
 34 35  1  0
 20  6  1  0
 35 21  1  0
 18 13  1  0
 33 28  1  0
  3 36  1  0
  3 37  1  0
  5 38  1  0
  5 39  1  0
  7 40  1  0
  8 41  1  0
 13 42  1  0
 14 43  1  0
 14 44  1  0
 15 45  1  0
 15 46  1  0
 17 47  1  0
 17 48  1  0
 18 49  1  0
 18 50  1  0
 19 51  1  0
 20 52  1  0
 22 53  1  0
 22 54  1  0
 23 55  1  0
 23 56  1  0
 27 57  1  0
 27 58  1  0
 29 59  1  0
 30 60  1  0
 31 61  1  0
 32 62  1  0
 33 63  1  0
 34 64  1  0
 34 65  1  0
 35 66  1  0
 35 67  1  0
M  CHG  1  13   1
M  END
>  <UniqueID>  (44) 
41

>  <SMILES>  (44) 
O=C(CSCc1ccc(S(=O)(=O)[NH+]2CCOCC2)cc1)N1CCN(C(=O)Cc2ccccc2)CC1

>  <Energy>  (44) 
76.8695791354584

>  <Genealogy>  (44) 
O=C(CSCc1ccc(S(=O)(=O)[NH+]2CCOCC2)cc1)N1CCN(C(=O)Cc2ccccc2)CC1 (protonated)
O=C(CSCc1ccc(S(=O)(=O)[NH+]2CCOCC2)cc1)N1CCN(C(=O)Cc2ccccc2)CC1 (3D coordinates assigned)
O=C(CSCc1ccc(S(=O)(=O)[NH+]2CCOCC2)cc1)N1CCN(C(=O)Cc2ccccc2)CC1 (nonaromatic ring conformer: 76.8695791354584 kcal/mol)

>  <smiles>  (44) 
O=C(CSCc1ccc(S(=O)(=O)N2CCOCC2)cc1)N1CCN(C(=O)Cc2ccccc2)CC1

>  <score_type>  (44) 
oracle

>  <origin>  (44) 
adg

>  <m_score__min__energy>  (44) 
-8.5999999999999996

>  <m_primary>  (44) 
energy

$$$$
44:0
     RDKit          3D

 66 70  0  0  0  0  0  0  0  0999 V2000
   56.3370   29.2570   44.8200 C   0  0  0  0  0  0  0  0  0  0  0  0
   57.6270   28.9090   44.9570 C   0  0  0  0  0  0  0  0  0  0  0  0
   58.1520   27.6160   44.8570 C   0  0  0  0  0  0  0  0  0  0  0  0
   57.4900   26.4860   44.5440 C   0  0  0  0  0  0  0  0  0  0  0  0
   57.0980   25.4620   45.5390 C   0  0  0  0  0  0  0  0  0  0  0  0
   55.8960   25.6000   46.2490 C   0  0  0  0  0  0  0  0  0  0  0  0
   55.0460   26.6710   46.0000 O   0  0  0  0  0  0  0  0  0  0  0  0
   55.5480   24.6760   47.1820 N   0  0  0  0  0  0  0  0  0  0  0  0
   56.3530   23.6200   47.4560 C   0  0  0  0  0  0  0  0  0  0  0  0
   56.0090   22.7740   48.3240 O   0  0  0  0  0  0  0  0  0  0  0  0
   57.5340   23.4760   46.8020 N   0  0  0  0  0  0  0  0  0  0  0  0
   57.9290   24.3730   45.8610 C   0  0  0  0  0  0  0  0  0  0  0  0
   59.0480   24.2270   45.3010 O   0  0  0  0  0  0  0  0  0  0  0  0
   59.5130   27.7270   45.1070 C   0  0  0  0  0  0  0  0  0  0  0  0
   59.7650   29.0640   45.3430 C   0  0  0  0  0  0  0  0  0  0  0  0
   61.1150   29.6340   45.6600 C   0  0  0  0  0  0  0  0  0  0  0  0
   58.6210   29.7810   45.2580 N   0  0  0  0  0  0  0  0  0  0  0  0
   58.5130   31.2060   45.4220 C   0  0  0  0  0  0  0  0  0  0  0  0
   57.9120   31.9850   44.4250 C   0  0  0  0  0  0  0  0  0  0  0  0
   57.8510   33.3710   44.5630 C   0  0  0  0  0  0  0  0  0  0  0  0
   58.3860   33.9920   45.6940 C   0  0  0  0  0  0  0  0  0  0  0  0
   58.9890   33.2280   46.7170 C   0  0  0  0  0  0  0  0  0  0  0  0
   59.5950   33.8560   47.9320 C   0  0  0  0  0  0  0  0  0  0  0  0
   58.9660   33.7680   49.0250 O   0  0  0  0  0  0  0  0  0  0  0  0
   60.9060   34.4880   47.9070 N   0  0  1  0  0  0  0  0  0  0  0  0
   61.5450   34.5490   49.2580 C   0  0  0  0  0  0  0  0  0  0  0  0
   62.8170   33.6860   49.3930 C   0  0  0  0  0  0  0  0  0  0  0  0
   62.6450   32.2750   48.7740 C   0  0  1  0  0  0  0  0  0  0  0  0
   61.7200   31.3820   49.5390 N   0  0  0  0  0  0  0  0  0  0  0  0
   61.0420   30.4240   48.6340 C   0  0  0  0  0  0  0  0  0  0  0  0
   59.9780   29.6210   49.4130 C   0  0  0  0  0  0  0  0  0  0  0  0
   60.1290   29.7390   50.8160 O   0  0  0  0  0  0  0  0  0  0  0  0
   61.4740   29.5010   51.1720 C   0  0  0  0  0  0  0  0  0  0  0  0
   62.3890   30.6110   50.6160 C   0  0  0  0  0  0  0  0  0  0  0  0
   62.1720   32.4110   47.2930 C   0  0  0  0  0  0  0  0  0  0  0  0
   61.7650   33.8430   46.8880 C   0  0  0  0  0  0  0  0  0  0  0  0
   59.0440   31.8270   46.5610 C   0  0  0  0  0  0  0  0  0  0  0  0
   56.0380   30.3109   44.9199 H   0  0  0  0  0  0  0  0  0  0  0  0
   55.5795   28.4881   44.6079 H   0  0  0  0  0  0  0  0  0  0  0  0
   57.2257   26.3140   43.4902 H   0  0  0  0  0  0  0  0  0  0  0  0
   60.2481   26.9087   45.1155 H   0  0  0  0  0  0  0  0  0  0  0  0
   61.2431   29.6881   46.7512 H   0  0  0  0  0  0  0  0  0  0  0  0
   61.8955   28.9886   45.2307 H   0  0  0  0  0  0  0  0  0  0  0  0
   61.1968   30.6435   45.2307 H   0  0  0  0  0  0  0  0  0  0  0  0
   57.4877   31.5026   43.5321 H   0  0  0  0  0  0  0  0  0  0  0  0
   57.3790   33.9788   43.7770 H   0  0  0  0  0  0  0  0  0  0  0  0
   58.3371   35.0868   45.7887 H   0  0  0  0  0  0  0  0  0  0  0  0
   60.7750   35.4830   47.6190 H   0  0  0  0  0  0  0  0  0  0  0  0
   60.8126   34.2035   50.0024 H   0  0  0  0  0  0  0  0  0  0  0  0
   61.8520   35.5933   49.4168 H   0  0  0  0  0  0  0  0  0  0  0  0
   63.0571   33.5760   50.4608 H   0  0  0  0  0  0  0  0  0  0  0  0
   63.6255   34.1944   48.8472 H   0  0  0  0  0  0  0  0  0  0  0  0
   63.6303   31.7882   48.8207 H   0  0  0  0  0  0  0  0  0  0  0  0
   60.5548   30.9772   47.8175 H   0  0  0  0  0  0  0  0  0  0  0  0
   61.7878   29.7284   48.2217 H   0  0  0  0  0  0  0  0  0  0  0  0
   58.9811   29.9922   49.1331 H   0  0  0  0  0  0  0  0  0  0  0  0
   60.1026   28.5598   49.1516 H   0  0  0  0  0  0  0  0  0  0  0  0
   61.5589   29.4784   52.2685 H   0  0  0  0  0  0  0  0  0  0  0  0
   61.7878   28.5369   50.7453 H   0  0  0  0  0  0  0  0  0  0  0  0
   62.6552   31.2971   51.4336 H   0  0  0  0  0  0  0  0  0  0  0  0
   63.2869   30.1369   50.1929 H   0  0  0  0  0  0  0  0  0  0  0  0
   61.3042   31.7512   47.1460 H   0  0  0  0  0  0  0  0  0  0  0  0
   63.0290   32.1353   46.6609 H   0  0  0  0  0  0  0  0  0  0  0  0
   61.2147   33.7995   45.9365 H   0  0  0  0  0  0  0  0  0  0  0  0
   62.6831   34.4412   46.7916 H   0  0  0  0  0  0  0  0  0  0  0  0
   59.5106   31.2126   47.3451 H   0  0  0  0  0  0  0  0  0  0  0  0
  1  2  2  0
  2  3  1  0
  3  4  2  3
  4  5  1  0
  5  6  2  0
  6  7  1  0
  6  8  1  0
  8  9  1  0
  9 10  2  0
  9 11  1  0
 11 12  1  0
 12 13  2  0
  3 14  1  0
 14 15  2  0
 15 16  1  0
 15 17  1  0
 17 18  1  0
 18 19  2  0
 19 20  1  0
 20 21  2  0
 21 22  1  0
 22 23  1  0
 23 24  2  0
 23 25  1  0
 25 26  1  0
 26 27  1  0
 27 28  1  0
 28 29  1  0
 29 30  1  0
 30 31  1  0
 31 32  1  0
 32 33  1  0
 33 34  1  0
 28 35  1  0
 35 36  1  0
 22 37  2  0
 17  2  1  0
 37 18  1  0
 12  5  1  0
 36 25  1  0
 34 29  1  0
  1 38  1  0
  1 39  1  0
  4 40  1  0
 14 41  1  0
 16 42  1  0
 16 43  1  0
 16 44  1  0
 19 45  1  0
 20 46  1  0
 21 47  1  0
 25 48  1  6
 26 49  1  0
 26 50  1  0
 27 51  1  0
 27 52  1  0
 28 53  1  6
 30 54  1  0
 30 55  1  0
 31 56  1  0
 31 57  1  0
 33 58  1  0
 33 59  1  0
 34 60  1  0
 34 61  1  0
 35 62  1  0
 35 63  1  0
 36 64  1  0
 36 65  1  0
 37 66  1  0
M  CHG  4   7  -1   8  -1  11  -1  25   1
M  END
>  <UniqueID>  (45) 
42

>  <SMILES>  (45) 
C=c1c(=Cc2c([O-])[n-]c(=O)[n-]c2=O)cc(C)n1-c1cccc(C(=O)[NH+]2CCC(N3CCOCC3)CC2)c1

>  <Energy>  (45) 
146.73159260152056

>  <Genealogy>  (45) 
C=c1c(=Cc2c([O-])[n-]c(=O)[n-]c2=O)cc(C)n1-c1cccc(C(=O)[NH+]2CCC(N3CCOCC3)CC2)c1 (protonated)
C=c1c(=Cc2c([O-])[n-]c(=O)[n-]c2=O)cc(C)n1-c1cccc(C(=O)[NH+]2CCC(N3CCOCC3)CC2)c1 (3D coordinates assigned)
C=c1c(=Cc2c([O-])[n-]c(=O)[n-]c2=O)cc(C)n1-c1cccc(C(=O)[NH+]2CCC(N3CCOCC3)CC2)c1 (nonaromatic ring conformer: 146.73159260152056 kcal/mol)

>  <smiles>  (45) 
C=c1c(=Cc2c(O)[nH]c(=O)[nH]c2=O)cc(C)n1-c1cccc(C(=O)N2CCC(N3CCOCC3)CC2)c1

>  <score_type>  (45) 
oracle

>  <origin>  (45) 
adg

>  <m_score__min__energy>  (45) 
-16

>  <m_primary>  (45) 
energy

$$$$
45:0
     RDKit          3D

 30 31  0  0  0  0  0  0  0  0999 V2000
   57.9656   33.0008   47.3039 H   0  0  0  0  0  0  0  0  0  0  0  0
   58.9450   32.6780   46.9210 C   0  0  0  0  0  0  0  0  0  0  0  0
   59.4556   33.2705   46.1476 H   0  0  0  0  0  0  0  0  0  0  0  0
   59.5140   31.5670   47.3950 C   0  0  0  0  0  0  0  0  0  0  0  0
   58.9927   30.9837   48.1683 H   0  0  0  0  0  0  0  0  0  0  0  0
   60.8470   31.0970   46.8970 C   0  0  0  0  0  0  0  0  0  0  0  0
   60.9775   31.4104   45.8507 H   0  0  0  0  0  0  0  0  0  0  0  0
   61.6425   31.5365   47.5167 H   0  0  0  0  0  0  0  0  0  0  0  0
   60.9190   29.6390   46.9800 N   0  0  0  0  0  0  0  0  0  0  0  0
   60.4860   28.8240   46.0640 C   0  0  0  0  0  0  0  0  0  0  0  0
   61.1913   28.4669   45.2991 H   0  0  0  0  0  0  0  0  0  0  0  0
   59.0810   28.3570   46.0090 C   0  0  0  0  0  0  0  0  0  0  0  0
   58.7010   27.2150   46.7350 C   0  0  0  0  0  0  0  0  0  0  0  0
   59.5490   26.5910   47.4300 O   0  0  0  0  0  0  0  0  0  0  0  0
   57.4140   26.7760   46.7010 N   0  0  0  0  0  0  0  0  0  0  0  0
   57.1510   25.9220   47.2440 H   0  0  0  0  0  0  0  0  0  0  0  0
   56.4530   27.4160   45.9840 C   0  0  0  0  0  0  0  0  0  0  0  0
   55.1540   26.9150   45.9900 O   0  0  0  0  0  0  0  0  0  0  0  0
   56.7720   28.5700   45.2470 C   0  0  0  0  0  0  0  0  0  0  0  0
   55.7920   29.2470   44.5020 C   0  0  0  0  0  0  0  0  0  0  0  0
   54.7575   28.8733   44.4938 H   0  0  0  0  0  0  0  0  0  0  0  0
   56.1210   30.3890   43.7730 C   0  0  0  0  0  0  0  0  0  0  0  0
   55.3431   30.9092   43.1948 H   0  0  0  0  0  0  0  0  0  0  0  0
   57.4350   30.8810   43.7700 C   0  0  0  0  0  0  0  0  0  0  0  0
   57.7650   32.0600   43.0110 N   0  0  0  0  0  0  0  0  0  0  0  0
   57.4480   32.1550   41.8070 O   0  0  0  0  0  0  0  0  0  0  0  0
   58.4370   33.1060   43.6010 O   0  0  0  0  0  0  0  0  0  0  0  0
   58.4200   30.2080   44.5150 C   0  0  0  0  0  0  0  0  0  0  0  0
   59.4522   30.5881   44.5170 H   0  0  0  0  0  0  0  0  0  0  0  0
   58.1030   29.0520   45.2600 C   0  0  0  0  0  0  0  0  0  0  0  0
  1  2  1  0
  2  3  1  0
  2  4  2  0
  4  5  1  0
  4  6  1  0
  6  7  1  0
  6  8  1  0
  6  9  1  0
  9 10  2  0
 10 11  1  0
 10 12  1  0
 12 13  1  0
 13 14  2  0
 13 15  1  0
 15 16  1  0
 15 17  1  0
 17 18  1  0
 17 19  2  0
 19 20  1  0
 20 21  1  0
 20 22  2  0
 22 23  1  0
 22 24  1  0
 24 25  1  0
 25 26  2  0
 25 27  1  0
 24 28  2  0
 28 29  1  0
 28 30  1  0
 30 12  2  0
 30 19  1  0
M  CHG  3  18  -1  25   1  27  -1
M  END
>  <UniqueID>  (46) 
43

>  <SMILES>  (46) 
C=CC/N=C\c1c(=O)[nH]c([O-])c2ccc([N+](=O)[O-])cc12

>  <Energy>  (46) 
42.45833825800722

>  <Genealogy>  (46) 
C=CCN=Cc1c(=O)[nH]c([O-])c2ccc([N+](=O)[O-])cc12 (protonated)
C=CC/N=C\c1c(=O)[nH]c([O-])c2ccc([N+](=O)[O-])cc12 (cis-trans isomerization)
C=CC/N=C\c1c(=O)[nH]c([O-])c2ccc([N+](=O)[O-])cc12 (3D coordinates assigned)
C=CC/N=C\c1c(=O)[nH]c([O-])c2ccc([N+](=O)[O-])cc12 (optimized conformer: 42.45833825800722 kcal/mol)

>  <smiles>  (46) 
C=CCN=Cc1c(=O)[nH]c(O)c2ccc([N+](=O)[O-])cc12

>  <score_type>  (46) 
oracle

>  <origin>  (46) 
adg

>  <m_score__min__energy>  (46) 
-9.2100000000000009

>  <m_primary>  (46) 
energy

$$$$
46:0
     RDKit          3D

 51 54  0  0  0  0  0  0  0  0999 V2000
   55.5260   25.9060   46.7200 O   0  0  0  0  0  0  0  0  0  0  0  0
   55.9390   25.2370   45.7340 C   0  0  0  0  0  0  0  0  0  0  0  0
   55.0450   24.2590   45.0180 C   0  0  0  0  0  0  0  0  0  0  0  0
   55.8980   23.1870   44.4560 C   0  0  0  0  0  0  0  0  0  0  0  0
   55.9050   22.9210   43.0880 C   0  0  0  0  0  0  0  0  0  0  0  0
   56.7180   21.9120   42.6240 C   0  0  0  0  0  0  0  0  0  0  0  0
   57.5130   21.1710   43.4690 C   0  0  0  0  0  0  0  0  0  0  0  0
   57.5140   21.4280   44.8390 C   0  0  0  0  0  0  0  0  0  0  0  0
   56.7000   22.4390   45.3140 C   0  0  0  0  0  0  0  0  0  0  0  0
   57.2620   25.3480   45.2240 N   0  0  0  0  0  0  0  0  0  0  0  0
   58.2400   26.2230   45.7790 C   0  0  0  0  0  0  0  0  0  0  0  0
   59.5010   25.6850   46.0240 C   0  0  0  0  0  0  0  0  0  0  0  0
   60.4990   26.4690   46.5570 C   0  0  0  0  0  0  0  0  0  0  0  0
   60.2140   27.7790   46.8340 C   0  0  0  0  0  0  0  0  0  0  0  0
   58.9600   28.3480   46.6000 C   0  0  0  0  0  0  0  0  0  0  0  0
   58.6840   29.7710   46.9110 C   0  0  0  0  0  0  0  0  0  0  0  0
   58.3680   30.4890   45.6720 C   0  0  0  0  0  0  0  0  0  0  0  0
   58.1860   29.9190   44.4730 N   0  0  0  0  0  0  0  0  0  0  0  0
   57.8990   30.6450   43.3810 N   0  0  0  0  0  0  0  0  0  0  0  0
   57.7840   32.0030   43.4630 C   0  0  0  0  0  0  0  0  0  0  0  0
   57.5140   32.6940   42.4420 O   0  0  0  0  0  0  0  0  0  0  0  0
   57.9570   32.6460   44.6510 C   0  0  0  0  0  0  0  0  0  0  0  0
   58.2510   31.8810   45.7620 C   0  0  0  0  0  0  0  0  0  0  0  0
   58.4370   32.6000   47.0500 C   0  0  0  0  0  0  0  0  0  0  0  0
   59.4360   33.7020   46.7660 C   0  0  0  0  0  0  0  0  0  0  0  0
   58.8930   34.6720   45.7760 C   0  0  0  0  0  0  0  0  0  0  0  0
   57.8530   34.1130   44.8420 C   0  0  0  0  0  0  0  0  0  0  0  0
   57.9600   27.5460   46.0610 C   0  0  0  0  0  0  0  0  0  0  0  0
   56.7180   28.0330   45.8070 F   0  0  0  0  0  0  0  0  0  0  0  0
   54.3210   23.8280   45.7252 H   0  0  0  0  0  0  0  0  0  0  0  0
   54.4892   24.7658   44.2153 H   0  0  0  0  0  0  0  0  0  0  0  0
   55.2770   23.5024   42.3969 H   0  0  0  0  0  0  0  0  0  0  0  0
   56.7330   21.6912   41.5465 H   0  0  0  0  0  0  0  0  0  0  0  0
   58.1503   20.3725   43.0612 H   0  0  0  0  0  0  0  0  0  0  0  0
   58.1453   20.8423   45.5234 H   0  0  0  0  0  0  0  0  0  0  0  0
   56.6854   22.6572   46.3920 H   0  0  0  0  0  0  0  0  0  0  0  0
   57.5710   24.7780   44.4040 H   0  0  0  0  0  0  0  0  0  0  0  0
   59.7004   24.6287   45.7905 H   0  0  0  0  0  0  0  0  0  0  0  0
   61.4984   26.0542   46.7550 H   0  0  0  0  0  0  0  0  0  0  0  0
   61.0073   28.4112   47.2595 H   0  0  0  0  0  0  0  0  0  0  0  0
   57.8299   29.8367   47.6010 H   0  0  0  0  0  0  0  0  0  0  0  0
   59.5702   30.2225   47.3810 H   0  0  0  0  0  0  0  0  0  0  0  0
   57.7580   30.1880   42.4470 H   0  0  0  0  0  0  0  0  0  0  0  0
   57.4826   33.0268   47.3919 H   0  0  0  0  0  0  0  0  0  0  0  0
   58.7924   31.9254   47.8429 H   0  0  0  0  0  0  0  0  0  0  0  0
   59.6623   34.2326   47.7026 H   0  0  0  0  0  0  0  0  0  0  0  0
   60.3480   33.2495   46.3494 H   0  0  0  0  0  0  0  0  0  0  0  0
   58.4403   35.5076   46.3299 H   0  0  0  0  0  0  0  0  0  0  0  0
   59.7417   34.9750   45.1452 H   0  0  0  0  0  0  0  0  0  0  0  0
   56.8581   34.3411   45.2520 H   0  0  0  0  0  0  0  0  0  0  0  0
   58.0162   34.5797   43.8594 H   0  0  0  0  0  0  0  0  0  0  0  0
  1  2  2  0
  2  3  1  0
  3  4  1  0
  4  5  2  0
  5  6  1  0
  6  7  2  0
  7  8  1  0
  8  9  2  0
  2 10  1  0
 10 11  1  0
 11 12  2  0
 12 13  1  0
 13 14  2  0
 14 15  1  0
 15 16  1  0
 16 17  1  0
 17 18  2  0
 18 19  1  0
 19 20  1  0
 20 21  2  0
 20 22  1  0
 22 23  2  0
 23 24  1  0
 24 25  1  0
 25 26  1  0
 26 27  1  0
 15 28  2  0
 28 29  1  0
  9  4  1  0
 28 11  1  0
 23 17  1  0
 27 22  1  0
  3 30  1  0
  3 31  1  0
  5 32  1  0
  6 33  1  0
  7 34  1  0
  8 35  1  0
  9 36  1  0
 10 37  1  0
 12 38  1  0
 13 39  1  0
 14 40  1  0
 16 41  1  0
 16 42  1  0
 19 43  1  0
 24 44  1  0
 24 45  1  0
 25 46  1  0
 25 47  1  0
 26 48  1  0
 26 49  1  0
 27 50  1  0
 27 51  1  0
M  END
>  <smiles>  (47) 
O=C(Cc1ccccc1)Nc1cccc(Cc2n[nH]c(=O)c3c2CCCC3)c1F

>  <score_type>  (47) 
oracle

>  <origin>  (47) 
adg

>  <m_score__min__energy>  (47) 
-9.8300000000000001

>  <m_primary>  (47) 
energy

$$$$
47:0
     RDKit          3D

 63 67  0  0  0  0  0  0  0  0999 V2000
   60.3469   24.7513   46.0402 H   0  0  0  0  0  0  0  0  0  0  0  0
   59.4340   25.3650   46.0360 C   0  0  0  0  0  0  0  0  0  0  0  0
   58.2440   24.8120   46.3880 N   0  0  0  0  0  0  0  0  0  0  0  0
   57.0920   25.5410   46.4200 C   0  0  0  0  0  0  0  0  0  0  0  0
   55.9480   24.9880   46.7070 N   0  0  0  0  0  0  0  0  0  0  0  0
   54.7960   24.8860   45.8540 C   0  0  0  0  0  0  0  0  0  0  0  0
   54.0480   25.8760   45.6340 O   0  0  0  0  0  0  0  0  0  0  0  0
   54.4470   23.5610   45.2580 C   0  0  0  0  0  0  0  0  0  0  0  0
   54.2560   22.8358   46.0628 H   0  0  0  0  0  0  0  0  0  0  0  0
   53.5455   23.6646   44.6362 H   0  0  0  0  0  0  0  0  0  0  0  0
   55.2826   23.2071   44.6362 H   0  0  0  0  0  0  0  0  0  0  0  0
   57.1240   26.9020   46.0880 C   0  0  0  0  0  0  0  0  0  0  0  0
   56.2084   27.5085   46.1505 H   0  0  0  0  0  0  0  0  0  0  0  0
   58.3320   27.4870   45.6750 C   0  0  0  0  0  0  0  0  0  0  0  0
   58.3700   28.9070   45.2440 C   0  0  0  0  0  0  0  0  0  0  0  0
   58.7020   29.9670   46.1200 C   0  0  0  0  0  0  0  0  0  0  0  0
   59.1570   29.7380   47.5100 C   0  0  0  0  0  0  0  0  0  0  0  0
   59.8010   28.5350   47.8390 C   0  0  0  0  0  0  0  0  0  0  0  0
   59.9316   27.7568   47.0726 H   0  0  0  0  0  0  0  0  0  0  0  0
   60.2770   28.3210   49.1350 C   0  0  0  0  0  0  0  0  0  0  0  0
   60.7746   27.3732   49.3881 H   0  0  0  0  0  0  0  0  0  0  0  0
   60.1220   29.3070   50.1070 C   0  0  0  0  0  0  0  0  0  0  0  0
   60.5125   29.1387   51.1215 H   0  0  0  0  0  0  0  0  0  0  0  0
   59.4720   30.5130   49.8030 C   0  0  0  0  0  0  0  0  0  0  0  0
   59.3790   31.5140   50.8270 N   0  0  0  0  0  0  0  0  0  0  0  0
   60.2670   33.0080   50.9270 S   0  0  0  0  0  0  0  0  0  0  0  0
   61.1400   32.9760   52.1540 O   0  0  0  0  0  0  0  0  0  0  0  0
   59.3190   34.1730   51.0000 O   0  0  0  0  0  0  0  0  0  0  0  0
   61.2590   33.2120   49.4730 C   0  0  0  0  0  0  0  0  0  0  0  0
   62.6030   32.8030   49.5080 C   0  0  0  0  0  0  0  0  0  0  0  0
   63.0239   32.3959   50.4392 H   0  0  0  0  0  0  0  0  0  0  0  0
   63.4100   32.9080   48.3730 C   0  0  0  0  0  0  0  0  0  0  0  0
   64.4617   32.5882   48.4145 H   0  0  0  0  0  0  0  0  0  0  0  0
   62.8840   33.4170   47.1900 C   0  0  0  0  0  0  0  0  0  0  0  0
   63.5197   33.4947   46.2957 H   0  0  0  0  0  0  0  0  0  0  0  0
   61.5530   33.8290   47.1350 C   0  0  0  0  0  0  0  0  0  0  0  0
   61.1475   34.2357   46.1968 H   0  0  0  0  0  0  0  0  0  0  0  0
   60.7240   33.7300   48.2660 C   0  0  0  0  0  0  0  0  0  0  0  0
   59.2870   34.1780   48.1600 C   0  0  0  0  0  0  0  0  0  0  0  0
   58.8683   34.3085   49.1688 H   0  0  0  0  0  0  0  0  0  0  0  0
   59.2399   35.1335   47.6170 H   0  0  0  0  0  0  0  0  0  0  0  0
   58.7053   33.4186   47.6170 H   0  0  0  0  0  0  0  0  0  0  0  0
   58.9500   30.7050   48.5110 C   0  0  0  0  0  0  0  0  0  0  0  0
   58.3771   31.6157   48.2820 H   0  0  0  0  0  0  0  0  0  0  0  0
   58.5920   31.2480   45.6790 N   0  0  0  0  0  0  0  0  0  0  0  0
   58.2000   31.5420   44.4120 C   0  0  0  0  0  0  0  0  0  0  0  0
   58.0870   32.9920   44.0030 C   0  0  0  0  0  0  0  0  0  0  0  0
   57.8693   32.8515   42.9340 H   0  0  0  0  0  0  0  0  0  0  0  0
   59.2670   33.8560   44.4470 C   0  0  0  0  0  0  0  0  0  0  0  0
   60.0387   33.3097   45.0092 H   0  0  0  0  0  0  0  0  0  0  0  0
   59.9129   34.3457   43.7033 H   0  0  0  0  0  0  0  0  0  0  0  0
   58.3250   34.6800   45.3190 C   0  0  0  0  0  0  0  0  0  0  0  0
   58.5426   34.6179   46.3955 H   0  0  0  0  0  0  0  0  0  0  0  0
   58.2856   35.7739   45.2103 H   0  0  0  0  0  0  0  0  0  0  0  0
   57.1450   33.8220   44.8740 C   0  0  0  0  0  0  0  0  0  0  0  0
   56.6680   33.2557   45.6875 H   0  0  0  0  0  0  0  0  0  0  0  0
   56.2471   34.2871   44.4410 H   0  0  0  0  0  0  0  0  0  0  0  0
   57.9150   30.5290   43.5430 N   0  0  0  0  0  0  0  0  0  0  0  0
   57.6080   30.7340   42.5650 H   0  0  0  0  0  0  0  0  0  0  0  0
   57.9990   29.2320   43.9330 C   0  0  0  0  0  0  0  0  0  0  0  0
   57.7741   28.4301   43.2144 H   0  0  0  0  0  0  0  0  0  0  0  0
   59.5010   26.7100   45.6690 C   0  0  0  0  0  0  0  0  0  0  0  0
   60.4625   27.1576   45.3773 H   0  0  0  0  0  0  0  0  0  0  0  0
  1  2  1  0
  2  3  1  0
  3  4  1  0
  4  5  2  0
  5  6  1  0
  6  7  2  0
  6  8  1  0
  8  9  1  0
  8 10  1  0
  8 11  1  0
  4 12  1  0
 12 13  1  0
 12 14  2  0
 14 15  1  0
 15 16  1  0
 16 17  1  0
 17 18  2  0
 18 19  1  0
 18 20  1  0
 20 21  1  0
 20 22  2  0
 22 23  1  0
 22 24  1  0
 24 25  1  0
 25 26  1  0
 26 27  2  0
 26 28  2  0
 26 29  1  0
 29 30  2  0
 30 31  1  0
 30 32  1  0
 32 33  1  0
 32 34  2  0
 34 35  1  0
 34 36  1  0
 36 37  1  0
 36 38  2  0
 38 39  1  0
 39 40  1  0
 39 41  1  0
 39 42  1  0
 24 43  2  0
 43 44  1  0
 16 45  2  0
 45 46  1  0
 46 47  1  0
 47 48  1  0
 47 49  1  0
 49 50  1  0
 49 51  1  0
 49 52  1  0
 52 53  1  0
 52 54  1  0
 52 55  1  0
 55 56  1  0
 55 57  1  0
 46 58  2  0
 58 59  1  0
 58 60  1  0
 60 61  1  0
 14 62  1  0
 62 63  1  0
 62  2  2  0
 60 15  2  0
 43 17  1  0
 55 47  1  0
 38 29  1  0
M  CHG  3   3  -1  25  -1  58   1
M  END
>  <UniqueID>  (48) 
44

>  <SMILES>  (48) 
CC(=O)/N=c1/cc(-c2c[nH+]c(C3CCC3)nc2-c2cccc([N-]S(=O)(=O)c3ccccc3C)c2)cc[n-]1

>  <Energy>  (48) 
147.2331222586171

>  <Genealogy>  (48) 
CC(=O)N=c1cc(-c2c[nH+]c(C3CCC3)nc2-c2cccc([N-]S(=O)(=O)c3ccccc3C)c2)cc[n-]1 (protonated)
CC(=O)/N=c1/cc(-c2c[nH+]c(C3CCC3)nc2-c2cccc([N-]S(=O)(=O)c3ccccc3C)c2)cc[n-]1 (cis-trans isomerization)
CC(=O)/N=c1/cc(-c2c[nH+]c(C3CCC3)nc2-c2cccc([N-]S(=O)(=O)c3ccccc3C)c2)cc[n-]1 (3D coordinates assigned)
CC(=O)/N=c1/cc(-c2c[nH+]c(C3CCC3)nc2-c2cccc([N-]S(=O)(=O)c3ccccc3C)c2)cc[n-]1 (nonaromatic ring conformer: 147.2331222586171 kcal/mol)

>  <smiles>  (48) 
CC(=O)N=c1cc(-c2cnc(C3CCC3)nc2-c2cccc(NS(=O)(=O)c3ccccc3C)c2)cc[nH]1

>  <score_type>  (48) 
oracle

>  <origin>  (48) 
adg

>  <m_score__min__energy>  (48) 
-12.619999999999999

>  <m_primary>  (48) 
energy

$$$$
48:0
     RDKit          3D

 44 47  0  0  0  0  0  0  0  0999 V2000
   58.3990   33.8090   46.8910 O   0  0  0  0  0  0  0  0  0  0  0  0
   58.4440   32.5550   46.7680 C   0  0  0  0  0  0  0  0  0  0  0  0
   57.4580   31.8710   45.9860 N   0  0  0  0  0  0  0  0  0  0  0  0
   57.4020   31.7970   44.5550 C   0  0  0  0  0  0  0  0  0  0  0  0
   58.1280   32.7300   43.8050 C   0  0  0  0  0  0  0  0  0  0  0  0
   58.1170   32.6790   42.4070 C   0  0  0  0  0  0  0  0  0  0  0  0
   57.3910   31.6820   41.7500 C   0  0  0  0  0  0  0  0  0  0  0  0
   56.6840   30.7310   42.4890 C   0  0  0  0  0  0  0  0  0  0  0  0
   56.6930   30.7800   43.8870 C   0  0  0  0  0  0  0  0  0  0  0  0
   59.5610   31.8020   47.3790 C   0  0  0  0  0  0  0  0  0  0  0  0
   59.6310   30.4020   47.3960 C   0  0  0  0  0  0  0  0  0  0  0  0
   58.6080   29.4860   46.9840 N   0  0  0  0  0  0  0  0  0  0  0  0
   58.8710   28.1020   46.7080 C   0  0  0  0  0  0  0  0  0  0  0  0
   60.0590   27.7150   46.5310 O   0  0  0  0  0  0  0  0  0  0  0  0
   57.7620   27.1250   46.5790 C   0  0  0  0  0  0  0  0  0  0  0  0
   57.9110   25.8250   47.0830 C   0  0  0  0  0  0  0  0  0  0  0  0
   56.9030   24.9230   46.9670 N   0  0  0  0  0  0  0  0  0  0  0  0
   55.7290   25.2610   46.3740 C   0  0  0  0  0  0  0  0  0  0  0  0
   54.8090   24.4110   46.2730 O   0  0  0  0  0  0  0  0  0  0  0  0
   55.5480   26.5160   45.8920 N   0  0  0  0  0  0  0  0  0  0  0  0
   56.5270   27.4550   45.9850 C   0  0  0  0  0  0  0  0  0  0  0  0
   56.3020   28.6170   45.5540 O   0  0  0  0  0  0  0  0  0  0  0  0
   61.1350   29.9110   47.9630 S   0  0  0  0  0  0  0  0  0  0  0  0
   61.7200   31.4630   48.2170 C   0  0  0  0  0  0  0  0  0  0  0  0
   60.7400   32.3980   47.8870 C   0  0  0  0  0  0  0  0  0  0  0  0
   61.0370   33.8800   47.9060 C   0  0  0  0  0  0  0  0  0  0  0  0
   62.2980   34.2100   48.7260 C   0  0  0  0  0  0  0  0  0  0  0  0
   63.4490   33.2470   48.4060 C   0  0  0  0  0  0  0  0  0  0  0  0
   63.0710   31.8040   48.7650 C   0  0  0  0  0  0  0  0  0  0  0  0
   58.7111   33.5086   44.3185 H   0  0  0  0  0  0  0  0  0  0  0  0
   58.6798   33.4237   41.8250 H   0  0  0  0  0  0  0  0  0  0  0  0
   57.3764   31.6462   40.6507 H   0  0  0  0  0  0  0  0  0  0  0  0
   56.1191   29.9421   41.9709 H   0  0  0  0  0  0  0  0  0  0  0  0
   56.1449   30.0222   44.4660 H   0  0  0  0  0  0  0  0  0  0  0  0
   57.6970   29.8880   46.6690 H   0  0  0  0  0  0  0  0  0  0  0  0
   58.8506   25.5342   47.5755 H   0  0  0  0  0  0  0  0  0  0  0  0
   61.1865   34.2246   46.8721 H   0  0  0  0  0  0  0  0  0  0  0  0
   60.1841   34.3893   48.3784 H   0  0  0  0  0  0  0  0  0  0  0  0
   62.6166   35.2367   48.4930 H   0  0  0  0  0  0  0  0  0  0  0  0
   62.0507   34.1075   49.7929 H   0  0  0  0  0  0  0  0  0  0  0  0
   63.6772   33.3029   47.3314 H   0  0  0  0  0  0  0  0  0  0  0  0
   64.3272   33.5387   49.0007 H   0  0  0  0  0  0  0  0  0  0  0  0
   63.8179   31.1177   48.3393 H   0  0  0  0  0  0  0  0  0  0  0  0
   63.0454   31.7054   49.8603 H   0  0  0  0  0  0  0  0  0  0  0  0
  1  2  2  0
  2  3  1  0
  3  4  1  0
  4  5  2  0
  5  6  1  0
  6  7  2  0
  7  8  1  0
  8  9  2  0
  2 10  1  0
 10 11  2  0
 11 12  1  0
 12 13  1  0
 13 14  2  0
 13 15  1  0
 15 16  2  0
 16 17  1  0
 17 18  1  0
 18 19  2  0
 18 20  1  0
 20 21  1  0
 21 22  2  0
 11 23  1  0
 23 24  1  0
 24 25  2  0
 25 26  1  0
 26 27  1  0
 27 28  1  0
 28 29  1  0
  9  4  1  0
 25 10  1  0
 21 15  1  0
 29 24  1  0
  5 30  1  0
  6 31  1  0
  7 32  1  0
  8 33  1  0
  9 34  1  0
 12 35  1  0
 16 36  1  0
 26 37  1  0
 26 38  1  0
 27 39  1  0
 27 40  1  0
 28 41  1  0
 28 42  1  0
 29 43  1  0
 29 44  1  0
M  CHG  3   3  -1  17  -1  20  -1
M  END
>  <UniqueID>  (49) 
45

>  <SMILES>  (49) 
O=C([N-]c1ccccc1)c1c(NC(=O)c2c[n-]c(=O)[n-]c2=O)sc2c1CCCC2

>  <Energy>  (49) 
89.6332852324782

>  <Genealogy>  (49) 
O=C([N-]c1ccccc1)c1c(NC(=O)c2c[n-]c(=O)[n-]c2=O)sc2c1CCCC2 (protonated)
O=C([N-]c1ccccc1)c1c(NC(=O)c2c[n-]c(=O)[n-]c2=O)sc2c1CCCC2 (3D coordinates assigned)
O=C([N-]c1ccccc1)c1c(NC(=O)c2c[n-]c(=O)[n-]c2=O)sc2c1CCCC2 (nonaromatic ring conformer: 89.6332852324782 kcal/mol)

>  <smiles>  (49) 
O=C(Nc1ccccc1)c1c(NC(=O)c2c[nH]c(=O)[nH]c2=O)sc2c1CCCC2

>  <score_type>  (49) 
oracle

>  <origin>  (49) 
adg

>  <m_score__min__energy>  (49) 
-13.52

>  <m_primary>  (49) 
energy

$$$$
49:0
     RDKit          3D

 39 41  0  0  0  0  0  0  0  0999 V2000
   57.3870   32.0070   42.0150 C   0  0  0  0  0  0  0  0  0  0  0  0
   57.6430   31.9650   43.7770 S   0  0  0  0  0  0  0  0  0  0  0  0
   58.0750   33.3270   44.2410 O   0  0  0  0  0  0  0  0  0  0  0  0
   56.3630   31.6020   44.4780 O   0  0  0  0  0  0  0  0  0  0  0  0
   58.8840   30.8160   44.1720 N   0  0  0  0  0  0  0  0  0  0  0  0
   59.0880   30.2910   45.4950 C   0  0  0  0  0  0  0  0  0  0  0  0
   60.1520   30.7600   46.2860 C   0  0  0  0  0  0  0  0  0  0  0  0
   60.2980   30.3340   47.6130 C   0  0  0  0  0  0  0  0  0  0  0  0
   61.3580   30.8090   48.4040 C   0  0  0  0  0  0  0  0  0  0  0  0
   61.4850   30.3900   49.7320 C   0  0  0  0  0  0  0  0  0  0  0  0
   60.5580   29.5000   50.2790 C   0  0  0  0  0  0  0  0  0  0  0  0
   59.4990   29.0210   49.5020 C   0  0  0  0  0  0  0  0  0  0  0  0
   59.3600   29.4340   48.1680 C   0  0  0  0  0  0  0  0  0  0  0  0
   58.3030   28.9640   47.3810 C   0  0  0  0  0  0  0  0  0  0  0  0
   58.1750   29.3630   46.0430 C   0  0  0  0  0  0  0  0  0  0  0  0
   56.8410   28.6550   45.0540 S   0  0  0  0  0  0  0  0  0  0  0  0
   57.1510   26.9670   45.6200 C   0  0  0  0  0  0  0  0  0  0  0  0
   58.4520   26.4140   45.6240 C   0  0  0  0  0  0  0  0  0  0  0  0
   59.5670   27.1230   45.0740 N   0  0  0  0  0  0  0  0  0  0  0  0
   58.6560   25.1300   46.1540 C   0  0  0  0  0  0  0  0  0  0  0  0
   57.5780   24.3840   46.6340 C   0  0  0  0  0  0  0  0  0  0  0  0
   56.2880   24.9070   46.5810 C   0  0  0  0  0  0  0  0  0  0  0  0
   56.0690   26.1900   46.0710 C   0  0  0  0  0  0  0  0  0  0  0  0
   54.7700   26.6820   46.0080 O   0  0  0  0  0  0  0  0  0  0  0  0
   56.3218   32.1818   41.8033 H   0  0  0  0  0  0  0  0  0  0  0  0
   57.9860   32.8189   41.5767 H   0  0  0  0  0  0  0  0  0  0  0  0
   57.6951   31.0463   41.5767 H   0  0  0  0  0  0  0  0  0  0  0  0
   59.5450   30.5560   43.4070 H   0  0  0  0  0  0  0  0  0  0  0  0
   60.8770   31.4684   45.8587 H   0  0  0  0  0  0  0  0  0  0  0  0
   62.0891   31.5117   47.9777 H   0  0  0  0  0  0  0  0  0  0  0  0
   62.3172   30.7623   50.3475 H   0  0  0  0  0  0  0  0  0  0  0  0
   60.6615   29.1748   51.3247 H   0  0  0  0  0  0  0  0  0  0  0  0
   58.7729   28.3187   49.9374 H   0  0  0  0  0  0  0  0  0  0  0  0
   57.5649   28.2744   47.8164 H   0  0  0  0  0  0  0  0  0  0  0  0
   60.5240   27.0390   45.4810 H   0  0  0  0  0  0  0  0  0  0  0  0
   59.4240   27.8320   44.3200 H   0  0  0  0  0  0  0  0  0  0  0  0
   59.6716   24.7091   46.1913 H   0  0  0  0  0  0  0  0  0  0  0  0
   57.7475   23.3818   47.0546 H   0  0  0  0  0  0  0  0  0  0  0  0
   55.4386   24.3083   46.9417 H   0  0  0  0  0  0  0  0  0  0  0  0
  1  2  1  0
  2  3  2  0
  2  4  2  0
  2  5  1  0
  5  6  1  0
  6  7  2  0
  7  8  1  0
  8  9  2  0
  9 10  1  0
 10 11  2  0
 11 12  1  0
 12 13  2  0
 13 14  1  0
 14 15  2  0
 15 16  1  0
 16 17  1  0
 17 18  2  0
 18 19  1  0
 18 20  1  0
 20 21  2  0
 21 22  1  0
 22 23  2  0
 23 24  1  0
 15  6  1  0
 23 17  1  0
 13  8  1  0
  1 25  1  0
  1 26  1  0
  1 27  1  0
  5 28  1  0
  7 29  1  0
  9 30  1  0
 10 31  1  0
 11 32  1  0
 12 33  1  0
 14 34  1  0
 19 35  1  0
 19 36  1  0
 20 37  1  0
 21 38  1  0
 22 39  1  0
M  CHG  1  24  -1
M  END
>  <UniqueID>  (50) 
46

>  <SMILES>  (50) 
CS(=O)(=O)Nc1cc2ccccc2cc1Sc1c(N)cccc1[O-]

>  <Energy>  (50) 
42.38755757260582

>  <Genealogy>  (50) 
CS(=O)(=O)Nc1cc2ccccc2cc1Sc1c(N)cccc1[O-] (protonated)
CS(=O)(=O)Nc1cc2ccccc2cc1Sc1c(N)cccc1[O-] (3D coordinates assigned)
CS(=O)(=O)Nc1cc2ccccc2cc1Sc1c(N)cccc1[O-] (optimized conformer: 42.38755757260582 kcal/mol)

>  <smiles>  (50) 
CS(=O)(=O)Nc1cc2ccccc2cc1Sc1c(N)cccc1O

>  <score_type>  (50) 
oracle

>  <origin>  (50) 
adg

>  <m_score__min__energy>  (50) 
-11.01

>  <m_primary>  (50) 
energy

$$$$
50:0
     RDKit          3D

 67 70  0  0  1  0  0  0  0  0999 V2000
   59.6560   33.8430   51.3580 C   0  0  0  0  0  0  0  0  0  0  0  0
   58.9330   32.8700   50.4180 C   0  0  0  0  0  0  0  0  0  0  0  0
   57.7320   32.3310   51.1900 C   0  0  0  0  0  0  0  0  0  0  0  0
   59.7770   31.8290   50.0180 O   0  0  0  0  0  0  0  0  0  0  0  0
   60.4180   30.9220   50.8110 C   0  0  0  0  0  0  0  0  0  0  0  0
   60.2710   30.8060   52.1750 C   0  0  0  0  0  0  0  0  0  0  0  0
   60.9540   29.8580   52.9270 C   0  0  0  0  0  0  0  0  0  0  0  0
   57.5500   31.4590   42.8220 C   0  0  0  0  0  0  0  0  0  0  0  0
   57.4800   30.6890   43.9670 C   0  0  0  0  0  0  0  0  0  0  0  0
   57.8390   31.2030   45.2210 C   0  0  0  0  0  0  0  0  0  0  0  0
   57.6950   30.3210   46.3130 N   0  0  0  0  0  0  0  0  0  0  0  0
   58.6220   29.5660   46.7700 C   0  0  0  0  0  0  0  0  0  0  0  0
   60.6650   28.1320   47.8610 N   0  0  0  0  0  0  0  0  0  0  0  0
   59.7190   27.5160   47.1220 C   0  0  0  0  0  0  0  0  0  0  0  0
   58.6810   28.2080   46.5600 C   0  0  0  0  0  0  0  0  0  0  0  0
   57.4510   27.4600   45.5870 Cl  0  0  0  0  0  0  0  0  0  0  0  0
   60.6050   29.4690   48.0650 C   0  0  0  0  0  0  0  0  0  0  0  0
   61.5260   30.0640   48.7840 N   0  0  0  0  0  0  0  0  0  0  0  0
   61.2930   30.0350   50.2030 C   0  0  0  0  0  0  0  0  0  0  0  0
   61.9820   29.0850   50.9290 C   0  0  0  0  0  0  0  0  0  0  0  0
   61.8170   28.9880   52.2990 C   0  0  0  0  0  0  0  0  0  0  0  0
   57.9800   32.7430   42.9460 C   0  0  0  0  0  0  0  0  0  0  0  0
   58.3330   33.2480   44.1840 C   0  0  0  0  0  0  0  0  0  0  0  0
   58.2820   32.5220   45.3480 C   0  0  0  0  0  0  0  0  0  0  0  0
   58.6580   33.1030   46.9220 S   0  0  0  0  0  0  0  0  0  0  0  0
   57.7920   32.4490   47.9860 O   0  0  0  0  0  0  0  0  0  0  0  0
   58.3070   34.5940   46.9310 O   0  0  0  0  0  0  0  0  0  0  0  0
   60.2960   33.0020   47.3630 N   0  0  0  0  0  0  0  0  0  0  0  0
   61.2560   33.2660   46.3490 C   0  0  0  0  0  0  0  0  0  0  0  0
   62.5870   33.5210   47.0600 C   0  0  0  0  0  0  0  0  0  0  0  0
   62.5040   33.0440   48.4050 N   0  0  0  0  0  0  0  0  0  0  0  0
   63.7140   32.3520   48.7710 C   0  0  0  0  0  0  0  0  0  0  0  0
   63.7170   32.4380   50.2690 C   0  0  0  0  0  0  0  0  0  0  0  0
   63.2460   33.8730   50.4970 C   0  0  0  0  0  0  0  0  0  0  0  0
   62.3150   34.1220   49.3440 C   0  0  0  0  0  0  0  0  0  0  0  0
   59.5830   30.1580   47.5140 N   0  0  0  0  0  0  0  0  0  0  0  0
   59.4498   33.5655   52.4022 H   0  0  0  0  0  0  0  0  0  0  0  0
   60.7392   33.7950   51.1729 H   0  0  0  0  0  0  0  0  0  0  0  0
   59.2974   34.8663   51.1729 H   0  0  0  0  0  0  0  0  0  0  0  0
   58.6149   33.3819   49.4978 H   0  0  0  0  0  0  0  0  0  0  0  0
   57.9221   32.4163   52.2701 H   0  0  0  0  0  0  0  0  0  0  0  0
   56.8364   32.9135   50.9282 H   0  0  0  0  0  0  0  0  0  0  0  0
   57.5719   31.2747   50.9282 H   0  0  0  0  0  0  0  0  0  0  0  0
   59.5840   31.4927   52.6912 H   0  0  0  0  0  0  0  0  0  0  0  0
   60.8064   29.8029   54.0157 H   0  0  0  0  0  0  0  0  0  0  0  0
   57.2671   31.0468   41.8421 H   0  0  0  0  0  0  0  0  0  0  0  0
   57.1342   29.6474   43.8929 H   0  0  0  0  0  0  0  0  0  0  0  0
   61.4640   27.5760   48.2890 H   0  0  0  0  0  0  0  0  0  0  0  0
   59.7840   26.4289   46.9673 H   0  0  0  0  0  0  0  0  0  0  0  0
   62.6692   28.3981   50.4132 H   0  0  0  0  0  0  0  0  0  0  0  0
   62.3655   28.2293   52.8765 H   0  0  0  0  0  0  0  0  0  0  0  0
   58.0475   33.3847   42.0551 H   0  0  0  0  0  0  0  0  0  0  0  0
   58.6745   34.2922   44.2393 H   0  0  0  0  0  0  0  0  0  0  0  0
   60.5190   32.2300   48.0090 H   0  0  0  0  0  0  0  0  0  0  0  0
   61.3451   32.4001   45.6765 H   0  0  0  0  0  0  0  0  0  0  0  0
   60.9602   34.1328   45.7398 H   0  0  0  0  0  0  0  0  0  0  0  0
   63.3932   32.9912   46.5315 H   0  0  0  0  0  0  0  0  0  0  0  0
   62.8011   34.5999   47.0646 H   0  0  0  0  0  0  0  0  0  0  0  0
   63.6864   31.3047   48.4359 H   0  0  0  0  0  0  0  0  0  0  0  0
   64.6149   32.7850   48.3118 H   0  0  0  0  0  0  0  0  0  0  0  0
   63.0207   31.7118   50.7138 H   0  0  0  0  0  0  0  0  0  0  0  0
   64.6902   32.2089   50.7277 H   0  0  0  0  0  0  0  0  0  0  0  0
   62.7170   33.9657   51.4570 H   0  0  0  0  0  0  0  0  0  0  0  0
   64.0749   34.5946   50.5429 H   0  0  0  0  0  0  0  0  0  0  0  0
   61.2732   34.1366   49.6968 H   0  0  0  0  0  0  0  0  0  0  0  0
   62.5270   35.0930   48.8727 H   0  0  0  0  0  0  0  0  0  0  0  0
   59.5390   31.1940   47.6750 H   0  0  0  0  0  0  0  0  0  0  0  0
  1  2  1  0
  2  3  1  0
  2  4  1  0
  4  5  1  0
  5  6  2  0
  6  7  1  0
  7  8  2  0
  8  9  1  0
  9 10  2  0
 10 11  1  0
 11 12  2  0
 12 13  1  0
 13 14  1  0
 14 15  2  0
 15 16  1  0
 15 17  1  0
 17 18  2  0
 18 19  1  0
 19 20  2  0
 20 21  1  0
 21 22  2  0
 22 23  1  0
 23 24  2  0
 24 25  1  0
 25 26  2  0
 25 27  2  0
 25 28  1  0
 28 29  1  0
 29 30  1  0
 30 31  1  0
 31 32  1  0
 32 33  1  0
 33 34  1  0
 34 35  1  0
 17 36  1  0
 10  5  1  0
 36 12  1  0
 24 19  1  0
 35 31  1  0
  1 37  1  0
  1 38  1  0
  1 39  1  0
  2 40  1  0
  3 41  1  0
  3 42  1  0
  3 43  1  0
  6 44  1  0
  7 45  1  0
  8 46  1  0
  9 47  1  0
 13 48  1  0
 14 49  1  0
 20 50  1  0
 21 51  1  0
 22 52  1  0
 23 53  1  0
 28 54  1  0
 29 55  1  0
 29 56  1  0
 30 57  1  0
 30 58  1  0
 32 59  1  0
 32 60  1  0
 33 61  1  0
 33 62  1  0
 34 63  1  0
 34 64  1  0
 35 65  1  0
 35 66  1  0
 36 67  1  0
M  END
>  <smiles>  (51) 
CC(C)Oc1ccccc1N=c1[nH]cc(Cl)c(=Nc2ccccc2S(=O)(=O)NCCN2CCCC2)[nH]1

>  <score_type>  (51) 
oracle

>  <origin>  (51) 
adg

>  <m_score__min__energy>  (51) 
-9.5099999999999998

>  <m_primary>  (51) 
energy

$$$$
51:0
     RDKit          3D

 65 67  0  0  0  0  0  0  0  0999 V2000
   57.5830   31.7164   53.0430 H   0  0  0  0  0  0  0  0  0  0  0  0
   56.5280   31.7740   52.7370 C   0  0  0  0  0  0  0  0  0  0  0  0
   56.1016   32.7340   52.4106 H   0  0  0  0  0  0  0  0  0  0  0  0
   55.7610   30.6730   52.7620 C   0  0  0  0  0  0  0  0  0  0  0  0
   54.4110   30.5920   52.4040 C   0  0  0  0  0  0  0  0  0  0  0  0
   53.6120   31.5980   51.9980 C   0  0  0  0  0  0  0  0  0  0  0  0
   53.7518   32.5871   52.4585 H   0  0  0  0  0  0  0  0  0  0  0  0
   52.5620   31.4530   50.9740 C   0  0  0  0  0  0  0  0  0  0  0  0
   52.5500   30.4640   50.0630 N   0  0  0  0  0  0  0  0  0  0  0  0
   51.3960   30.6700   49.3920 C   0  0  0  0  0  0  0  0  0  0  0  0
   51.0280   29.9400   48.4350 O   0  0  0  0  0  0  0  0  0  0  0  0
   50.6620   31.7140   49.8350 N   0  0  0  0  0  0  0  0  0  0  0  0
   51.4060   32.1920   50.8450 C   0  0  0  0  0  0  0  0  0  0  0  0
   51.0140   33.2520   51.6540 O   0  0  0  0  0  0  0  0  0  0  0  0
   54.0280   29.2740   52.6230 C   0  0  0  0  0  0  0  0  0  0  0  0
   53.0278   28.8451   52.4631 H   0  0  0  0  0  0  0  0  0  0  0  0
   55.1490   28.6070   53.0810 C   0  0  0  0  0  0  0  0  0  0  0  0
   55.1770   27.1680   53.4920 C   0  0  0  0  0  0  0  0  0  0  0  0
   55.1783   27.1002   54.5899 H   0  0  0  0  0  0  0  0  0  0  0  0
   54.2887   26.6557   53.0941 H   0  0  0  0  0  0  0  0  0  0  0  0
   56.0846   26.6906   53.0941 H   0  0  0  0  0  0  0  0  0  0  0  0
   56.1960   29.4550   53.1710 N   0  0  0  0  0  0  0  0  0  0  0  0
   57.5090   29.1190   53.6540 C   0  0  0  0  0  0  0  0  0  0  0  0
   57.6980   28.8480   55.0170 C   0  0  0  0  0  0  0  0  0  0  0  0
   56.8405   28.8784   55.7053 H   0  0  0  0  0  0  0  0  0  0  0  0
   58.9690   28.5400   55.5040 C   0  0  0  0  0  0  0  0  0  0  0  0
   59.1119   28.3296   56.5742 H   0  0  0  0  0  0  0  0  0  0  0  0
   60.0590   28.4990   54.6330 C   0  0  0  0  0  0  0  0  0  0  0  0
   61.0612   28.2601   55.0184 H   0  0  0  0  0  0  0  0  0  0  0  0
   59.8790   28.7610   53.2720 C   0  0  0  0  0  0  0  0  0  0  0  0
   60.7412   28.7241   52.5899 H   0  0  0  0  0  0  0  0  0  0  0  0
   58.6010   29.0720   52.7680 C   0  0  0  0  0  0  0  0  0  0  0  0
   58.3700   29.3260   51.4050 O   0  0  0  0  0  0  0  0  0  0  0  0
   58.3130   30.6160   50.7960 C   0  0  0  0  0  0  0  0  0  0  0  0
   57.3022   30.7836   50.3957 H   0  0  0  0  0  0  0  0  0  0  0  0
   58.5511   31.3786   51.5522 H   0  0  0  0  0  0  0  0  0  0  0  0
   59.3320   30.7130   49.6530 C   0  0  0  0  0  0  0  0  0  0  0  0
   58.8278   30.4612   48.7084 H   0  0  0  0  0  0  0  0  0  0  0  0
   59.7238   31.7408   49.6403 H   0  0  0  0  0  0  0  0  0  0  0  0
   60.5280   29.7570   49.8460 C   0  0  0  0  0  0  0  0  0  0  0  0
   61.3858   30.1559   49.2846 H   0  0  0  0  0  0  0  0  0  0  0  0
   60.7240   29.7008   50.9269 H   0  0  0  0  0  0  0  0  0  0  0  0
   60.2560   28.3230   49.3630 C   0  0  0  0  0  0  0  0  0  0  0  0
   61.1213   27.9800   48.7768 H   0  0  0  0  0  0  0  0  0  0  0  0
   60.0927   27.6996   50.2545 H   0  0  0  0  0  0  0  0  0  0  0  0
   59.0000   28.2160   48.4900 C   0  0  0  0  0  0  0  0  0  0  0  0
   58.1081   28.2353   49.1336 H   0  0  0  0  0  0  0  0  0  0  0  0
   58.9779   29.0639   47.7896 H   0  0  0  0  0  0  0  0  0  0  0  0
   59.0170   26.9730   47.7290 N   0  0  0  0  0  0  0  0  0  0  0  0
   58.9220   26.9300   46.3040 C   0  0  0  0  0  0  0  0  0  0  0  0
   59.7470   26.2330   45.6570 O   0  0  0  0  0  0  0  0  0  0  0  0
   57.9130   27.6550   45.6510 O   0  0  0  0  0  0  0  0  0  0  0  0
   58.0420   28.3650   44.4110 C   0  0  0  0  0  0  0  0  0  0  0  0
   56.8670   29.3420   44.2210 C   0  0  0  0  0  0  0  0  0  0  0  0
   56.4888   29.6564   45.2049 H   0  0  0  0  0  0  0  0  0  0  0  0
   57.2106   30.2243   43.6612 H   0  0  0  0  0  0  0  0  0  0  0  0
   56.0622   28.8431   43.6612 H   0  0  0  0  0  0  0  0  0  0  0  0
   59.3490   29.1710   44.4850 C   0  0  0  0  0  0  0  0  0  0  0  0
   59.6182   29.3370   45.5385 H   0  0  0  0  0  0  0  0  0  0  0  0
   60.1534   28.6119   43.9847 H   0  0  0  0  0  0  0  0  0  0  0  0
   59.2105   30.1408   43.9847 H   0  0  0  0  0  0  0  0  0  0  0  0
   58.1290   27.3820   43.2290 C   0  0  0  0  0  0  0  0  0  0  0  0
   58.2199   26.3549   43.6122 H   0  0  0  0  0  0  0  0  0  0  0  0
   57.2200   27.4652   42.6152 H   0  0  0  0  0  0  0  0  0  0  0  0
   59.0093   27.6236   42.6152 H   0  0  0  0  0  0  0  0  0  0  0  0
  1  2  1  0
  2  3  1  0
  2  4  2  0
  4  5  1  0
  5  6  2  0
  6  7  1  0
  6  8  1  0
  8  9  1  0
  9 10  1  0
 10 11  2  0
 10 12  1  0
 12 13  1  0
 13 14  1  0
  5 15  1  0
 15 16  1  0
 15 17  2  0
 17 18  1  0
 18 19  1  0
 18 20  1  0
 18 21  1  0
 17 22  1  0
 22 23  1  0
 23 24  2  0
 24 25  1  0
 24 26  1  0
 26 27  1  0
 26 28  2  0
 28 29  1  0
 28 30  1  0
 30 31  1  0
 30 32  2  0
 32 33  1  0
 33 34  1  0
 34 35  1  0
 34 36  1  0
 34 37  1  0
 37 38  1  0
 37 39  1  0
 37 40  1  0
 40 41  1  0
 40 42  1  0
 40 43  1  0
 43 44  1  0
 43 45  1  0
 43 46  1  0
 46 47  1  0
 46 48  1  0
 46 49  1  0
 49 50  1  0
 50 51  2  0
 50 52  1  0
 52 53  1  0
 53 54  1  0
 54 55  1  0
 54 56  1  0
 54 57  1  0
 53 58  1  0
 58 59  1  0
 58 60  1  0
 58 61  1  0
 53 62  1  0
 62 63  1  0
 62 64  1  0
 62 65  1  0
 22  4  1  0
 32 23  1  0
 13  8  2  0
M  CHG  4   9  -1  12  -1  14  -1  49  -1
M  END
>  <UniqueID>  (52) 
47

>  <SMILES>  (52) 
C=c1/c(=C/c2[n-]c(=O)[n-]c2[O-])cc(C)n1-c1ccccc1OCCCCC[N-]C(=O)OC(C)(C)C

>  <Energy>  (52) 
125.11222229470705

>  <Genealogy>  (52) 
C=c1c(=Cc2[n-]c(=O)[n-]c2[O-])cc(C)n1-c1ccccc1OCCCCC[N-]C(=O)OC(C)(C)C (protonated)
C=c1/c(=C/c2[n-]c(=O)[n-]c2[O-])cc(C)n1-c1ccccc1OCCCCC[N-]C(=O)OC(C)(C)C (cis-trans isomerization)
C=c1/c(=C/c2[n-]c(=O)[n-]c2[O-])cc(C)n1-c1ccccc1OCCCCC[N-]C(=O)OC(C)(C)C (3D coordinates assigned)
C=c1/c(=C/c2[n-]c(=O)[n-]c2[O-])cc(C)n1-c1ccccc1OCCCCC[N-]C(=O)OC(C)(C)C (optimized conformer: 125.11222229470705 kcal/mol)

>  <smiles>  (52) 
C=c1c(=Cc2[nH]c(=O)[nH]c2O)cc(C)n1-c1ccccc1OCCCCCNC(=O)OC(C)(C)C

>  <score_type>  (52) 
oracle

>  <origin>  (52) 
adg

>  <m_score__min__energy>  (52) 
-16.91

>  <m_primary>  (52) 
energy

$$$$
52:0
     RDKit          3D

 48 50  0  0  0  0  0  0  0  0999 V2000
   59.4346   28.4158   45.1090 H   0  0  0  0  0  0  0  0  0  0  0  0
   58.3370   28.4830   45.1370 C   0  0  0  0  0  0  0  0  0  0  0  0
   57.6050   27.4290   45.5810 N   0  0  0  0  0  0  0  0  0  0  0  0
   56.2500   27.4780   45.6210 C   0  0  0  0  0  0  0  0  0  0  0  0
   55.5910   26.4400   46.0490 N   0  0  0  0  0  0  0  0  0  0  0  0
   56.1270   25.1380   46.3420 C   0  0  0  0  0  0  0  0  0  0  0  0
   55.5140   24.3340   47.0980 O   0  0  0  0  0  0  0  0  0  0  0  0
   57.4320   24.7260   45.7240 C   0  0  0  0  0  0  0  0  0  0  0  0
   57.9085   25.6186   45.2924 H   0  0  0  0  0  0  0  0  0  0  0  0
   58.0358   24.2715   46.5233 H   0  0  0  0  0  0  0  0  0  0  0  0
   57.2870   23.6650   44.6110 C   0  0  2  0  0  0  0  0  0  0  0  0
   58.1836   23.7804   43.9842 H   0  0  0  0  0  0  0  0  0  0  0  0
   56.0500   23.9110   43.7020 C   0  0  0  0  0  0  0  0  0  0  0  0
   56.3342   24.6223   42.9125 H   0  0  0  0  0  0  0  0  0  0  0  0
   55.2479   24.3006   44.3462 H   0  0  0  0  0  0  0  0  0  0  0  0
   55.5350   22.6840   43.0620 N   0  0  0  0  0  0  0  0  0  0  0  0
   54.8600   22.2160   43.7130 H   0  0  0  0  0  0  0  0  0  0  0  0
   56.6070   21.7350   42.7350 C   0  0  0  0  0  0  0  0  0  0  0  0
   57.3538   22.2425   42.1067 H   0  0  0  0  0  0  0  0  0  0  0  0
   56.1610   20.8817   42.2030 H   0  0  0  0  0  0  0  0  0  0  0  0
   57.3000   21.2030   44.0050 C   0  0  0  0  0  0  0  0  0  0  0  0
   58.3443   20.9587   43.7606 H   0  0  0  0  0  0  0  0  0  0  0  0
   56.7441   20.3154   44.3413 H   0  0  0  0  0  0  0  0  0  0  0  0
   57.2890   22.2240   45.1560 C   0  0  0  0  0  0  0  0  0  0  0  0
   58.1839   22.0753   45.7782 H   0  0  0  0  0  0  0  0  0  0  0  0
   56.3774   22.0721   45.7526 H   0  0  0  0  0  0  0  0  0  0  0  0
   55.6060   28.6080   45.2190 N   0  0  0  0  0  0  0  0  0  0  0  0
   56.2930   29.6920   44.7710 C   0  0  0  0  0  0  0  0  0  0  0  0
   55.6580   30.7190   44.4110 O   0  0  0  0  0  0  0  0  0  0  0  0
   57.6970   29.6570   44.7140 C   0  0  0  0  0  0  0  0  0  0  0  0
   58.5030   30.8240   44.1980 C   0  0  0  0  0  0  0  0  0  0  0  0
   58.1107   31.1269   43.2160 H   0  0  0  0  0  0  0  0  0  0  0  0
   59.5551   30.5146   44.1118 H   0  0  0  0  0  0  0  0  0  0  0  0
   58.4200   31.9960   45.1470 C   0  0  0  0  0  0  0  0  0  0  0  0
   57.6520   33.1200   44.7970 C   0  0  0  0  0  0  0  0  0  0  0  0
   57.1024   33.1300   43.8442 H   0  0  0  0  0  0  0  0  0  0  0  0
   57.5810   34.2240   45.6490 C   0  0  0  0  0  0  0  0  0  0  0  0
   56.9745   35.0976   45.3680 H   0  0  0  0  0  0  0  0  0  0  0  0
   58.2790   34.2190   46.8560 C   0  0  0  0  0  0  0  0  0  0  0  0
   58.2226   35.0897   47.5259 H   0  0  0  0  0  0  0  0  0  0  0  0
   59.0500   33.1110   47.2170 C   0  0  0  0  0  0  0  0  0  0  0  0
   59.5987   33.1142   48.1703 H   0  0  0  0  0  0  0  0  0  0  0  0
   59.1290   31.9890   46.3670 C   0  0  0  0  0  0  0  0  0  0  0  0
   59.8950   30.8620   46.7040 O   0  0  0  0  0  0  0  0  0  0  0  0
   61.1770   30.9080   47.3200 C   0  0  0  0  0  0  0  0  0  0  0  0
   61.0587   30.9038   48.4136 H   0  0  0  0  0  0  0  0  0  0  0  0
   61.7638   30.0303   47.0113 H   0  0  0  0  0  0  0  0  0  0  0  0
   61.6994   31.8255   47.0113 H   0  0  0  0  0  0  0  0  0  0  0  0
  1  2  1  0
  2  3  1  0
  3  4  1  0
  4  5  2  0
  5  6  1  0
  6  7  2  0
  6  8  1  0
  8  9  1  0
  8 10  1  0
  8 11  1  0
 11 12  1  6
 11 13  1  0
 13 14  1  0
 13 15  1  0
 13 16  1  0
 16 17  1  0
 16 18  1  0
 18 19  1  0
 18 20  1  0
 18 21  1  0
 21 22  1  0
 21 23  1  0
 21 24  1  0
 24 25  1  0
 24 26  1  0
  4 27  1  0
 27 28  1  0
 28 29  2  0
 28 30  1  0
 30 31  1  0
 31 32  1  0
 31 33  1  0
 31 34  1  0
 34 35  2  0
 35 36  1  0
 35 37  1  0
 37 38  1  0
 37 39  2  0
 39 40  1  0
 39 41  1  0
 41 42  1  0
 41 43  2  0
 43 44  1  0
 44 45  1  0
 45 46  1  0
 45 47  1  0
 45 48  1  0
 30  2  2  0
 43 34  1  0
 24 11  1  0
M  CHG  2   3  -1  27  -1
M  END
>  <UniqueID>  (53) 
48

>  <SMILES>  (53) 
COc1ccccc1Cc1c[n-]/c(=N/C(=O)C[C@H]2CCCNC2)[n-]c1=O

>  <Energy>  (53) 
55.595510886387

>  <Genealogy>  (53) 
COc1ccccc1Cc1c[n-]c(=NC(=O)CC2CCCNC2)[n-]c1=O (protonated)
COc1ccccc1Cc1c[n-]c(=NC(=O)C[C@H]2CCCNC2)[n-]c1=O (chirality)
COc1ccccc1Cc1c[n-]/c(=N/C(=O)C[C@H]2CCCNC2)[n-]c1=O (cis-trans isomerization)
COc1ccccc1Cc1c[n-]/c(=N/C(=O)C[C@H]2CCCNC2)[n-]c1=O (3D coordinates assigned)
COc1ccccc1Cc1c[n-]/c(=N/C(=O)C[C@H]2CCCNC2)[n-]c1=O (nonaromatic ring conformer: 55.595510886387 kcal/mol)

>  <smiles>  (53) 
COc1ccccc1Cc1c[nH]c(=NC(=O)CC2CCCNC2)[nH]c1=O

>  <score_type>  (53) 
oracle

>  <origin>  (53) 
adg

>  <m_score__min__energy>  (53) 
-12.56

>  <m_primary>  (53) 
energy

$$$$
53:0
     RDKit          3D

 54 57  0  0  0  0  0  0  0  0999 V2000
   55.5660   24.1860   44.7140 C   0  0  0  0  0  0  0  0  0  0  0  0
   56.0840   25.3050   45.9940 S   0  0  0  0  0  0  0  0  0  0  0  0
   55.1910   26.5140   45.9950 O   0  0  0  0  0  0  0  0  0  0  0  0
   55.9860   24.5940   47.3170 O   0  0  0  0  0  0  0  0  0  0  0  0
   57.7220   25.7870   45.6950 N   0  0  0  0  0  0  0  0  0  0  0  0
   58.3810   26.9140   46.2880 C   0  0  0  0  0  0  0  0  0  0  0  0
   59.4590   27.5680   45.6730 C   0  0  0  0  0  0  0  0  0  0  0  0
   60.0250   28.7000   46.2660 C   0  0  0  0  0  0  0  0  0  0  0  0
   59.5220   29.1640   47.5010 C   0  0  0  0  0  0  0  0  0  0  0  0
   59.9650   30.2400   48.0910 N   0  0  0  0  0  0  0  0  0  0  0  0
   59.3070   31.5040   48.2770 C   0  0  0  0  0  0  0  0  0  0  0  0
   59.1450   31.9770   49.4310 O   0  0  0  0  0  0  0  0  0  0  0  0
   58.8320   32.2370   47.0820 C   0  0  0  0  0  0  0  0  0  0  0  0
   58.1880   31.5080   46.1280 N   0  0  0  0  0  0  0  0  0  0  0  0
   57.7740   32.0300   44.9460 C   0  0  0  0  0  0  0  0  0  0  0  0
   57.0620   31.1350   43.9550 C   0  0  1  0  0  0  0  0  0  0  0  0
   57.7670   29.7970   43.7470 C   0  0  0  0  0  0  0  0  0  0  0  0
   56.7740   28.7560   44.2310 C   0  0  0  0  0  0  0  0  0  0  0  0
   55.4420   29.3500   44.1570 N   0  0  0  0  0  0  0  0  0  0  0  0
   55.6400   30.7790   44.4000 C   0  0  0  0  0  0  0  0  0  0  0  0
   58.0510   33.3710   44.6590 C   0  0  0  0  0  0  0  0  0  0  0  0
   58.6990   34.1570   45.6090 C   0  0  0  0  0  0  0  0  0  0  0  0
   59.0480   33.6280   46.8710 C   0  0  0  0  0  0  0  0  0  0  0  0
   59.6610   34.4560   47.8980 N   0  0  0  0  0  0  0  0  0  0  0  0
   61.0490   34.1350   48.1460 C   0  0  0  0  0  0  0  0  0  0  0  0
   61.8980   33.7490   47.0960 C   0  0  0  0  0  0  0  0  0  0  0  0
   63.2390   33.4570   47.3520 C   0  0  0  0  0  0  0  0  0  0  0  0
   63.7250   33.5600   48.6580 C   0  0  0  0  0  0  0  0  0  0  0  0
   65.0230   33.2790   48.9250 F   0  0  0  0  0  0  0  0  0  0  0  0
   62.8940   33.9380   49.6660 N   0  0  0  0  0  0  0  0  0  0  0  0
   61.5840   34.2250   49.4430 C   0  0  0  0  0  0  0  0  0  0  0  0
   58.4880   28.4980   48.0790 N   0  0  0  0  0  0  0  0  0  0  0  0
   57.9190   27.3990   47.5160 C   0  0  0  0  0  0  0  0  0  0  0  0
   55.1454   23.2774   45.1695 H   0  0  0  0  0  0  0  0  0  0  0  0
   54.8010   24.6713   44.0902 H   0  0  0  0  0  0  0  0  0  0  0  0
   56.4311   23.9167   44.0902 H   0  0  0  0  0  0  0  0  0  0  0  0
   59.8599   27.1888   44.7214 H   0  0  0  0  0  0  0  0  0  0  0  0
   60.8566   29.2258   45.7740 H   0  0  0  0  0  0  0  0  0  0  0  0
   57.0573   31.7276   43.0283 H   0  0  0  0  0  0  0  0  0  0  0  0
   58.0014   29.6438   42.6832 H   0  0  0  0  0  0  0  0  0  0  0  0
   58.7227   29.7426   44.2889 H   0  0  0  0  0  0  0  0  0  0  0  0
   56.8232   27.8637   43.5896 H   0  0  0  0  0  0  0  0  0  0  0  0
   57.0049   28.4513   45.2624 H   0  0  0  0  0  0  0  0  0  0  0  0
   55.0950   29.2400   43.1720 H   0  0  0  0  0  0  0  0  0  0  0  0
   54.9092   31.3622   43.8206 H   0  0  0  0  0  0  0  0  0  0  0  0
   55.5007   31.0112   45.4661 H   0  0  0  0  0  0  0  0  0  0  0  0
   57.7591   33.8017   43.6898 H   0  0  0  0  0  0  0  0  0  0  0  0
   58.9421   35.2036   45.3731 H   0  0  0  0  0  0  0  0  0  0  0  0
   59.1000   34.3680   48.7770 H   0  0  0  0  0  0  0  0  0  0  0  0
   59.6470   35.4580   47.5960 H   0  0  0  0  0  0  0  0  0  0  0  0
   61.5060   33.6767   46.0708 H   0  0  0  0  0  0  0  0  0  0  0  0
   63.9064   33.1489   46.5337 H   0  0  0  0  0  0  0  0  0  0  0  0
   60.9397   34.5290   50.2811 H   0  0  0  0  0  0  0  0  0  0  0  0
   57.0907   26.8884   48.0290 H   0  0  0  0  0  0  0  0  0  0  0  0
  1  2  1  0
  2  3  2  0
  2  4  2  0
  2  5  1  0
  5  6  1  0
  6  7  1  0
  7  8  2  0
  8  9  1  0
  9 10  2  3
 10 11  1  0
 11 12  2  0
 11 13  1  0
 13 14  2  0
 14 15  1  0
 15 16  1  0
 16 17  1  0
 17 18  1  0
 18 19  1  0
 19 20  1  0
 15 21  2  0
 21 22  1  0
 22 23  2  0
 23 24  1  0
 24 25  1  0
 25 26  2  0
 26 27  1  0
 27 28  2  0
 28 29  1  0
 28 30  1  0
 30 31  2  0
  9 32  1  0
 32 33  1  0
 33  6  2  0
 23 13  1  0
 31 25  1  0
 20 16  1  0
  1 34  1  0
  1 35  1  0
  1 36  1  0
  7 37  1  0
  8 38  1  0
 16 39  1  6
 17 40  1  0
 17 41  1  0
 18 42  1  0
 18 43  1  0
 19 44  1  0
 20 45  1  0
 20 46  1  0
 21 47  1  0
 22 48  1  0
 24 49  1  0
 24 50  1  0
 26 51  1  0
 27 52  1  0
 31 53  1  0
 33 54  1  0
M  CHG  3   5  -1  24   1  32  -1
M  END
>  <UniqueID>  (54) 
49

>  <SMILES>  (54) 
CS(=O)(=O)[N-]c1ccc(=NC(=O)c2nc([C@H]3CCNC3)ccc2[NH2+]c2ccc(F)nc2)[n-]c1

>  <Energy>  (54) 
78.78424897449395

>  <Genealogy>  (54) 
CS(=O)(=O)[N-]c1ccc(=NC(=O)c2nc(C3CCNC3)ccc2[NH2+]c2ccc(F)nc2)[n-]c1 (protonated)
CS(=O)(=O)[N-]c1ccc(=NC(=O)c2nc([C@H]3CCNC3)ccc2[NH2+]c2ccc(F)nc2)[n-]c1 (chirality)
CS(=O)(=O)[N-]c1ccc(=NC(=O)c2nc([C@H]3CCNC3)ccc2[NH2+]c2ccc(F)nc2)[n-]c1 (3D coordinates assigned)
CS(=O)(=O)[N-]c1ccc(=NC(=O)c2nc([C@H]3CCNC3)ccc2[NH2+]c2ccc(F)nc2)[n-]c1 (nonaromatic ring conformer: 78.78424897449395 kcal/mol)

>  <smiles>  (54) 
CS(=O)(=O)Nc1ccc(=NC(=O)c2nc(C3CCNC3)ccc2Nc2ccc(F)nc2)[nH]c1

>  <score_type>  (54) 
oracle

>  <origin>  (54) 
adg

>  <m_score__min__energy>  (54) 
-10.56

>  <m_primary>  (54) 
energy

$$$$
54:0
     RDKit          3D

 59 61  0  0  0  0  0  0  0  0999 V2000
   59.8744   35.4621   49.4895 H   0  0  0  0  0  0  0  0  0  0  0  0
   59.6340   34.3890   49.5170 C   0  0  0  0  0  0  0  0  0  0  0  0
   59.3580   33.7290   48.2250 C   0  0  0  0  0  0  0  0  0  0  0  0
   58.2260   33.2020   48.0510 O   0  0  0  0  0  0  0  0  0  0  0  0
   60.3900   33.5890   47.2340 N   0  0  0  0  0  0  0  0  0  0  0  0
   61.2600   32.6260   47.1020 C   0  0  0  0  0  0  0  0  0  0  0  0
   60.8750   31.2120   46.9190 C   0  0  0  0  0  0  0  0  0  0  0  0
   61.6920   30.4230   46.3700 O   0  0  0  0  0  0  0  0  0  0  0  0
   59.5750   30.7510   47.3250 N   0  0  0  0  0  0  0  0  0  0  0  0
   58.9840   31.3880   47.9040 H   0  0  0  0  0  0  0  0  0  0  0  0
   59.0730   29.4290   47.0690 C   0  0  0  0  0  0  0  0  0  0  0  0
   58.1420   29.2360   46.0380 C   0  0  0  0  0  0  0  0  0  0  0  0
   57.8036   30.0950   45.4399 H   0  0  0  0  0  0  0  0  0  0  0  0
   57.6410   27.9600   45.7650 C   0  0  0  0  0  0  0  0  0  0  0  0
   56.9019   27.8228   44.9619 H   0  0  0  0  0  0  0  0  0  0  0  0
   58.0770   26.8500   46.5120 C   0  0  0  0  0  0  0  0  0  0  0  0
   57.5790   25.5250   46.2830 N   0  0  0  0  0  0  0  0  0  0  0  0
   55.9150   25.0920   46.0620 S   0  0  0  0  0  0  0  0  0  0  0  0
   55.0660   26.3300   45.9960 O   0  0  0  0  0  0  0  0  0  0  0  0
   55.4710   24.2700   47.2380 O   0  0  0  0  0  0  0  0  0  0  0  0
   55.7240   24.1270   44.5790 C   0  0  0  0  0  0  0  0  0  0  0  0
   55.5168   23.0804   44.8467 H   0  0  0  0  0  0  0  0  0  0  0  0
   54.8875   24.5265   43.9868 H   0  0  0  0  0  0  0  0  0  0  0  0
   56.6496   24.1777   43.9868 H   0  0  0  0  0  0  0  0  0  0  0  0
   59.0360   27.0390   47.5150 C   0  0  0  0  0  0  0  0  0  0  0  0
   59.3998   26.1753   48.0908 H   0  0  0  0  0  0  0  0  0  0  0  0
   59.5350   28.3150   47.7910 C   0  0  0  0  0  0  0  0  0  0  0  0
   60.2929   28.4481   48.5770 H   0  0  0  0  0  0  0  0  0  0  0  0
   62.7200   32.9840   47.1030 C   0  0  0  0  0  0  0  0  0  0  0  0
   63.2827   32.2109   46.5592 H   0  0  0  0  0  0  0  0  0  0  0  0
   62.8474   33.9606   46.6131 H   0  0  0  0  0  0  0  0  0  0  0  0
   63.2390   33.0750   48.5130 C   0  0  0  0  0  0  0  0  0  0  0  0
   64.1480   32.1210   49.0000 C   0  0  0  0  0  0  0  0  0  0  0  0
   64.4553   31.2813   48.3594 H   0  0  0  0  0  0  0  0  0  0  0  0
   64.6640   32.2330   50.2940 C   0  0  0  0  0  0  0  0  0  0  0  0
   65.3722   31.4803   50.6707 H   0  0  0  0  0  0  0  0  0  0  0  0
   64.2800   33.3020   51.1100 C   0  0  0  0  0  0  0  0  0  0  0  0
   64.6857   33.3891   52.1287 H   0  0  0  0  0  0  0  0  0  0  0  0
   63.3810   34.2600   50.6320 C   0  0  0  0  0  0  0  0  0  0  0  0
   63.0800   35.1002   51.2749 H   0  0  0  0  0  0  0  0  0  0  0  0
   62.8640   34.1510   49.3370 C   0  0  0  0  0  0  0  0  0  0  0  0
   62.1615   34.9097   48.9617 H   0  0  0  0  0  0  0  0  0  0  0  0
   59.6180   33.7970   50.7230 C   0  0  0  0  0  0  0  0  0  0  0  0
   60.3050   34.1878   51.4881 H   0  0  0  0  0  0  0  0  0  0  0  0
   58.7510   32.6630   51.1030 C   0  0  0  0  0  0  0  0  0  0  0  0
   57.6880   32.8950   51.9880 C   0  0  0  0  0  0  0  0  0  0  0  0
   57.5084   33.9097   52.3729 H   0  0  0  0  0  0  0  0  0  0  0  0
   56.8570   31.8460   52.3830 C   0  0  0  0  0  0  0  0  0  0  0  0
   56.0207   32.0368   53.0717 H   0  0  0  0  0  0  0  0  0  0  0  0
   57.0860   30.5550   51.9050 C   0  0  0  0  0  0  0  0  0  0  0  0
   56.4207   29.7326   52.2067 H   0  0  0  0  0  0  0  0  0  0  0  0
   58.1570   30.3040   51.0450 C   0  0  0  0  0  0  0  0  0  0  0  0
   58.3353   29.2831   50.6763 H   0  0  0  0  0  0  0  0  0  0  0  0
   59.0110   31.3530   50.6470 C   0  0  0  0  0  0  0  0  0  0  0  0
   60.1170   31.1280   49.8100 O   0  0  0  0  0  0  0  0  0  0  0  0
   61.2730   30.3860   50.1790 C   0  0  0  0  0  0  0  0  0  0  0  0
   61.3446   30.3401   51.2757 H   0  0  0  0  0  0  0  0  0  0  0  0
   61.1991   29.3662   49.7733 H   0  0  0  0  0  0  0  0  0  0  0  0
   62.1694   30.8779   49.7733 H   0  0  0  0  0  0  0  0  0  0  0  0
  1  2  1  0
  2  3  1  0
  3  4  2  0
  3  5  1  0
  5  6  2  0
  6  7  1  0
  7  8  2  0
  7  9  1  0
  9 10  1  0
  9 11  1  0
 11 12  2  0
 12 13  1  0
 12 14  1  0
 14 15  1  0
 14 16  2  0
 16 17  1  0
 17 18  1  0
 18 19  2  0
 18 20  2  0
 18 21  1  0
 21 22  1  0
 21 23  1  0
 21 24  1  0
 16 25  1  0
 25 26  1  0
 25 27  2  0
 27 28  1  0
  6 29  1  0
 29 30  1  0
 29 31  1  0
 29 32  1  0
 32 33  2  0
 33 34  1  0
 33 35  1  0
 35 36  1  0
 35 37  2  0
 37 38  1  0
 37 39  1  0
 39 40  1  0
 39 41  2  0
 41 42  1  0
  2 43  2  3
 43 44  1  0
 43 45  1  0
 45 46  2  0
 46 47  1  0
 46 48  1  0
 48 49  1  0
 48 50  2  0
 50 51  1  0
 50 52  1  0
 52 53  1  0
 52 54  2  0
 54 55  1  0
 55 56  1  0
 56 57  1  0
 56 58  1  0
 56 59  1  0
 27 11  1  0
 41 32  1  0
 54 45  1  0
M  CHG  1  17  -1
M  END
>  <UniqueID>  (55) 
50

>  <SMILES>  (55) 
COc1ccccc1C=CC(=O)/N=C(/Cc1ccccc1)C(=O)Nc1ccc([N-]S(C)(=O)=O)cc1

>  <Energy>  (55) 
74.52929458084517

>  <Genealogy>  (55) 
COc1ccccc1C=CC(=O)N=C(Cc1ccccc1)C(=O)Nc1ccc([N-]S(C)(=O)=O)cc1 (protonated)
COc1ccccc1C=CC(=O)/N=C(/Cc1ccccc1)C(=O)Nc1ccc([N-]S(C)(=O)=O)cc1 (cis-trans isomerization)
COc1ccccc1C=CC(=O)/N=C(/Cc1ccccc1)C(=O)Nc1ccc([N-]S(C)(=O)=O)cc1 (3D coordinates assigned)
COc1ccccc1C=CC(=O)/N=C(/Cc1ccccc1)C(=O)Nc1ccc([N-]S(C)(=O)=O)cc1 (optimized conformer: 74.52929458084517 kcal/mol)

>  <smiles>  (55) 
COc1ccccc1C=CC(=O)N=C(Cc1ccccc1)C(=O)Nc1ccc(NS(C)(=O)=O)cc1

>  <score_type>  (55) 
oracle

>  <origin>  (55) 
adg

>  <m_score__min__energy>  (55) 
-10.970000000000001

>  <m_primary>  (55) 
energy

$$$$
55:0
     RDKit          3D

 59 61  0  0  0  0  0  0  0  0999 V2000
   65.6480   33.0930   50.0610 C   0  0  0  0  0  0  0  0  0  0  0  0
   64.1720   32.9200   50.4150 C   0  0  0  0  0  0  0  0  0  0  0  0
   63.3920   34.2370   50.2880 C   0  0  0  0  0  0  0  0  0  0  0  0
   62.4350   34.1890   49.1610 N   0  0  0  0  0  0  0  0  0  0  0  0
   62.8890   33.2790   48.0720 C   0  0  0  0  0  0  0  0  0  0  0  0
   61.9460   32.0950   47.8070 C   0  0  0  0  0  0  0  0  0  0  0  0
   60.5660   32.5690   47.6530 N   0  0  0  0  0  0  0  0  0  0  0  0
   59.6390   31.8760   46.7880 C   0  0  0  0  0  0  0  0  0  0  0  0
   59.1600   32.4890   45.6160 C   0  0  0  0  0  0  0  0  0  0  0  0
   58.2570   31.8210   44.7830 C   0  0  0  0  0  0  0  0  0  0  0  0
   57.8200   30.5310   45.1070 C   0  0  0  0  0  0  0  0  0  0  0  0
   56.6640   29.6970   44.0760 S   0  0  0  0  0  0  0  0  0  0  0  0
   56.2490   30.6150   42.9590 O   0  0  0  0  0  0  0  0  0  0  0  0
   55.4430   29.3320   44.8740 O   0  0  0  0  0  0  0  0  0  0  0  0
   57.4110   28.2430   43.4740 N   0  0  0  0  0  0  0  0  0  0  0  0
   58.8170   28.1500   43.8690 C   0  0  0  0  0  0  0  0  0  0  0  0
   58.9880   27.0930   44.9650 C   0  0  0  0  0  0  0  0  0  0  0  0
   57.7990   26.1720   45.0050 C   0  0  0  0  0  0  0  0  0  0  0  0
   56.7630   26.3960   45.9250 C   0  0  0  0  0  0  0  0  0  0  0  0
   55.6690   25.5250   45.9800 C   0  0  0  0  0  0  0  0  0  0  0  0
   55.6030   24.4200   45.1200 C   0  0  0  0  0  0  0  0  0  0  0  0
   54.2320   23.3160   45.1860 S   0  0  0  0  0  0  0  0  0  0  0  0
   54.8040   21.6850   45.2590 N   0  0  0  0  0  0  0  0  0  0  0  0
   53.3780   23.4980   43.9600 O   0  0  0  0  0  0  0  0  0  0  0  0
   53.3970   23.6060   46.4020 O   0  0  0  0  0  0  0  0  0  0  0  0
   56.6470   24.1840   44.2160 C   0  0  0  0  0  0  0  0  0  0  0  0
   57.7410   25.0520   44.1600 C   0  0  0  0  0  0  0  0  0  0  0  0
   58.2810   29.9200   46.2780 C   0  0  0  0  0  0  0  0  0  0  0  0
   59.1860   30.5830   47.1110 C   0  0  0  0  0  0  0  0  0  0  0  0
   60.0960   33.6710   48.5010 C   0  0  0  0  0  0  0  0  0  0  0  0
   61.0690   33.9150   49.6560 C   0  0  0  0  0  0  0  0  0  0  0  0
   66.2409   33.1625   50.9849 H   0  0  0  0  0  0  0  0  0  0  0  0
   65.9875   32.2285   49.4716 H   0  0  0  0  0  0  0  0  0  0  0  0
   65.7784   34.0126   49.4716 H   0  0  0  0  0  0  0  0  0  0  0  0
   63.7284   32.1775   49.7354 H   0  0  0  0  0  0  0  0  0  0  0  0
   64.1102   32.5879   51.4619 H   0  0  0  0  0  0  0  0  0  0  0  0
   62.8378   34.4165   51.2211 H   0  0  0  0  0  0  0  0  0  0  0  0
   64.1100   35.0487   50.0991 H   0  0  0  0  0  0  0  0  0  0  0  0
   62.9750   33.8657   47.1455 H   0  0  0  0  0  0  0  0  0  0  0  0
   63.8494   32.8520   48.3965 H   0  0  0  0  0  0  0  0  0  0  0  0
   62.2583   31.5812   46.8859 H   0  0  0  0  0  0  0  0  0  0  0  0
   61.9935   31.4014   48.6594 H   0  0  0  0  0  0  0  0  0  0  0  0
   59.4985   33.5020   45.3527 H   0  0  0  0  0  0  0  0  0  0  0  0
   57.8886   32.3110   43.8697 H   0  0  0  0  0  0  0  0  0  0  0  0
   59.4225   27.8687   42.9948 H   0  0  0  0  0  0  0  0  0  0  0  0
   59.1474   29.1255   44.2554 H   0  0  0  0  0  0  0  0  0  0  0  0
   59.8943   26.5041   44.7606 H   0  0  0  0  0  0  0  0  0  0  0  0
   59.0746   27.6015   45.9366 H   0  0  0  0  0  0  0  0  0  0  0  0
   56.8111   27.2592   46.6052 H   0  0  0  0  0  0  0  0  0  0  0  0
   54.8582   25.7081   46.7005 H   0  0  0  0  0  0  0  0  0  0  0  0
   53.9620   21.0660   45.2270 H   0  0  0  0  0  0  0  0  0  0  0  0
   56.6055   23.3116   43.5473 H   0  0  0  0  0  0  0  0  0  0  0  0
   58.5595   24.8571   43.4515 H   0  0  0  0  0  0  0  0  0  0  0  0
   57.9292   28.9124   46.5444 H   0  0  0  0  0  0  0  0  0  0  0  0
   59.5472   30.0908   48.0260 H   0  0  0  0  0  0  0  0  0  0  0  0
   60.0180   34.5856   47.8948 H   0  0  0  0  0  0  0  0  0  0  0  0
   59.1129   33.4043   48.9161 H   0  0  0  0  0  0  0  0  0  0  0  0
   60.7204   34.7786   50.2414 H   0  0  0  0  0  0  0  0  0  0  0  0
   61.1014   33.0090   50.2790 H   0  0  0  0  0  0  0  0  0  0  0  0
  1  2  1  0
  2  3  1  0
  3  4  1  0
  4  5  1  0
  5  6  1  0
  6  7  1  0
  7  8  1  0
  8  9  2  0
  9 10  1  0
 10 11  2  0
 11 12  1  0
 12 13  2  0
 12 14  2  0
 12 15  1  0
 15 16  1  0
 16 17  1  0
 17 18  1  0
 18 19  2  0
 19 20  1  0
 20 21  2  0
 21 22  1  0
 22 23  1  0
 22 24  2  0
 22 25  2  0
 21 26  1  0
 26 27  2  0
 11 28  1  0
 28 29  2  0
  7 30  1  0
 30 31  1  0
 31  4  1  0
 29  8  1  0
 27 18  1  0
  1 32  1  0
  1 33  1  0
  1 34  1  0
  2 35  1  0
  2 36  1  0
  3 37  1  0
  3 38  1  0
  5 39  1  0
  5 40  1  0
  6 41  1  0
  6 42  1  0
  9 43  1  0
 10 44  1  0
 16 45  1  0
 16 46  1  0
 17 47  1  0
 17 48  1  0
 19 49  1  0
 20 50  1  0
 23 51  1  0
 26 52  1  0
 27 53  1  0
 28 54  1  0
 29 55  1  0
 30 56  1  0
 30 57  1  0
 31 58  1  0
 31 59  1  0
M  CHG  2  15  -1  23  -1
M  END
>  <UniqueID>  (56) 
51

>  <SMILES>  (56) 
CCCN1CCN(c2ccc(S(=O)(=O)[N-]CCc3ccc(S([NH-])(=O)=O)cc3)cc2)CC1

>  <Energy>  (56) 
64.10011908562178

>  <Genealogy>  (56) 
CCCN1CCN(c2ccc(S(=O)(=O)[N-]CCc3ccc(S([NH-])(=O)=O)cc3)cc2)CC1 (protonated)
CCCN1CCN(c2ccc(S(=O)(=O)[N-]CCc3ccc(S([NH-])(=O)=O)cc3)cc2)CC1 (3D coordinates assigned)
CCCN1CCN(c2ccc(S(=O)(=O)[N-]CCc3ccc(S([NH-])(=O)=O)cc3)cc2)CC1 (nonaromatic ring conformer: 64.10011908562178 kcal/mol)

>  <smiles>  (56) 
CCCN1CCN(c2ccc(S(=O)(=O)NCCc3ccc(S(N)(=O)=O)cc3)cc2)CC1

>  <score_type>  (56) 
oracle

>  <origin>  (56) 
adg

>  <m_score__min__energy>  (56) 
-12.289999999999999

>  <m_primary>  (56) 
energy

$$$$
56:0
     RDKit          3D

 48 50  0  0  0  0  0  0  0  0999 V2000
   59.8090   26.5260   46.9870 C   0  0  0  0  0  0  0  0  0  0  0  0
   58.3520   26.3670   46.6370 C   0  0  0  0  0  0  0  0  0  0  0  0
   57.6100   25.3220   47.2030 C   0  0  0  0  0  0  0  0  0  0  0  0
   56.2790   25.2210   46.9630 N   0  0  0  0  0  0  0  0  0  0  0  0
   55.6410   26.1240   46.1780 C   0  0  0  0  0  0  0  0  0  0  0  0
   54.4060   26.0150   45.9690 O   0  0  0  0  0  0  0  0  0  0  0  0
   56.3330   27.1480   45.6220 N   0  0  0  0  0  0  0  0  0  0  0  0
   57.6700   27.2920   45.8250 C   0  0  0  0  0  0  0  0  0  0  0  0
   58.5080   28.6840   45.0510 S   0  0  0  0  0  0  0  0  0  0  0  0
   57.1630   29.0400   43.8630 C   0  0  0  0  0  0  0  0  0  0  0  0
   56.8800   30.5150   43.8090 C   0  0  0  0  0  0  0  0  0  0  0  0
   56.9240   31.1030   42.6950 O   0  0  0  0  0  0  0  0  0  0  0  0
   56.7100   31.2950   45.0000 N   0  0  0  0  0  0  0  0  0  0  0  0
   57.5000   32.4260   45.3820 C   0  0  0  0  0  0  0  0  0  0  0  0
   57.7480   33.4810   44.4860 C   0  0  0  0  0  0  0  0  0  0  0  0
   58.5330   34.5680   44.8780 C   0  0  0  0  0  0  0  0  0  0  0  0
   59.1070   34.5930   46.1500 C   0  0  0  0  0  0  0  0  0  0  0  0
   58.9010   33.5280   47.0370 C   0  0  0  0  0  0  0  0  0  0  0  0
   59.6810   33.5580   48.6170 S   0  0  0  0  0  0  0  0  0  0  0  0
   59.0130   32.5840   49.5500 O   0  0  0  0  0  0  0  0  0  0  0  0
   59.5510   34.9430   49.1880 O   0  0  0  0  0  0  0  0  0  0  0  0
   61.3670   33.1450   48.4360 N   0  0  0  0  0  0  0  0  0  0  0  0
   62.1170   33.5590   49.6420 C   0  0  0  0  0  0  0  0  0  0  0  0
   63.6490   33.4890   49.4380 C   0  0  0  0  0  0  0  0  0  0  0  0
   64.0180   32.6810   48.1920 C   0  0  0  0  0  0  0  0  0  0  0  0
   63.3350   33.2590   46.9400 C   0  0  0  0  0  0  0  0  0  0  0  0
   61.9160   33.7870   47.2310 C   0  0  0  0  0  0  0  0  0  0  0  0
   58.1020   32.4420   46.6460 C   0  0  0  0  0  0  0  0  0  0  0  0
   59.9241   26.5386   48.0809 H   0  0  0  0  0  0  0  0  0  0  0  0
   60.3807   25.6849   46.5678 H   0  0  0  0  0  0  0  0  0  0  0  0
   60.1858   27.4706   46.5678 H   0  0  0  0  0  0  0  0  0  0  0  0
   58.1089   24.5806   47.8445 H   0  0  0  0  0  0  0  0  0  0  0  0
   57.4628   28.6928   42.8632 H   0  0  0  0  0  0  0  0  0  0  0  0
   56.2529   28.5166   44.1912 H   0  0  0  0  0  0  0  0  0  0  0  0
   57.3221   33.4502   43.4723 H   0  0  0  0  0  0  0  0  0  0  0  0
   58.6989   35.4049   44.1837 H   0  0  0  0  0  0  0  0  0  0  0  0
   59.7228   35.4512   46.4570 H   0  0  0  0  0  0  0  0  0  0  0  0
   61.8410   34.5942   49.8914 H   0  0  0  0  0  0  0  0  0  0  0  0
   61.8552   32.8647   50.4540 H   0  0  0  0  0  0  0  0  0  0  0  0
   64.0411   34.5109   49.3292 H   0  0  0  0  0  0  0  0  0  0  0  0
   64.0889   32.9890   50.3135 H   0  0  0  0  0  0  0  0  0  0  0  0
   65.1088   32.7110   48.0534 H   0  0  0  0  0  0  0  0  0  0  0  0
   63.6766   31.6447   48.3315 H   0  0  0  0  0  0  0  0  0  0  0  0
   63.9475   34.0877   46.5551 H   0  0  0  0  0  0  0  0  0  0  0  0
   63.2444   32.4465   46.2040 H   0  0  0  0  0  0  0  0  0  0  0  0
   61.9591   34.8749   47.3876 H   0  0  0  0  0  0  0  0  0  0  0  0
   61.2659   33.5539   46.3748 H   0  0  0  0  0  0  0  0  0  0  0  0
   57.9481   31.5994   47.3361 H   0  0  0  0  0  0  0  0  0  0  0  0
  1  2  1  0
  2  3  1  0
  3  4  2  0
  4  5  1  0
  5  6  2  0
  5  7  1  0
  7  8  1  0
  8  9  1  0
  9 10  1  0
 10 11  1  0
 11 12  2  0
 11 13  1  0
 13 14  1  0
 14 15  2  0
 15 16  1  0
 16 17  2  0
 17 18  1  0
 18 19  1  0
 19 20  2  0
 19 21  2  0
 19 22  1  0
 22 23  1  0
 23 24  1  0
 24 25  1  0
 25 26  1  0
 26 27  1  0
 18 28  2  0
  8  2  2  0
 28 14  1  0
 27 22  1  0
  1 29  1  0
  1 30  1  0
  1 31  1  0
  3 32  1  0
 10 33  1  0
 10 34  1  0
 15 35  1  0
 16 36  1  0
 17 37  1  0
 23 38  1  0
 23 39  1  0
 24 40  1  0
 24 41  1  0
 25 42  1  0
 25 43  1  0
 26 44  1  0
 26 45  1  0
 27 46  1  0
 27 47  1  0
 28 48  1  0
M  CHG  2   7  -1  13  -1
M  END
>  <UniqueID>  (57) 
52

>  <SMILES>  (57) 
Cc1cnc(=O)[n-]c1SCC(=O)[N-]c1cccc(S(=O)(=O)N2CCCCC2)c1

>  <Energy>  (57) 
54.582792832390915

>  <Genealogy>  (57) 
Cc1cnc(=O)[n-]c1SCC(=O)[N-]c1cccc(S(=O)(=O)N2CCCCC2)c1 (protonated)
Cc1cnc(=O)[n-]c1SCC(=O)[N-]c1cccc(S(=O)(=O)N2CCCCC2)c1 (3D coordinates assigned)
Cc1cnc(=O)[n-]c1SCC(=O)[N-]c1cccc(S(=O)(=O)N2CCCCC2)c1 (nonaromatic ring conformer: 54.582792832390915 kcal/mol)

>  <smiles>  (57) 
Cc1cnc(=O)[nH]c1SCC(=O)Nc1cccc(S(=O)(=O)N2CCCCC2)c1

>  <score_type>  (57) 
oracle

>  <origin>  (57) 
adg

>  <m_score__min__energy>  (57) 
-13.69

>  <m_primary>  (57) 
energy

$$$$
57:0
     RDKit          3D

 43 44  0  0  0  0  0  0  0  0999 V2000
   55.5170   28.8450   45.0460 N   0  0  0  0  0  0  0  0  0  0  0  0
   56.6710   30.0050   44.4920 S   0  0  0  0  0  0  0  0  0  0  0  0
   56.1820   31.3900   44.8130 O   0  0  0  0  0  0  0  0  0  0  0  0
   56.8290   29.8830   43.0030 O   0  0  0  0  0  0  0  0  0  0  0  0
   58.2190   29.7170   45.2810 C   0  0  0  0  0  0  0  0  0  0  0  0
   59.2970   29.2010   44.5500 C   0  0  0  0  0  0  0  0  0  0  0  0
   60.5210   28.9680   45.1770 C   0  0  0  0  0  0  0  0  0  0  0  0
   60.6820   29.2600   46.5340 C   0  0  0  0  0  0  0  0  0  0  0  0
   59.6210   29.8030   47.2770 C   0  0  0  0  0  0  0  0  0  0  0  0
   59.8350   30.0890   48.7160 C   0  0  0  0  0  0  0  0  0  0  0  0
   59.0240   29.6490   49.6880 C   0  0  0  0  0  0  0  0  0  0  0  0
   58.1590   30.5640   50.4640 C   0  0  0  0  0  0  0  0  0  0  0  0
   57.3180   30.0940   51.2770 O   0  0  0  0  0  0  0  0  0  0  0  0
   58.2460   31.9870   50.3210 N   0  0  0  0  0  0  0  0  0  0  0  0
   59.4210   32.8140   50.5910 C   0  0  0  0  0  0  0  0  0  0  0  0
   59.6410   33.8760   49.5010 C   0  0  0  0  0  0  0  0  0  0  0  0
   60.2710   33.3120   48.2190 C   0  0  0  0  0  0  0  0  0  0  0  0
   59.5000   33.6840   47.0310 N   0  0  0  0  0  0  0  0  0  0  0  0
   60.0270   34.4400   45.9080 C   0  0  0  0  0  0  0  0  0  0  0  0
   58.8660   34.5770   44.9040 C   0  0  0  0  0  0  0  0  0  0  0  0
   57.6110   33.9850   45.5650 C   0  0  0  0  0  0  0  0  0  0  0  0
   58.1190   33.4450   46.8390 C   0  0  0  0  0  0  0  0  0  0  0  0
   57.4020   32.8330   47.6740 O   0  0  0  0  0  0  0  0  0  0  0  0
   58.3820   30.0190   46.6400 C   0  0  0  0  0  0  0  0  0  0  0  0
   54.6240   29.3590   45.2160 H   0  0  0  0  0  0  0  0  0  0  0  0
   59.1779   28.9791   43.4792 H   0  0  0  0  0  0  0  0  0  0  0  0
   61.3618   28.5533   44.6017 H   0  0  0  0  0  0  0  0  0  0  0  0
   61.6470   29.0631   47.0240 H   0  0  0  0  0  0  0  0  0  0  0  0
   60.7072   30.6955   49.0014 H   0  0  0  0  0  0  0  0  0  0  0  0
   59.0009   28.5731   49.9159 H   0  0  0  0  0  0  0  0  0  0  0  0
   59.2842   33.3205   51.5578 H   0  0  0  0  0  0  0  0  0  0  0  0
   60.3027   32.1564   50.6074 H   0  0  0  0  0  0  0  0  0  0  0  0
   58.6677   34.3200   49.2452 H   0  0  0  0  0  0  0  0  0  0  0  0
   60.3425   34.6190   49.9081 H   0  0  0  0  0  0  0  0  0  0  0  0
   61.2928   33.7071   48.1196 H   0  0  0  0  0  0  0  0  0  0  0  0
   60.2798   32.2146   48.2939 H   0  0  0  0  0  0  0  0  0  0  0  0
   60.3637   35.4330   46.2404 H   0  0  0  0  0  0  0  0  0  0  0  0
   60.8934   33.9360   45.4548 H   0  0  0  0  0  0  0  0  0  0  0  0
   58.6996   35.6377   44.6648 H   0  0  0  0  0  0  0  0  0  0  0  0
   59.0981   34.0464   43.9688 H   0  0  0  0  0  0  0  0  0  0  0  0
   56.8543   34.7637   45.7413 H   0  0  0  0  0  0  0  0  0  0  0  0
   57.1159   33.2247   44.9431 H   0  0  0  0  0  0  0  0  0  0  0  0
   57.5370   30.4275   47.2137 H   0  0  0  0  0  0  0  0  0  0  0  0
  1  2  1  0
  2  3  2  0
  2  4  2  0
  2  5  1  0
  5  6  2  0
  6  7  1  0
  7  8  2  0
  8  9  1  0
  9 10  1  0
 10 11  2  3
 11 12  1  0
 12 13  2  0
 12 14  1  0
 14 15  1  0
 15 16  1  0
 16 17  1  0
 17 18  1  0
 18 19  1  0
 19 20  1  0
 20 21  1  0
 21 22  1  0
 22 23  2  0
  9 24  2  0
 24  5  1  0
 22 18  1  0
  1 25  1  0
  6 26  1  0
  7 27  1  0
  8 28  1  0
 10 29  1  0
 11 30  1  0
 15 31  1  0
 15 32  1  0
 16 33  1  0
 16 34  1  0
 17 35  1  0
 17 36  1  0
 19 37  1  0
 19 38  1  0
 20 39  1  0
 20 40  1  0
 21 41  1  0
 21 42  1  0
 24 43  1  0
M  CHG  2   1  -1  14  -1
M  END
>  <UniqueID>  (58) 
53

>  <SMILES>  (58) 
[NH-]S(=O)(=O)c1cccc(C=CC(=O)[N-]CCCN2CCCC2=O)c1

>  <Energy>  (58) 
42.760383749479715

>  <Genealogy>  (58) 
[NH-]S(=O)(=O)c1cccc(C=CC(=O)[N-]CCCN2CCCC2=O)c1 (protonated)
[NH-]S(=O)(=O)c1cccc(C=CC(=O)[N-]CCCN2CCCC2=O)c1 (3D coordinates assigned)
[NH-]S(=O)(=O)c1cccc(C=CC(=O)[N-]CCCN2CCCC2=O)c1 (nonaromatic ring conformer: 42.760383749479715 kcal/mol)

>  <smiles>  (58) 
NS(=O)(=O)c1cccc(C=CC(=O)NCCCN2CCCC2=O)c1

>  <score_type>  (58) 
oracle

>  <origin>  (58) 
adg

>  <m_score__min__energy>  (58) 
-12.19

>  <m_primary>  (58) 
energy

$$$$
58:0
     RDKit          3D

 47 50  0  0  0  0  0  0  0  0999 V2000
   58.8612   30.6248   48.3930 H   0  0  0  0  0  0  0  0  0  0  0  0
   58.9330   29.6140   47.9650 C   0  0  0  0  0  0  0  0  0  0  0  0
   58.1620   29.2740   46.8990 N   0  0  0  0  0  0  0  0  0  0  0  0
   58.2020   28.0290   46.3500 C   0  0  0  0  0  0  0  0  0  0  0  0
   57.3580   27.7210   45.1520 C   0  0  0  0  0  0  0  0  0  0  0  0
   57.8899   28.0278   44.2393 H   0  0  0  0  0  0  0  0  0  0  0  0
   57.1568   26.6403   45.1115 H   0  0  0  0  0  0  0  0  0  0  0  0
   56.0990   28.4480   45.2490 N   0  0  0  0  0  0  0  0  0  0  0  0
   55.7400   29.5020   44.3500 C   0  0  0  0  0  0  0  0  0  0  0  0
   54.6870   29.4120   43.6620 O   0  0  0  0  0  0  0  0  0  0  0  0
   56.5990   30.6930   44.2130 C   0  0  0  0  0  0  0  0  0  0  0  0
   56.6550   31.5970   45.2320 N   0  0  0  0  0  0  0  0  0  0  0  0
   57.4240   32.7160   45.1620 C   0  0  0  0  0  0  0  0  0  0  0  0
   57.4580   33.8550   46.5420 S   0  0  0  0  0  0  0  0  0  0  0  0
   59.2440   33.8230   46.6330 C   0  0  0  0  0  0  0  0  0  0  0  0
   60.1570   32.5440   47.2280 S   0  0  0  0  0  0  0  0  0  0  0  0
   61.6060   33.3500   46.9490 C   0  0  0  0  0  0  0  0  0  0  0  0
   62.7710   32.8260   47.1920 N   0  0  0  0  0  0  0  0  0  0  0  0
   63.3250   32.5000   48.4780 C   0  0  0  0  0  0  0  0  0  0  0  0
   64.5130   33.1280   48.8730 C   0  0  0  0  0  0  0  0  0  0  0  0
   64.9832   33.8705   48.2115 H   0  0  0  0  0  0  0  0  0  0  0  0
   65.1070   32.8190   50.1020 C   0  0  0  0  0  0  0  0  0  0  0  0
   66.0322   33.3284   50.4093 H   0  0  0  0  0  0  0  0  0  0  0  0
   64.5250   31.8640   50.9380 C   0  0  0  0  0  0  0  0  0  0  0  0
   64.9860   31.6277   51.9084 H   0  0  0  0  0  0  0  0  0  0  0  0
   63.3570   31.2090   50.5410 C   0  0  0  0  0  0  0  0  0  0  0  0
   62.9042   30.4505   51.1965 H   0  0  0  0  0  0  0  0  0  0  0  0
   62.7610   31.5140   49.3130 C   0  0  0  0  0  0  0  0  0  0  0  0
   61.8503   30.9834   48.9981 H   0  0  0  0  0  0  0  0  0  0  0  0
   61.4170   34.5710   46.3950 N   0  0  0  0  0  0  0  0  0  0  0  0
   60.0960   34.8410   46.2230 C   0  0  0  0  0  0  0  0  0  0  0  0
   59.7319   35.7866   45.7949 H   0  0  0  0  0  0  0  0  0  0  0  0
   58.1860   32.9700   44.0180 C   0  0  0  0  0  0  0  0  0  0  0  0
   58.8060   33.8763   43.9523 H   0  0  0  0  0  0  0  0  0  0  0  0
   58.1510   32.0610   42.9610 C   0  0  0  0  0  0  0  0  0  0  0  0
   58.7481   32.2463   42.0559 H   0  0  0  0  0  0  0  0  0  0  0  0
   57.3580   30.9160   43.0520 C   0  0  0  0  0  0  0  0  0  0  0  0
   57.3276   30.1947   42.2221 H   0  0  0  0  0  0  0  0  0  0  0  0
   59.0730   27.0660   46.8760 C   0  0  0  0  0  0  0  0  0  0  0  0
   59.1262   26.0622   46.4293 H   0  0  0  0  0  0  0  0  0  0  0  0
   59.8730   27.3930   47.9730 C   0  0  0  0  0  0  0  0  0  0  0  0
   60.5457   26.6387   48.4072 H   0  0  0  0  0  0  0  0  0  0  0  0
   59.8190   28.6820   48.5210 C   0  0  0  0  0  0  0  0  0  0  0  0
   60.6420   29.0350   49.7250 C   0  0  0  0  0  0  0  0  0  0  0  0
   60.0783   28.7932   50.6381 H   0  0  0  0  0  0  0  0  0  0  0  0
   61.5795   28.4599   49.7097 H   0  0  0  0  0  0  0  0  0  0  0  0
   60.8715   30.1107   49.7097 H   0  0  0  0  0  0  0  0  0  0  0  0
  1  2  1  0
  2  3  2  0
  3  4  1  0
  4  5  1  0
  5  6  1  0
  5  7  1  0
  5  8  1  0
  8  9  1  0
  9 10  2  0
  9 11  1  0
 11 12  2  0
 12 13  1  0
 13 14  1  0
 14 15  1  0
 15 16  1  0
 16 17  1  0
 17 18  2  0
 18 19  1  0
 19 20  2  0
 20 21  1  0
 20 22  1  0
 22 23  1  0
 22 24  2  0
 24 25  1  0
 24 26  1  0
 26 27  1  0
 26 28  2  0
 28 29  1  0
 17 30  1  0
 30 31  1  0
 31 32  1  0
 13 33  2  0
 33 34  1  0
 33 35  1  0
 35 36  1  0
 35 37  2  0
 37 38  1  0
  4 39  2  0
 39 40  1  0
 39 41  1  0
 41 42  1  0
 41 43  2  0
 43 44  1  0
 44 45  1  0
 44 46  1  0
 44 47  1  0
 43  2  1  0
 37 11  1  0
 31 15  2  0
 28 19  1  0
M  CHG  2   8  -1  30  -1
M  END
>  <UniqueID>  (59) 
54

>  <SMILES>  (59) 
Cc1ccc(C[N-]C(=O)c2cccc(Sc3c[n-]/c(=N\c4ccccc4)s3)n2)nc1

>  <Energy>  (59) 
80.85729629092222

>  <Genealogy>  (59) 
Cc1ccc(C[N-]C(=O)c2cccc(Sc3c[n-]c(=Nc4ccccc4)s3)n2)nc1 (protonated)
Cc1ccc(C[N-]C(=O)c2cccc(Sc3c[n-]/c(=N\c4ccccc4)s3)n2)nc1 (cis-trans isomerization)
Cc1ccc(C[N-]C(=O)c2cccc(Sc3c[n-]/c(=N\c4ccccc4)s3)n2)nc1 (3D coordinates assigned)
Cc1ccc(C[N-]C(=O)c2cccc(Sc3c[n-]/c(=N\c4ccccc4)s3)n2)nc1 (optimized conformer: 80.85729629092222 kcal/mol)

>  <smiles>  (59) 
Cc1ccc(CNC(=O)c2cccc(Sc3c[nH]c(=Nc4ccccc4)s3)n2)nc1

>  <score_type>  (59) 
oracle

>  <origin>  (59) 
adg

>  <m_score__min__energy>  (59) 
-12.82

>  <m_primary>  (59) 
energy

$$$$
59:0
     RDKit          3D

 49 52  0  0  0  0  0  0  0  0999 V2000
   59.8970   29.1110   46.3290 C   0  0  0  0  0  0  0  0  0  0  0  0
   58.8660   29.1290   45.4690 C   0  0  0  0  0  0  0  0  0  0  0  0
   58.3120   28.0320   44.7900 C   0  0  0  0  0  0  0  0  0  0  0  0
   58.4800   26.7060   44.9650 C   0  0  0  0  0  0  0  0  0  0  0  0
   57.6360   25.8400   45.8050 C   0  0  0  0  0  0  0  0  0  0  0  0
   58.0860   24.7950   46.5230 N   0  0  0  0  0  0  0  0  0  0  0  0
   56.9980   24.4080   47.2240 C   0  0  0  0  0  0  0  0  0  0  0  0
   57.0150   23.4290   48.0150 O   0  0  0  0  0  0  0  0  0  0  0  0
   55.8950   25.1580   47.0190 N   0  0  0  0  0  0  0  0  0  0  0  0
   56.3210   26.0700   46.1270 C   0  0  0  0  0  0  0  0  0  0  0  0
   55.5290   27.0940   45.6230 O   0  0  0  0  0  0  0  0  0  0  0  0
   57.4660   28.5580   43.8270 C   0  0  0  0  0  0  0  0  0  0  0  0
   57.4730   29.9270   43.9950 C   0  0  0  0  0  0  0  0  0  0  0  0
   56.6480   30.8890   43.1950 C   0  0  0  0  0  0  0  0  0  0  0  0
   58.3170   30.2750   44.9920 N   0  0  0  0  0  0  0  0  0  0  0  0
   58.6050   31.6180   45.4190 C   0  0  0  0  0  0  0  0  0  0  0  0
   58.4900   32.6840   44.5170 C   0  0  0  0  0  0  0  0  0  0  0  0
   58.7620   33.9900   44.9330 C   0  0  0  0  0  0  0  0  0  0  0  0
   59.1520   34.2380   46.2530 C   0  0  0  0  0  0  0  0  0  0  0  0
   59.2740   33.1790   47.1630 C   0  0  0  0  0  0  0  0  0  0  0  0
   59.7750   33.4900   48.8270 S   0  0  0  0  0  0  0  0  0  0  0  0
   58.8600   32.7490   49.7630 O   0  0  0  0  0  0  0  0  0  0  0  0
   59.6400   34.9590   49.1160 O   0  0  0  0  0  0  0  0  0  0  0  0
   61.4260   32.9870   49.1220 N   0  0  0  0  0  0  0  0  0  0  0  0
   61.7180   31.7160   48.4510 C   0  0  0  0  0  0  0  0  0  0  0  0
   62.4130   32.0230   47.1340 C   0  0  0  0  0  0  0  0  0  0  0  0
   62.9010   33.4520   47.2510 C   0  0  0  0  0  0  0  0  0  0  0  0
   62.3830   33.9620   48.5900 C   0  0  0  0  0  0  0  0  0  0  0  0
   58.9950   31.8700   46.7430 C   0  0  0  0  0  0  0  0  0  0  0  0
   60.2383   30.0456   46.7981 H   0  0  0  0  0  0  0  0  0  0  0  0
   60.4003   28.1617   46.5645 H   0  0  0  0  0  0  0  0  0  0  0  0
   59.3187   26.2306   44.4353 H   0  0  0  0  0  0  0  0  0  0  0  0
   55.8140   27.6090   44.7980 H   0  0  0  0  0  0  0  0  0  0  0  0
   56.8981   27.9926   43.0735 H   0  0  0  0  0  0  0  0  0  0  0  0
   56.0858   31.5446   43.8763 H   0  0  0  0  0  0  0  0  0  0  0  0
   57.3081   31.4989   42.5608 H   0  0  0  0  0  0  0  0  0  0  0  0
   55.9446   30.3296   42.5608 H   0  0  0  0  0  0  0  0  0  0  0  0
   58.1846   32.4922   43.4778 H   0  0  0  0  0  0  0  0  0  0  0  0
   58.6693   34.8238   44.2216 H   0  0  0  0  0  0  0  0  0  0  0  0
   59.3636   35.2674   46.5780 H   0  0  0  0  0  0  0  0  0  0  0  0
   62.3753   31.1027   49.0848 H   0  0  0  0  0  0  0  0  0  0  0  0
   60.7867   31.1598   48.2686 H   0  0  0  0  0  0  0  0  0  0  0  0
   63.2610   31.3396   46.9795 H   0  0  0  0  0  0  0  0  0  0  0  0
   61.7347   31.8946   46.2776 H   0  0  0  0  0  0  0  0  0  0  0  0
   64.0003   33.4839   47.2288 H   0  0  0  0  0  0  0  0  0  0  0  0
   62.5408   34.0713   46.4163 H   0  0  0  0  0  0  0  0  0  0  0  0
   63.2219   34.0791   49.2918 H   0  0  0  0  0  0  0  0  0  0  0  0
   61.8919   34.9372   48.4568 H   0  0  0  0  0  0  0  0  0  0  0  0
   59.0825   31.0366   47.4555 H   0  0  0  0  0  0  0  0  0  0  0  0
  1  2  2  0
  2  3  1  0
  3  4  2  3
  4  5  1  0
  5  6  1  0
  6  7  1  0
  7  8  2  0
  7  9  1  0
  9 10  1  0
 10 11  1  0
  3 12  1  0
 12 13  2  0
 13 14  1  0
 13 15  1  0
 15 16  1  0
 16 17  2  0
 17 18  1  0
 18 19  2  0
 19 20  1  0
 20 21  1  0
 21 22  2  0
 21 23  2  0
 21 24  1  0
 24 25  1  0
 25 26  1  0
 26 27  1  0
 27 28  1  0
 20 29  2  0
 15  2  1  0
 29 16  1  0
 10  5  2  0
 28 24  1  0
  1 30  1  0
  1 31  1  0
  4 32  1  0
 11 33  1  0
 12 34  1  0
 14 35  1  0
 14 36  1  0
 14 37  1  0
 17 38  1  0
 18 39  1  0
 19 40  1  0
 25 41  1  0
 25 42  1  0
 26 43  1  0
 26 44  1  0
 27 45  1  0
 27 46  1  0
 28 47  1  0
 28 48  1  0
 29 49  1  0
M  CHG  2   6  -1   9  -1
M  END
>  <UniqueID>  (60) 
55

>  <SMILES>  (60) 
C=c1c(=Cc2[n-]c(=O)[n-]c2O)cc(C)n1-c1cccc(S(=O)(=O)N2CCCC2)c1

>  <Energy>  (60) 
124.5596516765822

>  <Genealogy>  (60) 
C=c1c(=Cc2[n-]c(=O)[n-]c2O)cc(C)n1-c1cccc(S(=O)(=O)N2CCCC2)c1 (protonated)
C=c1c(=Cc2[n-]c(=O)[n-]c2O)cc(C)n1-c1cccc(S(=O)(=O)N2CCCC2)c1 (3D coordinates assigned)
C=c1c(=Cc2[n-]c(=O)[n-]c2O)cc(C)n1-c1cccc(S(=O)(=O)N2CCCC2)c1 (nonaromatic ring conformer: 124.5596516765822 kcal/mol)

>  <smiles>  (60) 
C=c1c(=Cc2[nH]c(=O)[nH]c2O)cc(C)n1-c1cccc(S(=O)(=O)N2CCCC2)c1

>  <score_type>  (60) 
oracle

>  <origin>  (60) 
adg

>  <m_score__min__energy>  (60) 
-14.25

>  <m_primary>  (60) 
energy

$$$$
60:0
     RDKit          3D

 61 65  0  0  0  0  0  0  0  0999 V2000
   56.0100   31.1390   52.2410 C   0  0  0  0  0  0  0  0  0  0  0  0
   57.3740   31.3040   52.6100 O   0  0  0  0  0  0  0  0  0  0  0  0
   58.3530   31.8790   51.7850 C   0  0  0  0  0  0  0  0  0  0  0  0
   59.5770   32.2420   52.3530 C   0  0  0  0  0  0  0  0  0  0  0  0
   60.5520   32.8020   51.5890 N   0  0  0  0  0  0  0  0  0  0  0  0
   60.3760   33.0290   50.2590 C   0  0  0  0  0  0  0  0  0  0  0  0
   59.1650   32.6890   49.6320 C   0  0  0  0  0  0  0  0  0  0  0  0
   58.9610   32.9420   48.1830 C   0  0  0  0  0  0  0  0  0  0  0  0
   59.0630   34.2420   47.6610 C   0  0  0  0  0  0  0  0  0  0  0  0
   58.8710   34.4680   46.3370 N   0  0  0  0  0  0  0  0  0  0  0  0
   58.5760   33.4650   45.4700 C   0  0  0  0  0  0  0  0  0  0  0  0
   58.3790   33.7490   44.1210 C   0  0  0  0  0  0  0  0  0  0  0  0
   58.0720   32.7220   43.2360 C   0  0  0  0  0  0  0  0  0  0  0  0
   57.9660   31.4100   43.7060 C   0  0  0  0  0  0  0  0  0  0  0  0
   57.6890   30.4910   42.8860 O   0  0  0  0  0  0  0  0  0  0  0  0
   58.1580   31.1260   45.0360 N   0  0  0  0  0  0  0  0  0  0  0  0
   58.0450   29.7570   45.4720 C   0  0  0  0  0  0  0  0  0  0  0  0
   59.1810   29.1120   45.9770 C   0  0  0  0  0  0  0  0  0  0  0  0
   59.1130   27.7800   46.3830 C   0  0  0  0  0  0  0  0  0  0  0  0
   57.9150   27.0760   46.2790 C   0  0  0  0  0  0  0  0  0  0  0  0
   56.7620   27.7020   45.7720 C   0  0  0  0  0  0  0  0  0  0  0  0
   55.5290   26.9810   45.6280 N   0  0  0  0  0  0  0  0  0  0  0  0
   55.3410   25.2610   45.7290 S   0  0  0  0  0  0  0  0  0  0  0  0
   55.8900   24.7680   47.0370 O   0  0  0  0  0  0  0  0  0  0  0  0
   53.8880   24.8950   45.6120 O   0  0  0  0  0  0  0  0  0  0  0  0
   56.2520   24.5030   44.3960 C   0  0  0  0  0  0  0  0  0  0  0  0
   56.8630   23.2060   44.8530 C   0  0  0  0  0  0  0  0  0  0  0  0
   58.2590   23.0400   44.8460 C   0  0  0  0  0  0  0  0  0  0  0  0
   58.8250   21.8270   45.2500 C   0  0  0  0  0  0  0  0  0  0  0  0
   58.0030   20.7730   45.6610 C   0  0  0  0  0  0  0  0  0  0  0  0
   56.6140   20.9270   45.6600 C   0  0  0  0  0  0  0  0  0  0  0  0
   56.0440   22.1360   45.2500 C   0  0  0  0  0  0  0  0  0  0  0  0
   56.8170   29.0610   45.3860 C   0  0  0  0  0  0  0  0  0  0  0  0
   55.5940   29.7340   44.8140 C   0  0  0  0  0  0  0  0  0  0  0  0
   58.4630   32.1330   45.9280 C   0  0  0  0  0  0  0  0  0  0  0  0
   58.6590   31.8900   47.3040 C   0  0  0  0  0  0  0  0  0  0  0  0
   58.1520   32.1060   50.4120 C   0  0  0  0  0  0  0  0  0  0  0  0
   55.3914   31.0642   53.1475 H   0  0  0  0  0  0  0  0  0  0  0  0
   55.6841   32.0043   51.6451 H   0  0  0  0  0  0  0  0  0  0  0  0
   55.8998   30.2210   51.6451 H   0  0  0  0  0  0  0  0  0  0  0  0
   59.7528   32.0735   53.4257 H   0  0  0  0  0  0  0  0  0  0  0  0
   61.4580   33.0690   52.0360 H   0  0  0  0  0  0  0  0  0  0  0  0
   61.1874   33.4819   49.6703 H   0  0  0  0  0  0  0  0  0  0  0  0
   59.3001   35.0824   48.3300 H   0  0  0  0  0  0  0  0  0  0  0  0
   58.4661   34.7833   43.7567 H   0  0  0  0  0  0  0  0  0  0  0  0
   57.9131   32.9410   42.1698 H   0  0  0  0  0  0  0  0  0  0  0  0
   60.1321   29.6594   46.0537 H   0  0  0  0  0  0  0  0  0  0  0  0
   60.0077   27.2834   46.7866 H   0  0  0  0  0  0  0  0  0  0  0  0
   57.8707   26.0235   46.5956 H   0  0  0  0  0  0  0  0  0  0  0  0
   55.5698   24.3067   43.5557 H   0  0  0  0  0  0  0  0  0  0  0  0
   57.0547   25.1845   44.0780 H   0  0  0  0  0  0  0  0  0  0  0  0
   58.9079   23.8669   44.5217 H   0  0  0  0  0  0  0  0  0  0  0  0
   59.9178   21.7017   45.2445 H   0  0  0  0  0  0  0  0  0  0  0  0
   58.4501   19.8218   45.9854 H   0  0  0  0  0  0  0  0  0  0  0  0
   55.9687   20.0964   45.9820 H   0  0  0  0  0  0  0  0  0  0  0  0
   54.9500   22.2498   45.2383 H   0  0  0  0  0  0  0  0  0  0  0  0
   54.9522   30.0872   45.6346 H   0  0  0  0  0  0  0  0  0  0  0  0
   55.9020   30.5897   44.1951 H   0  0  0  0  0  0  0  0  0  0  0  0
   55.0360   29.0159   44.1951 H   0  0  0  0  0  0  0  0  0  0  0  0
   58.5742   30.8644   47.6924 H   0  0  0  0  0  0  0  0  0  0  0  0
   57.1960   31.8255   49.9457 H   0  0  0  0  0  0  0  0  0  0  0  0
  1  2  1  0
  2  3  1  0
  3  4  2  0
  4  5  1  0
  5  6  2  0
  6  7  1  0
  7  8  1  0
  8  9  2  0
  9 10  1  0
 10 11  2  0
 11 12  1  0
 12 13  2  0
 13 14  1  0
 14 15  2  0
 14 16  1  0
 16 17  1  0
 17 18  2  0
 18 19  1  0
 19 20  2  0
 20 21  1  0
 21 22  1  0
 22 23  1  0
 23 24  2  0
 23 25  2  0
 23 26  1  0
 26 27  1  0
 27 28  2  0
 28 29  1  0
 29 30  2  0
 30 31  1  0
 31 32  2  0
 21 33  2  0
 33 34  1  0
 16 35  1  0
 35 36  2  0
  7 37  2  0
 37  3  1  0
 36  8  1  0
 35 11  1  0
 33 17  1  0
 32 27  1  0
  1 38  1  0
  1 39  1  0
  1 40  1  0
  4 41  1  0
  5 42  1  0
  6 43  1  0
  9 44  1  0
 12 45  1  0
 13 46  1  0
 18 47  1  0
 19 48  1  0
 20 49  1  0
 26 50  1  0
 26 51  1  0
 28 52  1  0
 29 53  1  0
 30 54  1  0
 31 55  1  0
 32 56  1  0
 34 57  1  0
 34 58  1  0
 34 59  1  0
 36 60  1  0
 37 61  1  0
M  CHG  2   5   1  22  -1
M  END
>  <UniqueID>  (61) 
56

>  <SMILES>  (61) 
COc1c[nH+]cc(-c2cnc3ccc(=O)n(-c4cccc([N-]S(=O)(=O)Cc5ccccc5)c4C)c3c2)c1

>  <Energy>  (61) 
85.58361221846368

>  <Genealogy>  (61) 
COc1c[nH+]cc(-c2cnc3ccc(=O)n(-c4cccc([N-]S(=O)(=O)Cc5ccccc5)c4C)c3c2)c1 (protonated)
COc1c[nH+]cc(-c2cnc3ccc(=O)n(-c4cccc([N-]S(=O)(=O)Cc5ccccc5)c4C)c3c2)c1 (3D coordinates assigned)
COc1c[nH+]cc(-c2cnc3ccc(=O)n(-c4cccc([N-]S(=O)(=O)Cc5ccccc5)c4C)c3c2)c1 (optimized conformer: 85.58361221846368 kcal/mol)

>  <smiles>  (61) 
COc1cncc(-c2cnc3ccc(=O)n(-c4cccc(NS(=O)(=O)Cc5ccccc5)c4C)c3c2)c1

>  <score_type>  (61) 
oracle

>  <origin>  (61) 
adg

>  <m_score__min__energy>  (61) 
-11.039999999999999

>  <m_primary>  (61) 
energy

$$$$
61:0
     RDKit          3D

 73 78  0  0  0  0  0  0  0  0999 V2000
   61.3180   32.2040   50.9430 N   0  0  0  0  0  0  0  0  0  0  0  0
   62.5210   31.4600   51.2060 C   0  0  0  0  0  0  0  0  0  0  0  0
   62.4280   30.0870   51.5140 C   0  0  0  0  0  0  0  0  0  0  0  0
   61.1560   29.4070   51.5360 N   0  0  0  0  0  0  0  0  0  0  0  0
   60.3480   29.4980   52.7620 C   0  0  0  0  0  0  0  0  0  0  0  0
   59.1130   30.3220   52.5110 C   0  0  0  0  0  0  0  0  0  0  0  0
   57.9560   29.7200   51.9840 C   0  0  0  0  0  0  0  0  0  0  0  0
   56.8380   30.4950   51.6630 C   0  0  0  0  0  0  0  0  0  0  0  0
   56.8680   31.8780   51.8550 C   0  0  0  0  0  0  0  0  0  0  0  0
   58.0140   32.4850   52.3760 C   0  0  0  0  0  0  0  0  0  0  0  0
   59.1340   31.7130   52.7030 C   0  0  0  0  0  0  0  0  0  0  0  0
   60.8060   28.4620   50.4970 C   0  0  0  0  0  0  0  0  0  0  0  0
   61.2230   27.2750   50.5640 O   0  0  0  0  0  0  0  0  0  0  0  0
   60.0120   28.8650   49.3150 C   0  0  0  0  0  0  0  0  0  0  0  0
   59.7160   30.2130   49.0700 C   0  0  0  0  0  0  0  0  0  0  0  0
   58.9890   30.5840   47.9350 C   0  0  0  0  0  0  0  0  0  0  0  0
   58.5380   29.6110   47.0200 C   0  0  0  0  0  0  0  0  0  0  0  0
   58.8000   28.2600   47.3000 C   0  0  0  0  0  0  0  0  0  0  0  0
   59.5310   27.8890   48.4340 C   0  0  0  0  0  0  0  0  0  0  0  0
   58.1760   27.0480   46.2180 S   0  0  0  0  0  0  0  0  0  0  0  0
   59.2490   26.5770   45.2780 O   0  0  0  0  0  0  0  0  0  0  0  0
   57.6200   25.8920   47.0010 O   0  0  0  0  0  0  0  0  0  0  0  0
   56.9050   27.8070   45.3390 N   0  0  0  0  0  0  0  0  0  0  0  0
   56.8160   29.0990   45.2290 C   0  0  0  0  0  0  0  0  0  0  0  0
   55.6900   29.6720   44.4030 C   0  0  0  0  0  0  0  0  0  0  0  0
   56.1070   30.0270   42.9620 C   0  0  0  0  0  0  0  0  0  0  0  0
   57.0070   31.2710   42.8070 C   0  0  0  0  0  0  0  0  0  0  0  0
   58.2550   31.2660   43.7100 C   0  0  0  0  0  0  0  0  0  0  0  0
   57.9640   31.3240   45.2270 C   0  0  0  0  0  0  0  0  0  0  0  0
   57.8040   29.9850   45.8220 N   0  0  0  0  0  0  0  0  0  0  0  0
   63.6040   29.3810   51.7750 C   0  0  0  0  0  0  0  0  0  0  0  0
   63.5580   28.1570   52.0740 O   0  0  0  0  0  0  0  0  0  0  0  0
   64.7990   30.0130   51.7240 N   0  0  0  0  0  0  0  0  0  0  0  0
   64.8910   31.3300   51.3980 C   0  0  0  0  0  0  0  0  0  0  0  0
   66.0340   31.8610   51.3400 O   0  0  0  0  0  0  0  0  0  0  0  0
   63.7590   32.0640   51.1290 N   0  0  0  0  0  0  0  0  0  0  0  0
   63.8870   33.4580   50.6460 C   0  0  0  0  0  0  0  0  0  0  0  0
   63.3520   33.5800   49.2420 C   0  0  0  0  0  0  0  0  0  0  0  0
   62.0860   34.1420   48.9990 C   0  0  0  0  0  0  0  0  0  0  0  0
   61.5860   34.2150   47.6950 C   0  0  0  0  0  0  0  0  0  0  0  0
   62.3470   33.7390   46.6230 C   0  0  0  0  0  0  0  0  0  0  0  0
   63.6090   33.1850   46.8540 C   0  0  0  0  0  0  0  0  0  0  0  0
   64.1100   33.1020   48.1580 C   0  0  0  0  0  0  0  0  0  0  0  0
   60.9360   32.8850   51.6330 H   0  0  0  0  0  0  0  0  0  0  0  0
   60.8500   32.1830   50.0130 H   0  0  0  0  0  0  0  0  0  0  0  0
   60.0521   28.4868   53.0780 H   0  0  0  0  0  0  0  0  0  0  0  0
   60.9456   29.9782   53.5508 H   0  0  0  0  0  0  0  0  0  0  0  0
   57.9310   28.6321   51.8235 H   0  0  0  0  0  0  0  0  0  0  0  0
   55.9342   30.0155   51.2590 H   0  0  0  0  0  0  0  0  0  0  0  0
   55.9905   32.4889   51.5964 H   0  0  0  0  0  0  0  0  0  0  0  0
   58.0355   33.5740   52.5296 H   0  0  0  0  0  0  0  0  0  0  0  0
   60.0334   32.1968   53.1116 H   0  0  0  0  0  0  0  0  0  0  0  0
   60.0581   30.9843   49.7757 H   0  0  0  0  0  0  0  0  0  0  0  0
   58.7666   31.6460   47.7541 H   0  0  0  0  0  0  0  0  0  0  0  0
   59.7286   26.8256   48.6342 H   0  0  0  0  0  0  0  0  0  0  0  0
   54.8782   28.9311   44.3585 H   0  0  0  0  0  0  0  0  0  0  0  0
   55.3737   30.6067   44.8891 H   0  0  0  0  0  0  0  0  0  0  0  0
   56.6492   29.1650   42.5462 H   0  0  0  0  0  0  0  0  0  0  0  0
   55.1731   30.2679   42.4330 H   0  0  0  0  0  0  0  0  0  0  0  0
   57.3394   31.3276   41.7600 H   0  0  0  0  0  0  0  0  0  0  0  0
   56.4017   32.1379   43.1104 H   0  0  0  0  0  0  0  0  0  0  0  0
   58.8201   30.3446   43.5059 H   0  0  0  0  0  0  0  0  0  0  0  0
   58.8127   32.1829   43.4687 H   0  0  0  0  0  0  0  0  0  0  0  0
   58.7998   31.8349   45.7274 H   0  0  0  0  0  0  0  0  0  0  0  0
   57.0174   31.8669   45.3655 H   0  0  0  0  0  0  0  0  0  0  0  0
   65.6720   29.4740   51.9270 H   0  0  0  0  0  0  0  0  0  0  0  0
   63.3176   34.1251   51.3099 H   0  0  0  0  0  0  0  0  0  0  0  0
   64.9504   33.7396   50.6479 H   0  0  0  0  0  0  0  0  0  0  0  0
   61.4867   34.5256   49.8378 H   0  0  0  0  0  0  0  0  0  0  0  0
   60.5915   34.6480   47.5122 H   0  0  0  0  0  0  0  0  0  0  0  0
   61.9524   33.8006   45.5980 H   0  0  0  0  0  0  0  0  0  0  0  0
   64.2091   32.8139   46.0101 H   0  0  0  0  0  0  0  0  0  0  0  0
   65.1017   32.6607   48.3361 H   0  0  0  0  0  0  0  0  0  0  0  0
  1  2  1  0
  2  3  2  0
  3  4  1  0
  4  5  1  0
  5  6  1  0
  6  7  2  0
  7  8  1  0
  8  9  2  0
  9 10  1  0
 10 11  2  0
  4 12  1  0
 12 13  2  0
 12 14  1  0
 14 15  2  0
 15 16  1  0
 16 17  2  0
 17 18  1  0
 18 19  2  0
 18 20  1  0
 20 21  2  0
 20 22  2  0
 20 23  1  0
 23 24  2  0
 24 25  1  0
 25 26  1  0
 26 27  1  0
 27 28  1  0
 28 29  1  0
 29 30  1  0
  3 31  1  0
 31 32  2  0
 31 33  1  0
 33 34  1  0
 34 35  2  0
 34 36  1  0
 36 37  1  0
 37 38  1  0
 38 39  2  0
 39 40  1  0
 40 41  2  0
 41 42  1  0
 42 43  2  0
 36  2  1  0
 43 38  1  0
 11  6  1  0
 19 14  1  0
 30 24  1  0
 30 17  1  0
  1 44  1  0
  1 45  1  0
  5 46  1  0
  5 47  1  0
  7 48  1  0
  8 49  1  0
  9 50  1  0
 10 51  1  0
 11 52  1  0
 15 53  1  0
 16 54  1  0
 19 55  1  0
 25 56  1  0
 25 57  1  0
 26 58  1  0
 26 59  1  0
 27 60  1  0
 27 61  1  0
 28 62  1  0
 28 63  1  0
 29 64  1  0
 29 65  1  0
 33 66  1  0
 37 67  1  0
 37 68  1  0
 39 69  1  0
 40 70  1  0
 41 71  1  0
 42 72  1  0
 43 73  1  0
M  END
>  <UniqueID>  (62) 
57

>  <SMILES>  (62) 
Nc1c(N(Cc2ccccc2)C(=O)c2ccc3c(c2)S(=O)(=O)N=C2CCCCCN23)c(=O)[nH]c(=O)n1Cc1ccccc1

>  <Energy>  (62) 
107.89521744539265

>  <Genealogy>  (62) 
Nc1c(N(Cc2ccccc2)C(=O)c2ccc3c(c2)S(=O)(=O)N=C2CCCCCN23)c(=O)[nH]c(=O)n1Cc1ccccc1 (3D coordinates assigned)
Nc1c(N(Cc2ccccc2)C(=O)c2ccc3c(c2)S(=O)(=O)N=C2CCCCCN23)c(=O)[nH]c(=O)n1Cc1ccccc1 (nonaromatic ring conformer: 107.89521744539265 kcal/mol)

>  <smiles>  (62) 
Nc1c(N(Cc2ccccc2)C(=O)c2ccc3c(c2)S(=O)(=O)N=C2CCCCCN23)c(=O)[nH]c(=O)n1Cc1ccccc1

>  <score_type>  (62) 
oracle

>  <origin>  (62) 
adg

>  <m_score__min__energy>  (62) 
-8.2400000000000002

>  <m_primary>  (62) 
energy

$$$$
62:0
     RDKit          3D

 44 46  0  0  0  0  0  0  0  0999 V2000
   63.2730   33.4560   48.1720 C   0  0  0  0  0  0  0  0  0  0  0  0
   62.2700   33.1220   49.2880 C   0  0  0  0  0  0  0  0  0  0  0  0
   60.8900   32.8890   48.8100 N   0  0  0  0  0  0  0  0  0  0  0  0
   60.7770   31.8740   47.7320 C   0  0  0  0  0  0  0  0  0  0  0  0
   60.4100   32.4900   46.3770 C   0  0  0  0  0  0  0  0  0  0  0  0
   59.1830   33.2870   46.5020 N   0  0  0  0  0  0  0  0  0  0  0  0
   58.4140   33.6080   45.3330 C   0  0  0  0  0  0  0  0  0  0  0  0
   58.2290   34.8140   45.0220 O   0  0  0  0  0  0  0  0  0  0  0  0
   57.8290   32.5480   44.4950 C   0  0  0  0  0  0  0  0  0  0  0  0
   57.8500   32.4740   43.1160 C   0  0  0  0  0  0  0  0  0  0  0  0
   57.2420   31.3640   42.7650 O   0  0  0  0  0  0  0  0  0  0  0  0
   56.8570   30.7630   43.8700 C   0  0  0  0  0  0  0  0  0  0  0  0
   56.1190   29.4620   43.8970 C   0  0  0  0  0  0  0  0  0  0  0  0
   56.1420   28.8930   45.2060 O   0  0  0  0  0  0  0  0  0  0  0  0
   57.1820   28.1070   45.7300 C   0  0  0  0  0  0  0  0  0  0  0  0
   57.3060   26.7310   45.4640 C   0  0  0  0  0  0  0  0  0  0  0  0
   58.3530   25.9990   46.0270 C   0  0  0  0  0  0  0  0  0  0  0  0
   58.5080   24.2800   45.7070 Cl  0  0  0  0  0  0  0  0  0  0  0  0
   59.2780   26.6490   46.8450 C   0  0  0  0  0  0  0  0  0  0  0  0
   59.1520   27.9800   47.0870 N   0  0  0  0  0  0  0  0  0  0  0  0
   58.1380   28.7150   46.5550 C   0  0  0  0  0  0  0  0  0  0  0  0
   58.0640   29.9470   46.8080 O   0  0  0  0  0  0  0  0  0  0  0  0
   57.2090   31.4550   44.9720 N   0  0  0  0  0  0  0  0  0  0  0  0
   58.8490   33.9080   47.7880 C   0  0  0  0  0  0  0  0  0  0  0  0
   60.1220   34.1400   48.6080 C   0  0  0  0  0  0  0  0  0  0  0  0
   64.2266   33.7735   48.6190 H   0  0  0  0  0  0  0  0  0  0  0  0
   63.4388   32.5646   47.5492 H   0  0  0  0  0  0  0  0  0  0  0  0
   62.8713   34.2689   47.5492 H   0  0  0  0  0  0  0  0  0  0  0  0
   62.6155   32.2131   49.8022 H   0  0  0  0  0  0  0  0  0  0  0  0
   62.2318   33.9977   49.9525 H   0  0  0  0  0  0  0  0  0  0  0  0
   61.7424   31.3561   47.6334 H   0  0  0  0  0  0  0  0  0  0  0  0
   59.9704   31.1802   48.0115 H   0  0  0  0  0  0  0  0  0  0  0  0
   61.2316   33.1375   46.0370 H   0  0  0  0  0  0  0  0  0  0  0  0
   60.2434   31.6836   45.6476 H   0  0  0  0  0  0  0  0  0  0  0  0
   58.2961   33.2126   42.4337 H   0  0  0  0  0  0  0  0  0  0  0  0
   55.0748   29.6335   43.5966 H   0  0  0  0  0  0  0  0  0  0  0  0
   56.6082   28.7647   43.2009 H   0  0  0  0  0  0  0  0  0  0  0  0
   56.5760   26.2306   44.8107 H   0  0  0  0  0  0  0  0  0  0  0  0
   60.1086   26.0842   47.2936 H   0  0  0  0  0  0  0  0  0  0  0  0
   57.0290   31.2020   45.9700 H   0  0  0  0  0  0  0  0  0  0  0  0
   58.3517   34.8725   47.6078 H   0  0  0  0  0  0  0  0  0  0  0  0
   58.1781   33.2391   48.3469 H   0  0  0  0  0  0  0  0  0  0  0  0
   60.7577   34.8651   48.0787 H   0  0  0  0  0  0  0  0  0  0  0  0
   59.8239   34.5182   49.5970 H   0  0  0  0  0  0  0  0  0  0  0  0
  1  2  1  0
  2  3  1  0
  3  4  1  0
  4  5  1  0
  5  6  1  0
  6  7  1  0
  7  8  2  0
  7  9  1  0
  9 10  2  0
 10 11  1  0
 11 12  1  0
 12 13  1  0
 13 14  1  0
 14 15  1  0
 15 16  2  0
 16 17  1  0
 17 18  1  0
 17 19  2  0
 19 20  1  0
 20 21  1  0
 21 22  2  0
 12 23  2  0
  6 24  1  0
 24 25  1  0
 25  3  1  0
 23  9  1  0
 21 15  1  0
  1 26  1  0
  1 27  1  0
  1 28  1  0
  2 29  1  0
  2 30  1  0
  4 31  1  0
  4 32  1  0
  5 33  1  0
  5 34  1  0
 10 35  1  0
 13 36  1  0
 13 37  1  0
 16 38  1  0
 19 39  1  0
 23 40  1  0
 24 41  1  0
 24 42  1  0
 25 43  1  0
 25 44  1  0
M  CHG  2  20  -1  23   1
M  END
>  <UniqueID>  (63) 
58

>  <SMILES>  (63) 
CCN1CCN(C(=O)c2coc(COc3cc(Cl)c[n-]c3=O)[nH+]2)CC1

>  <Energy>  (63) 
87.88437793229006

>  <Genealogy>  (63) 
CCN1CCN(C(=O)c2coc(COc3cc(Cl)c[n-]c3=O)[nH+]2)CC1 (protonated)
CCN1CCN(C(=O)c2coc(COc3cc(Cl)c[n-]c3=O)[nH+]2)CC1 (3D coordinates assigned)
CCN1CCN(C(=O)c2coc(COc3cc(Cl)c[n-]c3=O)[nH+]2)CC1 (nonaromatic ring conformer: 87.88437793229006 kcal/mol)

>  <smiles>  (63) 
CCN1CCN(C(=O)c2coc(COc3cc(Cl)c[nH]c3=O)n2)CC1

>  <score_type>  (63) 
oracle

>  <origin>  (63) 
adg

>  <m_score__min__energy>  (63) 
-8.2699999999999996

>  <m_primary>  (63) 
energy

$$$$
63:0
     RDKit          3D

 33 35  0  0  0  0  0  0  0  0999 V2000
   54.5440   29.7000   43.3740 O   0  0  0  0  0  0  0  0  0  0  0  0
   55.5260   29.6780   44.1620 C   0  0  0  0  0  0  0  0  0  0  0  0
   55.5270   28.7810   45.2240 O   0  0  0  0  0  0  0  0  0  0  0  0
   56.6890   30.5510   43.9400 C   0  0  0  0  0  0  0  0  0  0  0  0
   57.0030   30.8610   42.7600 O   0  0  0  0  0  0  0  0  0  0  0  0
   57.4670   31.1200   45.0560 C   0  0  0  0  0  0  0  0  0  0  0  0
   57.7010   32.4740   45.2690 C   0  0  0  0  0  0  0  0  0  0  0  0
   58.4560   32.6540   46.3780 N   0  0  0  0  0  0  0  0  0  0  0  0
   58.8550   33.9440   46.9440 C   0  0  0  0  0  0  0  0  0  0  0  0
   60.3050   33.9120   47.3540 C   0  0  0  0  0  0  0  0  0  0  0  0
   61.2910   33.6200   46.3950 C   0  0  0  0  0  0  0  0  0  0  0  0
   62.6410   33.5960   46.7540 C   0  0  0  0  0  0  0  0  0  0  0  0
   63.0210   33.8580   48.0730 C   0  0  0  0  0  0  0  0  0  0  0  0
   64.3310   33.8330   48.4190 F   0  0  0  0  0  0  0  0  0  0  0  0
   62.0490   34.1400   49.0360 C   0  0  0  0  0  0  0  0  0  0  0  0
   60.6950   34.1670   48.6850 C   0  0  0  0  0  0  0  0  0  0  0  0
   59.7730   34.4320   49.6430 F   0  0  0  0  0  0  0  0  0  0  0  0
   58.7110   31.4220   46.8690 C   0  0  0  0  0  0  0  0  0  0  0  0
   59.4730   31.0860   47.9910 C   0  0  0  0  0  0  0  0  0  0  0  0
   59.6440   29.7230   48.2890 C   0  0  0  0  0  0  0  0  0  0  0  0
   59.0710   28.7320   47.4620 C   0  0  0  0  0  0  0  0  0  0  0  0
   59.2630   27.4210   47.7500 F   0  0  0  0  0  0  0  0  0  0  0  0
   58.3100   29.0970   46.3370 C   0  0  0  0  0  0  0  0  0  0  0  0
   58.1300   30.4570   46.0790 C   0  0  0  0  0  0  0  0  0  0  0  0
   57.3256   33.2844   44.6269 H   0  0  0  0  0  0  0  0  0  0  0  0
   58.7089   34.7314   46.1899 H   0  0  0  0  0  0  0  0  0  0  0  0
   58.2379   34.1507   47.8308 H   0  0  0  0  0  0  0  0  0  0  0  0
   60.9977   33.4092   45.3560 H   0  0  0  0  0  0  0  0  0  0  0  0
   63.4064   33.3704   45.9968 H   0  0  0  0  0  0  0  0  0  0  0  0
   62.3496   34.3417   50.0747 H   0  0  0  0  0  0  0  0  0  0  0  0
   59.9256   31.8649   48.6223 H   0  0  0  0  0  0  0  0  0  0  0  0
   60.2282   29.4262   49.1725 H   0  0  0  0  0  0  0  0  0  0  0  0
   57.8695   28.3330   45.6795 H   0  0  0  0  0  0  0  0  0  0  0  0
  1  2  2  0
  2  3  1  0
  2  4  1  0
  4  5  2  0
  4  6  1  0
  6  7  2  0
  7  8  1  0
  8  9  1  0
  9 10  1  0
 10 11  2  0
 11 12  1  0
 12 13  2  0
 13 14  1  0
 13 15  1  0
 15 16  2  0
 16 17  1  0
  8 18  1  0
 18 19  2  0
 19 20  1  0
 20 21  2  0
 21 22  1  0
 21 23  1  0
 23 24  2  0
 24  6  1  0
 16 10  1  0
 24 18  1  0
  7 25  1  0
  9 26  1  0
  9 27  1  0
 11 28  1  0
 12 29  1  0
 15 30  1  0
 19 31  1  0
 20 32  1  0
 23 33  1  0
M  CHG  1   3  -1
M  END
>  <UniqueID>  (64) 
59

>  <SMILES>  (64) 
O=C([O-])C(=O)c1cn(Cc2ccc(F)cc2F)c2ccc(F)cc12

>  <Energy>  (64) 
72.6324731769654

>  <Genealogy>  (64) 
O=C([O-])C(=O)c1cn(Cc2ccc(F)cc2F)c2ccc(F)cc12 (protonated)
O=C([O-])C(=O)c1cn(Cc2ccc(F)cc2F)c2ccc(F)cc12 (3D coordinates assigned)
O=C([O-])C(=O)c1cn(Cc2ccc(F)cc2F)c2ccc(F)cc12 (optimized conformer: 72.6324731769654 kcal/mol)

>  <smiles>  (64) 
O=C(O)C(=O)c1cn(Cc2ccc(F)cc2F)c2ccc(F)cc12

>  <score_type>  (64) 
oracle

>  <origin>  (64) 
adg

>  <m_score__min__energy>  (64) 
-10

>  <m_primary>  (64) 
energy

$$$$
64:0
     RDKit          3D

 39 41  0  0  0  0  0  0  0  0999 V2000
   56.3120   29.8650   42.9360 C   0  0  0  0  0  0  0  0  0  0  0  0
   57.2240   30.4620   43.9610 C   0  0  0  0  0  0  0  0  0  0  0  0
   56.9270   31.6320   44.4490 N   0  0  0  0  0  0  0  0  0  0  0  0
   57.7310   32.3050   45.4220 C   0  0  0  0  0  0  0  0  0  0  0  0
   57.3170   33.5300   45.9550 C   0  0  0  0  0  0  0  0  0  0  0  0
   58.1200   34.1920   46.8900 C   0  0  0  0  0  0  0  0  0  0  0  0
   59.3390   33.6320   47.2880 C   0  0  0  0  0  0  0  0  0  0  0  0
   59.7550   32.4080   46.7540 C   0  0  0  0  0  0  0  0  0  0  0  0
   58.9480   31.7430   45.8210 C   0  0  0  0  0  0  0  0  0  0  0  0
   59.3480   30.4910   45.2570 N   0  0  0  0  0  0  0  0  0  0  0  0
   58.4370   29.6770   44.4420 C   0  0  1  0  0  0  0  0  0  0  0  0
   57.9900   28.4680   45.2400 C   0  0  0  0  0  0  0  0  0  0  0  0
   56.6320   28.1030   45.2500 C   0  0  0  0  0  0  0  0  0  0  0  0
   56.1910   26.9890   45.9690 C   0  0  0  0  0  0  0  0  0  0  0  0
   54.8310   26.7120   45.9940 O   0  0  0  0  0  0  0  0  0  0  0  0
   57.1170   26.1950   46.6760 C   0  0  0  0  0  0  0  0  0  0  0  0
   56.7400   25.0290   47.4230 N   0  0  0  0  0  0  0  0  0  0  0  0
   56.2600   23.4950   46.7730 S   0  0  0  0  0  0  0  0  0  0  0  0
   56.6810   23.3930   45.0450 C   0  0  0  0  0  0  0  0  0  0  0  0
   54.7860   23.2820   46.9720 O   0  0  0  0  0  0  0  0  0  0  0  0
   57.0080   22.4130   47.4980 O   0  0  0  0  0  0  0  0  0  0  0  0
   58.4640   26.5730   46.6900 C   0  0  0  0  0  0  0  0  0  0  0  0
   58.9090   27.6920   45.9740 C   0  0  0  0  0  0  0  0  0  0  0  0
   60.2630   28.0290   45.9930 O   0  0  0  0  0  0  0  0  0  0  0  0
   55.4941   29.3296   43.4403 H   0  0  0  0  0  0  0  0  0  0  0  0
   55.8938   30.6647   42.3071 H   0  0  0  0  0  0  0  0  0  0  0  0
   56.8776   29.1618   42.3071 H   0  0  0  0  0  0  0  0  0  0  0  0
   56.3607   33.9726   45.6393 H   0  0  0  0  0  0  0  0  0  0  0  0
   57.7928   35.1535   47.3126 H   0  0  0  0  0  0  0  0  0  0  0  0
   59.9706   34.1548   48.0214 H   0  0  0  0  0  0  0  0  0  0  0  0
   60.7138   31.9682   47.0658 H   0  0  0  0  0  0  0  0  0  0  0  0
   60.2800   30.0880   45.5100 H   0  0  0  0  0  0  0  0  0  0  0  0
   58.9888   29.3581   43.5454 H   0  0  0  0  0  0  0  0  0  0  0  0
   55.9056   28.7038   44.6830 H   0  0  0  0  0  0  0  0  0  0  0  0
   57.7453   23.1351   44.9415 H   0  0  0  0  0  0  0  0  0  0  0  0
   56.0673   22.6176   44.5632 H   0  0  0  0  0  0  0  0  0  0  0  0
   56.4903   24.3633   44.5632 H   0  0  0  0  0  0  0  0  0  0  0  0
   59.1856   25.9818   47.2729 H   0  0  0  0  0  0  0  0  0  0  0  0
   60.9340   27.5740   45.3850 H   0  0  0  0  0  0  0  0  0  0  0  0
  1  2  1  0
  2  3  2  0
  3  4  1  0
  4  5  2  0
  5  6  1  0
  6  7  2  0
  7  8  1  0
  8  9  2  0
  9 10  1  0
 10 11  1  0
 11 12  1  0
 12 13  2  0
 13 14  1  0
 14 15  1  0
 14 16  2  0
 16 17  1  0
 17 18  1  0
 18 19  1  0
 18 20  2  0
 18 21  2  0
 16 22  1  0
 22 23  2  0
 23 24  1  0
 11  2  1  0
 23 12  1  0
  9  4  1  0
  1 25  1  0
  1 26  1  0
  1 27  1  0
  5 28  1  0
  6 29  1  0
  7 30  1  0
  8 31  1  0
 10 32  1  0
 11 33  1  6
 13 34  1  0
 19 35  1  0
 19 36  1  0
 19 37  1  0
 22 38  1  0
 24 39  1  0
M  CHG  2  15  -1  17  -1
M  END
>  <UniqueID>  (65) 
60

>  <SMILES>  (65) 
CC1=Nc2ccccc2N[C@H]1c1cc([O-])c([N-]S(C)(=O)=O)cc1O

>  <Energy>  (65) 
43.90807233121128

>  <Genealogy>  (65) 
CC1=Nc2ccccc2NC1c1cc([O-])c([N-]S(C)(=O)=O)cc1O (protonated)
CC1=Nc2ccccc2N[C@H]1c1cc([O-])c([N-]S(C)(=O)=O)cc1O (chirality)
CC1=Nc2ccccc2N[C@H]1c1cc([O-])c([N-]S(C)(=O)=O)cc1O (3D coordinates assigned)
CC1=Nc2ccccc2N[C@H]1c1cc([O-])c([N-]S(C)(=O)=O)cc1O (nonaromatic ring conformer: 43.90807233121128 kcal/mol)

>  <smiles>  (65) 
CC1=Nc2ccccc2NC1c1cc(O)c(NS(C)(=O)=O)cc1O

>  <score_type>  (65) 
oracle

>  <origin>  (65) 
adg

>  <m_score__min__energy>  (65) 
-13.42

>  <m_primary>  (65) 
energy

$$$$
65:0
     RDKit          3D

 43 45  0  0  0  0  0  0  0  0999 V2000
   60.8470   30.0790   48.7180 O   0  0  0  0  0  0  0  0  0  0  0  0
   60.2040   31.1650   48.7250 C   0  0  0  0  0  0  0  0  0  0  0  0
   58.7100   31.1350   48.6330 C   0  0  0  0  0  0  0  0  0  0  0  0
   58.2920   31.4420   47.2620 N   0  0  0  0  0  0  0  0  0  0  0  0
   57.7710   30.4530   46.5290 N   0  0  0  0  0  0  0  0  0  0  0  0
   57.3140   30.6450   45.2610 C   0  0  0  0  0  0  0  0  0  0  0  0
   56.7530   29.5070   44.5100 C   0  0  0  0  0  0  0  0  0  0  0  0
   56.9310   29.4400   43.2650 O   0  0  0  0  0  0  0  0  0  0  0  0
   56.0600   28.4590   45.2010 N   0  0  0  0  0  0  0  0  0  0  0  0
   56.6330   27.2480   45.7200 C   0  0  0  0  0  0  0  0  0  0  0  0
   58.0260   27.0670   45.8160 C   0  0  0  0  0  0  0  0  0  0  0  0
   58.5480   25.8660   46.3040 C   0  0  0  0  0  0  0  0  0  0  0  0
   57.6890   24.8320   46.6850 C   0  0  0  0  0  0  0  0  0  0  0  0
   56.3070   24.9950   46.5710 C   0  0  0  0  0  0  0  0  0  0  0  0
   55.7790   26.1950   46.0830 C   0  0  0  0  0  0  0  0  0  0  0  0
   54.4000   26.3400   45.9680 O   0  0  0  0  0  0  0  0  0  0  0  0
   57.3850   31.9260   44.7040 C   0  0  0  0  0  0  0  0  0  0  0  0
   57.9150   32.9660   45.4610 C   0  0  0  0  0  0  0  0  0  0  0  0
   58.3670   32.7130   46.7550 C   0  0  0  0  0  0  0  0  0  0  0  0
   58.8360   33.6600   47.4440 O   0  0  0  0  0  0  0  0  0  0  0  0
   60.8940   32.4150   48.8700 N   0  0  0  0  0  0  0  0  0  0  0  0
   62.3150   32.4880   49.0490 C   0  0  0  0  0  0  0  0  0  0  0  0
   62.8820   31.8280   50.1480 C   0  0  0  0  0  0  0  0  0  0  0  0
   64.2510   31.9260   50.4050 C   0  0  0  0  0  0  0  0  0  0  0  0
   65.0670   32.6770   49.5610 C   0  0  0  0  0  0  0  0  0  0  0  0
   64.5240   33.3170   48.4460 C   0  0  0  0  0  0  0  0  0  0  0  0
   63.1490   33.2170   48.1600 C   0  0  0  0  0  0  0  0  0  0  0  0
   62.6370   33.8320   46.9110 C   0  0  0  0  0  0  0  0  0  0  0  0
   63.4120   34.0990   45.9550 O   0  0  0  0  0  0  0  0  0  0  0  0
   61.2920   34.1650   46.7970 O   0  0  0  0  0  0  0  0  0  0  0  0
   58.3468   30.1344   48.9104 H   0  0  0  0  0  0  0  0  0  0  0  0
   58.2882   31.8849   49.3184 H   0  0  0  0  0  0  0  0  0  0  0  0
   58.7060   27.8740   45.5057 H   0  0  0  0  0  0  0  0  0  0  0  0
   59.6369   25.7345   46.3883 H   0  0  0  0  0  0  0  0  0  0  0  0
   58.1014   23.8897   47.0747 H   0  0  0  0  0  0  0  0  0  0  0  0
   55.6319   24.1780   46.8656 H   0  0  0  0  0  0  0  0  0  0  0  0
   57.0263   32.1089   43.6803 H   0  0  0  0  0  0  0  0  0  0  0  0
   57.9769   33.9809   45.0412 H   0  0  0  0  0  0  0  0  0  0  0  0
   60.3800   33.2960   48.6410 H   0  0  0  0  0  0  0  0  0  0  0  0
   62.2435   31.2282   50.8132 H   0  0  0  0  0  0  0  0  0  0  0  0
   64.6855   31.4102   51.2740 H   0  0  0  0  0  0  0  0  0  0  0  0
   66.1425   32.7656   49.7743 H   0  0  0  0  0  0  0  0  0  0  0  0
   65.1766   33.9053   47.7842 H   0  0  0  0  0  0  0  0  0  0  0  0
  1  2  2  0
  2  3  1  0
  3  4  1  0
  4  5  1  0
  5  6  2  0
  6  7  1  0
  7  8  2  0
  7  9  1  0
  9 10  1  0
 10 11  2  0
 11 12  1  0
 12 13  2  0
 13 14  1  0
 14 15  2  0
 15 16  1  0
  6 17  1  0
 17 18  2  0
 18 19  1  0
 19 20  2  0
  2 21  1  0
 21 22  1  0
 22 23  2  0
 23 24  1  0
 24 25  2  0
 25 26  1  0
 26 27  2  0
 27 28  1  0
 28 29  2  0
 28 30  1  0
 19  4  1  0
 27 22  1  0
 15 10  1  0
  3 31  1  0
  3 32  1  0
 11 33  1  0
 12 34  1  0
 13 35  1  0
 14 36  1  0
 17 37  1  0
 18 38  1  0
 21 39  1  0
 23 40  1  0
 24 41  1  0
 25 42  1  0
 26 43  1  0
M  CHG  3   9  -1  16  -1  30  -1
M  END
>  <UniqueID>  (66) 
61

>  <SMILES>  (66) 
O=C(Cn1nc(C(=O)[N-]c2ccccc2[O-])ccc1=O)Nc1ccccc1C(=O)[O-]

>  <Energy>  (66) 
57.954665904483235

>  <Genealogy>  (66) 
O=C(Cn1nc(C(=O)[N-]c2ccccc2[O-])ccc1=O)Nc1ccccc1C(=O)[O-] (protonated)
O=C(Cn1nc(C(=O)[N-]c2ccccc2[O-])ccc1=O)Nc1ccccc1C(=O)[O-] (3D coordinates assigned)
O=C(Cn1nc(C(=O)[N-]c2ccccc2[O-])ccc1=O)Nc1ccccc1C(=O)[O-] (optimized conformer: 57.954665904483235 kcal/mol)

>  <smiles>  (66) 
O=C(Cn1nc(C(=O)Nc2ccccc2O)ccc1=O)Nc1ccccc1C(=O)O

>  <score_type>  (66) 
oracle

>  <origin>  (66) 
adg

>  <m_score__min__energy>  (66) 
-16.260000000000002

>  <m_primary>  (66) 
energy

$$$$
66:0
     RDKit          3D

 64 67  0  0  0  0  0  0  0  0999 V2000
   61.2043   27.9989   48.6456 H   0  0  0  0  0  0  0  0  0  0  0  0
   60.3550   28.0570   47.9490 C   0  0  0  0  0  0  0  0  0  0  0  0
   60.1480   29.2130   47.1970 C   0  0  0  0  0  0  0  0  0  0  0  0
   60.8357   30.0655   47.2987 H   0  0  0  0  0  0  0  0  0  0  0  0
   59.0670   29.2890   46.3140 C   0  0  0  0  0  0  0  0  0  0  0  0
   58.9079   30.2039   45.7244 H   0  0  0  0  0  0  0  0  0  0  0  0
   58.1820   28.2070   46.1730 C   0  0  0  0  0  0  0  0  0  0  0  0
   57.0250   28.3140   45.2090 C   0  0  0  0  0  0  0  0  0  0  0  0
   56.2531   27.5819   45.4886 H   0  0  0  0  0  0  0  0  0  0  0  0
   57.3921   28.1119   44.1920 H   0  0  0  0  0  0  0  0  0  0  0  0
   56.4490   29.6530   45.2420 N   0  0  0  0  0  0  0  0  0  0  0  0
   56.5890   30.6130   44.1890 C   0  0  0  0  0  0  0  0  0  0  0  0
   55.9280   30.4740   43.1240 O   0  0  0  0  0  0  0  0  0  0  0  0
   57.4630   31.7470   44.3460 N   0  0  0  0  0  0  0  0  0  0  0  0
   57.9270   32.2420   45.5070 C   0  0  0  0  0  0  0  0  0  0  0  0
   57.7020   31.7420   46.6420 O   0  0  0  0  0  0  0  0  0  0  0  0
   58.7370   33.3210   45.2050 C   0  0  0  0  0  0  0  0  0  0  0  0
   59.4220   34.0830   46.0110 N   0  0  0  0  0  0  0  0  0  0  0  0
   60.5100   33.6800   46.8570 C   0  0  0  0  0  0  0  0  0  0  0  0
   61.8320   33.6960   46.3860 C   0  0  0  0  0  0  0  0  0  0  0  0
   62.0440   34.0460   45.3649 H   0  0  0  0  0  0  0  0  0  0  0  0
   62.8790   33.2710   47.2040 C   0  0  0  0  0  0  0  0  0  0  0  0
   63.9143   33.3204   46.8357 H   0  0  0  0  0  0  0  0  0  0  0  0
   62.6210   32.7810   48.4930 C   0  0  0  0  0  0  0  0  0  0  0  0
   63.7030   32.3500   49.3450 N   0  0  0  0  0  0  0  0  0  0  0  0
   63.5080   31.2210   50.2660 C   0  0  0  0  0  0  0  0  0  0  0  0
   62.5118   31.2977   50.7261 H   0  0  0  0  0  0  0  0  0  0  0  0
   63.5942   30.2822   49.6993 H   0  0  0  0  0  0  0  0  0  0  0  0
   64.5820   31.2330   51.3760 C   0  0  2  0  0  0  0  0  0  0  0  0
   65.5277   30.8462   50.9686 H   0  0  0  0  0  0  0  0  0  0  0  0
   64.1690   30.3180   52.5380 C   0  0  0  0  0  0  0  0  0  0  0  0
   64.3932   30.8148   53.4935 H   0  0  0  0  0  0  0  0  0  0  0  0
   63.0903   30.1114   52.4765 H   0  0  0  0  0  0  0  0  0  0  0  0
   64.7276   29.3724   52.4765 H   0  0  0  0  0  0  0  0  0  0  0  0
   64.7990   32.6190   51.8400 N   0  0  0  0  0  0  0  0  0  0  0  0
   63.8820   33.0140   52.1600 H   0  0  0  0  0  0  0  0  0  0  0  0
   65.4290   32.6120   52.6780 H   0  0  0  0  0  0  0  0  0  0  0  0
   65.3550   33.5070   50.7780 C   0  0  1  0  0  0  0  0  0  0  0  0
   64.8775   34.4873   50.9228 H   0  0  0  0  0  0  0  0  0  0  0  0
   66.8760   33.6630   50.9240 C   0  0  0  0  0  0  0  0  0  0  0  0
   67.1410   33.6902   51.9912 H   0  0  0  0  0  0  0  0  0  0  0  0
   67.3798   32.8118   50.4427 H   0  0  0  0  0  0  0  0  0  0  0  0
   67.1965   34.5987   50.4427 H   0  0  0  0  0  0  0  0  0  0  0  0
   65.0000   33.0360   49.3450 C   0  0  0  0  0  0  0  0  0  0  0  0
   64.9496   33.9088   48.6775 H   0  0  0  0  0  0  0  0  0  0  0  0
   65.7751   32.3392   48.9934 H   0  0  0  0  0  0  0  0  0  0  0  0
   61.2940   32.7350   48.9510 C   0  0  0  0  0  0  0  0  0  0  0  0
   61.0803   32.3497   49.9589 H   0  0  0  0  0  0  0  0  0  0  0  0
   60.2340   33.1760   48.1360 C   0  0  0  0  0  0  0  0  0  0  0  0
   58.8960   33.1350   48.5670 O   0  0  0  0  0  0  0  0  0  0  0  0
   58.4110   32.3090   49.6170 C   0  0  0  0  0  0  0  0  0  0  0  0
   58.6738   32.7566   50.5868 H   0  0  0  0  0  0  0  0  0  0  0  0
   57.3174   32.2203   49.5384 H   0  0  0  0  0  0  0  0  0  0  0  0
   58.8664   31.3108   49.5384 H   0  0  0  0  0  0  0  0  0  0  0  0
   58.7670   33.4550   43.8660 N   0  0  0  0  0  0  0  0  0  0  0  0
   57.9860   32.4990   43.3770 N   0  0  0  0  0  0  0  0  0  0  0  0
   57.7510   32.3350   41.9460 C   0  0  0  0  0  0  0  0  0  0  0  0
   56.8580   31.7118   41.7901 H   0  0  0  0  0  0  0  0  0  0  0  0
   57.5949   33.3213   41.4846 H   0  0  0  0  0  0  0  0  0  0  0  0
   58.6229   31.8483   41.4846 H   0  0  0  0  0  0  0  0  0  0  0  0
   58.3990   27.0380   46.9360 C   0  0  0  0  0  0  0  0  0  0  0  0
   57.2460   25.5110   46.8110 Br  0  0  0  0  0  0  0  0  0  0  0  0
   59.4850   26.9740   47.8180 C   0  0  0  0  0  0  0  0  0  0  0  0
   59.6533   26.0634   48.4117 H   0  0  0  0  0  0  0  0  0  0  0  0
  1  2  1  0
  2  3  2  0
  3  4  1  0
  3  5  1  0
  5  6  1  0
  5  7  2  0
  7  8  1  0
  8  9  1  0
  8 10  1  0
  8 11  1  0
 11 12  1  0
 12 13  2  0
 12 14  1  0
 14 15  1  0
 15 16  2  0
 15 17  1  0
 17 18  2  0
 18 19  1  0
 19 20  2  0
 20 21  1  0
 20 22  1  0
 22 23  1  0
 22 24  2  0
 24 25  1  0
 25 26  1  0
 26 27  1  0
 26 28  1  0
 26 29  1  0
 29 30  1  6
 29 31  1  0
 31 32  1  0
 31 33  1  0
 31 34  1  0
 29 35  1  0
 35 36  1  0
 35 37  1  0
 35 38  1  0
 38 39  1  1
 38 40  1  0
 40 41  1  0
 40 42  1  0
 40 43  1  0
 38 44  1  0
 44 45  1  0
 44 46  1  0
 24 47  1  0
 47 48  1  0
 47 49  2  0
 49 50  1  0
 50 51  1  0
 51 52  1  0
 51 53  1  0
 51 54  1  0
 17 55  1  0
 55 56  1  0
 56 57  1  0
 57 58  1  0
 57 59  1  0
 57 60  1  0
  7 61  1  0
 61 62  1  0
 61 63  2  0
 63 64  1  0
 63  2  1  0
 56 14  1  0
 49 19  1  0
 44 25  1  0
M  CHG  3  11  -1  35   1  55  -1
M  END
>  <UniqueID>  (67) 
62

>  <SMILES>  (67) 
COc1cc(N2C[C@H](C)[NH2+][C@@H](C)C2)ccc1/N=c1/[n-]n(C)n(C(=O)[N-]Cc2ccccc2Br)c1=O

>  <Energy>  (67) 
122.99930812280648

>  <Genealogy>  (67) 
COc1cc(N2CC(C)[NH2+]C(C)C2)ccc1N=c1[n-]n(C)n(C(=O)[N-]Cc2ccccc2Br)c1=O (protonated)
COc1cc(N2C[C@H](C)[NH2+][C@@H](C)C2)ccc1N=c1[n-]n(C)n(C(=O)[N-]Cc2ccccc2Br)c1=O (chirality)
COc1cc(N2C[C@H](C)[NH2+][C@@H](C)C2)ccc1/N=c1/[n-]n(C)n(C(=O)[N-]Cc2ccccc2Br)c1=O (cis-trans isomerization)
COc1cc(N2C[C@H](C)[NH2+][C@@H](C)C2)ccc1/N=c1/[n-]n(C)n(C(=O)[N-]Cc2ccccc2Br)c1=O (3D coordinates assigned)
COc1cc(N2C[C@H](C)[NH2+][C@@H](C)C2)ccc1/N=c1/[n-]n(C)n(C(=O)[N-]Cc2ccccc2Br)c1=O (nonaromatic ring conformer: 122.99930812280648 kcal/mol)

>  <smiles>  (67) 
COc1cc(N2CC(C)NC(C)C2)ccc1N=c1[nH]n(C)n(C(=O)NCc2ccccc2Br)c1=O

>  <score_type>  (67) 
oracle

>  <origin>  (67) 
adg

>  <m_score__min__energy>  (67) 
-9.4800000000000004

>  <m_primary>  (67) 
energy

$$$$
67:0
     RDKit          3D

 47 50  0  0  0  0  0  0  0  0999 V2000
   59.2430   35.3950   45.2130 N   0  0  0  0  0  0  0  0  0  0  0  0
   59.9010   34.8440   45.9890 C   0  0  0  0  0  0  0  0  0  0  0  0
   60.7190   34.1580   46.9540 C   0  0  0  0  0  0  0  0  0  0  0  0
   61.8530   33.4490   46.5380 C   0  0  0  0  0  0  0  0  0  0  0  0
   62.6510   32.7880   47.4760 C   0  0  0  0  0  0  0  0  0  0  0  0
   62.3270   32.8360   48.8420 C   0  0  0  0  0  0  0  0  0  0  0  0
   63.1980   32.1350   49.8530 C   0  0  0  0  0  0  0  0  0  0  0  0
   62.6680   30.8070   50.1760 N   0  0  0  0  0  0  0  0  0  0  0  0
   61.4110   30.4780   50.1340 C   0  0  0  0  0  0  0  0  0  0  0  0
   60.7990   30.2050   48.9490 N   0  0  0  0  0  0  0  0  0  0  0  0
   59.4820   29.8690   48.8870 C   0  0  0  0  0  0  0  0  0  0  0  0
   58.8570   29.6340   47.5640 C   0  0  0  0  0  0  0  0  0  0  0  0
   58.5340   28.3230   47.1940 C   0  0  0  0  0  0  0  0  0  0  0  0
   57.9550   28.0370   45.9880 N   0  0  0  0  0  0  0  0  0  0  0  0
   57.6610   26.6180   45.6990 C   0  0  0  0  0  0  0  0  0  0  0  0
   56.4030   26.1850   46.3880 C   0  0  0  0  0  0  0  0  0  0  0  0
   55.1470   26.7250   45.9860 N   0  0  0  0  0  0  0  0  0  0  0  0
   56.4480   25.3150   47.2990 O   0  0  0  0  0  0  0  0  0  0  0  0
   57.6410   29.0530   45.1070 C   0  0  0  0  0  0  0  0  0  0  0  0
   57.0090   28.8020   43.8640 C   0  0  0  0  0  0  0  0  0  0  0  0
   56.7040   29.8460   42.9900 C   0  0  0  0  0  0  0  0  0  0  0  0
   57.0150   31.1590   43.3290 C   0  0  0  0  0  0  0  0  0  0  0  0
   57.6290   31.4400   44.5470 C   0  0  0  0  0  0  0  0  0  0  0  0
   57.9460   30.4010   45.4460 C   0  0  0  0  0  0  0  0  0  0  0  0
   58.5490   30.6820   46.6840 C   0  0  0  0  0  0  0  0  0  0  0  0
   58.7890   31.8760   47.0170 O   0  0  0  0  0  0  0  0  0  0  0  0
   58.7370   29.8130   50.0740 C   0  0  0  0  0  0  0  0  0  0  0  0
   59.3800   30.0910   51.2790 C   0  0  0  0  0  0  0  0  0  0  0  0
   60.6980   30.4190   51.2880 N   0  0  0  0  0  0  0  0  0  0  0  0
   61.1830   33.5400   49.2530 C   0  0  0  0  0  0  0  0  0  0  0  0
   60.3830   34.1970   48.3120 C   0  0  0  0  0  0  0  0  0  0  0  0
   62.1162   33.4123   45.4706 H   0  0  0  0  0  0  0  0  0  0  0  0
   63.5370   32.2275   47.1429 H   0  0  0  0  0  0  0  0  0  0  0  0
   64.2117   32.0265   49.4400 H   0  0  0  0  0  0  0  0  0  0  0  0
   63.2179   32.7365   50.7737 H   0  0  0  0  0  0  0  0  0  0  0  0
   58.7516   27.5009   47.8917 H   0  0  0  0  0  0  0  0  0  0  0  0
   57.5407   26.4884   44.6133 H   0  0  0  0  0  0  0  0  0  0  0  0
   58.4950   26.0027   46.0676 H   0  0  0  0  0  0  0  0  0  0  0  0
   54.4790   27.1090   46.6910 H   0  0  0  0  0  0  0  0  0  0  0  0
   56.7551   27.7690   43.5839 H   0  0  0  0  0  0  0  0  0  0  0  0
   56.2154   29.6299   42.0285 H   0  0  0  0  0  0  0  0  0  0  0  0
   56.7754   31.9769   42.6335 H   0  0  0  0  0  0  0  0  0  0  0  0
   57.8686   32.4809   44.8098 H   0  0  0  0  0  0  0  0  0  0  0  0
   57.6678   29.5551   50.0544 H   0  0  0  0  0  0  0  0  0  0  0  0
   58.8192   30.0447   52.2242 H   0  0  0  0  0  0  0  0  0  0  0  0
   60.9151   33.5748   50.3193 H   0  0  0  0  0  0  0  0  0  0  0  0
   59.4878   34.7455   48.6402 H   0  0  0  0  0  0  0  0  0  0  0  0
  1  2  3  0
  2  3  1  0
  3  4  2  0
  4  5  1  0
  5  6  2  0
  6  7  1  0
  7  8  1  0
  8  9  2  3
  9 10  1  0
 10 11  2  0
 11 12  1  0
 12 13  2  0
 13 14  1  0
 14 15  1  0
 15 16  1  0
 16 17  1  0
 16 18  2  0
 14 19  1  0
 19 20  2  0
 20 21  1  0
 21 22  2  0
 22 23  1  0
 23 24  2  0
 24 25  1  0
 25 26  2  0
 11 27  1  0
 27 28  2  0
 28 29  1  0
  6 30  1  0
 30 31  2  0
 31  3  1  0
 29  9  1  0
 25 12  1  0
 24 19  1  0
  4 32  1  0
  5 33  1  0
  7 34  1  0
  7 35  1  0
 13 36  1  0
 15 37  1  0
 15 38  1  0
 17 39  1  0
 20 40  1  0
 21 41  1  0
 22 42  1  0
 23 43  1  0
 27 44  1  0
 28 45  1  0
 30 46  1  0
 31 47  1  0
M  CHG  2  17  -1  29  -1
M  END
>  <UniqueID>  (68) 
63

>  <SMILES>  (68) 
N#Cc1ccc(CN=c2nc(-c3cn(CC([NH-])=O)c4ccccc4c3=O)cc[n-]2)cc1

>  <Energy>  (68) 
62.56965525600694

>  <Genealogy>  (68) 
N#Cc1ccc(CN=c2nc(-c3cn(CC([NH-])=O)c4ccccc4c3=O)cc[n-]2)cc1 (protonated)
N#Cc1ccc(CN=c2nc(-c3cn(CC([NH-])=O)c4ccccc4c3=O)cc[n-]2)cc1 (3D coordinates assigned)
N#Cc1ccc(CN=c2nc(-c3cn(CC([NH-])=O)c4ccccc4c3=O)cc[n-]2)cc1 (optimized conformer: 62.56965525600694 kcal/mol)

>  <smiles>  (68) 
N#Cc1ccc(CN=c2nc(-c3cn(CC(N)=O)c4ccccc4c3=O)cc[nH]2)cc1

>  <score_type>  (68) 
oracle

>  <origin>  (68) 
adg

>  <m_score__min__energy>  (68) 
-12.93

>  <m_primary>  (68) 
energy

$$$$
68:0
     RDKit          3D

 62 65  0  0  0  0  0  0  0  0999 V2000
   56.8610   31.8270   52.4660 C   0  0  0  0  0  0  0  0  0  0  0  0
   58.0520   31.6070   51.6270 N   0  0  0  0  0  0  0  0  0  0  0  0
   58.4230   30.3370   51.2800 C   0  0  0  0  0  0  0  0  0  0  0  0
   57.7270   29.3440   51.6440 O   0  0  0  0  0  0  0  0  0  0  0  0
   59.5610   30.1240   50.4940 C   0  0  0  0  0  0  0  0  0  0  0  0
   59.9120   28.7570   50.0480 C   0  0  0  0  0  0  0  0  0  0  0  0
   60.4460   27.9610   50.8660 O   0  0  0  0  0  0  0  0  0  0  0  0
   59.6030   28.2760   48.6580 C   0  0  0  0  0  0  0  0  0  0  0  0
   60.4210   28.9520   47.7060 O   0  0  0  0  0  0  0  0  0  0  0  0
   59.9290   29.9310   46.8250 C   0  0  0  0  0  0  0  0  0  0  0  0
   60.5100   31.0500   46.7300 O   0  0  0  0  0  0  0  0  0  0  0  0
   58.7530   29.6350   45.9780 C   0  0  0  0  0  0  0  0  0  0  0  0
   58.3980   30.4910   44.9240 C   0  0  0  0  0  0  0  0  0  0  0  0
   57.3160   30.1770   44.1080 C   0  0  0  0  0  0  0  0  0  0  0  0
   56.5740   29.0110   44.3280 C   0  0  0  0  0  0  0  0  0  0  0  0
   56.9010   28.1570   45.3860 C   0  0  0  0  0  0  0  0  0  0  0  0
   56.1530   26.9650   45.6690 N   0  0  0  0  0  0  0  0  0  0  0  0
   56.7760   25.5080   46.3540 S   0  0  0  0  0  0  0  0  0  0  0  0
   55.9310   25.0670   47.5140 O   0  0  0  0  0  0  0  0  0  0  0  0
   58.1680   25.7650   46.8590 O   0  0  0  0  0  0  0  0  0  0  0  0
   56.8380   24.2580   45.1160 C   0  0  0  0  0  0  0  0  0  0  0  0
   57.8960   23.3340   45.0990 C   0  0  0  0  0  0  0  0  0  0  0  0
   57.9500   22.3480   44.1160 C   0  0  0  0  0  0  0  0  0  0  0  0
   56.9480   22.2720   43.1440 C   0  0  0  0  0  0  0  0  0  0  0  0
   55.8920   23.1860   43.1550 C   0  0  0  0  0  0  0  0  0  0  0  0
   55.8360   24.1770   44.1390 C   0  0  0  0  0  0  0  0  0  0  0  0
   57.9890   28.4770   46.2060 C   0  0  0  0  0  0  0  0  0  0  0  0
   60.3170   31.2380   50.0870 C   0  0  0  0  0  0  0  0  0  0  0  0
   61.5050   31.0340   49.3000 N   0  0  0  0  0  0  0  0  0  0  0  0
   59.9360   32.5060   50.4730 N   0  0  0  0  0  0  0  0  0  0  0  0
   60.7500   33.6850   50.0990 C   0  0  0  0  0  0  0  0  0  0  0  0
   60.6090   33.9960   48.6290 C   0  0  0  0  0  0  0  0  0  0  0  0
   61.6800   33.7650   47.7560 C   0  0  0  0  0  0  0  0  0  0  0  0
   61.5530   34.0480   46.3920 C   0  0  0  0  0  0  0  0  0  0  0  0
   60.3560   34.5650   45.8950 C   0  0  0  0  0  0  0  0  0  0  0  0
   59.2900   34.8300   46.7680 C   0  0  0  0  0  0  0  0  0  0  0  0
   59.4170   34.5570   48.1320 C   0  0  0  0  0  0  0  0  0  0  0  0
   58.8110   32.6780   51.2430 C   0  0  0  0  0  0  0  0  0  0  0  0
   58.4650   33.8420   51.6030 O   0  0  0  0  0  0  0  0  0  0  0  0
   57.1453   31.7745   53.5273 H   0  0  0  0  0  0  0  0  0  0  0  0
   56.4374   32.8186   52.2485 H   0  0  0  0  0  0  0  0  0  0  0  0
   56.1111   31.0522   52.2485 H   0  0  0  0  0  0  0  0  0  0  0  0
   59.7944   27.1945   48.5976 H   0  0  0  0  0  0  0  0  0  0  0  0
   58.5466   28.4854   48.4340 H   0  0  0  0  0  0  0  0  0  0  0  0
   58.9751   31.4098   44.7432 H   0  0  0  0  0  0  0  0  0  0  0  0
   57.0414   30.8508   43.2830 H   0  0  0  0  0  0  0  0  0  0  0  0
   55.7304   28.7653   43.6662 H   0  0  0  0  0  0  0  0  0  0  0  0
   58.6843   23.3891   45.8642 H   0  0  0  0  0  0  0  0  0  0  0  0
   58.7820   21.6285   44.1047 H   0  0  0  0  0  0  0  0  0  0  0  0
   56.9914   21.4917   42.3699 H   0  0  0  0  0  0  0  0  0  0  0  0
   55.1045   23.1259   42.3893 H   0  0  0  0  0  0  0  0  0  0  0  0
   55.0032   24.8955   44.1468 H   0  0  0  0  0  0  0  0  0  0  0  0
   58.2506   27.8119   47.0422 H   0  0  0  0  0  0  0  0  0  0  0  0
   62.3830   31.5610   49.4580 H   0  0  0  0  0  0  0  0  0  0  0  0
   61.5230   30.3680   48.5110 H   0  0  0  0  0  0  0  0  0  0  0  0
   60.4145   34.5539   50.6842 H   0  0  0  0  0  0  0  0  0  0  0  0
   61.8064   33.4625   50.3101 H   0  0  0  0  0  0  0  0  0  0  0  0
   62.6255   33.3591   48.1450 H   0  0  0  0  0  0  0  0  0  0  0  0
   62.3969   33.8630   45.7111 H   0  0  0  0  0  0  0  0  0  0  0  0
   60.2481   34.7648   44.8187 H   0  0  0  0  0  0  0  0  0  0  0  0
   58.3528   35.2534   46.3777 H   0  0  0  0  0  0  0  0  0  0  0  0
   58.5862   34.7802   48.8175 H   0  0  0  0  0  0  0  0  0  0  0  0
  1  2  1  0
  2  3  1  0
  3  4  2  0
  3  5  1  0
  5  6  1  0
  6  7  2  0
  6  8  1  0
  8  9  1  0
  9 10  1  0
 10 11  2  0
 10 12  1  0
 12 13  2  0
 13 14  1  0
 14 15  2  0
 15 16  1  0
 16 17  1  0
 17 18  1  0
 18 19  2  0
 18 20  2  0
 18 21  1  0
 21 22  2  0
 22 23  1  0
 23 24  2  0
 24 25  1  0
 25 26  2  0
 16 27  2  0
  5 28  2  0
 28 29  1  0
 28 30  1  0
 30 31  1  0
 31 32  1  0
 32 33  2  0
 33 34  1  0
 34 35  2  0
 35 36  1  0
 36 37  2  0
 30 38  1  0
 38 39  2  0
 38  2  1  0
 27 12  1  0
 37 32  1  0
 26 21  1  0
  1 40  1  0
  1 41  1  0
  1 42  1  0
  8 43  1  0
  8 44  1  0
 13 45  1  0
 14 46  1  0
 15 47  1  0
 22 48  1  0
 23 49  1  0
 24 50  1  0
 25 51  1  0
 26 52  1  0
 27 53  1  0
 29 54  1  0
 29 55  1  0
 31 56  1  0
 31 57  1  0
 33 58  1  0
 34 59  1  0
 35 60  1  0
 36 61  1  0
 37 62  1  0
M  CHG  1  17  -1
M  END
>  <UniqueID>  (69) 
64

>  <SMILES>  (69) 
Cn1c(=O)c(C(=O)COC(=O)c2cccc([N-]S(=O)(=O)c3ccccc3)c2)c(N)n(Cc2ccccc2)c1=O

>  <Energy>  (69) 
86.94427347877338

>  <Genealogy>  (69) 
Cn1c(=O)c(C(=O)COC(=O)c2cccc([N-]S(=O)(=O)c3ccccc3)c2)c(N)n(Cc2ccccc2)c1=O (protonated)
Cn1c(=O)c(C(=O)COC(=O)c2cccc([N-]S(=O)(=O)c3ccccc3)c2)c(N)n(Cc2ccccc2)c1=O (3D coordinates assigned)
Cn1c(=O)c(C(=O)COC(=O)c2cccc([N-]S(=O)(=O)c3ccccc3)c2)c(N)n(Cc2ccccc2)c1=O (optimized conformer: 86.94427347877338 kcal/mol)

>  <smiles>  (69) 
Cn1c(=O)c(C(=O)COC(=O)c2cccc(NS(=O)(=O)c3ccccc3)c2)c(N)n(Cc2ccccc2)c1=O

>  <score_type>  (69) 
oracle

>  <origin>  (69) 
adg

>  <m_score__min__energy>  (69) 
-11.529999999999999

>  <m_primary>  (69) 
energy

$$$$
69:0
     RDKit          3D

 57 60  0  0  0  0  0  0  0  0999 V2000
   57.3920   28.3440   44.1780 C   0  0  0  0  0  0  0  0  0  0  0  0
   56.3310   29.3460   43.7360 C   0  0  0  0  0  0  0  0  0  0  0  0
   56.9450   30.6440   43.4620 N   0  0  0  0  0  0  0  0  0  0  0  0
   57.0650   31.2220   42.2410 C   0  0  0  0  0  0  0  0  0  0  0  0
   57.7680   32.4200   42.3340 C   0  0  0  0  0  0  0  0  0  0  0  0
   58.0870   32.5510   43.6700 C   0  0  0  0  0  0  0  0  0  0  0  0
   58.8060   33.5430   44.3280 C   0  0  0  0  0  0  0  0  0  0  0  0
   58.9940   33.4140   45.7190 C   0  0  0  0  0  0  0  0  0  0  0  0
   59.8940   34.6480   46.5940 S   0  0  0  0  0  0  0  0  0  0  0  0
   59.7850   35.9760   45.8960 O   0  0  0  0  0  0  0  0  0  0  0  0
   61.3470   34.2580   46.6290 O   0  0  0  0  0  0  0  0  0  0  0  0
   59.2920   34.7410   48.2160 N   0  0  0  0  0  0  0  0  0  0  0  0
   59.4730   33.7210   49.2010 C   0  0  0  0  0  0  0  0  0  0  0  0
   60.4410   33.8130   50.0040 O   0  0  0  0  0  0  0  0  0  0  0  0
   58.5430   32.6370   49.3260 N   0  0  0  0  0  0  0  0  0  0  0  0
   58.8810   31.4460   50.0470 C   0  0  0  0  0  0  0  0  0  0  0  0
   58.1640   31.1560   51.2200 C   0  0  0  0  0  0  0  0  0  0  0  0
   58.4630   30.0250   51.9780 C   0  0  0  0  0  0  0  0  0  0  0  0
   59.4580   29.1490   51.5520 C   0  0  0  0  0  0  0  0  0  0  0  0
   60.1680   29.4090   50.3720 C   0  0  0  0  0  0  0  0  0  0  0  0
   59.9250   30.5810   49.6110 C   0  0  0  0  0  0  0  0  0  0  0  0
   60.7320   30.8820   48.3770 C   0  0  0  0  0  0  0  0  0  0  0  0
   60.4700   30.2650   47.3100 O   0  0  0  0  0  0  0  0  0  0  0  0
   61.7670   31.9020   48.3430 N   0  0  0  0  0  0  0  0  0  0  0  0
   62.5950   31.7250   47.1290 C   0  0  0  0  0  0  0  0  0  0  0  0
   63.7680   32.7430   47.0770 C   0  0  0  0  0  0  0  0  0  0  0  0
   63.8430   33.5470   48.3100 N   0  0  0  0  0  0  0  0  0  0  0  0
   63.8760   32.6630   49.4850 C   0  0  0  0  0  0  0  0  0  0  0  0
   62.5780   31.8340   49.5840 C   0  0  0  0  0  0  0  0  0  0  0  0
   58.4820   32.2830   46.4020 C   0  0  0  0  0  0  0  0  0  0  0  0
   57.7670   31.2900   45.7050 C   0  0  0  0  0  0  0  0  0  0  0  0
   57.5780   31.4620   44.3310 C   0  0  0  0  0  0  0  0  0  0  0  0
   57.4286   28.3095   45.2769 H   0  0  0  0  0  0  0  0  0  0  0  0
   57.1397   27.3469   43.7880 H   0  0  0  0  0  0  0  0  0  0  0  0
   58.3731   28.6528   43.7880 H   0  0  0  0  0  0  0  0  0  0  0  0
   55.8400   28.9765   42.8236 H   0  0  0  0  0  0  0  0  0  0  0  0
   55.5900   29.4623   44.5406 H   0  0  0  0  0  0  0  0  0  0  0  0
   56.6628   30.8025   41.3071 H   0  0  0  0  0  0  0  0  0  0  0  0
   58.0161   33.1137   41.5172 H   0  0  0  0  0  0  0  0  0  0  0  0
   59.2161   34.4034   43.7789 H   0  0  0  0  0  0  0  0  0  0  0  0
   57.5590   32.7500   48.9900 H   0  0  0  0  0  0  0  0  0  0  0  0
   57.3570   31.8296   51.5441 H   0  0  0  0  0  0  0  0  0  0  0  0
   57.9144   29.8251   52.9102 H   0  0  0  0  0  0  0  0  0  0  0  0
   59.6874   28.2503   52.1434 H   0  0  0  0  0  0  0  0  0  0  0  0
   60.9277   28.6909   50.0297 H   0  0  0  0  0  0  0  0  0  0  0  0
   61.3510   32.8570   48.2760 H   0  0  0  0  0  0  0  0  0  0  0  0
   63.0079   30.7055   47.1252 H   0  0  0  0  0  0  0  0  0  0  0  0
   61.9550   31.8956   46.2508 H   0  0  0  0  0  0  0  0  0  0  0  0
   64.7125   32.1934   46.9511 H   0  0  0  0  0  0  0  0  0  0  0  0
   63.5949   33.4249   46.2314 H   0  0  0  0  0  0  0  0  0  0  0  0
   64.7240   34.1050   48.2780 H   0  0  0  0  0  0  0  0  0  0  0  0
   64.7342   31.9803   49.3986 H   0  0  0  0  0  0  0  0  0  0  0  0
   63.9687   33.2822   50.3895 H   0  0  0  0  0  0  0  0  0  0  0  0
   62.8434   30.7838   49.7754 H   0  0  0  0  0  0  0  0  0  0  0  0
   61.9742   32.2529   50.4025 H   0  0  0  0  0  0  0  0  0  0  0  0
   58.6443   32.1799   47.4851 H   0  0  0  0  0  0  0  0  0  0  0  0
   57.3696   30.4064   46.2258 H   0  0  0  0  0  0  0  0  0  0  0  0
  1  2  1  0
  2  3  1  0
  3  4  1  0
  4  5  2  0
  5  6  1  0
  6  7  2  0
  7  8  1  0
  8  9  1  0
  9 10  2  0
  9 11  2  0
  9 12  1  0
 12 13  1  0
 13 14  2  0
 13 15  1  0
 15 16  1  0
 16 17  2  0
 17 18  1  0
 18 19  2  0
 19 20  1  0
 20 21  2  0
 21 22  1  0
 22 23  2  0
 22 24  1  0
 24 25  1  0
 25 26  1  0
 26 27  1  0
 27 28  1  0
 28 29  1  0
  8 30  2  0
 30 31  1  0
 31 32  2  0
 32  3  1  0
 32  6  1  0
 21 16  1  0
 29 24  1  0
  1 33  1  0
  1 34  1  0
  1 35  1  0
  2 36  1  0
  2 37  1  0
  4 38  1  0
  5 39  1  0
  7 40  1  0
 15 41  1  0
 17 42  1  0
 18 43  1  0
 19 44  1  0
 20 45  1  0
 24 46  1  0
 25 47  1  0
 25 48  1  0
 26 49  1  0
 26 50  1  0
 27 51  1  0
 28 52  1  0
 28 53  1  0
 29 54  1  0
 29 55  1  0
 30 56  1  0
 31 57  1  0
M  CHG  2  12  -1  24   1
M  END
>  <UniqueID>  (70) 
65

>  <SMILES>  (70) 
CCn1ccc2cc(S(=O)(=O)[N-]C(=O)Nc3ccccc3C(=O)[NH+]3CCNCC3)ccc21

>  <Energy>  (70) 
117.22065572470393

>  <Genealogy>  (70) 
CCn1ccc2cc(S(=O)(=O)[N-]C(=O)Nc3ccccc3C(=O)[NH+]3CCNCC3)ccc21 (protonated)
CCn1ccc2cc(S(=O)(=O)[N-]C(=O)Nc3ccccc3C(=O)[NH+]3CCNCC3)ccc21 (3D coordinates assigned)
CCn1ccc2cc(S(=O)(=O)[N-]C(=O)Nc3ccccc3C(=O)[NH+]3CCNCC3)ccc21 (nonaromatic ring conformer: 117.22065572470393 kcal/mol)

>  <smiles>  (70) 
CCn1ccc2cc(S(=O)(=O)NC(=O)Nc3ccccc3C(=O)N3CCNCC3)ccc21

>  <score_type>  (70) 
oracle

>  <origin>  (70) 
adg

>  <m_score__min__energy>  (70) 
-9.6699999999999999

>  <m_primary>  (70) 
energy

$$$$
70:0
     RDKit          3D

 46 48  0  0  0  0  0  0  0  0999 V2000
   58.0670   32.8150   47.8450 C   0  0  0  0  0  0  0  0  0  0  0  0
   58.8400   33.7340   46.9470 C   0  0  0  0  0  0  0  0  0  0  0  0
   60.1740   34.0910   47.0600 C   0  0  0  0  0  0  0  0  0  0  0  0
   61.3100   33.6270   48.3270 S   0  0  0  0  0  0  0  0  0  0  0  0
   62.6670   34.2100   48.0470 O   0  0  0  0  0  0  0  0  0  0  0  0
   60.8220   34.1880   49.6340 O   0  0  0  0  0  0  0  0  0  0  0  0
   61.4460   31.8880   48.4500 N   0  0  0  0  0  0  0  0  0  0  0  0
   61.6320   31.2590   47.1220 C   0  0  0  0  0  0  0  0  0  0  0  0
   60.3390   30.6700   46.5370 C   0  0  0  0  0  0  0  0  0  0  0  0
   59.6960   29.7600   47.4960 N   0  0  0  0  0  0  0  0  0  0  0  0
   58.7850   28.7320   47.0540 C   0  0  0  0  0  0  0  0  0  0  0  0
   57.8860   28.9570   45.9960 C   0  0  0  0  0  0  0  0  0  0  0  0
   57.0170   27.9380   45.6010 C   0  0  0  0  0  0  0  0  0  0  0  0
   57.0430   26.7020   46.2550 C   0  0  0  0  0  0  0  0  0  0  0  0
   55.9390   25.4160   45.7830 S   0  0  0  0  0  0  0  0  0  0  0  0
   56.4380   24.7580   44.2640 N   0  0  0  0  0  0  0  0  0  0  0  0
   54.5430   25.9630   45.6630 O   0  0  0  0  0  0  0  0  0  0  0  0
   55.9440   24.3330   46.8250 O   0  0  0  0  0  0  0  0  0  0  0  0
   57.9400   26.5160   47.3110 C   0  0  0  0  0  0  0  0  0  0  0  0
   58.7780   27.5210   47.6800 N   0  0  0  0  0  0  0  0  0  0  0  0
   60.0400   29.8730   48.9190 C   0  0  0  0  0  0  0  0  0  0  0  0
   60.3360   31.3360   49.2590 C   0  0  0  0  0  0  0  0  0  0  0  0
   60.5200   34.8820   46.0240 N   0  0  0  0  0  0  0  0  0  0  0  0
   59.3910   34.9930   45.2940 C   0  0  0  0  0  0  0  0  0  0  0  0
   58.3620   34.3030   45.8220 N   0  0  0  0  0  0  0  0  0  0  0  0
   57.0120   34.2080   45.2730 C   0  0  0  0  0  0  0  0  0  0  0  0
   58.2778   33.0656   48.8951 H   0  0  0  0  0  0  0  0  0  0  0  0
   56.9908   32.9308   47.6493 H   0  0  0  0  0  0  0  0  0  0  0  0
   58.3654   31.7745   47.6493 H   0  0  0  0  0  0  0  0  0  0  0  0
   62.0137   32.0207   46.4262 H   0  0  0  0  0  0  0  0  0  0  0  0
   62.3368   30.4249   47.2546 H   0  0  0  0  0  0  0  0  0  0  0  0
   59.6457   31.4899   46.2981 H   0  0  0  0  0  0  0  0  0  0  0  0
   60.5908   30.1027   45.6288 H   0  0  0  0  0  0  0  0  0  0  0  0
   57.8676   29.9298   45.4829 H   0  0  0  0  0  0  0  0  0  0  0  0
   56.3112   28.1075   44.7745 H   0  0  0  0  0  0  0  0  0  0  0  0
   56.6400   25.5670   43.6340 H   0  0  0  0  0  0  0  0  0  0  0  0
   55.6140   24.2600   43.8600 H   0  0  0  0  0  0  0  0  0  0  0  0
   57.9679   25.5544   47.8445 H   0  0  0  0  0  0  0  0  0  0  0  0
   59.1963   29.5184   49.5293 H   0  0  0  0  0  0  0  0  0  0  0  0
   60.9291   29.2608   49.1305 H   0  0  0  0  0  0  0  0  0  0  0  0
   59.4311   31.9327   49.0716 H   0  0  0  0  0  0  0  0  0  0  0  0
   60.6357   31.3814   50.3164 H   0  0  0  0  0  0  0  0  0  0  0  0
   59.3187   35.5828   44.3683 H   0  0  0  0  0  0  0  0  0  0  0  0
   56.2842   34.1568   46.0962 H   0  0  0  0  0  0  0  0  0  0  0  0
   56.8045   35.0938   44.6547 H   0  0  0  0  0  0  0  0  0  0  0  0
   56.9306   33.3019   44.6547 H   0  0  0  0  0  0  0  0  0  0  0  0
  1  2  1  0
  2  3  2  0
  3  4  1  0
  4  5  2  0
  4  6  2  0
  4  7  1  0
  7  8  1  0
  8  9  1  0
  9 10  1  0
 10 11  1  0
 11 12  2  0
 12 13  1  0
 13 14  2  0
 14 15  1  0
 15 16  1  0
 15 17  2  0
 15 18  2  0
 14 19  1  0
 19 20  2  0
 10 21  1  0
 21 22  1  0
  3 23  1  0
 23 24  2  0
 24 25  1  0
 25 26  1  0
 25  2  1  0
 22  7  1  0
 20 11  1  0
  1 27  1  0
  1 28  1  0
  1 29  1  0
  8 30  1  0
  8 31  1  0
  9 32  1  0
  9 33  1  0
 12 34  1  0
 13 35  1  0
 16 36  1  0
 16 37  1  0
 19 38  1  0
 21 39  1  0
 21 40  1  0
 22 41  1  0
 22 42  1  0
 24 43  1  0
 26 44  1  0
 26 45  1  0
 26 46  1  0
M  END
>  <UniqueID>  (71) 
66

>  <SMILES>  (71) 
Cc1c(S(=O)(=O)N2CCN(c3ccc(S(N)(=O)=O)cn3)CC2)ncn1C

>  <Energy>  (71) 
82.07068959141743

>  <Genealogy>  (71) 
Cc1c(S(=O)(=O)N2CCN(c3ccc(S(N)(=O)=O)cn3)CC2)ncn1C (3D coordinates assigned)
Cc1c(S(=O)(=O)N2CCN(c3ccc(S(N)(=O)=O)cn3)CC2)ncn1C (nonaromatic ring conformer: 82.07068959141743 kcal/mol)

>  <smiles>  (71) 
Cc1c(S(=O)(=O)N2CCN(c3ccc(S(N)(=O)=O)cn3)CC2)ncn1C

>  <score_type>  (71) 
oracle

>  <origin>  (71) 
adg

>  <m_score__min__energy>  (71) 
-7.9500000000000002

>  <m_primary>  (71) 
energy

$$$$
71:0
     RDKit          3D

 61 65  0  0  0  0  0  0  0  0999 V2000
   56.2730   29.3500   42.8830 O   0  0  0  0  0  0  0  0  0  0  0  0
   56.1750   29.7870   44.0600 C   0  0  0  0  0  0  0  0  0  0  0  0
   55.1500   29.3110   44.8720 O   0  0  0  0  0  0  0  0  0  0  0  0
   57.1330   30.7900   44.5730 C   0  0  0  0  0  0  0  0  0  0  0  0
   56.8460   32.1640   44.4910 C   0  0  0  0  0  0  0  0  0  0  0  0
   57.7530   33.1090   44.9780 C   0  0  0  0  0  0  0  0  0  0  0  0
   58.9620   32.6990   45.5580 C   0  0  0  0  0  0  0  0  0  0  0  0
   59.9150   33.7190   46.1260 C   0  0  0  0  0  0  0  0  0  0  0  0
   60.1170   33.4820   47.5570 N   0  0  0  0  0  0  0  0  0  0  0  0
   59.1290   32.9980   48.4650 C   0  0  0  0  0  0  0  0  0  0  0  0
   57.9000   32.9670   48.1860 O   0  0  0  0  0  0  0  0  0  0  0  0
   59.7460   32.4710   49.7000 C   0  0  0  0  0  0  0  0  0  0  0  0
   59.1150   31.8320   50.7160 C   0  0  0  0  0  0  0  0  0  0  0  0
   59.7990   30.7260   51.4860 C   0  0  0  0  0  0  0  0  0  0  0  0
   58.7510   29.7900   52.0990 C   0  0  0  0  0  0  0  0  0  0  0  0
   57.8360   30.4970   53.0300 N   0  0  0  0  0  0  0  0  0  0  0  0
   56.6100   29.7330   53.1840 C   0  0  0  0  0  0  0  0  0  0  0  0
   56.4920   28.6430   52.6350 O   0  0  0  0  0  0  0  0  0  0  0  0
   55.4600   30.2650   53.9990 C   0  0  0  0  0  0  0  0  0  0  0  0
   54.2520   30.4540   53.1230 C   0  0  0  0  0  0  0  0  0  0  0  0
   52.9600   30.4180   53.6780 C   0  0  0  0  0  0  0  0  0  0  0  0
   51.8370   30.5620   52.8580 C   0  0  0  0  0  0  0  0  0  0  0  0
   51.9940   30.7330   51.4790 C   0  0  0  0  0  0  0  0  0  0  0  0
   53.2750   30.7560   50.9180 C   0  0  0  0  0  0  0  0  0  0  0  0
   54.4020   30.6130   51.7360 C   0  0  0  0  0  0  0  0  0  0  0  0
   57.5340   31.9060   52.6580 C   0  0  0  0  0  0  0  0  0  0  0  0
   57.7220   32.2080   51.1620 C   0  0  0  0  0  0  0  0  0  0  0  0
   61.1930   32.7030   49.4800 C   0  0  0  0  0  0  0  0  0  0  0  0
   62.2890   32.5710   50.3460 C   0  0  0  0  0  0  0  0  0  0  0  0
   63.5650   32.9330   49.8850 C   0  0  0  0  0  0  0  0  0  0  0  0
   63.7330   33.4560   48.5920 C   0  0  0  0  0  0  0  0  0  0  0  0
   62.6250   33.6430   47.7540 C   0  0  0  0  0  0  0  0  0  0  0  0
   61.3620   33.2660   48.2210 C   0  0  0  0  0  0  0  0  0  0  0  0
   59.2480   31.3290   45.6490 C   0  0  0  0  0  0  0  0  0  0  0  0
   58.3450   30.3840   45.1550 C   0  0  0  0  0  0  0  0  0  0  0  0
   55.8999   32.4978   44.0399 H   0  0  0  0  0  0  0  0  0  0  0  0
   57.5171   34.1810   44.9059 H   0  0  0  0  0  0  0  0  0  0  0  0
   60.8810   33.6430   45.6054 H   0  0  0  0  0  0  0  0  0  0  0  0
   59.4902   34.7239   45.9855 H   0  0  0  0  0  0  0  0  0  0  0  0
   60.4452   30.1532   50.8046 H   0  0  0  0  0  0  0  0  0  0  0  0
   60.4050   31.1671   52.2911 H   0  0  0  0  0  0  0  0  0  0  0  0
   58.1556   29.3466   51.2873 H   0  0  0  0  0  0  0  0  0  0  0  0
   59.2852   29.0196   52.6744 H   0  0  0  0  0  0  0  0  0  0  0  0
   58.3190   30.5310   53.9600 H   0  0  0  0  0  0  0  0  0  0  0  0
   55.2205   29.5507   54.8005 H   0  0  0  0  0  0  0  0  0  0  0  0
   55.7446   31.2339   54.4352 H   0  0  0  0  0  0  0  0  0  0  0  0
   52.8328   30.2760   54.7614 H   0  0  0  0  0  0  0  0  0  0  0  0
   50.8290   30.5408   53.2979 H   0  0  0  0  0  0  0  0  0  0  0  0
   51.1097   30.8495   50.8352 H   0  0  0  0  0  0  0  0  0  0  0  0
   53.3971   30.8866   49.8326 H   0  0  0  0  0  0  0  0  0  0  0  0
   55.4079   30.6252   51.2909 H   0  0  0  0  0  0  0  0  0  0  0  0
   56.4885   32.1187   52.9258 H   0  0  0  0  0  0  0  0  0  0  0  0
   58.2468   32.5410   53.2046 H   0  0  0  0  0  0  0  0  0  0  0  0
   56.9879   31.6301   50.5813 H   0  0  0  0  0  0  0  0  0  0  0  0
   57.5746   33.2854   50.9959 H   0  0  0  0  0  0  0  0  0  0  0  0
   62.1510   32.1904   51.3688 H   0  0  0  0  0  0  0  0  0  0  0  0
   64.4390   32.8062   50.5408 H   0  0  0  0  0  0  0  0  0  0  0  0
   64.7395   33.7202   48.2353 H   0  0  0  0  0  0  0  0  0  0  0  0
   62.7464   34.0770   46.7506 H   0  0  0  0  0  0  0  0  0  0  0  0
   60.1888   30.9964   46.1120 H   0  0  0  0  0  0  0  0  0  0  0  0
   58.5855   29.3127   45.2225 H   0  0  0  0  0  0  0  0  0  0  0  0
  1  2  2  0
  2  3  1  0
  2  4  1  0
  4  5  2  0
  5  6  1  0
  6  7  2  0
  7  8  1  0
  8  9  1  0
  9 10  1  0
 10 11  2  0
 10 12  1  0
 12 13  2  3
 13 14  1  0
 14 15  1  0
 15 16  1  0
 16 17  1  0
 17 18  2  0
 17 19  1  0
 19 20  1  0
 20 21  2  0
 21 22  1  0
 22 23  2  0
 23 24  1  0
 24 25  2  0
 16 26  1  0
 26 27  1  0
 12 28  1  0
 28 29  2  0
 29 30  1  0
 30 31  2  0
 31 32  1  0
 32 33  2  0
  7 34  1  0
 34 35  2  0
 35  4  1  0
 33  9  1  0
 27 13  1  0
 33 28  1  0
 25 20  1  0
  5 36  1  0
  6 37  1  0
  8 38  1  0
  8 39  1  0
 14 40  1  0
 14 41  1  0
 15 42  1  0
 15 43  1  0
 16 44  1  0
 19 45  1  0
 19 46  1  0
 21 47  1  0
 22 48  1  0
 23 49  1  0
 24 50  1  0
 25 51  1  0
 26 52  1  0
 26 53  1  0
 27 54  1  0
 27 55  1  0
 29 56  1  0
 30 57  1  0
 31 58  1  0
 32 59  1  0
 34 60  1  0
 35 61  1  0
M  CHG  2   3  -1  16   1
M  END
>  <UniqueID>  (72) 
67

>  <SMILES>  (72) 
O=C([O-])c1ccc(CN2C(=O)C(=C3CC[NH+](C(=O)Cc4ccccc4)CC3)c3ccccc32)cc1

>  <Energy>  (72) 
107.65144314931658

>  <Genealogy>  (72) 
O=C([O-])c1ccc(CN2C(=O)C(=C3CC[NH+](C(=O)Cc4ccccc4)CC3)c3ccccc32)cc1 (protonated)
O=C([O-])c1ccc(CN2C(=O)C(=C3CC[NH+](C(=O)Cc4ccccc4)CC3)c3ccccc32)cc1 (3D coordinates assigned)
O=C([O-])c1ccc(CN2C(=O)C(=C3CC[NH+](C(=O)Cc4ccccc4)CC3)c3ccccc32)cc1 (nonaromatic ring conformer: 107.65144314931658 kcal/mol)

>  <smiles>  (72) 
O=C(O)c1ccc(CN2C(=O)C(=C3CCN(C(=O)Cc4ccccc4)CC3)c3ccccc32)cc1

>  <score_type>  (72) 
oracle

>  <origin>  (72) 
adg

>  <m_score__min__energy>  (72) 
-12.210000000000001

>  <m_primary>  (72) 
energy

$$$$
72:0
     RDKit          3D

 54 57  0  0  0  0  0  0  0  0999 V2000
   63.7600   34.1970   47.9210 C   0  0  0  0  0  0  0  0  0  0  0  0
   63.1950   33.1430   48.8290 C   0  0  0  0  0  0  0  0  0  0  0  0
   61.8260   32.9070   48.9990 C   0  0  0  0  0  0  0  0  0  0  0  0
   60.7660   33.6970   48.4440 N   0  0  0  0  0  0  0  0  0  0  0  0
   59.8350   34.4150   49.3210 C   0  0  0  0  0  0  0  0  0  0  0  0
   59.0970   33.4480   50.2100 C   0  0  0  0  0  0  0  0  0  0  0  0
   58.9100   33.7360   51.5720 C   0  0  0  0  0  0  0  0  0  0  0  0
   58.1560   32.8790   52.3780 C   0  0  0  0  0  0  0  0  0  0  0  0
   57.5820   31.7220   51.8320 C   0  0  0  0  0  0  0  0  0  0  0  0
   56.6140   30.6460   52.8340 S   0  0  0  0  0  0  0  0  0  0  0  0
   57.2340   30.6790   54.5020 C   0  0  0  0  0  0  0  0  0  0  0  0
   56.6870   29.2410   52.3030 O   0  0  0  0  0  0  0  0  0  0  0  0
   55.1800   31.0960   52.8150 O   0  0  0  0  0  0  0  0  0  0  0  0
   57.7620   31.4330   50.4720 C   0  0  0  0  0  0  0  0  0  0  0  0
   58.5120   32.2930   49.6650 C   0  0  0  0  0  0  0  0  0  0  0  0
   60.4840   33.6590   46.7320 S   0  0  0  0  0  0  0  0  0  0  0  0
   61.7880   33.5260   45.9960 O   0  0  0  0  0  0  0  0  0  0  0  0
   59.8290   34.9440   46.3080 O   0  0  0  0  0  0  0  0  0  0  0  0
   59.4560   32.2860   46.3400 C   0  0  0  0  0  0  0  0  0  0  0  0
   59.6530   31.0600   46.9840 C   0  0  0  0  0  0  0  0  0  0  0  0
   58.8080   29.9780   46.7150 C   0  0  0  0  0  0  0  0  0  0  0  0
   57.7500   30.1120   45.7970 C   0  0  0  0  0  0  0  0  0  0  0  0
   56.8480   28.9750   45.5120 C   0  0  0  0  0  0  0  0  0  0  0  0
   57.2760   27.7910   45.5660 O   0  0  0  0  0  0  0  0  0  0  0  0
   55.5150   29.1970   45.1810 O   0  0  0  0  0  0  0  0  0  0  0  0
   57.5570   31.3470   45.1530 C   0  0  0  0  0  0  0  0  0  0  0  0
   58.4040   32.4260   45.4240 C   0  0  0  0  0  0  0  0  0  0  0  0
   61.5810   31.6590   50.1110 S   0  0  0  0  0  0  0  0  0  0  0  0
   63.2160   31.4060   50.3940 C   0  0  0  0  0  0  0  0  0  0  0  0
   63.7970   30.4880   51.2650 C   0  0  0  0  0  0  0  0  0  0  0  0
   65.1960   30.4660   51.3710 C   0  0  0  0  0  0  0  0  0  0  0  0
   65.9790   31.3600   50.6160 C   0  0  0  0  0  0  0  0  0  0  0  0
   65.3720   32.2800   49.7450 C   0  0  0  0  0  0  0  0  0  0  0  0
   63.9750   32.2920   49.6370 C   0  0  0  0  0  0  0  0  0  0  0  0
   64.1943   35.0071   48.5253 H   0  0  0  0  0  0  0  0  0  0  0  0
   64.5414   33.7537   47.2863 H   0  0  0  0  0  0  0  0  0  0  0  0
   62.9582   34.6023   47.2863 H   0  0  0  0  0  0  0  0  0  0  0  0
   60.3991   35.1232   49.9457 H   0  0  0  0  0  0  0  0  0  0  0  0
   59.1057   34.9556   48.6999 H   0  0  0  0  0  0  0  0  0  0  0  0
   59.3595   34.6411   52.0065 H   0  0  0  0  0  0  0  0  0  0  0  0
   58.0124   33.1125   53.4433 H   0  0  0  0  0  0  0  0  0  0  0  0
   56.3912   30.6341   55.2074 H   0  0  0  0  0  0  0  0  0  0  0  0
   57.8948   29.8148   54.6647 H   0  0  0  0  0  0  0  0  0  0  0  0
   57.7993   31.6085   54.6647 H   0  0  0  0  0  0  0  0  0  0  0  0
   57.3120   30.5274   50.0391 H   0  0  0  0  0  0  0  0  0  0  0  0
   58.6449   32.0642   48.5973 H   0  0  0  0  0  0  0  0  0  0  0  0
   60.4759   30.9462   47.7051 H   0  0  0  0  0  0  0  0  0  0  0  0
   58.9716   29.0168   47.2241 H   0  0  0  0  0  0  0  0  0  0  0  0
   56.7349   31.4650   44.4318 H   0  0  0  0  0  0  0  0  0  0  0  0
   58.2442   33.3887   44.9164 H   0  0  0  0  0  0  0  0  0  0  0  0
   63.1755   29.7980   51.8546 H   0  0  0  0  0  0  0  0  0  0  0  0
   65.6829   29.7474   52.0467 H   0  0  0  0  0  0  0  0  0  0  0  0
   67.0748   31.3379   50.7089 H   0  0  0  0  0  0  0  0  0  0  0  0
   65.9838   32.9800   49.1570 H   0  0  0  0  0  0  0  0  0  0  0  0
  1  2  1  0
  2  3  2  0
  3  4  1  0
  4  5  1  0
  5  6  1  0
  6  7  2  0
  7  8  1  0
  8  9  2  0
  9 10  1  0
 10 11  1  0
 10 12  2  0
 10 13  2  0
  9 14  1  0
 14 15  2  0
  4 16  1  0
 16 17  2  0
 16 18  2  0
 16 19  1  0
 19 20  2  0
 20 21  1  0
 21 22  2  0
 22 23  1  0
 23 24  2  0
 23 25  1  0
 22 26  1  0
 26 27  2  0
  3 28  1  0
 28 29  1  0
 29 30  2  0
 30 31  1  0
 31 32  2  0
 32 33  1  0
 33 34  2  0
 34  2  1  0
 15  6  1  0
 27 19  1  0
 34 29  1  0
  1 35  1  0
  1 36  1  0
  1 37  1  0
  5 38  1  0
  5 39  1  0
  7 40  1  0
  8 41  1  0
 11 42  1  0
 11 43  1  0
 11 44  1  0
 14 45  1  0
 15 46  1  0
 20 47  1  0
 21 48  1  0
 26 49  1  0
 27 50  1  0
 30 51  1  0
 31 52  1  0
 32 53  1  0
 33 54  1  0
M  CHG  1  25  -1
M  END
>  <UniqueID>  (73) 
68

>  <SMILES>  (73) 
Cc1c(N(Cc2ccc(S(C)(=O)=O)cc2)S(=O)(=O)c2ccc(C(=O)[O-])cc2)sc2ccccc12

>  <Energy>  (73) 
88.76664370505006

>  <Genealogy>  (73) 
Cc1c(N(Cc2ccc(S(C)(=O)=O)cc2)S(=O)(=O)c2ccc(C(=O)[O-])cc2)sc2ccccc12 (protonated)
Cc1c(N(Cc2ccc(S(C)(=O)=O)cc2)S(=O)(=O)c2ccc(C(=O)[O-])cc2)sc2ccccc12 (3D coordinates assigned)
Cc1c(N(Cc2ccc(S(C)(=O)=O)cc2)S(=O)(=O)c2ccc(C(=O)[O-])cc2)sc2ccccc12 (optimized conformer: 88.76664370505006 kcal/mol)

>  <smiles>  (73) 
Cc1c(N(Cc2ccc(S(C)(=O)=O)cc2)S(=O)(=O)c2ccc(C(=O)O)cc2)sc2ccccc12

>  <score_type>  (73) 
oracle

>  <origin>  (73) 
adg

>  <m_score__min__energy>  (73) 
-11.41

>  <m_primary>  (73) 
energy

$$$$
73:0
     RDKit          3D

 44 46  0  0  0  0  0  0  0  0999 V2000
   59.7771   28.4013   47.4121 H   0  0  0  0  0  0  0  0  0  0  0  0
   59.2410   27.7940   46.6680 C   0  0  0  0  0  0  0  0  0  0  0  0
   59.2343   26.6975   46.7548 H   0  0  0  0  0  0  0  0  0  0  0  0
   58.5950   28.3910   45.6540 C   0  0  0  0  0  0  0  0  0  0  0  0
   57.8750   27.7520   44.6390 C   0  0  0  0  0  0  0  0  0  0  0  0
   57.6240   26.4330   44.5220 C   0  0  0  0  0  0  0  0  0  0  0  0
   57.8447   25.9487   43.5593 H   0  0  0  0  0  0  0  0  0  0  0  0
   57.0720   25.6000   45.6050 C   0  0  0  0  0  0  0  0  0  0  0  0
   57.6690   24.4810   46.0530 N   0  0  0  0  0  0  0  0  0  0  0  0
   56.7950   24.0020   46.9640 C   0  0  0  0  0  0  0  0  0  0  0  0
   57.0110   22.9500   47.6220 O   0  0  0  0  0  0  0  0  0  0  0  0
   55.6680   24.7300   47.1060 N   0  0  0  0  0  0  0  0  0  0  0  0
   55.8510   25.7310   46.2310 C   0  0  0  0  0  0  0  0  0  0  0  0
   54.9010   26.7140   45.9790 O   0  0  0  0  0  0  0  0  0  0  0  0
   57.4190   28.7560   43.7940 C   0  0  0  0  0  0  0  0  0  0  0  0
   56.8142   28.6247   42.8846 H   0  0  0  0  0  0  0  0  0  0  0  0
   57.8720   29.9500   44.3170 C   0  0  0  0  0  0  0  0  0  0  0  0
   57.6020   31.2980   43.7190 C   0  0  0  0  0  0  0  0  0  0  0  0
   57.4547   32.0333   44.5238 H   0  0  0  0  0  0  0  0  0  0  0  0
   58.4572   31.6013   43.0972 H   0  0  0  0  0  0  0  0  0  0  0  0
   56.6959   31.2485   43.0972 H   0  0  0  0  0  0  0  0  0  0  0  0
   58.5920   29.7310   45.4400 N   0  0  0  0  0  0  0  0  0  0  0  0
   59.2030   30.7460   46.2560 C   0  0  0  0  0  0  0  0  0  0  0  0
   60.5800   30.7090   46.5170 C   0  0  0  0  0  0  0  0  0  0  0  0
   61.1937   29.8944   46.1049 H   0  0  0  0  0  0  0  0  0  0  0  0
   61.1760   31.7020   47.2980 C   0  0  0  0  0  0  0  0  0  0  0  0
   62.2587   31.6698   47.4894 H   0  0  0  0  0  0  0  0  0  0  0  0
   60.4050   32.7380   47.8390 C   0  0  0  0  0  0  0  0  0  0  0  0
   61.0500   33.7170   48.6100 O   0  0  0  0  0  0  0  0  0  0  0  0
   62.1630   33.4970   49.4360 C   0  0  0  0  0  0  0  0  0  0  0  0
   62.0090   33.2500   50.6630 O   0  0  0  0  0  0  0  0  0  0  0  0
   63.4830   33.4950   48.8640 N   0  0  0  0  0  0  0  0  0  0  0  0
   64.6470   33.2420   49.7170 C   0  0  0  0  0  0  0  0  0  0  0  0
   64.3483   33.3069   50.7737 H   0  0  0  0  0  0  0  0  0  0  0  0
   65.0426   32.2369   49.5089 H   0  0  0  0  0  0  0  0  0  0  0  0
   65.4241   33.9922   49.5089 H   0  0  0  0  0  0  0  0  0  0  0  0
   63.6440   33.7570   47.4320 C   0  0  0  0  0  0  0  0  0  0  0  0
   64.2152   34.6865   47.2913 H   0  0  0  0  0  0  0  0  0  0  0  0
   64.1841   32.9204   46.9646 H   0  0  0  0  0  0  0  0  0  0  0  0
   62.6537   33.8609   46.9646 H   0  0  0  0  0  0  0  0  0  0  0  0
   59.0270   32.7880   47.5590 C   0  0  0  0  0  0  0  0  0  0  0  0
   58.4162   33.6117   47.9571 H   0  0  0  0  0  0  0  0  0  0  0  0
   58.4320   31.7950   46.7770 C   0  0  0  0  0  0  0  0  0  0  0  0
   57.3527   31.8362   46.5688 H   0  0  0  0  0  0  0  0  0  0  0  0
  1  2  1  0
  2  3  1  0
  2  4  2  0
  4  5  1  0
  5  6  2  0
  6  7  1  0
  6  8  1  0
  8  9  1  0
  9 10  1  0
 10 11  2  0
 10 12  1  0
 12 13  1  0
 13 14  1  0
  5 15  1  0
 15 16  1  0
 15 17  2  0
 17 18  1  0
 18 19  1  0
 18 20  1  0
 18 21  1  0
 17 22  1  0
 22 23  1  0
 23 24  2  0
 24 25  1  0
 24 26  1  0
 26 27  1  0
 26 28  2  0
 28 29  1  0
 29 30  1  0
 30 31  2  0
 30 32  1  0
 32 33  1  0
 33 34  1  0
 33 35  1  0
 33 36  1  0
 32 37  1  0
 37 38  1  0
 37 39  1  0
 37 40  1  0
 28 41  1  0
 41 42  1  0
 41 43  2  0
 43 44  1  0
 22  4  1  0
 43 23  1  0
 13  8  2  0
M  CHG  3   9  -1  12  -1  14  -1
M  END
>  <UniqueID>  (74) 
69

>  <SMILES>  (74) 
C=c1/c(=C/c2[n-]c(=O)[n-]c2[O-])cc(C)n1-c1ccc(OC(=O)N(C)C)cc1

>  <Energy>  (74) 
117.82681585542517

>  <Genealogy>  (74) 
C=c1c(=Cc2[n-]c(=O)[n-]c2[O-])cc(C)n1-c1ccc(OC(=O)N(C)C)cc1 (protonated)
C=c1/c(=C/c2[n-]c(=O)[n-]c2[O-])cc(C)n1-c1ccc(OC(=O)N(C)C)cc1 (cis-trans isomerization)
C=c1/c(=C/c2[n-]c(=O)[n-]c2[O-])cc(C)n1-c1ccc(OC(=O)N(C)C)cc1 (3D coordinates assigned)
C=c1/c(=C/c2[n-]c(=O)[n-]c2[O-])cc(C)n1-c1ccc(OC(=O)N(C)C)cc1 (optimized conformer: 117.82681585542517 kcal/mol)

>  <smiles>  (74) 
C=c1c(=Cc2[nH]c(=O)[nH]c2O)cc(C)n1-c1ccc(OC(=O)N(C)C)cc1

>  <score_type>  (74) 
oracle

>  <origin>  (74) 
adg

>  <m_score__min__energy>  (74) 
-15.18

>  <m_primary>  (74) 
energy

$$$$
74:0
     RDKit          3D

 47 49  0  0  0  0  0  0  0  0999 V2000
   57.2435   21.6227   42.4602 H   0  0  0  0  0  0  0  0  0  0  0  0
   56.9460   22.2730   43.2960 C   0  0  0  0  0  0  0  0  0  0  0  0
   55.6300   22.5410   43.5140 N   0  0  0  0  0  0  0  0  0  0  0  0
   55.2090   23.3310   44.5410 C   0  0  0  0  0  0  0  0  0  0  0  0
   53.8330   23.5470   44.6840 O   0  0  0  0  0  0  0  0  0  0  0  0
   53.0980   23.2570   45.8760 C   0  0  0  0  0  0  0  0  0  0  0  0
   53.3591   23.9857   46.6575 H   0  0  0  0  0  0  0  0  0  0  0  0
   51.6040   23.3500   45.5620 C   0  0  0  0  0  0  0  0  0  0  0  0
   51.0333   23.3855   46.5017 H   0  0  0  0  0  0  0  0  0  0  0  0
   51.4079   24.2621   44.9792 H   0  0  0  0  0  0  0  0  0  0  0  0
   51.2963   22.4693   44.9792 H   0  0  0  0  0  0  0  0  0  0  0  0
   53.4540   21.8600   46.4090 C   0  0  0  0  0  0  0  0  0  0  0  0
   53.4501   21.8752   47.5089 H   0  0  0  0  0  0  0  0  0  0  0  0
   52.7130   21.1307   46.0498 H   0  0  0  0  0  0  0  0  0  0  0  0
   54.4537   21.5743   46.0498 H   0  0  0  0  0  0  0  0  0  0  0  0
   56.1650   23.9290   45.4020 C   0  0  0  0  0  0  0  0  0  0  0  0
   55.7800   24.8280   46.5560 C   0  0  0  0  0  0  0  0  0  0  0  0
   54.9280   24.3810   47.0893 H   0  0  0  0  0  0  0  0  0  0  0  0
   56.6491   24.9270   47.2230 H   0  0  0  0  0  0  0  0  0  0  0  0
   55.4040   26.1580   46.0910 N   0  0  0  0  0  0  0  0  0  0  0  0
   56.3440   27.1390   45.6390 C   0  0  0  0  0  0  0  0  0  0  0  0
   57.5700   26.8590   45.5760 O   0  0  0  0  0  0  0  0  0  0  0  0
   55.9020   28.4290   45.2100 N   0  0  0  0  0  0  0  0  0  0  0  0
   56.6720   29.6390   45.2470 C   0  0  0  0  0  0  0  0  0  0  0  0
   56.3700   30.7430   44.4310 C   0  0  0  0  0  0  0  0  0  0  0  0
   55.5118   30.6970   43.7444 H   0  0  0  0  0  0  0  0  0  0  0  0
   57.1540   31.8990   44.4870 C   0  0  0  0  0  0  0  0  0  0  0  0
   56.9177   32.7510   43.8326 H   0  0  0  0  0  0  0  0  0  0  0  0
   58.2430   31.9810   45.3740 C   0  0  0  0  0  0  0  0  0  0  0  0
   59.0850   33.2010   45.4290 C   0  0  0  0  0  0  0  0  0  0  0  0
   59.2190   33.9160   44.3950 O   0  0  0  0  0  0  0  0  0  0  0  0
   59.7450   33.5620   46.6560 N   0  0  0  0  0  0  0  0  0  0  0  0
   61.0010   33.3680   46.9380 C   0  0  0  0  0  0  0  0  0  0  0  0
   62.0300   33.9690   46.2970 N   0  0  0  0  0  0  0  0  0  0  0  0
   63.2290   33.5680   46.8000 C   0  0  0  0  0  0  0  0  0  0  0  0
   64.1870   33.9419   46.4095 H   0  0  0  0  0  0  0  0  0  0  0  0
   63.1560   32.6500   47.8450 C   0  0  0  0  0  0  0  0  0  0  0  0
   64.0113   32.2110   48.3795 H   0  0  0  0  0  0  0  0  0  0  0  0
   61.5310   32.3290   48.1480 S   0  0  0  0  0  0  0  0  0  0  0  0
   58.5200   30.8850   46.2110 C   0  0  0  0  0  0  0  0  0  0  0  0
   59.3623   30.9363   46.9166 H   0  0  0  0  0  0  0  0  0  0  0  0
   57.7330   29.7310   46.1530 C   0  0  0  0  0  0  0  0  0  0  0  0
   57.9503   28.8883   46.8258 H   0  0  0  0  0  0  0  0  0  0  0  0
   57.5250   23.6490   45.1850 C   0  0  0  0  0  0  0  0  0  0  0  0
   58.2854   24.0843   45.8500 H   0  0  0  0  0  0  0  0  0  0  0  0
   57.9170   22.8220   44.1310 C   0  0  0  0  0  0  0  0  0  0  0  0
   58.9821   22.6058   43.9613 H   0  0  0  0  0  0  0  0  0  0  0  0
  1  2  1  0
  2  3  2  0
  3  4  1  0
  4  5  1  0
  5  6  1  0
  6  7  1  0
  6  8  1  0
  8  9  1  0
  8 10  1  0
  8 11  1  0
  6 12  1  0
 12 13  1  0
 12 14  1  0
 12 15  1  0
  4 16  2  0
 16 17  1  0
 17 18  1  0
 17 19  1  0
 17 20  1  0
 20 21  1  0
 21 22  2  0
 21 23  1  0
 23 24  1  0
 24 25  2  0
 25 26  1  0
 25 27  1  0
 27 28  1  0
 27 29  2  0
 29 30  1  0
 30 31  2  0
 30 32  1  0
 32 33  2  0
 33 34  1  0
 34 35  1  0
 35 36  1  0
 35 37  2  0
 37 38  1  0
 37 39  1  0
 29 40  1  0
 40 41  1  0
 40 42  2  0
 42 43  1  0
 16 44  1  0
 44 45  1  0
 44 46  2  0
 46 47  1  0
 46  2  1  0
 42 24  1  0
 39 33  1  0
M  CHG  3  20  -1  23  -1  34  -1
M  END
>  <UniqueID>  (75) 
70

>  <SMILES>  (75) 
CC(C)Oc1ncccc1C[N-]C(=O)[N-]c1ccc(C(=O)/N=c2\[n-]ccs2)cc1

>  <Energy>  (75) 
85.82710677553018

>  <Genealogy>  (75) 
CC(C)Oc1ncccc1C[N-]C(=O)[N-]c1ccc(C(=O)N=c2[n-]ccs2)cc1 (protonated)
CC(C)Oc1ncccc1C[N-]C(=O)[N-]c1ccc(C(=O)/N=c2\[n-]ccs2)cc1 (cis-trans isomerization)
CC(C)Oc1ncccc1C[N-]C(=O)[N-]c1ccc(C(=O)/N=c2\[n-]ccs2)cc1 (3D coordinates assigned)
CC(C)Oc1ncccc1C[N-]C(=O)[N-]c1ccc(C(=O)/N=c2\[n-]ccs2)cc1 (optimized conformer: 85.82710677553018 kcal/mol)

>  <smiles>  (75) 
CC(C)Oc1ncccc1CNC(=O)Nc1ccc(C(=O)N=c2[nH]ccs2)cc1

>  <score_type>  (75) 
oracle

>  <origin>  (75) 
adg

>  <m_score__min__energy>  (75) 
-12.56

>  <m_primary>  (75) 
energy

$$$$
75:0
     RDKit          3D

 39 41  0  0  0  0  0  0  0  0999 V2000
   57.7702   31.7364   41.1536 H   0  0  0  0  0  0  0  0  0  0  0  0
   57.4220   31.7490   42.1970 C   0  0  0  0  0  0  0  0  0  0  0  0
   56.7305   30.9722   42.5555 H   0  0  0  0  0  0  0  0  0  0  0  0
   57.8390   32.7080   43.0290 C   0  0  0  0  0  0  0  0  0  0  0  0
   58.5304   33.4764   42.6529 H   0  0  0  0  0  0  0  0  0  0  0  0
   57.3920   32.7690   44.4640 C   0  0  0  0  0  0  0  0  0  0  0  0
   57.6031   33.7699   44.8686 H   0  0  0  0  0  0  0  0  0  0  0  0
   56.3122   32.5654   44.5138 H   0  0  0  0  0  0  0  0  0  0  0  0
   58.1130   31.7560   45.2640 N   0  0  0  0  0  0  0  0  0  0  0  0
   59.2110   32.1030   46.0220 C   0  0  0  0  0  0  0  0  0  0  0  0
   59.7430   33.4890   46.0270 C   0  0  0  0  0  0  0  0  0  0  0  0
   59.7194   34.0538   45.0834 H   0  0  0  0  0  0  0  0  0  0  0  0
   60.2510   34.0960   47.1110 C   0  0  0  0  0  0  0  0  0  0  0  0
   59.6510   34.8926   47.5752 H   0  0  0  0  0  0  0  0  0  0  0  0
   61.5580   33.7750   47.7300 C   0  0  0  0  0  0  0  0  0  0  0  0
   61.7800   33.9230   49.1120 C   0  0  0  0  0  0  0  0  0  0  0  0
   60.9659   34.2746   49.7629 H   0  0  0  0  0  0  0  0  0  0  0  0
   63.0310   33.6250   49.6610 C   0  0  0  0  0  0  0  0  0  0  0  0
   63.1942   33.7290   50.7438 H   0  0  0  0  0  0  0  0  0  0  0  0
   64.0750   33.1950   48.8360 C   0  0  0  0  0  0  0  0  0  0  0  0
   65.2870   32.9090   49.3690 F   0  0  0  0  0  0  0  0  0  0  0  0
   63.8700   33.0740   47.4580 C   0  0  0  0  0  0  0  0  0  0  0  0
   64.6931   32.7439   46.8072 H   0  0  0  0  0  0  0  0  0  0  0  0
   62.6200   33.3720   46.9060 C   0  0  0  0  0  0  0  0  0  0  0  0
   62.4684   33.2900   45.8196 H   0  0  0  0  0  0  0  0  0  0  0  0
   59.8390   31.1660   46.7890 N   0  0  0  0  0  0  0  0  0  0  0  0
   60.6910   31.4390   47.3330 H   0  0  0  0  0  0  0  0  0  0  0  0
   59.3890   29.8880   46.8620 C   0  0  0  0  0  0  0  0  0  0  0  0
   60.0450   28.9470   47.6710 C   0  0  0  0  0  0  0  0  0  0  0  0
   60.9345   29.2442   48.2459 H   0  0  0  0  0  0  0  0  0  0  0  0
   59.5730   27.6350   47.7490 C   0  0  0  0  0  0  0  0  0  0  0  0
   60.0918   26.9018   48.3840 H   0  0  0  0  0  0  0  0  0  0  0  0
   58.4430   27.2520   47.0220 C   0  0  0  0  0  0  0  0  0  0  0  0
   57.8010   25.4570   47.1340 Br  0  0  0  0  0  0  0  0  0  0  0  0
   57.7830   28.1820   46.2130 C   0  0  0  0  0  0  0  0  0  0  0  0
   56.8932   27.8777   45.6423 H   0  0  0  0  0  0  0  0  0  0  0  0
   58.2530   29.5070   46.1260 C   0  0  0  0  0  0  0  0  0  0  0  0
   57.6190   30.4730   45.3280 C   0  0  0  0  0  0  0  0  0  0  0  0
   56.5850   30.1570   44.6750 O   0  0  0  0  0  0  0  0  0  0  0  0
  1  2  1  0
  2  3  1  0
  2  4  2  0
  4  5  1  0
  4  6  1  0
  6  7  1  0
  6  8  1  0
  6  9  1  0
  9 10  1  0
 10 11  1  0
 11 12  1  0
 11 13  2  0
 13 14  1  0
 13 15  1  0
 15 16  2  0
 16 17  1  0
 16 18  1  0
 18 19  1  0
 18 20  2  0
 20 21  1  0
 20 22  1  0
 22 23  1  0
 22 24  2  0
 24 25  1  0
 10 26  2  0
 26 27  1  0
 26 28  1  0
 28 29  2  0
 29 30  1  0
 29 31  1  0
 31 32  1  0
 31 33  2  0
 33 34  1  0
 33 35  1  0
 35 36  1  0
 35 37  2  0
 37 38  1  0
 38 39  2  0
 38  9  1  0
 24 15  1  0
 37 28  1  0
M  CHG  1  26   1
M  END
>  <UniqueID>  (76) 
71

>  <SMILES>  (76) 
C=CCn1c(/C=C\c2ccc(F)cc2)[nH+]c2ccc(Br)cc2c1=O

>  <Energy>  (76) 
56.84929579213377

>  <Genealogy>  (76) 
C=CCn1c(C=Cc2ccc(F)cc2)[nH+]c2ccc(Br)cc2c1=O (protonated)
C=CCn1c(/C=C\c2ccc(F)cc2)[nH+]c2ccc(Br)cc2c1=O (cis-trans isomerization)
C=CCn1c(/C=C\c2ccc(F)cc2)[nH+]c2ccc(Br)cc2c1=O (3D coordinates assigned)
C=CCn1c(/C=C\c2ccc(F)cc2)[nH+]c2ccc(Br)cc2c1=O (optimized conformer: 56.84929579213377 kcal/mol)

>  <smiles>  (76) 
C=CCn1c(C=Cc2ccc(F)cc2)nc2ccc(Br)cc2c1=O

>  <score_type>  (76) 
oracle

>  <origin>  (76) 
adg

>  <m_score__min__energy>  (76) 
-6.5599999999999996

>  <m_primary>  (76) 
energy

$$$$
76:0
     RDKit          3D

 52 54  0  0  0  0  0  0  0  0999 V2000
   55.9990   23.9660   46.0800 C   0  0  0  0  0  0  0  0  0  0  0  0
   55.7660   25.4240   46.3430 C   0  0  0  0  0  0  0  0  0  0  0  0
   54.6800   25.9500   45.9880 O   0  0  0  0  0  0  0  0  0  0  0  0
   56.7560   26.2370   46.9870 N   0  0  0  0  0  0  0  0  0  0  0  0
   57.6650   27.0940   46.2870 C   0  0  0  0  0  0  0  0  0  0  0  0
   59.0380   26.9390   46.5080 C   0  0  0  0  0  0  0  0  0  0  0  0
   59.9560   27.7100   45.7960 C   0  0  0  0  0  0  0  0  0  0  0  0
   59.5080   28.6570   44.8750 C   0  0  0  0  0  0  0  0  0  0  0  0
   58.1380   28.8720   44.6820 C   0  0  0  0  0  0  0  0  0  0  0  0
   57.7300   29.8560   43.7200 N   0  0  0  0  0  0  0  0  0  0  0  0
   57.2690   31.1750   44.0330 C   0  0  0  0  0  0  0  0  0  0  0  0
   56.1340   31.3440   44.5570 O   0  0  0  0  0  0  0  0  0  0  0  0
   58.1630   32.3630   43.8160 C   0  0  0  0  0  0  0  0  0  0  0  0
   58.6160   32.9460   45.0960 N   0  0  0  0  0  0  0  0  0  0  0  0
   59.3450   34.2060   44.8960 C   0  0  0  0  0  0  0  0  0  0  0  0
   60.0550   34.5660   46.2030 C   0  0  0  0  0  0  0  0  0  0  0  0
   59.2110   34.3480   47.4030 N   0  0  0  0  0  0  0  0  0  0  0  0
   59.8370   33.1320   48.4980 S   0  0  0  0  0  0  0  0  0  0  0  0
   59.3710   31.7820   48.0250 O   0  0  0  0  0  0  0  0  0  0  0  0
   59.2920   33.3430   49.8830 O   0  0  0  0  0  0  0  0  0  0  0  0
   61.6000   33.1350   48.5640 C   0  0  0  0  0  0  0  0  0  0  0  0
   62.3470   32.7080   47.4550 C   0  0  0  0  0  0  0  0  0  0  0  0
   63.7440   32.7320   47.4970 C   0  0  0  0  0  0  0  0  0  0  0  0
   64.4020   33.1780   48.6470 C   0  0  0  0  0  0  0  0  0  0  0  0
   63.6620   33.5970   49.7560 C   0  0  0  0  0  0  0  0  0  0  0  0
   64.3060   34.0260   50.8680 F   0  0  0  0  0  0  0  0  0  0  0  0
   62.2640   33.5770   49.7170 C   0  0  0  0  0  0  0  0  0  0  0  0
   57.7700   34.1750   47.1350 C   0  0  0  0  0  0  0  0  0  0  0  0
   57.4620   33.1730   45.9930 C   0  0  0  0  0  0  0  0  0  0  0  0
   57.2040   28.0780   45.3850 C   0  0  0  0  0  0  0  0  0  0  0  0
   55.8360   28.2680   45.1740 O   0  0  0  0  0  0  0  0  0  0  0  0
   56.0847   23.4300   47.0367 H   0  0  0  0  0  0  0  0  0  0  0  0
   55.1547   23.5576   45.5052 H   0  0  0  0  0  0  0  0  0  0  0  0
   56.9285   23.8411   45.5052 H   0  0  0  0  0  0  0  0  0  0  0  0
   59.3946   26.2059   47.2465 H   0  0  0  0  0  0  0  0  0  0  0  0
   61.0347   27.5713   45.9608 H   0  0  0  0  0  0  0  0  0  0  0  0
   60.2380   29.2405   44.2948 H   0  0  0  0  0  0  0  0  0  0  0  0
   59.0431   32.0461   43.2372 H   0  0  0  0  0  0  0  0  0  0  0  0
   57.5900   33.1293   43.2734 H   0  0  0  0  0  0  0  0  0  0  0  0
   60.0860   34.0830   44.0924 H   0  0  0  0  0  0  0  0  0  0  0  0
   58.6456   35.0065   44.6129 H   0  0  0  0  0  0  0  0  0  0  0  0
   60.9585   33.9451   46.2930 H   0  0  0  0  0  0  0  0  0  0  0  0
   60.2948   35.6387   46.1612 H   0  0  0  0  0  0  0  0  0  0  0  0
   61.8316   32.3535   46.5502 H   0  0  0  0  0  0  0  0  0  0  0  0
   64.3259   32.3998   46.6247 H   0  0  0  0  0  0  0  0  0  0  0  0
   65.5013   33.1991   48.6789 H   0  0  0  0  0  0  0  0  0  0  0  0
   61.6850   33.9083   50.5917 H   0  0  0  0  0  0  0  0  0  0  0  0
   57.2874   33.8120   48.0544 H   0  0  0  0  0  0  0  0  0  0  0  0
   57.3838   35.1540   46.8151 H   0  0  0  0  0  0  0  0  0  0  0  0
   57.1709   32.2109   46.4399 H   0  0  0  0  0  0  0  0  0  0  0  0
   56.6532   33.6052   45.3855 H   0  0  0  0  0  0  0  0  0  0  0  0
   55.1420   27.5700   45.4080 H   0  0  0  0  0  0  0  0  0  0  0  0
  1  2  1  0
  2  3  2  0
  2  4  1  0
  4  5  1  0
  5  6  2  0
  6  7  1  0
  7  8  2  0
  8  9  1  0
  9 10  1  0
 10 11  1  0
 11 12  2  0
 11 13  1  0
 13 14  1  0
 14 15  1  0
 15 16  1  0
 16 17  1  0
 17 18  1  0
 18 19  2  0
 18 20  2  0
 18 21  1  0
 21 22  2  0
 22 23  1  0
 23 24  2  0
 24 25  1  0
 25 26  1  0
 25 27  2  0
 17 28  1  0
 28 29  1  0
  9 30  2  0
 30 31  1  0
 30  5  1  0
 29 14  1  0
 27 21  1  0
  1 32  1  0
  1 33  1  0
  1 34  1  0
  6 35  1  0
  7 36  1  0
  8 37  1  0
 13 38  1  0
 13 39  1  0
 15 40  1  0
 15 41  1  0
 16 42  1  0
 16 43  1  0
 22 44  1  0
 23 45  1  0
 24 46  1  0
 27 47  1  0
 28 48  1  0
 28 49  1  0
 29 50  1  0
 29 51  1  0
 31 52  1  0
M  CHG  2   4  -1  10  -1
M  END
>  <UniqueID>  (77) 
72

>  <SMILES>  (77) 
CC(=O)[N-]c1cccc([N-]C(=O)CN2CCN(S(=O)(=O)c3cccc(F)c3)CC2)c1O

>  <Energy>  (77) 
73.84056779770623

>  <Genealogy>  (77) 
CC(=O)[N-]c1cccc([N-]C(=O)CN2CCN(S(=O)(=O)c3cccc(F)c3)CC2)c1O (protonated)
CC(=O)[N-]c1cccc([N-]C(=O)CN2CCN(S(=O)(=O)c3cccc(F)c3)CC2)c1O (3D coordinates assigned)
CC(=O)[N-]c1cccc([N-]C(=O)CN2CCN(S(=O)(=O)c3cccc(F)c3)CC2)c1O (nonaromatic ring conformer: 73.84056779770623 kcal/mol)

>  <smiles>  (77) 
CC(=O)Nc1cccc(NC(=O)CN2CCN(S(=O)(=O)c3cccc(F)c3)CC2)c1O

>  <score_type>  (77) 
oracle

>  <origin>  (77) 
adg

>  <m_score__min__energy>  (77) 
-14.119999999999999

>  <m_primary>  (77) 
energy

$$$$
77:0
     RDKit          3D

 32 33  0  0  0  0  0  0  0  0999 V2000
   58.6247   32.0274   43.3382 H   0  0  0  0  0  0  0  0  0  0  0  0
   57.8180   31.7180   44.0190 C   0  0  0  0  0  0  0  0  0  0  0  0
   57.5120   32.6110   45.1600 C   0  0  0  0  0  0  0  0  0  0  0  0
   56.3070   32.9120   45.3710 O   0  0  0  0  0  0  0  0  0  0  0  0
   58.5560   33.1060   46.0920 C   0  0  0  0  0  0  0  0  0  0  0  0
   59.0850   34.3990   45.9360 C   0  0  0  0  0  0  0  0  0  0  0  0
   58.7443   35.0300   45.1019 H   0  0  0  0  0  0  0  0  0  0  0  0
   60.0390   34.8900   46.8300 C   0  0  0  0  0  0  0  0  0  0  0  0
   60.4364   35.9077   46.7023 H   0  0  0  0  0  0  0  0  0  0  0  0
   60.4940   34.0890   47.8930 C   0  0  0  0  0  0  0  0  0  0  0  0
   61.4440   34.5390   48.8210 O   0  0  0  0  0  0  0  0  0  0  0  0
   62.3360   33.6870   49.5330 C   0  0  0  0  0  0  0  0  0  0  0  0
   62.1907   33.8258   50.6145 H   0  0  0  0  0  0  0  0  0  0  0  0
   62.1327   32.6391   49.2672 H   0  0  0  0  0  0  0  0  0  0  0  0
   63.3735   33.9381   49.2672 H   0  0  0  0  0  0  0  0  0  0  0  0
   59.9850   32.7940   48.0370 C   0  0  0  0  0  0  0  0  0  0  0  0
   60.3448   32.1567   48.8583 H   0  0  0  0  0  0  0  0  0  0  0  0
   59.0240   32.3000   47.1490 C   0  0  0  0  0  0  0  0  0  0  0  0
   58.5230   31.0170   47.3400 O   0  0  0  0  0  0  0  0  0  0  0  0
   57.1920   30.5620   43.7470 C   0  0  0  0  0  0  0  0  0  0  0  0
   56.5336   30.5351   42.8662 H   0  0  0  0  0  0  0  0  0  0  0  0
   57.3210   29.3210   44.5430 C   0  0  0  0  0  0  0  0  0  0  0  0
   58.5860   28.8450   44.9330 C   0  0  0  0  0  0  0  0  0  0  0  0
   59.4926   29.3928   44.6362 H   0  0  0  0  0  0  0  0  0  0  0  0
   58.6960   27.6790   45.6960 C   0  0  0  0  0  0  0  0  0  0  0  0
   59.6868   27.3211   46.0124 H   0  0  0  0  0  0  0  0  0  0  0  0
   57.5500   26.9680   46.0570 C   0  0  0  0  0  0  0  0  0  0  0  0
   57.6385   26.0549   46.6640 H   0  0  0  0  0  0  0  0  0  0  0  0
   56.2900   27.4150   45.6480 C   0  0  0  0  0  0  0  0  0  0  0  0
   55.1550   26.6950   46.0030 O   0  0  0  0  0  0  0  0  0  0  0  0
   56.1720   28.5840   44.8870 C   0  0  0  0  0  0  0  0  0  0  0  0
   54.9120   29.0210   44.4890 O   0  0  0  0  0  0  0  0  0  0  0  0
  1  2  1  0
  2  3  1  0
  3  4  2  0
  3  5  1  0
  5  6  2  0
  6  7  1  0
  6  8  1  0
  8  9  1  0
  8 10  2  0
 10 11  1  0
 11 12  1  0
 12 13  1  0
 12 14  1  0
 12 15  1  0
 10 16  1  0
 16 17  1  0
 16 18  2  0
 18 19  1  0
  2 20  2  0
 20 21  1  0
 20 22  1  0
 22 23  2  0
 23 24  1  0
 23 25  1  0
 25 26  1  0
 25 27  2  0
 27 28  1  0
 27 29  1  0
 29 30  1  0
 29 31  2  0
 31 32  1  0
 18  5  1  0
 31 22  1  0
M  CHG  3  19  -1  30  -1  32  -1
M  END
>  <UniqueID>  (78) 
73

>  <SMILES>  (78) 
COc1ccc(C(=O)/C=C\c2cccc([O-])c2[O-])c([O-])c1

>  <Energy>  (78) 
44.035295238360014

>  <Genealogy>  (78) 
COc1ccc(C(=O)C=Cc2cccc([O-])c2[O-])c([O-])c1 (protonated)
COc1ccc(C(=O)/C=C\c2cccc([O-])c2[O-])c([O-])c1 (cis-trans isomerization)
COc1ccc(C(=O)/C=C\c2cccc([O-])c2[O-])c([O-])c1 (3D coordinates assigned)
COc1ccc(C(=O)/C=C\c2cccc([O-])c2[O-])c([O-])c1 (optimized conformer: 44.035295238360014 kcal/mol)

>  <smiles>  (78) 
COc1ccc(C(=O)C=Cc2cccc(O)c2O)c(O)c1

>  <score_type>  (78) 
oracle

>  <origin>  (78) 
adg

>  <m_score__min__energy>  (78) 
-15.619999999999999

>  <m_primary>  (78) 
energy

$$$$
78:0
     RDKit          3D

 52 55  0  0  0  0  0  0  0  0999 V2000
   60.1460   28.7130   47.9280 C   0  0  0  0  0  0  0  0  0  0  0  0
   59.3400   29.6390   47.3820 C   0  0  0  0  0  0  0  0  0  0  0  0
   58.6010   29.5130   46.1930 C   0  0  0  0  0  0  0  0  0  0  0  0
   58.3740   28.4490   45.3950 C   0  0  0  0  0  0  0  0  0  0  0  0
   57.5090   27.3000   45.7250 C   0  0  0  0  0  0  0  0  0  0  0  0
   56.1160   27.4190   45.6510 C   0  0  0  0  0  0  0  0  0  0  0  0
   55.5280   28.6070   45.2300 O   0  0  0  0  0  0  0  0  0  0  0  0
   55.3280   26.3640   45.9820 N   0  0  0  0  0  0  0  0  0  0  0  0
   55.8670   25.1880   46.3970 C   0  0  0  0  0  0  0  0  0  0  0  0
   55.1170   24.2240   46.6930 O   0  0  0  0  0  0  0  0  0  0  0  0
   57.2140   25.0570   46.5000 N   0  0  0  0  0  0  0  0  0  0  0  0
   58.0440   26.0840   46.1880 C   0  0  0  0  0  0  0  0  0  0  0  0
   59.2880   25.9340   46.3160 O   0  0  0  0  0  0  0  0  0  0  0  0
   58.0490   30.7570   45.9450 C   0  0  0  0  0  0  0  0  0  0  0  0
   58.4090   31.5720   46.9950 C   0  0  0  0  0  0  0  0  0  0  0  0
   57.9970   33.0070   47.1310 C   0  0  0  0  0  0  0  0  0  0  0  0
   59.1980   30.9040   47.8700 N   0  0  0  0  0  0  0  0  0  0  0  0
   59.7560   31.4750   49.1070 C   0  0  0  0  0  0  0  0  0  0  0  0
   58.8170   31.2540   50.2640 C   0  0  0  0  0  0  0  0  0  0  0  0
   58.0480   32.3140   50.7710 C   0  0  0  0  0  0  0  0  0  0  0  0
   57.1890   32.1090   51.8550 C   0  0  0  0  0  0  0  0  0  0  0  0
   57.0780   30.8460   52.4470 C   0  0  0  0  0  0  0  0  0  0  0  0
   56.2060   30.7030   53.5370 O   0  0  0  0  0  0  0  0  0  0  0  0
   54.8760   29.6280   53.5870 S   0  0  0  0  0  0  0  0  0  0  0  0
   54.4500   29.4390   55.0170 O   0  0  0  0  0  0  0  0  0  0  0  0
   55.2910   28.3010   53.0190 O   0  0  0  0  0  0  0  0  0  0  0  0
   53.5450   30.2750   52.6330 C   0  0  0  0  0  0  0  0  0  0  0  0
   53.4720   30.0300   51.2530 C   0  0  0  0  0  0  0  0  0  0  0  0
   52.4090   30.5460   50.5040 C   0  0  0  0  0  0  0  0  0  0  0  0
   51.4110   31.2970   51.1290 C   0  0  0  0  0  0  0  0  0  0  0  0
   51.4820   31.5440   52.5030 C   0  0  0  0  0  0  0  0  0  0  0  0
   52.5500   31.0410   53.2550 C   0  0  0  0  0  0  0  0  0  0  0  0
   57.8300   29.7770   51.9270 C   0  0  0  0  0  0  0  0  0  0  0  0
   58.6940   29.9810   50.8480 C   0  0  0  0  0  0  0  0  0  0  0  0
   60.6748   28.9295   48.8680 H   0  0  0  0  0  0  0  0  0  0  0  0
   60.2771   27.7384   47.4351 H   0  0  0  0  0  0  0  0  0  0  0  0
   58.8759   28.4371   44.4162 H   0  0  0  0  0  0  0  0  0  0  0  0
   57.4388   31.0410   45.0749 H   0  0  0  0  0  0  0  0  0  0  0  0
   57.9222   33.2675   48.1971 H   0  0  0  0  0  0  0  0  0  0  0  0
   58.7465   33.6510   46.6479 H   0  0  0  0  0  0  0  0  0  0  0  0
   57.0200   33.1553   46.6479 H   0  0  0  0  0  0  0  0  0  0  0  0
   60.7194   30.9913   49.3259 H   0  0  0  0  0  0  0  0  0  0  0  0
   59.8965   32.5569   48.9661 H   0  0  0  0  0  0  0  0  0  0  0  0
   58.1218   33.3113   50.3127 H   0  0  0  0  0  0  0  0  0  0  0  0
   56.5950   32.9483   52.2460 H   0  0  0  0  0  0  0  0  0  0  0  0
   54.2518   29.4313   50.7595 H   0  0  0  0  0  0  0  0  0  0  0  0
   52.3591   30.3599   49.4210 H   0  0  0  0  0  0  0  0  0  0  0  0
   50.5703   31.6936   50.5408 H   0  0  0  0  0  0  0  0  0  0  0  0
   50.6959   32.1357   52.9949 H   0  0  0  0  0  0  0  0  0  0  0  0
   52.6083   31.2469   54.3340 H   0  0  0  0  0  0  0  0  0  0  0  0
   57.7374   28.7753   52.3721 H   0  0  0  0  0  0  0  0  0  0  0  0
   59.2821   29.1397   50.4527 H   0  0  0  0  0  0  0  0  0  0  0  0
  1  2  2  0
  2  3  1  0
  3  4  2  3
  4  5  1  0
  5  6  2  0
  6  7  1  0
  6  8  1  0
  8  9  1  0
  9 10  2  0
  9 11  1  0
 11 12  1  0
 12 13  2  0
  3 14  1  0
 14 15  2  0
 15 16  1  0
 15 17  1  0
 17 18  1  0
 18 19  1  0
 19 20  2  0
 20 21  1  0
 21 22  2  0
 22 23  1  0
 23 24  1  0
 24 25  2  0
 24 26  2  0
 24 27  1  0
 27 28  2  0
 28 29  1  0
 29 30  2  0
 30 31  1  0
 31 32  2  0
 22 33  1  0
 33 34  2  0
 17  2  1  0
 34 19  1  0
 12  5  1  0
 32 27  1  0
  1 35  1  0
  1 36  1  0
  4 37  1  0
 14 38  1  0
 16 39  1  0
 16 40  1  0
 16 41  1  0
 18 42  1  0
 18 43  1  0
 20 44  1  0
 21 45  1  0
 28 46  1  0
 29 47  1  0
 30 48  1  0
 31 49  1  0
 32 50  1  0
 33 51  1  0
 34 52  1  0
M  CHG  3   7  -1   8  -1  11  -1
M  END
>  <UniqueID>  (79) 
74

>  <SMILES>  (79) 
C=c1c(=Cc2c([O-])[n-]c(=O)[n-]c2=O)cc(C)n1Cc1ccc(OS(=O)(=O)c2ccccc2)cc1

>  <Energy>  (79) 
99.19546633187625

>  <Genealogy>  (79) 
C=c1c(=Cc2c([O-])[n-]c(=O)[n-]c2=O)cc(C)n1Cc1ccc(OS(=O)(=O)c2ccccc2)cc1 (protonated)
C=c1c(=Cc2c([O-])[n-]c(=O)[n-]c2=O)cc(C)n1Cc1ccc(OS(=O)(=O)c2ccccc2)cc1 (3D coordinates assigned)
C=c1c(=Cc2c([O-])[n-]c(=O)[n-]c2=O)cc(C)n1Cc1ccc(OS(=O)(=O)c2ccccc2)cc1 (optimized conformer: 99.19546633187625 kcal/mol)

>  <smiles>  (79) 
C=c1c(=Cc2c(O)[nH]c(=O)[nH]c2=O)cc(C)n1Cc1ccc(OS(=O)(=O)c2ccccc2)cc1

>  <score_type>  (79) 
oracle

>  <origin>  (79) 
adg

>  <m_score__min__energy>  (79) 
-17.109999999999999

>  <m_primary>  (79) 
energy

$$$$
79:0
     RDKit          3D

 24 25  0  0  0  0  0  0  0  0999 V2000
   55.2790   26.3340   46.0740 N   0  0  0  0  0  0  0  0  0  0  0  0
   56.6360   26.6880   46.3310 C   0  0  0  0  0  0  0  0  0  0  0  0
   57.4050   25.8520   46.8760 O   0  0  0  0  0  0  0  0  0  0  0  0
   57.1440   28.0190   45.9680 C   0  0  0  0  0  0  0  0  0  0  0  0
   58.3950   28.4400   46.2250 N   0  0  0  0  0  0  0  0  0  0  0  0
   58.4210   29.6980   45.7280 C   0  0  0  0  0  0  0  0  0  0  0  0
   59.6490   30.5500   45.7420 C   0  0  0  0  0  0  0  0  0  0  0  0
   59.2900   31.9680   46.1000 C   0  0  0  0  0  0  0  0  0  0  0  0
   58.5500   32.7490   45.1950 C   0  0  0  0  0  0  0  0  0  0  0  0
   58.1810   34.0550   45.5270 C   0  0  0  0  0  0  0  0  0  0  0  0
   58.5390   34.5910   46.7660 C   0  0  0  0  0  0  0  0  0  0  0  0
   59.2630   33.8190   47.6790 C   0  0  0  0  0  0  0  0  0  0  0  0
   59.6350   32.5100   47.3540 C   0  0  0  0  0  0  0  0  0  0  0  0
   60.3430   31.7550   48.2840 O   0  0  0  0  0  0  0  0  0  0  0  0
   57.2610   30.0910   45.1550 N   0  0  0  0  0  0  0  0  0  0  0  0
   56.4640   29.0230   45.3200 C   0  0  0  0  0  0  0  0  0  0  0  0
   55.1460   28.9710   44.8810 O   0  0  0  0  0  0  0  0  0  0  0  0
   54.7740   26.7190   45.2450 H   0  0  0  0  0  0  0  0  0  0  0  0
   60.3574   30.1552   46.4851 H   0  0  0  0  0  0  0  0  0  0  0  0
   60.1088   30.5360   44.7428 H   0  0  0  0  0  0  0  0  0  0  0  0
   58.2600   32.3296   44.2203 H   0  0  0  0  0  0  0  0  0  0  0  0
   57.6075   34.6622   44.8112 H   0  0  0  0  0  0  0  0  0  0  0  0
   58.2511   35.6210   47.0234 H   0  0  0  0  0  0  0  0  0  0  0  0
   59.5411   34.2418   48.6557 H   0  0  0  0  0  0  0  0  0  0  0  0
  1  2  1  0
  2  3  2  0
  2  4  1  0
  4  5  1  0
  5  6  2  0
  6  7  1  0
  7  8  1  0
  8  9  2  0
  9 10  1  0
 10 11  2  0
 11 12  1  0
 12 13  2  0
 13 14  1  0
  6 15  1  0
 15 16  1  0
 16 17  1  0
 16  4  2  0
 13  8  1  0
  1 18  1  0
  7 19  1  0
  7 20  1  0
  9 21  1  0
 10 22  1  0
 11 23  1  0
 12 24  1  0
M  CHG  4   1  -1  14  -1  15  -1  17  -1
M  END
>  <UniqueID>  (80) 
75

>  <SMILES>  (80) 
[NH-]C(=O)c1nc(Cc2ccccc2[O-])[n-]c1[O-]

>  <Energy>  (80) 
51.07871810773795

>  <Genealogy>  (80) 
[NH-]C(=O)c1nc(Cc2ccccc2[O-])[n-]c1[O-] (protonated)
[NH-]C(=O)c1nc(Cc2ccccc2[O-])[n-]c1[O-] (3D coordinates assigned)
[NH-]C(=O)c1nc(Cc2ccccc2[O-])[n-]c1[O-] (optimized conformer: 51.07871810773795 kcal/mol)

>  <smiles>  (80) 
NC(=O)c1nc(Cc2ccccc2O)[nH]c1O

>  <score_type>  (80) 
oracle

>  <origin>  (80) 
adg

>  <m_score__min__energy>  (80) 
-16.210000000000001

>  <m_primary>  (80) 
energy

$$$$
80:0
     RDKit          3D

 48 51  0  0  0  0  0  0  0  0999 V2000
   54.7560   27.0260   44.8830 H   0  0  0  0  0  0  0  0  0  0  0  0
   54.8500   26.3260   45.6500 N   0  0  0  0  0  0  0  0  0  0  0  0
   55.9460   26.0720   46.2990 C   0  0  0  0  0  0  0  0  0  0  0  0
   56.0460   24.8740   46.9350 N   0  0  0  0  0  0  0  0  0  0  0  0
   57.1720   24.4860   47.5840 C   0  0  0  0  0  0  0  0  0  0  0  0
   57.2078   23.5082   48.0867 H   0  0  0  0  0  0  0  0  0  0  0  0
   58.2810   25.3240   47.6140 C   0  0  0  0  0  0  0  0  0  0  0  0
   59.2044   24.9970   48.1144 H   0  0  0  0  0  0  0  0  0  0  0  0
   58.2220   26.5800   47.0090 C   0  0  0  0  0  0  0  0  0  0  0  0
   59.3620   27.3950   47.0880 O   0  0  0  0  0  0  0  0  0  0  0  0
   59.8050   28.0520   48.2440 C   0  0  0  0  0  0  0  0  0  0  0  0
   59.3180   29.2920   48.5140 N   0  0  0  0  0  0  0  0  0  0  0  0
   59.6510   29.9900   49.6320 C   0  0  0  0  0  0  0  0  0  0  0  0
   59.0820   31.1490   49.8190 N   0  0  0  0  0  0  0  0  0  0  0  0
   59.6240   32.4740   49.6890 C   0  0  0  0  0  0  0  0  0  0  0  0
   59.1380   33.4460   50.3230 O   0  0  0  0  0  0  0  0  0  0  0  0
   60.8110   32.6770   48.8480 C   0  0  0  0  0  0  0  0  0  0  0  0
   60.9740   33.8700   47.6720 S   0  0  0  0  0  0  0  0  0  0  0  0
   62.5470   33.4630   47.2350 C   0  0  0  0  0  0  0  0  0  0  0  0
   63.3870   34.2170   46.2610 C   0  0  0  0  0  0  0  0  0  0  0  0
   64.0978   34.8550   46.8066 H   0  0  0  0  0  0  0  0  0  0  0  0
   63.9414   33.5078   45.6289 H   0  0  0  0  0  0  0  0  0  0  0  0
   62.7415   34.8445   45.6289 H   0  0  0  0  0  0  0  0  0  0  0  0
   62.9740   32.4020   48.0230 C   0  0  0  0  0  0  0  0  0  0  0  0
   63.9786   31.9598   47.9504 H   0  0  0  0  0  0  0  0  0  0  0  0
   61.9970   31.9520   48.9190 C   0  0  0  0  0  0  0  0  0  0  0  0
   62.1512   31.1100   49.6098 H   0  0  0  0  0  0  0  0  0  0  0  0
   60.5410   29.4050   50.5580 C   0  0  0  0  0  0  0  0  0  0  0  0
   60.8041   29.9344   51.4856 H   0  0  0  0  0  0  0  0  0  0  0  0
   61.0840   28.1490   50.2860 C   0  0  0  0  0  0  0  0  0  0  0  0
   61.7957   27.6948   50.9910 H   0  0  0  0  0  0  0  0  0  0  0  0
   60.7270   27.4680   49.1230 C   0  0  0  0  0  0  0  0  0  0  0  0
   61.1639   26.4839   48.8980 H   0  0  0  0  0  0  0  0  0  0  0  0
   57.0430   26.9760   46.3240 C   0  0  0  0  0  0  0  0  0  0  0  0
   56.9850   28.2910   45.6450 C   0  0  0  0  0  0  0  0  0  0  0  0
   55.9380   28.6270   45.0280 O   0  0  0  0  0  0  0  0  0  0  0  0
   58.1290   29.1590   45.6800 N   0  0  0  0  0  0  0  0  0  0  0  0
   58.1270   30.4590   45.7640 C   0  0  0  0  0  0  0  0  0  0  0  0
   58.1160   31.4640   44.4160 S   0  0  0  0  0  0  0  0  0  0  0  0
   58.2100   32.8670   45.3430 C   0  0  0  0  0  0  0  0  0  0  0  0
   58.1470   34.2590   44.8110 C   0  0  0  0  0  0  0  0  0  0  0  0
   58.1148   34.9707   45.6491 H   0  0  0  0  0  0  0  0  0  0  0  0
   59.0371   34.4570   44.1958 H   0  0  0  0  0  0  0  0  0  0  0  0
   57.2426   34.3758   44.1958 H   0  0  0  0  0  0  0  0  0  0  0  0
   58.2400   32.5120   46.6880 C   0  0  0  0  0  0  0  0  0  0  0  0
   58.2873   33.2535   47.4991 H   0  0  0  0  0  0  0  0  0  0  0  0
   58.2060   31.1720   46.9160 N   0  0  0  0  0  0  0  0  0  0  0  0
   58.2710   30.7770   47.8770 H   0  0  0  0  0  0  0  0  0  0  0  0
  1  2  1  0
  2  3  2  3
  3  4  1  0
  4  5  1  0
  5  6  1  0
  5  7  2  0
  7  8  1  0
  7  9  1  0
  9 10  1  0
 10 11  1  0
 11 12  1  0
 12 13  1  0
 13 14  2  3
 14 15  1  0
 15 16  2  0
 15 17  1  0
 17 18  1  0
 18 19  1  0
 19 20  1  0
 20 21  1  0
 20 22  1  0
 20 23  1  0
 19 24  2  0
 24 25  1  0
 24 26  1  0
 26 27  1  0
 13 28  1  0
 28 29  1  0
 28 30  2  0
 30 31  1  0
 30 32  1  0
 32 33  1  0
  9 34  2  0
 34 35  1  0
 35 36  2  0
 35 37  1  0
 37 38  2  0
 38 39  1  0
 39 40  1  0
 40 41  1  0
 41 42  1  0
 41 43  1  0
 41 44  1  0
 40 45  2  0
 45 46  1  0
 45 47  1  0
 47 48  1  0
 34  3  1  0
 47 38  1  0
 32 11  2  0
 26 17  2  0
M  CHG  2   4  -1  12  -1
M  END
>  <UniqueID>  (81) 
76

>  <SMILES>  (81) 
Cc1ccc(C(=O)N=c2cccc(Oc3cc[n-]c(=N)c3C(=O)/N=c3\[nH]cc(C)s3)[n-]2)s1

>  <Energy>  (81) 
130.11051060222988

>  <Genealogy>  (81) 
Cc1ccc(C(=O)N=c2cccc(Oc3cc[n-]c(=N)c3C(=O)N=c3[nH]cc(C)s3)[n-]2)s1 (protonated)
Cc1ccc(C(=O)N=c2cccc(Oc3cc[n-]c(=N)c3C(=O)/N=c3\[nH]cc(C)s3)[n-]2)s1 (cis-trans isomerization)
Cc1ccc(C(=O)N=c2cccc(Oc3cc[n-]c(=N)c3C(=O)/N=c3\[nH]cc(C)s3)[n-]2)s1 (3D coordinates assigned)
Cc1ccc(C(=O)N=c2cccc(Oc3cc[n-]c(=N)c3C(=O)/N=c3\[nH]cc(C)s3)[n-]2)s1 (optimized conformer: 130.11051060222988 kcal/mol)

>  <smiles>  (81) 
Cc1ccc(C(=O)N=c2cccc(Oc3cc[nH]c(=N)c3C(=O)N=c3[nH]cc(C)s3)[nH]2)s1

>  <score_type>  (81) 
oracle

>  <origin>  (81) 
adg

>  <m_score__min__energy>  (81) 
-12.23

>  <m_primary>  (81) 
energy

$$$$
81:0
     RDKit          3D

 46 49  0  0  0  0  0  0  0  0999 V2000
   59.9320   32.5230   51.4360 O   0  0  0  0  0  0  0  0  0  0  0  0
   59.2050   32.3640   50.4190 C   0  0  0  0  0  0  0  0  0  0  0  0
   58.6980   31.0540   50.1330 N   0  0  0  0  0  0  0  0  0  0  0  0
   59.1140   30.2170   49.2260 C   0  0  0  0  0  0  0  0  0  0  0  0
   59.7580   29.0460   49.4650 N   0  0  0  0  0  0  0  0  0  0  0  0
   60.0920   28.4020   48.3150 C   0  0  0  0  0  0  0  0  0  0  0  0
   59.7150   29.0710   47.1580 C   0  0  0  0  0  0  0  0  0  0  0  0
   60.0010   28.5090   45.4840 S   0  0  0  0  0  0  0  0  0  0  0  0
   58.4420   29.1910   44.8940 C   0  0  0  0  0  0  0  0  0  0  0  0
   58.5020   30.3710   44.1400 C   0  0  0  0  0  0  0  0  0  0  0  0
   57.3340   30.9990   43.7080 C   0  0  0  0  0  0  0  0  0  0  0  0
   56.0920   30.4570   44.0300 C   0  0  0  0  0  0  0  0  0  0  0  0
   56.0130   29.2770   44.7730 C   0  0  0  0  0  0  0  0  0  0  0  0
   57.1810   28.6170   45.2050 C   0  0  0  0  0  0  0  0  0  0  0  0
   57.0370   27.3500   45.9630 C   0  0  0  0  0  0  0  0  0  0  0  0
   58.0560   26.8330   46.4980 O   0  0  0  0  0  0  0  0  0  0  0  0
   55.7430   26.7420   46.1160 N   0  0  0  0  0  0  0  0  0  0  0  0
   55.3270   25.6090   45.6290 C   0  0  0  0  0  0  0  0  0  0  0  0
   54.0190   25.2770   45.6200 N   0  0  0  0  0  0  0  0  0  0  0  0
   53.8120   24.0500   45.0690 C   0  0  0  0  0  0  0  0  0  0  0  0
   54.9580   23.3960   44.6350 C   0  0  0  0  0  0  0  0  0  0  0  0
   56.2780   24.3910   44.9500 S   0  0  0  0  0  0  0  0  0  0  0  0
   58.9520   30.5100   47.5770 S   0  0  0  0  0  0  0  0  0  0  0  0
   58.9540   33.4400   49.5590 O   0  0  0  0  0  0  0  0  0  0  0  0
   59.8360   33.8260   48.5080 C   0  0  0  0  0  0  0  0  0  0  0  0
   59.0830   33.9580   47.2120 C   0  0  0  0  0  0  0  0  0  0  0  0
   57.7700   33.4710   47.1120 C   0  0  0  0  0  0  0  0  0  0  0  0
   57.0640   33.5880   45.9110 C   0  0  0  0  0  0  0  0  0  0  0  0
   57.6660   34.1880   44.8010 C   0  0  0  0  0  0  0  0  0  0  0  0
   58.9750   34.6700   44.8920 C   0  0  0  0  0  0  0  0  0  0  0  0
   59.6830   34.5570   46.0910 C   0  0  0  0  0  0  0  0  0  0  0  0
   60.0260   28.6710   50.3990 H   0  0  0  0  0  0  0  0  0  0  0  0
   60.6156   27.4347   48.3023 H   0  0  0  0  0  0  0  0  0  0  0  0
   59.4800   30.8061   43.8865 H   0  0  0  0  0  0  0  0  0  0  0  0
   57.3937   31.9223   43.1130 H   0  0  0  0  0  0  0  0  0  0  0  0
   55.1713   30.9594   43.6984 H   0  0  0  0  0  0  0  0  0  0  0  0
   55.0275   28.8578   45.0240 H   0  0  0  0  0  0  0  0  0  0  0  0
   52.8092   23.6079   44.9741 H   0  0  0  0  0  0  0  0  0  0  0  0
   54.9960   22.4012   44.1670 H   0  0  0  0  0  0  0  0  0  0  0  0
   60.2975   34.7925   48.7589 H   0  0  0  0  0  0  0  0  0  0  0  0
   60.6118   33.0548   48.3925 H   0  0  0  0  0  0  0  0  0  0  0  0
   57.2947   32.9953   47.9825 H   0  0  0  0  0  0  0  0  0  0  0  0
   56.0343   33.2078   45.8394 H   0  0  0  0  0  0  0  0  0  0  0  0
   57.1099   34.2808   43.8565 H   0  0  0  0  0  0  0  0  0  0  0  0
   59.4488   35.1395   44.0173 H   0  0  0  0  0  0  0  0  0  0  0  0
   60.7128   34.9378   46.1579 H   0  0  0  0  0  0  0  0  0  0  0  0
  1  2  2  0
  2  3  1  0
  3  4  2  3
  4  5  1  0
  5  6  1  0
  6  7  2  0
  7  8  1  0
  8  9  1  0
  9 10  2  0
 10 11  1  0
 11 12  2  0
 12 13  1  0
 13 14  2  0
 14 15  1  0
 15 16  2  0
 15 17  1  0
 17 18  2  3
 18 19  1  0
 19 20  1  0
 20 21  2  0
 21 22  1  0
  7 23  1  0
  2 24  1  0
 24 25  1  0
 25 26  1  0
 26 27  2  0
 27 28  1  0
 28 29  2  0
 29 30  1  0
 30 31  2  0
 23  4  1  0
 31 26  1  0
 14  9  1  0
 22 18  1  0
  5 32  1  0
  6 33  1  0
 10 34  1  0
 11 35  1  0
 12 36  1  0
 13 37  1  0
 20 38  1  0
 21 39  1  0
 25 40  1  0
 25 41  1  0
 27 42  1  0
 28 43  1  0
 29 44  1  0
 30 45  1  0
 31 46  1  0
M  CHG  1  19  -1
M  END
>  <UniqueID>  (82) 
77

>  <SMILES>  (82) 
O=C(N=c1[nH]cc(Sc2ccccc2C(=O)N=c2[n-]ccs2)s1)OCc1ccccc1

>  <Energy>  (82) 
117.31395139146014

>  <Genealogy>  (82) 
O=C(N=c1[nH]cc(Sc2ccccc2C(=O)N=c2[n-]ccs2)s1)OCc1ccccc1 (protonated)
O=C(N=c1[nH]cc(Sc2ccccc2C(=O)N=c2[n-]ccs2)s1)OCc1ccccc1 (3D coordinates assigned)
O=C(N=c1[nH]cc(Sc2ccccc2C(=O)N=c2[n-]ccs2)s1)OCc1ccccc1 (optimized conformer: 117.31395139146014 kcal/mol)

>  <smiles>  (82) 
O=C(N=c1[nH]cc(Sc2ccccc2C(=O)N=c2[nH]ccs2)s1)OCc1ccccc1

>  <score_type>  (82) 
oracle

>  <origin>  (82) 
adg

>  <m_score__min__energy>  (82) 
-11.140000000000001

>  <m_primary>  (82) 
energy

$$$$
82:0
     RDKit          3D

 37 39  0  0  0  0  0  0  0  0999 V2000
   61.9850   32.1030   49.3240 H   0  0  0  0  0  0  0  0  0  0  0  0
   61.5350   32.9500   49.0000 O   0  0  0  0  0  0  0  0  0  0  0  0
   60.5150   32.9320   48.0480 C   0  0  0  0  0  0  0  0  0  0  0  0
   59.9540   34.1450   47.6390 C   0  0  0  0  0  0  0  0  0  0  0  0
   60.3204   35.0886   48.0696 H   0  0  0  0  0  0  0  0  0  0  0  0
   58.9320   34.1680   46.6880 C   0  0  0  0  0  0  0  0  0  0  0  0
   58.4991   35.1294   46.3745 H   0  0  0  0  0  0  0  0  0  0  0  0
   58.4530   32.9720   46.1290 C   0  0  0  0  0  0  0  0  0  0  0  0
   57.3670   32.9970   45.1190 C   0  0  0  0  0  0  0  0  0  0  0  0
   57.0820   34.0750   44.5280 O   0  0  0  0  0  0  0  0  0  0  0  0
   56.6430   31.7960   44.8160 N   0  0  0  0  0  0  0  0  0  0  0  0
   57.1290   30.7950   44.1450 C   0  0  0  0  0  0  0  0  0  0  0  0
   57.4870   30.9592   43.1179 H   0  0  0  0  0  0  0  0  0  0  0  0
   57.2120   29.4320   44.7350 C   0  0  0  0  0  0  0  0  0  0  0  0
   56.0210   28.7630   45.0830 C   0  0  0  0  0  0  0  0  0  0  0  0
   54.7830   29.3610   44.8790 O   0  0  0  0  0  0  0  0  0  0  0  0
   56.0630   27.5170   45.6220 N   0  0  0  0  0  0  0  0  0  0  0  0
   57.2320   26.8660   45.8520 C   0  0  0  0  0  0  0  0  0  0  0  0
   57.2150   25.5830   46.4110 C   0  0  0  0  0  0  0  0  0  0  0  0
   56.2559   25.1068   46.6627 H   0  0  0  0  0  0  0  0  0  0  0  0
   58.4130   24.9060   46.6500 C   0  0  0  0  0  0  0  0  0  0  0  0
   58.3959   23.8979   47.0898 H   0  0  0  0  0  0  0  0  0  0  0  0
   59.6340   25.5080   46.3310 C   0  0  0  0  0  0  0  0  0  0  0  0
   60.5756   24.9718   46.5202 H   0  0  0  0  0  0  0  0  0  0  0  0
   59.6620   26.7900   45.7720 C   0  0  0  0  0  0  0  0  0  0  0  0
   60.6255   27.2591   45.5238 H   0  0  0  0  0  0  0  0  0  0  0  0
   58.4600   27.4820   45.5260 C   0  0  0  0  0  0  0  0  0  0  0  0
   58.4450   28.7740   44.9650 C   0  0  0  0  0  0  0  0  0  0  0  0
   59.5360   29.3370   44.6690 O   0  0  0  0  0  0  0  0  0  0  0  0
   59.0190   31.7510   46.5420 C   0  0  0  0  0  0  0  0  0  0  0  0
   58.6514   30.8080   46.1111 H   0  0  0  0  0  0  0  0  0  0  0  0
   60.0510   31.7230   47.5010 C   0  0  0  0  0  0  0  0  0  0  0  0
   60.6320   30.5190   47.9310 O   0  0  0  0  0  0  0  0  0  0  0  0
   59.9040   29.3440   48.2720 C   0  0  0  0  0  0  0  0  0  0  0  0
   59.8473   29.2525   49.3667 H   0  0  0  0  0  0  0  0  0  0  0  0
   58.8876   29.4088   47.8564 H   0  0  0  0  0  0  0  0  0  0  0  0
   60.4146   28.4628   47.8564 H   0  0  0  0  0  0  0  0  0  0  0  0
  1  2  1  0
  2  3  1  0
  3  4  2  0
  4  5  1  0
  4  6  1  0
  6  7  1  0
  6  8  2  0
  8  9  1  0
  9 10  2  0
  9 11  1  0
 11 12  2  0
 12 13  1  0
 12 14  1  0
 14 15  2  0
 15 16  1  0
 15 17  1  0
 17 18  1  0
 18 19  2  0
 19 20  1  0
 19 21  1  0
 21 22  1  0
 21 23  2  0
 23 24  1  0
 23 25  1  0
 25 26  1  0
 25 27  2  0
 27 28  1  0
 28 29  2  0
  8 30  1  0
 30 31  1  0
 30 32  2  0
 32 33  1  0
 33 34  1  0
 34 35  1  0
 34 36  1  0
 34 37  1  0
 32  3  1  0
 28 14  1  0
 27 18  1  0
M  CHG  2  16  -1  17  -1
M  END
>  <UniqueID>  (83) 
78

>  <SMILES>  (83) 
COc1cc(C(=O)/N=C/c2c([O-])[n-]c3ccccc3c2=O)ccc1O

>  <Energy>  (83) 
47.69715285212105

>  <Genealogy>  (83) 
COc1cc(C(=O)N=Cc2c([O-])[n-]c3ccccc3c2=O)ccc1O (protonated)
COc1cc(C(=O)/N=C/c2c([O-])[n-]c3ccccc3c2=O)ccc1O (cis-trans isomerization)
COc1cc(C(=O)/N=C/c2c([O-])[n-]c3ccccc3c2=O)ccc1O (3D coordinates assigned)
COc1cc(C(=O)/N=C/c2c([O-])[n-]c3ccccc3c2=O)ccc1O (optimized conformer: 47.69715285212105 kcal/mol)

>  <smiles>  (83) 
COc1cc(C(=O)N=Cc2c(O)[nH]c3ccccc3c2=O)ccc1O

>  <score_type>  (83) 
oracle

>  <origin>  (83) 
adg

>  <m_score__min__energy>  (83) 
-13

>  <m_primary>  (83) 
energy

$$$$
83:0
     RDKit          3D

 56 59  0  0  0  0  0  0  0  0999 V2000
   64.1220   33.4220   48.0060 C   0  0  0  0  0  0  0  0  0  0  0  0
   62.6510   33.2220   47.7890 C   0  0  0  0  0  0  0  0  0  0  0  0
   61.9890   33.8470   46.7220 C   0  0  0  0  0  0  0  0  0  0  0  0
   60.6120   33.6750   46.5460 C   0  0  0  0  0  0  0  0  0  0  0  0
   59.8770   32.8870   47.4440 C   0  0  0  0  0  0  0  0  0  0  0  0
   58.3920   32.7000   47.2570 C   0  0  0  0  0  0  0  0  0  0  0  0
   58.1150   32.0290   45.9820 N   0  0  0  0  0  0  0  0  0  0  0  0
   57.8800   32.6110   44.7750 C   0  0  0  0  0  0  0  0  0  0  0  0
   57.7330   34.0920   44.5680 C   0  0  0  0  0  0  0  0  0  0  0  0
   57.7290   31.6340   43.7870 C   0  0  0  0  0  0  0  0  0  0  0  0
   57.4080   31.8550   42.3390 C   0  0  0  0  0  0  0  0  0  0  0  0
   57.8680   30.4220   44.4380 C   0  0  0  0  0  0  0  0  0  0  0  0
   57.8190   29.1130   43.9580 C   0  0  0  0  0  0  0  0  0  0  0  0
   58.0460   28.0630   44.8720 C   0  0  0  0  0  0  0  0  0  0  0  0
   58.1430   26.6810   44.3770 C   0  0  0  0  0  0  0  0  0  0  0  0
   57.8830   26.4370   43.1680 O   0  0  0  0  0  0  0  0  0  0  0  0
   58.6050   25.6160   45.2210 N   0  0  0  0  0  0  0  0  0  0  0  0
   57.7640   24.5570   45.7870 C   0  0  1  0  0  0  0  0  0  0  0  0
   56.5800   25.1890   46.5170 C   0  0  0  0  0  0  0  0  0  0  0  0
   57.2760   23.6110   44.7060 C   0  0  0  0  0  0  0  0  0  0  0  0
   56.1660   23.9510   43.9160 C   0  0  0  0  0  0  0  0  0  0  0  0
   55.6760   23.0370   42.9840 C   0  0  0  0  0  0  0  0  0  0  0  0
   56.2910   21.8360   42.8210 N   0  0  0  0  0  0  0  0  0  0  0  0
   57.3800   21.4870   43.5560 C   0  0  0  0  0  0  0  0  0  0  0  0
   57.8950   22.3670   44.5060 C   0  0  0  0  0  0  0  0  0  0  0  0
   58.2690   28.3490   46.2390 C   0  0  0  0  0  0  0  0  0  0  0  0
   58.2980   29.6750   46.6950 C   0  0  0  0  0  0  0  0  0  0  0  0
   58.1060   30.6970   45.7620 C   0  0  0  0  0  0  0  0  0  0  0  0
   60.5400   32.2620   48.5120 C   0  0  0  0  0  0  0  0  0  0  0  0
   61.9170   32.4360   48.6870 C   0  0  0  0  0  0  0  0  0  0  0  0
   64.3329   33.4507   49.0852 H   0  0  0  0  0  0  0  0  0  0  0  0
   64.6768   32.5910   47.5459 H   0  0  0  0  0  0  0  0  0  0  0  0
   64.4348   34.3709   47.5459 H   0  0  0  0  0  0  0  0  0  0  0  0
   62.5558   34.4759   46.0197 H   0  0  0  0  0  0  0  0  0  0  0  0
   60.1033   34.1598   45.6997 H   0  0  0  0  0  0  0  0  0  0  0  0
   57.9976   32.0878   48.0814 H   0  0  0  0  0  0  0  0  0  0  0  0
   57.9070   33.6873   47.2521 H   0  0  0  0  0  0  0  0  0  0  0  0
   57.6830   34.5956   45.5447 H   0  0  0  0  0  0  0  0  0  0  0  0
   58.5979   34.4710   44.0039 H   0  0  0  0  0  0  0  0  0  0  0  0
   56.8104   34.2936   44.0039 H   0  0  0  0  0  0  0  0  0  0  0  0
   56.5046   32.4769   42.2545 H   0  0  0  0  0  0  0  0  0  0  0  0
   58.2513   32.3649   41.8502 H   0  0  0  0  0  0  0  0  0  0  0  0
   57.2326   30.8853   41.8502 H   0  0  0  0  0  0  0  0  0  0  0  0
   57.6095   28.9059   42.8982 H   0  0  0  0  0  0  0  0  0  0  0  0
   58.3632   23.9698   46.4984 H   0  0  0  0  0  0  0  0  0  0  0  0
   56.7330   25.1073   47.6032 H   0  0  0  0  0  0  0  0  0  0  0  0
   56.5002   26.2497   46.2367 H   0  0  0  0  0  0  0  0  0  0  0  0
   55.6543   24.6650   46.2367 H   0  0  0  0  0  0  0  0  0  0  0  0
   55.6854   24.9336   44.0319 H   0  0  0  0  0  0  0  0  0  0  0  0
   54.7913   23.2881   42.3804 H   0  0  0  0  0  0  0  0  0  0  0  0
   57.8559   20.5075   43.4005 H   0  0  0  0  0  0  0  0  0  0  0  0
   58.7810   22.0886   45.0955 H   0  0  0  0  0  0  0  0  0  0  0  0
   58.4210   27.5242   46.9508 H   0  0  0  0  0  0  0  0  0  0  0  0
   58.4672   29.9039   47.7575 H   0  0  0  0  0  0  0  0  0  0  0  0
   59.9741   31.6325   49.2145 H   0  0  0  0  0  0  0  0  0  0  0  0
   62.4262   31.9532   49.5341 H   0  0  0  0  0  0  0  0  0  0  0  0
  1  2  1  0
  2  3  2  0
  3  4  1  0
  4  5  2  0
  5  6  1  0
  6  7  1  0
  7  8  1  0
  8  9  1  0
  8 10  2  0
 10 11  1  0
 10 12  1  0
 12 13  2  0
 13 14  1  0
 14 15  1  0
 15 16  2  0
 15 17  1  0
 17 18  1  0
 18 19  1  0
 18 20  1  0
 20 21  2  0
 21 22  1  0
 22 23  2  0
 23 24  1  0
 24 25  2  0
 14 26  2  0
 26 27  1  0
 27 28  2  0
  5 29  1  0
 29 30  2  0
 30  2  1  0
 28  7  1  0
 28 12  1  0
 25 20  1  0
  1 31  1  0
  1 32  1  0
  1 33  1  0
  3 34  1  0
  4 35  1  0
  6 36  1  0
  6 37  1  0
  9 38  1  0
  9 39  1  0
  9 40  1  0
 11 41  1  0
 11 42  1  0
 11 43  1  0
 13 44  1  0
 18 45  1  1
 19 46  1  0
 19 47  1  0
 19 48  1  0
 21 49  1  0
 22 50  1  0
 24 51  1  0
 25 52  1  0
 26 53  1  0
 27 54  1  0
 29 55  1  0
 30 56  1  0
M  CHG  1  17  -1
M  END
>  <UniqueID>  (84) 
79

>  <SMILES>  (84) 
Cc1ccc(Cn2c(C)c(C)c3cc(C(=O)[N-][C@@H](C)c4ccncc4)ccc32)cc1

>  <Energy>  (84) 
89.98542884241948

>  <Genealogy>  (84) 
Cc1ccc(Cn2c(C)c(C)c3cc(C(=O)[N-]C(C)c4ccncc4)ccc32)cc1 (protonated)
Cc1ccc(Cn2c(C)c(C)c3cc(C(=O)[N-][C@@H](C)c4ccncc4)ccc32)cc1 (chirality)
Cc1ccc(Cn2c(C)c(C)c3cc(C(=O)[N-][C@@H](C)c4ccncc4)ccc32)cc1 (3D coordinates assigned)
Cc1ccc(Cn2c(C)c(C)c3cc(C(=O)[N-][C@@H](C)c4ccncc4)ccc32)cc1 (optimized conformer: 89.98542884241948 kcal/mol)

>  <smiles>  (84) 
Cc1ccc(Cn2c(C)c(C)c3cc(C(=O)NC(C)c4ccncc4)ccc32)cc1

>  <score_type>  (84) 
oracle

>  <origin>  (84) 
adg

>  <m_score__min__energy>  (84) 
-10.69

>  <m_primary>  (84) 
energy

$$$$
84:0
     RDKit          3D

 47 49  0  0  0  0  0  0  0  0999 V2000
   55.7400   24.2190   44.5130 C   0  0  0  0  0  0  0  0  0  0  0  0
   54.9470   24.8040   45.9930 S   0  0  0  0  0  0  0  0  0  0  0  0
   53.8460   25.7580   45.6240 O   0  0  0  0  0  0  0  0  0  0  0  0
   54.3800   23.6240   46.7300 O   0  0  0  0  0  0  0  0  0  0  0  0
   56.1280   25.6090   46.9760 N   0  0  0  0  0  0  0  0  0  0  0  0
   57.3070   26.2860   46.5160 C   0  0  0  0  0  0  0  0  0  0  0  0
   58.5420   25.7240   46.8510 C   0  0  0  0  0  0  0  0  0  0  0  0
   59.7300   26.3530   46.4930 C   0  0  0  0  0  0  0  0  0  0  0  0
   59.7010   27.5360   45.7590 C   0  0  0  0  0  0  0  0  0  0  0  0
   58.4770   28.0860   45.3210 C   0  0  0  0  0  0  0  0  0  0  0  0
   58.4540   29.3350   44.4520 C   0  0  0  0  0  0  0  0  0  0  0  0
   58.5960   30.6360   45.2240 C   0  0  0  0  0  0  0  0  0  0  0  0
   59.7350   30.9040   46.0210 C   0  0  0  0  0  0  0  0  0  0  0  0
   60.8210   29.9770   46.1340 N   0  0  0  0  0  0  0  0  0  0  0  0
   59.7970   32.0620   46.7280 N   0  0  0  0  0  0  0  0  0  0  0  0
   58.7910   32.9700   46.6930 C   0  0  0  0  0  0  0  0  0  0  0  0
   58.8930   34.4430   47.7050 S   0  0  0  0  0  0  0  0  0  0  0  0
   60.0190   33.7030   48.9470 C   0  0  0  0  0  0  0  0  0  0  0  0
   59.2550   33.1370   50.1170 C   0  0  0  0  0  0  0  0  0  0  0  0
   59.2450   33.8090   51.3510 C   0  0  0  0  0  0  0  0  0  0  0  0
   58.4900   33.3110   52.4190 C   0  0  0  0  0  0  0  0  0  0  0  0
   57.7400   32.1410   52.2640 C   0  0  0  0  0  0  0  0  0  0  0  0
   57.0060   31.6610   53.3000 F   0  0  0  0  0  0  0  0  0  0  0  0
   57.7450   31.4660   51.0400 C   0  0  0  0  0  0  0  0  0  0  0  0
   58.5020   31.9610   49.9690 C   0  0  0  0  0  0  0  0  0  0  0  0
   57.6890   32.7380   45.9380 N   0  0  0  0  0  0  0  0  0  0  0  0
   57.5660   31.6000   45.2090 C   0  0  0  0  0  0  0  0  0  0  0  0
   56.5170   31.4190   44.5320 O   0  0  0  0  0  0  0  0  0  0  0  0
   57.2640   27.4700   45.7360 C   0  0  0  0  0  0  0  0  0  0  0  0
   56.0240   28.0020   45.3750 O   0  0  0  0  0  0  0  0  0  0  0  0
   56.5982   23.5859   44.7826 H   0  0  0  0  0  0  0  0  0  0  0  0
   55.0230   23.6318   43.9204 H   0  0  0  0  0  0  0  0  0  0  0  0
   56.0894   25.0774   43.9204 H   0  0  0  0  0  0  0  0  0  0  0  0
   58.5750   24.7737   47.4039 H   0  0  0  0  0  0  0  0  0  0  0  0
   60.6942   25.9150   46.7903 H   0  0  0  0  0  0  0  0  0  0  0  0
   60.6439   28.0484   45.5174 H   0  0  0  0  0  0  0  0  0  0  0  0
   59.2831   29.2692   43.7321 H   0  0  0  0  0  0  0  0  0  0  0  0
   57.4675   29.3628   43.9662 H   0  0  0  0  0  0  0  0  0  0  0  0
   61.3690   29.6470   45.3110 H   0  0  0  0  0  0  0  0  0  0  0  0
   61.0800   29.5980   47.0710 H   0  0  0  0  0  0  0  0  0  0  0  0
   60.5946   32.8952   48.4714 H   0  0  0  0  0  0  0  0  0  0  0  0
   60.6877   34.4925   49.3206 H   0  0  0  0  0  0  0  0  0  0  0  0
   59.8328   34.7300   51.4781 H   0  0  0  0  0  0  0  0  0  0  0  0
   58.4865   33.8413   53.3827 H   0  0  0  0  0  0  0  0  0  0  0  0
   57.1547   30.5460   50.9171 H   0  0  0  0  0  0  0  0  0  0  0  0
   58.5062   31.4257   49.0081 H   0  0  0  0  0  0  0  0  0  0  0  0
   55.1510   27.4920   45.4140 H   0  0  0  0  0  0  0  0  0  0  0  0
  1  2  1  0
  2  3  2  0
  2  4  2  0
  2  5  1  0
  5  6  1  0
  6  7  2  0
  7  8  1  0
  8  9  2  0
  9 10  1  0
 10 11  1  0
 11 12  1  0
 12 13  2  0
 13 14  1  0
 13 15  1  0
 15 16  1  0
 16 17  1  0
 17 18  1  0
 18 19  1  0
 19 20  2  0
 20 21  1  0
 21 22  2  0
 22 23  1  0
 22 24  1  0
 24 25  2  0
 16 26  2  0
 26 27  1  0
 27 28  2  0
 10 29  2  0
 29 30  1  0
 29  6  1  0
 27 12  1  0
 25 19  1  0
  1 31  1  0
  1 32  1  0
  1 33  1  0
  7 34  1  0
  8 35  1  0
  9 36  1  0
 11 37  1  0
 11 38  1  0
 14 39  1  0
 14 40  1  0
 18 41  1  0
 18 42  1  0
 20 43  1  0
 21 44  1  0
 24 45  1  0
 25 46  1  0
 30 47  1  0
M  CHG  2   5  -1  15  -1
M  END
>  <UniqueID>  (85) 
80

>  <SMILES>  (85) 
CS(=O)(=O)[N-]c1cccc(Cc2c(N)[n-]c(SCc3ccc(F)cc3)nc2=O)c1O

>  <Energy>  (85) 
52.75607530978351

>  <Genealogy>  (85) 
CS(=O)(=O)[N-]c1cccc(Cc2c(N)[n-]c(SCc3ccc(F)cc3)nc2=O)c1O (protonated)
CS(=O)(=O)[N-]c1cccc(Cc2c(N)[n-]c(SCc3ccc(F)cc3)nc2=O)c1O (3D coordinates assigned)
CS(=O)(=O)[N-]c1cccc(Cc2c(N)[n-]c(SCc3ccc(F)cc3)nc2=O)c1O (optimized conformer: 52.75607530978351 kcal/mol)

>  <smiles>  (85) 
CS(=O)(=O)Nc1cccc(Cc2c(N)[nH]c(SCc3ccc(F)cc3)nc2=O)c1O

>  <score_type>  (85) 
oracle

>  <origin>  (85) 
adg

>  <m_score__min__energy>  (85) 
-12.59

>  <m_primary>  (85) 
energy

$$$$
85:0
     RDKit          3D

 31 32  0  0  0  0  0  0  0  0999 V2000
   58.6358   35.5099   46.4062 H   0  0  0  0  0  0  0  0  0  0  0  0
   58.5160   34.4170   46.4420 C   0  0  0  0  0  0  0  0  0  0  0  0
   57.7160   33.7910   45.5410 N   0  0  0  0  0  0  0  0  0  0  0  0
   57.5400   32.4400   45.5390 C   0  0  0  0  0  0  0  0  0  0  0  0
   56.7750   31.8490   44.6650 N   0  0  0  0  0  0  0  0  0  0  0  0
   56.4950   30.4460   44.4990 C   0  0  0  0  0  0  0  0  0  0  0  0
   55.2910   30.0780   44.4760 O   0  0  0  0  0  0  0  0  0  0  0  0
   57.5660   29.3920   44.4020 C   0  0  0  0  0  0  0  0  0  0  0  0
   57.9902   29.3986   43.3871 H   0  0  0  0  0  0  0  0  0  0  0  0
   58.3506   29.6115   45.1410 H   0  0  0  0  0  0  0  0  0  0  0  0
   57.0070   28.0700   44.6820 N   0  0  0  0  0  0  0  0  0  0  0  0
   55.9850   27.9160   44.5230 H   0  0  0  0  0  0  0  0  0  0  0  0
   57.8410   26.9350   44.9580 C   0  0  0  0  0  0  0  0  0  0  0  0
   59.0850   27.0110   44.7610 O   0  0  0  0  0  0  0  0  0  0  0  0
   57.2610   25.6640   45.4480 C   0  0  0  0  0  0  0  0  0  0  0  0
   58.0610   24.5070   45.4780 C   0  0  0  0  0  0  0  0  0  0  0  0
   59.1061   24.5582   45.1387 H   0  0  0  0  0  0  0  0  0  0  0  0
   57.5400   23.2930   45.9350 C   0  0  0  0  0  0  0  0  0  0  0  0
   58.1727   22.3933   45.9479 H   0  0  0  0  0  0  0  0  0  0  0  0
   56.2170   23.2220   46.3750 C   0  0  0  0  0  0  0  0  0  0  0  0
   55.8057   22.2644   46.7268 H   0  0  0  0  0  0  0  0  0  0  0  0
   55.4160   24.3640   46.3690 C   0  0  0  0  0  0  0  0  0  0  0  0
   54.3755   24.3046   46.7210 H   0  0  0  0  0  0  0  0  0  0  0  0
   55.9300   25.5860   45.9170 C   0  0  0  0  0  0  0  0  0  0  0  0
   55.1180   26.7130   45.9670 O   0  0  0  0  0  0  0  0  0  0  0  0
   58.1880   31.6640   46.5090 C   0  0  0  0  0  0  0  0  0  0  0  0
   58.0455   30.5735   46.5322 H   0  0  0  0  0  0  0  0  0  0  0  0
   59.0170   32.2860   47.4470 C   0  0  0  0  0  0  0  0  0  0  0  0
   59.5345   31.6849   48.2091 H   0  0  0  0  0  0  0  0  0  0  0  0
   59.1870   33.6710   47.4150 C   0  0  0  0  0  0  0  0  0  0  0  0
   60.2280   34.4660   48.5800 Cl  0  0  0  0  0  0  0  0  0  0  0  0
  1  2  1  0
  2  3  1  0
  3  4  1  0
  4  5  2  0
  5  6  1  0
  6  7  2  0
  6  8  1  0
  8  9  1  0
  8 10  1  0
  8 11  1  0
 11 12  1  0
 11 13  1  0
 13 14  2  0
 13 15  1  0
 15 16  2  0
 16 17  1  0
 16 18  1  0
 18 19  1  0
 18 20  2  0
 20 21  1  0
 20 22  1  0
 22 23  1  0
 22 24  2  0
 24 25  1  0
  4 26  1  0
 26 27  1  0
 26 28  2  0
 28 29  1  0
 28 30  1  0
 30 31  1  0
 30  2  2  0
 24 15  1  0
M  CHG  2   3  -1  25  -1
M  END
>  <UniqueID>  (86) 
81

>  <SMILES>  (86) 
O=C(CNC(=O)c1ccccc1[O-])/N=c1/ccc(Cl)c[n-]1

>  <Energy>  (86) 
38.02885198503142

>  <Genealogy>  (86) 
O=C(CNC(=O)c1ccccc1[O-])N=c1ccc(Cl)c[n-]1 (protonated)
O=C(CNC(=O)c1ccccc1[O-])/N=c1/ccc(Cl)c[n-]1 (cis-trans isomerization)
O=C(CNC(=O)c1ccccc1[O-])/N=c1/ccc(Cl)c[n-]1 (3D coordinates assigned)
O=C(CNC(=O)c1ccccc1[O-])/N=c1/ccc(Cl)c[n-]1 (optimized conformer: 38.02885198503142 kcal/mol)

>  <smiles>  (86) 
O=C(CNC(=O)c1ccccc1O)N=c1ccc(Cl)c[nH]1

>  <score_type>  (86) 
oracle

>  <origin>  (86) 
adg

>  <m_score__min__energy>  (86) 
-13.25

>  <m_primary>  (86) 
energy

$$$$
86:0
     RDKit          3D

 68 70  0  0  0  0  0  0  0  0999 V2000
   58.6010   34.0370   45.0430 C   0  0  0  0  0  0  0  0  0  0  0  0
   57.4290   33.5090   45.8690 C   0  0  0  0  0  0  0  0  0  0  0  0
   57.1080   32.1870   45.4770 O   0  0  0  0  0  0  0  0  0  0  0  0
   57.7620   31.8360   44.2680 C   0  0  0  0  0  0  0  0  0  0  0  0
   57.2570   30.4710   43.8060 C   0  0  0  0  0  0  0  0  0  0  0  0
   56.8310   29.6030   44.9980 C   0  0  0  0  0  0  0  0  0  0  0  0
   57.8480   29.6480   46.0450 N   0  0  0  0  0  0  0  0  0  0  0  0
   58.1750   28.5030   46.8460 C   0  0  0  0  0  0  0  0  0  0  0  0
   57.5220   27.4310   46.7160 O   0  0  0  0  0  0  0  0  0  0  0  0
   59.2590   28.6080   47.8820 C   0  0  0  0  0  0  0  0  0  0  0  0
   59.1400   29.8750   48.6990 C   0  0  0  0  0  0  0  0  0  0  0  0
   58.4900   29.8320   49.9280 C   0  0  0  0  0  0  0  0  0  0  0  0
   58.3070   30.9940   50.6920 C   0  0  0  0  0  0  0  0  0  0  0  0
   57.5230   30.9190   52.0070 C   0  0  1  0  0  0  0  0  0  0  0  0
   56.8890   32.1490   52.2640 O   0  0  0  0  0  0  0  0  0  0  0  0
   56.5160   29.8230   51.9970 N   0  0  0  0  0  0  0  0  0  0  0  0
   56.5490   28.9620   53.2050 C   0  0  0  0  0  0  0  0  0  0  0  0
   55.3500   29.1920   54.1390 C   0  0  0  0  0  0  0  0  0  0  0  0
   54.9530   30.5420   54.0930 O   0  0  0  0  0  0  0  0  0  0  0  0
   54.3590   30.8290   52.8420 C   0  0  0  0  0  0  0  0  0  0  0  0
   55.1440   30.2540   51.6370 C   0  0  0  0  0  0  0  0  0  0  0  0
   58.9410   32.1900   50.2500 C   0  0  0  0  0  0  0  0  0  0  0  0
   59.0210   33.3870   51.1790 C   0  0  0  0  0  0  0  0  0  0  0  0
   59.4800   32.2470   48.9760 N   0  0  0  0  0  0  0  0  0  0  0  0
   59.9360   33.5260   48.3780 C   0  0  0  0  0  0  0  0  0  0  0  0
   61.4090   33.4980   48.0350 C   0  0  0  0  0  0  0  0  0  0  0  0
   61.8230   33.8240   46.7300 C   0  0  0  0  0  0  0  0  0  0  0  0
   63.1800   33.8240   46.3970 C   0  0  0  0  0  0  0  0  0  0  0  0
   64.1380   33.5030   47.3640 C   0  0  0  0  0  0  0  0  0  0  0  0
   63.7410   33.1940   48.6670 C   0  0  0  0  0  0  0  0  0  0  0  0
   62.3840   33.2000   49.0060 C   0  0  0  0  0  0  0  0  0  0  0  0
   59.5870   31.1090   48.2100 C   0  0  0  0  0  0  0  0  0  0  0  0
   60.0960   31.1670   47.0550 O   0  0  0  0  0  0  0  0  0  0  0  0
   59.3934   34.3940   45.7173 H   0  0  0  0  0  0  0  0  0  0  0  0
   58.9956   33.2297   44.4085 H   0  0  0  0  0  0  0  0  0  0  0  0
   58.2578   34.8674   44.4085 H   0  0  0  0  0  0  0  0  0  0  0  0
   57.7038   33.5151   46.9341 H   0  0  0  0  0  0  0  0  0  0  0  0
   56.5540   34.1543   45.7020 H   0  0  0  0  0  0  0  0  0  0  0  0
   57.5425   32.5901   43.4979 H   0  0  0  0  0  0  0  0  0  0  0  0
   58.8487   31.7932   44.4329 H   0  0  0  0  0  0  0  0  0  0  0  0
   56.3932   30.6147   43.1402 H   0  0  0  0  0  0  0  0  0  0  0  0
   58.0741   29.9586   43.2770 H   0  0  0  0  0  0  0  0  0  0  0  0
   55.8790   29.9801   45.4000 H   0  0  0  0  0  0  0  0  0  0  0  0
   56.7108   28.5633   44.6595 H   0  0  0  0  0  0  0  0  0  0  0  0
   58.3110   30.5620   46.2490 H   0  0  0  0  0  0  0  0  0  0  0  0
   59.1903   27.7422   48.5571 H   0  0  0  0  0  0  0  0  0  0  0  0
   60.2271   28.6295   47.3602 H   0  0  0  0  0  0  0  0  0  0  0  0
   58.1132   28.8706   50.3071 H   0  0  0  0  0  0  0  0  0  0  0  0
   58.2453   30.7002   52.8073 H   0  0  0  0  0  0  0  0  0  0  0  0
   56.2800   32.0040   53.0370 H   0  0  0  0  0  0  0  0  0  0  0  0
   56.5477   27.9094   52.8855 H   0  0  0  0  0  0  0  0  0  0  0  0
   57.4586   29.2190   53.7677 H   0  0  0  0  0  0  0  0  0  0  0  0
   54.5121   28.5552   53.8190 H   0  0  0  0  0  0  0  0  0  0  0  0
   55.6416   28.9373   55.1686 H   0  0  0  0  0  0  0  0  0  0  0  0
   53.3452   30.4023   52.8322 H   0  0  0  0  0  0  0  0  0  0  0  0
   54.3531   31.9234   52.7309 H   0  0  0  0  0  0  0  0  0  0  0  0
   54.5954   29.3862   51.2422 H   0  0  0  0  0  0  0  0  0  0  0  0
   55.2346   31.0550   50.8886 H   0  0  0  0  0  0  0  0  0  0  0  0
   58.9980   33.0427   52.2235 H   0  0  0  0  0  0  0  0  0  0  0  0
   59.9576   33.9332   50.9935 H   0  0  0  0  0  0  0  0  0  0  0  0
   58.1654   34.0529   50.9935 H   0  0  0  0  0  0  0  0  0  0  0  0
   59.3609   33.7134   47.4592 H   0  0  0  0  0  0  0  0  0  0  0  0
   59.7747   34.3236   49.1181 H   0  0  0  0  0  0  0  0  0  0  0  0
   61.0733   34.0805   45.9671 H   0  0  0  0  0  0  0  0  0  0  0  0
   63.4950   34.0766   45.3738 H   0  0  0  0  0  0  0  0  0  0  0  0
   65.2053   33.4939   47.0981 H   0  0  0  0  0  0  0  0  0  0  0  0
   64.4962   32.9457   49.4273 H   0  0  0  0  0  0  0  0  0  0  0  0
   62.0768   32.9706   50.0370 H   0  0  0  0  0  0  0  0  0  0  0  0
  1  2  1  0
  2  3  1  0
  3  4  1  0
  4  5  1  0
  5  6  1  0
  6  7  1  0
  7  8  1  0
  8  9  2  0
  8 10  1  0
 10 11  1  0
 11 12  2  0
 12 13  1  0
 13 14  1  0
 14 15  1  0
 14 16  1  0
 16 17  1  0
 17 18  1  0
 18 19  1  0
 19 20  1  0
 20 21  1  0
 13 22  2  0
 22 23  1  0
 22 24  1  0
 24 25  1  0
 25 26  1  0
 26 27  2  0
 27 28  1  0
 28 29  2  0
 29 30  1  0
 30 31  2  0
 24 32  1  0
 32 33  2  0
 32 11  1  0
 21 16  1  0
 31 26  1  0
  1 34  1  0
  1 35  1  0
  1 36  1  0
  2 37  1  0
  2 38  1  0
  4 39  1  0
  4 40  1  0
  5 41  1  0
  5 42  1  0
  6 43  1  0
  6 44  1  0
  7 45  1  0
 10 46  1  0
 10 47  1  0
 12 48  1  0
 14 49  1  1
 15 50  1  0
 17 51  1  0
 17 52  1  0
 18 53  1  0
 18 54  1  0
 20 55  1  0
 20 56  1  0
 21 57  1  0
 21 58  1  0
 23 59  1  0
 23 60  1  0
 23 61  1  0
 25 62  1  0
 25 63  1  0
 27 64  1  0
 28 65  1  0
 29 66  1  0
 30 67  1  0
 31 68  1  0
M  END
>  <UniqueID>  (87) 
82

>  <SMILES>  (87) 
CCOCCCNC(=O)Cc1cc([C@@H](O)N2CCOCC2)c(C)n(Cc2ccccc2)c1=O

>  <Energy>  (87) 
91.90970397369401

>  <Genealogy>  (87) 
CCOCCCNC(=O)Cc1cc([C@@H](O)N2CCOCC2)c(C)n(Cc2ccccc2)c1=O (chirality)
CCOCCCNC(=O)Cc1cc([C@@H](O)N2CCOCC2)c(C)n(Cc2ccccc2)c1=O (3D coordinates assigned)
CCOCCCNC(=O)Cc1cc([C@@H](O)N2CCOCC2)c(C)n(Cc2ccccc2)c1=O (nonaromatic ring conformer: 91.90970397369401 kcal/mol)

>  <smiles>  (87) 
CCOCCCNC(=O)Cc1cc(C(O)N2CCOCC2)c(C)n(Cc2ccccc2)c1=O

>  <score_type>  (87) 
oracle

>  <origin>  (87) 
adg

>  <m_score__min__energy>  (87) 
-8.5899999999999999

>  <m_primary>  (87) 
energy

$$$$
87:0
     RDKit          3D

 33 34  0  0  0  0  0  0  0  0999 V2000
   59.3680   34.9600   46.1350 C   0  0  0  0  0  0  0  0  0  0  0  0
   58.6160   34.5580   44.8710 C   0  0  0  0  0  0  0  0  0  0  0  0
   57.2700   33.9050   45.2050 C   0  0  0  0  0  0  0  0  0  0  0  0
   57.4670   32.4700   45.5830 C   0  0  0  0  0  0  0  0  0  0  0  0
   58.3310   32.1690   46.4480 O   0  0  0  0  0  0  0  0  0  0  0  0
   56.7470   31.4500   44.8780 N   0  0  0  0  0  0  0  0  0  0  0  0
   57.1460   30.0770   44.7440 C   0  0  0  0  0  0  0  0  0  0  0  0
   57.3220   29.5490   43.4570 C   0  0  0  0  0  0  0  0  0  0  0  0
   57.7160   28.2190   43.2870 C   0  0  0  0  0  0  0  0  0  0  0  0
   57.9390   27.4030   44.4010 C   0  0  0  0  0  0  0  0  0  0  0  0
   57.7610   27.9110   45.6970 C   0  0  0  0  0  0  0  0  0  0  0  0
   57.9800   27.0210   46.8980 C   0  0  0  0  0  0  0  0  0  0  0  0
   57.1590   25.7670   46.8080 C   0  0  0  0  0  0  0  0  0  0  0  0
   57.6060   24.5440   47.1440 N   0  0  0  0  0  0  0  0  0  0  0  0
   56.5420   23.7440   46.9110 C   0  0  0  0  0  0  0  0  0  0  0  0
   56.5740   22.1320   47.1720 S   0  0  0  0  0  0  0  0  0  0  0  0
   55.4510   24.3860   46.4350 N   0  0  0  0  0  0  0  0  0  0  0  0
   55.8550   25.6650   46.3850 C   0  0  0  0  0  0  0  0  0  0  0  0
   55.0540   26.7130   45.9470 O   0  0  0  0  0  0  0  0  0  0  0  0
   57.3330   29.2420   45.8620 C   0  0  0  0  0  0  0  0  0  0  0  0
   58.7906   34.6514   47.0190 H   0  0  0  0  0  0  0  0  0  0  0  0
   60.3514   34.4673   46.1490 H   0  0  0  0  0  0  0  0  0  0  0  0
   59.5045   36.0514   46.1490 H   0  0  0  0  0  0  0  0  0  0  0  0
   58.4368   35.4553   44.2605 H   0  0  0  0  0  0  0  0  0  0  0  0
   59.2282   33.8278   44.3213 H   0  0  0  0  0  0  0  0  0  0  0  0
   56.8056   34.4410   46.0458 H   0  0  0  0  0  0  0  0  0  0  0  0
   56.6191   33.9552   44.3197 H   0  0  0  0  0  0  0  0  0  0  0  0
   57.1490   30.1851   42.5764 H   0  0  0  0  0  0  0  0  0  0  0  0
   57.8512   27.8125   42.2738 H   0  0  0  0  0  0  0  0  0  0  0  0
   58.2552   26.3588   44.2606 H   0  0  0  0  0  0  0  0  0  0  0  0
   59.0444   26.7487   46.9523 H   0  0  0  0  0  0  0  0  0  0  0  0
   57.6716   27.5726   47.7983 H   0  0  0  0  0  0  0  0  0  0  0  0
   57.1432   29.6327   46.8726 H   0  0  0  0  0  0  0  0  0  0  0  0
  1  2  1  0
  2  3  1  0
  3  4  1  0
  4  5  2  0
  4  6  1  0
  6  7  1  0
  7  8  2  0
  8  9  1  0
  9 10  2  0
 10 11  1  0
 11 12  1  0
 12 13  1  0
 13 14  1  0
 14 15  1  0
 15 16  2  0
 15 17  1  0
 17 18  1  0
 18 19  1  0
 11 20  2  0
 20  7  1  0
 18 13  2  0
  1 21  1  0
  1 22  1  0
  1 23  1  0
  2 24  1  0
  2 25  1  0
  3 26  1  0
  3 27  1  0
  8 28  1  0
  9 29  1  0
 10 30  1  0
 12 31  1  0
 12 32  1  0
 20 33  1  0
M  CHG  4   6  -1  14  -1  17  -1  19  -1
M  END
>  <UniqueID>  (88) 
83

>  <SMILES>  (88) 
CCCC(=O)[N-]c1cccc(Cc2[n-]c(=S)[n-]c2[O-])c1

>  <Energy>  (88) 
58.309246415041414

>  <Genealogy>  (88) 
CCCC(=O)[N-]c1cccc(Cc2[n-]c(=S)[n-]c2[O-])c1 (protonated)
CCCC(=O)[N-]c1cccc(Cc2[n-]c(=S)[n-]c2[O-])c1 (3D coordinates assigned)
CCCC(=O)[N-]c1cccc(Cc2[n-]c(=S)[n-]c2[O-])c1 (optimized conformer: 58.309246415041414 kcal/mol)

>  <smiles>  (88) 
CCCC(=O)Nc1cccc(Cc2[nH]c(=S)[nH]c2O)c1

>  <score_type>  (88) 
oracle

>  <origin>  (88) 
adg

>  <m_score__min__energy>  (88) 
-16.07

>  <m_primary>  (88) 
energy

$$$$
88:0
     RDKit          3D

 43 45  0  0  0  0  0  0  0  0999 V2000
   59.6090   28.7220   48.6630 C   0  0  0  0  0  0  0  0  0  0  0  0
   59.3240   28.7060   47.1950 C   0  0  0  0  0  0  0  0  0  0  0  0
   60.2630   28.1840   46.2970 C   0  0  0  0  0  0  0  0  0  0  0  0
   59.9780   28.1860   44.9310 C   0  0  0  0  0  0  0  0  0  0  0  0
   58.7670   28.7110   44.4730 C   0  0  0  0  0  0  0  0  0  0  0  0
   57.8460   29.2310   45.3980 C   0  0  0  0  0  0  0  0  0  0  0  0
   56.5580   29.7950   44.9600 C   0  0  0  0  0  0  0  0  0  0  0  0
   55.5370   29.0590   44.8780 O   0  0  0  0  0  0  0  0  0  0  0  0
   56.4650   31.1980   44.6760 N   0  0  0  0  0  0  0  0  0  0  0  0
   57.3900   32.2130   45.0910 C   0  0  0  0  0  0  0  0  0  0  0  0
   57.7810   33.1870   44.1640 C   0  0  0  0  0  0  0  0  0  0  0  0
   58.6760   34.1940   44.5310 C   0  0  0  0  0  0  0  0  0  0  0  0
   59.1750   34.2480   45.8350 C   0  0  0  0  0  0  0  0  0  0  0  0
   58.7640   33.3020   46.7830 C   0  0  0  0  0  0  0  0  0  0  0  0
   59.3970   33.3720   48.4270 S   0  0  0  0  0  0  0  0  0  0  0  0
   58.5000   32.5940   49.3520 O   0  0  0  0  0  0  0  0  0  0  0  0
   59.4200   34.8060   48.8800 O   0  0  0  0  0  0  0  0  0  0  0  0
   61.0160   32.7180   48.4720 N   0  0  0  0  0  0  0  0  0  0  0  0
   61.9030   33.6180   49.2340 C   0  0  0  0  0  0  0  0  0  0  0  0
   63.3750   33.3600   48.8750 C   0  0  0  0  0  0  0  0  0  0  0  0
   63.6830   33.5530   47.4990 O   0  0  0  0  0  0  0  0  0  0  0  0
   62.5540   33.4710   46.6420 C   0  0  0  0  0  0  0  0  0  0  0  0
   61.5160   32.4340   47.1080 C   0  0  0  0  0  0  0  0  0  0  0  0
   57.8700   32.2870   46.4110 C   0  0  0  0  0  0  0  0  0  0  0  0
   58.1520   29.2140   46.7260 N   0  0  0  0  0  0  0  0  0  0  0  0
   58.6625   28.6689   49.2209 H   0  0  0  0  0  0  0  0  0  0  0  0
   60.2374   27.8577   48.9239 H   0  0  0  0  0  0  0  0  0  0  0  0
   60.1367   29.6512   48.9239 H   0  0  0  0  0  0  0  0  0  0  0  0
   61.2161   27.7763   46.6648 H   0  0  0  0  0  0  0  0  0  0  0  0
   60.7057   27.7748   44.2159 H   0  0  0  0  0  0  0  0  0  0  0  0
   58.5365   28.7172   43.3974 H   0  0  0  0  0  0  0  0  0  0  0  0
   57.3804   33.1586   43.1399 H   0  0  0  0  0  0  0  0  0  0  0  0
   58.9889   34.9463   43.7920 H   0  0  0  0  0  0  0  0  0  0  0  0
   59.8910   35.0338   46.1174 H   0  0  0  0  0  0  0  0  0  0  0  0
   61.6504   34.6616   48.9951 H   0  0  0  0  0  0  0  0  0  0  0  0
   61.7619   33.4281   50.3083 H   0  0  0  0  0  0  0  0  0  0  0  0
   63.9996   34.0447   49.4675 H   0  0  0  0  0  0  0  0  0  0  0  0
   63.5734   32.3012   49.0975 H   0  0  0  0  0  0  0  0  0  0  0  0
   62.0702   34.4582   46.6049 H   0  0  0  0  0  0  0  0  0  0  0  0
   62.9153   33.1519   45.6532 H   0  0  0  0  0  0  0  0  0  0  0  0
   60.6662   32.4448   46.4097 H   0  0  0  0  0  0  0  0  0  0  0  0
   62.0065   31.4496   47.1261 H   0  0  0  0  0  0  0  0  0  0  0  0
   57.5429   31.5457   47.1549 H   0  0  0  0  0  0  0  0  0  0  0  0
  1  2  1  0
  2  3  2  0
  3  4  1  0
  4  5  2  0
  5  6  1  0
  6  7  1  0
  7  8  2  0
  7  9  1  0
  9 10  1  0
 10 11  2  0
 11 12  1  0
 12 13  2  0
 13 14  1  0
 14 15  1  0
 15 16  2  0
 15 17  2  0
 15 18  1  0
 18 19  1  0
 19 20  1  0
 20 21  1  0
 21 22  1  0
 22 23  1  0
 14 24  2  0
  6 25  2  0
 25  2  1  0
 24 10  1  0
 23 18  1  0
  1 26  1  0
  1 27  1  0
  1 28  1  0
  3 29  1  0
  4 30  1  0
  5 31  1  0
 11 32  1  0
 12 33  1  0
 13 34  1  0
 19 35  1  0
 19 36  1  0
 20 37  1  0
 20 38  1  0
 22 39  1  0
 22 40  1  0
 23 41  1  0
 23 42  1  0
 24 43  1  0
M  CHG  1   9  -1
M  END
>  <UniqueID>  (89) 
84

>  <SMILES>  (89) 
Cc1cccc(C(=O)[N-]c2cccc(S(=O)(=O)N3CCOCC3)c2)n1

>  <Energy>  (89) 
58.929479092446144

>  <Genealogy>  (89) 
Cc1cccc(C(=O)[N-]c2cccc(S(=O)(=O)N3CCOCC3)c2)n1 (protonated)
Cc1cccc(C(=O)[N-]c2cccc(S(=O)(=O)N3CCOCC3)c2)n1 (3D coordinates assigned)
Cc1cccc(C(=O)[N-]c2cccc(S(=O)(=O)N3CCOCC3)c2)n1 (nonaromatic ring conformer: 58.929479092446144 kcal/mol)

>  <smiles>  (89) 
Cc1cccc(C(=O)Nc2cccc(S(=O)(=O)N3CCOCC3)c2)n1

>  <score_type>  (89) 
oracle

>  <origin>  (89) 
adg

>  <m_score__min__energy>  (89) 
-10.52

>  <m_primary>  (89) 
energy

$$$$
89:0
     RDKit          3D

 50 52  0  0  0  0  0  0  0  0999 V2000
   60.0330   28.3480   51.4080 N   0  0  0  0  0  0  0  0  0  0  0  0
   59.4380   29.2600   50.4850 C   0  0  0  0  0  0  0  0  0  0  0  0
   58.2850   29.7100   50.7110 O   0  0  0  0  0  0  0  0  0  0  0  0
   60.1620   29.6670   49.2280 C   0  0  2  0  0  0  0  0  0  0  0  0
   59.1770   30.1790   48.1670 C   0  0  0  0  0  0  0  0  0  0  0  0
   59.4670   31.6030   47.7680 C   0  0  0  0  0  0  0  0  0  0  0  0
   60.6350   31.9120   47.0520 C   0  0  0  0  0  0  0  0  0  0  0  0
   60.9160   33.2350   46.7030 C   0  0  0  0  0  0  0  0  0  0  0  0
   60.0380   34.2580   47.0720 C   0  0  0  0  0  0  0  0  0  0  0  0
   58.8800   33.9610   47.7920 C   0  0  0  0  0  0  0  0  0  0  0  0
   58.5930   32.6390   48.1420 C   0  0  0  0  0  0  0  0  0  0  0  0
   60.8870   28.5250   48.6790 N   0  0  0  0  0  0  0  0  0  0  0  0
   60.3910   27.1810   48.6520 C   0  0  0  0  0  0  0  0  0  0  0  0
   60.1670   26.5620   49.7270 O   0  0  0  0  0  0  0  0  0  0  0  0
   60.1660   26.4940   47.3370 C   0  0  0  0  0  0  0  0  0  0  0  0
   58.9890   27.0590   46.6550 N   0  0  0  0  0  0  0  0  0  0  0  0
   59.1280   28.2380   45.9730 C   0  0  0  0  0  0  0  0  0  0  0  0
   58.0180   28.8730   45.4150 C   0  0  0  0  0  0  0  0  0  0  0  0
   56.7490   28.3010   45.5520 C   0  0  0  0  0  0  0  0  0  0  0  0
   55.5810   28.9320   45.0100 N   0  0  0  0  0  0  0  0  0  0  0  0
   55.5650   29.8530   43.9120 C   0  0  0  0  0  0  0  0  0  0  0  0
   54.6920   29.7110   43.0170 O   0  0  0  0  0  0  0  0  0  0  0  0
   56.5080   30.9890   43.8220 C   0  0  0  0  0  0  0  0  0  0  0  0
   57.2190   31.2600   42.6400 C   0  0  0  0  0  0  0  0  0  0  0  0
   58.1250   32.3250   42.6110 C   0  0  0  0  0  0  0  0  0  0  0  0
   58.3130   33.1070   43.7500 C   0  0  0  0  0  0  0  0  0  0  0  0
   57.6030   32.8010   44.9120 C   0  0  0  0  0  0  0  0  0  0  0  0
   56.7330   31.7550   44.9250 N   0  0  0  0  0  0  0  0  0  0  0  0
   56.6230   27.0780   46.2180 C   0  0  0  0  0  0  0  0  0  0  0  0
   55.3720   26.4800   46.3480 O   0  0  0  0  0  0  0  0  0  0  0  0
   57.7550   26.4700   46.7770 C   0  0  0  0  0  0  0  0  0  0  0  0
   57.6200   25.3850   47.4100 O   0  0  0  0  0  0  0  0  0  0  0  0
   60.9900   27.9630   51.2420 H   0  0  0  0  0  0  0  0  0  0  0  0
   59.5180   28.0670   52.2700 H   0  0  0  0  0  0  0  0  0  0  0  0
   60.8633   30.4733   49.4889 H   0  0  0  0  0  0  0  0  0  0  0  0
   59.2504   29.5385   47.2757 H   0  0  0  0  0  0  0  0  0  0  0  0
   58.1656   30.1462   48.5983 H   0  0  0  0  0  0  0  0  0  0  0  0
   61.3307   31.1097   46.7651 H   0  0  0  0  0  0  0  0  0  0  0  0
   61.8291   33.4720   46.1372 H   0  0  0  0  0  0  0  0  0  0  0  0
   60.2601   35.2990   46.7944 H   0  0  0  0  0  0  0  0  0  0  0  0
   58.1925   34.7684   48.0843 H   0  0  0  0  0  0  0  0  0  0  0  0
   57.6808   32.4081   48.7117 H   0  0  0  0  0  0  0  0  0  0  0  0
   61.0531   26.6302   46.7009 H   0  0  0  0  0  0  0  0  0  0  0  0
   59.9915   25.4234   47.5200 H   0  0  0  0  0  0  0  0  0  0  0  0
   60.1252   28.6893   45.8638 H   0  0  0  0  0  0  0  0  0  0  0  0
   58.1405   29.8202   44.8692 H   0  0  0  0  0  0  0  0  0  0  0  0
   57.0640   30.6394   41.7451 H   0  0  0  0  0  0  0  0  0  0  0  0
   58.6879   32.5452   41.6919 H   0  0  0  0  0  0  0  0  0  0  0  0
   59.0129   33.9554   43.7329 H   0  0  0  0  0  0  0  0  0  0  0  0
   57.7471   33.4066   45.8189 H   0  0  0  0  0  0  0  0  0  0  0  0
  1  2  1  0
  2  3  2  0
  2  4  1  0
  4  5  1  0
  5  6  1  0
  6  7  2  0
  7  8  1  0
  8  9  2  0
  9 10  1  0
 10 11  2  0
  4 12  1  0
 12 13  1  0
 13 14  2  0
 13 15  1  0
 15 16  1  0
 16 17  1  0
 17 18  2  0
 18 19  1  0
 19 20  1  0
 20 21  1  0
 21 22  2  0
 21 23  1  0
 23 24  2  0
 24 25  1  0
 25 26  2  0
 26 27  1  0
 27 28  2  0
 19 29  2  0
 29 30  1  0
 29 31  1  0
 31 32  2  0
 11  6  1  0
 31 16  1  0
 28 23  1  0
  1 33  1  0
  1 34  1  0
  4 35  1  1
  5 36  1  0
  5 37  1  0
  7 38  1  0
  8 39  1  0
  9 40  1  0
 10 41  1  0
 11 42  1  0
 15 43  1  0
 15 44  1  0
 17 45  1  0
 18 46  1  0
 24 47  1  0
 25 48  1  0
 26 49  1  0
 27 50  1  0
M  CHG  3  12  -1  20  -1  30  -1
M  END
>  <UniqueID>  (90) 
85

>  <SMILES>  (90) 
NC(=O)[C@H](Cc1ccccc1)[N-]C(=O)Cn1ccc([N-]C(=O)c2ccccn2)c([O-])c1=O

>  <Energy>  (90) 
53.68993126003138

>  <Genealogy>  (90) 
NC(=O)C(Cc1ccccc1)[N-]C(=O)Cn1ccc([N-]C(=O)c2ccccn2)c([O-])c1=O (protonated)
NC(=O)[C@H](Cc1ccccc1)[N-]C(=O)Cn1ccc([N-]C(=O)c2ccccn2)c([O-])c1=O (chirality)
NC(=O)[C@H](Cc1ccccc1)[N-]C(=O)Cn1ccc([N-]C(=O)c2ccccn2)c([O-])c1=O (3D coordinates assigned)
NC(=O)[C@H](Cc1ccccc1)[N-]C(=O)Cn1ccc([N-]C(=O)c2ccccn2)c([O-])c1=O (optimized conformer: 53.68993126003138 kcal/mol)

>  <smiles>  (90) 
NC(=O)C(Cc1ccccc1)NC(=O)Cn1ccc(NC(=O)c2ccccn2)c(O)c1=O

>  <score_type>  (90) 
oracle

>  <origin>  (90) 
adg

>  <m_score__min__energy>  (90) 
-15.9

>  <m_primary>  (90) 
energy

$$$$
90:0
     RDKit          3D

 28 30  0  0  0  0  0  0  0  0999 V2000
   65.1980   32.7170   49.3910 N   0  0  0  0  0  0  0  0  0  0  0  0
   64.1650   33.1020   48.7120 C   0  0  0  0  0  0  0  0  0  0  0  0
   62.9280   33.4880   49.3180 N   0  0  0  0  0  0  0  0  0  0  0  0
   62.1450   33.8100   48.3370 C   0  0  0  0  0  0  0  0  0  0  0  0
   60.7160   34.2120   48.5270 C   0  0  0  0  0  0  0  0  0  0  0  0
   60.0040   34.2170   47.2080 C   0  0  0  0  0  0  0  0  0  0  0  0
   59.8100   35.3190   46.3810 C   0  0  0  0  0  0  0  0  0  0  0  0
   59.0510   34.9790   45.3140 N   0  0  0  0  0  0  0  0  0  0  0  0
   58.7560   33.6760   45.4670 C   0  0  0  0  0  0  0  0  0  0  0  0
   57.9770   32.8840   44.6250 C   0  0  0  0  0  0  0  0  0  0  0  0
   57.7780   31.5370   44.9870 C   0  0  0  0  0  0  0  0  0  0  0  0
   56.8070   30.4950   43.9630 Cl  0  0  0  0  0  0  0  0  0  0  0  0
   58.3540   31.0240   46.1700 C   0  0  0  0  0  0  0  0  0  0  0  0
   59.1330   31.8490   47.0020 C   0  0  0  0  0  0  0  0  0  0  0  0
   59.3150   33.1770   46.6150 C   0  0  0  0  0  0  0  0  0  0  0  0
   62.8250   33.6280   47.0600 C   0  0  0  0  0  0  0  0  0  0  0  0
   62.3370   33.8360   45.9170 O   0  0  0  0  0  0  0  0  0  0  0  0
   64.1440   33.1730   47.2910 N   0  0  0  0  0  0  0  0  0  0  0  0
   65.0930   32.4050   50.3820 H   0  0  0  0  0  0  0  0  0  0  0  0
   66.1470   32.7150   48.9560 H   0  0  0  0  0  0  0  0  0  0  0  0
   60.2238   33.4980   49.2037 H   0  0  0  0  0  0  0  0  0  0  0  0
   60.6802   35.2226   48.9600 H   0  0  0  0  0  0  0  0  0  0  0  0
   60.2161   36.3240   46.5682 H   0  0  0  0  0  0  0  0  0  0  0  0
   58.7460   35.6090   44.5380 H   0  0  0  0  0  0  0  0  0  0  0  0
   57.5321   33.2972   43.7078 H   0  0  0  0  0  0  0  0  0  0  0  0
   58.1923   29.9708   46.4432 H   0  0  0  0  0  0  0  0  0  0  0  0
   59.5836   31.4598   47.9269 H   0  0  0  0  0  0  0  0  0  0  0  0
   64.8930   32.9410   46.6030 H   0  0  0  0  0  0  0  0  0  0  0  0
  1  2  2  0
  2  3  1  0
  3  4  2  0
  4  5  1  0
  5  6  1  0
  6  7  2  0
  7  8  1  0
  8  9  1  0
  9 10  2  0
 10 11  1  0
 11 12  1  0
 11 13  2  0
 13 14  1  0
 14 15  2  0
  4 16  1  0
 16 17  2  0
 16 18  1  0
 18  2  1  0
 15  6  1  0
 15  9  1  0
  1 19  1  0
  1 20  1  0
  5 21  1  0
  5 22  1  0
  7 23  1  0
  8 24  1  0
 10 25  1  0
 13 26  1  0
 14 27  1  0
 18 28  1  0
M  CHG  1   1   1
M  END
>  <UniqueID>  (91) 
86

>  <SMILES>  (91) 
[NH2+]=C1N=C(Cc2c[nH]c3cc(Cl)ccc23)C(=O)N1

>  <Energy>  (91) 
87.63279459050887

>  <Genealogy>  (91) 
[NH2+]=C1N=C(Cc2c[nH]c3cc(Cl)ccc23)C(=O)N1 (protonated)
[NH2+]=C1N=C(Cc2c[nH]c3cc(Cl)ccc23)C(=O)N1 (3D coordinates assigned)
[NH2+]=C1N=C(Cc2c[nH]c3cc(Cl)ccc23)C(=O)N1 (nonaromatic ring conformer: 87.63279459050887 kcal/mol)

>  <smiles>  (91) 
N=C1N=C(Cc2c[nH]c3cc(Cl)ccc23)C(=O)N1

>  <score_type>  (91) 
oracle

>  <origin>  (91) 
adg

>  <m_score__min__energy>  (91) 
-6.2400000000000002

>  <m_primary>  (91) 
energy

$$$$
91:0
     RDKit          3D

 49 51  0  0  0  0  0  0  0  0999 V2000
   57.6010   32.0430   45.1980 C   0  0  0  0  0  0  0  0  0  0  0  0
   58.4850   32.8520   46.0970 C   0  0  0  0  0  0  0  0  0  0  0  0
   58.4300   34.2530   46.0600 C   0  0  0  0  0  0  0  0  0  0  0  0
   59.2230   35.0120   46.9250 C   0  0  0  0  0  0  0  0  0  0  0  0
   60.0620   34.3800   47.8440 C   0  0  0  0  0  0  0  0  0  0  0  0
   60.1010   32.9800   47.9140 C   0  0  0  0  0  0  0  0  0  0  0  0
   61.0020   32.3160   48.8670 C   0  0  0  0  0  0  0  0  0  0  0  0
   62.1510   31.9790   48.4760 O   0  0  0  0  0  0  0  0  0  0  0  0
   60.6380   32.0700   50.2350 N   0  0  0  0  0  0  0  0  0  0  0  0
   59.8280   30.9690   50.7740 C   0  0  0  0  0  0  0  0  0  0  0  0
   59.9470   29.7440   49.8460 C   0  0  0  0  0  0  0  0  0  0  0  0
   60.4020   30.5910   52.1500 C   0  0  0  0  0  0  0  0  0  0  0  0
   58.3880   31.4070   50.9550 C   0  0  0  0  0  0  0  0  0  0  0  0
   57.7740   31.9200   49.9810 O   0  0  0  0  0  0  0  0  0  0  0  0
   57.7050   31.1660   52.1960 N   0  0  0  0  0  0  0  0  0  0  0  0
   56.4590   30.4780   52.3670 C   0  0  0  0  0  0  0  0  0  0  0  0
   56.3910   29.4370   53.2980 C   0  0  0  0  0  0  0  0  0  0  0  0
   55.2020   28.7260   53.4800 C   0  0  0  0  0  0  0  0  0  0  0  0
   54.0620   29.0690   52.7480 C   0  0  0  0  0  0  0  0  0  0  0  0
   54.1040   30.1350   51.8350 C   0  0  0  0  0  0  0  0  0  0  0  0
   52.8860   30.4810   51.0220 C   0  0  0  0  0  0  0  0  0  0  0  0
   51.9860   31.3810   51.8110 C   0  0  0  0  0  0  0  0  0  0  0  0
   51.7550   31.3010   53.4780 S   0  0  0  0  0  0  0  0  0  0  0  0
   50.5860   32.5070   53.4570 C   0  0  0  0  0  0  0  0  0  0  0  0
   49.9850   32.9310   54.4780 O   0  0  0  0  0  0  0  0  0  0  0  0
   50.3450   32.9750   52.2150 N   0  0  0  0  0  0  0  0  0  0  0  0
   51.1210   32.3430   51.2970 C   0  0  0  0  0  0  0  0  0  0  0  0
   51.0440   32.6440   49.9440 O   0  0  0  0  0  0  0  0  0  0  0  0
   55.3050   30.8370   51.6480 C   0  0  0  0  0  0  0  0  0  0  0  0
   59.3270   32.2190   47.0260 C   0  0  0  0  0  0  0  0  0  0  0  0
   56.9255   31.4248   45.8075 H   0  0  0  0  0  0  0  0  0  0  0  0
   57.0078   32.7176   44.5632 H   0  0  0  0  0  0  0  0  0  0  0  0
   58.2206   31.3925   44.5632 H   0  0  0  0  0  0  0  0  0  0  0  0
   57.7601   34.7563   45.3474 H   0  0  0  0  0  0  0  0  0  0  0  0
   59.1858   36.1105   46.8814 H   0  0  0  0  0  0  0  0  0  0  0  0
   60.6937   34.9811   48.5145 H   0  0  0  0  0  0  0  0  0  0  0  0
   60.0357   28.8312   50.4533 H   0  0  0  0  0  0  0  0  0  0  0  0
   59.0512   29.6765   49.2112 H   0  0  0  0  0  0  0  0  0  0  0  0
   60.8391   29.8502   49.2112 H   0  0  0  0  0  0  0  0  0  0  0  0
   59.7640   31.0112   52.9414 H   0  0  0  0  0  0  0  0  0  0  0  0
   60.4323   29.4956   52.2463 H   0  0  0  0  0  0  0  0  0  0  0  0
   61.4202   30.9959   52.2463 H   0  0  0  0  0  0  0  0  0  0  0  0
   57.2797   29.1760   53.8913 H   0  0  0  0  0  0  0  0  0  0  0  0
   55.1632   27.8954   54.2002 H   0  0  0  0  0  0  0  0  0  0  0  0
   53.1295   28.5025   52.8874 H   0  0  0  0  0  0  0  0  0  0  0  0
   53.1966   30.9933   50.0995 H   0  0  0  0  0  0  0  0  0  0  0  0
   52.3443   29.5574   50.7698 H   0  0  0  0  0  0  0  0  0  0  0  0
   55.3438   31.6733   50.9345 H   0  0  0  0  0  0  0  0  0  0  0  0
   59.3796   31.1207   47.0572 H   0  0  0  0  0  0  0  0  0  0  0  0
  1  2  1  0
  2  3  2  0
  3  4  1  0
  4  5  2  0
  5  6  1  0
  6  7  1  0
  7  8  2  0
  7  9  1  0
  9 10  1  0
 10 11  1  0
 10 12  1  0
 10 13  1  0
 13 14  2  0
 13 15  1  0
 15 16  1  0
 16 17  2  0
 17 18  1  0
 18 19  2  0
 19 20  1  0
 20 21  1  0
 21 22  1  0
 22 23  1  0
 23 24  1  0
 24 25  2  0
 24 26  1  0
 26 27  1  0
 27 28  1  0
 20 29  2  0
  6 30  2  0
 30  2  1  0
 29 16  1  0
 27 22  2  0
  1 31  1  0
  1 32  1  0
  1 33  1  0
  3 34  1  0
  4 35  1  0
  5 36  1  0
 11 37  1  0
 11 38  1  0
 11 39  1  0
 12 40  1  0
 12 41  1  0
 12 42  1  0
 17 43  1  0
 18 44  1  0
 19 45  1  0
 21 46  1  0
 21 47  1  0
 29 48  1  0
 30 49  1  0
M  CHG  4   9  -1  15  -1  26  -1  28  -1
M  END
>  <UniqueID>  (92) 
87

>  <SMILES>  (92) 
Cc1cccc(C(=O)[N-]C(C)(C)C(=O)[N-]c2cccc(Cc3sc(=O)[n-]c3[O-])c2)c1

>  <Energy>  (92) 
85.16206077556373

>  <Genealogy>  (92) 
Cc1cccc(C(=O)[N-]C(C)(C)C(=O)[N-]c2cccc(Cc3sc(=O)[n-]c3[O-])c2)c1 (protonated)
Cc1cccc(C(=O)[N-]C(C)(C)C(=O)[N-]c2cccc(Cc3sc(=O)[n-]c3[O-])c2)c1 (3D coordinates assigned)
Cc1cccc(C(=O)[N-]C(C)(C)C(=O)[N-]c2cccc(Cc3sc(=O)[n-]c3[O-])c2)c1 (optimized conformer: 85.16206077556373 kcal/mol)

>  <smiles>  (92) 
Cc1cccc(C(=O)NC(C)(C)C(=O)Nc2cccc(Cc3sc(=O)[nH]c3O)c2)c1

>  <score_type>  (92) 
oracle

>  <origin>  (92) 
adg

>  <m_score__min__energy>  (92) 
-18.760000000000002

>  <m_primary>  (92) 
energy

$$$$
92:0
     RDKit          3D

 59 62  0  0  0  0  0  0  0  0999 V2000
   58.1290   26.7780   42.9810 O   0  0  0  0  0  0  0  0  0  0  0  0
   58.3610   27.8060   43.6700 C   0  0  0  0  0  0  0  0  0  0  0  0
   57.3540   28.9240   43.6900 C   0  0  0  0  0  0  0  0  0  0  0  0
   57.9540   30.1430   44.2320 N   0  0  0  0  0  0  0  0  0  0  0  0
   57.1640   31.2580   44.6770 C   0  0  0  0  0  0  0  0  0  0  0  0
   55.9070   31.1600   44.7070 O   0  0  0  0  0  0  0  0  0  0  0  0
   57.8040   32.5200   45.1200 C   0  0  0  0  0  0  0  0  0  0  0  0
   58.5840   33.2690   44.2190 C   0  0  0  0  0  0  0  0  0  0  0  0
   59.1960   34.4580   44.6270 C   0  0  0  0  0  0  0  0  0  0  0  0
   59.0460   34.9080   45.9410 C   0  0  0  0  0  0  0  0  0  0  0  0
   59.6420   36.0600   46.3370 F   0  0  0  0  0  0  0  0  0  0  0  0
   58.2850   34.1680   46.8490 C   0  0  0  0  0  0  0  0  0  0  0  0
   57.6690   32.9780   46.4450 C   0  0  0  0  0  0  0  0  0  0  0  0
   59.5720   27.8650   44.4350 N   0  0  0  0  0  0  0  0  0  0  0  0
   59.6900   28.3060   45.7940 C   0  0  0  0  0  0  0  0  0  0  0  0
   60.5710   29.3570   46.1020 C   0  0  0  0  0  0  0  0  0  0  0  0
   60.7420   29.7880   47.4200 C   0  0  0  0  0  0  0  0  0  0  0  0
   61.7940   31.1540   47.7830 S   0  0  0  0  0  0  0  0  0  0  0  0
   62.3790   30.9570   49.1550 O   0  0  0  0  0  0  0  0  0  0  0  0
   62.9220   31.2090   46.7880 O   0  0  0  0  0  0  0  0  0  0  0  0
   60.8730   32.6430   47.7450 N   0  0  0  0  0  0  0  0  0  0  0  0
   61.7650   33.8030   47.6290 C   0  0  0  0  0  0  0  0  0  0  0  0
   62.0810   34.2980   49.0320 C   0  0  0  0  0  0  0  0  0  0  0  0
   61.0220   33.6820   49.9260 C   0  0  0  0  0  0  0  0  0  0  0  0
   60.1540   32.8310   49.0090 C   0  0  0  0  0  0  0  0  0  0  0  0
   60.0540   29.1460   48.4480 C   0  0  0  0  0  0  0  0  0  0  0  0
   59.2070   28.0740   48.1660 C   0  0  0  0  0  0  0  0  0  0  0  0
   59.0010   27.6340   46.8400 C   0  0  0  0  0  0  0  0  0  0  0  0
   58.0860   26.5360   46.5830 N   0  0  0  0  0  0  0  0  0  0  0  0
   56.6560   26.7160   46.3600 C   0  0  0  0  0  0  0  0  0  0  0  0
   56.0820   25.3200   46.1840 C   0  0  0  0  0  0  0  0  0  0  0  0
   57.2660   24.4520   45.7830 C   0  0  0  0  0  0  0  0  0  0  0  0
   58.4850   25.1500   46.3660 C   0  0  0  0  0  0  0  0  0  0  0  0
   57.0063   29.1166   42.6643 H   0  0  0  0  0  0  0  0  0  0  0  0
   56.5076   28.6296   44.3279 H   0  0  0  0  0  0  0  0  0  0  0  0
   58.9800   30.1260   44.4250 H   0  0  0  0  0  0  0  0  0  0  0  0
   58.7131   32.9159   43.1852 H   0  0  0  0  0  0  0  0  0  0  0  0
   59.7965   35.0400   43.9123 H   0  0  0  0  0  0  0  0  0  0  0  0
   58.1696   34.5215   47.8842 H   0  0  0  0  0  0  0  0  0  0  0  0
   57.0759   32.3970   47.1666 H   0  0  0  0  0  0  0  0  0  0  0  0
   61.1338   29.8471   45.2939 H   0  0  0  0  0  0  0  0  0  0  0  0
   62.6944   33.5092   47.1191 H   0  0  0  0  0  0  0  0  0  0  0  0
   61.2811   34.5990   47.0440 H   0  0  0  0  0  0  0  0  0  0  0  0
   63.0840   33.9673   49.3397 H   0  0  0  0  0  0  0  0  0  0  0  0
   62.0749   35.3965   49.0887 H   0  0  0  0  0  0  0  0  0  0  0  0
   61.4901   33.0566   50.7004 H   0  0  0  0  0  0  0  0  0  0  0  0
   60.4317   34.4509   50.4459 H   0  0  0  0  0  0  0  0  0  0  0  0
   59.9625   31.8544   49.4777 H   0  0  0  0  0  0  0  0  0  0  0  0
   59.1897   33.3283   48.8281 H   0  0  0  0  0  0  0  0  0  0  0  0
   60.1794   29.4861   49.4865 H   0  0  0  0  0  0  0  0  0  0  0  0
   58.6903   27.5623   48.9913 H   0  0  0  0  0  0  0  0  0  0  0  0
   56.1936   27.2134   47.2253 H   0  0  0  0  0  0  0  0  0  0  0  0
   56.4611   27.3463   45.4798 H   0  0  0  0  0  0  0  0  0  0  0  0
   55.6422   24.9617   47.1264 H   0  0  0  0  0  0  0  0  0  0  0  0
   55.2799   25.2961   45.4316 H   0  0  0  0  0  0  0  0  0  0  0  0
   57.1628   23.4404   46.2026 H   0  0  0  0  0  0  0  0  0  0  0  0
   57.3406   24.3356   44.6917 H   0  0  0  0  0  0  0  0  0  0  0  0
   58.7752   24.6818   47.3181 H   0  0  0  0  0  0  0  0  0  0  0  0
   59.3515   25.0799   45.6920 H   0  0  0  0  0  0  0  0  0  0  0  0
  1  2  2  0
  2  3  1  0
  3  4  1  0
  4  5  1  0
  5  6  2  0
  5  7  1  0
  7  8  2  0
  8  9  1  0
  9 10  2  0
 10 11  1  0
 10 12  1  0
 12 13  2  0
  2 14  1  0
 14 15  1  0
 15 16  2  0
 16 17  1  0
 17 18  1  0
 18 19  2  0
 18 20  2  0
 18 21  1  0
 21 22  1  0
 22 23  1  0
 23 24  1  0
 24 25  1  0
 17 26  2  0
 26 27  1  0
 27 28  2  0
 28 29  1  0
 29 30  1  0
 30 31  1  0
 31 32  1  0
 32 33  1  0
 13  7  1  0
 28 15  1  0
 33 29  1  0
 25 21  1  0
  3 34  1  0
  3 35  1  0
  4 36  1  0
  8 37  1  0
  9 38  1  0
 12 39  1  0
 13 40  1  0
 16 41  1  0
 22 42  1  0
 22 43  1  0
 23 44  1  0
 23 45  1  0
 24 46  1  0
 24 47  1  0
 25 48  1  0
 25 49  1  0
 26 50  1  0
 27 51  1  0
 30 52  1  0
 30 53  1  0
 31 54  1  0
 31 55  1  0
 32 56  1  0
 32 57  1  0
 33 58  1  0
 33 59  1  0
M  CHG  1  14  -1
M  END
>  <UniqueID>  (93) 
88

>  <SMILES>  (93) 
O=C(CNC(=O)c1ccc(F)cc1)[N-]c1cc(S(=O)(=O)N2CCCC2)ccc1N1CCCC1

>  <Energy>  (93) 
71.44166675300472

>  <Genealogy>  (93) 
O=C(CNC(=O)c1ccc(F)cc1)[N-]c1cc(S(=O)(=O)N2CCCC2)ccc1N1CCCC1 (protonated)
O=C(CNC(=O)c1ccc(F)cc1)[N-]c1cc(S(=O)(=O)N2CCCC2)ccc1N1CCCC1 (3D coordinates assigned)
O=C(CNC(=O)c1ccc(F)cc1)[N-]c1cc(S(=O)(=O)N2CCCC2)ccc1N1CCCC1 (nonaromatic ring conformer: 71.44166675300472 kcal/mol)

>  <smiles>  (93) 
O=C(CNC(=O)c1ccc(F)cc1)Nc1cc(S(=O)(=O)N2CCCC2)ccc1N1CCCC1

>  <score_type>  (93) 
oracle

>  <origin>  (93) 
adg

>  <m_score__min__energy>  (93) 
-10.890000000000001

>  <m_primary>  (93) 
energy

$$$$
