0:0
     RDKit          3D

 31 32  0  0  0  0  0  0  0  0999 V2000
   61.2510   31.8050   50.3780 C   0  0  0  0  0  0  0  0  0  0  0  0
   59.5310   32.0790   50.7480 S   0  0  0  0  0  0  0  0  0  0  0  0
   58.7460   31.9740   49.4710 O   0  0  0  0  0  0  0  0  0  0  0  0
   59.3290   33.4520   51.3250 O   0  0  0  0  0  0  0  0  0  0  0  0
   58.9570   30.8740   51.8580 N   0  0  0  0  0  0  0  0  0  0  0  0
   57.5710   30.6570   52.1850 C   0  0  0  0  0  0  0  0  0  0  0  0
   56.5440   31.4600   51.6590 C   0  0  0  0  0  0  0  0  0  0  0  0
   55.2090   31.2170   52.0000 C   0  0  0  0  0  0  0  0  0  0  0  0
   54.8690   30.1640   52.8660 C   0  0  0  0  0  0  0  0  0  0  0  0
   53.4440   29.9230   53.2190 C   0  0  0  0  0  0  0  0  0  0  0  0
   53.0840   28.7620   53.5620 O   0  0  0  0  0  0  0  0  0  0  0  0
   52.4140   31.0220   53.1300 C   0  0  0  0  0  0  0  0  0  0  0  0
   51.8850   31.1890   51.7360 C   0  0  0  0  0  0  0  0  0  0  0  0
   52.0770   30.3040   50.7430 N   0  0  0  0  0  0  0  0  0  0  0  0
   51.3800   30.8360   49.7140 C   0  0  0  0  0  0  0  0  0  0  0  0
   51.3220   30.2900   48.5820 O   0  0  0  0  0  0  0  0  0  0  0  0
   50.7510   31.9970   49.9960 N   0  0  0  0  0  0  0  0  0  0  0  0
   51.0750   32.2020   51.2820 C   0  0  0  0  0  0  0  0  0  0  0  0
   50.6370   33.2900   52.0270 O   0  0  0  0  0  0  0  0  0  0  0  0
   55.8990   29.3630   53.3910 C   0  0  0  0  0  0  0  0  0  0  0  0
   57.2330   29.6070   53.0500 C   0  0  0  0  0  0  0  0  0  0  0  0
   61.8180   31.7147   51.3163 H   0  0  0  0  0  0  0  0  0  0  0  0
   61.3575   30.8786   49.7946 H   0  0  0  0  0  0  0  0  0  0  0  0
   61.6401   32.6525   49.7946 H   0  0  0  0  0  0  0  0  0  0  0  0
   59.6850   30.3160   52.3570 H   0  0  0  0  0  0  0  0  0  0  0  0
   56.7916   32.2849   50.9747 H   0  0  0  0  0  0  0  0  0  0  0  0
   54.4166   31.8575   51.5855 H   0  0  0  0  0  0  0  0  0  0  0  0
   51.5765   30.7782   53.8002 H   0  0  0  0  0  0  0  0  0  0  0  0
   52.8988   31.9648   53.4232 H   0  0  0  0  0  0  0  0  0  0  0  0
   55.6532   28.5378   54.0755 H   0  0  0  0  0  0  0  0  0  0  0  0
   58.0261   28.9678   53.4652 H   0  0  0  0  0  0  0  0  0  0  0  0
  1  2  1  0
  2  3  2  0
  2  4  2  0
  2  5  1  0
  5  6  1  0
  6  7  2  0
  7  8  1  0
  8  9  2  0
  9 10  1  0
 10 11  2  0
 10 12  1  0
 12 13  1  0
 13 14  1  0
 14 15  1  0
 15 16  2  0
 15 17  1  0
 17 18  1  0
 18 19  1  0
  9 20  1  0
 20 21  2  0
 21  6  1  0
 18 13  2  0
  1 22  1  0
  1 23  1  0
  1 24  1  0
  5 25  1  0
  7 26  1  0
  8 27  1  0
 12 28  1  0
 12 29  1  0
 20 30  1  0
 21 31  1  0
M  CHG  3  14  -1  17  -1  19  -1
M  END
>  <UniqueID>  (1) 
1

>  <SMILES>  (1) 
CS(=O)(=O)Nc1ccc(C(=O)Cc2[n-]c(=O)[n-]c2[O-])cc1

>  <Energy>  (1) 
61.079064027985495

>  <Genealogy>  (1) 
CS(=O)(=O)Nc1ccc(C(=O)Cc2[n-]c(=O)[n-]c2[O-])cc1 (protonated)
CS(=O)(=O)Nc1ccc(C(=O)Cc2[n-]c(=O)[n-]c2[O-])cc1 (3D coordinates assigned)
CS(=O)(=O)Nc1ccc(C(=O)Cc2[n-]c(=O)[n-]c2[O-])cc1 (optimized conformer: 61.079064027985495 kcal/mol)

>  <smiles>  (1) 
CS(=O)(=O)Nc1ccc(C(=O)Cc2[nH]c(=O)[nH]c2O)cc1

>  <score_type>  (1) 
oracle

>  <origin>  (1) 
adg

>  <m_score__min__energy>  (1) 
-15.08

>  <m_primary>  (1) 
energy

$$$$
1:0
     RDKit          3D

 53 56  0  0  0  0  0  0  0  0999 V2000
   58.0990   33.6580   45.6830 C   0  0  0  0  0  0  0  0  0  0  0  0
   57.8730   32.8780   44.6220 C   0  0  0  0  0  0  0  0  0  0  0  0
   56.6660   31.9840   44.5390 C   0  0  0  0  0  0  0  0  0  0  0  0
   57.0630   30.5800   44.2930 N   0  0  0  0  0  0  0  0  0  0  0  0
   57.6570   29.8270   45.2850 C   0  0  0  0  0  0  0  0  0  0  0  0
   57.9070   30.3750   46.5920 N   0  0  0  0  0  0  0  0  0  0  0  0
   58.0170   28.4890   45.0270 C   0  0  0  0  0  0  0  0  0  0  0  0
   58.6700   27.6890   46.0290 N   0  0  0  0  0  0  0  0  0  0  0  0
   60.1070   27.8980   46.2660 C   0  0  0  0  0  0  0  0  0  0  0  0
   60.3300   29.1170   47.1140 C   0  0  0  0  0  0  0  0  0  0  0  0
   61.2450   30.1020   46.7220 C   0  0  0  0  0  0  0  0  0  0  0  0
   61.3830   31.2490   47.5080 C   0  0  0  0  0  0  0  0  0  0  0  0
   62.2610   32.2770   47.1310 C   0  0  0  0  0  0  0  0  0  0  0  0
   62.3830   33.4190   47.9260 C   0  0  0  0  0  0  0  0  0  0  0  0
   61.6320   33.5430   49.0980 C   0  0  0  0  0  0  0  0  0  0  0  0
   60.7530   32.5260   49.4820 C   0  0  0  0  0  0  0  0  0  0  0  0
   60.6190   31.3720   48.6890 C   0  0  0  0  0  0  0  0  0  0  0  0
   59.7430   30.3250   49.0280 C   0  0  0  0  0  0  0  0  0  0  0  0
   59.0460   30.3810   50.0770 O   0  0  0  0  0  0  0  0  0  0  0  0
   59.6340   29.2610   48.2380 O   0  0  0  0  0  0  0  0  0  0  0  0
   57.9300   26.6330   46.6840 C   0  0  0  0  0  0  0  0  0  0  0  0
   57.8140   26.6310   47.9400 O   0  0  0  0  0  0  0  0  0  0  0  0
   57.2660   25.5620   45.9210 C   0  0  0  0  0  0  0  0  0  0  0  0
   58.0220   24.4690   45.4720 C   0  0  0  0  0  0  0  0  0  0  0  0
   57.4030   23.4210   44.7830 C   0  0  0  0  0  0  0  0  0  0  0  0
   56.0310   23.4680   44.5250 C   0  0  0  0  0  0  0  0  0  0  0  0
   55.2770   24.5670   44.9470 C   0  0  0  0  0  0  0  0  0  0  0  0
   55.8900   25.6180   45.6390 C   0  0  0  0  0  0  0  0  0  0  0  0
   55.1290   26.7130   46.0360 O   0  0  0  0  0  0  0  0  0  0  0  0
   57.7640   27.9590   43.7610 C   0  0  0  0  0  0  0  0  0  0  0  0
   58.0770   26.7660   43.4950 O   0  0  0  0  0  0  0  0  0  0  0  0
   57.1870   28.7290   42.8080 N   0  0  0  0  0  0  0  0  0  0  0  0
   56.8410   30.0200   43.0550 C   0  0  0  0  0  0  0  0  0  0  0  0
   56.3140   30.6950   42.1270 O   0  0  0  0  0  0  0  0  0  0  0  0
   58.9913   34.3006   45.7131 H   0  0  0  0  0  0  0  0  0  0  0  0
   57.3928   33.6576   46.5264 H   0  0  0  0  0  0  0  0  0  0  0  0
   58.5887   32.8899   43.7868 H   0  0  0  0  0  0  0  0  0  0  0  0
   56.1107   32.0402   45.4869 H   0  0  0  0  0  0  0  0  0  0  0  0
   56.0359   32.3220   43.7031 H   0  0  0  0  0  0  0  0  0  0  0  0
   58.2320   31.3530   46.7430 H   0  0  0  0  0  0  0  0  0  0  0  0
   57.8060   29.7930   47.4530 H   0  0  0  0  0  0  0  0  0  0  0  0
   60.5203   27.0184   46.7813 H   0  0  0  0  0  0  0  0  0  0  0  0
   60.6092   28.0422   45.2980 H   0  0  0  0  0  0  0  0  0  0  0  0
   61.8458   29.9747   45.8094 H   0  0  0  0  0  0  0  0  0  0  0  0
   62.8534   32.1833   46.2089 H   0  0  0  0  0  0  0  0  0  0  0  0
   63.0722   34.2231   47.6287 H   0  0  0  0  0  0  0  0  0  0  0  0
   61.7329   34.4442   49.7207 H   0  0  0  0  0  0  0  0  0  0  0  0
   60.1651   32.6284   50.4060 H   0  0  0  0  0  0  0  0  0  0  0  0
   59.1049   24.4360   45.6624 H   0  0  0  0  0  0  0  0  0  0  0  0
   57.9969   22.5593   44.4441 H   0  0  0  0  0  0  0  0  0  0  0  0
   55.5436   22.6399   43.9895 H   0  0  0  0  0  0  0  0  0  0  0  0
   54.1984   24.6059   44.7345 H   0  0  0  0  0  0  0  0  0  0  0  0
   57.0060   28.3230   41.8610 H   0  0  0  0  0  0  0  0  0  0  0  0
  1  2  2  0
  2  3  1  0
  3  4  1  0
  4  5  1  0
  5  6  1  0
  5  7  2  0
  7  8  1  0
  8  9  1  0
  9 10  1  0
 10 11  2  0
 11 12  1  0
 12 13  2  0
 13 14  1  0
 14 15  2  0
 15 16  1  0
 16 17  2  0
 17 18  1  0
 18 19  2  0
 18 20  1  0
  8 21  1  0
 21 22  2  0
 21 23  1  0
 23 24  2  0
 24 25  1  0
 25 26  2  0
 26 27  1  0
 27 28  2  0
 28 29  1  0
  7 30  1  0
 30 31  2  0
 30 32  1  0
 32 33  1  0
 33 34  2  0
 33  4  1  0
 20 10  1  0
 28 23  1  0
 17 12  1  0
  1 35  1  0
  1 36  1  0
  2 37  1  0
  3 38  1  0
  3 39  1  0
  6 40  1  0
  6 41  1  0
  9 42  1  0
  9 43  1  0
 11 44  1  0
 13 45  1  0
 14 46  1  0
 15 47  1  0
 16 48  1  0
 24 49  1  0
 25 50  1  0
 26 51  1  0
 27 52  1  0
 32 53  1  0
M  CHG  1  29  -1
M  END
>  <UniqueID>  (2) 
2

>  <SMILES>  (2) 
C=CCn1c(N)c(N(Cc2cc3ccccc3c(=O)o2)C(=O)c2ccccc2[O-])c(=O)[nH]c1=O

>  <Energy>  (2) 
77.52749762471345

>  <Genealogy>  (2) 
C=CCn1c(N)c(N(Cc2cc3ccccc3c(=O)o2)C(=O)c2ccccc2[O-])c(=O)[nH]c1=O (protonated)
C=CCn1c(N)c(N(Cc2cc3ccccc3c(=O)o2)C(=O)c2ccccc2[O-])c(=O)[nH]c1=O (3D coordinates assigned)
C=CCn1c(N)c(N(Cc2cc3ccccc3c(=O)o2)C(=O)c2ccccc2[O-])c(=O)[nH]c1=O (optimized conformer: 77.52749762471345 kcal/mol)

>  <smiles>  (2) 
C=CCn1c(N)c(N(Cc2cc3ccccc3c(=O)o2)C(=O)c2ccccc2O)c(=O)[nH]c1=O

>  <score_type>  (2) 
oracle

>  <origin>  (2) 
adg

>  <m_score__min__energy>  (2) 
-12.65

>  <m_primary>  (2) 
energy

$$$$
2:0
     RDKit          3D

 47 50  0  0  0  0  0  0  0  0999 V2000
   57.0150   30.9810   43.8400 C   0  0  0  0  0  0  0  0  0  0  0  0
   57.8290   31.2320   44.8690 C   0  0  0  0  0  0  0  0  0  0  0  0
   57.6190   32.2710   45.7100 N   0  0  0  0  0  0  0  0  0  0  0  0
   58.6110   32.1810   46.6200 C   0  0  0  0  0  0  0  0  0  0  0  0
   58.7330   33.0350   47.6470 C   0  0  0  0  0  0  0  0  0  0  0  0
   59.1090   32.6290   49.0170 C   0  0  0  0  0  0  0  0  0  0  0  0
   58.0830   32.3380   49.9240 C   0  0  0  0  0  0  0  0  0  0  0  0
   58.3990   31.9770   51.2340 C   0  0  0  0  0  0  0  0  0  0  0  0
   59.6970   31.8930   51.6230 N   0  0  0  0  0  0  0  0  0  0  0  0
   60.7200   32.1470   50.7650 C   0  0  0  0  0  0  0  0  0  0  0  0
   60.4600   32.5060   49.4310 C   0  0  0  0  0  0  0  0  0  0  0  0
   61.6030   32.7200   48.5040 C   0  0  0  0  0  0  0  0  0  0  0  0
   61.6270   33.8440   47.6570 C   0  0  0  0  0  0  0  0  0  0  0  0
   62.7040   34.0530   46.7920 C   0  0  0  0  0  0  0  0  0  0  0  0
   63.7610   33.1410   46.7540 C   0  0  0  0  0  0  0  0  0  0  0  0
   63.7520   32.0280   47.5980 C   0  0  0  0  0  0  0  0  0  0  0  0
   62.6860   31.8220   48.4770 C   0  0  0  0  0  0  0  0  0  0  0  0
   59.4130   31.1010   46.2960 C   0  0  0  0  0  0  0  0  0  0  0  0
   60.4540   30.7300   46.9010 O   0  0  0  0  0  0  0  0  0  0  0  0
   58.9270   30.5000   45.1940 N   0  0  0  0  0  0  0  0  0  0  0  0
   59.4580   29.2810   44.5750 C   0  0  0  0  0  0  0  0  0  0  0  0
   59.1320   28.0850   45.4280 C   0  0  0  0  0  0  0  0  0  0  0  0
   60.1530   27.3990   46.1010 C   0  0  0  0  0  0  0  0  0  0  0  0
   59.8570   26.2690   46.8650 C   0  0  0  0  0  0  0  0  0  0  0  0
   58.5410   25.8120   46.9640 C   0  0  0  0  0  0  0  0  0  0  0  0
   57.5030   26.4790   46.2880 C   0  0  0  0  0  0  0  0  0  0  0  0
   56.1130   25.9820   46.3780 C   0  0  0  0  0  0  0  0  0  0  0  0
   55.1510   26.6980   45.9960 O   0  0  0  0  0  0  0  0  0  0  0  0
   55.8500   24.7140   46.8830 O   0  0  0  0  0  0  0  0  0  0  0  0
   57.8110   27.6130   45.5140 C   0  0  0  0  0  0  0  0  0  0  0  0
   57.2154   30.1274   43.1757 H   0  0  0  0  0  0  0  0  0  0  0  0
   56.1443   31.6279   43.6570 H   0  0  0  0  0  0  0  0  0  0  0  0
   58.5417   34.1016   47.4580 H   0  0  0  0  0  0  0  0  0  0  0  0
   57.0318   32.3938   49.6050 H   0  0  0  0  0  0  0  0  0  0  0  0
   57.5952   31.7601   51.9529 H   0  0  0  0  0  0  0  0  0  0  0  0
   61.7593   32.0711   51.1171 H   0  0  0  0  0  0  0  0  0  0  0  0
   60.7935   34.5615   47.6763 H   0  0  0  0  0  0  0  0  0  0  0  0
   62.7195   34.9382   46.1392 H   0  0  0  0  0  0  0  0  0  0  0  0
   64.5998   33.2990   46.0601 H   0  0  0  0  0  0  0  0  0  0  0  0
   64.5865   31.3119   47.5704 H   0  0  0  0  0  0  0  0  0  0  0  0
   62.6932   30.9532   49.1516 H   0  0  0  0  0  0  0  0  0  0  0  0
   59.0074   29.1521   43.5798 H   0  0  0  0  0  0  0  0  0  0  0  0
   60.5504   29.3704   44.4819 H   0  0  0  0  0  0  0  0  0  0  0  0
   61.1918   27.7529   46.0266 H   0  0  0  0  0  0  0  0  0  0  0  0
   60.6631   25.7365   47.3910 H   0  0  0  0  0  0  0  0  0  0  0  0
   58.3147   24.9252   47.5742 H   0  0  0  0  0  0  0  0  0  0  0  0
   57.0098   28.1354   44.9707 H   0  0  0  0  0  0  0  0  0  0  0  0
  1  2  2  0
  2  3  1  0
  3  4  1  0
  4  5  2  3
  5  6  1  0
  6  7  2  0
  7  8  1  0
  8  9  2  0
  9 10  1  0
 10 11  2  0
 11 12  1  0
 12 13  2  0
 13 14  1  0
 14 15  2  0
 15 16  1  0
 16 17  2  0
  4 18  1  0
 18 19  2  0
 18 20  1  0
 20 21  1  0
 21 22  1  0
 22 23  2  0
 23 24  1  0
 24 25  2  0
 25 26  1  0
 26 27  1  0
 27 28  2  0
 27 29  1  0
 26 30  2  0
 20  2  1  0
 30 22  1  0
 11  6  1  0
 17 12  1  0
  1 31  1  0
  1 32  1  0
  5 33  1  0
  7 34  1  0
  8 35  1  0
 10 36  1  0
 13 37  1  0
 14 38  1  0
 15 39  1  0
 16 40  1  0
 17 41  1  0
 21 42  1  0
 21 43  1  0
 23 44  1  0
 24 45  1  0
 25 46  1  0
 30 47  1  0
M  CHG  2   3  -1  29  -1
M  END
>  <UniqueID>  (3) 
3

>  <SMILES>  (3) 
C=c1[n-]c(=Cc2ccncc2-c2ccccc2)c(=O)n1Cc1cccc(C(=O)[O-])c1

>  <Energy>  (3) 
96.16188570405708

>  <Genealogy>  (3) 
C=c1[n-]c(=Cc2ccncc2-c2ccccc2)c(=O)n1Cc1cccc(C(=O)[O-])c1 (protonated)
C=c1[n-]c(=Cc2ccncc2-c2ccccc2)c(=O)n1Cc1cccc(C(=O)[O-])c1 (3D coordinates assigned)
C=c1[n-]c(=Cc2ccncc2-c2ccccc2)c(=O)n1Cc1cccc(C(=O)[O-])c1 (optimized conformer: 96.16188570405708 kcal/mol)

>  <smiles>  (3) 
C=c1[nH]c(=Cc2ccncc2-c2ccccc2)c(=O)n1Cc1cccc(C(=O)O)c1

>  <score_type>  (3) 
oracle

>  <origin>  (3) 
adg

>  <m_score__min__energy>  (3) 
-13.32

>  <m_primary>  (3) 
energy

$$$$
3:0
     RDKit          3D

 30 32  0  0  0  0  0  0  0  0999 V2000
   57.7190   33.3020   52.4410 C   0  0  0  0  0  0  0  0  0  0  0  0
   58.1880   32.5220   51.2470 C   0  0  0  0  0  0  0  0  0  0  0  0
   57.7770   31.2130   50.9070 C   0  0  0  0  0  0  0  0  0  0  0  0
   56.7940   30.3750   51.6180 C   0  0  0  0  0  0  0  0  0  0  0  0
   57.1700   29.2790   52.1140 O   0  0  0  0  0  0  0  0  0  0  0  0
   55.4190   30.7670   51.7090 N   0  0  0  0  0  0  0  0  0  0  0  0
   54.4900   30.0810   52.6070 C   0  0  0  0  0  0  0  0  0  0  0  0
   53.2240   30.8720   52.7630 C   0  0  0  0  0  0  0  0  0  0  0  0
   52.8530   31.2270   53.9140 O   0  0  0  0  0  0  0  0  0  0  0  0
   52.3970   31.2060   51.5910 C   0  0  0  0  0  0  0  0  0  0  0  0
   51.6870   32.3720   51.4030 C   0  0  0  0  0  0  0  0  0  0  0  0
   51.0450   32.3090   50.2240 N   0  0  0  0  0  0  0  0  0  0  0  0
   51.3920   31.0990   49.7410 C   0  0  0  0  0  0  0  0  0  0  0  0
   50.9790   30.6650   48.6340 O   0  0  0  0  0  0  0  0  0  0  0  0
   52.2140   30.3890   50.5380 N   0  0  0  0  0  0  0  0  0  0  0  0
   58.6180   30.6770   49.5200 S   0  0  0  0  0  0  0  0  0  0  0  0
   59.4460   32.1180   49.3570 C   0  0  0  0  0  0  0  0  0  0  0  0
   60.5840   32.7300   48.2950 S   0  0  0  0  0  0  0  0  0  0  0  0
   60.6730   34.2200   49.1190 C   0  0  0  0  0  0  0  0  0  0  0  0
   59.8090   34.2170   50.2210 C   0  0  0  0  0  0  0  0  0  0  0  0
   59.1250   33.0060   50.3270 C   0  0  0  0  0  0  0  0  0  0  0  0
   58.0295   32.7856   53.3613 H   0  0  0  0  0  0  0  0  0  0  0  0
   58.1617   34.3087   52.4183 H   0  0  0  0  0  0  0  0  0  0  0  0
   56.6222   33.3831   52.4183 H   0  0  0  0  0  0  0  0  0  0  0  0
   55.0660   31.5260   51.0850 H   0  0  0  0  0  0  0  0  0  0  0  0
   54.2491   29.0917   52.1908 H   0  0  0  0  0  0  0  0  0  0  0  0
   54.9647   29.9737   53.5935 H   0  0  0  0  0  0  0  0  0  0  0  0
   51.6514   33.2182   52.1050 H   0  0  0  0  0  0  0  0  0  0  0  0
   61.3168   35.0628   48.8269 H   0  0  0  0  0  0  0  0  0  0  0  0
   59.6855   35.0618   50.9145 H   0  0  0  0  0  0  0  0  0  0  0  0
  1  2  1  0
  2  3  2  0
  3  4  1  0
  4  5  2  0
  4  6  1  0
  6  7  1  0
  7  8  1  0
  8  9  2  0
  8 10  1  0
 10 11  2  0
 11 12  1  0
 12 13  1  0
 13 14  2  0
 13 15  1  0
  3 16  1  0
 16 17  1  0
 17 18  1  0
 18 19  1  0
 19 20  2  0
 20 21  1  0
 21  2  1  0
 15 10  1  0
 21 17  2  0
  1 22  1  0
  1 23  1  0
  1 24  1  0
  6 25  1  0
  7 26  1  0
  7 27  1  0
 11 28  1  0
 19 29  1  0
 20 30  1  0
M  CHG  2  12  -1  15  -1
M  END
>  <UniqueID>  (4) 
4

>  <SMILES>  (4) 
Cc1c(C(=O)NCC(=O)c2c[n-]c(=O)[n-]2)sc2sccc12

>  <Energy>  (4) 
127.37452262261625

>  <Genealogy>  (4) 
Cc1c(C(=O)NCC(=O)c2c[n-]c(=O)[n-]2)sc2sccc12 (protonated)
Cc1c(C(=O)NCC(=O)c2c[n-]c(=O)[n-]2)sc2sccc12 (3D coordinates assigned)
Cc1c(C(=O)NCC(=O)c2c[n-]c(=O)[n-]2)sc2sccc12 (optimized conformer: 127.37452262261625 kcal/mol)

>  <smiles>  (4) 
Cc1c(C(=O)NCC(=O)c2c[nH]c(=O)[nH]2)sc2sccc12

>  <score_type>  (4) 
oracle

>  <origin>  (4) 
adg

>  <m_score__min__energy>  (4) 
-12.109999999999999

>  <m_primary>  (4) 
energy

$$$$
4:0
     RDKit          3D

 55 58  0  0  0  0  0  0  0  0999 V2000
   54.3780   26.6890   46.7770 H   0  0  0  0  0  0  0  0  0  0  0  0
   54.7580   26.3040   45.9220 O   0  0  0  0  0  0  0  0  0  0  0  0
   54.5170   24.9860   45.5390 C   0  0  0  0  0  0  0  0  0  0  0  0
   53.3860   24.3290   45.8430 N   0  0  0  0  0  0  0  0  0  0  0  0
   53.5830   23.1170   45.2840 C   0  0  0  0  0  0  0  0  0  0  0  0
   52.7310   22.1940   45.3450 O   0  0  0  0  0  0  0  0  0  0  0  0
   54.7640   22.9740   44.6460 N   0  0  0  0  0  0  0  0  0  0  0  0
   55.3650   24.1660   44.8200 C   0  0  0  0  0  0  0  0  0  0  0  0
   56.6660   24.5540   44.2310 C   0  0  0  0  0  0  0  0  0  0  0  0
   57.0172   23.9909   43.3538 H   0  0  0  0  0  0  0  0  0  0  0  0
   57.4520   25.5480   44.6920 C   0  0  0  0  0  0  0  0  0  0  0  0
   57.7460   25.8280   46.0200 C   0  0  0  0  0  0  0  0  0  0  0  0
   57.4050   25.2630   46.9000 H   0  0  0  0  0  0  0  0  0  0  0  0
   58.5480   26.9510   46.0240 C   0  0  0  0  0  0  0  0  0  0  0  0
   59.1100   27.5850   47.2610 C   0  0  0  0  0  0  0  0  0  0  0  0
   58.6799   27.0998   48.1495 H   0  0  0  0  0  0  0  0  0  0  0  0
   60.2033   27.4644   47.2705 H   0  0  0  0  0  0  0  0  0  0  0  0
   58.8591   28.6560   47.2705 H   0  0  0  0  0  0  0  0  0  0  0  0
   58.7730   27.3780   44.7590 N   0  0  0  0  0  0  0  0  0  0  0  0
   59.5590   28.5600   44.3690 C   0  0  0  0  0  0  0  0  0  0  0  0
   60.4774   28.5974   44.9733 H   0  0  0  0  0  0  0  0  0  0  0  0
   59.8060   28.4812   43.3000 H   0  0  0  0  0  0  0  0  0  0  0  0
   58.7700   29.8270   44.5900 C   0  0  0  0  0  0  0  0  0  0  0  0
   57.6400   30.1050   43.8060 C   0  0  0  0  0  0  0  0  0  0  0  0
   57.3325   29.3999   43.0197 H   0  0  0  0  0  0  0  0  0  0  0  0
   56.9040   31.2720   44.0190 C   0  0  0  0  0  0  0  0  0  0  0  0
   56.0129   31.4773   43.4076 H   0  0  0  0  0  0  0  0  0  0  0  0
   57.2950   32.1790   45.0050 C   0  0  0  0  0  0  0  0  0  0  0  0
   56.7017   33.0885   45.1802 H   0  0  0  0  0  0  0  0  0  0  0  0
   58.4410   31.9340   45.7720 C   0  0  0  0  0  0  0  0  0  0  0  0
   58.8820   32.8770   46.8140 C   0  0  0  0  0  0  0  0  0  0  0  0
   58.4370   34.0560   46.7910 O   0  0  0  0  0  0  0  0  0  0  0  0
   59.6670   32.4430   47.9360 N   0  0  0  0  0  0  0  0  0  0  0  0
   59.0410   31.8050   49.0830 C   0  0  0  0  0  0  0  0  0  0  0  0
   58.5069   32.5494   49.6917 H   0  0  0  0  0  0  0  0  0  0  0  0
   58.3026   31.0502   48.7747 H   0  0  0  0  0  0  0  0  0  0  0  0
   60.1810   31.1830   49.8830 C   0  0  0  0  0  0  0  0  0  0  0  0
   60.4155   31.8001   50.7629 H   0  0  0  0  0  0  0  0  0  0  0  0
   59.9207   30.1815   50.2562 H   0  0  0  0  0  0  0  0  0  0  0  0
   61.3700   31.1420   48.9270 C   0  0  0  0  0  0  0  0  0  0  0  0
   62.3094   31.3166   49.4720 H   0  0  0  0  0  0  0  0  0  0  0  0
   61.4669   30.1639   48.4332 H   0  0  0  0  0  0  0  0  0  0  0  0
   61.1160   32.2660   47.9230 C   0  0  2  0  0  0  0  0  0  0  0  0
   61.5038   32.0288   46.9213 H   0  0  0  0  0  0  0  0  0  0  0  0
   61.8180   33.5620   48.3730 C   0  0  0  0  0  0  0  0  0  0  0  0
   62.4005   33.3566   49.2833 H   0  0  0  0  0  0  0  0  0  0  0  0
   62.4753   33.9017   47.5590 H   0  0  0  0  0  0  0  0  0  0  0  0
   60.8900   34.5750   48.6440 O   0  0  0  0  0  0  0  0  0  0  0  0
   60.2030   34.5320   47.9280 H   0  0  0  0  0  0  0  0  0  0  0  0
   59.1720   30.7550   45.5640 C   0  0  0  0  0  0  0  0  0  0  0  0
   60.0684   30.5556   46.1695 H   0  0  0  0  0  0  0  0  0  0  0  0
   58.1040   26.5290   43.9350 C   0  0  0  0  0  0  0  0  0  0  0  0
   58.0980   26.6340   42.5960 C   0  0  0  0  0  0  0  0  0  0  0  0
   58.6489   27.4502   42.1058 H   0  0  0  0  0  0  0  0  0  0  0  0
   57.5422   25.9038   41.9895 H   0  0  0  0  0  0  0  0  0  0  0  0
  1  2  1  0
  2  3  1  0
  3  4  1  0
  4  5  1  0
  5  6  2  0
  5  7  1  0
  7  8  1  0
  8  9  1  0
  9 10  1  0
  9 11  2  0
 11 12  1  0
 12 13  1  0
 12 14  2  0
 14 15  1  0
 15 16  1  0
 15 17  1  0
 15 18  1  0
 14 19  1  0
 19 20  1  0
 20 21  1  0
 20 22  1  0
 20 23  1  0
 23 24  2  0
 24 25  1  0
 24 26  1  0
 26 27  1  0
 26 28  2  0
 28 29  1  0
 28 30  1  0
 30 31  1  0
 31 32  2  0
 31 33  1  0
 33 34  1  0
 34 35  1  0
 34 36  1  0
 34 37  1  0
 37 38  1  0
 37 39  1  0
 37 40  1  0
 40 41  1  0
 40 42  1  0
 40 43  1  0
 43 44  1  6
 43 45  1  0
 45 46  1  0
 45 47  1  0
 45 48  1  0
 48 49  1  0
 30 50  2  0
 50 51  1  0
 19 52  1  0
 52 53  2  0
 53 54  1  0
 53 55  1  0
  8  3  2  0
 52 11  1  0
 50 23  1  0
 43 33  1  0
M  CHG  2   4  -1   7  -1
M  END
>  <UniqueID>  (5) 
5

>  <SMILES>  (5) 
C=c1/c(=C/c2[n-]c(=O)[n-]c2O)cc(C)n1Cc1cccc(C(=O)N2CCC[C@@H]2CO)c1

>  <Energy>  (5) 
128.13869509411975

>  <Genealogy>  (5) 
C=c1c(=Cc2[n-]c(=O)[n-]c2O)cc(C)n1Cc1cccc(C(=O)N2CCCC2CO)c1 (protonated)
C=c1c(=Cc2[n-]c(=O)[n-]c2O)cc(C)n1Cc1cccc(C(=O)N2CCC[C@@H]2CO)c1 (chirality)
C=c1/c(=C/c2[n-]c(=O)[n-]c2O)cc(C)n1Cc1cccc(C(=O)N2CCC[C@@H]2CO)c1 (cis-trans isomerization)
C=c1/c(=C/c2[n-]c(=O)[n-]c2O)cc(C)n1Cc1cccc(C(=O)N2CCC[C@@H]2CO)c1 (3D coordinates assigned)
C=c1/c(=C/c2[n-]c(=O)[n-]c2O)cc(C)n1Cc1cccc(C(=O)N2CCC[C@@H]2CO)c1 (nonaromatic ring conformer: 128.13869509411975 kcal/mol)

>  <smiles>  (5) 
C=c1c(=Cc2[nH]c(=O)[nH]c2O)cc(C)n1Cc1cccc(C(=O)N2CCCC2CO)c1

>  <score_type>  (5) 
oracle

>  <origin>  (5) 
adg

>  <m_score__min__energy>  (5) 
-13.529999999999999

>  <m_primary>  (5) 
energy

$$$$
5:0
     RDKit          3D

 57 60  0  0  0  0  0  0  0  0999 V2000
   52.1240   29.1130   49.8350 H   0  0  0  0  0  0  0  0  0  0  0  0
   51.7730   30.0540   49.7100 O   0  0  0  0  0  0  0  0  0  0  0  0
   51.5550   30.8790   50.8100 C   0  0  0  0  0  0  0  0  0  0  0  0
   51.0160   32.1070   50.7300 N   0  0  0  0  0  0  0  0  0  0  0  0
   51.0080   32.5120   52.0180 C   0  0  0  0  0  0  0  0  0  0  0  0
   50.5790   33.6390   52.3730 O   0  0  0  0  0  0  0  0  0  0  0  0
   51.5100   31.6150   52.8930 N   0  0  0  0  0  0  0  0  0  0  0  0
   51.8460   30.5690   52.1140 C   0  0  0  0  0  0  0  0  0  0  0  0
   52.5260   29.3410   52.5750 C   0  0  0  0  0  0  0  0  0  0  0  0
   51.9085   28.4448   52.7347 H   0  0  0  0  0  0  0  0  0  0  0  0
   53.8490   29.2400   52.8140 C   0  0  0  0  0  0  0  0  0  0  0  0
   54.4920   28.2300   53.5200 C   0  0  0  0  0  0  0  0  0  0  0  0
   54.0157   27.3738   54.0200 H   0  0  0  0  0  0  0  0  0  0  0  0
   55.8430   28.5080   53.4730 C   0  0  0  0  0  0  0  0  0  0  0  0
   56.9090   27.6010   54.0130 C   0  0  0  0  0  0  0  0  0  0  0  0
   56.8852   27.6212   55.1126 H   0  0  0  0  0  0  0  0  0  0  0  0
   56.7297   26.5743   53.6612 H   0  0  0  0  0  0  0  0  0  0  0  0
   57.8937   27.9424   53.6612 H   0  0  0  0  0  0  0  0  0  0  0  0
   56.0650   29.6370   52.7640 N   0  0  0  0  0  0  0  0  0  0  0  0
   57.3500   30.2320   52.5050 C   0  0  0  0  0  0  0  0  0  0  0  0
   57.8960   30.1510   51.2190 C   0  0  0  0  0  0  0  0  0  0  0  0
   57.3300   29.6596   50.4139 H   0  0  0  0  0  0  0  0  0  0  0  0
   59.1560   30.6910   50.9530 C   0  0  0  0  0  0  0  0  0  0  0  0
   59.5711   30.6326   49.9360 H   0  0  0  0  0  0  0  0  0  0  0  0
   59.8960   31.3070   51.9720 C   0  0  0  0  0  0  0  0  0  0  0  0
   61.2430   31.8420   51.6860 C   0  0  0  0  0  0  0  0  0  0  0  0
   61.9370   32.3150   52.6240 O   0  0  0  0  0  0  0  0  0  0  0  0
   61.7550   31.8860   50.3520 N   0  0  0  0  0  0  0  0  0  0  0  0
   62.9810   32.3800   49.6970 C   0  0  0  0  0  0  0  0  0  0  0  0
   63.1819   33.4391   49.9159 H   0  0  0  0  0  0  0  0  0  0  0  0
   63.9299   31.9059   49.9881 H   0  0  0  0  0  0  0  0  0  0  0  0
   62.5110   32.1590   48.2900 C   0  0  0  0  0  0  0  0  0  0  0  0
   63.0695   31.5885   47.5333 H   0  0  0  0  0  0  0  0  0  0  0  0
   62.3140   33.4480   47.4820 C   0  0  0  0  0  0  0  0  0  0  0  0
   62.3105   34.3109   48.1642 H   0  0  0  0  0  0  0  0  0  0  0  0
   63.1352   33.5547   46.7580 H   0  0  0  0  0  0  0  0  0  0  0  0
   61.0410   33.3880   46.7670 N   0  0  0  0  0  0  0  0  0  0  0  0
   59.9760   34.3420   46.8680 C   0  0  0  0  0  0  0  0  0  0  0  0
   59.6450   34.7680   48.0070 O   0  0  0  0  0  0  0  0  0  0  0  0
   59.2510   34.8550   45.6600 C   0  0  0  0  0  0  0  0  0  0  0  0
   58.3916   35.4631   45.9789 H   0  0  0  0  0  0  0  0  0  0  0  0
   59.9335   35.4723   45.0574 H   0  0  0  0  0  0  0  0  0  0  0  0
   58.8960   34.0060   45.0574 H   0  0  0  0  0  0  0  0  0  0  0  0
   61.2750   31.6590   48.9730 C   0  0  0  0  0  0  0  0  0  0  0  0
   60.3842   32.2567   48.7297 H   0  0  0  0  0  0  0  0  0  0  0  0
   60.9396   30.6423   48.7204 H   0  0  0  0  0  0  0  0  0  0  0  0
   59.3350   31.4170   53.2530 C   0  0  0  0  0  0  0  0  0  0  0  0
   59.9007   31.9175   54.0527 H   0  0  0  0  0  0  0  0  0  0  0  0
   58.0600   30.8960   53.5270 C   0  0  0  0  0  0  0  0  0  0  0  0
   57.4900   31.0170   54.9140 C   0  0  0  0  0  0  0  0  0  0  0  0
   58.2864   30.8479   55.6537 H   0  0  0  0  0  0  0  0  0  0  0  0
   57.0699   32.0243   55.0512 H   0  0  0  0  0  0  0  0  0  0  0  0
   56.6969   30.2672   55.0512 H   0  0  0  0  0  0  0  0  0  0  0  0
   54.8570   30.0970   52.3550 C   0  0  0  0  0  0  0  0  0  0  0  0
   54.6910   31.2190   51.6400 C   0  0  0  0  0  0  0  0  0  0  0  0
   55.5662   31.8120   51.3360 H   0  0  0  0  0  0  0  0  0  0  0  0
   53.6796   31.5465   51.3574 H   0  0  0  0  0  0  0  0  0  0  0  0
  1  2  1  0
  2  3  1  0
  3  4  1  0
  4  5  1  0
  5  6  2  0
  5  7  1  0
  7  8  1  0
  8  9  1  0
  9 10  1  0
  9 11  2  0
 11 12  1  0
 12 13  1  0
 12 14  2  0
 14 15  1  0
 15 16  1  0
 15 17  1  0
 15 18  1  0
 14 19  1  0
 19 20  1  0
 20 21  2  0
 21 22  1  0
 21 23  1  0
 23 24  1  0
 23 25  2  0
 25 26  1  0
 26 27  2  0
 26 28  1  0
 28 29  1  0
 29 30  1  0
 29 31  1  0
 29 32  1  0
 32 33  1  0
 32 34  1  0
 34 35  1  0
 34 36  1  0
 34 37  1  0
 37 38  1  0
 38 39  2  0
 38 40  1  0
 40 41  1  0
 40 42  1  0
 40 43  1  0
 32 44  1  0
 44 45  1  0
 44 46  1  0
 25 47  1  0
 47 48  1  0
 47 49  2  0
 49 50  1  0
 50 51  1  0
 50 52  1  0
 50 53  1  0
 19 54  1  0
 54 55  2  0
 55 56  1  0
 55 57  1  0
  8  3  2  0
 54 11  1  0
 49 20  1  0
 44 28  1  0
M  CHG  3   4  -1   7  -1  37  -1
M  END
>  <UniqueID>  (6) 
6

>  <SMILES>  (6) 
C=c1/c(=C/c2[n-]c(=O)[n-]c2O)cc(C)n1-c1ccc(C(=O)N2CC(C[N-]C(C)=O)C2)cc1C

>  <Energy>  (6) 
172.84001938724842

>  <Genealogy>  (6) 
C=c1c(=Cc2[n-]c(=O)[n-]c2O)cc(C)n1-c1ccc(C(=O)N2CC(C[N-]C(C)=O)C2)cc1C (protonated)
C=c1/c(=C/c2[n-]c(=O)[n-]c2O)cc(C)n1-c1ccc(C(=O)N2CC(C[N-]C(C)=O)C2)cc1C (cis-trans isomerization)
C=c1/c(=C/c2[n-]c(=O)[n-]c2O)cc(C)n1-c1ccc(C(=O)N2CC(C[N-]C(C)=O)C2)cc1C (3D coordinates assigned)
C=c1/c(=C/c2[n-]c(=O)[n-]c2O)cc(C)n1-c1ccc(C(=O)N2CC(C[N-]C(C)=O)C2)cc1C (nonaromatic ring conformer: 172.84001938724842 kcal/mol)

>  <smiles>  (6) 
C=c1c(=Cc2[nH]c(=O)[nH]c2O)cc(C)n1-c1ccc(C(=O)N2CC(CNC(C)=O)C2)cc1C

>  <score_type>  (6) 
oracle

>  <origin>  (6) 
adg

>  <m_score__min__energy>  (6) 
-13.85

>  <m_primary>  (6) 
energy

$$$$
6:0
     RDKit          3D

 48 50  0  0  0  0  0  0  0  0999 V2000
   65.1790   28.8550   51.8040 C   0  0  0  0  0  0  0  0  0  0  0  0
   63.8820   29.2820   52.1960 O   0  0  0  0  0  0  0  0  0  0  0  0
   62.9820   30.0550   51.4350 C   0  0  0  0  0  0  0  0  0  0  0  0
   61.6270   29.7410   51.5790 C   0  0  0  0  0  0  0  0  0  0  0  0
   60.6380   30.4370   50.8760 C   0  0  0  0  0  0  0  0  0  0  0  0
   59.2090   30.0770   51.0450 C   0  0  0  0  0  0  0  0  0  0  0  0
   58.6070   29.4690   50.1180 O   0  0  0  0  0  0  0  0  0  0  0  0
   58.4910   30.4620   52.2310 N   0  0  0  0  0  0  0  0  0  0  0  0
   57.2580   29.8580   52.6570 C   0  0  0  0  0  0  0  0  0  0  0  0
   57.2390   28.6230   53.3280 C   0  0  0  0  0  0  0  0  0  0  0  0
   56.0290   28.0700   53.7500 C   0  0  0  0  0  0  0  0  0  0  0  0
   54.8290   28.7470   53.5240 C   0  0  0  0  0  0  0  0  0  0  0  0
   54.8250   29.9960   52.8760 C   0  0  0  0  0  0  0  0  0  0  0  0
   53.5520   30.7280   52.6550 C   0  0  0  0  0  0  0  0  0  0  0  0
   53.2600   31.2920   51.3980 C   0  0  0  0  0  0  0  0  0  0  0  0
   52.0580   31.9720   51.1880 C   0  0  0  0  0  0  0  0  0  0  0  0
   51.1350   32.0980   52.2280 C   0  0  0  0  0  0  0  0  0  0  0  0
   49.9410   32.7810   52.0200 O   0  0  0  0  0  0  0  0  0  0  0  0
   51.4140   31.5440   53.4800 C   0  0  0  0  0  0  0  0  0  0  0  0
   52.6150   30.8640   53.6950 C   0  0  0  0  0  0  0  0  0  0  0  0
   56.0500   30.5450   52.4530 C   0  0  0  0  0  0  0  0  0  0  0  0
   61.0180   31.4820   50.0250 C   0  0  0  0  0  0  0  0  0  0  0  0
   62.3730   31.8250   49.8520 C   0  0  0  0  0  0  0  0  0  0  0  0
   62.7380   32.8700   48.9880 O   0  0  0  0  0  0  0  0  0  0  0  0
   63.5140   32.7230   47.8020 C   0  0  0  0  0  0  0  0  0  0  0  0
   63.3740   31.1050   50.5610 C   0  0  0  0  0  0  0  0  0  0  0  0
   64.7480   31.3910   50.4340 O   0  0  0  0  0  0  0  0  0  0  0  0
   65.4130   32.5960   50.7960 C   0  0  0  0  0  0  0  0  0  0  0  0
   65.7856   28.6553   52.6997 H   0  0  0  0  0  0  0  0  0  0  0  0
   65.0970   27.9364   51.2044 H   0  0  0  0  0  0  0  0  0  0  0  0
   65.6587   29.6426   51.2044 H   0  0  0  0  0  0  0  0  0  0  0  0
   61.3324   28.9289   52.2600 H   0  0  0  0  0  0  0  0  0  0  0  0
   58.8270   31.3020   52.7540 H   0  0  0  0  0  0  0  0  0  0  0  0
   58.1817   28.0901   53.5213 H   0  0  0  0  0  0  0  0  0  0  0  0
   56.0207   27.0968   54.2627 H   0  0  0  0  0  0  0  0  0  0  0  0
   53.8797   28.3007   53.8550 H   0  0  0  0  0  0  0  0  0  0  0  0
   53.9839   31.1963   50.5753 H   0  0  0  0  0  0  0  0  0  0  0  0
   51.8385   32.4086   50.2025 H   0  0  0  0  0  0  0  0  0  0  0  0
   50.6859   31.6436   54.2985 H   0  0  0  0  0  0  0  0  0  0  0  0
   52.8293   30.4322   54.6838 H   0  0  0  0  0  0  0  0  0  0  0  0
   56.0615   31.5260   51.9556 H   0  0  0  0  0  0  0  0  0  0  0  0
   60.2446   32.0450   49.4820 H   0  0  0  0  0  0  0  0  0  0  0  0
   64.5618   32.5245   48.0717 H   0  0  0  0  0  0  0  0  0  0  0  0
   63.1225   31.8831   47.2094 H   0  0  0  0  0  0  0  0  0  0  0  0
   63.4568   33.6480   47.2094 H   0  0  0  0  0  0  0  0  0  0  0  0
   65.4569   32.6755   51.8922 H   0  0  0  0  0  0  0  0  0  0  0  0
   66.4344   32.5880   50.3878 H   0  0  0  0  0  0  0  0  0  0  0  0
   64.8617   33.4559   50.3878 H   0  0  0  0  0  0  0  0  0  0  0  0
  1  2  1  0
  2  3  1  0
  3  4  2  0
  4  5  1  0
  5  6  1  0
  6  7  2  0
  6  8  1  0
  8  9  1  0
  9 10  2  0
 10 11  1  0
 11 12  2  0
 12 13  1  0
 13 14  1  0
 14 15  2  0
 15 16  1  0
 16 17  2  0
 17 18  1  0
 17 19  1  0
 19 20  2  0
 13 21  2  0
  5 22  2  0
 22 23  1  0
 23 24  1  0
 24 25  1  0
 23 26  2  0
 26 27  1  0
 27 28  1  0
 26  3  1  0
 21  9  1  0
 20 14  1  0
  1 29  1  0
  1 30  1  0
  1 31  1  0
  4 32  1  0
  8 33  1  0
 10 34  1  0
 11 35  1  0
 12 36  1  0
 15 37  1  0
 16 38  1  0
 19 39  1  0
 20 40  1  0
 21 41  1  0
 22 42  1  0
 25 43  1  0
 25 44  1  0
 25 45  1  0
 28 46  1  0
 28 47  1  0
 28 48  1  0
M  CHG  1  18  -1
M  END
>  <UniqueID>  (7) 
7

>  <SMILES>  (7) 
COc1cc(C(=O)Nc2cccc(-c3ccc([O-])cc3)c2)cc(OC)c1OC

>  <Energy>  (7) 
66.4565949201305

>  <Genealogy>  (7) 
COc1cc(C(=O)Nc2cccc(-c3ccc([O-])cc3)c2)cc(OC)c1OC (protonated)
COc1cc(C(=O)Nc2cccc(-c3ccc([O-])cc3)c2)cc(OC)c1OC (3D coordinates assigned)
COc1cc(C(=O)Nc2cccc(-c3ccc([O-])cc3)c2)cc(OC)c1OC (optimized conformer: 66.4565949201305 kcal/mol)

>  <smiles>  (7) 
COc1cc(C(=O)Nc2cccc(-c3ccc(O)cc3)c2)cc(OC)c1OC

>  <score_type>  (7) 
oracle

>  <origin>  (7) 
adg

>  <m_score__min__energy>  (7) 
-10.51

>  <m_primary>  (7) 
energy

$$$$
7:0
     RDKit          3D

 57 60  0  0  0  0  0  0  0  0999 V2000
   56.5320   25.0770   46.3770 C   0  0  0  0  0  0  0  0  0  0  0  0
   57.2190   26.0990   45.5050 C   0  0  0  0  0  0  0  0  0  0  0  0
   57.6520   27.3050   46.0860 C   0  0  0  0  0  0  0  0  0  0  0  0
   58.2960   28.2850   45.3200 C   0  0  0  0  0  0  0  0  0  0  0  0
   58.7480   29.4840   45.9640 N   0  0  0  0  0  0  0  0  0  0  0  0
   58.4570   30.8170   45.5240 C   0  0  0  0  0  0  0  0  0  0  0  0
   58.4140   31.0720   44.2880 O   0  0  0  0  0  0  0  0  0  0  0  0
   58.2010   31.8570   46.4900 N   0  0  0  0  0  0  0  0  0  0  0  0
   57.8220   33.2080   46.0650 C   0  0  0  0  0  0  0  0  0  0  0  0
   58.9930   34.1570   46.3140 C   0  0  0  0  0  0  0  0  0  0  0  0
   59.6460   33.9720   47.7130 C   0  0  0  0  0  0  0  0  0  0  0  0
   61.0830   33.6610   47.5770 N   0  0  0  0  0  0  0  0  0  0  0  0
   61.8790   33.8240   46.3530 C   0  0  0  0  0  0  0  0  0  0  0  0
   63.3600   33.6440   46.7630 C   0  0  0  0  0  0  0  0  0  0  0  0
   63.2910   33.5370   48.2450 C   0  0  0  0  0  0  0  0  0  0  0  0
   64.3530   33.4640   49.1480 C   0  0  0  0  0  0  0  0  0  0  0  0
   64.0650   33.4190   50.5230 C   0  0  0  0  0  0  0  0  0  0  0  0
   62.7280   33.4420   50.9660 C   0  0  0  0  0  0  0  0  0  0  0  0
   62.4560   33.4110   52.2950 F   0  0  0  0  0  0  0  0  0  0  0  0
   61.6760   33.5120   50.0340 C   0  0  0  0  0  0  0  0  0  0  0  0
   61.9900   33.5490   48.6700 C   0  0  0  0  0  0  0  0  0  0  0  0
   58.9030   32.9520   48.6200 C   0  0  0  0  0  0  0  0  0  0  0  0
   58.5230   31.6400   47.9070 C   0  0  0  0  0  0  0  0  0  0  0  0
   58.5430   28.0430   43.9600 C   0  0  0  0  0  0  0  0  0  0  0  0
   58.1290   26.8470   43.3720 C   0  0  0  0  0  0  0  0  0  0  0  0
   57.4590   25.8670   44.1250 C   0  0  0  0  0  0  0  0  0  0  0  0
   57.0710   24.5790   43.4290 C   0  0  0  0  0  0  0  0  0  0  0  0
   57.6370   23.4550   44.0990 O   0  0  0  0  0  0  0  0  0  0  0  0
   57.2730   22.1320   43.8270 C   0  0  0  0  0  0  0  0  0  0  0  0
   58.0620   21.0670   44.3480 N   0  0  0  0  0  0  0  0  0  0  0  0
   56.2550   21.8730   43.1280 O   0  0  0  0  0  0  0  0  0  0  0  0
   56.6994   25.3261   47.4353 H   0  0  0  0  0  0  0  0  0  0  0  0
   55.4525   25.0810   46.1657 H   0  0  0  0  0  0  0  0  0  0  0  0
   56.9433   24.0789   46.1657 H   0  0  0  0  0  0  0  0  0  0  0  0
   57.4821   27.4810   47.1585 H   0  0  0  0  0  0  0  0  0  0  0  0
   57.5748   33.2012   44.9932 H   0  0  0  0  0  0  0  0  0  0  0  0
   56.9445   33.5440   46.6369 H   0  0  0  0  0  0  0  0  0  0  0  0
   59.7583   33.9770   45.5446 H   0  0  0  0  0  0  0  0  0  0  0  0
   58.5969   35.1823   46.2717 H   0  0  0  0  0  0  0  0  0  0  0  0
   59.5493   34.9338   48.2379 H   0  0  0  0  0  0  0  0  0  0  0  0
   61.5951   33.0629   45.6112 H   0  0  0  0  0  0  0  0  0  0  0  0
   61.7101   34.8111   45.8979 H   0  0  0  0  0  0  0  0  0  0  0  0
   63.7836   32.7302   46.3207 H   0  0  0  0  0  0  0  0  0  0  0  0
   64.0060   34.4652   46.4191 H   0  0  0  0  0  0  0  0  0  0  0  0
   65.3932   33.4422   48.7910 H   0  0  0  0  0  0  0  0  0  0  0  0
   64.8850   33.3657   51.2543 H   0  0  0  0  0  0  0  0  0  0  0  0
   60.6289   33.5371   50.3700 H   0  0  0  0  0  0  0  0  0  0  0  0
   59.5552   32.7068   49.4712 H   0  0  0  0  0  0  0  0  0  0  0  0
   57.9620   33.4292   48.9311 H   0  0  0  0  0  0  0  0  0  0  0  0
   59.3691   30.9404   47.9758 H   0  0  0  0  0  0  0  0  0  0  0  0
   57.6283   31.2321   48.4001 H   0  0  0  0  0  0  0  0  0  0  0  0
   59.0650   28.7990   43.3550 H   0  0  0  0  0  0  0  0  0  0  0  0
   58.3296   26.6687   42.3052 H   0  0  0  0  0  0  0  0  0  0  0  0
   55.9750   24.4848   43.4281 H   0  0  0  0  0  0  0  0  0  0  0  0
   57.4522   24.6052   42.3975 H   0  0  0  0  0  0  0  0  0  0  0  0
   58.9170   21.2740   44.9160 H   0  0  0  0  0  0  0  0  0  0  0  0
   57.7910   20.0740   44.1690 H   0  0  0  0  0  0  0  0  0  0  0  0
  1  2  1  0
  2  3  2  0
  3  4  1  0
  4  5  1  0
  5  6  1  0
  6  7  2  0
  6  8  1  0
  8  9  1  0
  9 10  1  0
 10 11  1  0
 11 12  1  0
 12 13  1  0
 13 14  1  0
 14 15  1  0
 15 16  2  0
 16 17  1  0
 17 18  2  0
 18 19  1  0
 18 20  1  0
 20 21  2  0
 11 22  1  0
 22 23  1  0
  4 24  2  0
 24 25  1  0
 25 26  2  0
 26 27  1  0
 27 28  1  0
 28 29  1  0
 29 30  1  0
 29 31  2  0
 26  2  1  0
 23  8  1  0
 21 12  1  0
 21 15  1  0
  1 32  1  0
  1 33  1  0
  1 34  1  0
  3 35  1  0
  9 36  1  0
  9 37  1  0
 10 38  1  0
 10 39  1  0
 11 40  1  0
 13 41  1  0
 13 42  1  0
 14 43  1  0
 14 44  1  0
 16 45  1  0
 17 46  1  0
 20 47  1  0
 22 48  1  0
 22 49  1  0
 23 50  1  0
 23 51  1  0
 24 52  1  0
 25 53  1  0
 27 54  1  0
 27 55  1  0
 30 56  1  0
 30 57  1  0
M  CHG  1   5  -1
M  END
>  <UniqueID>  (8) 
8

>  <SMILES>  (8) 
Cc1cc([N-]C(=O)N2CCC(N3CCc4ccc(F)cc43)CC2)ccc1COC(N)=O

>  <Energy>  (8) 
80.34614386587255

>  <Genealogy>  (8) 
Cc1cc([N-]C(=O)N2CCC(N3CCc4ccc(F)cc43)CC2)ccc1COC(N)=O (protonated)
Cc1cc([N-]C(=O)N2CCC(N3CCc4ccc(F)cc43)CC2)ccc1COC(N)=O (3D coordinates assigned)
Cc1cc([N-]C(=O)N2CCC(N3CCc4ccc(F)cc43)CC2)ccc1COC(N)=O (nonaromatic ring conformer: 80.34614386587255 kcal/mol)

>  <smiles>  (8) 
Cc1cc(NC(=O)N2CCC(N3CCc4ccc(F)cc43)CC2)ccc1COC(N)=O

>  <score_type>  (8) 
oracle

>  <origin>  (8) 
adg

>  <m_score__min__energy>  (8) 
-10.35

>  <m_primary>  (8) 
energy

$$$$
8:0
     RDKit          3D

 60 62  0  0  0  0  0  0  0  0999 V2000
   56.6480   24.6380   43.4830 N   0  0  0  0  0  0  0  0  0  0  0  0
   55.8530   23.4980   43.8090 C   0  0  0  0  0  0  0  0  0  0  0  0
   55.7950   22.5300   43.0040 O   0  0  0  0  0  0  0  0  0  0  0  0
   55.0870   23.4440   45.1040 C   0  0  0  0  0  0  0  0  0  0  0  0
   55.5910   24.4330   46.1780 C   0  0  2  0  0  0  0  0  0  0  0  0
   55.2340   25.8130   45.8370 N   0  0  0  0  0  0  0  0  0  0  0  0
   57.0720   24.3100   46.4480 C   0  0  0  0  0  0  0  0  0  0  0  0
   57.4910   23.4140   47.2310 O   0  0  0  0  0  0  0  0  0  0  0  0
   57.9920   25.2270   45.8490 N   0  0  0  0  0  0  0  0  0  0  0  0
   58.4340   26.4580   46.4890 C   0  0  0  0  0  0  0  0  0  0  0  0
   59.2440   27.3020   45.4930 C   0  0  0  0  0  0  0  0  0  0  0  0
   58.4400   28.4740   44.9770 C   0  0  0  0  0  0  0  0  0  0  0  0
   57.6150   28.2840   43.8550 C   0  0  0  0  0  0  0  0  0  0  0  0
   56.8510   29.3370   43.3470 C   0  0  0  0  0  0  0  0  0  0  0  0
   56.9000   30.5940   43.9530 C   0  0  0  0  0  0  0  0  0  0  0  0
   57.7190   30.8040   45.0640 C   0  0  0  0  0  0  0  0  0  0  0  0
   58.5050   29.7580   45.5780 C   0  0  0  0  0  0  0  0  0  0  0  0
   59.3690   30.0340   46.7440 C   0  0  0  0  0  0  0  0  0  0  0  0
   58.9510   29.6620   48.0300 C   0  0  0  0  0  0  0  0  0  0  0  0
   59.7730   29.9040   49.1300 C   0  0  0  0  0  0  0  0  0  0  0  0
   61.0100   30.5320   48.9600 C   0  0  0  0  0  0  0  0  0  0  0  0
   61.4300   30.9380   47.6810 C   0  0  0  0  0  0  0  0  0  0  0  0
   62.6630   31.6390   47.4570 N   0  0  0  0  0  0  0  0  0  0  0  0
   62.9470   33.3440   47.6280 S   0  0  0  0  0  0  0  0  0  0  0  0
   64.2180   33.5970   48.3890 O   0  0  0  0  0  0  0  0  0  0  0  0
   63.1010   33.9330   46.2540 O   0  0  0  0  0  0  0  0  0  0  0  0
   61.5640   34.1470   48.4260 C   0  0  0  0  0  0  0  0  0  0  0  0
   60.3350   34.1040   47.5610 C   0  0  0  0  0  0  0  0  0  0  0  0
   59.1660   33.4740   48.0220 C   0  0  0  0  0  0  0  0  0  0  0  0
   58.0450   33.3800   47.1920 C   0  0  0  0  0  0  0  0  0  0  0  0
   58.0830   33.9080   45.8990 C   0  0  0  0  0  0  0  0  0  0  0  0
   59.2420   34.5380   45.4340 C   0  0  0  0  0  0  0  0  0  0  0  0
   60.3640   34.6380   46.2620 C   0  0  0  0  0  0  0  0  0  0  0  0
   60.6070   30.6750   46.5780 C   0  0  0  0  0  0  0  0  0  0  0  0
   56.6880   25.4620   44.1220 H   0  0  0  0  0  0  0  0  0  0  0  0
   57.1890   24.6630   42.5890 H   0  0  0  0  0  0  0  0  0  0  0  0
   54.0325   23.6735   44.8911 H   0  0  0  0  0  0  0  0  0  0  0  0
   55.2282   22.4329   45.5135 H   0  0  0  0  0  0  0  0  0  0  0  0
   55.0790   24.1589   47.1122 H   0  0  0  0  0  0  0  0  0  0  0  0
   56.0140   26.2510   45.2990 H   0  0  0  0  0  0  0  0  0  0  0  0
   55.1370   26.3590   46.7240 H   0  0  0  0  0  0  0  0  0  0  0  0
   57.5565   27.0307   46.8237 H   0  0  0  0  0  0  0  0  0  0  0  0
   59.0674   26.2101   47.3535 H   0  0  0  0  0  0  0  0  0  0  0  0
   60.1457   27.6811   45.9963 H   0  0  0  0  0  0  0  0  0  0  0  0
   59.5116   26.6640   44.6378 H   0  0  0  0  0  0  0  0  0  0  0  0
   57.5707   27.2965   43.3724 H   0  0  0  0  0  0  0  0  0  0  0  0
   56.2096   29.1758   42.4680 H   0  0  0  0  0  0  0  0  0  0  0  0
   56.2925   31.4199   43.5545 H   0  0  0  0  0  0  0  0  0  0  0  0
   57.7495   31.7950   45.5405 H   0  0  0  0  0  0  0  0  0  0  0  0
   57.9731   29.1785   48.1711 H   0  0  0  0  0  0  0  0  0  0  0  0
   59.4467   29.5995   50.1354 H   0  0  0  0  0  0  0  0  0  0  0  0
   61.6581   30.7095   49.8309 H   0  0  0  0  0  0  0  0  0  0  0  0
   61.3517   33.6350   49.3762 H   0  0  0  0  0  0  0  0  0  0  0  0
   61.8281   35.2001   48.6024 H   0  0  0  0  0  0  0  0  0  0  0  0
   59.1332   33.0540   49.0381 H   0  0  0  0  0  0  0  0  0  0  0  0
   57.1310   32.8892   47.5577 H   0  0  0  0  0  0  0  0  0  0  0  0
   57.2011   33.8282   45.2464 H   0  0  0  0  0  0  0  0  0  0  0  0
   59.2707   34.9549   44.4165 H   0  0  0  0  0  0  0  0  0  0  0  0
   61.2731   35.1368   45.8949 H   0  0  0  0  0  0  0  0  0  0  0  0
   60.9343   30.9739   45.5713 H   0  0  0  0  0  0  0  0  0  0  0  0
  1  2  1  0
  2  3  2  0
  2  4  1  0
  4  5  1  0
  5  6  1  0
  5  7  1  0
  7  8  2  0
  7  9  1  0
  9 10  1  0
 10 11  1  0
 11 12  1  0
 12 13  2  0
 13 14  1  0
 14 15  2  0
 15 16  1  0
 16 17  2  0
 17 18  1  0
 18 19  2  0
 19 20  1  0
 20 21  2  0
 21 22  1  0
 22 23  1  0
 23 24  1  0
 24 25  2  0
 24 26  2  0
 24 27  1  0
 27 28  1  0
 28 29  2  0
 29 30  1  0
 30 31  2  0
 31 32  1  0
 32 33  2  0
 22 34  2  0
 17 12  1  0
 34 18  1  0
 33 28  1  0
  1 35  1  0
  1 36  1  0
  4 37  1  0
  4 38  1  0
  5 39  1  1
  6 40  1  0
  6 41  1  0
 10 42  1  0
 10 43  1  0
 11 44  1  0
 11 45  1  0
 13 46  1  0
 14 47  1  0
 15 48  1  0
 16 49  1  0
 19 50  1  0
 20 51  1  0
 21 52  1  0
 27 53  1  0
 27 54  1  0
 29 55  1  0
 30 56  1  0
 31 57  1  0
 32 58  1  0
 33 59  1  0
 34 60  1  0
M  CHG  2   9  -1  23  -1
M  END
>  <UniqueID>  (9) 
9

>  <SMILES>  (9) 
NC(=O)C[C@H](N)C(=O)[N-]CCc1ccccc1-c1cccc([N-]S(=O)(=O)Cc2ccccc2)c1

>  <Energy>  (9) 
58.75026731691173

>  <Genealogy>  (9) 
NC(=O)CC(N)C(=O)[N-]CCc1ccccc1-c1cccc([N-]S(=O)(=O)Cc2ccccc2)c1 (protonated)
NC(=O)C[C@H](N)C(=O)[N-]CCc1ccccc1-c1cccc([N-]S(=O)(=O)Cc2ccccc2)c1 (chirality)
NC(=O)C[C@H](N)C(=O)[N-]CCc1ccccc1-c1cccc([N-]S(=O)(=O)Cc2ccccc2)c1 (3D coordinates assigned)
NC(=O)C[C@H](N)C(=O)[N-]CCc1ccccc1-c1cccc([N-]S(=O)(=O)Cc2ccccc2)c1 (optimized conformer: 58.75026731691173 kcal/mol)

>  <smiles>  (9) 
NC(=O)CC(N)C(=O)NCCc1ccccc1-c1cccc(NS(=O)(=O)Cc2ccccc2)c1

>  <score_type>  (9) 
oracle

>  <origin>  (9) 
adg

>  <m_score__min__energy>  (9) 
-12.76

>  <m_primary>  (9) 
energy

$$$$
9:0
     RDKit          3D

 55 58  0  0  0  0  0  0  0  0999 V2000
   60.3620   30.1350   45.4100 O   0  0  0  0  0  0  0  0  0  0  0  0
   60.0990   30.2330   46.6400 C   0  0  0  0  0  0  0  0  0  0  0  0
   59.4930   29.1390   47.3450 N   0  0  0  0  0  0  0  0  0  0  0  0
   58.8410   28.0300   46.7020 C   0  0  0  0  0  0  0  0  0  0  0  0
   58.7200   27.9590   45.3040 C   0  0  0  0  0  0  0  0  0  0  0  0
   58.0590   26.8830   44.7040 C   0  0  0  0  0  0  0  0  0  0  0  0
   57.4910   25.8680   45.4930 C   0  0  0  0  0  0  0  0  0  0  0  0
   56.8150   24.7530   44.8800 N   0  0  0  0  0  0  0  0  0  0  0  0
   57.5760   23.7680   44.1050 C   0  0  0  0  0  0  0  0  0  0  0  0
   56.6720   23.1470   43.0350 C   0  0  0  0  0  0  0  0  0  0  0  0
   55.4810   22.6450   43.6110 O   0  0  0  0  0  0  0  0  0  0  0  0
   54.7220   23.7120   44.1470 C   0  0  0  0  0  0  0  0  0  0  0  0
   55.4640   24.3800   45.3090 C   0  0  0  0  0  0  0  0  0  0  0  0
   57.5970   25.9500   46.8910 C   0  0  0  0  0  0  0  0  0  0  0  0
   58.2580   27.0260   47.4890 C   0  0  0  0  0  0  0  0  0  0  0  0
   60.4990   31.4790   47.3890 C   0  0  1  0  0  0  0  0  0  0  0  0
   62.0140   31.5260   47.6140 C   0  0  0  0  0  0  0  0  0  0  0  0
   62.4480   32.9460   47.2560 C   0  0  0  0  0  0  0  0  0  0  0  0
   61.3440   33.5120   46.3750 C   0  0  0  0  0  0  0  0  0  0  0  0
   60.1770   32.6840   46.6330 N   0  0  0  0  0  0  0  0  0  0  0  0
   58.8410   33.0370   46.2290 C   0  0  0  0  0  0  0  0  0  0  0  0
   58.2030   33.9090   46.8810 O   0  0  0  0  0  0  0  0  0  0  0  0
   58.1990   32.4130   45.0530 C   0  0  0  0  0  0  0  0  0  0  0  0
   58.5230   32.8500   43.7590 C   0  0  0  0  0  0  0  0  0  0  0  0
   57.9380   32.2450   42.6440 C   0  0  0  0  0  0  0  0  0  0  0  0
   57.0380   31.1900   42.8080 C   0  0  0  0  0  0  0  0  0  0  0  0
   56.7130   30.7240   44.0940 C   0  0  0  0  0  0  0  0  0  0  0  0
   55.7920   29.6310   44.2670 N   0  0  0  0  0  0  0  0  0  0  0  0
   55.9180   28.8360   45.2220 O   0  0  0  0  0  0  0  0  0  0  0  0
   54.7590   29.4400   43.3790 O   0  0  0  0  0  0  0  0  0  0  0  0
   57.3070   31.3370   45.2120 C   0  0  0  0  0  0  0  0  0  0  0  0
   59.5940   29.1150   48.3850 H   0  0  0  0  0  0  0  0  0  0  0  0
   59.1482   28.7553   44.6774 H   0  0  0  0  0  0  0  0  0  0  0  0
   57.9830   26.8305   43.6079 H   0  0  0  0  0  0  0  0  0  0  0  0
   58.4298   24.2640   43.6202 H   0  0  0  0  0  0  0  0  0  0  0  0
   57.9425   22.9781   44.7772 H   0  0  0  0  0  0  0  0  0  0  0  0
   56.4162   23.9145   42.2897 H   0  0  0  0  0  0  0  0  0  0  0  0
   57.2108   22.3145   42.5590 H   0  0  0  0  0  0  0  0  0  0  0  0
   54.5417   24.4575   43.3586 H   0  0  0  0  0  0  0  0  0  0  0  0
   53.7685   23.3118   44.5221 H   0  0  0  0  0  0  0  0  0  0  0  0
   54.9174   25.2817   45.6224 H   0  0  0  0  0  0  0  0  0  0  0  0
   55.5296   23.6773   46.1528 H   0  0  0  0  0  0  0  0  0  0  0  0
   57.1567   25.1618   47.5194 H   0  0  0  0  0  0  0  0  0  0  0  0
   58.3217   27.0862   48.5855 H   0  0  0  0  0  0  0  0  0  0  0  0
   59.9482   31.4456   48.3406 H   0  0  0  0  0  0  0  0  0  0  0  0
   62.2514   31.3073   48.6656 H   0  0  0  0  0  0  0  0  0  0  0  0
   62.5363   30.7777   46.9998 H   0  0  0  0  0  0  0  0  0  0  0  0
   62.5592   33.5528   48.1667 H   0  0  0  0  0  0  0  0  0  0  0  0
   63.4191   32.9525   46.7394 H   0  0  0  0  0  0  0  0  0  0  0  0
   61.1386   34.5593   46.6415 H   0  0  0  0  0  0  0  0  0  0  0  0
   61.6249   33.5007   45.3115 H   0  0  0  0  0  0  0  0  0  0  0  0
   59.2406   33.6724   43.6224 H   0  0  0  0  0  0  0  0  0  0  0  0
   58.1872   32.6009   41.6334 H   0  0  0  0  0  0  0  0  0  0  0  0
   56.5802   30.7203   41.9249 H   0  0  0  0  0  0  0  0  0  0  0  0
   57.0713   30.9708   46.2221 H   0  0  0  0  0  0  0  0  0  0  0  0
  1  2  2  0
  2  3  1  0
  3  4  1  0
  4  5  2  0
  5  6  1  0
  6  7  2  0
  7  8  1  0
  8  9  1  0
  9 10  1  0
 10 11  1  0
 11 12  1  0
 12 13  1  0
  7 14  1  0
 14 15  2  0
  2 16  1  0
 16 17  1  0
 17 18  1  0
 18 19  1  0
 19 20  1  0
 20 21  1  0
 21 22  2  0
 21 23  1  0
 23 24  2  0
 24 25  1  0
 25 26  2  0
 26 27  1  0
 27 28  1  0
 28 29  2  0
 28 30  1  0
 27 31  2  0
 15  4  1  0
 20 16  1  0
 31 23  1  0
 13  8  1  0
  3 32  1  0
  5 33  1  0
  6 34  1  0
  9 35  1  0
  9 36  1  0
 10 37  1  0
 10 38  1  0
 12 39  1  0
 12 40  1  0
 13 41  1  0
 13 42  1  0
 14 43  1  0
 15 44  1  0
 16 45  1  1
 17 46  1  0
 17 47  1  0
 18 48  1  0
 18 49  1  0
 19 50  1  0
 19 51  1  0
 24 52  1  0
 25 53  1  0
 26 54  1  0
 31 55  1  0
M  CHG  2  28   1  30  -1
M  END
>  <UniqueID>  (10) 
10

>  <SMILES>  (10) 
O=C(Nc1ccc(N2CCOCC2)cc1)[C@H]1CCCN1C(=O)c1cccc([N+](=O)[O-])c1

>  <Energy>  (10) 
73.79073691583369

>  <Genealogy>  (10) 
O=C(Nc1ccc(N2CCOCC2)cc1)[C@H]1CCCN1C(=O)c1cccc([N+](=O)[O-])c1 (chirality)
O=C(Nc1ccc(N2CCOCC2)cc1)[C@H]1CCCN1C(=O)c1cccc([N+](=O)[O-])c1 (3D coordinates assigned)
O=C(Nc1ccc(N2CCOCC2)cc1)[C@H]1CCCN1C(=O)c1cccc([N+](=O)[O-])c1 (nonaromatic ring conformer: 73.79073691583369 kcal/mol)

>  <smiles>  (10) 
O=C(Nc1ccc(N2CCOCC2)cc1)C1CCCN1C(=O)c1cccc([N+](=O)[O-])c1

>  <score_type>  (10) 
oracle

>  <origin>  (10) 
adg

>  <m_score__min__energy>  (10) 
-9.25

>  <m_primary>  (10) 
energy

$$$$
10:0
     RDKit          3D

 65 68  0  0  0  0  0  0  0  0999 V2000
   54.7520   26.3300   45.8280 N   0  0  0  0  0  0  0  0  0  0  0  0
   55.3430   25.0330   45.9010 C   0  0  0  0  0  0  0  0  0  0  0  0
   54.7230   24.0930   46.4690 O   0  0  0  0  0  0  0  0  0  0  0  0
   56.6620   24.7840   45.2320 C   0  0  0  0  0  0  0  0  0  0  0  0
   57.7790   25.3250   46.0420 N   0  0  0  0  0  0  0  0  0  0  0  0
   57.3200   26.2690   47.0940 C   0  0  0  0  0  0  0  0  0  0  0  0
   57.4170   27.7490   46.6710 C   0  0  0  0  0  0  0  0  0  0  0  0
   57.2540   27.8690   45.2150 N   0  0  0  0  0  0  0  0  0  0  0  0
   57.1670   29.5500   44.7530 S   0  0  0  0  0  0  0  0  0  0  0  0
   57.7440   29.7410   43.3770 O   0  0  0  0  0  0  0  0  0  0  0  0
   55.7290   29.9910   44.7300 O   0  0  0  0  0  0  0  0  0  0  0  0
   58.0520   30.5530   45.9010 C   0  0  0  0  0  0  0  0  0  0  0  0
   57.7630   31.9190   46.0160 C   0  0  0  0  0  0  0  0  0  0  0  0
   58.4750   32.7160   46.9190 C   0  0  0  0  0  0  0  0  0  0  0  0
   59.4810   32.1590   47.7170 C   0  0  0  0  0  0  0  0  0  0  0  0
   60.1680   32.9880   48.6170 O   0  0  0  0  0  0  0  0  0  0  0  0
   59.9930   32.9870   50.0100 C   0  0  0  0  0  0  0  0  0  0  0  0
   61.1170   33.1190   50.8340 C   0  0  0  0  0  0  0  0  0  0  0  0
   60.9750   33.1410   52.2240 C   0  0  0  0  0  0  0  0  0  0  0  0
   59.7080   33.0190   52.8020 C   0  0  0  0  0  0  0  0  0  0  0  0
   58.5730   32.8520   51.9910 C   0  0  0  0  0  0  0  0  0  0  0  0
   57.2150   32.6770   52.6160 C   0  0  0  0  0  0  0  0  0  0  0  0
   57.0550   31.2740   53.1040 C   0  0  0  0  0  0  0  0  0  0  0  0
   57.4500   30.9620   54.2600 O   0  0  0  0  0  0  0  0  0  0  0  0
   56.4090   30.3070   52.2700 N   0  0  0  0  0  0  0  0  0  0  0  0
   55.2400   29.5450   52.6910 C   0  0  0  0  0  0  0  0  0  0  0  0
   53.9940   30.3360   52.4020 C   0  0  0  0  0  0  0  0  0  0  0  0
   53.8040   30.9040   51.1310 C   0  0  0  0  0  0  0  0  0  0  0  0
   52.6790   31.6930   50.8720 C   0  0  0  0  0  0  0  0  0  0  0  0
   51.7380   31.9230   51.8810 C   0  0  0  0  0  0  0  0  0  0  0  0
   50.6210   32.7080   51.6260 O   0  0  0  0  0  0  0  0  0  0  0  0
   51.9220   31.3640   53.1490 C   0  0  0  0  0  0  0  0  0  0  0  0
   53.0470   30.5750   53.4100 C   0  0  0  0  0  0  0  0  0  0  0  0
   58.7240   32.8170   50.5940 C   0  0  0  0  0  0  0  0  0  0  0  0
   59.7440   30.7790   47.6250 C   0  0  0  0  0  0  0  0  0  0  0  0
   59.0400   29.9860   46.7160 C   0  0  0  0  0  0  0  0  0  0  0  0
   58.3690   27.2120   44.5000 C   0  0  0  0  0  0  0  0  0  0  0  0
   58.8370   25.9180   45.2020 C   0  0  0  0  0  0  0  0  0  0  0  0
   55.2070   27.0920   45.2780 H   0  0  0  0  0  0  0  0  0  0  0  0
   56.8019   23.7004   45.1047 H   0  0  0  0  0  0  0  0  0  0  0  0
   56.6605   25.2898   44.2552 H   0  0  0  0  0  0  0  0  0  0  0  0
   56.2704   26.0423   47.3325 H   0  0  0  0  0  0  0  0  0  0  0  0
   57.9812   26.1348   47.9628 H   0  0  0  0  0  0  0  0  0  0  0  0
   56.6259   28.3241   47.1745 H   0  0  0  0  0  0  0  0  0  0  0  0
   58.4040   28.1416   46.9568 H   0  0  0  0  0  0  0  0  0  0  0  0
   56.9736   32.3665   45.3942 H   0  0  0  0  0  0  0  0  0  0  0  0
   58.2425   33.7879   47.0024 H   0  0  0  0  0  0  0  0  0  0  0  0
   62.1174   33.2059   50.3849 H   0  0  0  0  0  0  0  0  0  0  0  0
   61.8620   33.2545   52.8646 H   0  0  0  0  0  0  0  0  0  0  0  0
   59.5993   33.0539   53.8961 H   0  0  0  0  0  0  0  0  0  0  0  0
   57.1113   33.3714   53.4628 H   0  0  0  0  0  0  0  0  0  0  0  0
   56.4409   32.8885   51.8637 H   0  0  0  0  0  0  0  0  0  0  0  0
   55.2055   28.5930   52.1410 H   0  0  0  0  0  0  0  0  0  0  0  0
   55.3036   29.3433   53.7705 H   0  0  0  0  0  0  0  0  0  0  0  0
   54.5436   30.7272   50.3361 H   0  0  0  0  0  0  0  0  0  0  0  0
   52.5340   32.1330   49.8743 H   0  0  0  0  0  0  0  0  0  0  0  0
   51.1815   31.5448   53.9421 H   0  0  0  0  0  0  0  0  0  0  0  0
   53.1903   30.1397   54.4100 H   0  0  0  0  0  0  0  0  0  0  0  0
   57.8446   32.6557   49.9531 H   0  0  0  0  0  0  0  0  0  0  0  0
   60.5077   30.3231   48.2722 H   0  0  0  0  0  0  0  0  0  0  0  0
   59.2624   28.9114   46.6398 H   0  0  0  0  0  0  0  0  0  0  0  0
   58.0369   26.9613   43.4818 H   0  0  0  0  0  0  0  0  0  0  0  0
   59.2175   27.9119   44.4861 H   0  0  0  0  0  0  0  0  0  0  0  0
   59.1324   25.1863   44.4356 H   0  0  0  0  0  0  0  0  0  0  0  0
   59.6825   26.1761   45.8566 H   0  0  0  0  0  0  0  0  0  0  0  0
  1  2  1  0
  2  3  2  0
  2  4  1  0
  4  5  1  0
  5  6  1  0
  6  7  1  0
  7  8  1  0
  8  9  1  0
  9 10  2  0
  9 11  2  0
  9 12  1  0
 12 13  2  0
 13 14  1  0
 14 15  2  0
 15 16  1  0
 16 17  1  0
 17 18  2  0
 18 19  1  0
 19 20  2  0
 20 21  1  0
 21 22  1  0
 22 23  1  0
 23 24  2  0
 23 25  1  0
 25 26  1  0
 26 27  1  0
 27 28  2  0
 28 29  1  0
 29 30  2  0
 30 31  1  0
 30 32  1  0
 32 33  2  0
 21 34  2  0
 15 35  1  0
 35 36  2  0
  8 37  1  0
 37 38  1  0
 38  5  1  0
 36 12  1  0
 34 17  1  0
 33 27  1  0
  1 39  1  0
  4 40  1  0
  4 41  1  0
  6 42  1  0
  6 43  1  0
  7 44  1  0
  7 45  1  0
 13 46  1  0
 14 47  1  0
 18 48  1  0
 19 49  1  0
 20 50  1  0
 22 51  1  0
 22 52  1  0
 26 53  1  0
 26 54  1  0
 28 55  1  0
 29 56  1  0
 32 57  1  0
 33 58  1  0
 34 59  1  0
 35 60  1  0
 36 61  1  0
 37 62  1  0
 37 63  1  0
 38 64  1  0
 38 65  1  0
M  CHG  3   1  -1  25  -1  31  -1
M  END
>  <UniqueID>  (11) 
11

>  <SMILES>  (11) 
[NH-]C(=O)CN1CCN(S(=O)(=O)c2ccc(Oc3cccc(CC(=O)[N-]Cc4ccc([O-])cc4)c3)cc2)CC1

>  <Energy>  (11) 
78.84606473277316

>  <Genealogy>  (11) 
[NH-]C(=O)CN1CCN(S(=O)(=O)c2ccc(Oc3cccc(CC(=O)[N-]Cc4ccc([O-])cc4)c3)cc2)CC1 (protonated)
[NH-]C(=O)CN1CCN(S(=O)(=O)c2ccc(Oc3cccc(CC(=O)[N-]Cc4ccc([O-])cc4)c3)cc2)CC1 (3D coordinates assigned)
[NH-]C(=O)CN1CCN(S(=O)(=O)c2ccc(Oc3cccc(CC(=O)[N-]Cc4ccc([O-])cc4)c3)cc2)CC1 (nonaromatic ring conformer: 78.84606473277316 kcal/mol)

>  <smiles>  (11) 
NC(=O)CN1CCN(S(=O)(=O)c2ccc(Oc3cccc(CC(=O)NCc4ccc(O)cc4)c3)cc2)CC1

>  <score_type>  (11) 
oracle

>  <origin>  (11) 
adg

>  <m_score__min__energy>  (11) 
-18.93

>  <m_primary>  (11) 
energy

$$$$
11:0
     RDKit          3D

 43 45  0  0  0  0  0  0  0  0999 V2000
   60.6097   26.6285   45.6487 H   0  0  0  0  0  0  0  0  0  0  0  0
   59.6690   27.0440   46.0390 C   0  0  0  0  0  0  0  0  0  0  0  0
   59.7190   28.2700   46.6020 C   0  0  0  0  0  0  0  0  0  0  0  0
   59.4780   28.4610   48.0170 C   0  0  0  0  0  0  0  0  0  0  0  0
   59.2840   28.6100   49.1500 N   0  0  0  0  0  0  0  0  0  0  0  0
   60.0340   29.4570   45.7670 C   0  0  0  0  0  0  0  0  0  0  0  0
   60.1830   29.3210   44.5220 O   0  0  0  0  0  0  0  0  0  0  0  0
   60.0930   30.7810   46.3180 N   0  0  0  0  0  0  0  0  0  0  0  0
   59.2400   31.8810   45.9740 C   0  0  0  0  0  0  0  0  0  0  0  0
   59.5370   33.1540   46.4800 C   0  0  0  0  0  0  0  0  0  0  0  0
   60.4155   33.2947   47.1269 H   0  0  0  0  0  0  0  0  0  0  0  0
   58.7210   34.2470   46.1660 C   0  0  0  0  0  0  0  0  0  0  0  0
   58.9671   35.2464   46.5542 H   0  0  0  0  0  0  0  0  0  0  0  0
   57.5930   34.0690   45.3590 C   0  0  0  0  0  0  0  0  0  0  0  0
   56.9559   34.9295   45.1065 H   0  0  0  0  0  0  0  0  0  0  0  0
   57.2750   32.7970   44.8730 C   0  0  0  0  0  0  0  0  0  0  0  0
   56.3827   32.6560   44.2453 H   0  0  0  0  0  0  0  0  0  0  0  0
   58.0900   31.7040   45.1840 C   0  0  0  0  0  0  0  0  0  0  0  0
   57.8308   30.7027   44.8096 H   0  0  0  0  0  0  0  0  0  0  0  0
   58.4490   26.2120   45.9040 C   0  0  0  0  0  0  0  0  0  0  0  0
   58.5130   24.8150   45.7540 C   0  0  0  0  0  0  0  0  0  0  0  0
   59.4912   24.3136   45.7120 H   0  0  0  0  0  0  0  0  0  0  0  0
   57.3400   24.0600   45.6580 C   0  0  0  0  0  0  0  0  0  0  0  0
   57.4012   22.9712   45.5140 H   0  0  0  0  0  0  0  0  0  0  0  0
   56.0880   24.6810   45.7440 C   0  0  0  0  0  0  0  0  0  0  0  0
   54.8960   23.8850   45.6370 N   0  0  0  0  0  0  0  0  0  0  0  0
   54.7390   22.6990   46.4780 C   0  0  0  0  0  0  0  0  0  0  0  0
   55.1338   21.8196   45.9482 H   0  0  0  0  0  0  0  0  0  0  0  0
   55.2924   22.8417   47.4179 H   0  0  0  0  0  0  0  0  0  0  0  0
   53.2560   22.4830   46.7890 C   0  0  0  0  0  0  0  0  0  0  0  0
   53.1315   21.5200   47.3059 H   0  0  0  0  0  0  0  0  0  0  0  0
   52.9041   23.3061   47.4282 H   0  0  0  0  0  0  0  0  0  0  0  0
   52.4930   22.4730   45.5960 O   0  0  0  0  0  0  0  0  0  0  0  0
   52.5430   23.7490   44.9850 C   0  0  0  0  0  0  0  0  0  0  0  0
   51.8691   23.7591   44.1157 H   0  0  0  0  0  0  0  0  0  0  0  0
   52.2305   24.5046   45.7208 H   0  0  0  0  0  0  0  0  0  0  0  0
   53.9660   24.0750   44.5210 C   0  0  0  0  0  0  0  0  0  0  0  0
   54.2445   23.4065   43.6930 H   0  0  0  0  0  0  0  0  0  0  0  0
   54.0111   25.1192   44.1782 H   0  0  0  0  0  0  0  0  0  0  0  0
   56.0190   26.0730   45.9260 C   0  0  0  0  0  0  0  0  0  0  0  0
   54.7890   26.7160   46.0040 O   0  0  0  0  0  0  0  0  0  0  0  0
   57.1940   26.8280   46.0150 C   0  0  0  0  0  0  0  0  0  0  0  0
   57.1326   27.9148   46.1735 H   0  0  0  0  0  0  0  0  0  0  0  0
  1  2  1  0
  2  3  2  0
  3  4  1  0
  4  5  3  0
  3  6  1  0
  6  7  2  0
  6  8  1  0
  8  9  1  0
  9 10  2  0
 10 11  1  0
 10 12  1  0
 12 13  1  0
 12 14  2  0
 14 15  1  0
 14 16  1  0
 16 17  1  0
 16 18  2  0
 18 19  1  0
  2 20  1  0
 20 21  2  0
 21 22  1  0
 21 23  1  0
 23 24  1  0
 23 25  2  0
 25 26  1  0
 26 27  1  0
 27 28  1  0
 27 29  1  0
 27 30  1  0
 30 31  1  0
 30 32  1  0
 30 33  1  0
 33 34  1  0
 34 35  1  0
 34 36  1  0
 34 37  1  0
 37 38  1  0
 37 39  1  0
 25 40  1  0
 40 41  1  0
 40 42  2  0
 42 43  1  0
 18  9  1  0
 42 20  1  0
 37 26  1  0
M  CHG  2   8  -1  41  -1
M  END
>  <UniqueID>  (12) 
12

>  <SMILES>  (12) 
N#C/C(=C\c1ccc(N2CCOCC2)c([O-])c1)C(=O)[N-]c1ccccc1

>  <Energy>  (12) 
63.20203721230387

>  <Genealogy>  (12) 
N#CC(=Cc1ccc(N2CCOCC2)c([O-])c1)C(=O)[N-]c1ccccc1 (protonated)
N#C/C(=C\c1ccc(N2CCOCC2)c([O-])c1)C(=O)[N-]c1ccccc1 (cis-trans isomerization)
N#C/C(=C\c1ccc(N2CCOCC2)c([O-])c1)C(=O)[N-]c1ccccc1 (3D coordinates assigned)
N#C/C(=C\c1ccc(N2CCOCC2)c([O-])c1)C(=O)[N-]c1ccccc1 (nonaromatic ring conformer: 63.20203721230387 kcal/mol)

>  <smiles>  (12) 
N#CC(=Cc1ccc(N2CCOCC2)c(O)c1)C(=O)Nc1ccccc1

>  <score_type>  (12) 
oracle

>  <origin>  (12) 
adg

>  <m_score__min__energy>  (12) 
-12.470000000000001

>  <m_primary>  (12) 
energy

$$$$
12:0
     RDKit          3D

 67 71  0  0  0  0  0  0  0  0999 V2000
   59.5920   27.2670   48.2590 C   0  0  0  0  0  0  0  0  0  0  0  0
   59.6990   28.3980   47.5410 C   0  0  0  0  0  0  0  0  0  0  0  0
   59.2780   28.5800   46.2140 C   0  0  0  0  0  0  0  0  0  0  0  0
   58.5000   27.8230   45.4170 C   0  0  0  0  0  0  0  0  0  0  0  0
   57.2950   27.0860   45.8280 C   0  0  0  0  0  0  0  0  0  0  0  0
   57.3220   25.8240   46.2900 N   0  0  0  0  0  0  0  0  0  0  0  0
   56.0150   25.5010   46.3990 C   0  0  0  0  0  0  0  0  0  0  0  0
   55.6270   24.3800   46.8170 O   0  0  0  0  0  0  0  0  0  0  0  0
   55.1570   26.4660   46.0090 N   0  0  0  0  0  0  0  0  0  0  0  0
   55.9820   27.4570   45.6330 C   0  0  0  0  0  0  0  0  0  0  0  0
   55.5440   28.6580   45.0860 O   0  0  0  0  0  0  0  0  0  0  0  0
   59.8330   29.7730   45.7920 C   0  0  0  0  0  0  0  0  0  0  0  0
   60.4970   30.3130   46.8710 C   0  0  0  0  0  0  0  0  0  0  0  0
   61.2840   31.5620   46.8180 C   0  0  0  0  0  0  0  0  0  0  0  0
   62.5400   31.5230   46.8840 O   0  0  0  0  0  0  0  0  0  0  0  0
   60.6330   32.8230   46.6600 N   0  0  0  0  0  0  0  0  0  0  0  0
   59.2700   33.3390   46.4410 C   0  0  0  0  0  0  0  0  0  0  0  0
   59.6700   34.7640   46.2520 C   0  0  0  0  0  0  0  0  0  0  0  0
   61.0430   34.2250   46.4730 C   0  0  0  0  0  0  0  0  0  0  0  0
   60.4020   29.4920   47.9460 N   0  0  0  0  0  0  0  0  0  0  0  0
   61.0720   29.7170   49.2410 C   0  0  0  0  0  0  0  0  0  0  0  0
   61.0430   31.1790   49.6650 C   0  0  0  0  0  0  0  0  0  0  0  0
   62.2450   31.8210   50.0400 C   0  0  0  0  0  0  0  0  0  0  0  0
   62.2660   33.1780   50.3570 C   0  0  0  0  0  0  0  0  0  0  0  0
   61.0860   33.9160   50.3430 C   0  0  0  0  0  0  0  0  0  0  0  0
   59.8780   33.2930   50.0420 C   0  0  0  0  0  0  0  0  0  0  0  0
   59.8300   31.9230   49.7200 C   0  0  0  0  0  0  0  0  0  0  0  0
   58.4630   31.3220   49.4530 C   0  0  0  0  0  0  0  0  0  0  0  0
   57.5360   31.6880   50.5210 N   0  0  0  0  0  0  0  0  0  0  0  0
   57.2300   30.8000   51.6030 C   0  0  0  0  0  0  0  0  0  0  0  0
   57.6010   29.5930   51.5600 O   0  0  0  0  0  0  0  0  0  0  0  0
   56.4620   31.2980   52.7940 C   0  0  0  0  0  0  0  0  0  0  0  0
   57.3110   31.3040   54.0720 C   0  0  0  0  0  0  0  0  0  0  0  0
   58.5550   32.1470   53.9260 C   0  0  0  0  0  0  0  0  0  0  0  0
   59.8160   31.6120   54.2360 C   0  0  0  0  0  0  0  0  0  0  0  0
   60.9660   32.3930   54.0970 C   0  0  0  0  0  0  0  0  0  0  0  0
   60.8680   33.7080   53.6330 C   0  0  0  0  0  0  0  0  0  0  0  0
   59.6200   34.2410   53.3050 C   0  0  0  0  0  0  0  0  0  0  0  0
   58.4650   33.4660   53.4490 C   0  0  0  0  0  0  0  0  0  0  0  0
   59.9575   27.2372   49.2961 H   0  0  0  0  0  0  0  0  0  0  0  0
   59.1389   26.3710   47.8096 H   0  0  0  0  0  0  0  0  0  0  0  0
   58.7931   27.7488   44.3594 H   0  0  0  0  0  0  0  0  0  0  0  0
   59.7586   30.2089   44.7848 H   0  0  0  0  0  0  0  0  0  0  0  0
   58.7918   32.9100   45.5481 H   0  0  0  0  0  0  0  0  0  0  0  0
   58.5225   33.1271   47.2197 H   0  0  0  0  0  0  0  0  0  0  0  0
   59.4793   35.1819   45.2525 H   0  0  0  0  0  0  0  0  0  0  0  0
   59.2408   35.6028   46.8197 H   0  0  0  0  0  0  0  0  0  0  0  0
   61.6986   34.3628   45.6005 H   0  0  0  0  0  0  0  0  0  0  0  0
   61.6378   34.6841   47.2764 H   0  0  0  0  0  0  0  0  0  0  0  0
   60.5644   29.1163   50.0101 H   0  0  0  0  0  0  0  0  0  0  0  0
   62.1257   29.4220   49.1284 H   0  0  0  0  0  0  0  0  0  0  0  0
   63.1784   31.2406   50.0823 H   0  0  0  0  0  0  0  0  0  0  0  0
   63.2163   33.6664   50.6186 H   0  0  0  0  0  0  0  0  0  0  0  0
   61.1080   34.9921   50.5699 H   0  0  0  0  0  0  0  0  0  0  0  0
   58.9475   33.8794   50.0559 H   0  0  0  0  0  0  0  0  0  0  0  0
   58.0803   31.7004   48.4936 H   0  0  0  0  0  0  0  0  0  0  0  0
   58.5529   30.2264   49.4143 H   0  0  0  0  0  0  0  0  0  0  0  0
   57.1120   32.6440   50.5030 H   0  0  0  0  0  0  0  0  0  0  0  0
   56.1204   32.3238   52.5912 H   0  0  0  0  0  0  0  0  0  0  0  0
   55.6134   30.6173   52.9564 H   0  0  0  0  0  0  0  0  0  0  0  0
   56.7055   31.7060   54.8977 H   0  0  0  0  0  0  0  0  0  0  0  0
   57.6257   30.2694   54.2733 H   0  0  0  0  0  0  0  0  0  0  0  0
   59.8985   30.5737   54.5897 H   0  0  0  0  0  0  0  0  0  0  0  0
   61.9498   31.9727   54.3530 H   0  0  0  0  0  0  0  0  0  0  0  0
   61.7740   34.3227   53.5263 H   0  0  0  0  0  0  0  0  0  0  0  0
   59.5451   35.2732   52.9323 H   0  0  0  0  0  0  0  0  0  0  0  0
   57.4839   33.8896   53.1884 H   0  0  0  0  0  0  0  0  0  0  0  0
  1  2  2  0
  2  3  1  0
  3  4  2  3
  4  5  1  0
  5  6  1  0
  6  7  1  0
  7  8  2  0
  7  9  1  0
  9 10  1  0
 10 11  1  0
  3 12  1  0
 12 13  2  0
 13 14  1  0
 14 15  2  0
 14 16  1  0
 16 17  1  0
 17 18  1  0
 18 19  1  0
 13 20  1  0
 20 21  1  0
 21 22  1  0
 22 23  2  0
 23 24  1  0
 24 25  2  0
 25 26  1  0
 26 27  2  0
 27 28  1  0
 28 29  1  0
 29 30  1  0
 30 31  2  0
 30 32  1  0
 32 33  1  0
 33 34  1  0
 34 35  2  0
 35 36  1  0
 36 37  2  0
 37 38  1  0
 38 39  2  0
 20  2  1  0
 27 22  1  0
 39 34  1  0
 10  5  2  0
 19 16  1  0
  1 40  1  0
  1 41  1  0
  4 42  1  0
 12 43  1  0
 17 44  1  0
 17 45  1  0
 18 46  1  0
 18 47  1  0
 19 48  1  0
 19 49  1  0
 21 50  1  0
 21 51  1  0
 23 52  1  0
 24 53  1  0
 25 54  1  0
 26 55  1  0
 28 56  1  0
 28 57  1  0
 29 58  1  0
 32 59  1  0
 32 60  1  0
 33 61  1  0
 33 62  1  0
 35 63  1  0
 36 64  1  0
 37 65  1  0
 38 66  1  0
 39 67  1  0
M  CHG  3   6  -1   9  -1  11  -1
M  END
>  <UniqueID>  (13) 
13

>  <SMILES>  (13) 
C=c1c(=Cc2[n-]c(=O)[n-]c2[O-])cc(C(=O)N2CCC2)n1Cc1ccccc1CNC(=O)CCc1ccccc1

>  <Energy>  (13) 
183.90090503005595

>  <Genealogy>  (13) 
C=c1c(=Cc2[n-]c(=O)[n-]c2[O-])cc(C(=O)N2CCC2)n1Cc1ccccc1CNC(=O)CCc1ccccc1 (protonated)
C=c1c(=Cc2[n-]c(=O)[n-]c2[O-])cc(C(=O)N2CCC2)n1Cc1ccccc1CNC(=O)CCc1ccccc1 (3D coordinates assigned)
C=c1c(=Cc2[n-]c(=O)[n-]c2[O-])cc(C(=O)N2CCC2)n1Cc1ccccc1CNC(=O)CCc1ccccc1 (nonaromatic ring conformer: 183.90090503005595 kcal/mol)

>  <smiles>  (13) 
C=c1c(=Cc2[nH]c(=O)[nH]c2O)cc(C(=O)N2CCC2)n1Cc1ccccc1CNC(=O)CCc1ccccc1

>  <score_type>  (13) 
oracle

>  <origin>  (13) 
adg

>  <m_score__min__energy>  (13) 
-18.039999999999999

>  <m_primary>  (13) 
energy

$$$$
13:0
     RDKit          3D

 44 46  0  0  0  0  0  0  0  0999 V2000
   57.4070   26.3140   47.1510 O   0  0  0  0  0  0  0  0  0  0  0  0
   56.8240   26.7620   45.8410 S   0  0  0  0  0  0  0  0  0  0  0  0
   57.2670   25.8100   44.7620 O   0  0  0  0  0  0  0  0  0  0  0  0
   55.1470   26.7340   45.9240 O   0  0  0  0  0  0  0  0  0  0  0  0
   57.3810   28.3990   45.4790 C   0  0  0  0  0  0  0  0  0  0  0  0
   58.7340   28.7200   45.6670 C   0  0  0  0  0  0  0  0  0  0  0  0
   59.2010   30.0070   45.3960 C   0  0  0  0  0  0  0  0  0  0  0  0
   58.3290   30.9980   44.9360 C   0  0  0  0  0  0  0  0  0  0  0  0
   58.8500   32.3140   44.6990 N   0  0  0  0  0  0  0  0  0  0  0  0
   58.8530   33.6280   45.8320 S   0  0  0  0  0  0  0  0  0  0  0  0
   59.2890   34.8930   45.1460 O   0  0  0  0  0  0  0  0  0  0  0  0
   57.4550   33.8330   46.3490 O   0  0  0  0  0  0  0  0  0  0  0  0
   59.9080   33.2500   47.1900 C   0  0  0  0  0  0  0  0  0  0  0  0
   60.8110   34.2140   47.6580 C   0  0  0  0  0  0  0  0  0  0  0  0
   61.6670   33.9140   48.7210 C   0  0  0  0  0  0  0  0  0  0  0  0
   61.6210   32.6590   49.3220 C   0  0  0  0  0  0  0  0  0  0  0  0
   60.7220   31.6850   48.8690 C   0  0  0  0  0  0  0  0  0  0  0  0
   60.7150   30.4050   49.5120 N   0  0  0  0  0  0  0  0  0  0  0  0
   60.2170   30.1110   51.1460 S   0  0  0  0  0  0  0  0  0  0  0  0
   61.4320   30.1200   52.0280 O   0  0  0  0  0  0  0  0  0  0  0  0
   59.5630   28.7600   51.2230 O   0  0  0  0  0  0  0  0  0  0  0  0
   59.0430   31.3300   51.6460 C   0  0  0  0  0  0  0  0  0  0  0  0
   59.4740   32.6520   51.8290 C   0  0  0  0  0  0  0  0  0  0  0  0
   58.5690   33.6410   52.2170 C   0  0  0  0  0  0  0  0  0  0  0  0
   57.2280   33.3170   52.4280 C   0  0  0  0  0  0  0  0  0  0  0  0
   56.7880   32.0020   52.2450 C   0  0  0  0  0  0  0  0  0  0  0  0
   57.6870   31.0090   51.8510 C   0  0  0  0  0  0  0  0  0  0  0  0
   57.2190   29.7130   51.6610 O   0  0  0  0  0  0  0  0  0  0  0  0
   59.8620   31.9900   47.7990 C   0  0  0  0  0  0  0  0  0  0  0  0
   56.9730   30.6830   44.7460 C   0  0  0  0  0  0  0  0  0  0  0  0
   56.4940   29.3950   45.0120 C   0  0  0  0  0  0  0  0  0  0  0  0
   55.1340   29.1470   44.8050 O   0  0  0  0  0  0  0  0  0  0  0  0
   59.4319   27.9514   46.0307 H   0  0  0  0  0  0  0  0  0  0  0  0
   60.2648   30.2436   45.5457 H   0  0  0  0  0  0  0  0  0  0  0  0
   60.8460   35.2080   47.1881 H   0  0  0  0  0  0  0  0  0  0  0  0
   62.3784   34.6707   49.0835 H   0  0  0  0  0  0  0  0  0  0  0  0
   62.2963   32.4304   50.1596 H   0  0  0  0  0  0  0  0  0  0  0  0
   60.5306   32.9107   51.6659 H   0  0  0  0  0  0  0  0  0  0  0  0
   58.9128   34.6765   52.3566 H   0  0  0  0  0  0  0  0  0  0  0  0
   56.5166   34.0964   52.7385 H   0  0  0  0  0  0  0  0  0  0  0  0
   55.7305   31.7494   52.4120 H   0  0  0  0  0  0  0  0  0  0  0  0
   59.1488   31.2342   47.4383 H   0  0  0  0  0  0  0  0  0  0  0  0
   56.2802   31.4571   44.3842 H   0  0  0  0  0  0  0  0  0  0  0  0
   54.7670   28.2570   44.4970 H   0  0  0  0  0  0  0  0  0  0  0  0
  1  2  2  0
  2  3  2  0
  2  4  1  0
  2  5  1  0
  5  6  2  0
  6  7  1  0
  7  8  2  0
  8  9  1  0
  9 10  1  0
 10 11  2  0
 10 12  2  0
 10 13  1  0
 13 14  2  0
 14 15  1  0
 15 16  2  0
 16 17  1  0
 17 18  1  0
 18 19  1  0
 19 20  2  0
 19 21  2  0
 19 22  1  0
 22 23  2  0
 23 24  1  0
 24 25  2  0
 25 26  1  0
 26 27  2  0
 27 28  1  0
 17 29  2  0
  8 30  1  0
 30 31  2  0
 31 32  1  0
 31  5  1  0
 29 13  1  0
 27 22  1  0
  6 33  1  0
  7 34  1  0
 14 35  1  0
 15 36  1  0
 16 37  1  0
 23 38  1  0
 24 39  1  0
 25 40  1  0
 26 41  1  0
 29 42  1  0
 30 43  1  0
 32 44  1  0
M  CHG  4   4  -1   9  -1  18  -1  28  -1
M  END
>  <UniqueID>  (14) 
14

>  <SMILES>  (14) 
O=S(=O)([O-])c1ccc([N-]S(=O)(=O)c2cccc([N-]S(=O)(=O)c3ccccc3[O-])c2)cc1O

>  <Energy>  (14) 
56.500086017224774

>  <Genealogy>  (14) 
O=S(=O)([O-])c1ccc([N-]S(=O)(=O)c2cccc([N-]S(=O)(=O)c3ccccc3[O-])c2)cc1O (protonated)
O=S(=O)([O-])c1ccc([N-]S(=O)(=O)c2cccc([N-]S(=O)(=O)c3ccccc3[O-])c2)cc1O (3D coordinates assigned)
O=S(=O)([O-])c1ccc([N-]S(=O)(=O)c2cccc([N-]S(=O)(=O)c3ccccc3[O-])c2)cc1O (optimized conformer: 56.500086017224774 kcal/mol)

>  <smiles>  (14) 
O=S(=O)(O)c1ccc(NS(=O)(=O)c2cccc(NS(=O)(=O)c3ccccc3O)c2)cc1O

>  <score_type>  (14) 
oracle

>  <origin>  (14) 
adg

>  <m_score__min__energy>  (14) 
-17.18

>  <m_primary>  (14) 
energy

$$$$
14:0
     RDKit          3D

 67 71  0  0  0  0  0  0  0  0999 V2000
   64.0800   33.1190   47.5020 O   0  0  0  0  0  0  0  0  0  0  0  0
   63.0530   33.0930   48.2360 C   0  0  0  0  0  0  0  0  0  0  0  0
   63.2060   32.9890   49.6600 N   0  0  0  0  0  0  0  0  0  0  0  0
   64.3940   32.4630   50.2690 C   0  0  0  0  0  0  0  0  0  0  0  0
   65.6190   33.1000   50.0190 C   0  0  0  0  0  0  0  0  0  0  0  0
   66.8010   32.6090   50.5790 C   0  0  0  0  0  0  0  0  0  0  0  0
   66.7670   31.4880   51.4100 C   0  0  0  0  0  0  0  0  0  0  0  0
   65.5510   30.8610   51.6900 C   0  0  0  0  0  0  0  0  0  0  0  0
   64.3550   31.3410   51.1320 C   0  0  0  0  0  0  0  0  0  0  0  0
   63.1100   30.7220   51.5020 N   0  0  0  0  0  0  0  0  0  0  0  0
   62.3980   29.8890   50.5180 C   0  0  0  0  0  0  0  0  0  0  0  0
   61.0290   29.4510   51.0470 C   0  0  0  0  0  0  0  0  0  0  0  0
   60.3170   30.6190   51.5840 N   0  0  0  0  0  0  0  0  0  0  0  0
   58.9320   30.8320   51.2560 C   0  0  0  0  0  0  0  0  0  0  0  0
   58.1980   29.8480   50.9630 O   0  0  0  0  0  0  0  0  0  0  0  0
   58.3430   32.2160   51.2650 C   0  0  0  0  0  0  0  0  0  0  0  0
   57.0220   32.3150   52.0140 C   0  0  0  0  0  0  0  0  0  0  0  0
   58.2870   32.8900   52.6310 C   0  0  0  0  0  0  0  0  0  0  0  0
   61.0140   31.5500   52.4880 C   0  0  0  0  0  0  0  0  0  0  0  0
   62.4530   31.0910   52.7630 C   0  0  0  0  0  0  0  0  0  0  0  0
   61.7080   33.1760   47.6180 C   0  0  0  0  0  0  0  0  0  0  0  0
   61.5420   33.7860   46.3590 C   0  0  0  0  0  0  0  0  0  0  0  0
   60.2920   33.8030   45.7380 C   0  0  0  0  0  0  0  0  0  0  0  0
   59.1900   33.1960   46.3530 C   0  0  0  0  0  0  0  0  0  0  0  0
   57.6390   33.1090   45.5160 S   0  0  0  0  0  0  0  0  0  0  0  0
   56.6010   33.8420   46.3190 O   0  0  0  0  0  0  0  0  0  0  0  0
   57.7570   33.7870   44.1780 O   0  0  0  0  0  0  0  0  0  0  0  0
   57.1310   31.4510   45.3000 N   0  0  0  0  0  0  0  0  0  0  0  0
   57.0140   31.1310   43.8600 C   0  0  0  0  0  0  0  0  0  0  0  0
   56.9840   29.6180   43.6220 C   0  0  0  0  0  0  0  0  0  0  0  0
   58.2860   28.9520   44.1060 C   0  0  0  0  0  0  0  0  0  0  0  0
   58.9960   29.7600   45.2020 C   0  0  0  0  0  0  0  0  0  0  0  0
   57.9830   30.5150   46.0760 C   0  0  0  0  0  0  0  0  0  0  0  0
   59.3400   32.6140   47.6200 C   0  0  0  0  0  0  0  0  0  0  0  0
   60.5860   32.6080   48.2500 C   0  0  0  0  0  0  0  0  0  0  0  0
   62.5050   33.4580   50.2770 H   0  0  0  0  0  0  0  0  0  0  0  0
   65.6489   33.9928   49.3772 H   0  0  0  0  0  0  0  0  0  0  0  0
   67.7587   33.1060   50.3650 H   0  0  0  0  0  0  0  0  0  0  0  0
   67.6991   31.0980   51.8448 H   0  0  0  0  0  0  0  0  0  0  0  0
   65.5298   29.9837   52.3532 H   0  0  0  0  0  0  0  0  0  0  0  0
   62.2564   30.4683   49.5936 H   0  0  0  0  0  0  0  0  0  0  0  0
   62.9999   28.9888   50.3246 H   0  0  0  0  0  0  0  0  0  0  0  0
   60.4432   29.0088   50.2276 H   0  0  0  0  0  0  0  0  0  0  0  0
   61.1644   28.7048   51.8438 H   0  0  0  0  0  0  0  0  0  0  0  0
   58.7117   32.5126   50.2720 H   0  0  0  0  0  0  0  0  0  0  0  0
   56.2328   32.9890   51.6496 H   0  0  0  0  0  0  0  0  0  0  0  0
   56.2572   31.5943   52.3390 H   0  0  0  0  0  0  0  0  0  0  0  0
   58.4131   33.9797   52.7123 H   0  0  0  0  0  0  0  0  0  0  0  0
   58.8163   32.7576   53.5861 H   0  0  0  0  0  0  0  0  0  0  0  0
   61.0387   32.5475   52.0250 H   0  0  0  0  0  0  0  0  0  0  0  0
   60.4703   31.5770   53.4439 H   0  0  0  0  0  0  0  0  0  0  0  0
   63.0121   31.9097   53.2396 H   0  0  0  0  0  0  0  0  0  0  0  0
   62.4329   30.2166   53.4301 H   0  0  0  0  0  0  0  0  0  0  0  0
   62.4047   34.2528   45.8612 H   0  0  0  0  0  0  0  0  0  0  0  0
   60.1721   34.2952   44.7616 H   0  0  0  0  0  0  0  0  0  0  0  0
   56.0852   31.5727   43.4700 H   0  0  0  0  0  0  0  0  0  0  0  0
   57.8918   31.5446   43.3420 H   0  0  0  0  0  0  0  0  0  0  0  0
   56.1343   29.1853   44.1704 H   0  0  0  0  0  0  0  0  0  0  0  0
   56.8810   29.4373   42.5418 H   0  0  0  0  0  0  0  0  0  0  0  0
   58.0440   27.9558   44.5048 H   0  0  0  0  0  0  0  0  0  0  0  0
   58.9675   28.8922   43.2446 H   0  0  0  0  0  0  0  0  0  0  0  0
   59.5761   29.0733   45.8360 H   0  0  0  0  0  0  0  0  0  0  0  0
   59.6586   30.4946   44.7210 H   0  0  0  0  0  0  0  0  0  0  0  0
   57.3331   29.7801   46.5737 H   0  0  0  0  0  0  0  0  0  0  0  0
   58.5551   31.1141   46.7998 H   0  0  0  0  0  0  0  0  0  0  0  0
   58.4717   32.1600   48.1200 H   0  0  0  0  0  0  0  0  0  0  0  0
   60.6915   32.1562   49.2473 H   0  0  0  0  0  0  0  0  0  0  0  0
  1  2  2  0
  2  3  1  0
  3  4  1  0
  4  5  2  0
  5  6  1  0
  6  7  2  0
  7  8  1  0
  8  9  2  0
  9 10  1  0
 10 11  1  0
 11 12  1  0
 12 13  1  0
 13 14  1  0
 14 15  2  0
 14 16  1  0
 16 17  1  0
 17 18  1  0
 13 19  1  0
 19 20  1  0
  2 21  1  0
 21 22  2  0
 22 23  1  0
 23 24  2  0
 24 25  1  0
 25 26  2  0
 25 27  2  0
 25 28  1  0
 28 29  1  0
 29 30  1  0
 30 31  1  0
 31 32  1  0
 32 33  1  0
 24 34  1  0
 34 35  2  0
  9  4  1  0
 20 10  1  0
 35 21  1  0
 18 16  1  0
 33 28  1  0
  3 36  1  0
  5 37  1  0
  6 38  1  0
  7 39  1  0
  8 40  1  0
 11 41  1  0
 11 42  1  0
 12 43  1  0
 12 44  1  0
 16 45  1  0
 17 46  1  0
 17 47  1  0
 18 48  1  0
 18 49  1  0
 19 50  1  0
 19 51  1  0
 20 52  1  0
 20 53  1  0
 22 54  1  0
 23 55  1  0
 29 56  1  0
 29 57  1  0
 30 58  1  0
 30 59  1  0
 31 60  1  0
 31 61  1  0
 32 62  1  0
 32 63  1  0
 33 64  1  0
 33 65  1  0
 34 66  1  0
 35 67  1  0
M  END
>  <UniqueID>  (15) 
15

>  <SMILES>  (15) 
O=C(Nc1ccccc1N1CCN(C(=O)C2CC2)CC1)c1ccc(S(=O)(=O)N2CCCCC2)cc1

>  <Energy>  (15) 
348.4009551631646

>  <Genealogy>  (15) 
O=C(Nc1ccccc1N1CCN(C(=O)C2CC2)CC1)c1ccc(S(=O)(=O)N2CCCCC2)cc1 (3D coordinates assigned)
O=C(Nc1ccccc1N1CCN(C(=O)C2CC2)CC1)c1ccc(S(=O)(=O)N2CCCCC2)cc1 (nonaromatic ring conformer: 348.4009551631646 kcal/mol)

>  <smiles>  (15) 
O=C(Nc1ccccc1N1CCN(C(=O)C2CC2)CC1)c1ccc(S(=O)(=O)N2CCCCC2)cc1

>  <score_type>  (15) 
oracle

>  <origin>  (15) 
adg

>  <m_score__min__energy>  (15) 
-10.869999999999999

>  <m_primary>  (15) 
energy

$$$$
15:0
     RDKit          3D

 55 58  0  0  0  0  0  0  0  0999 V2000
   51.6050   22.5970   45.2880 H   0  0  0  0  0  0  0  0  0  0  0  0
   52.5910   22.2500   45.2890 N   0  0  0  0  0  0  0  0  0  0  0  0
   53.5810   22.9680   45.7120 C   0  0  0  0  0  0  0  0  0  0  0  0
   53.7810   24.2070   45.1910 N   0  0  0  0  0  0  0  0  0  0  0  0
   54.7940   25.0100   45.6100 C   0  0  0  0  0  0  0  0  0  0  0  0
   54.9310   26.0023   45.1555 H   0  0  0  0  0  0  0  0  0  0  0  0
   55.6660   24.5770   46.6210 C   0  0  0  0  0  0  0  0  0  0  0  0
   56.7750   25.4570   47.1190 C   0  0  0  0  0  0  0  0  0  0  0  0
   56.8242   26.3671   46.5031 H   0  0  0  0  0  0  0  0  0  0  0  0
   56.5808   25.7300   48.1667 H   0  0  0  0  0  0  0  0  0  0  0  0
   58.0430   24.7450   47.0330 N   0  0  0  0  0  0  0  0  0  0  0  0
   58.9980   24.9920   45.9980 C   0  0  0  0  0  0  0  0  0  0  0  0
   59.7690   24.0720   45.6090 O   0  0  0  0  0  0  0  0  0  0  0  0
   59.1220   26.3620   45.4120 C   0  0  0  0  0  0  0  0  0  0  0  0
   60.0098   26.4007   44.7637 H   0  0  0  0  0  0  0  0  0  0  0  0
   58.2182   26.5843   44.8257 H   0  0  0  0  0  0  0  0  0  0  0  0
   59.2620   27.3940   46.5150 C   0  0  0  0  0  0  0  0  0  0  0  0
   58.3220   28.4420   46.6990 C   0  0  0  0  0  0  0  0  0  0  0  0
   57.1820   28.6750   45.7860 C   0  0  0  0  0  0  0  0  0  0  0  0
   56.7270   27.7260   45.0960 O   0  0  0  0  0  0  0  0  0  0  0  0
   56.6600   29.9910   45.5670 N   0  0  0  0  0  0  0  0  0  0  0  0
   57.0510   30.9200   44.5440 C   0  0  0  0  0  0  0  0  0  0  0  0
   56.9530   30.5820   43.1800 C   0  0  0  0  0  0  0  0  0  0  0  0
   56.5314   29.6088   42.8883 H   0  0  0  0  0  0  0  0  0  0  0  0
   57.3860   31.4710   42.1960 C   0  0  0  0  0  0  0  0  0  0  0  0
   57.2935   31.2015   41.1335 H   0  0  0  0  0  0  0  0  0  0  0  0
   57.9360   32.7010   42.5570 C   0  0  0  0  0  0  0  0  0  0  0  0
   58.2776   33.4001   41.7794 H   0  0  0  0  0  0  0  0  0  0  0  0
   58.0530   33.0450   43.9050 C   0  0  0  0  0  0  0  0  0  0  0  0
   58.4958   34.0124   44.1844 H   0  0  0  0  0  0  0  0  0  0  0  0
   57.6100   32.1660   44.9080 C   0  0  0  0  0  0  0  0  0  0  0  0
   57.7640   32.5640   46.3550 C   0  0  0  0  0  0  0  0  0  0  0  0
   57.2208   33.5042   46.5307 H   0  0  0  0  0  0  0  0  0  0  0  0
   57.3545   31.7628   46.9878 H   0  0  0  0  0  0  0  0  0  0  0  0
   59.2160   32.7600   46.7010 C   0  0  0  0  0  0  0  0  0  0  0  0
   60.0780   31.6530   46.7860 C   0  0  0  0  0  0  0  0  0  0  0  0
   59.6908   30.6409   46.5970 H   0  0  0  0  0  0  0  0  0  0  0  0
   61.4260   31.8340   47.1100 C   0  0  0  0  0  0  0  0  0  0  0  0
   62.0975   30.9650   47.1720 H   0  0  0  0  0  0  0  0  0  0  0  0
   61.9210   33.1170   47.3550 C   0  0  0  0  0  0  0  0  0  0  0  0
   62.9838   33.2584   47.6008 H   0  0  0  0  0  0  0  0  0  0  0  0
   61.0670   34.2210   47.2880 C   0  0  0  0  0  0  0  0  0  0  0  0
   61.4571   35.2300   47.4874 H   0  0  0  0  0  0  0  0  0  0  0  0
   59.7180   34.0450   46.9680 C   0  0  0  0  0  0  0  0  0  0  0  0
   59.0468   34.9155   46.9250 H   0  0  0  0  0  0  0  0  0  0  0  0
   58.4450   29.2670   47.7720 N   0  0  0  0  0  0  0  0  0  0  0  0
   59.4470   29.1220   48.6720 C   0  0  0  0  0  0  0  0  0  0  0  0
   59.5310   29.9080   49.6510 O   0  0  0  0  0  0  0  0  0  0  0  0
   60.3550   28.1290   48.5210 N   0  0  0  0  0  0  0  0  0  0  0  0
   60.2850   27.2640   47.4780 C   0  0  0  0  0  0  0  0  0  0  0  0
   61.1400   26.3430   47.3910 O   0  0  0  0  0  0  0  0  0  0  0  0
   55.4900   23.2930   47.1570 C   0  0  0  0  0  0  0  0  0  0  0  0
   56.1748   22.9238   47.9346 H   0  0  0  0  0  0  0  0  0  0  0  0
   54.4470   22.4830   46.7050 C   0  0  0  0  0  0  0  0  0  0  0  0
   54.3050   21.4752   47.1224 H   0  0  0  0  0  0  0  0  0  0  0  0
  1  2  1  0
  2  3  2  0
  3  4  1  0
  4  5  1  0
  5  6  1  0
  5  7  2  0
  7  8  1  0
  8  9  1  0
  8 10  1  0
  8 11  1  0
 11 12  1  0
 12 13  2  0
 12 14  1  0
 14 15  1  0
 14 16  1  0
 14 17  1  0
 17 18  2  0
 18 19  1  0
 19 20  2  0
 19 21  1  0
 21 22  1  0
 22 23  2  0
 23 24  1  0
 23 25  1  0
 25 26  1  0
 25 27  2  0
 27 28  1  0
 27 29  1  0
 29 30  1  0
 29 31  2  0
 31 32  1  0
 32 33  1  0
 32 34  1  0
 32 35  1  0
 35 36  2  0
 36 37  1  0
 36 38  1  0
 38 39  1  0
 38 40  2  0
 40 41  1  0
 40 42  1  0
 42 43  1  0
 42 44  2  0
 44 45  1  0
 18 46  1  0
 46 47  1  0
 47 48  2  0
 47 49  1  0
 49 50  1  0
 50 51  2  0
  7 52  1  0
 52 53  1  0
 52 54  2  0
 54 55  1  0
 54  3  1  0
 50 17  1  0
 31 22  1  0
 44 35  1  0
M  CHG  5   4  -1  11  -1  21  -1  46  -1  49  -1
M  END
>  <UniqueID>  (16) 
16

>  <SMILES>  (16) 
[H]/N=c1\ccc(C[N-]C(=O)Cc2c(C(=O)[N-]c3ccccc3Cc3ccccc3)[n-]c(=O)[n-]c2=O)c[n-]1

>  <Energy>  (16) 
61.694100474228804

>  <Genealogy>  (16) 
N=c1ccc(C[N-]C(=O)Cc2c(C(=O)[N-]c3ccccc3Cc3ccccc3)[n-]c(=O)[n-]c2=O)c[n-]1 (protonated)
[H]/N=c1\ccc(C[N-]C(=O)Cc2c(C(=O)[N-]c3ccccc3Cc3ccccc3)[n-]c(=O)[n-]c2=O)c[n-]1 (cis-trans isomerization)
[H]/N=c1\ccc(C[N-]C(=O)Cc2c(C(=O)[N-]c3ccccc3Cc3ccccc3)[n-]c(=O)[n-]c2=O)c[n-]1 (3D coordinates assigned)
[H]/N=c1\ccc(C[N-]C(=O)Cc2c(C(=O)[N-]c3ccccc3Cc3ccccc3)[n-]c(=O)[n-]c2=O)c[n-]1 (optimized conformer: 61.694100474228804 kcal/mol)

>  <smiles>  (16) 
N=c1ccc(CNC(=O)Cc2c(C(=O)Nc3ccccc3Cc3ccccc3)[nH]c(=O)[nH]c2=O)c[nH]1

>  <score_type>  (16) 
oracle

>  <origin>  (16) 
adg

>  <m_score__min__energy>  (16) 
-16.98

>  <m_primary>  (16) 
energy

$$$$
16:0
     RDKit          3D

 43 45  0  0  0  0  0  0  0  0999 V2000
   57.5907   22.1949   45.0168 H   0  0  0  0  0  0  0  0  0  0  0  0
   56.9350   23.0560   45.2130 C   0  0  0  0  0  0  0  0  0  0  0  0
   57.3580   24.0610   46.0240 N   0  0  0  0  0  0  0  0  0  0  0  0
   56.5830   25.1490   46.2970 C   0  0  0  0  0  0  0  0  0  0  0  0
   57.0000   26.0970   47.0890 N   0  0  0  0  0  0  0  0  0  0  0  0
   57.6940   27.2970   46.7110 C   0  0  0  0  0  0  0  0  0  0  0  0
   58.9210   27.4000   46.9790 O   0  0  0  0  0  0  0  0  0  0  0  0
   57.0140   28.3710   46.0510 N   0  0  0  0  0  0  0  0  0  0  0  0
   56.9510   28.5340   44.6000 C   0  0  0  0  0  0  0  0  0  0  0  0
   56.3246   27.7387   44.1698 H   0  0  0  0  0  0  0  0  0  0  0  0
   56.2980   29.8850   44.2260 C   0  0  0  0  0  0  0  0  0  0  0  0
   55.5751   29.7112   43.4153 H   0  0  0  0  0  0  0  0  0  0  0  0
   55.8154   30.2767   45.1335 H   0  0  0  0  0  0  0  0  0  0  0  0
   57.3160   30.9430   43.7560 C   0  0  0  0  0  0  0  0  0  0  0  0
   57.5508   30.7592   42.6972 H   0  0  0  0  0  0  0  0  0  0  0  0
   56.8594   31.9324   43.9062 H   0  0  0  0  0  0  0  0  0  0  0  0
   58.5760   30.9100   44.5330 N   0  0  0  0  0  0  0  0  0  0  0  0
   58.4240   31.4420   45.9070 C   0  0  0  0  0  0  0  0  0  0  0  0
   57.6649   32.2381   45.9025 H   0  0  0  0  0  0  0  0  0  0  0  0
   58.1160   30.6194   46.5691 H   0  0  0  0  0  0  0  0  0  0  0  0
   59.7250   32.0050   46.4150 C   0  0  0  0  0  0  0  0  0  0  0  0
   60.0170   33.3720   46.2700 C   0  0  0  0  0  0  0  0  0  0  0  0
   59.2861   34.0408   45.7920 H   0  0  0  0  0  0  0  0  0  0  0  0
   61.2330   33.8850   46.7310 C   0  0  0  0  0  0  0  0  0  0  0  0
   61.4557   34.9562   46.6171 H   0  0  0  0  0  0  0  0  0  0  0  0
   62.1670   33.0380   47.3370 C   0  0  0  0  0  0  0  0  0  0  0  0
   63.6930   33.6830   47.9150 Cl  0  0  0  0  0  0  0  0  0  0  0  0
   61.8830   31.6750   47.4830 C   0  0  0  0  0  0  0  0  0  0  0  0
   62.6166   31.0091   47.9610 H   0  0  0  0  0  0  0  0  0  0  0  0
   60.6680   31.1590   47.0220 C   0  0  0  0  0  0  0  0  0  0  0  0
   60.4498   30.0868   47.1350 H   0  0  0  0  0  0  0  0  0  0  0  0
   59.2600   29.5890   44.4990 C   0  0  0  0  0  0  0  0  0  0  0  0
   60.1209   29.6639   43.8184 H   0  0  0  0  0  0  0  0  0  0  0  0
   59.5531   29.3585   45.5339 H   0  0  0  0  0  0  0  0  0  0  0  0
   58.3660   28.4250   44.0220 C   0  0  0  0  0  0  0  0  0  0  0  0
   58.3067   28.4460   42.9238 H   0  0  0  0  0  0  0  0  0  0  0  0
   58.8108   27.4813   44.3707 H   0  0  0  0  0  0  0  0  0  0  0  0
   55.3040   25.2410   45.7270 C   0  0  0  0  0  0  0  0  0  0  0  0
   54.4850   26.3340   45.9850 O   0  0  0  0  0  0  0  0  0  0  0  0
   54.8510   24.2170   44.8890 C   0  0  0  0  0  0  0  0  0  0  0  0
   53.8509   24.2791   44.4351 H   0  0  0  0  0  0  0  0  0  0  0  0
   55.6690   23.1160   44.6290 C   0  0  0  0  0  0  0  0  0  0  0  0
   55.3199   22.3058   43.9719 H   0  0  0  0  0  0  0  0  0  0  0  0
  1  2  1  0
  2  3  1  0
  3  4  1  0
  4  5  2  0
  5  6  1  0
  6  7  2  0
  6  8  1  0
  8  9  1  0
  9 10  1  0
  9 11  1  0
 11 12  1  0
 11 13  1  0
 11 14  1  0
 14 15  1  0
 14 16  1  0
 14 17  1  0
 17 18  1  0
 18 19  1  0
 18 20  1  0
 18 21  1  0
 21 22  2  0
 22 23  1  0
 22 24  1  0
 24 25  1  0
 24 26  2  0
 26 27  1  0
 26 28  1  0
 28 29  1  0
 28 30  2  0
 30 31  1  0
 17 32  1  0
 32 33  1  0
 32 34  1  0
 32 35  1  0
 35 36  1  0
 35 37  1  0
  4 38  1  0
 38 39  1  0
 38 40  2  0
 40 41  1  0
 40 42  1  0
 42 43  1  0
 42  2  2  0
 35  9  1  0
 30 21  1  0
M  CHG  3   3  -1   8  -1  39  -1
M  END
>  <UniqueID>  (17) 
17

>  <SMILES>  (17) 
O=C(/N=c1\[n-]cccc1[O-])[N-]C1CCN(Cc2ccc(Cl)cc2)CC1

>  <Energy>  (17) 
54.6647808597861

>  <Genealogy>  (17) 
O=C(N=c1[n-]cccc1[O-])[N-]C1CCN(Cc2ccc(Cl)cc2)CC1 (protonated)
O=C(/N=c1\[n-]cccc1[O-])[N-]C1CCN(Cc2ccc(Cl)cc2)CC1 (cis-trans isomerization)
O=C(/N=c1\[n-]cccc1[O-])[N-]C1CCN(Cc2ccc(Cl)cc2)CC1 (3D coordinates assigned)
O=C(/N=c1\[n-]cccc1[O-])[N-]C1CCN(Cc2ccc(Cl)cc2)CC1 (nonaromatic ring conformer: 54.6647808597861 kcal/mol)

>  <smiles>  (17) 
O=C(N=c1[nH]cccc1O)NC1CCN(Cc2ccc(Cl)cc2)CC1

>  <score_type>  (17) 
oracle

>  <origin>  (17) 
adg

>  <m_score__min__energy>  (17) 
-14.619999999999999

>  <m_primary>  (17) 
energy

$$$$
17:0
     RDKit          3D

 54 57  0  0  0  0  0  0  0  0999 V2000
   57.9860   26.9910   43.2690 C   0  0  0  0  0  0  0  0  0  0  0  0
   58.2970   26.5550   44.4990 C   0  0  0  0  0  0  0  0  0  0  0  0
   57.7170   25.4760   45.1870 C   0  0  0  0  0  0  0  0  0  0  0  0
   56.8880   24.5010   44.7670 C   0  0  0  0  0  0  0  0  0  0  0  0
   55.4330   24.4600   44.9820 C   0  0  0  0  0  0  0  0  0  0  0  0
   54.6590   23.3760   44.7860 N   0  0  0  0  0  0  0  0  0  0  0  0
   53.4500   23.7700   45.2410 C   0  0  0  0  0  0  0  0  0  0  0  0
   52.4380   23.0220   45.2120 O   0  0  0  0  0  0  0  0  0  0  0  0
   53.4130   25.0240   45.7400 N   0  0  0  0  0  0  0  0  0  0  0  0
   54.6800   25.4400   45.5810 C   0  0  0  0  0  0  0  0  0  0  0  0
   55.1400   26.6880   45.9810 O   0  0  0  0  0  0  0  0  0  0  0  0
   58.1830   25.5560   46.4890 C   0  0  0  0  0  0  0  0  0  0  0  0
   59.0630   26.6130   46.5380 C   0  0  0  0  0  0  0  0  0  0  0  0
   59.1440   27.2120   45.3340 N   0  0  0  0  0  0  0  0  0  0  0  0
   59.9250   28.4260   45.0680 C   0  0  0  0  0  0  0  0  0  0  0  0
   59.8430   29.3790   46.2330 C   0  0  0  0  0  0  0  0  0  0  0  0
   58.8110   29.2690   47.1770 C   0  0  0  0  0  0  0  0  0  0  0  0
   58.7430   30.1490   48.2590 C   0  0  0  0  0  0  0  0  0  0  0  0
   59.7020   31.1660   48.4130 C   0  0  0  0  0  0  0  0  0  0  0  0
   59.6490   32.1020   49.5630 C   0  0  0  0  0  0  0  0  0  0  0  0
   59.8970   33.3250   49.3750 O   0  0  0  0  0  0  0  0  0  0  0  0
   59.3030   31.6410   50.8790 N   0  0  0  0  0  0  0  0  0  0  0  0
   59.4530   32.4930   52.0640 C   0  0  2  0  0  0  0  0  0  0  0  0
   59.2130   31.6670   53.3510 C   0  0  0  0  0  0  0  0  0  0  0  0
   58.7130   32.5100   54.5420 C   0  0  0  0  0  0  0  0  0  0  0  0
   59.2070   33.9630   54.4590 C   0  0  2  0  0  0  0  0  0  0  0  0
   58.7800   34.6830   55.5860 O   0  0  0  0  0  0  0  0  0  0  0  0
   58.6810   34.6550   53.1820 C   0  0  0  0  0  0  0  0  0  0  0  0
   58.4890   33.6910   51.9930 C   0  0  0  0  0  0  0  0  0  0  0  0
   60.7380   31.2710   47.4680 C   0  0  0  0  0  0  0  0  0  0  0  0
   60.8040   30.3900   46.3850 C   0  0  0  0  0  0  0  0  0  0  0  0
   58.5183   27.8528   42.8400 H   0  0  0  0  0  0  0  0  0  0  0  0
   57.1987   26.4867   42.6894 H   0  0  0  0  0  0  0  0  0  0  0  0
   57.3379   23.6624   44.2153 H   0  0  0  0  0  0  0  0  0  0  0  0
   57.9027   24.8990   47.3255 H   0  0  0  0  0  0  0  0  0  0  0  0
   59.6211   26.9246   47.4333 H   0  0  0  0  0  0  0  0  0  0  0  0
   60.9765   28.1494   44.9012 H   0  0  0  0  0  0  0  0  0  0  0  0
   59.5144   28.9220   44.1761 H   0  0  0  0  0  0  0  0  0  0  0  0
   58.0494   28.4834   47.0639 H   0  0  0  0  0  0  0  0  0  0  0  0
   57.9333   30.0460   48.9964 H   0  0  0  0  0  0  0  0  0  0  0  0
   58.8730   30.6950   50.9860 H   0  0  0  0  0  0  0  0  0  0  0  0
   60.4809   32.8839   52.0900 H   0  0  0  0  0  0  0  0  0  0  0  0
   58.4618   30.8936   53.1328 H   0  0  0  0  0  0  0  0  0  0  0  0
   60.1825   31.2379   53.6442 H   0  0  0  0  0  0  0  0  0  0  0  0
   57.6130   32.5073   54.5435 H   0  0  0  0  0  0  0  0  0  0  0  0
   59.1103   32.0657   55.4665 H   0  0  0  0  0  0  0  0  0  0  0  0
   60.3063   33.9454   54.4247 H   0  0  0  0  0  0  0  0  0  0  0  0
   58.1660   34.0880   56.0910 H   0  0  0  0  0  0  0  0  0  0  0  0
   57.7114   35.1204   53.4127 H   0  0  0  0  0  0  0  0  0  0  0  0
   59.4378   35.3939   52.8799 H   0  0  0  0  0  0  0  0  0  0  0  0
   57.4548   33.3163   52.0023 H   0  0  0  0  0  0  0  0  0  0  0  0
   58.7016   34.2453   51.0669 H   0  0  0  0  0  0  0  0  0  0  0  0
   61.5030   32.0532   47.5821 H   0  0  0  0  0  0  0  0  0  0  0  0
   61.6140   30.4898   45.6475 H   0  0  0  0  0  0  0  0  0  0  0  0
  1  2  2  0
  2  3  1  0
  3  4  2  3
  4  5  1  0
  5  6  1  0
  6  7  1  0
  7  8  2  0
  7  9  1  0
  9 10  1  0
 10 11  1  0
  3 12  1  0
 12 13  2  0
 13 14  1  0
 14 15  1  0
 15 16  1  0
 16 17  2  0
 17 18  1  0
 18 19  2  0
 19 20  1  0
 20 21  2  0
 20 22  1  0
 22 23  1  0
 23 24  1  0
 24 25  1  0
 25 26  1  0
 26 27  1  0
 26 28  1  0
 28 29  1  0
 19 30  1  0
 30 31  2  0
 14  2  1  0
 31 16  1  0
 10  5  2  0
 29 23  1  0
  1 32  1  0
  1 33  1  0
  4 34  1  0
 12 35  1  0
 13 36  1  0
 15 37  1  0
 15 38  1  0
 17 39  1  0
 18 40  1  0
 22 41  1  0
 23 42  1  1
 24 43  1  0
 24 44  1  0
 25 45  1  0
 25 46  1  0
 26 47  1  6
 27 48  1  0
 28 49  1  0
 28 50  1  0
 29 51  1  0
 29 52  1  0
 30 53  1  0
 31 54  1  0
M  CHG  3   6  -1   9  -1  11  -1
M  END
>  <UniqueID>  (18) 
18

>  <SMILES>  (18) 
C=c1c(=Cc2[n-]c(=O)[n-]c2[O-])ccn1Cc1ccc(C(=O)NC2CCC(O)CC2)cc1

>  <Energy>  (18) 
127.75348684365032

>  <Genealogy>  (18) 
C=c1c(=Cc2[n-]c(=O)[n-]c2[O-])ccn1Cc1ccc(C(=O)NC2CCC(O)CC2)cc1 (protonated)
C=c1c(=Cc2[n-]c(=O)[n-]c2[O-])ccn1Cc1ccc(C(=O)NC2CCC(O)CC2)cc1 (3D coordinates assigned)
C=c1c(=Cc2[n-]c(=O)[n-]c2[O-])ccn1Cc1ccc(C(=O)NC2CCC(O)CC2)cc1 (nonaromatic ring conformer: 127.75348684365032 kcal/mol)

>  <smiles>  (18) 
C=c1c(=Cc2[nH]c(=O)[nH]c2O)ccn1Cc1ccc(C(=O)NC2CCC(O)CC2)cc1

>  <score_type>  (18) 
oracle

>  <origin>  (18) 
adg

>  <m_score__min__energy>  (18) 
-14.77

>  <m_primary>  (18) 
energy

$$$$
18:0
     RDKit          3D

 44 46  0  0  0  0  0  0  0  0999 V2000
   55.1540   28.3440   45.2310 H   0  0  0  0  0  0  0  0  0  0  0  0
   55.1510   29.3220   44.9660 O   0  0  0  0  0  0  0  0  0  0  0  0
   56.0520   29.8230   44.0520 N   0  0  0  0  0  0  0  0  0  0  0  0
   57.2800   29.4130   44.0040 C   0  0  0  0  0  0  0  0  0  0  0  0
   57.6470   28.9255   43.0888 H   0  0  0  0  0  0  0  0  0  0  0  0
   58.2020   29.5840   45.1500 C   0  0  0  0  0  0  0  0  0  0  0  0
   58.3420   30.7080   45.9040 N   0  0  0  0  0  0  0  0  0  0  0  0
   57.7080   32.0210   45.7480 C   0  0  0  0  0  0  0  0  0  0  0  0
   56.9487   32.1516   46.5331 H   0  0  0  0  0  0  0  0  0  0  0  0
   57.2398   32.0733   44.7540 H   0  0  0  0  0  0  0  0  0  0  0  0
   58.7450   33.1340   45.8630 C   0  0  0  0  0  0  0  0  0  0  0  0
   58.9409   33.3443   46.9248 H   0  0  0  0  0  0  0  0  0  0  0  0
   59.6780   32.8179   45.3736 H   0  0  0  0  0  0  0  0  0  0  0  0
   58.3638   34.0424   45.3736 H   0  0  0  0  0  0  0  0  0  0  0  0
   59.3410   30.4420   46.7710 C   0  0  0  0  0  0  0  0  0  0  0  0
   59.7329   31.1364   47.5287 H   0  0  0  0  0  0  0  0  0  0  0  0
   59.7890   29.1600   46.5520 C   0  0  0  0  0  0  0  0  0  0  0  0
   60.5972   28.6580   47.1040 H   0  0  0  0  0  0  0  0  0  0  0  0
   59.0710   28.6240   45.5480 N   0  0  0  0  0  0  0  0  0  0  0  0
   59.2980   27.3130   44.9430 C   0  0  0  0  0  0  0  0  0  0  0  0
   58.6340   27.1892   44.0748 H   0  0  0  0  0  0  0  0  0  0  0  0
   60.3453   27.2350   44.6156 H   0  0  0  0  0  0  0  0  0  0  0  0
   59.0220   26.2990   45.9000 O   0  0  0  0  0  0  0  0  0  0  0  0
   58.2230   25.1900   45.6140 C   0  0  0  0  0  0  0  0  0  0  0  0
   56.8960   25.2430   45.6200 C   0  0  0  0  0  0  0  0  0  0  0  0
   56.0730   26.4010   46.0000 C   0  0  0  0  0  0  0  0  0  0  0  0
   56.6290   27.4670   46.3740 O   0  0  0  0  0  0  0  0  0  0  0  0
   54.6860   26.3380   45.9470 O   0  0  0  0  0  0  0  0  0  0  0  0
   56.3480   23.9960   45.2640 N   0  0  0  0  0  0  0  0  0  0  0  0
   55.5460   22.9770   45.9760 C   0  0  0  0  0  0  0  0  0  0  0  0
   54.5060   22.9950   46.6860 O   0  0  0  0  0  0  0  0  0  0  0  0
   56.5390   21.9270   45.5600 C   0  0  2  0  0  0  0  0  0  0  0  0
   56.2531   20.9776   45.0836 H   0  0  0  0  0  0  0  0  0  0  0  0
   57.3220   21.3110   46.7460 C   0  0  1  0  0  0  0  0  0  0  0  0
   58.3950   21.4067   46.5236 H   0  0  0  0  0  0  0  0  0  0  0  0
   57.0470   21.9950   47.9450 O   0  0  0  0  0  0  0  0  0  0  0  0
   56.0690   22.1690   47.9600 H   0  0  0  0  0  0  0  0  0  0  0  0
   56.9670   19.8310   46.9100 C   0  0  0  0  0  0  0  0  0  0  0  0
   56.9079   19.5845   47.9804 H   0  0  0  0  0  0  0  0  0  0  0  0
   55.9956   19.6320   46.4337 H   0  0  0  0  0  0  0  0  0  0  0  0
   57.7424   19.2130   46.4337 H   0  0  0  0  0  0  0  0  0  0  0  0
   57.2050   22.9560   44.7820 C   0  0  2  0  0  0  0  0  0  0  0  0
   57.3366   22.6419   43.7360 H   0  0  0  0  0  0  0  0  0  0  0  0
   58.8970   23.5400   45.2270 S   0  0  0  0  0  0  0  0  0  0  0  0
  1  2  1  0
  2  3  1  0
  3  4  2  0
  4  5  1  0
  4  6  1  0
  6  7  1  0
  7  8  1  0
  8  9  1  0
  8 10  1  0
  8 11  1  0
 11 12  1  0
 11 13  1  0
 11 14  1  0
  7 15  1  0
 15 16  1  0
 15 17  2  0
 17 18  1  0
 17 19  1  0
 19 20  1  0
 20 21  1  0
 20 22  1  0
 20 23  1  0
 23 24  1  0
 24 25  2  0
 25 26  1  0
 26 27  2  0
 26 28  1  0
 25 29  1  0
 29 30  1  0
 30 31  2  0
 30 32  1  0
 32 33  1  6
 32 34  1  0
 34 35  1  6
 34 36  1  0
 36 37  1  0
 34 38  1  0
 38 39  1  0
 38 40  1  0
 38 41  1  0
 32 42  1  0
 42 43  1  6
 42 44  1  0
 19  6  2  0
 44 24  1  0
 42 29  1  0
M  CHG  2  19   1  28  -1
M  END
>  <UniqueID>  (19) 
19

>  <SMILES>  (19) 
CCn1cc[n+](COC2=C(C(=O)[O-])N3C(=O)[C@H]([C@H](C)O)C3S2)c1/C=N/O

>  <Energy>  (19) 
135.69909874722666

>  <Genealogy>  (19) 
CCn1cc[n+](COC2=C(C(=O)[O-])N3C(=O)C(C(C)O)C3S2)c1C=NO (protonated)
CCn1cc[n+](COC2=C(C(=O)[O-])N3C(=O)[C@H]([C@H](C)O)C3S2)c1C=NO (chirality)
CCn1cc[n+](COC2=C(C(=O)[O-])N3C(=O)[C@H]([C@H](C)O)C3S2)c1/C=N/O (cis-trans isomerization)
CCn1cc[n+](COC2=C(C(=O)[O-])N3C(=O)[C@H]([C@H](C)O)C3S2)c1/C=N/O (3D coordinates assigned)
CCn1cc[n+](COC2=C(C(=O)[O-])N3C(=O)[C@H]([C@H](C)O)C3S2)c1/C=N/O (nonaromatic ring conformer: 135.69909874722666 kcal/mol)

>  <smiles>  (19) 
CCn1cc[n+](COC2=C(C(=O)O)N3C(=O)C(C(C)O)C3S2)c1C=NO

>  <score_type>  (19) 
oracle

>  <origin>  (19) 
adg

>  <m_score__min__energy>  (19) 
-8.4600000000000009

>  <m_primary>  (19) 
energy

$$$$
19:0
     RDKit          3D

 47 50  0  0  0  0  0  0  0  0999 V2000
   64.1686   33.1167   46.1348 H   0  0  0  0  0  0  0  0  0  0  0  0
   63.3580   33.4260   46.8110 C   0  0  0  0  0  0  0  0  0  0  0  0
   63.6630   33.8810   48.1080 C   0  0  0  0  0  0  0  0  0  0  0  0
   64.7105   33.9278   48.4404 H   0  0  0  0  0  0  0  0  0  0  0  0
   62.6350   34.2750   48.9780 C   0  0  0  0  0  0  0  0  0  0  0  0
   62.8623   34.6268   49.9952 H   0  0  0  0  0  0  0  0  0  0  0  0
   61.3160   34.2100   48.5220 C   0  0  0  0  0  0  0  0  0  0  0  0
   61.0140   33.7730   47.2590 C   0  0  0  0  0  0  0  0  0  0  0  0
   62.0230   33.3650   46.3760 C   0  0  0  0  0  0  0  0  0  0  0  0
   61.7758   33.0055   45.3662 H   0  0  0  0  0  0  0  0  0  0  0  0
   59.6110   33.7890   47.0390 N   0  0  0  0  0  0  0  0  0  0  0  0
   58.7640   33.5640   45.5390 S   0  0  0  0  0  0  0  0  0  0  0  0
   59.6300   34.0690   44.4190 O   0  0  0  0  0  0  0  0  0  0  0  0
   57.4900   34.3600   45.5080 O   0  0  0  0  0  0  0  0  0  0  0  0
   58.4480   31.8370   45.2970 C   0  0  0  0  0  0  0  0  0  0  0  0
   58.5940   30.9770   46.3960 C   0  0  0  0  0  0  0  0  0  0  0  0
   58.9046   31.3907   47.3668 H   0  0  0  0  0  0  0  0  0  0  0  0
   58.3510   29.5960   46.2810 C   0  0  0  0  0  0  0  0  0  0  0  0
   58.5190   28.7190   47.4690 C   0  0  0  0  0  0  0  0  0  0  0  0
   57.9310   27.6030   47.5120 O   0  0  0  0  0  0  0  0  0  0  0  0
   59.4250   29.0750   48.5200 N   0  0  0  0  0  0  0  0  0  0  0  0
   59.3120   29.9950   49.4450 C   0  0  0  0  0  0  0  0  0  0  0  0
   60.3320   30.9380   49.7600 C   0  0  0  0  0  0  0  0  0  0  0  0
   61.9960   30.8560   49.1780 Cl  0  0  0  0  0  0  0  0  0  0  0  0
   60.0680   31.9220   50.7170 C   0  0  0  0  0  0  0  0  0  0  0  0
   60.8369   32.6734   50.9497 H   0  0  0  0  0  0  0  0  0  0  0  0
   58.8450   31.9630   51.3790 C   0  0  0  0  0  0  0  0  0  0  0  0
   58.5660   33.2180   52.5810 Cl  0  0  0  0  0  0  0  0  0  0  0  0
   57.8800   30.9830   51.0940 C   0  0  0  0  0  0  0  0  0  0  0  0
   56.5580   30.9790   51.8140 C   0  0  0  0  0  0  0  0  0  0  0  0
   56.7320   30.9795   52.9001 H   0  0  0  0  0  0  0  0  0  0  0  0
   55.9853   31.8754   51.5340 H   0  0  0  0  0  0  0  0  0  0  0  0
   55.9907   30.0791   51.5340 H   0  0  0  0  0  0  0  0  0  0  0  0
   58.1440   30.0300   50.1530 N   0  0  0  0  0  0  0  0  0  0  0  0
   57.4080   29.3190   49.9350 H   0  0  0  0  0  0  0  0  0  0  0  0
   57.9560   29.0810   45.0300 C   0  0  0  0  0  0  0  0  0  0  0  0
   57.7080   27.7580   44.8560 F   0  0  0  0  0  0  0  0  0  0  0  0
   57.7940   29.9350   43.9370 C   0  0  0  0  0  0  0  0  0  0  0  0
   57.4798   29.5221   42.9671 H   0  0  0  0  0  0  0  0  0  0  0  0
   58.0260   31.3070   44.0600 C   0  0  0  0  0  0  0  0  0  0  0  0
   57.7590   32.3080   42.6390 Cl  0  0  0  0  0  0  0  0  0  0  0  0
   58.9560   34.3240   48.2310 C   0  0  0  0  0  0  0  0  0  0  0  0
   58.4461   35.2695   47.9941 H   0  0  0  0  0  0  0  0  0  0  0  0
   58.1958   33.6289   48.6169 H   0  0  0  0  0  0  0  0  0  0  0  0
   60.0780   34.5650   49.2680 C   0  0  0  0  0  0  0  0  0  0  0  0
   60.0991   35.6171   49.5884 H   0  0  0  0  0  0  0  0  0  0  0  0
   59.9467   33.9773   50.1885 H   0  0  0  0  0  0  0  0  0  0  0  0
  1  2  1  0
  2  3  2  0
  3  4  1  0
  3  5  1  0
  5  6  1  0
  5  7  2  0
  7  8  1  0
  8  9  2  0
  9 10  1  0
  8 11  1  0
 11 12  1  0
 12 13  2  0
 12 14  2  0
 12 15  1  0
 15 16  2  0
 16 17  1  0
 16 18  1  0
 18 19  1  0
 19 20  2  0
 19 21  1  0
 21 22  2  0
 22 23  1  0
 23 24  1  0
 23 25  2  0
 25 26  1  0
 25 27  1  0
 27 28  1  0
 27 29  2  0
 29 30  1  0
 30 31  1  0
 30 32  1  0
 30 33  1  0
 29 34  1  0
 34 35  1  0
 18 36  2  0
 36 37  1  0
 36 38  1  0
 38 39  1  0
 38 40  2  0
 40 41  1  0
 11 42  1  0
 42 43  1  0
 42 44  1  0
 42 45  1  0
 45 46  1  0
 45 47  1  0
  9  2  1  0
 40 15  1  0
 45  7  1  0
 34 22  1  0
M  END
>  <UniqueID>  (20) 
20

>  <SMILES>  (20) 
Cc1[nH]/c(=N/C(=O)c2cc(S(=O)(=O)N3CCc4ccccc43)c(Cl)cc2F)c(Cl)cc1Cl

>  <Energy>  (20) 
89.57105564679672

>  <Genealogy>  (20) 
Cc1[nH]/c(=N/C(=O)c2cc(S(=O)(=O)N3CCc4ccccc43)c(Cl)cc2F)c(Cl)cc1Cl (cis-trans isomerization)
Cc1[nH]/c(=N/C(=O)c2cc(S(=O)(=O)N3CCc4ccccc43)c(Cl)cc2F)c(Cl)cc1Cl (3D coordinates assigned)
Cc1[nH]/c(=N/C(=O)c2cc(S(=O)(=O)N3CCc4ccccc43)c(Cl)cc2F)c(Cl)cc1Cl (nonaromatic ring conformer: 89.57105564679672 kcal/mol)

>  <smiles>  (20) 
Cc1[nH]c(=NC(=O)c2cc(S(=O)(=O)N3CCc4ccccc43)c(Cl)cc2F)c(Cl)cc1Cl

>  <score_type>  (20) 
oracle

>  <origin>  (20) 
adg

>  <m_score__min__energy>  (20) 
-10.51

>  <m_primary>  (20) 
energy

$$$$
20:0
     RDKit          3D

 45 47  0  0  0  0  0  0  0  0999 V2000
   55.1270   27.0870   45.1630 H   0  0  0  0  0  0  0  0  0  0  0  0
   55.7540   26.9780   45.9900 N   0  0  0  0  0  0  0  0  0  0  0  0
   57.0620   27.5460   45.9990 C   0  0  0  0  0  0  0  0  0  0  0  0
   58.0590   26.7970   46.1760 O   0  0  0  0  0  0  0  0  0  0  0  0
   57.2480   29.0020   45.7750 C   0  0  0  0  0  0  0  0  0  0  0  0
   58.3740   29.6930   46.2850 C   0  0  0  0  0  0  0  0  0  0  0  0
   59.3230   29.0110   47.1220 N   0  0  0  0  0  0  0  0  0  0  0  0
   60.0010   29.5290   47.7210 H   0  0  0  0  0  0  0  0  0  0  0  0
   59.3890   27.9700   47.1240 H   0  0  0  0  0  0  0  0  0  0  0  0
   58.5250   31.0690   45.9890 C   0  0  0  0  0  0  0  0  0  0  0  0
   59.5910   31.8490   46.4870 C   0  0  0  0  0  0  0  0  0  0  0  0
   60.3385   31.3891   47.1501 H   0  0  0  0  0  0  0  0  0  0  0  0
   59.7070   33.2050   46.1450 C   0  0  0  0  0  0  0  0  0  0  0  0
   60.8130   34.0030   46.7170 C   0  0  0  0  0  0  0  0  0  0  0  0
   61.0319   34.9732   46.2471 H   0  0  0  0  0  0  0  0  0  0  0  0
   61.5720   33.6390   47.7640 C   0  0  0  0  0  0  0  0  0  0  0  0
   62.6588   33.5865   47.6026 H   0  0  0  0  0  0  0  0  0  0  0  0
   61.0730   33.3030   49.1140 C   0  0  0  0  0  0  0  0  0  0  0  0
   61.7380   32.5470   49.8740 O   0  0  0  0  0  0  0  0  0  0  0  0
   59.8080   33.8300   49.5440 N   0  0  0  0  0  0  0  0  0  0  0  0
   59.4150   34.6420   49.0140 H   0  0  0  0  0  0  0  0  0  0  0  0
   59.1200   33.4040   50.7330 C   0  0  0  0  0  0  0  0  0  0  0  0
   59.2870   34.1320   51.9180 C   0  0  0  0  0  0  0  0  0  0  0  0
   59.9499   35.0097   51.9319 H   0  0  0  0  0  0  0  0  0  0  0  0
   58.6170   33.7500   53.0810 C   0  0  0  0  0  0  0  0  0  0  0  0
   58.7623   34.3207   54.0101 H   0  0  0  0  0  0  0  0  0  0  0  0
   57.7630   32.6460   53.0690 C   0  0  0  0  0  0  0  0  0  0  0  0
   57.2457   32.3468   53.9925 H   0  0  0  0  0  0  0  0  0  0  0  0
   57.5580   31.9120   51.8850 C   0  0  0  0  0  0  0  0  0  0  0  0
   56.6310   30.7470   51.8840 C   0  0  0  0  0  0  0  0  0  0  0  0
   57.0910   29.5820   51.7400 O   0  0  0  0  0  0  0  0  0  0  0  0
   55.1500   30.9110   52.0530 C   0  0  0  0  0  0  0  0  0  0  0  0
   54.9041   30.9382   53.1248 H   0  0  0  0  0  0  0  0  0  0  0  0
   54.8287   31.8502   51.5791 H   0  0  0  0  0  0  0  0  0  0  0  0
   54.6309   30.0648   51.5791 H   0  0  0  0  0  0  0  0  0  0  0  0
   58.2380   32.3090   50.7160 C   0  0  0  0  0  0  0  0  0  0  0  0
   58.0768   31.7556   49.7791 H   0  0  0  0  0  0  0  0  0  0  0  0
   58.7180   33.8060   45.3540 C   0  0  0  0  0  0  0  0  0  0  0  0
   58.7867   34.8766   45.1108 H   0  0  0  0  0  0  0  0  0  0  0  0
   57.6470   33.0520   44.8740 C   0  0  0  0  0  0  0  0  0  0  0  0
   56.8809   33.5288   44.2449 H   0  0  0  0  0  0  0  0  0  0  0  0
   57.5420   31.6940   45.1880 C   0  0  0  0  0  0  0  0  0  0  0  0
   56.5030   31.0060   44.7370 O   0  0  0  0  0  0  0  0  0  0  0  0
   56.3200   29.7190   44.9930 C   0  0  0  0  0  0  0  0  0  0  0  0
   55.3100   29.1430   44.5050 O   0  0  0  0  0  0  0  0  0  0  0  0
  1  2  1  0
  2  3  1  0
  3  4  2  0
  3  5  1  0
  5  6  2  0
  6  7  1  0
  7  8  1  0
  7  9  1  0
  6 10  1  0
 10 11  2  0
 11 12  1  0
 11 13  1  0
 13 14  1  0
 14 15  1  0
 14 16  2  0
 16 17  1  0
 16 18  1  0
 18 19  2  0
 18 20  1  0
 20 21  1  0
 20 22  1  0
 22 23  2  0
 23 24  1  0
 23 25  1  0
 25 26  1  0
 25 27  2  0
 27 28  1  0
 27 29  1  0
 29 30  1  0
 30 31  2  0
 30 32  1  0
 32 33  1  0
 32 34  1  0
 32 35  1  0
 29 36  2  0
 36 37  1  0
 13 38  2  0
 38 39  1  0
 38 40  1  0
 40 41  1  0
 40 42  2  0
 42 43  1  0
 43 44  1  0
 44 45  2  0
 44  5  1  0
 42 10  1  0
 36 22  1  0
M  CHG  1   2  -1
M  END
>  <UniqueID>  (21) 
21

>  <SMILES>  (21) 
CC(=O)c1cccc(NC(=O)/C=C\c2ccc3oc(=O)c(C([NH-])=O)c(N)c3c2)c1

>  <Energy>  (21) 
73.03061592389145

>  <Genealogy>  (21) 
CC(=O)c1cccc(NC(=O)C=Cc2ccc3oc(=O)c(C([NH-])=O)c(N)c3c2)c1 (protonated)
CC(=O)c1cccc(NC(=O)/C=C\c2ccc3oc(=O)c(C([NH-])=O)c(N)c3c2)c1 (cis-trans isomerization)
CC(=O)c1cccc(NC(=O)/C=C\c2ccc3oc(=O)c(C([NH-])=O)c(N)c3c2)c1 (3D coordinates assigned)
CC(=O)c1cccc(NC(=O)/C=C\c2ccc3oc(=O)c(C([NH-])=O)c(N)c3c2)c1 (optimized conformer: 73.03061592389145 kcal/mol)

>  <smiles>  (21) 
CC(=O)c1cccc(NC(=O)C=Cc2ccc3oc(=O)c(C(N)=O)c(N)c3c2)c1

>  <score_type>  (21) 
oracle

>  <origin>  (21) 
adg

>  <m_score__min__energy>  (21) 
-11.369999999999999

>  <m_primary>  (21) 
energy

$$$$
21:0
     RDKit          3D

 55 58  0  0  0  0  0  0  0  0999 V2000
   56.6880   30.3990   43.5310 C   0  0  0  0  0  0  0  0  0  0  0  0
   56.6130   31.0450   44.7990 O   0  0  0  0  0  0  0  0  0  0  0  0
   57.4030   32.1420   45.1750 C   0  0  0  0  0  0  0  0  0  0  0  0
   57.7800   33.0560   44.1840 C   0  0  0  0  0  0  0  0  0  0  0  0
   58.5850   34.1510   44.4990 C   0  0  0  0  0  0  0  0  0  0  0  0
   59.0160   34.3470   45.8130 C   0  0  0  0  0  0  0  0  0  0  0  0
   58.6510   33.4470   46.8210 C   0  0  0  0  0  0  0  0  0  0  0  0
   59.1900   33.6390   48.1360 N   0  0  0  0  0  0  0  0  0  0  0  0
   60.5720   33.5740   48.5060 C   0  0  0  0  0  0  0  0  0  0  0  0
   60.9640   34.0330   49.6130 O   0  0  0  0  0  0  0  0  0  0  0  0
   61.5650   33.0340   47.5170 C   0  0  1  0  0  0  0  0  0  0  0  0
   62.8580   33.8470   47.5470 C   0  0  0  0  0  0  0  0  0  0  0  0
   63.8130   33.0530   48.4250 C   0  0  0  0  0  0  0  0  0  0  0  0
   63.3400   31.6080   48.3250 C   0  0  0  0  0  0  0  0  0  0  0  0
   61.9580   31.6690   47.8630 N   0  0  0  0  0  0  0  0  0  0  0  0
   61.1400   30.4970   47.6230 C   0  0  0  0  0  0  0  0  0  0  0  0
   60.7190   29.6750   48.6880 C   0  0  0  0  0  0  0  0  0  0  0  0
   59.9240   28.5510   48.4540 C   0  0  0  0  0  0  0  0  0  0  0  0
   59.4870   28.2440   47.1530 C   0  0  0  0  0  0  0  0  0  0  0  0
   58.6060   27.0490   46.8460 C   0  0  0  0  0  0  0  0  0  0  0  0
   57.2150   27.4060   46.3760 C   0  0  0  0  0  0  0  0  0  0  0  0
   57.0430   28.5250   45.8240 O   0  0  0  0  0  0  0  0  0  0  0  0
   56.0740   26.5360   46.5170 N   0  0  0  0  0  0  0  0  0  0  0  0
   55.7020   25.5260   45.7810 C   0  0  0  0  0  0  0  0  0  0  0  0
   56.6440   24.8490   45.0750 N   0  0  0  0  0  0  0  0  0  0  0  0
   56.3120   23.7790   44.3060 C   0  0  0  0  0  0  0  0  0  0  0  0
   54.9870   23.3520   44.2420 C   0  0  0  0  0  0  0  0  0  0  0  0
   54.0280   24.0640   44.9600 C   0  0  0  0  0  0  0  0  0  0  0  0
   54.4010   25.1320   45.7090 N   0  0  0  0  0  0  0  0  0  0  0  0
   59.9280   29.0420   46.0870 C   0  0  0  0  0  0  0  0  0  0  0  0
   60.7450   30.1520   46.3160 C   0  0  0  0  0  0  0  0  0  0  0  0
   57.8450   32.3390   46.4990 C   0  0  0  0  0  0  0  0  0  0  0  0
   56.8137   29.3161   43.6780 H   0  0  0  0  0  0  0  0  0  0  0  0
   55.7619   30.5875   42.9681 H   0  0  0  0  0  0  0  0  0  0  0  0
   57.5462   30.7947   42.9681 H   0  0  0  0  0  0  0  0  0  0  0  0
   57.4388   32.9096   43.1486 H   0  0  0  0  0  0  0  0  0  0  0  0
   58.8805   34.8605   43.7120 H   0  0  0  0  0  0  0  0  0  0  0  0
   59.6466   35.2146   46.0574 H   0  0  0  0  0  0  0  0  0  0  0  0
   61.0764   33.0791   46.5325 H   0  0  0  0  0  0  0  0  0  0  0  0
   63.2682   33.9556   46.5321 H   0  0  0  0  0  0  0  0  0  0  0  0
   62.6939   34.8631   47.9351 H   0  0  0  0  0  0  0  0  0  0  0  0
   64.8450   33.1475   48.0561 H   0  0  0  0  0  0  0  0  0  0  0  0
   63.8132   33.4145   49.4639 H   0  0  0  0  0  0  0  0  0  0  0  0
   63.9593   31.0519   47.6058 H   0  0  0  0  0  0  0  0  0  0  0  0
   63.4192   31.0900   49.2922 H   0  0  0  0  0  0  0  0  0  0  0  0
   61.0206   29.9221   49.7166 H   0  0  0  0  0  0  0  0  0  0  0  0
   59.6374   27.9008   49.2937 H   0  0  0  0  0  0  0  0  0  0  0  0
   59.0935   26.4547   46.0591 H   0  0  0  0  0  0  0  0  0  0  0  0
   58.4873   26.4949   47.7888 H   0  0  0  0  0  0  0  0  0  0  0  0
   57.0888   23.2501   43.7343 H   0  0  0  0  0  0  0  0  0  0  0  0
   54.7053   22.4754   43.6402 H   0  0  0  0  0  0  0  0  0  0  0  0
   52.9714   23.7609   44.9196 H   0  0  0  0  0  0  0  0  0  0  0  0
   59.6272   28.7910   45.0591 H   0  0  0  0  0  0  0  0  0  0  0  0
   61.0834   30.7631   45.4662 H   0  0  0  0  0  0  0  0  0  0  0  0
   57.5587   31.6236   47.2840 H   0  0  0  0  0  0  0  0  0  0  0  0
  1  2  1  0
  2  3  1  0
  3  4  2  0
  4  5  1  0
  5  6  2  0
  6  7  1  0
  7  8  1  0
  8  9  1  0
  9 10  2  0
  9 11  1  0
 11 12  1  0
 12 13  1  0
 13 14  1  0
 14 15  1  0
 15 16  1  0
 16 17  2  0
 17 18  1  0
 18 19  2  0
 19 20  1  0
 20 21  1  0
 21 22  2  0
 21 23  1  0
 23 24  2  3
 24 25  1  0
 25 26  2  0
 26 27  1  0
 27 28  2  0
 28 29  1  0
 19 30  1  0
 30 31  2  0
  7 32  2  0
 32  3  1  0
 15 11  1  0
 31 16  1  0
 29 24  1  0
  1 33  1  0
  1 34  1  0
  1 35  1  0
  4 36  1  0
  5 37  1  0
  6 38  1  0
 11 39  1  6
 12 40  1  0
 12 41  1  0
 13 42  1  0
 13 43  1  0
 14 44  1  0
 14 45  1  0
 17 46  1  0
 18 47  1  0
 20 48  1  0
 20 49  1  0
 26 50  1  0
 27 51  1  0
 28 52  1  0
 30 53  1  0
 31 54  1  0
 32 55  1  0
M  CHG  2   8  -1  29  -1
M  END
>  <UniqueID>  (22) 
22

>  <SMILES>  (22) 
COc1cccc([N-]C(=O)[C@H]2CCCN2c2ccc(CC(=O)N=c3nccc[n-]3)cc2)c1

>  <Energy>  (22) 
69.64151483546877

>  <Genealogy>  (22) 
COc1cccc([N-]C(=O)C2CCCN2c2ccc(CC(=O)N=c3nccc[n-]3)cc2)c1 (protonated)
COc1cccc([N-]C(=O)[C@H]2CCCN2c2ccc(CC(=O)N=c3nccc[n-]3)cc2)c1 (chirality)
COc1cccc([N-]C(=O)[C@H]2CCCN2c2ccc(CC(=O)N=c3nccc[n-]3)cc2)c1 (3D coordinates assigned)
COc1cccc([N-]C(=O)[C@H]2CCCN2c2ccc(CC(=O)N=c3nccc[n-]3)cc2)c1 (nonaromatic ring conformer: 69.64151483546877 kcal/mol)

>  <smiles>  (22) 
COc1cccc(NC(=O)C2CCCN2c2ccc(CC(=O)N=c3nccc[nH]3)cc2)c1

>  <score_type>  (22) 
oracle

>  <origin>  (22) 
adg

>  <m_score__min__energy>  (22) 
-12

>  <m_primary>  (22) 
energy

$$$$
22:0
     RDKit          3D

 85 90  0  0  0  0  0  0  0  0999 V2000
   63.7485   31.0303   47.4294 H   0  0  0  0  0  0  0  0  0  0  0  0
   63.3660   31.9670   47.8610 C   0  0  0  0  0  0  0  0  0  0  0  0
   62.1920   32.5400   47.3570 C   0  0  0  0  0  0  0  0  0  0  0  0
   61.6499   32.0480   46.5360 H   0  0  0  0  0  0  0  0  0  0  0  0
   61.7050   33.7410   47.8970 C   0  0  0  0  0  0  0  0  0  0  0  0
   60.4300   34.3490   47.3850 C   0  0  0  0  0  0  0  0  0  0  0  0
   60.2401   33.9910   46.3624 H   0  0  0  0  0  0  0  0  0  0  0  0
   60.5263   35.4448   47.3833 H   0  0  0  0  0  0  0  0  0  0  0  0
   59.3170   33.9660   48.2460 N   0  0  0  0  0  0  0  0  0  0  0  0
   58.3930   32.9210   47.9180 C   0  0  0  0  0  0  0  0  0  0  0  0
   57.1620   33.1670   47.8080 O   0  0  0  0  0  0  0  0  0  0  0  0
   58.8850   31.5520   47.7160 C   0  0  0  0  0  0  0  0  0  0  0  0
   58.8930   30.8530   46.5090 C   0  0  0  0  0  0  0  0  0  0  0  0
   58.4130   31.3860   45.1880 C   0  0  0  0  0  0  0  0  0  0  0  0
   57.6860   32.1933   45.3607 H   0  0  0  0  0  0  0  0  0  0  0  0
   59.2683   31.7784   44.6183 H   0  0  0  0  0  0  0  0  0  0  0  0
   57.9335   30.5764   44.6183 H   0  0  0  0  0  0  0  0  0  0  0  0
   59.3700   29.5950   46.6920 N   0  0  0  0  0  0  0  0  0  0  0  0
   59.4810   28.5470   45.6680 C   0  0  0  0  0  0  0  0  0  0  0  0
   60.5247   28.2039   45.6144 H   0  0  0  0  0  0  0  0  0  0  0  0
   59.1656   28.9640   44.7002 H   0  0  0  0  0  0  0  0  0  0  0  0
   58.5910   27.3750   46.0040 C   0  0  0  0  0  0  0  0  0  0  0  0
   59.1030   26.2660   46.7020 C   0  0  0  0  0  0  0  0  0  0  0  0
   60.1668   26.2400   46.9807 H   0  0  0  0  0  0  0  0  0  0  0  0
   58.2700   25.1970   47.0440 C   0  0  0  0  0  0  0  0  0  0  0  0
   58.6813   24.3369   47.5927 H   0  0  0  0  0  0  0  0  0  0  0  0
   56.9110   25.2150   46.6910 C   0  0  0  0  0  0  0  0  0  0  0  0
   56.0010   24.1300   47.1380 C   0  0  0  0  0  0  0  0  0  0  0  0
   54.7590   24.0380   46.7520 N   0  0  0  0  0  0  0  0  0  0  0  0
   54.2630   23.4830   45.5260 C   0  0  0  0  0  0  0  0  0  0  0  0
   53.5830   22.4180   45.5310 O   0  0  0  0  0  0  0  0  0  0  0  0
   54.7050   24.0900   44.2260 C   0  0  0  0  0  0  0  0  0  0  0  0
   53.8195   24.4601   43.6885 H   0  0  0  0  0  0  0  0  0  0  0  0
   55.4045   24.9074   44.4553 H   0  0  0  0  0  0  0  0  0  0  0  0
   55.4370   23.0800   43.3350 C   0  0  0  0  0  0  0  0  0  0  0  0
   54.8079   22.1872   43.2043 H   0  0  0  0  0  0  0  0  0  0  0  0
   55.6386   23.5422   42.3574 H   0  0  0  0  0  0  0  0  0  0  0  0
   56.7120   22.6900   43.9550 N   0  0  0  0  0  0  0  0  0  0  0  0
   57.6760   23.6400   44.1410 C   0  0  0  0  0  0  0  0  0  0  0  0
   57.4832   24.6791   43.8360 H   0  0  0  0  0  0  0  0  0  0  0  0
   58.9000   23.3050   44.7130 C   0  0  0  0  0  0  0  0  0  0  0  0
   59.6743   24.0698   44.8732 H   0  0  0  0  0  0  0  0  0  0  0  0
   59.1220   21.9790   45.0780 C   0  0  0  0  0  0  0  0  0  0  0  0
   60.2180   21.6450   45.5970 O   0  0  0  0  0  0  0  0  0  0  0  0
   58.1560   21.0480   44.8700 N   0  0  0  0  0  0  0  0  0  0  0  0
   58.3350   20.0500   45.1400 H   0  0  0  0  0  0  0  0  0  0  0  0
   56.9630   21.3870   44.3060 C   0  0  0  0  0  0  0  0  0  0  0  0
   56.0980   20.4890   44.1070 O   0  0  0  0  0  0  0  0  0  0  0  0
   56.5240   23.0870   48.0800 C   0  0  0  0  0  0  0  0  0  0  0  0
   56.3599   23.4143   49.1173 H   0  0  0  0  0  0  0  0  0  0  0  0
   55.9950   22.1382   47.9069 H   0  0  0  0  0  0  0  0  0  0  0  0
   57.6008   22.9434   47.9069 H   0  0  0  0  0  0  0  0  0  0  0  0
   56.4000   26.3200   45.9940 C   0  0  0  0  0  0  0  0  0  0  0  0
   55.3364   26.3454   45.7145 H   0  0  0  0  0  0  0  0  0  0  0  0
   57.2340   27.3900   45.6520 C   0  0  0  0  0  0  0  0  0  0  0  0
   56.8219   28.2494   45.1028 H   0  0  0  0  0  0  0  0  0  0  0  0
   59.6590   29.4930   48.0100 C   0  0  0  0  0  0  0  0  0  0  0  0
   60.1840   28.3880   48.6890 C   0  0  0  0  0  0  0  0  0  0  0  0
   60.4083   27.4523   48.1560 H   0  0  0  0  0  0  0  0  0  0  0  0
   60.4170   28.5050   50.0690 C   0  0  0  0  0  0  0  0  0  0  0  0
   60.8128   27.6453   50.6295 H   0  0  0  0  0  0  0  0  0  0  0  0
   60.1490   29.7110   50.7410 C   0  0  0  0  0  0  0  0  0  0  0  0
   60.3416   29.7870   51.8213 H   0  0  0  0  0  0  0  0  0  0  0  0
   59.6370   30.8210   50.0450 C   0  0  0  0  0  0  0  0  0  0  0  0
   59.4600   32.0690   50.7290 N   0  0  0  0  0  0  0  0  0  0  0  0
   60.6340   32.8910   51.0520 C   0  0  0  0  0  0  0  0  0  0  0  0
   61.5294   32.2524   51.0318 H   0  0  0  0  0  0  0  0  0  0  0  0
   60.6977   33.6955   50.3045 H   0  0  0  0  0  0  0  0  0  0  0  0
   60.5230   33.5510   52.4520 C   0  0  0  0  0  0  0  0  0  0  0  0
   61.3099   33.1302   53.0952 H   0  0  0  0  0  0  0  0  0  0  0  0
   60.6314   34.6351   52.3001 H   0  0  0  0  0  0  0  0  0  0  0  0
   59.2740   33.3520   53.0900 O   0  0  0  0  0  0  0  0  0  0  0  0
   58.2230   33.6020   52.1850 C   0  0  0  0  0  0  0  0  0  0  0  0
   57.2769   33.7091   52.7359 H   0  0  0  0  0  0  0  0  0  0  0  0
   58.4180   34.5310   51.6291 H   0  0  0  0  0  0  0  0  0  0  0  0
   58.1250   32.4270   51.2190 C   0  0  0  0  0  0  0  0  0  0  0  0
   57.6840   31.5637   51.7388 H   0  0  0  0  0  0  0  0  0  0  0  0
   57.4914   32.7120   50.3662 H   0  0  0  0  0  0  0  0  0  0  0  0
   59.3830   30.6750   48.6700 C   0  0  0  0  0  0  0  0  0  0  0  0
   62.3940   34.3470   48.9630 C   0  0  0  0  0  0  0  0  0  0  0  0
   62.0068   35.2763   49.4063 H   0  0  0  0  0  0  0  0  0  0  0  0
   63.5690   33.7750   49.4630 C   0  0  0  0  0  0  0  0  0  0  0  0
   64.1103   34.2619   50.2876 H   0  0  0  0  0  0  0  0  0  0  0  0
   64.0550   32.5840   48.9140 C   0  0  0  0  0  0  0  0  0  0  0  0
   65.1920   32.0220   49.4030 F   0  0  0  0  0  0  0  0  0  0  0  0
  1  2  1  0
  2  3  2  0
  3  4  1  0
  3  5  1  0
  5  6  1  0
  6  7  1  0
  6  8  1  0
  6  9  1  0
  9 10  1  0
 10 11  2  0
 10 12  1  0
 12 13  2  0
 13 14  1  0
 14 15  1  0
 14 16  1  0
 14 17  1  0
 13 18  1  0
 18 19  1  0
 19 20  1  0
 19 21  1  0
 19 22  1  0
 22 23  2  0
 23 24  1  0
 23 25  1  0
 25 26  1  0
 25 27  2  0
 27 28  1  0
 28 29  2  0
 29 30  1  0
 30 31  2  0
 30 32  1  0
 32 33  1  0
 32 34  1  0
 32 35  1  0
 35 36  1  0
 35 37  1  0
 35 38  1  0
 38 39  1  0
 39 40  1  0
 39 41  2  0
 41 42  1  0
 41 43  1  0
 43 44  2  0
 43 45  1  0
 45 46  1  0
 45 47  1  0
 47 48  2  0
 28 49  1  0
 49 50  1  0
 49 51  1  0
 49 52  1  0
 27 53  1  0
 53 54  1  0
 53 55  2  0
 55 56  1  0
 18 57  1  0
 57 58  2  0
 58 59  1  0
 58 60  1  0
 60 61  1  0
 60 62  2  0
 62 63  1  0
 62 64  1  0
 64 65  1  0
 65 66  1  0
 66 67  1  0
 66 68  1  0
 66 69  1  0
 69 70  1  0
 69 71  1  0
 69 72  1  0
 72 73  1  0
 73 74  1  0
 73 75  1  0
 73 76  1  0
 76 77  1  0
 76 78  1  0
 64 79  2  0
  5 80  2  0
 80 81  1  0
 80 82  1  0
 82 83  1  0
 82 84  2  0
 84 85  1  0
 84  2  1  0
 79 12  1  0
 55 22  1  0
 79 57  1  0
 47 38  1  0
 76 65  1  0
M  CHG  1   9  -1
M  END
>  <UniqueID>  (23) 
23

>  <SMILES>  (23) 
C/C(=N/C(=O)CCn1ccc(=O)[nH]c1=O)c1ccc(Cn2c(C)c(C(=O)[N-]Cc3ccc(F)cc3)c3c(N4CCOCC4)cccc32)cc1

>  <Energy>  (23) 
147.55240303182882

>  <Genealogy>  (23) 
CC(=NC(=O)CCn1ccc(=O)[nH]c1=O)c1ccc(Cn2c(C)c(C(=O)[N-]Cc3ccc(F)cc3)c3c(N4CCOCC4)cccc32)cc1 (protonated)
C/C(=N/C(=O)CCn1ccc(=O)[nH]c1=O)c1ccc(Cn2c(C)c(C(=O)[N-]Cc3ccc(F)cc3)c3c(N4CCOCC4)cccc32)cc1 (cis-trans isomerization)
C/C(=N/C(=O)CCn1ccc(=O)[nH]c1=O)c1ccc(Cn2c(C)c(C(=O)[N-]Cc3ccc(F)cc3)c3c(N4CCOCC4)cccc32)cc1 (3D coordinates assigned)
C/C(=N/C(=O)CCn1ccc(=O)[nH]c1=O)c1ccc(Cn2c(C)c(C(=O)[N-]Cc3ccc(F)cc3)c3c(N4CCOCC4)cccc32)cc1 (nonaromatic ring conformer: 147.55240303182882 kcal/mol)

>  <smiles>  (23) 
CC(=NC(=O)CCn1ccc(=O)[nH]c1=O)c1ccc(Cn2c(C)c(C(=O)NCc3ccc(F)cc3)c3c(N4CCOCC4)cccc32)cc1

>  <score_type>  (23) 
oracle

>  <origin>  (23) 
adg

>  <m_score__min__energy>  (23) 
-12.41

>  <m_primary>  (23) 
energy

$$$$
23:0
     RDKit          3D

 51 54  0  0  0  0  0  0  0  0999 V2000
   59.1427   29.0965   47.1285 H   0  0  0  0  0  0  0  0  0  0  0  0
   58.2100   28.8750   46.5890 C   0  0  0  0  0  0  0  0  0  0  0  0
   57.6830   27.6260   46.6350 N   0  0  0  0  0  0  0  0  0  0  0  0
   56.5340   27.3200   45.9730 C   0  0  0  0  0  0  0  0  0  0  0  0
   56.0330   26.1220   46.0190 N   0  0  0  0  0  0  0  0  0  0  0  0
   56.7730   24.9190   46.4020 C   0  0  0  0  0  0  0  0  0  0  0  0
   57.8083   25.1951   46.6509 H   0  0  0  0  0  0  0  0  0  0  0  0
   56.2815   24.4622   47.2737 H   0  0  0  0  0  0  0  0  0  0  0  0
   56.7840   23.9230   45.2730 C   0  0  0  0  0  0  0  0  0  0  0  0
   57.7200   22.8750   45.2520 C   0  0  0  0  0  0  0  0  0  0  0  0
   58.4436   22.7693   46.0737 H   0  0  0  0  0  0  0  0  0  0  0  0
   57.7340   21.9660   44.1890 C   0  0  0  0  0  0  0  0  0  0  0  0
   58.4667   21.1456   44.1779 H   0  0  0  0  0  0  0  0  0  0  0  0
   56.8190   22.0980   43.1410 C   0  0  0  0  0  0  0  0  0  0  0  0
   56.8317   21.3819   42.3061 H   0  0  0  0  0  0  0  0  0  0  0  0
   55.8870   23.1410   43.1540 C   0  0  0  0  0  0  0  0  0  0  0  0
   55.1673   23.2448   42.3286 H   0  0  0  0  0  0  0  0  0  0  0  0
   55.8690   24.0520   44.2150 C   0  0  0  0  0  0  0  0  0  0  0  0
   55.1360   24.8722   44.2210 H   0  0  0  0  0  0  0  0  0  0  0  0
   55.9000   28.2790   45.2510 N   0  0  0  0  0  0  0  0  0  0  0  0
   56.3870   29.5450   45.1740 C   0  0  0  0  0  0  0  0  0  0  0  0
   55.7790   30.3940   44.4700 O   0  0  0  0  0  0  0  0  0  0  0  0
   57.5700   29.8850   45.8560 C   0  0  0  0  0  0  0  0  0  0  0  0
   58.1420   31.2550   45.8140 C   0  0  0  0  0  0  0  0  0  0  0  0
   57.3980   32.3120   45.2650 C   0  0  0  0  0  0  0  0  0  0  0  0
   56.3876   32.1246   44.8727 H   0  0  0  0  0  0  0  0  0  0  0  0
   57.9350   33.5990   45.2150 C   0  0  0  0  0  0  0  0  0  0  0  0
   57.3460   34.4214   44.7829 H   0  0  0  0  0  0  0  0  0  0  0  0
   59.2170   33.8480   45.7110 C   0  0  0  0  0  0  0  0  0  0  0  0
   59.6329   34.8653   45.6660 H   0  0  0  0  0  0  0  0  0  0  0  0
   59.9780   32.8060   46.2670 C   0  0  0  0  0  0  0  0  0  0  0  0
   61.3460   33.0520   46.7860 C   0  0  0  0  0  0  0  0  0  0  0  0
   62.0930   33.8770   46.1910 O   0  0  0  0  0  0  0  0  0  0  0  0
   61.8410   32.3380   47.9320 N   0  0  0  0  0  0  0  0  0  0  0  0
   61.3320   31.4870   48.2590 H   0  0  0  0  0  0  0  0  0  0  0  0
   63.0400   32.7080   48.6340 C   0  0  0  0  0  0  0  0  0  0  0  0
   63.5310   33.8600   48.4890 O   0  0  0  0  0  0  0  0  0  0  0  0
   63.6250   31.8250   49.5980 N   0  0  0  0  0  0  0  0  0  0  0  0
   64.8140   31.9110   50.1290 C   0  0  0  0  0  0  0  0  0  0  0  0
   65.0800   31.1940   51.3070 C   0  0  0  0  0  0  0  0  0  0  0  0
   64.1000   30.3990   51.8930 O   0  0  0  0  0  0  0  0  0  0  0  0
   66.3450   31.2750   51.8930 C   0  0  0  0  0  0  0  0  0  0  0  0
   66.5638   30.7111   52.8118 H   0  0  0  0  0  0  0  0  0  0  0  0
   67.3290   32.0710   51.3120 C   0  0  0  0  0  0  0  0  0  0  0  0
   68.3314   32.1314   51.7610 H   0  0  0  0  0  0  0  0  0  0  0  0
   67.0310   32.7910   50.1550 C   0  0  0  0  0  0  0  0  0  0  0  0
   67.7992   33.4295   49.6944 H   0  0  0  0  0  0  0  0  0  0  0  0
   65.7930   32.7070   49.5930 N   0  0  0  0  0  0  0  0  0  0  0  0
   65.6100   33.3090   48.7600 H   0  0  0  0  0  0  0  0  0  0  0  0
   59.4340   31.5090   46.3040 C   0  0  0  0  0  0  0  0  0  0  0  0
   60.0281   30.6830   46.7221 H   0  0  0  0  0  0  0  0  0  0  0  0
  1  2  1  0
  2  3  1  0
  3  4  1  0
  4  5  2  0
  5  6  1  0
  6  7  1  0
  6  8  1  0
  6  9  1  0
  9 10  2  0
 10 11  1  0
 10 12  1  0
 12 13  1  0
 12 14  2  0
 14 15  1  0
 14 16  1  0
 16 17  1  0
 16 18  2  0
 18 19  1  0
  4 20  1  0
 20 21  1  0
 21 22  2  0
 21 23  1  0
 23 24  1  0
 24 25  2  0
 25 26  1  0
 25 27  1  0
 27 28  1  0
 27 29  2  0
 29 30  1  0
 29 31  1  0
 31 32  1  0
 32 33  2  0
 32 34  1  0
 34 35  1  0
 34 36  1  0
 36 37  2  0
 36 38  1  0
 38 39  2  0
 39 40  1  0
 40 41  1  0
 40 42  2  0
 42 43  1  0
 42 44  1  0
 44 45  1  0
 44 46  2  0
 46 47  1  0
 46 48  1  0
 48 49  1  0
 31 50  2  0
 50 51  1  0
 23  2  2  0
 50 24  1  0
 18  9  1  0
 48 39  1  0
M  CHG  3   3  -1  20  -1  41  -1
M  END
>  <UniqueID>  (24) 
24

>  <SMILES>  (24) 
O=C(/N=c1\[nH]cccc1[O-])NC(=O)c1cccc(-c2c[n-]/c(=N\Cc3ccccc3)[n-]c2=O)c1

>  <Energy>  (24) 
74.14046518408318

>  <Genealogy>  (24) 
O=C(N=c1[nH]cccc1[O-])NC(=O)c1cccc(-c2c[n-]c(=NCc3ccccc3)[n-]c2=O)c1 (protonated)
O=C(/N=c1\[nH]cccc1[O-])NC(=O)c1cccc(-c2c[n-]/c(=N\Cc3ccccc3)[n-]c2=O)c1 (cis-trans isomerization)
O=C(/N=c1\[nH]cccc1[O-])NC(=O)c1cccc(-c2c[n-]/c(=N\Cc3ccccc3)[n-]c2=O)c1 (3D coordinates assigned)
O=C(/N=c1\[nH]cccc1[O-])NC(=O)c1cccc(-c2c[n-]/c(=N\Cc3ccccc3)[n-]c2=O)c1 (optimized conformer: 74.14046518408318 kcal/mol)

>  <smiles>  (24) 
O=C(N=c1[nH]cccc1O)NC(=O)c1cccc(-c2c[nH]c(=NCc3ccccc3)[nH]c2=O)c1

>  <score_type>  (24) 
oracle

>  <origin>  (24) 
adg

>  <m_score__min__energy>  (24) 
-14.460000000000001

>  <m_primary>  (24) 
energy

$$$$
24:0
     RDKit          3D

 43 44  0  0  0  0  0  0  0  0999 V2000
   53.5340   26.6840   53.5110 C   0  0  0  0  0  0  0  0  0  0  0  0
   54.4480   27.9030   53.4020 C   0  0  0  0  0  0  0  0  0  0  0  0
   53.7110   29.0860   52.8160 C   0  0  0  0  0  0  0  0  0  0  0  0
   52.3200   28.9730   52.6510 C   0  0  0  0  0  0  0  0  0  0  0  0
   51.5710   30.0310   52.1400 C   0  0  0  0  0  0  0  0  0  0  0  0
   52.1920   31.2360   51.7840 C   0  0  0  0  0  0  0  0  0  0  0  0
   51.3970   32.3660   51.2550 C   0  0  0  0  0  0  0  0  0  0  0  0
   51.4230   32.6510   50.0290 O   0  0  0  0  0  0  0  0  0  0  0  0
   50.6080   33.1330   52.1070 O   0  0  0  0  0  0  0  0  0  0  0  0
   53.5820   31.3550   51.9350 C   0  0  0  0  0  0  0  0  0  0  0  0
   54.3570   30.2860   52.4170 C   0  0  0  0  0  0  0  0  0  0  0  0
   56.1120   30.5330   52.5550 S   0  0  0  0  0  0  0  0  0  0  0  0
   56.8680   29.3200   52.0990 O   0  0  0  0  0  0  0  0  0  0  0  0
   56.4420   30.7970   53.9970 O   0  0  0  0  0  0  0  0  0  0  0  0
   56.6330   31.9000   51.6050 N   0  0  0  0  0  0  0  0  0  0  0  0
   57.8640   31.6030   50.8680 C   0  0  0  0  0  0  0  0  0  0  0  0
   58.7360   32.8150   50.7470 C   0  0  0  0  0  0  0  0  0  0  0  0
   58.6570   33.7260   51.6130 O   0  0  0  0  0  0  0  0  0  0  0  0
   59.6610   32.9260   49.6600 N   0  0  0  0  0  0  0  0  0  0  0  0
   59.9330   34.1820   48.9680 C   0  0  0  0  0  0  0  0  0  0  0  0
   59.2420   34.1890   47.6310 C   0  0  0  0  0  0  0  0  0  0  0  0
   58.1350   33.3570   47.3940 C   0  0  0  0  0  0  0  0  0  0  0  0
   57.5490   33.3100   46.1260 C   0  0  0  0  0  0  0  0  0  0  0  0
   58.0610   34.0910   45.0880 C   0  0  0  0  0  0  0  0  0  0  0  0
   59.1610   34.9220   45.3140 C   0  0  0  0  0  0  0  0  0  0  0  0
   59.7540   34.9700   46.5800 C   0  0  0  0  0  0  0  0  0  0  0  0
   53.3590   26.4506   54.5716 H   0  0  0  0  0  0  0  0  0  0  0  0
   52.5738   26.9006   53.0199 H   0  0  0  0  0  0  0  0  0  0  0  0
   54.0110   25.8230   53.0199 H   0  0  0  0  0  0  0  0  0  0  0  0
   54.8137   28.1686   54.4049 H   0  0  0  0  0  0  0  0  0  0  0  0
   55.2881   27.6512   52.7380 H   0  0  0  0  0  0  0  0  0  0  0  0
   51.8153   28.0360   52.9292 H   0  0  0  0  0  0  0  0  0  0  0  0
   50.4838   29.9196   52.0150 H   0  0  0  0  0  0  0  0  0  0  0  0
   54.0744   32.3026   51.6712 H   0  0  0  0  0  0  0  0  0  0  0  0
   58.4180   30.8154   51.3998 H   0  0  0  0  0  0  0  0  0  0  0  0
   57.5894   31.2723   49.8555 H   0  0  0  0  0  0  0  0  0  0  0  0
   59.5618   35.0209   49.5750 H   0  0  0  0  0  0  0  0  0  0  0  0
   61.0176   34.2849   48.8162 H   0  0  0  0  0  0  0  0  0  0  0  0
   57.7281   32.7405   48.2091 H   0  0  0  0  0  0  0  0  0  0  0  0
   56.6828   32.6565   45.9455 H   0  0  0  0  0  0  0  0  0  0  0  0
   57.5977   34.0519   44.0911 H   0  0  0  0  0  0  0  0  0  0  0  0
   59.5611   35.5390   44.4959 H   0  0  0  0  0  0  0  0  0  0  0  0
   60.6236   35.6208   46.7538 H   0  0  0  0  0  0  0  0  0  0  0  0
  1  2  1  0
  2  3  1  0
  3  4  2  0
  4  5  1  0
  5  6  2  0
  6  7  1  0
  7  8  2  0
  7  9  1  0
  6 10  1  0
 10 11  2  0
 11 12  1  0
 12 13  2  0
 12 14  2  0
 12 15  1  0
 15 16  1  0
 16 17  1  0
 17 18  2  0
 17 19  1  0
 19 20  1  0
 20 21  1  0
 21 22  2  0
 22 23  1  0
 23 24  2  0
 24 25  1  0
 25 26  2  0
 11  3  1  0
 26 21  1  0
  1 27  1  0
  1 28  1  0
  1 29  1  0
  2 30  1  0
  2 31  1  0
  4 32  1  0
  5 33  1  0
 10 34  1  0
 16 35  1  0
 16 36  1  0
 20 37  1  0
 20 38  1  0
 22 39  1  0
 23 40  1  0
 24 41  1  0
 25 42  1  0
 26 43  1  0
M  CHG  3   9  -1  15  -1  19  -1
M  END
>  <UniqueID>  (25) 
25

>  <SMILES>  (25) 
CCc1ccc(C(=O)[O-])cc1S(=O)(=O)[N-]CC(=O)[N-]Cc1ccccc1

>  <Energy>  (25) 
38.31016812781211

>  <Genealogy>  (25) 
CCc1ccc(C(=O)[O-])cc1S(=O)(=O)[N-]CC(=O)[N-]Cc1ccccc1 (protonated)
CCc1ccc(C(=O)[O-])cc1S(=O)(=O)[N-]CC(=O)[N-]Cc1ccccc1 (3D coordinates assigned)
CCc1ccc(C(=O)[O-])cc1S(=O)(=O)[N-]CC(=O)[N-]Cc1ccccc1 (optimized conformer: 38.31016812781211 kcal/mol)

>  <smiles>  (25) 
CCc1ccc(C(=O)O)cc1S(=O)(=O)NCC(=O)NCc1ccccc1

>  <score_type>  (25) 
oracle

>  <origin>  (25) 
adg

>  <m_score__min__energy>  (25) 
-13.75

>  <m_primary>  (25) 
energy

$$$$
25:0
     RDKit          3D

 52 55  0  0  0  0  0  0  0  0999 V2000
   56.0880   31.9370   52.3620 C   0  0  0  0  0  0  0  0  0  0  0  0
   55.5030   30.7460   52.5540 C   0  0  0  0  0  0  0  0  0  0  0  0
   54.1350   30.4640   52.6820 C   0  0  0  0  0  0  0  0  0  0  0  0
   53.0610   31.2420   52.4480 C   0  0  0  0  0  0  0  0  0  0  0  0
   52.3080   31.3110   51.1850 C   0  0  0  0  0  0  0  0  0  0  0  0
   52.3130   30.3570   50.2350 N   0  0  0  0  0  0  0  0  0  0  0  0
   51.3850   30.7880   49.3550 C   0  0  0  0  0  0  0  0  0  0  0  0
   51.1080   30.1610   48.3000 O   0  0  0  0  0  0  0  0  0  0  0  0
   50.7680   31.9390   49.7000 N   0  0  0  0  0  0  0  0  0  0  0  0
   51.3540   32.2470   50.8670 C   0  0  0  0  0  0  0  0  0  0  0  0
   51.0210   33.3600   51.6300 O   0  0  0  0  0  0  0  0  0  0  0  0
   53.9860   29.1820   53.0810 N   0  0  0  0  0  0  0  0  0  0  0  0
   55.2420   28.6990   53.1360 C   0  0  0  0  0  0  0  0  0  0  0  0
   55.4990   27.5090   53.4590 O   0  0  0  0  0  0  0  0  0  0  0  0
   56.1860   29.6070   52.8160 N   0  0  0  0  0  0  0  0  0  0  0  0
   57.6370   29.3810   52.7840 C   0  0  0  0  0  0  0  0  0  0  0  0
   58.1880   29.7480   51.4400 C   0  0  0  0  0  0  0  0  0  0  0  0
   57.4120   30.2040   50.5570 O   0  0  0  0  0  0  0  0  0  0  0  0
   59.5760   29.5180   51.1490 N   0  0  0  0  0  0  0  0  0  0  0  0
   60.2160   29.9130   49.9240 C   0  0  0  0  0  0  0  0  0  0  0  0
   61.2580   30.8570   49.9120 C   0  0  0  0  0  0  0  0  0  0  0  0
   61.8760   31.2080   48.7090 C   0  0  0  0  0  0  0  0  0  0  0  0
   61.4700   30.6140   47.5120 C   0  0  0  0  0  0  0  0  0  0  0  0
   60.4490   29.6550   47.5120 C   0  0  0  0  0  0  0  0  0  0  0  0
   59.9450   28.8890   46.0030 S   0  0  0  0  0  0  0  0  0  0  0  0
   60.9950   29.1330   44.9540 O   0  0  0  0  0  0  0  0  0  0  0  0
   59.8380   27.4040   46.2150 O   0  0  0  0  0  0  0  0  0  0  0  0
   58.4130   29.5070   45.4380 N   0  0  0  0  0  0  0  0  0  0  0  0
   58.0110   28.8330   44.1950 C   0  0  0  0  0  0  0  0  0  0  0  0
   56.6650   29.4010   43.6950 C   0  0  0  0  0  0  0  0  0  0  0  0
   56.2080   30.4720   44.5020 O   0  0  0  0  0  0  0  0  0  0  0  0
   57.1980   31.4820   44.5640 C   0  0  0  0  0  0  0  0  0  0  0  0
   58.4910   30.9620   45.2230 C   0  0  0  0  0  0  0  0  0  0  0  0
   59.8300   29.3040   48.7210 C   0  0  0  0  0  0  0  0  0  0  0  0
   57.1828   32.0051   52.2798 H   0  0  0  0  0  0  0  0  0  0  0  0
   55.4732   32.8460   52.2867 H   0  0  0  0  0  0  0  0  0  0  0  0
   52.7161   31.8823   53.2733 H   0  0  0  0  0  0  0  0  0  0  0  0
   58.1183   30.0000   53.5555 H   0  0  0  0  0  0  0  0  0  0  0  0
   57.8390   28.3170   52.9765 H   0  0  0  0  0  0  0  0  0  0  0  0
   60.1230   28.9340   51.8200 H   0  0  0  0  0  0  0  0  0  0  0  0
   61.5879   31.3209   50.8532 H   0  0  0  0  0  0  0  0  0  0  0  0
   62.6843   31.9540   48.7047 H   0  0  0  0  0  0  0  0  0  0  0  0
   61.9535   30.9001   46.5663 H   0  0  0  0  0  0  0  0  0  0  0  0
   58.7820   28.9952   43.4274 H   0  0  0  0  0  0  0  0  0  0  0  0
   57.8975   27.7563   44.3897 H   0  0  0  0  0  0  0  0  0  0  0  0
   56.7933   29.7628   42.6641 H   0  0  0  0  0  0  0  0  0  0  0  0
   55.9173   28.5957   43.7441 H   0  0  0  0  0  0  0  0  0  0  0  0
   57.4279   31.8211   43.5431 H   0  0  0  0  0  0  0  0  0  0  0  0
   56.8087   32.3117   45.1723 H   0  0  0  0  0  0  0  0  0  0  0  0
   59.3460   31.1855   44.5680 H   0  0  0  0  0  0  0  0  0  0  0  0
   58.6180   31.4585   46.1963 H   0  0  0  0  0  0  0  0  0  0  0  0
   59.0346   28.5442   48.7255 H   0  0  0  0  0  0  0  0  0  0  0  0
  1  2  2  0
  2  3  1  0
  3  4  2  3
  4  5  1  0
  5  6  1  0
  6  7  1  0
  7  8  2  0
  7  9  1  0
  9 10  1  0
 10 11  1  0
  3 12  1  0
 12 13  1  0
 13 14  2  0
 13 15  1  0
 15 16  1  0
 16 17  1  0
 17 18  2  0
 17 19  1  0
 19 20  1  0
 20 21  2  0
 21 22  1  0
 22 23  2  0
 23 24  1  0
 24 25  1  0
 25 26  2  0
 25 27  2  0
 25 28  1  0
 28 29  1  0
 29 30  1  0
 30 31  1  0
 31 32  1  0
 32 33  1  0
 24 34  2  0
 15  2  1  0
 34 20  1  0
 10  5  2  0
 33 28  1  0
  1 35  1  0
  1 36  1  0
  4 37  1  0
 16 38  1  0
 16 39  1  0
 19 40  1  0
 21 41  1  0
 22 42  1  0
 23 43  1  0
 29 44  1  0
 29 45  1  0
 30 46  1  0
 30 47  1  0
 32 48  1  0
 32 49  1  0
 33 50  1  0
 33 51  1  0
 34 52  1  0
M  CHG  4   6  -1   9  -1  11  -1  12  -1
M  END
>  <UniqueID>  (26) 
26

>  <SMILES>  (26) 
C=c1c(=Cc2[n-]c(=O)[n-]c2[O-])[n-]c(=O)n1CC(=O)Nc1cccc(S(=O)(=O)N2CCOCC2)c1

>  <Energy>  (26) 
137.36136891367875

>  <Genealogy>  (26) 
C=c1c(=Cc2[n-]c(=O)[n-]c2[O-])[n-]c(=O)n1CC(=O)Nc1cccc(S(=O)(=O)N2CCOCC2)c1 (protonated)
C=c1c(=Cc2[n-]c(=O)[n-]c2[O-])[n-]c(=O)n1CC(=O)Nc1cccc(S(=O)(=O)N2CCOCC2)c1 (3D coordinates assigned)
C=c1c(=Cc2[n-]c(=O)[n-]c2[O-])[n-]c(=O)n1CC(=O)Nc1cccc(S(=O)(=O)N2CCOCC2)c1 (nonaromatic ring conformer: 137.36136891367875 kcal/mol)

>  <smiles>  (26) 
C=c1c(=Cc2[nH]c(=O)[nH]c2O)[nH]c(=O)n1CC(=O)Nc1cccc(S(=O)(=O)N2CCOCC2)c1

>  <score_type>  (26) 
oracle

>  <origin>  (26) 
adg

>  <m_score__min__energy>  (26) 
-20.07

>  <m_primary>  (26) 
energy

$$$$
26:0
     RDKit          3D

 61 64  0  0  0  0  0  0  0  0999 V2000
   59.2650   33.4440   52.5390 C   0  0  0  0  0  0  0  0  0  0  0  0
   59.6000   31.9830   52.2550 C   0  0  0  0  0  0  0  0  0  0  0  0
   59.2310   31.6150   50.8410 C   0  0  0  0  0  0  0  0  0  0  0  0
   59.2280   32.6130   49.8440 C   0  0  0  0  0  0  0  0  0  0  0  0
   58.8640   32.2520   48.5460 C   0  0  0  0  0  0  0  0  0  0  0  0
   58.6840   33.0140   47.4040 C   0  0  0  0  0  0  0  0  0  0  0  0
   58.7920   34.5160   47.3050 C   0  0  0  0  0  0  0  0  0  0  0  0
   60.1590   34.9600   46.7560 C   0  0  0  0  0  0  0  0  0  0  0  0
   61.2950   34.2600   47.4570 C   0  0  0  0  0  0  0  0  0  0  0  0
   61.5340   34.4840   48.8200 C   0  0  0  0  0  0  0  0  0  0  0  0
   62.5020   33.7430   49.5000 C   0  0  0  0  0  0  0  0  0  0  0  0
   63.2530   32.7630   48.8240 C   0  0  0  0  0  0  0  0  0  0  0  0
   64.2140   31.9780   49.4830 O   0  0  0  0  0  0  0  0  0  0  0  0
   63.9700   31.2380   50.6740 C   0  0  0  0  0  0  0  0  0  0  0  0
   63.0310   32.5530   47.4500 C   0  0  0  0  0  0  0  0  0  0  0  0
   63.7560   31.5960   46.7410 O   0  0  0  0  0  0  0  0  0  0  0  0
   62.0590   33.2990   46.7750 C   0  0  0  0  0  0  0  0  0  0  0  0
   58.2710   32.1090   46.4160 C   0  0  0  0  0  0  0  0  0  0  0  0
   57.9050   32.4410   45.0200 C   0  0  0  0  0  0  0  0  0  0  0  0
   58.2960   33.5260   44.5160 O   0  0  0  0  0  0  0  0  0  0  0  0
   57.0880   31.5350   44.1930 C   0  0  0  0  0  0  0  0  0  0  0  0
   57.2210   31.5160   42.9390 O   0  0  0  0  0  0  0  0  0  0  0  0
   56.1130   30.6970   44.8200 N   0  0  0  0  0  0  0  0  0  0  0  0
   55.8450   29.3330   44.3840 C   0  0  0  0  0  0  0  0  0  0  0  0
   56.8810   28.4110   44.9620 C   0  0  0  0  0  0  0  0  0  0  0  0
   58.2470   28.6800   44.7630 C   0  0  0  0  0  0  0  0  0  0  0  0
   59.2190   27.8450   45.3220 C   0  0  0  0  0  0  0  0  0  0  0  0
   58.8390   26.7430   46.0920 C   0  0  0  0  0  0  0  0  0  0  0  0
   57.4840   26.4770   46.3100 C   0  0  0  0  0  0  0  0  0  0  0  0
   56.5050   27.3080   45.7540 C   0  0  0  0  0  0  0  0  0  0  0  0
   55.1630   27.0340   45.9940 O   0  0  0  0  0  0  0  0  0  0  0  0
   58.2000   30.8560   46.9310 N   0  0  0  0  0  0  0  0  0  0  0  0
   58.5540   30.9590   48.2220 C   0  0  0  0  0  0  0  0  0  0  0  0
   58.5740   29.9400   49.1710 C   0  0  0  0  0  0  0  0  0  0  0  0
   58.9190   30.2720   50.4940 C   0  0  0  0  0  0  0  0  0  0  0  0
   58.9450   29.2690   51.4580 O   0  0  0  0  0  0  0  0  0  0  0  0
   59.2276   33.6070   53.6262 H   0  0  0  0  0  0  0  0  0  0  0  0
   60.0383   34.0900   52.0978 H   0  0  0  0  0  0  0  0  0  0  0  0
   58.2875   33.6885   52.0978 H   0  0  0  0  0  0  0  0  0  0  0  0
   60.6792   31.8258   52.3987 H   0  0  0  0  0  0  0  0  0  0  0  0
   59.0256   31.3486   52.9460 H   0  0  0  0  0  0  0  0  0  0  0  0
   59.5057   33.6500   50.0837 H   0  0  0  0  0  0  0  0  0  0  0  0
   58.0026   34.8855   46.6339 H   0  0  0  0  0  0  0  0  0  0  0  0
   58.6805   34.9324   48.3170 H   0  0  0  0  0  0  0  0  0  0  0  0
   60.2048   34.7265   45.6820 H   0  0  0  0  0  0  0  0  0  0  0  0
   60.2634   36.0413   46.9290 H   0  0  0  0  0  0  0  0  0  0  0  0
   60.9546   35.2491   49.3575 H   0  0  0  0  0  0  0  0  0  0  0  0
   62.6789   33.9259   50.5702 H   0  0  0  0  0  0  0  0  0  0  0  0
   64.1789   31.8716   51.5486 H   0  0  0  0  0  0  0  0  0  0  0  0
   62.9183   30.9165   50.6969 H   0  0  0  0  0  0  0  0  0  0  0  0
   64.6242   30.3540   50.6969 H   0  0  0  0  0  0  0  0  0  0  0  0
   64.6360   31.2270   47.0790 H   0  0  0  0  0  0  0  0  0  0  0  0
   61.8916   33.1315   45.7008 H   0  0  0  0  0  0  0  0  0  0  0  0
   54.8469   29.0265   44.7304 H   0  0  0  0  0  0  0  0  0  0  0  0
   55.8822   29.2846   43.2857 H   0  0  0  0  0  0  0  0  0  0  0  0
   58.5520   29.5513   44.1648 H   0  0  0  0  0  0  0  0  0  0  0  0
   60.2856   28.0562   45.1551 H   0  0  0  0  0  0  0  0  0  0  0  0
   59.6057   26.0848   46.5266 H   0  0  0  0  0  0  0  0  0  0  0  0
   57.1864   25.6117   46.9205 H   0  0  0  0  0  0  0  0  0  0  0  0
   57.8750   29.9880   46.4490 H   0  0  0  0  0  0  0  0  0  0  0  0
   58.3270   28.9045   48.8940 H   0  0  0  0  0  0  0  0  0  0  0  0
  1  2  1  0
  2  3  1  0
  3  4  2  0
  4  5  1  0
  5  6  1  0
  6  7  1  0
  7  8  1  0
  8  9  1  0
  9 10  2  0
 10 11  1  0
 11 12  2  0
 12 13  1  0
 13 14  1  0
 12 15  1  0
 15 16  1  0
 15 17  2  0
  6 18  2  0
 18 19  1  0
 19 20  2  0
 19 21  1  0
 21 22  2  0
 21 23  1  0
 23 24  1  0
 24 25  1  0
 25 26  2  0
 26 27  1  0
 27 28  2  0
 28 29  1  0
 29 30  2  0
 30 31  1  0
 18 32  1  0
 32 33  1  0
 33 34  1  0
 34 35  2  0
 35 36  1  0
 35  3  1  0
 33  5  2  0
 17  9  1  0
 30 25  1  0
  1 37  1  0
  1 38  1  0
  1 39  1  0
  2 40  1  0
  2 41  1  0
  4 42  1  0
  7 43  1  0
  7 44  1  0
  8 45  1  0
  8 46  1  0
 10 47  1  0
 11 48  1  0
 14 49  1  0
 14 50  1  0
 14 51  1  0
 16 52  1  0
 17 53  1  0
 24 54  1  0
 24 55  1  0
 26 56  1  0
 27 57  1  0
 28 58  1  0
 29 59  1  0
 32 60  1  0
 34 61  1  0
M  CHG  3  23  -1  31  -1  36  -1
M  END
>  <UniqueID>  (27) 
27

>  <SMILES>  (27) 
CCc1cc2c(CCc3ccc(OC)c(O)c3)c(C(=O)C(=O)[N-]Cc3ccccc3[O-])[nH]c2cc1[O-]

>  <Energy>  (27) 
88.33890593304285

>  <Genealogy>  (27) 
CCc1cc2c(CCc3ccc(OC)c(O)c3)c(C(=O)C(=O)[N-]Cc3ccccc3[O-])[nH]c2cc1[O-] (protonated)
CCc1cc2c(CCc3ccc(OC)c(O)c3)c(C(=O)C(=O)[N-]Cc3ccccc3[O-])[nH]c2cc1[O-] (3D coordinates assigned)
CCc1cc2c(CCc3ccc(OC)c(O)c3)c(C(=O)C(=O)[N-]Cc3ccccc3[O-])[nH]c2cc1[O-] (optimized conformer: 88.33890593304285 kcal/mol)

>  <smiles>  (27) 
CCc1cc2c(CCc3ccc(OC)c(O)c3)c(C(=O)C(=O)NCc3ccccc3O)[nH]c2cc1O

>  <score_type>  (27) 
oracle

>  <origin>  (27) 
adg

>  <m_score__min__energy>  (27) 
-15.109999999999999

>  <m_primary>  (27) 
energy

$$$$
27:0
     RDKit          3D

 47 50  0  0  0  0  0  0  0  0999 V2000
   56.9280   34.3520   45.1800 C   0  0  0  0  0  0  0  0  0  0  0  0
   58.2060   34.1050   45.9260 C   0  0  0  0  0  0  0  0  0  0  0  0
   58.1850   33.5230   47.2010 C   0  0  0  0  0  0  0  0  0  0  0  0
   59.3800   33.2660   47.8810 C   0  0  0  0  0  0  0  0  0  0  0  0
   60.6220   33.5720   47.2900 C   0  0  0  0  0  0  0  0  0  0  0  0
   61.9090   33.2980   47.9900 C   0  0  0  0  0  0  0  0  0  0  0  0
   62.4810   34.2290   48.6220 O   0  0  0  0  0  0  0  0  0  0  0  0
   62.5870   31.9550   47.9460 C   0  0  0  0  0  0  0  0  0  0  0  0
   61.7120   30.9230   48.4940 N   0  0  0  0  0  0  0  0  0  0  0  0
   60.6840   30.3370   47.8530 C   0  0  0  0  0  0  0  0  0  0  0  0
   60.1300   29.4180   48.7130 C   0  0  0  0  0  0  0  0  0  0  0  0
   59.0540   28.5220   48.4030 N   0  0  0  0  0  0  0  0  0  0  0  0
   59.1020   27.5500   47.3490 C   0  0  0  0  0  0  0  0  0  0  0  0
   60.2070   27.0630   46.9870 O   0  0  0  0  0  0  0  0  0  0  0  0
   57.8630   27.0390   46.7390 C   0  0  0  0  0  0  0  0  0  0  0  0
   57.3200   25.8530   47.0740 N   0  0  0  0  0  0  0  0  0  0  0  0
   56.1680   25.8180   46.3720 C   0  0  0  0  0  0  0  0  0  0  0  0
   55.9910   26.8950   45.6420 O   0  0  0  0  0  0  0  0  0  0  0  0
   57.0280   27.6730   45.8300 C   0  0  0  0  0  0  0  0  0  0  0  0
   57.2180   28.9600   45.1310 C   0  0  0  0  0  0  0  0  0  0  0  0
   56.3130   29.3450   44.1300 C   0  0  0  0  0  0  0  0  0  0  0  0
   56.4840   30.5570   43.4540 C   0  0  0  0  0  0  0  0  0  0  0  0
   57.5680   31.3840   43.7600 C   0  0  0  0  0  0  0  0  0  0  0  0
   58.4890   30.9950   44.7360 C   0  0  0  0  0  0  0  0  0  0  0  0
   58.3230   29.7830   45.4120 C   0  0  0  0  0  0  0  0  0  0  0  0
   60.8860   29.4760   49.8700 C   0  0  0  0  0  0  0  0  0  0  0  0
   61.8470   30.4080   49.7090 N   0  0  0  0  0  0  0  0  0  0  0  0
   60.6320   34.1430   46.0030 C   0  0  0  0  0  0  0  0  0  0  0  0
   59.4370   34.4030   45.3280 C   0  0  0  0  0  0  0  0  0  0  0  0
   56.1093   34.5102   45.8975 H   0  0  0  0  0  0  0  0  0  0  0  0
   57.0392   35.2453   44.5478 H   0  0  0  0  0  0  0  0  0  0  0  0
   56.6984   33.4816   44.5478 H   0  0  0  0  0  0  0  0  0  0  0  0
   57.2233   33.2669   47.6695 H   0  0  0  0  0  0  0  0  0  0  0  0
   59.3499   32.8209   48.8865 H   0  0  0  0  0  0  0  0  0  0  0  0
   62.8308   31.7064   46.9025 H   0  0  0  0  0  0  0  0  0  0  0  0
   63.5057   32.0000   48.5493 H   0  0  0  0  0  0  0  0  0  0  0  0
   60.3482   30.5536   46.8282 H   0  0  0  0  0  0  0  0  0  0  0  0
   58.1800   28.5970   48.9690 H   0  0  0  0  0  0  0  0  0  0  0  0
   55.4562   24.9801   46.4074 H   0  0  0  0  0  0  0  0  0  0  0  0
   55.4659   28.6908   43.8762 H   0  0  0  0  0  0  0  0  0  0  0  0
   55.7638   30.8601   42.6798 H   0  0  0  0  0  0  0  0  0  0  0  0
   57.6962   32.3408   43.2327 H   0  0  0  0  0  0  0  0  0  0  0  0
   59.3456   31.6433   44.9726 H   0  0  0  0  0  0  0  0  0  0  0  0
   59.0599   29.4716   46.1670 H   0  0  0  0  0  0  0  0  0  0  0  0
   60.7294   28.8642   50.7706 H   0  0  0  0  0  0  0  0  0  0  0  0
   61.5916   34.3871   45.5237 H   0  0  0  0  0  0  0  0  0  0  0  0
   59.4629   34.8444   44.3208 H   0  0  0  0  0  0  0  0  0  0  0  0
  1  2  1  0
  2  3  2  0
  3  4  1  0
  4  5  2  0
  5  6  1  0
  6  7  2  0
  6  8  1  0
  8  9  1  0
  9 10  1  0
 10 11  2  0
 11 12  1  0
 12 13  1  0
 13 14  2  0
 13 15  1  0
 15 16  1  0
 16 17  2  0
 17 18  1  0
 18 19  1  0
 19 20  1  0
 20 21  2  0
 21 22  1  0
 22 23  2  0
 23 24  1  0
 24 25  2  0
 11 26  1  0
 26 27  2  0
  5 28  1  0
 28 29  2  0
 29  2  1  0
 27  9  1  0
 19 15  2  0
 25 20  1  0
  1 30  1  0
  1 31  1  0
  1 32  1  0
  3 33  1  0
  4 34  1  0
  8 35  1  0
  8 36  1  0
 10 37  1  0
 12 38  1  0
 17 39  1  0
 21 40  1  0
 22 41  1  0
 23 42  1  0
 24 43  1  0
 25 44  1  0
 26 45  1  0
 28 46  1  0
 29 47  1  0
M  END
>  <UniqueID>  (28) 
28

>  <SMILES>  (28) 
Cc1ccc(C(=O)Cn2cc(NC(=O)c3ncoc3-c3ccccc3)cn2)cc1

>  <Energy>  (28) 
118.37272242729131

>  <Genealogy>  (28) 
Cc1ccc(C(=O)Cn2cc(NC(=O)c3ncoc3-c3ccccc3)cn2)cc1 (3D coordinates assigned)
Cc1ccc(C(=O)Cn2cc(NC(=O)c3ncoc3-c3ccccc3)cn2)cc1 (optimized conformer: 118.37272242729131 kcal/mol)

>  <smiles>  (28) 
Cc1ccc(C(=O)Cn2cc(NC(=O)c3ncoc3-c3ccccc3)cn2)cc1

>  <score_type>  (28) 
oracle

>  <origin>  (28) 
adg

>  <m_score__min__energy>  (28) 
-8.3800000000000008

>  <m_primary>  (28) 
energy

$$$$
28:0
     RDKit          3D

 55 57  0  0  0  0  0  0  0  0999 V2000
   56.4590   29.2820   46.0790 H   0  0  0  0  0  0  0  0  0  0  0  0
   57.3540   29.5240   46.4340 O   0  0  0  0  0  0  0  0  0  0  0  0
   58.0520   28.3160   46.6060 C   0  0  1  0  0  0  0  0  0  0  0  0
   58.4256   28.3902   47.6379 H   0  0  0  0  0  0  0  0  0  0  0  0
   57.1670   27.1190   46.3680 C   0  0  1  0  0  0  0  0  0  0  0  0
   56.5822   26.8080   47.2463 H   0  0  0  0  0  0  0  0  0  0  0  0
   56.2160   27.3850   45.3670 O   0  0  0  0  0  0  0  0  0  0  0  0
   56.6410   27.1530   44.5000 H   0  0  0  0  0  0  0  0  0  0  0  0
   58.1840   26.0880   45.8900 C   0  0  1  0  0  0  0  0  0  0  0  0
   58.6138   25.5787   46.7651 H   0  0  0  0  0  0  0  0  0  0  0  0
   57.5600   25.0140   45.0700 N   0  0  0  0  0  0  0  0  0  0  0  0
   57.0000   23.9030   45.6750 C   0  0  0  0  0  0  0  0  0  0  0  0
   57.0020   23.7100   47.1740 C   0  0  0  0  0  0  0  0  0  0  0  0
   56.9918   24.6917   47.6701 H   0  0  0  0  0  0  0  0  0  0  0  0
   56.1097   23.1396   47.4714 H   0  0  0  0  0  0  0  0  0  0  0  0
   57.9059   23.1582   47.4714 H   0  0  0  0  0  0  0  0  0  0  0  0
   56.4310   22.8910   44.8920 C   0  0  0  0  0  0  0  0  0  0  0  0
   56.0094   21.9920   45.3654 H   0  0  0  0  0  0  0  0  0  0  0  0
   56.4050   23.0350   43.5130 C   0  0  0  0  0  0  0  0  0  0  0  0
   55.8940   22.1360   42.7940 O   0  0  0  0  0  0  0  0  0  0  0  0
   56.9260   24.1480   42.9430 N   0  0  0  0  0  0  0  0  0  0  0  0
   56.8900   24.2530   41.9030 H   0  0  0  0  0  0  0  0  0  0  0  0
   57.4880   25.1310   43.6960 C   0  0  0  0  0  0  0  0  0  0  0  0
   57.9350   26.1540   43.1100 O   0  0  0  0  0  0  0  0  0  0  0  0
   59.2060   26.7590   45.1830 O   0  0  0  0  0  0  0  0  0  0  0  0
   59.2010   28.1120   45.6000 C   0  0  1  0  0  0  0  0  0  0  0  0
   60.1358   28.3785   46.1150 H   0  0  0  0  0  0  0  0  0  0  0  0
   59.1030   29.0270   44.3630 C   0  0  0  0  0  0  0  0  0  0  0  0
   59.2269   30.0731   44.6799 H   0  0  0  0  0  0  0  0  0  0  0  0
   59.8937   28.7399   43.6542 H   0  0  0  0  0  0  0  0  0  0  0  0
   57.7700   28.8760   43.6770 C   0  0  0  0  0  0  0  0  0  0  0  0
   57.4540   27.8630   43.3872 H   0  0  0  0  0  0  0  0  0  0  0  0
   56.9400   29.8970   43.3950 C   0  0  0  0  0  0  0  0  0  0  0  0
   55.5080   29.7540   43.7340 C   0  0  0  0  0  0  0  0  0  0  0  0
   54.7535   29.8162   42.9360 H   0  0  0  0  0  0  0  0  0  0  0  0
   55.1390   29.5620   44.9230 O   0  0  0  0  0  0  0  0  0  0  0  0
   57.4250   31.1130   42.6910 C   0  0  0  0  0  0  0  0  0  0  0  0
   57.5166   31.0667   41.5958 H   0  0  0  0  0  0  0  0  0  0  0  0
   57.7590   32.2630   43.2960 C   0  0  0  0  0  0  0  0  0  0  0  0
   58.2802   33.0240   42.6966 H   0  0  0  0  0  0  0  0  0  0  0  0
   57.4760   32.5780   44.7090 C   0  0  0  0  0  0  0  0  0  0  0  0
   56.4210   32.1270   45.2290 O   0  0  0  0  0  0  0  0  0  0  0  0
   58.3550   33.4060   45.4880 N   0  0  0  0  0  0  0  0  0  0  0  0
   59.0470   34.5670   44.9560 C   0  0  0  0  0  0  0  0  0  0  0  0
   59.7025   34.2756   44.1221 H   0  0  0  0  0  0  0  0  0  0  0  0
   58.3448   35.3172   44.5634 H   0  0  0  0  0  0  0  0  0  0  0  0
   59.8690   35.1130   46.1130 C   0  0  0  0  0  0  0  0  0  0  0  0
   60.9180   34.7949   46.0211 H   0  0  0  0  0  0  0  0  0  0  0  0
   59.8639   36.2129   46.1294 H   0  0  0  0  0  0  0  0  0  0  0  0
   59.2460   34.5300   47.3780 C   0  0  0  0  0  0  0  0  0  0  0  0
   60.0307   34.2452   48.0943 H   0  0  0  0  0  0  0  0  0  0  0  0
   58.5955   35.2608   47.8808 H   0  0  0  0  0  0  0  0  0  0  0  0
   58.4640   33.3000   46.9320 C   0  0  0  0  0  0  0  0  0  0  0  0
   59.0023   32.3818   47.2096 H   0  0  0  0  0  0  0  0  0  0  0  0
   57.4751   33.2518   47.4113 H   0  0  0  0  0  0  0  0  0  0  0  0
  1  2  1  0
  2  3  1  0
  3  4  1  1
  3  5  1  0
  5  6  1  1
  5  7  1  0
  7  8  1  0
  5  9  1  0
  9 10  1  1
  9 11  1  0
 11 12  1  0
 12 13  1  0
 13 14  1  0
 13 15  1  0
 13 16  1  0
 12 17  2  0
 17 18  1  0
 17 19  1  0
 19 20  2  0
 19 21  1  0
 21 22  1  0
 21 23  1  0
 23 24  2  0
  9 25  1  0
 25 26  1  0
 26 27  1  1
 26 28  1  0
 28 29  1  0
 28 30  1  0
 28 31  1  0
 31 32  1  0
 31 33  2  0
 33 34  1  0
 34 35  1  0
 34 36  2  0
 33 37  1  0
 37 38  1  0
 37 39  2  3
 39 40  1  0
 39 41  1  0
 41 42  2  0
 41 43  1  0
 43 44  1  0
 44 45  1  0
 44 46  1  0
 44 47  1  0
 47 48  1  0
 47 49  1  0
 47 50  1  0
 50 51  1  0
 50 52  1  0
 50 53  1  0
 53 54  1  0
 53 55  1  0
 26  3  1  0
 53 43  1  0
 23 11  1  0
M  END
>  <UniqueID>  (29) 
29

>  <SMILES>  (29) 
Cc1cc(=O)[nH]c(=O)n1[C@H]1O[C@@H](C/C=C(/C=O)C=CC(=O)N2CCCC2)C(O)C1O

>  <Energy>  (29) 
74.09762364979079

>  <Genealogy>  (29) 
Cc1cc(=O)[nH]c(=O)n1[C@H]1O[C@@H](CC=C(C=O)C=CC(=O)N2CCCC2)C(O)C1O (chirality)
Cc1cc(=O)[nH]c(=O)n1[C@H]1O[C@@H](C/C=C(/C=O)C=CC(=O)N2CCCC2)C(O)C1O (cis-trans isomerization)
Cc1cc(=O)[nH]c(=O)n1[C@H]1O[C@@H](C/C=C(/C=O)C=CC(=O)N2CCCC2)C(O)C1O (3D coordinates assigned)
Cc1cc(=O)[nH]c(=O)n1[C@H]1O[C@@H](C/C=C(/C=O)C=CC(=O)N2CCCC2)C(O)C1O (nonaromatic ring conformer: 74.09762364979079 kcal/mol)

>  <smiles>  (29) 
Cc1cc(=O)[nH]c(=O)n1C1OC(CC=C(C=O)C=CC(=O)N2CCCC2)C(O)C1O

>  <score_type>  (29) 
oracle

>  <origin>  (29) 
adg

>  <m_score__min__energy>  (29) 
-10.01

>  <m_primary>  (29) 
energy

$$$$
29:0
     RDKit          3D

 55 58  0  0  0  0  0  0  0  0999 V2000
   60.4370   26.9650   46.0240 C   0  0  0  0  0  0  0  0  0  0  0  0
   59.5590   27.8410   45.5100 C   0  0  0  0  0  0  0  0  0  0  0  0
   58.4060   27.5310   44.7680 C   0  0  0  0  0  0  0  0  0  0  0  0
   57.7750   26.3580   44.5550 C   0  0  0  0  0  0  0  0  0  0  0  0
   57.1820   25.4990   45.5940 C   0  0  0  0  0  0  0  0  0  0  0  0
   57.8160   24.4780   46.1990 N   0  0  0  0  0  0  0  0  0  0  0  0
   56.9430   24.0930   47.1550 C   0  0  0  0  0  0  0  0  0  0  0  0
   57.1720   23.1340   47.9370 O   0  0  0  0  0  0  0  0  0  0  0  0
   55.8090   24.8250   47.2150 N   0  0  0  0  0  0  0  0  0  0  0  0
   55.9850   25.7180   46.2290 C   0  0  0  0  0  0  0  0  0  0  0  0
   55.0680   26.7140   45.9150 O   0  0  0  0  0  0  0  0  0  0  0  0
   57.9280   28.7290   44.2720 C   0  0  0  0  0  0  0  0  0  0  0  0
   58.7440   29.7190   44.7700 C   0  0  0  0  0  0  0  0  0  0  0  0
   58.5110   31.1610   44.5760 C   0  0  0  0  0  0  0  0  0  0  0  0
   58.1680   31.5630   43.4310 O   0  0  0  0  0  0  0  0  0  0  0  0
   58.7040   32.1060   45.6540 N   0  0  0  0  0  0  0  0  0  0  0  0
   57.8010   32.1100   46.8120 C   0  0  0  0  0  0  0  0  0  0  0  0
   57.2270   33.5100   46.9950 C   0  0  0  0  0  0  0  0  0  0  0  0
   58.3040   34.4900   47.0810 N   0  0  0  0  0  0  0  0  0  0  0  0
   59.5440   34.3100   46.3860 C   0  0  0  0  0  0  0  0  0  0  0  0
   60.4110   35.2250   46.4200 O   0  0  0  0  0  0  0  0  0  0  0  0
   59.8450   33.0380   45.6420 C   0  0  0  0  0  0  0  0  0  0  0  0
   59.7380   29.1920   45.5230 N   0  0  0  0  0  0  0  0  0  0  0  0
   60.6870   29.9780   46.3310 C   0  0  0  0  0  0  0  0  0  0  0  0
   60.1010   30.2360   47.6930 C   0  0  0  0  0  0  0  0  0  0  0  0
   60.4490   31.3950   48.4100 C   0  0  0  0  0  0  0  0  0  0  0  0
   59.8280   31.6840   49.6280 C   0  0  0  0  0  0  0  0  0  0  0  0
   58.8530   30.8180   50.1450 C   0  0  0  0  0  0  0  0  0  0  0  0
   58.0490   31.1830   51.6680 S   0  0  0  0  0  0  0  0  0  0  0  0
   59.0400   31.0490   52.7870 O   0  0  0  0  0  0  0  0  0  0  0  0
   57.5170   32.5890   51.6520 O   0  0  0  0  0  0  0  0  0  0  0  0
   56.7370   30.0740   51.9330 N   0  0  0  0  0  0  0  0  0  0  0  0
   55.4810   30.8100   52.0290 C   0  0  0  0  0  0  0  0  0  0  0  0
   58.5160   29.6540   49.4410 C   0  0  0  0  0  0  0  0  0  0  0  0
   59.1330   29.3670   48.2200 C   0  0  0  0  0  0  0  0  0  0  0  0
   61.3078   27.3271   46.5902 H   0  0  0  0  0  0  0  0  0  0  0  0
   60.2856   25.8852   45.8789 H   0  0  0  0  0  0  0  0  0  0  0  0
   57.6964   26.0126   43.5136 H   0  0  0  0  0  0  0  0  0  0  0  0
   57.0622   28.8651   43.6073 H   0  0  0  0  0  0  0  0  0  0  0  0
   56.9818   31.3958   46.6422 H   0  0  0  0  0  0  0  0  0  0  0  0
   58.3568   31.8175   47.7151 H   0  0  0  0  0  0  0  0  0  0  0  0
   56.5824   33.7531   46.1374 H   0  0  0  0  0  0  0  0  0  0  0  0
   56.6414   33.5384   47.9257 H   0  0  0  0  0  0  0  0  0  0  0  0
   58.1180   35.3960   47.5650 H   0  0  0  0  0  0  0  0  0  0  0  0
   60.0891   33.2866   44.5986 H   0  0  0  0  0  0  0  0  0  0  0  0
   60.6909   32.5445   46.1429 H   0  0  0  0  0  0  0  0  0  0  0  0
   61.6277   29.4180   46.4378 H   0  0  0  0  0  0  0  0  0  0  0  0
   60.8834   30.9379   45.8310 H   0  0  0  0  0  0  0  0  0  0  0  0
   61.2137   32.0771   48.0100 H   0  0  0  0  0  0  0  0  0  0  0  0
   60.1044   32.5928   50.1827 H   0  0  0  0  0  0  0  0  0  0  0  0
   55.2242   30.9605   53.0880 H   0  0  0  0  0  0  0  0  0  0  0  0
   55.5900   31.7871   51.5357 H   0  0  0  0  0  0  0  0  0  0  0  0
   54.6818   30.2373   51.5357 H   0  0  0  0  0  0  0  0  0  0  0  0
   57.7635   28.9640   49.8506 H   0  0  0  0  0  0  0  0  0  0  0  0
   58.8584   28.4552   47.6693 H   0  0  0  0  0  0  0  0  0  0  0  0
  1  2  2  0
  2  3  1  0
  3  4  2  3
  4  5  1  0
  5  6  1  0
  6  7  1  0
  7  8  2  0
  7  9  1  0
  9 10  1  0
 10 11  1  0
  3 12  1  0
 12 13  2  0
 13 14  1  0
 14 15  2  0
 14 16  1  0
 16 17  1  0
 17 18  1  0
 18 19  1  0
 19 20  1  0
 20 21  2  0
 20 22  1  0
 13 23  1  0
 23 24  1  0
 24 25  1  0
 25 26  2  0
 26 27  1  0
 27 28  2  0
 28 29  1  0
 29 30  2  0
 29 31  2  0
 29 32  1  0
 32 33  1  0
 28 34  1  0
 34 35  2  0
 23  2  1  0
 35 25  1  0
 10  5  2  0
 22 16  1  0
  1 36  1  0
  1 37  1  0
  4 38  1  0
 12 39  1  0
 17 40  1  0
 17 41  1  0
 18 42  1  0
 18 43  1  0
 19 44  1  0
 22 45  1  0
 22 46  1  0
 24 47  1  0
 24 48  1  0
 26 49  1  0
 27 50  1  0
 33 51  1  0
 33 52  1  0
 33 53  1  0
 34 54  1  0
 35 55  1  0
M  CHG  4   6  -1   9  -1  11  -1  32  -1
M  END
>  <UniqueID>  (30) 
30

>  <SMILES>  (30) 
C=c1c(=Cc2[n-]c(=O)[n-]c2[O-])cc(C(=O)N2CCNC(=O)C2)n1Cc1ccc(S(=O)(=O)[N-]C)cc1

>  <Energy>  (30) 
127.02831256851589

>  <Genealogy>  (30) 
C=c1c(=Cc2[n-]c(=O)[n-]c2[O-])cc(C(=O)N2CCNC(=O)C2)n1Cc1ccc(S(=O)(=O)[N-]C)cc1 (protonated)
C=c1c(=Cc2[n-]c(=O)[n-]c2[O-])cc(C(=O)N2CCNC(=O)C2)n1Cc1ccc(S(=O)(=O)[N-]C)cc1 (3D coordinates assigned)
C=c1c(=Cc2[n-]c(=O)[n-]c2[O-])cc(C(=O)N2CCNC(=O)C2)n1Cc1ccc(S(=O)(=O)[N-]C)cc1 (nonaromatic ring conformer: 127.02831256851589 kcal/mol)

>  <smiles>  (30) 
C=c1c(=Cc2[nH]c(=O)[nH]c2O)cc(C(=O)N2CCNC(=O)C2)n1Cc1ccc(S(=O)(=O)NC)cc1

>  <score_type>  (30) 
oracle

>  <origin>  (30) 
adg

>  <m_score__min__energy>  (30) 
-17.43

>  <m_primary>  (30) 
energy

$$$$
30:0
     RDKit          3D

 42 44  0  0  0  0  0  0  0  0999 V2000
   59.3076   35.4542   44.8085 H   0  0  0  0  0  0  0  0  0  0  0  0
   59.4550   34.5900   45.4730 C   0  0  0  0  0  0  0  0  0  0  0  0
   60.2950   34.7450   46.5090 C   0  0  0  0  0  0  0  0  0  0  0  0
   60.1734   35.6466   47.1273 H   0  0  0  0  0  0  0  0  0  0  0  0
   61.3710   33.8020   46.8870 C   0  0  0  0  0  0  0  0  0  0  0  0
   62.6760   33.9400   46.3840 C   0  0  0  0  0  0  0  0  0  0  0  0
   62.9088   34.7516   45.6790 H   0  0  0  0  0  0  0  0  0  0  0  0
   63.6770   33.0510   46.7760 C   0  0  0  0  0  0  0  0  0  0  0  0
   64.6920   33.1529   46.3643 H   0  0  0  0  0  0  0  0  0  0  0  0
   63.3960   32.0320   47.6890 C   0  0  0  0  0  0  0  0  0  0  0  0
   64.1901   31.3322   47.9884 H   0  0  0  0  0  0  0  0  0  0  0  0
   62.1040   31.8950   48.2280 C   0  0  0  0  0  0  0  0  0  0  0  0
   61.8050   30.8200   49.2050 C   0  0  0  0  0  0  0  0  0  0  0  0
   62.6380   30.5530   50.1150 O   0  0  0  0  0  0  0  0  0  0  0  0
   60.5710   30.0900   49.1110 N   0  0  0  0  0  0  0  0  0  0  0  0
   60.1440   29.4310   48.0750 C   0  0  0  0  0  0  0  0  0  0  0  0
   60.6650   29.5400   46.8330 N   0  0  0  0  0  0  0  0  0  0  0  0
   60.0120   28.7360   45.9500 C   0  0  0  0  0  0  0  0  0  0  0  0
   60.4200   28.6450   44.5160 C   0  0  0  0  0  0  0  0  0  0  0  0
   61.4919   28.4059   44.4542 H   0  0  0  0  0  0  0  0  0  0  0  0
   59.8387   27.8544   44.0189 H   0  0  0  0  0  0  0  0  0  0  0  0
   60.2298   29.6076   44.0189 H   0  0  0  0  0  0  0  0  0  0  0  0
   58.9810   27.9720   46.4940 C   0  0  0  0  0  0  0  0  0  0  0  0
   58.3483   27.2571   45.9475 H   0  0  0  0  0  0  0  0  0  0  0  0
   58.8740   28.3350   48.1330 S   0  0  0  0  0  0  0  0  0  0  0  0
   61.0990   32.7950   47.8250 C   0  0  0  0  0  0  0  0  0  0  0  0
   60.0885   32.7075   48.2507 H   0  0  0  0  0  0  0  0  0  0  0  0
   58.7110   33.3510   45.1520 C   0  0  0  0  0  0  0  0  0  0  0  0
   58.4500   32.4290   46.1730 C   0  0  0  0  0  0  0  0  0  0  0  0
   58.7795   32.6435   47.2003 H   0  0  0  0  0  0  0  0  0  0  0  0
   57.7730   31.2370   45.8950 C   0  0  0  0  0  0  0  0  0  0  0  0
   57.5561   30.5304   46.7096 H   0  0  0  0  0  0  0  0  0  0  0  0
   57.3670   30.9340   44.5820 C   0  0  0  0  0  0  0  0  0  0  0  0
   56.6440   29.6770   44.2700 C   0  0  0  0  0  0  0  0  0  0  0  0
   55.5530   29.4270   44.8480 O   0  0  0  0  0  0  0  0  0  0  0  0
   57.1450   28.7430   43.3110 N   0  0  0  0  0  0  0  0  0  0  0  0
   56.6460   27.8400   43.1530 H   0  0  0  0  0  0  0  0  0  0  0  0
   57.9520   28.9690   42.6900 H   0  0  0  0  0  0  0  0  0  0  0  0
   57.6480   31.8550   43.5580 C   0  0  0  0  0  0  0  0  0  0  0  0
   57.3322   31.6366   42.5272 H   0  0  0  0  0  0  0  0  0  0  0  0
   58.3250   33.0460   43.8370 C   0  0  0  0  0  0  0  0  0  0  0  0
   58.5564   33.7477   43.0221 H   0  0  0  0  0  0  0  0  0  0  0  0
  1  2  1  0
  2  3  2  0
  3  4  1  0
  3  5  1  0
  5  6  2  0
  6  7  1  0
  6  8  1  0
  8  9  1  0
  8 10  2  0
 10 11  1  0
 10 12  1  0
 12 13  1  0
 13 14  2  0
 13 15  1  0
 15 16  2  3
 16 17  1  0
 17 18  1  0
 18 19  1  0
 19 20  1  0
 19 21  1  0
 19 22  1  0
 18 23  2  0
 23 24  1  0
 23 25  1  0
 12 26  2  0
 26 27  1  0
  2 28  1  0
 28 29  2  0
 29 30  1  0
 29 31  1  0
 31 32  1  0
 31 33  2  0
 33 34  1  0
 34 35  2  0
 34 36  1  0
 36 37  1  0
 36 38  1  0
 33 39  1  0
 39 40  1  0
 39 41  2  0
 41 42  1  0
 26  5  1  0
 41 28  1  0
 25 16  1  0
M  CHG  1  17  -1
M  END
>  <UniqueID>  (31) 
31

>  <SMILES>  (31) 
Cc1csc(=NC(=O)c2cccc(/C=C\c3ccc(C(N)=O)cc3)c2)[n-]1

>  <Energy>  (31) 
86.54552607487423

>  <Genealogy>  (31) 
Cc1csc(=NC(=O)c2cccc(C=Cc3ccc(C(N)=O)cc3)c2)[n-]1 (protonated)
Cc1csc(=NC(=O)c2cccc(/C=C\c3ccc(C(N)=O)cc3)c2)[n-]1 (cis-trans isomerization)
Cc1csc(=NC(=O)c2cccc(/C=C\c3ccc(C(N)=O)cc3)c2)[n-]1 (3D coordinates assigned)
Cc1csc(=NC(=O)c2cccc(/C=C\c3ccc(C(N)=O)cc3)c2)[n-]1 (optimized conformer: 86.54552607487423 kcal/mol)

>  <smiles>  (31) 
Cc1csc(=NC(=O)c2cccc(C=Cc3ccc(C(N)=O)cc3)c2)[nH]1

>  <score_type>  (31) 
oracle

>  <origin>  (31) 
adg

>  <m_score__min__energy>  (31) 
-11.33

>  <m_primary>  (31) 
energy

$$$$
31:0
     RDKit          3D

 56 59  0  0  0  0  0  0  0  0999 V2000
   57.7400   21.5820   43.5530 C   0  0  0  0  0  0  0  0  0  0  0  0
   56.6450   21.8240   42.8290 C   0  0  0  0  0  0  0  0  0  0  0  0
   55.7970   23.0450   43.0490 C   0  0  0  0  0  0  0  0  0  0  0  0
   56.6310   24.1390   43.5730 N   0  0  0  0  0  0  0  0  0  0  0  0
   56.4200   24.3670   45.0110 C   0  0  0  0  0  0  0  0  0  0  0  0
   57.1120   25.6230   45.4790 C   0  0  0  0  0  0  0  0  0  0  0  0
   58.5140   25.7020   45.4570 C   0  0  0  0  0  0  0  0  0  0  0  0
   59.1640   26.8570   45.8960 C   0  0  0  0  0  0  0  0  0  0  0  0
   58.4240   27.9630   46.3440 C   0  0  0  0  0  0  0  0  0  0  0  0
   59.0820   29.1430   46.8400 N   0  0  0  0  0  0  0  0  0  0  0  0
   59.7360   29.1580   47.9910 N   0  0  0  0  0  0  0  0  0  0  0  0
   60.3030   30.3710   48.1370 C   0  0  0  0  0  0  0  0  0  0  0  0
   61.1390   30.7890   49.2850 C   0  0  0  0  0  0  0  0  0  0  0  0
   60.9540   30.2070   50.3890 O   0  0  0  0  0  0  0  0  0  0  0  0
   62.1490   31.8230   49.1880 N   0  0  0  0  0  0  0  0  0  0  0  0
   62.6670   32.2660   47.8840 C   0  0  0  0  0  0  0  0  0  0  0  0
   63.9470   33.0850   48.0570 C   0  0  0  0  0  0  0  0  0  0  0  0
   64.7300   32.5120   49.0790 O   0  0  0  0  0  0  0  0  0  0  0  0
   64.1490   32.7860   50.3420 C   0  0  0  0  0  0  0  0  0  0  0  0
   62.6300   32.4960   50.4070 C   0  0  0  0  0  0  0  0  0  0  0  0
   60.0130   31.1520   47.0330 C   0  0  0  0  0  0  0  0  0  0  0  0
   59.2230   30.3470   46.2340 C   0  0  0  0  0  0  0  0  0  0  0  0
   58.5610   30.7880   44.9870 C   0  0  0  0  0  0  0  0  0  0  0  0
   57.8870   29.8670   44.1690 C   0  0  0  0  0  0  0  0  0  0  0  0
   57.2520   30.2950   42.9980 C   0  0  0  0  0  0  0  0  0  0  0  0
   57.2750   31.6470   42.6430 C   0  0  0  0  0  0  0  0  0  0  0  0
   56.6460   32.0700   41.4790 O   0  0  0  0  0  0  0  0  0  0  0  0
   57.9300   32.5730   43.4620 C   0  0  0  0  0  0  0  0  0  0  0  0
   58.5640   32.1480   44.6330 C   0  0  0  0  0  0  0  0  0  0  0  0
   57.0240   27.8810   46.3780 C   0  0  0  0  0  0  0  0  0  0  0  0
   56.3680   26.7230   45.9460 C   0  0  0  0  0  0  0  0  0  0  0  0
   54.9790   26.6710   45.9860 O   0  0  0  0  0  0  0  0  0  0  0  0
   58.3360   20.6772   43.3631 H   0  0  0  0  0  0  0  0  0  0  0  0
   58.0463   22.2874   44.3395 H   0  0  0  0  0  0  0  0  0  0  0  0
   56.3543   21.1073   42.0469 H   0  0  0  0  0  0  0  0  0  0  0  0
   55.3457   23.3539   42.0946 H   0  0  0  0  0  0  0  0  0  0  0  0
   55.0032   22.8120   43.7740 H   0  0  0  0  0  0  0  0  0  0  0  0
   56.3500   25.0190   43.0800 H   0  0  0  0  0  0  0  0  0  0  0  0
   55.3410   24.4605   45.2035 H   0  0  0  0  0  0  0  0  0  0  0  0
   56.8436   23.5140   45.5615 H   0  0  0  0  0  0  0  0  0  0  0  0
   59.1038   24.8484   45.0916 H   0  0  0  0  0  0  0  0  0  0  0  0
   60.2631   26.9008   45.8909 H   0  0  0  0  0  0  0  0  0  0  0  0
   62.8845   31.3838   47.2640 H   0  0  0  0  0  0  0  0  0  0  0  0
   61.9077   32.8973   47.3994 H   0  0  0  0  0  0  0  0  0  0  0  0
   64.5144   33.0840   47.1146 H   0  0  0  0  0  0  0  0  0  0  0  0
   63.6895   34.1202   48.3255 H   0  0  0  0  0  0  0  0  0  0  0  0
   64.6532   32.1656   51.0976 H   0  0  0  0  0  0  0  0  0  0  0  0
   64.2778   33.8626   50.5271 H   0  0  0  0  0  0  0  0  0  0  0  0
   62.4276   31.8499   51.2739 H   0  0  0  0  0  0  0  0  0  0  0  0
   62.1020   33.4567   50.4982 H   0  0  0  0  0  0  0  0  0  0  0  0
   60.3385   32.1839   46.8349 H   0  0  0  0  0  0  0  0  0  0  0  0
   57.8581   28.8039   44.4501 H   0  0  0  0  0  0  0  0  0  0  0  0
   56.7342   29.5671   42.3561 H   0  0  0  0  0  0  0  0  0  0  0  0
   57.9461   33.6372   43.1840 H   0  0  0  0  0  0  0  0  0  0  0  0
   59.0674   32.8812   45.2802 H   0  0  0  0  0  0  0  0  0  0  0  0
   56.4367   28.7346   46.7475 H   0  0  0  0  0  0  0  0  0  0  0  0
  1  2  2  0
  2  3  1  0
  3  4  1  0
  4  5  1  0
  5  6  1  0
  6  7  2  0
  7  8  1  0
  8  9  2  0
  9 10  1  0
 10 11  1  0
 11 12  2  0
 12 13  1  0
 13 14  2  0
 13 15  1  0
 15 16  1  0
 16 17  1  0
 17 18  1  0
 18 19  1  0
 19 20  1  0
 12 21  1  0
 21 22  2  0
 22 23  1  0
 23 24  2  0
 24 25  1  0
 25 26  2  0
 26 27  1  0
 26 28  1  0
 28 29  2  0
  9 30  1  0
 30 31  2  0
 31 32  1  0
 31  6  1  0
 22 10  1  0
 29 23  1  0
 20 15  1  0
  1 33  1  0
  1 34  1  0
  2 35  1  0
  3 36  1  0
  3 37  1  0
  4 38  1  0
  5 39  1  0
  5 40  1  0
  7 41  1  0
  8 42  1  0
 16 43  1  0
 16 44  1  0
 17 45  1  0
 17 46  1  0
 19 47  1  0
 19 48  1  0
 20 49  1  0
 20 50  1  0
 21 51  1  0
 24 52  1  0
 25 53  1  0
 28 54  1  0
 29 55  1  0
 30 56  1  0
M  CHG  2  27  -1  32  -1
M  END
>  <UniqueID>  (32) 
32

>  <SMILES>  (32) 
C=CCNCc1ccc(-n2nc(C(=O)N3CCOCC3)cc2-c2ccc([O-])cc2)cc1[O-]

>  <Energy>  (32) 
103.40451090259812

>  <Genealogy>  (32) 
C=CCNCc1ccc(-n2nc(C(=O)N3CCOCC3)cc2-c2ccc([O-])cc2)cc1[O-] (protonated)
C=CCNCc1ccc(-n2nc(C(=O)N3CCOCC3)cc2-c2ccc([O-])cc2)cc1[O-] (3D coordinates assigned)
C=CCNCc1ccc(-n2nc(C(=O)N3CCOCC3)cc2-c2ccc([O-])cc2)cc1[O-] (nonaromatic ring conformer: 103.40451090259812 kcal/mol)

>  <smiles>  (32) 
C=CCNCc1ccc(-n2nc(C(=O)N3CCOCC3)cc2-c2ccc(O)cc2)cc1O

>  <score_type>  (32) 
oracle

>  <origin>  (32) 
adg

>  <m_score__min__energy>  (32) 
-12.109999999999999

>  <m_primary>  (32) 
energy

$$$$
32:0
     RDKit          3D

 61 63  0  0  0  0  0  0  0  0999 V2000
   61.0750   34.0010   46.8690 C   0  0  0  0  0  0  0  0  0  0  0  0
   59.9510   34.6160   47.7010 C   0  0  0  0  0  0  0  0  0  0  0  0
   58.7230   34.9650   46.8470 C   0  0  0  0  0  0  0  0  0  0  0  0
   58.7310   34.2580   45.5100 C   0  0  0  0  0  0  0  0  0  0  0  0
   59.0630   34.9150   44.4840 O   0  0  0  0  0  0  0  0  0  0  0  0
   58.4250   32.8490   45.3820 N   0  0  0  0  0  0  0  0  0  0  0  0
   58.4840   31.9630   46.5580 C   0  0  0  0  0  0  0  0  0  0  0  0
   58.5250   30.4870   46.1560 C   0  0  0  0  0  0  0  0  0  0  0  0
   57.4600   30.1940   45.1860 N   0  0  0  0  0  0  0  0  0  0  0  0
   56.6630   28.9970   45.2980 C   0  0  0  0  0  0  0  0  0  0  0  0
   55.4720   29.0030   44.8820 O   0  0  0  0  0  0  0  0  0  0  0  0
   57.2080   27.7590   45.9010 C   0  0  0  0  0  0  0  0  0  0  0  0
   58.5810   27.6660   46.1900 C   0  0  0  0  0  0  0  0  0  0  0  0
   59.0990   26.5150   46.7950 C   0  0  0  0  0  0  0  0  0  0  0  0
   60.8510   26.4020   47.1500 S   0  0  0  0  0  0  0  0  0  0  0  0
   60.6720   27.2130   48.7350 C   0  0  0  0  0  0  0  0  0  0  0  0
   61.0730   26.7020   49.9630 C   0  0  0  0  0  0  0  0  0  0  0  0
   60.7940   27.5030   51.0260 N   0  0  0  0  0  0  0  0  0  0  0  0
   60.1750   28.6440   50.6360 C   0  0  0  0  0  0  0  0  0  0  0  0
   59.7750   29.5760   51.4480 N   0  0  0  0  0  0  0  0  0  0  0  0
   58.6010   30.3930   51.2970 C   0  0  0  0  0  0  0  0  0  0  0  0
   57.4510   29.8760   51.3610 O   0  0  0  0  0  0  0  0  0  0  0  0
   58.7590   31.8960   51.1290 C   0  0  0  0  0  0  0  0  0  0  0  0
   57.7590   32.6600   52.0240 C   0  0  0  0  0  0  0  0  0  0  0  0
   60.1950   32.2900   51.5200 C   0  0  0  0  0  0  0  0  0  0  0  0
   58.5010   32.2820   49.6580 C   0  0  0  0  0  0  0  0  0  0  0  0
   59.9450   28.7100   48.9720 S   0  0  0  0  0  0  0  0  0  0  0  0
   58.2510   25.4480   47.1110 C   0  0  0  0  0  0  0  0  0  0  0  0
   56.8940   25.5180   46.7970 C   0  0  0  0  0  0  0  0  0  0  0  0
   56.3690   26.6650   46.1910 C   0  0  0  0  0  0  0  0  0  0  0  0
   55.0090   26.7160   45.9070 O   0  0  0  0  0  0  0  0  0  0  0  0
   57.1750   31.1420   44.1000 C   0  0  0  0  0  0  0  0  0  0  0  0
   58.2110   32.2710   44.0450 C   0  0  0  0  0  0  0  0  0  0  0  0
   61.8403   33.5823   47.5391 H   0  0  0  0  0  0  0  0  0  0  0  0
   60.6659   33.2010   46.2344 H   0  0  0  0  0  0  0  0  0  0  0  0
   61.5281   34.7769   46.2344 H   0  0  0  0  0  0  0  0  0  0  0  0
   59.6502   33.8969   48.4771 H   0  0  0  0  0  0  0  0  0  0  0  0
   60.3301   35.5482   48.1452 H   0  0  0  0  0  0  0  0  0  0  0  0
   57.8160   34.6721   47.3961 H   0  0  0  0  0  0  0  0  0  0  0  0
   58.7453   36.0477   46.6541 H   0  0  0  0  0  0  0  0  0  0  0  0
   59.3889   32.1996   47.1370 H   0  0  0  0  0  0  0  0  0  0  0  0
   57.5766   32.1291   47.1571 H   0  0  0  0  0  0  0  0  0  0  0  0
   59.5014   30.2612   45.7025 H   0  0  0  0  0  0  0  0  0  0  0  0
   58.3740   29.8672   47.0521 H   0  0  0  0  0  0  0  0  0  0  0  0
   59.2510   28.5016   45.9395 H   0  0  0  0  0  0  0  0  0  0  0  0
   61.5752   25.7289   50.0670 H   0  0  0  0  0  0  0  0  0  0  0  0
   57.9992   32.4765   53.0817 H   0  0  0  0  0  0  0  0  0  0  0  0
   57.8280   33.7375   51.8139 H   0  0  0  0  0  0  0  0  0  0  0  0
   56.7375   32.3102   51.8139 H   0  0  0  0  0  0  0  0  0  0  0  0
   60.2830   32.3141   52.6162 H   0  0  0  0  0  0  0  0  0  0  0  0
   60.9017   31.5525   51.1116 H   0  0  0  0  0  0  0  0  0  0  0  0
   60.4264   33.2848   51.1116 H   0  0  0  0  0  0  0  0  0  0  0  0
   57.8901   33.1960   49.6205 H   0  0  0  0  0  0  0  0  0  0  0  0
   59.4612   32.4617   49.1523 H   0  0  0  0  0  0  0  0  0  0  0  0
   57.9678   31.4635   49.1523 H   0  0  0  0  0  0  0  0  0  0  0  0
   58.6549   24.5533   47.6074 H   0  0  0  0  0  0  0  0  0  0  0  0
   56.2339   24.6685   47.0265 H   0  0  0  0  0  0  0  0  0  0  0  0
   57.1866   30.6008   43.1424 H   0  0  0  0  0  0  0  0  0  0  0  0
   56.1886   31.5912   44.2876 H   0  0  0  0  0  0  0  0  0  0  0  0
   59.1634   31.8687   43.6693 H   0  0  0  0  0  0  0  0  0  0  0  0
   57.8380   33.0598   43.3752 H   0  0  0  0  0  0  0  0  0  0  0  0
  1  2  1  0
  2  3  1  0
  3  4  1  0
  4  5  2  0
  4  6  1  0
  6  7  1  0
  7  8  1  0
  8  9  1  0
  9 10  1  0
 10 11  2  0
 10 12  1  0
 12 13  2  0
 13 14  1  0
 14 15  1  0
 15 16  1  0
 16 17  2  0
 17 18  1  0
 18 19  1  0
 19 20  2  3
 20 21  1  0
 21 22  2  0
 21 23  1  0
 23 24  1  0
 23 25  1  0
 23 26  1  0
 19 27  1  0
 14 28  2  0
 28 29  1  0
 29 30  2  0
 30 31  1  0
  9 32  1  0
 32 33  1  0
 33  6  1  0
 30 12  1  0
 27 16  1  0
  1 34  1  0
  1 35  1  0
  1 36  1  0
  2 37  1  0
  2 38  1  0
  3 39  1  0
  3 40  1  0
  7 41  1  0
  7 42  1  0
  8 43  1  0
  8 44  1  0
 13 45  1  0
 17 46  1  0
 24 47  1  0
 24 48  1  0
 24 49  1  0
 25 50  1  0
 25 51  1  0
 25 52  1  0
 26 53  1  0
 26 54  1  0
 26 55  1  0
 28 56  1  0
 29 57  1  0
 32 58  1  0
 32 59  1  0
 33 60  1  0
 33 61  1  0
M  CHG  2  18  -1  31  -1
M  END
>  <UniqueID>  (33) 
33

>  <SMILES>  (33) 
CCCC(=O)N1CCN(C(=O)c2cc(Sc3c[n-]c(=NC(=O)C(C)(C)C)s3)ccc2[O-])CC1

>  <Energy>  (33) 
87.81255207003095

>  <Genealogy>  (33) 
CCCC(=O)N1CCN(C(=O)c2cc(Sc3c[n-]c(=NC(=O)C(C)(C)C)s3)ccc2[O-])CC1 (protonated)
CCCC(=O)N1CCN(C(=O)c2cc(Sc3c[n-]c(=NC(=O)C(C)(C)C)s3)ccc2[O-])CC1 (3D coordinates assigned)
CCCC(=O)N1CCN(C(=O)c2cc(Sc3c[n-]c(=NC(=O)C(C)(C)C)s3)ccc2[O-])CC1 (nonaromatic ring conformer: 87.81255207003095 kcal/mol)

>  <smiles>  (33) 
CCCC(=O)N1CCN(C(=O)c2cc(Sc3c[nH]c(=NC(=O)C(C)(C)C)s3)ccc2O)CC1

>  <score_type>  (33) 
oracle

>  <origin>  (33) 
adg

>  <m_score__min__energy>  (33) 
-14.449999999999999

>  <m_primary>  (33) 
energy

$$$$
33:0
     RDKit          3D

 36 38  0  0  0  0  0  0  0  0999 V2000
   60.6661   33.6421   49.1513 H   0  0  0  0  0  0  0  0  0  0  0  0
   60.0760   33.0640   48.4250 C   0  0  0  0  0  0  0  0  0  0  0  0
   58.9160   33.6120   47.8740 C   0  0  0  0  0  0  0  0  0  0  0  0
   58.5938   34.6225   48.1657 H   0  0  0  0  0  0  0  0  0  0  0  0
   58.1640   32.8790   46.9530 C   0  0  0  0  0  0  0  0  0  0  0  0
   57.2472   33.3131   46.5276 H   0  0  0  0  0  0  0  0  0  0  0  0
   58.5710   31.5900   46.5660 C   0  0  0  0  0  0  0  0  0  0  0  0
   57.7410   30.8170   45.6130 C   0  0  0  0  0  0  0  0  0  0  0  0
   57.2030   29.6400   46.0290 N   0  0  0  0  0  0  0  0  0  0  0  0
   56.4120   28.8860   45.2200 C   0  0  0  0  0  0  0  0  0  0  0  0
   55.9290   27.7460   45.6210 N   0  0  0  0  0  0  0  0  0  0  0  0
   56.6280   26.4930   45.6970 C   0  0  0  0  0  0  0  0  0  0  0  0
   55.8840   25.3070   45.7020 C   0  0  0  0  0  0  0  0  0  0  0  0
   54.7872   25.3515   45.6305 H   0  0  0  0  0  0  0  0  0  0  0  0
   56.5220   24.0670   45.7970 C   0  0  0  0  0  0  0  0  0  0  0  0
   55.9270   23.1419   45.7835 H   0  0  0  0  0  0  0  0  0  0  0  0
   57.9240   23.9980   45.9100 C   0  0  0  0  0  0  0  0  0  0  0  0
   58.6120   22.7780   46.0050 O   0  0  0  0  0  0  0  0  0  0  0  0
   58.9400   21.9530   44.8930 C   0  0  0  0  0  0  0  0  0  0  0  0
   59.3239   20.9873   45.2535 H   0  0  0  0  0  0  0  0  0  0  0  0
   58.0402   21.7852   44.2829 H   0  0  0  0  0  0  0  0  0  0  0  0
   59.7094   22.4488   44.2829 H   0  0  0  0  0  0  0  0  0  0  0  0
   58.6650   25.1840   45.9370 C   0  0  0  0  0  0  0  0  0  0  0  0
   59.7599   25.1408   46.0338 H   0  0  0  0  0  0  0  0  0  0  0  0
   58.0260   26.4240   45.8420 C   0  0  0  0  0  0  0  0  0  0  0  0
   58.6188   27.3498   45.8808 H   0  0  0  0  0  0  0  0  0  0  0  0
   56.1600   29.3050   43.9540 N   0  0  0  0  0  0  0  0  0  0  0  0
   56.6710   30.4690   43.4790 C   0  0  0  0  0  0  0  0  0  0  0  0
   56.4120   30.8190   42.2960 O   0  0  0  0  0  0  0  0  0  0  0  0
   57.4830   31.2650   44.3020 C   0  0  0  0  0  0  0  0  0  0  0  0
   58.0690   32.4820   43.7860 C   0  0  0  0  0  0  0  0  0  0  0  0
   58.5380   33.4570   43.3740 N   0  0  0  0  0  0  0  0  0  0  0  0
   59.7420   31.0370   47.1310 C   0  0  0  0  0  0  0  0  0  0  0  0
   60.3880   29.2980   46.6430 Br  0  0  0  0  0  0  0  0  0  0  0  0
   60.4870   31.7820   48.0540 C   0  0  0  0  0  0  0  0  0  0  0  0
   61.4021   31.3543   48.4896 H   0  0  0  0  0  0  0  0  0  0  0  0
  1  2  1  0
  2  3  2  0
  3  4  1  0
  3  5  1  0
  5  6  1  0
  5  7  2  0
  7  8  1  0
  8  9  1  0
  9 10  1  0
 10 11  2  0
 11 12  1  0
 12 13  2  0
 13 14  1  0
 13 15  1  0
 15 16  1  0
 15 17  2  0
 17 18  1  0
 18 19  1  0
 19 20  1  0
 19 21  1  0
 19 22  1  0
 17 23  1  0
 23 24  1  0
 23 25  2  0
 25 26  1  0
 10 27  1  0
 27 28  1  0
 28 29  2  0
 28 30  1  0
 30 31  1  0
 31 32  3  0
  7 33  1  0
 33 34  1  0
 33 35  2  0
 35 36  1  0
 35  2  1  0
 30  8  2  0
 25 12  1  0
M  CHG  2   9  -1  27  -1
M  END
>  <UniqueID>  (34) 
34

>  <SMILES>  (34) 
COc1ccc(/N=c2\[n-]c(-c3ccccc3Br)c(C#N)c(=O)[n-]2)cc1

>  <Energy>  (34) 
53.49113125732825

>  <Genealogy>  (34) 
COc1ccc(N=c2[n-]c(-c3ccccc3Br)c(C#N)c(=O)[n-]2)cc1 (protonated)
COc1ccc(/N=c2\[n-]c(-c3ccccc3Br)c(C#N)c(=O)[n-]2)cc1 (cis-trans isomerization)
COc1ccc(/N=c2\[n-]c(-c3ccccc3Br)c(C#N)c(=O)[n-]2)cc1 (3D coordinates assigned)
COc1ccc(/N=c2\[n-]c(-c3ccccc3Br)c(C#N)c(=O)[n-]2)cc1 (optimized conformer: 53.49113125732825 kcal/mol)

>  <smiles>  (34) 
COc1ccc(N=c2[nH]c(-c3ccccc3Br)c(C#N)c(=O)[nH]2)cc1

>  <score_type>  (34) 
oracle

>  <origin>  (34) 
adg

>  <m_score__min__energy>  (34) 
-10.99

>  <m_primary>  (34) 
energy

$$$$
34:0
     RDKit          3D

 48 50  0  0  0  0  0  0  0  0999 V2000
   55.7860   28.8200   53.2040 O   0  0  0  0  0  0  0  0  0  0  0  0
   55.2350   29.7500   52.5700 C   0  0  0  0  0  0  0  0  0  0  0  0
   56.0620   30.9160   52.1100 C   0  0  0  0  0  0  0  0  0  0  0  0
   56.9980   30.4680   51.0990 N   0  0  0  0  0  0  0  0  0  0  0  0
   58.1390   31.2340   50.7020 C   0  0  0  0  0  0  0  0  0  0  0  0
   58.4210   32.3010   51.3220 O   0  0  0  0  0  0  0  0  0  0  0  0
   58.9660   30.7880   49.5450 C   0  0  0  0  0  0  0  0  0  0  0  0
   58.8990   29.4440   49.1310 C   0  0  0  0  0  0  0  0  0  0  0  0
   59.6830   28.9820   48.0740 C   0  0  0  0  0  0  0  0  0  0  0  0
   60.5460   29.8540   47.4100 C   0  0  0  0  0  0  0  0  0  0  0  0
   60.6320   31.1920   47.8020 C   0  0  0  0  0  0  0  0  0  0  0  0
   59.8440   31.6770   48.8650 C   0  0  0  0  0  0  0  0  0  0  0  0
   59.9090   33.0270   49.2630 O   0  0  0  0  0  0  0  0  0  0  0  0
   60.1840   34.1400   48.4080 C   0  0  0  0  0  0  0  0  0  0  0  0
   59.2790   34.1250   47.1990 C   0  0  0  0  0  0  0  0  0  0  0  0
   59.7170   34.6670   45.9780 C   0  0  0  0  0  0  0  0  0  0  0  0
   58.8860   34.6200   44.8540 C   0  0  0  0  0  0  0  0  0  0  0  0
   57.6170   34.0320   44.9410 C   0  0  0  0  0  0  0  0  0  0  0  0
   57.1780   33.4810   46.1490 C   0  0  0  0  0  0  0  0  0  0  0  0
   58.0090   33.5200   47.2750 C   0  0  0  0  0  0  0  0  0  0  0  0
   53.8450   29.6240   52.2480 N   0  0  0  0  0  0  0  0  0  0  0  0
   52.8870   30.7270   52.1400 C   0  0  0  0  0  0  0  0  0  0  0  0
   52.2320   30.7400   50.7710 C   0  0  0  0  0  0  0  0  0  0  0  0
   52.4870   29.6880   49.8710 C   0  0  0  0  0  0  0  0  0  0  0  0
   51.8450   29.6410   48.6260 C   0  0  0  0  0  0  0  0  0  0  0  0
   50.9460   30.6360   48.2720 C   0  0  0  0  0  0  0  0  0  0  0  0
   50.6910   31.6940   49.1480 C   0  0  0  0  0  0  0  0  0  0  0  0
   51.3270   31.7510   50.3940 C   0  0  0  0  0  0  0  0  0  0  0  0
   51.0270   32.8010   51.2610 O   0  0  0  0  0  0  0  0  0  0  0  0
   55.4042   31.6887   51.6855 H   0  0  0  0  0  0  0  0  0  0  0  0
   56.6139   31.3367   52.9635 H   0  0  0  0  0  0  0  0  0  0  0  0
   58.2199   28.7497   49.6476 H   0  0  0  0  0  0  0  0  0  0  0  0
   59.6207   27.9286   47.7635 H   0  0  0  0  0  0  0  0  0  0  0  0
   61.1608   29.4868   46.5750 H   0  0  0  0  0  0  0  0  0  0  0  0
   61.3195   31.8718   47.2774 H   0  0  0  0  0  0  0  0  0  0  0  0
   60.0224   35.0731   48.9677 H   0  0  0  0  0  0  0  0  0  0  0  0
   61.2278   34.0731   48.0675 H   0  0  0  0  0  0  0  0  0  0  0  0
   60.7132   35.1280   45.9067 H   0  0  0  0  0  0  0  0  0  0  0  0
   59.2293   35.0456   43.8995 H   0  0  0  0  0  0  0  0  0  0  0  0
   56.9641   34.0038   44.0562 H   0  0  0  0  0  0  0  0  0  0  0  0
   56.1823   33.0181   46.2143 H   0  0  0  0  0  0  0  0  0  0  0  0
   57.6691   33.0766   48.2226 H   0  0  0  0  0  0  0  0  0  0  0  0
   52.1107   30.6071   52.9101 H   0  0  0  0  0  0  0  0  0  0  0  0
   53.4245   31.6761   52.2826 H   0  0  0  0  0  0  0  0  0  0  0  0
   53.1973   28.8949   50.1476 H   0  0  0  0  0  0  0  0  0  0  0  0
   52.0541   28.8153   47.9299 H   0  0  0  0  0  0  0  0  0  0  0  0
   50.4329   30.5921   47.3000 H   0  0  0  0  0  0  0  0  0  0  0  0
   49.9863   32.4870   48.8571 H   0  0  0  0  0  0  0  0  0  0  0  0
  1  2  2  0
  2  3  1  0
  3  4  1  0
  4  5  1  0
  5  6  2  0
  5  7  1  0
  7  8  2  0
  8  9  1  0
  9 10  2  0
 10 11  1  0
 11 12  2  0
 12 13  1  0
 13 14  1  0
 14 15  1  0
 15 16  2  0
 16 17  1  0
 17 18  2  0
 18 19  1  0
 19 20  2  0
  2 21  1  0
 21 22  1  0
 22 23  1  0
 23 24  2  0
 24 25  1  0
 25 26  2  0
 26 27  1  0
 27 28  2  0
 28 29  1  0
 12  7  1  0
 20 15  1  0
 28 23  1  0
  3 30  1  0
  3 31  1  0
  8 32  1  0
  9 33  1  0
 10 34  1  0
 11 35  1  0
 14 36  1  0
 14 37  1  0
 16 38  1  0
 17 39  1  0
 18 40  1  0
 19 41  1  0
 20 42  1  0
 22 43  1  0
 22 44  1  0
 24 45  1  0
 25 46  1  0
 26 47  1  0
 27 48  1  0
M  CHG  3   4  -1  21  -1  29  -1
M  END
>  <UniqueID>  (35) 
35

>  <SMILES>  (35) 
O=C(C[N-]C(=O)c1ccccc1OCc1ccccc1)[N-]Cc1ccccc1[O-]

>  <Energy>  (35) 
46.493516705451675

>  <Genealogy>  (35) 
O=C(C[N-]C(=O)c1ccccc1OCc1ccccc1)[N-]Cc1ccccc1[O-] (protonated)
O=C(C[N-]C(=O)c1ccccc1OCc1ccccc1)[N-]Cc1ccccc1[O-] (3D coordinates assigned)
O=C(C[N-]C(=O)c1ccccc1OCc1ccccc1)[N-]Cc1ccccc1[O-] (optimized conformer: 46.493516705451675 kcal/mol)

>  <smiles>  (35) 
O=C(CNC(=O)c1ccccc1OCc1ccccc1)NCc1ccccc1O

>  <score_type>  (35) 
oracle

>  <origin>  (35) 
adg

>  <m_score__min__energy>  (35) 
-14.74

>  <m_primary>  (35) 
energy

$$$$
35:0
     RDKit          3D

 27 28  0  0  0  0  0  0  0  0999 V2000
   56.2920   29.7620   42.7160 C   0  0  0  0  0  0  0  0  0  0  0  0
   56.9940   30.5130   43.8140 C   0  0  0  0  0  0  0  0  0  0  0  0
   57.3960   31.8430   43.6080 C   0  0  0  0  0  0  0  0  0  0  0  0
   58.0520   32.5490   44.6210 C   0  0  0  0  0  0  0  0  0  0  0  0
   58.4460   33.8640   44.4090 O   0  0  0  0  0  0  0  0  0  0  0  0
   58.3160   31.9290   45.8440 C   0  0  0  0  0  0  0  0  0  0  0  0
   57.9190   30.6090   46.0630 C   0  0  0  0  0  0  0  0  0  0  0  0
   57.2370   29.8950   45.0600 C   0  0  0  0  0  0  0  0  0  0  0  0
   56.8390   28.5270   45.2560 N   0  0  0  0  0  0  0  0  0  0  0  0
   57.6720   27.3660   45.1430 C   0  0  0  0  0  0  0  0  0  0  0  0
   58.6840   27.3920   44.3920 O   0  0  0  0  0  0  0  0  0  0  0  0
   57.3740   26.1480   45.9460 C   0  0  0  0  0  0  0  0  0  0  0  0
   56.0570   25.8520   46.3580 C   0  0  0  0  0  0  0  0  0  0  0  0
   55.0000   26.7000   46.0370 O   0  0  0  0  0  0  0  0  0  0  0  0
   55.8080   24.7350   47.0910 N   0  0  0  0  0  0  0  0  0  0  0  0
   56.8040   23.8870   47.4430 C   0  0  0  0  0  0  0  0  0  0  0  0
   56.5450   22.8600   48.1220 O   0  0  0  0  0  0  0  0  0  0  0  0
   58.0800   24.1430   47.0620 N   0  0  0  0  0  0  0  0  0  0  0  0
   58.3890   25.2430   46.3280 C   0  0  0  0  0  0  0  0  0  0  0  0
   59.5880   25.4250   45.9870 O   0  0  0  0  0  0  0  0  0  0  0  0
   55.6039   29.0259   43.1571 H   0  0  0  0  0  0  0  0  0  0  0  0
   55.7232   30.4688   42.0939 H   0  0  0  0  0  0  0  0  0  0  0  0
   57.0355   29.2421   42.0939 H   0  0  0  0  0  0  0  0  0  0  0  0
   57.1935   32.3321   42.6438 H   0  0  0  0  0  0  0  0  0  0  0  0
   58.8387   32.4829   46.6377 H   0  0  0  0  0  0  0  0  0  0  0  0
   58.1404   30.1239   47.0251 H   0  0  0  0  0  0  0  0  0  0  0  0
   55.1520   27.5390   45.4900 H   0  0  0  0  0  0  0  0  0  0  0  0
  1  2  1  0
  2  3  2  0
  3  4  1  0
  4  5  1  0
  4  6  2  0
  6  7  1  0
  7  8  2  0
  8  9  1  0
  9 10  1  0
 10 11  2  0
 10 12  1  0
 12 13  2  0
 13 14  1  0
 13 15  1  0
 15 16  1  0
 16 17  2  0
 16 18  1  0
 18 19  1  0
 19 20  2  0
  8  2  1  0
 19 12  1  0
  1 21  1  0
  1 22  1  0
  1 23  1  0
  3 24  1  0
  6 25  1  0
  7 26  1  0
 14 27  1  0
M  CHG  4   5  -1   9  -1  15  -1  18  -1
M  END
>  <UniqueID>  (36) 
36

>  <SMILES>  (36) 
Cc1cc([O-])ccc1[N-]C(=O)c1c(O)[n-]c(=O)[n-]c1=O

>  <Energy>  (36) 
36.51247899250535

>  <Genealogy>  (36) 
Cc1cc([O-])ccc1[N-]C(=O)c1c(O)[n-]c(=O)[n-]c1=O (protonated)
Cc1cc([O-])ccc1[N-]C(=O)c1c(O)[n-]c(=O)[n-]c1=O (3D coordinates assigned)
Cc1cc([O-])ccc1[N-]C(=O)c1c(O)[n-]c(=O)[n-]c1=O (optimized conformer: 36.51247899250535 kcal/mol)

>  <smiles>  (36) 
Cc1cc(O)ccc1NC(=O)c1c(O)[nH]c(=O)[nH]c1=O

>  <score_type>  (36) 
oracle

>  <origin>  (36) 
adg

>  <m_score__min__energy>  (36) 
-13.19

>  <m_primary>  (36) 
energy

$$$$
36:0
     RDKit          3D

 54 57  0  0  0  0  0  0  0  0999 V2000
   55.2890   29.4270   45.1950 O   0  0  0  0  0  0  0  0  0  0  0  0
   56.5180   29.5560   44.9530 C   0  0  0  0  0  0  0  0  0  0  0  0
   57.5030   28.7080   45.5740 N   0  0  0  0  0  0  0  0  0  0  0  0
   57.4180   27.4690   45.9910 C   0  0  0  0  0  0  0  0  0  0  0  0
   56.2360   26.7030   45.8770 C   0  0  0  0  0  0  0  0  0  0  0  0
   56.1970   25.4030   46.3780 C   0  0  0  0  0  0  0  0  0  0  0  0
   57.2950   24.8610   46.9600 N   0  0  0  0  0  0  0  0  0  0  0  0
   58.4570   25.5500   47.0680 C   0  0  0  0  0  0  0  0  0  0  0  0
   58.5580   26.8650   46.5790 C   0  0  0  0  0  0  0  0  0  0  0  0
   59.8640   27.5720   46.6600 C   0  0  0  0  0  0  0  0  0  0  0  0
   60.9150   26.9510   46.3350 O   0  0  0  0  0  0  0  0  0  0  0  0
   59.9520   28.9300   47.1580 N   0  0  0  0  0  0  0  0  0  0  0  0
   60.9310   29.7200   46.3740 C   0  0  0  0  0  0  0  0  0  0  0  0
   61.4010   30.9840   47.1240 C   0  0  0  0  0  0  0  0  0  0  0  0
   60.4110   31.4000   48.1350 N   0  0  0  0  0  0  0  0  0  0  0  0
   60.7250   32.7680   48.6360 C   0  0  0  0  0  0  0  0  0  0  0  0
   61.2810   33.7450   47.5960 C   0  0  0  0  0  0  0  0  0  0  0  0
   60.0670   34.6450   47.8040 C   0  0  0  0  0  0  0  0  0  0  0  0
   59.5230   33.6900   48.8610 C   0  0  0  0  0  0  0  0  0  0  0  0
   60.1980   30.3510   49.1710 C   0  0  0  0  0  0  0  0  0  0  0  0
   60.3090   28.9270   48.5890 C   0  0  0  0  0  0  0  0  0  0  0  0
   56.9510   30.6280   44.0370 C   0  0  0  0  0  0  0  0  0  0  0  0
   56.6320   30.4920   42.6750 C   0  0  0  0  0  0  0  0  0  0  0  0
   57.0520   31.4460   41.7480 C   0  0  0  0  0  0  0  0  0  0  0  0
   57.7960   32.5470   42.1680 C   0  0  0  0  0  0  0  0  0  0  0  0
   58.1020   32.7110   43.5200 C   0  0  0  0  0  0  0  0  0  0  0  0
   57.6610   31.7770   44.4800 C   0  0  0  0  0  0  0  0  0  0  0  0
   57.9780   32.0180   45.9430 C   0  0  0  0  0  0  0  0  0  0  0  0
   57.0260   32.8340   46.5340 F   0  0  0  0  0  0  0  0  0  0  0  0
   59.2070   32.6350   46.0480 F   0  0  0  0  0  0  0  0  0  0  0  0
   58.0000   30.8260   46.6460 F   0  0  0  0  0  0  0  0  0  0  0  0
   55.3467   27.1327   45.3928 H   0  0  0  0  0  0  0  0  0  0  0  0
   55.2711   24.8141   46.3009 H   0  0  0  0  0  0  0  0  0  0  0  0
   59.3292   25.0765   47.5424 H   0  0  0  0  0  0  0  0  0  0  0  0
   59.0180   29.3940   47.0480 H   0  0  0  0  0  0  0  0  0  0  0  0
   61.8065   29.0884   46.1626 H   0  0  0  0  0  0  0  0  0  0  0  0
   60.4353   30.0444   45.4471 H   0  0  0  0  0  0  0  0  0  0  0  0
   62.3572   30.7704   47.6240 H   0  0  0  0  0  0  0  0  0  0  0  0
   61.5198   31.7991   46.3950 H   0  0  0  0  0  0  0  0  0  0  0  0
   61.3453   32.4521   49.4877 H   0  0  0  0  0  0  0  0  0  0  0  0
   62.2381   34.2074   47.8791 H   0  0  0  0  0  0  0  0  0  0  0  0
   61.5521   33.3954   46.5889 H   0  0  0  0  0  0  0  0  0  0  0  0
   60.3130   35.6454   48.1895 H   0  0  0  0  0  0  0  0  0  0  0  0
   59.4411   34.9348   46.9471 H   0  0  0  0  0  0  0  0  0  0  0  0
   59.4690   34.1207   49.8717 H   0  0  0  0  0  0  0  0  0  0  0  0
   58.4973   33.2996   48.7870 H   0  0  0  0  0  0  0  0  0  0  0  0
   60.9561   30.4719   49.9588 H   0  0  0  0  0  0  0  0  0  0  0  0
   59.1811   30.4738   49.5721 H   0  0  0  0  0  0  0  0  0  0  0  0
   61.3420   28.5672   48.7046 H   0  0  0  0  0  0  0  0  0  0  0  0
   59.6167   28.2645   49.1293 H   0  0  0  0  0  0  0  0  0  0  0  0
   56.0455   29.6250   42.3368 H   0  0  0  0  0  0  0  0  0  0  0  0
   56.7957   31.3292   40.6847 H   0  0  0  0  0  0  0  0  0  0  0  0
   58.1427   33.2881   41.4328 H   0  0  0  0  0  0  0  0  0  0  0  0
   58.6949   33.5802   43.8408 H   0  0  0  0  0  0  0  0  0  0  0  0
  1  2  2  0
  2  3  1  0
  3  4  2  3
  4  5  1  0
  5  6  2  0
  6  7  1  0
  7  8  1  0
  8  9  2  0
  9 10  1  0
 10 11  2  0
 10 12  1  0
 12 13  1  0
 13 14  1  0
 14 15  1  0
 15 16  1  0
 16 17  1  0
 17 18  1  0
 18 19  1  0
 15 20  1  0
 20 21  1  0
  2 22  1  0
 22 23  2  0
 23 24  1  0
 24 25  2  0
 25 26  1  0
 26 27  2  0
 27 28  1  0
 28 29  1  0
 28 30  1  0
 28 31  1  0
  9  4  1  0
 21 12  1  0
 27 22  1  0
 19 16  1  0
  5 32  1  0
  6 33  1  0
  8 34  1  0
 12 35  1  0
 13 36  1  0
 13 37  1  0
 14 38  1  0
 14 39  1  0
 16 40  1  0
 17 41  1  0
 17 42  1  0
 18 43  1  0
 18 44  1  0
 19 45  1  0
 19 46  1  0
 20 47  1  0
 20 48  1  0
 21 49  1  0
 21 50  1  0
 23 51  1  0
 24 52  1  0
 25 53  1  0
 26 54  1  0
M  CHG  2   7  -1  12   1
M  END
>  <UniqueID>  (37) 
37

>  <SMILES>  (37) 
O=C(N=c1cc[n-]cc1C(=O)[NH+]1CCN(C2CCC2)CC1)c1ccccc1C(F)(F)F

>  <Energy>  (37) 
155.9408860999132

>  <Genealogy>  (37) 
O=C(N=c1cc[n-]cc1C(=O)[NH+]1CCN(C2CCC2)CC1)c1ccccc1C(F)(F)F (protonated)
O=C(N=c1cc[n-]cc1C(=O)[NH+]1CCN(C2CCC2)CC1)c1ccccc1C(F)(F)F (3D coordinates assigned)
O=C(N=c1cc[n-]cc1C(=O)[NH+]1CCN(C2CCC2)CC1)c1ccccc1C(F)(F)F (nonaromatic ring conformer: 155.9408860999132 kcal/mol)

>  <smiles>  (37) 
O=C(N=c1cc[nH]cc1C(=O)N1CCN(C2CCC2)CC1)c1ccccc1C(F)(F)F

>  <score_type>  (37) 
oracle

>  <origin>  (37) 
adg

>  <m_score__min__energy>  (37) 
-7.6799999999999997

>  <m_primary>  (37) 
energy

$$$$
37:0
     RDKit          3D

 58 62  0  0  0  0  0  0  0  0999 V2000
   55.1500   29.3420   44.8560 N   0  0  0  0  0  0  0  0  0  0  0  0
   56.5360   29.1820   44.5710 C   0  0  0  0  0  0  0  0  0  0  0  0
   56.9270   29.1520   43.3740 O   0  0  0  0  0  0  0  0  0  0  0  0
   57.5000   29.0380   45.6720 C   0  0  0  0  0  0  0  0  0  0  0  0
   58.0230   30.0830   46.3500 N   0  0  0  0  0  0  0  0  0  0  0  0
   58.8330   29.6000   47.2830 N   0  0  0  0  0  0  0  0  0  0  0  0
   59.5510   30.4180   48.2770 C   0  0  1  0  0  0  0  0  0  0  0  0
   59.2440   29.9370   49.7310 C   0  0  0  0  0  0  0  0  0  0  0  0
   60.4700   29.3610   50.4450 C   0  0  0  0  0  0  0  0  0  0  0  0
   61.6180   30.3810   50.4450 C   0  0  0  0  0  0  0  0  0  0  0  0
   61.8300   30.9810   49.1160 N   0  0  0  0  0  0  0  0  0  0  0  0
   62.8440   31.9970   48.9160 C   0  0  0  0  0  0  0  0  0  0  0  0
   63.9040   31.6970   48.3070 O   0  0  0  0  0  0  0  0  0  0  0  0
   62.6760   33.3720   49.4630 C   0  0  0  0  0  0  0  0  0  0  0  0
   61.5990   34.1490   49.2750 C   0  0  0  0  0  0  0  0  0  0  0  0
   60.6100   33.9550   48.2030 C   0  0  0  0  0  0  0  0  0  0  0  0
   60.9780   34.1300   46.8590 C   0  0  0  0  0  0  0  0  0  0  0  0
   60.0230   33.9650   45.8520 C   0  0  0  0  0  0  0  0  0  0  0  0
   58.6970   33.6490   46.1800 C   0  0  0  0  0  0  0  0  0  0  0  0
   57.3910   33.4450   44.8020 Br  0  0  0  0  0  0  0  0  0  0  0  0
   58.3270   33.4860   47.5210 C   0  0  0  0  0  0  0  0  0  0  0  0
   59.2810   33.6340   48.5320 C   0  0  0  0  0  0  0  0  0  0  0  0
   61.0710   30.4570   47.9690 C   0  0  0  0  0  0  0  0  0  0  0  0
   58.8310   28.2500   47.2290 C   0  0  0  0  0  0  0  0  0  0  0  0
   58.0000   27.8660   46.1950 C   0  0  0  0  0  0  0  0  0  0  0  0
   57.6350   26.5480   45.8020 N   0  0  0  0  0  0  0  0  0  0  0  0
   56.3070   26.0130   45.8020 C   0  0  0  0  0  0  0  0  0  0  0  0
   55.3570   26.6440   46.3390 O   0  0  0  0  0  0  0  0  0  0  0  0
   56.0570   24.6990   45.2010 C   0  0  0  0  0  0  0  0  0  0  0  0
   54.8430   24.1680   44.7810 C   0  0  0  0  0  0  0  0  0  0  0  0
   55.0310   22.9140   44.2930 N   0  0  0  0  0  0  0  0  0  0  0  0
   56.3210   22.6530   44.3970 N   0  0  0  0  0  0  0  0  0  0  0  0
   56.9670   21.5280   43.9990 C   0  0  0  0  0  0  0  0  0  0  0  0
   58.3600   21.4870   44.1470 C   0  0  0  0  0  0  0  0  0  0  0  0
   59.0130   22.6060   44.6890 C   0  0  0  0  0  0  0  0  0  0  0  0
   58.3040   23.7070   45.0790 N   0  0  0  0  0  0  0  0  0  0  0  0
   56.9580   23.6950   44.9340 C   0  0  0  0  0  0  0  0  0  0  0  0
   54.7990   29.3530   45.8430 H   0  0  0  0  0  0  0  0  0  0  0  0
   59.1852   31.4529   48.2054 H   0  0  0  0  0  0  0  0  0  0  0  0
   58.8712   30.7936   50.3117 H   0  0  0  0  0  0  0  0  0  0  0  0
   58.4980   29.1318   49.6593 H   0  0  0  0  0  0  0  0  0  0  0  0
   60.2028   29.1161   51.4836 H   0  0  0  0  0  0  0  0  0  0  0  0
   60.7982   28.4545   49.9153 H   0  0  0  0  0  0  0  0  0  0  0  0
   61.3806   31.1814   51.1612 H   0  0  0  0  0  0  0  0  0  0  0  0
   62.5399   29.8515   50.7272 H   0  0  0  0  0  0  0  0  0  0  0  0
   63.4984   33.7819   50.0677 H   0  0  0  0  0  0  0  0  0  0  0  0
   61.4446   34.9881   49.9693 H   0  0  0  0  0  0  0  0  0  0  0  0
   62.0135   34.3958   46.6000 H   0  0  0  0  0  0  0  0  0  0  0  0
   60.3129   34.0836   44.7975 H   0  0  0  0  0  0  0  0  0  0  0  0
   57.2859   33.2416   47.7786 H   0  0  0  0  0  0  0  0  0  0  0  0
   58.9921   33.4994   49.5848 H   0  0  0  0  0  0  0  0  0  0  0  0
   61.2445   31.1048   47.0971 H   0  0  0  0  0  0  0  0  0  0  0  0
   61.4124   29.4319   47.7626 H   0  0  0  0  0  0  0  0  0  0  0  0
   59.3925   27.5754   47.8920 H   0  0  0  0  0  0  0  0  0  0  0  0
   53.8741   24.6860   44.8356 H   0  0  0  0  0  0  0  0  0  0  0  0
   56.4155   20.6763   43.5742 H   0  0  0  0  0  0  0  0  0  0  0  0
   58.9304   20.5963   43.8447 H   0  0  0  0  0  0  0  0  0  0  0  0
   60.1073   22.5960   44.8008 H   0  0  0  0  0  0  0  0  0  0  0  0
  1  2  1  0
  2  3  2  0
  2  4  1  0
  4  5  2  0
  5  6  1  0
  6  7  1  0
  7  8  1  0
  8  9  1  0
  9 10  1  0
 10 11  1  0
 11 12  1  0
 12 13  2  0
 12 14  1  0
 14 15  2  3
 15 16  1  0
 16 17  2  0
 17 18  1  0
 18 19  2  0
 19 20  1  0
 19 21  1  0
 21 22  2  0
 11 23  1  0
  6 24  1  0
 24 25  2  0
 25 26  1  0
 26 27  1  0
 27 28  2  0
 27 29  1  0
 29 30  1  0
 30 31  2  0
 31 32  1  0
 32 33  1  0
 33 34  2  0
 34 35  1  0
 35 36  2  0
 36 37  1  0
 25  4  1  0
 37 29  2  0
 23  7  1  0
 37 32  1  0
 22 16  1  0
  1 38  1  0
  7 39  1  1
  8 40  1  0
  8 41  1  0
  9 42  1  0
  9 43  1  0
 10 44  1  0
 10 45  1  0
 14 46  1  0
 15 47  1  0
 17 48  1  0
 18 49  1  0
 21 50  1  0
 22 51  1  0
 23 52  1  0
 23 53  1  0
 24 54  1  0
 30 55  1  0
 33 56  1  0
 34 57  1  0
 35 58  1  0
M  CHG  2   1  -1  26  -1
M  END
>  <UniqueID>  (38) 
38

>  <SMILES>  (38) 
[NH-]C(=O)c1nn([C@H]2CCCN(C(=O)C=Cc3ccc(Br)cc3)C2)cc1[N-]C(=O)c1cnn2cccnc12

>  <Energy>  (38) 
148.40825252490416

>  <Genealogy>  (38) 
[NH-]C(=O)c1nn(C2CCCN(C(=O)C=Cc3ccc(Br)cc3)C2)cc1[N-]C(=O)c1cnn2cccnc12 (protonated)
[NH-]C(=O)c1nn([C@H]2CCCN(C(=O)C=Cc3ccc(Br)cc3)C2)cc1[N-]C(=O)c1cnn2cccnc12 (chirality)
[NH-]C(=O)c1nn([C@H]2CCCN(C(=O)C=Cc3ccc(Br)cc3)C2)cc1[N-]C(=O)c1cnn2cccnc12 (3D coordinates assigned)
[NH-]C(=O)c1nn([C@H]2CCCN(C(=O)C=Cc3ccc(Br)cc3)C2)cc1[N-]C(=O)c1cnn2cccnc12 (nonaromatic ring conformer: 148.40825252490416 kcal/mol)

>  <smiles>  (38) 
NC(=O)c1nn(C2CCCN(C(=O)C=Cc3ccc(Br)cc3)C2)cc1NC(=O)c1cnn2cccnc12

>  <score_type>  (38) 
oracle

>  <origin>  (38) 
adg

>  <m_score__min__energy>  (38) 
-14.9

>  <m_primary>  (38) 
energy

$$$$
38:0
     RDKit          3D

 44 47  0  0  1  0  0  0  0  0999 V2000
   55.6740   29.6290   44.8730 O   0  0  0  0  0  0  0  0  0  0  0  0
   57.0680   29.1030   44.5570 S   0  0  0  0  0  0  0  0  0  0  0  0
   57.1050   28.9910   43.0580 O   0  0  0  0  0  0  0  0  0  0  0  0
   57.2700   27.5230   45.3070 C   0  0  0  0  0  0  0  0  0  0  0  0
   58.4090   26.7660   45.1250 C   0  0  0  0  0  0  0  0  0  0  0  0
   58.4990   25.5180   45.7530 C   0  0  0  0  0  0  0  0  0  0  0  0
   57.4150   25.1370   46.5220 C   0  0  0  0  0  0  0  0  0  0  0  0
   57.4660   24.0100   47.1050 N   0  0  0  0  0  0  0  0  0  0  0  0
   56.5980   22.8930   46.8050 C   0  0  0  0  0  0  0  0  0  0  0  0
   56.5340   22.6900   45.3310 C   0  0  0  0  0  0  0  0  0  0  0  0
   57.4020   21.7280   44.8150 C   0  0  0  0  0  0  0  0  0  0  0  0
   57.4160   21.4650   43.4410 C   0  0  0  0  0  0  0  0  0  0  0  0
   56.5470   22.1850   42.6150 C   0  0  0  0  0  0  0  0  0  0  0  0
   55.6890   23.1430   43.1540 C   0  0  0  0  0  0  0  0  0  0  0  0
   55.6750   23.4050   44.5220 C   0  0  0  0  0  0  0  0  0  0  0  0
   56.3200   25.9060   46.6760 N   0  0  0  0  0  0  0  0  0  0  0  0
   56.2350   27.0980   46.0740 N   0  0  0  0  0  0  0  0  0  0  0  0
   58.2680   30.2110   45.1270 N   0  0  0  0  0  0  0  0  0  0  0  0
   59.5720   29.7760   45.5940 C   0  0  0  0  0  0  0  0  0  0  0  0
   59.9780   30.8400   46.5620 C   0  0  0  0  0  0  0  0  0  0  0  0
   59.2090   32.0200   46.0820 C   0  0  0  0  0  0  0  0  0  0  0  0
   59.3350   33.3720   46.3350 C   0  0  0  0  0  0  0  0  0  0  0  0
   58.4680   34.2580   45.7440 C   0  0  0  0  0  0  0  0  0  0  0  0
   57.4590   33.8920   44.8980 C   0  0  0  0  0  0  0  0  0  0  0  0
   57.3280   32.5260   44.6380 C   0  0  0  0  0  0  0  0  0  0  0  0
   58.1970   31.6290   45.2310 C   0  0  0  0  0  0  0  0  0  0  0  0
   59.2325   27.1368   44.4970 H   0  0  0  0  0  0  0  0  0  0  0  0
   59.3845   24.8751   45.6407 H   0  0  0  0  0  0  0  0  0  0  0  0
   56.9930   21.9842   47.2826 H   0  0  0  0  0  0  0  0  0  0  0  0
   55.5885   23.1024   47.1885 H   0  0  0  0  0  0  0  0  0  0  0  0
   58.0751   21.1765   45.4879 H   0  0  0  0  0  0  0  0  0  0  0  0
   58.0951   20.7090   43.0199 H   0  0  0  0  0  0  0  0  0  0  0  0
   56.5403   21.9941   41.5317 H   0  0  0  0  0  0  0  0  0  0  0  0
   55.0130   23.7003   42.4888 H   0  0  0  0  0  0  0  0  0  0  0  0
   54.9977   24.1612   44.9457 H   0  0  0  0  0  0  0  0  0  0  0  0
   55.5220   25.5880   47.2630 H   0  0  0  0  0  0  0  0  0  0  0  0
   59.5032   28.7981   46.0929 H   0  0  0  0  0  0  0  0  0  0  0  0
   60.2955   29.6474   44.7755 H   0  0  0  0  0  0  0  0  0  0  0  0
   59.6941   30.5716   47.5903 H   0  0  0  0  0  0  0  0  0  0  0  0
   61.0643   31.0090   46.5988 H   0  0  0  0  0  0  0  0  0  0  0  0
   60.1259   33.7373   47.0066 H   0  0  0  0  0  0  0  0  0  0  0  0
   58.5934   35.3282   45.9652 H   0  0  0  0  0  0  0  0  0  0  0  0
   56.7852   34.6345   44.4455 H   0  0  0  0  0  0  0  0  0  0  0  0
   56.5368   32.1654   43.9643 H   0  0  0  0  0  0  0  0  0  0  0  0
  1  2  2  0
  2  3  2  0
  2  4  1  0
  4  5  1  0
  5  6  2  0
  6  7  1  0
  7  8  2  0
  8  9  1  0
  9 10  1  0
 10 11  2  0
 11 12  1  0
 12 13  2  0
 13 14  1  0
 14 15  2  0
  7 16  1  0
 16 17  1  0
  2 18  1  0
 18 19  1  0
 19 20  1  0
 20 21  1  0
 21 22  2  0
 22 23  1  0
 23 24  2  0
 24 25  1  0
 25 26  2  0
 17  4  2  0
 26 18  1  0
 15 10  1  0
 26 21  1  0
  5 27  1  0
  6 28  1  0
  9 29  1  0
  9 30  1  0
 11 31  1  0
 12 32  1  0
 13 33  1  0
 14 34  1  0
 15 35  1  0
 16 36  1  0
 19 37  1  0
 19 38  1  0
 20 39  1  0
 20 40  1  0
 22 41  1  0
 23 42  1  0
 24 43  1  0
 25 44  1  0
M  END
>  <smiles>  (39) 
O=S(=O)(c1ccc(=NCc2ccccc2)[nH]n1)N1CCc2ccccc21

>  <score_type>  (39) 
oracle

>  <origin>  (39) 
adg

>  <m_score__min__energy>  (39) 
-9.3599999999999994

>  <m_primary>  (39) 
energy

$$$$
39:0
     RDKit          3D

 57 60  0  0  0  0  0  0  0  0999 V2000
   59.3380   31.4880   52.0040 N   0  0  0  0  0  0  0  0  0  0  0  0
   58.4410   30.7690   50.7110 S   0  0  0  0  0  0  0  0  0  0  0  0
   57.1450   30.2260   51.2450 O   0  0  0  0  0  0  0  0  0  0  0  0
   58.1470   31.8210   49.6810 O   0  0  0  0  0  0  0  0  0  0  0  0
   59.3510   29.4590   49.9670 C   0  0  0  0  0  0  0  0  0  0  0  0
   60.1350   28.5960   50.7470 C   0  0  0  0  0  0  0  0  0  0  0  0
   60.7960   27.5190   50.1510 C   0  0  0  0  0  0  0  0  0  0  0  0
   60.6960   27.3060   48.7750 C   0  0  0  0  0  0  0  0  0  0  0  0
   59.9530   28.1890   47.9740 C   0  0  0  0  0  0  0  0  0  0  0  0
   59.8650   28.0100   46.5130 C   0  0  0  0  0  0  0  0  0  0  0  0
   60.4940   27.0620   45.9670 O   0  0  0  0  0  0  0  0  0  0  0  0
   58.9870   28.8240   45.7230 N   0  0  0  0  0  0  0  0  0  0  0  0
   59.4360   30.1300   45.2340 C   0  0  0  0  0  0  0  0  0  0  0  0
   58.5800   30.6200   44.0600 C   0  0  0  0  0  0  0  0  0  0  0  0
   57.0620   30.5900   44.3940 C   0  0  0  0  0  0  0  0  0  0  0  0
   56.6400   31.7950   45.1290 N   0  0  0  0  0  0  0  0  0  0  0  0
   57.4950   33.2390   44.6490 S   0  0  0  0  0  0  0  0  0  0  0  0
   57.9620   33.0700   43.2300 O   0  0  0  0  0  0  0  0  0  0  0  0
   56.6230   34.4630   44.7450 O   0  0  0  0  0  0  0  0  0  0  0  0
   58.8940   33.4580   45.6870 C   0  0  0  0  0  0  0  0  0  0  0  0
   59.9800   34.2880   45.4430 C   0  0  0  0  0  0  0  0  0  0  0  0
   60.9550   34.2360   46.3990 N   0  0  0  0  0  0  0  0  0  0  0  0
   60.6260   33.3820   47.3980 C   0  0  0  0  0  0  0  0  0  0  0  0
   61.4850   33.1020   48.5230 N   0  0  0  0  0  0  0  0  0  0  0  0
   62.7760   32.4240   48.3450 C   0  0  0  0  0  0  0  0  0  0  0  0
   62.9840   31.3660   49.4580 C   0  0  0  0  0  0  0  0  0  0  0  0
   62.1880   31.5520   50.6210 O   0  0  0  0  0  0  0  0  0  0  0  0
   62.0340   32.9260   50.9160 C   0  0  0  0  0  0  0  0  0  0  0  0
   61.1260   33.5680   49.8640 C   0  0  0  0  0  0  0  0  0  0  0  0
   59.1360   32.6450   47.1310 S   0  0  0  0  0  0  0  0  0  0  0  0
   56.6480   29.3360   45.2170 C   0  0  0  0  0  0  0  0  0  0  0  0
   57.7210   28.2470   45.2470 C   0  0  0  0  0  0  0  0  0  0  0  0
   59.2950   29.2740   48.5770 C   0  0  0  0  0  0  0  0  0  0  0  0
   60.3530   31.4030   51.7640 H   0  0  0  0  0  0  0  0  0  0  0  0
   60.2295   28.7675   51.8294 H   0  0  0  0  0  0  0  0  0  0  0  0
   61.3977   26.8360   50.7686 H   0  0  0  0  0  0  0  0  0  0  0  0
   61.2010   26.4432   48.3161 H   0  0  0  0  0  0  0  0  0  0  0  0
   59.3684   30.8603   46.0538 H   0  0  0  0  0  0  0  0  0  0  0  0
   60.4734   30.0270   44.8829 H   0  0  0  0  0  0  0  0  0  0  0  0
   58.8696   31.6527   43.8160 H   0  0  0  0  0  0  0  0  0  0  0  0
   58.7539   29.9462   43.2081 H   0  0  0  0  0  0  0  0  0  0  0  0
   56.5537   30.5524   43.4192 H   0  0  0  0  0  0  0  0  0  0  0  0
   56.7640   31.6600   46.1610 H   0  0  0  0  0  0  0  0  0  0  0  0
   60.0497   34.9332   44.5548 H   0  0  0  0  0  0  0  0  0  0  0  0
   62.7930   31.9270   47.3638 H   0  0  0  0  0  0  0  0  0  0  0  0
   63.5832   33.1690   48.4032 H   0  0  0  0  0  0  0  0  0  0  0  0
   62.7476   30.3775   49.0374 H   0  0  0  0  0  0  0  0  0  0  0  0
   64.0303   31.4639   49.7831 H   0  0  0  0  0  0  0  0  0  0  0  0
   61.5810   33.0399   51.9119 H   0  0  0  0  0  0  0  0  0  0  0  0
   63.0174   33.4187   50.9056 H   0  0  0  0  0  0  0  0  0  0  0  0
   60.0809   33.2965   50.0738 H   0  0  0  0  0  0  0  0  0  0  0  0
   61.2500   34.6602   49.9060 H   0  0  0  0  0  0  0  0  0  0  0  0
   56.4413   29.6502   46.2507 H   0  0  0  0  0  0  0  0  0  0  0  0
   55.7620   28.9050   44.7279 H   0  0  0  0  0  0  0  0  0  0  0  0
   57.4068   27.4404   45.9257 H   0  0  0  0  0  0  0  0  0  0  0  0
   57.8599   27.8390   44.2349 H   0  0  0  0  0  0  0  0  0  0  0  0
   58.7313   29.9844   47.9545 H   0  0  0  0  0  0  0  0  0  0  0  0
  1  2  1  0
  2  3  2  0
  2  4  2  0
  2  5  1  0
  5  6  2  0
  6  7  1  0
  7  8  2  0
  8  9  1  0
  9 10  1  0
 10 11  2  0
 10 12  1  0
 12 13  1  0
 13 14  1  0
 14 15  1  0
 15 16  1  0
 16 17  1  0
 17 18  2  0
 17 19  2  0
 17 20  1  0
 20 21  2  0
 21 22  1  0
 22 23  2  0
 23 24  1  0
 24 25  1  0
 25 26  1  0
 26 27  1  0
 27 28  1  0
 28 29  1  0
 23 30  1  0
 15 31  1  0
 31 32  1  0
  9 33  2  0
 33  5  1  0
 32 12  1  0
 30 20  1  0
 29 24  1  0
  1 34  1  0
  6 35  1  0
  7 36  1  0
  8 37  1  0
 13 38  1  0
 13 39  1  0
 14 40  1  0
 14 41  1  0
 15 42  1  0
 16 43  1  0
 21 44  1  0
 25 45  1  0
 25 46  1  0
 26 47  1  0
 26 48  1  0
 28 49  1  0
 28 50  1  0
 29 51  1  0
 29 52  1  0
 31 53  1  0
 31 54  1  0
 32 55  1  0
 32 56  1  0
 33 57  1  0
M  CHG  1   1  -1
M  END
>  <UniqueID>  (40) 
39

>  <SMILES>  (40) 
[NH-]S(=O)(=O)c1cccc(C(=O)N2CCC(NS(=O)(=O)c3cnc(N4CCOCC4)s3)CC2)c1

>  <Energy>  (40) 
112.24249664998989

>  <Genealogy>  (40) 
[NH-]S(=O)(=O)c1cccc(C(=O)N2CCC(NS(=O)(=O)c3cnc(N4CCOCC4)s3)CC2)c1 (protonated)
[NH-]S(=O)(=O)c1cccc(C(=O)N2CCC(NS(=O)(=O)c3cnc(N4CCOCC4)s3)CC2)c1 (3D coordinates assigned)
[NH-]S(=O)(=O)c1cccc(C(=O)N2CCC(NS(=O)(=O)c3cnc(N4CCOCC4)s3)CC2)c1 (nonaromatic ring conformer: 112.24249664998989 kcal/mol)

>  <smiles>  (40) 
NS(=O)(=O)c1cccc(C(=O)N2CCC(NS(=O)(=O)c3cnc(N4CCOCC4)s3)CC2)c1

>  <score_type>  (40) 
oracle

>  <origin>  (40) 
adg

>  <m_score__min__energy>  (40) 
-13.380000000000001

>  <m_primary>  (40) 
energy

$$$$
40:0
     RDKit          3D

 41 43  0  0  1  0  0  0  0  0999 V2000
   63.7480   34.2170   50.1480 N   0  0  0  0  0  0  0  0  0  0  0  0
   63.1590   33.2690   49.7980 C   0  0  0  0  0  0  0  0  0  0  0  0
   62.4370   32.1070   49.3430 C   0  0  0  0  0  0  0  0  0  0  0  0
   61.8550   31.2030   50.1890 C   0  0  0  0  0  0  0  0  0  0  0  0
   61.1660   30.0940   49.7320 C   0  0  0  0  0  0  0  0  0  0  0  0
   61.0820   29.9260   48.3670 C   0  0  0  0  0  0  0  0  0  0  0  0
   60.4050   28.8300   47.7560 N   0  0  0  0  0  0  0  0  0  0  0  0
   59.4870   28.9460   46.8640 C   0  0  0  0  0  0  0  0  0  0  0  0
   59.1240   27.8660   46.1380 N   0  0  0  0  0  0  0  0  0  0  0  0
   58.1630   27.9840   45.2030 C   0  0  0  0  0  0  0  0  0  0  0  0
   57.8020   26.8350   44.4550 N   0  0  0  0  0  0  0  0  0  0  0  0
   57.5820   29.2230   45.0270 C   0  0  0  0  0  0  0  0  0  0  0  0
   56.5350   29.3640   44.0140 C   0  0  0  0  0  0  0  0  0  0  0  0
   56.8050   28.9910   42.6560 N   0  0  0  0  0  0  0  0  0  0  0  0
   55.4030   29.8100   44.3350 O   0  0  0  0  0  0  0  0  0  0  0  0
   57.9620   30.3120   45.7740 C   0  0  0  0  0  0  0  0  0  0  0  0
   57.3910   31.4260   45.5660 N   0  0  0  0  0  0  0  0  0  0  0  0
   58.0950   32.6570   45.6720 C   0  0  0  0  0  0  0  0  0  0  0  0
   58.3390   33.4860   44.5980 C   0  0  0  0  0  0  0  0  0  0  0  0
   59.0370   34.6490   44.8580 C   0  0  0  0  0  0  0  0  0  0  0  0
   59.4810   34.9940   46.1200 C   0  0  0  0  0  0  0  0  0  0  0  0
   59.2320   34.1610   47.1810 C   0  0  0  0  0  0  0  0  0  0  0  0
   59.7720   34.5490   48.7960 Cl  0  0  0  0  0  0  0  0  0  0  0  0
   58.5450   33.0060   46.9500 C   0  0  0  0  0  0  0  0  0  0  0  0
   58.9250   30.1600   46.6990 N   0  0  0  0  0  0  0  0  0  0  0  0
   61.6760   30.8490   47.4980 C   0  0  0  0  0  0  0  0  0  0  0  0
   62.3590   31.9470   47.9630 C   0  0  0  0  0  0  0  0  0  0  0  0
   61.9381   31.3642   51.2739 H   0  0  0  0  0  0  0  0  0  0  0  0
   60.7053   29.3775   50.4279 H   0  0  0  0  0  0  0  0  0  0  0  0
   59.5740   26.9440   46.2870 H   0  0  0  0  0  0  0  0  0  0  0  0
   58.3720   25.9450   44.5750 H   0  0  0  0  0  0  0  0  0  0  0  0
   56.9780   26.8710   43.7930 H   0  0  0  0  0  0  0  0  0  0  0  0
   56.5140   28.0720   42.2560 H   0  0  0  0  0  0  0  0  0  0  0  0
   57.3160   29.6910   42.0650 H   0  0  0  0  0  0  0  0  0  0  0  0
   57.9948   33.2337   43.5841 H   0  0  0  0  0  0  0  0  0  0  0  0
   59.2491   35.3318   44.0221 H   0  0  0  0  0  0  0  0  0  0  0  0
   60.0323   35.9334   46.2734 H   0  0  0  0  0  0  0  0  0  0  0  0
   58.3387   32.3294   47.7924 H   0  0  0  0  0  0  0  0  0  0  0  0
   59.2090   30.9690   47.2550 H   0  0  0  0  0  0  0  0  0  0  0  0
   61.5937   30.6909   46.4125 H   0  0  0  0  0  0  0  0  0  0  0  0
   62.8238   32.6679   47.2744 H   0  0  0  0  0  0  0  0  0  0  0  0
  1  2  3  0
  2  3  1  0
  3  4  2  0
  4  5  1  0
  5  6  2  0
  6  7  1  0
  7  8  2  0
  8  9  1  0
  9 10  1  0
 10 11  1  0
 10 12  2  0
 12 13  1  0
 13 14  1  0
 13 15  2  0
 12 16  1  0
 16 17  2  0
 17 18  1  0
 18 19  2  0
 19 20  1  0
 20 21  2  0
 21 22  1  0
 22 23  1  0
 22 24  2  0
 16 25  1  0
  6 26  1  0
 26 27  2  0
 27  3  1  0
 25  8  1  0
 24 18  1  0
  4 28  1  0
  5 29  1  0
  9 30  1  0
 11 31  1  0
 11 32  1  0
 14 33  1  0
 14 34  1  0
 19 35  1  0
 20 36  1  0
 21 37  1  0
 24 38  1  0
 25 39  1  0
 26 40  1  0
 27 41  1  0
M  END
>  <smiles>  (41) 
N#Cc1ccc(N=c2[nH]c(N)c(C(N)=O)c(=Nc3cccc(Cl)c3)[nH]2)cc1

>  <score_type>  (41) 
oracle

>  <origin>  (41) 
adg

>  <m_score__min__energy>  (41) 
-8.4199999999999999

>  <m_primary>  (41) 
energy

$$$$
41:0
     RDKit          3D

 46 47  0  0  0  0  0  0  0  0999 V2000
   58.4000   29.0850   48.8520 O   0  0  0  0  0  0  0  0  0  0  0  0
   59.6370   29.3290   48.8600 C   0  0  0  0  0  0  0  0  0  0  0  0
   60.6120   28.2490   48.5240 C   0  0  0  0  0  0  0  0  0  0  0  0
   59.8820   27.0140   48.2510 N   0  0  0  0  0  0  0  0  0  0  0  0
   59.8540   26.7010   46.5410 S   0  0  0  0  0  0  0  0  0  0  0  0
   61.2640   26.6840   46.0190 O   0  0  0  0  0  0  0  0  0  0  0  0
   59.2210   25.3570   46.3150 O   0  0  0  0  0  0  0  0  0  0  0  0
   58.9040   27.9390   45.6910 C   0  0  0  0  0  0  0  0  0  0  0  0
   59.5980   28.9370   44.9900 C   0  0  0  0  0  0  0  0  0  0  0  0
   58.9140   29.9090   44.2670 C   0  0  0  0  0  0  0  0  0  0  0  0
   57.5250   29.9010   44.2310 C   0  0  0  0  0  0  0  0  0  0  0  0
   56.7980   28.9340   44.9320 C   0  0  0  0  0  0  0  0  0  0  0  0
   55.4050   28.9800   44.8250 O   0  0  0  0  0  0  0  0  0  0  0  0
   57.4790   27.9540   45.7060 C   0  0  0  0  0  0  0  0  0  0  0  0
   56.6950   26.9290   46.4980 C   0  0  0  0  0  0  0  0  0  0  0  0
   55.4240   26.7460   45.9370 O   0  0  0  0  0  0  0  0  0  0  0  0
   60.1130   30.5980   49.2020 O   0  0  0  0  0  0  0  0  0  0  0  0
   60.2750   31.6420   48.2470 C   0  0  0  0  0  0  0  0  0  0  0  0
   59.0860   31.6400   47.2880 C   0  0  0  0  0  0  0  0  0  0  0  0
   58.3220   32.9010   47.4270 N   0  0  0  0  0  0  0  0  0  0  0  0
   59.2060   34.0740   47.5770 C   0  0  0  0  0  0  0  0  0  0  0  0
   59.9370   34.4130   46.2550 C   0  0  0  0  0  0  0  0  0  0  0  0
   59.3560   33.7890   45.1210 O   0  0  0  0  0  0  0  0  0  0  0  0
   57.9520   33.9280   45.1590 C   0  0  0  0  0  0  0  0  0  0  0  0
   57.3550   33.1050   46.3200 C   0  0  0  0  0  0  0  0  0  0  0  0
   61.1908   28.5390   47.6347 H   0  0  0  0  0  0  0  0  0  0  0  0
   61.2992   28.0942   49.3689 H   0  0  0  0  0  0  0  0  0  0  0  0
   60.6977   28.9510   45.0125 H   0  0  0  0  0  0  0  0  0  0  0  0
   59.4733   30.6846   43.7233 H   0  0  0  0  0  0  0  0  0  0  0  0
   56.9916   30.6637   43.6447 H   0  0  0  0  0  0  0  0  0  0  0  0
   54.7710   28.8630   45.6030 H   0  0  0  0  0  0  0  0  0  0  0  0
   57.2367   25.9717   46.4882 H   0  0  0  0  0  0  0  0  0  0  0  0
   56.5805   27.2880   47.5314 H   0  0  0  0  0  0  0  0  0  0  0  0
   55.5350   26.8120   44.9530 H   0  0  0  0  0  0  0  0  0  0  0  0
   60.3260   32.6102   48.7666 H   0  0  0  0  0  0  0  0  0  0  0  0
   61.2044   31.4817   47.6809 H   0  0  0  0  0  0  0  0  0  0  0  0
   59.4515   31.5474   46.2546 H   0  0  0  0  0  0  0  0  0  0  0  0
   58.4291   30.7911   47.5285 H   0  0  0  0  0  0  0  0  0  0  0  0
   58.6003   34.9402   47.8817 H   0  0  0  0  0  0  0  0  0  0  0  0
   59.9648   33.8365   48.3372 H   0  0  0  0  0  0  0  0  0  0  0  0
   59.9074   35.5028   46.1083 H   0  0  0  0  0  0  0  0  0  0  0  0
   60.9668   34.0368   46.3443 H   0  0  0  0  0  0  0  0  0  0  0  0
   57.6976   34.9889   45.2999 H   0  0  0  0  0  0  0  0  0  0  0  0
   57.5337   33.5585   44.2111 H   0  0  0  0  0  0  0  0  0  0  0  0
   56.4754   33.6358   46.7131 H   0  0  0  0  0  0  0  0  0  0  0  0
   57.0857   32.1146   45.9242 H   0  0  0  0  0  0  0  0  0  0  0  0
  1  2  2  0
  2  3  1  0
  3  4  1  0
  4  5  1  0
  5  6  2  0
  5  7  2  0
  5  8  1  0
  8  9  2  0
  9 10  1  0
 10 11  2  0
 11 12  1  0
 12 13  1  0
 12 14  2  0
 14 15  1  0
 15 16  1  0
  2 17  1  0
 17 18  1  0
 18 19  1  0
 19 20  1  0
 20 21  1  0
 21 22  1  0
 22 23  1  0
 23 24  1  0
 24 25  1  0
 14  8  1  0
 25 20  1  0
  3 26  1  0
  3 27  1  0
  9 28  1  0
 10 29  1  0
 11 30  1  0
 13 31  1  0
 15 32  1  0
 15 33  1  0
 16 34  1  0
 18 35  1  0
 18 36  1  0
 19 37  1  0
 19 38  1  0
 21 39  1  0
 21 40  1  0
 22 41  1  0
 22 42  1  0
 24 43  1  0
 24 44  1  0
 25 45  1  0
 25 46  1  0
M  CHG  1   4  -1
M  END
>  <UniqueID>  (42) 
40

>  <SMILES>  (42) 
O=C(C[N-]S(=O)(=O)c1cccc(O)c1CO)OCCN1CCOCC1

>  <Energy>  (42) 
55.53477876755579

>  <Genealogy>  (42) 
O=C(C[N-]S(=O)(=O)c1cccc(O)c1CO)OCCN1CCOCC1 (protonated)
O=C(C[N-]S(=O)(=O)c1cccc(O)c1CO)OCCN1CCOCC1 (3D coordinates assigned)
O=C(C[N-]S(=O)(=O)c1cccc(O)c1CO)OCCN1CCOCC1 (nonaromatic ring conformer: 55.53477876755579 kcal/mol)

>  <smiles>  (42) 
O=C(CNS(=O)(=O)c1cccc(O)c1CO)OCCN1CCOCC1

>  <score_type>  (42) 
oracle

>  <origin>  (42) 
adg

>  <m_score__min__energy>  (42) 
-9.1099999999999994

>  <m_primary>  (42) 
energy

$$$$
42:0
     RDKit          3D

 45 47  0  0  0  0  0  0  0  0999 V2000
   59.5470   31.5440   45.5760 H   0  0  0  0  0  0  0  0  0  0  0  0
   59.9270   30.7990   46.1460 O   0  0  0  0  0  0  0  0  0  0  0  0
   59.1660   29.6710   46.4440 C   0  0  0  0  0  0  0  0  0  0  0  0
   59.2480   28.9150   47.5930 C   0  0  0  0  0  0  0  0  0  0  0  0
   59.9384   29.0961   48.4300 H   0  0  0  0  0  0  0  0  0  0  0  0
   58.3430   27.9160   47.5240 N   0  0  0  0  0  0  0  0  0  0  0  0
   57.7360   28.0990   46.3270 C   0  0  0  0  0  0  0  0  0  0  0  0
   56.7750   27.3460   45.8750 N   0  0  0  0  0  0  0  0  0  0  0  0
   56.4180   26.0430   46.3590 C   0  0  0  0  0  0  0  0  0  0  0  0
   55.2190   25.6530   46.3650 O   0  0  0  0  0  0  0  0  0  0  0  0
   57.4880   25.1200   46.8340 C   0  0  0  0  0  0  0  0  0  0  0  0
   57.5010   25.1088   47.9339 H   0  0  0  0  0  0  0  0  0  0  0  0
   57.2896   24.1050   46.4593 H   0  0  0  0  0  0  0  0  0  0  0  0
   58.4629   25.4651   46.4593 H   0  0  0  0  0  0  0  0  0  0  0  0
   58.2250   29.1540   45.6380 N   0  0  0  0  0  0  0  0  0  0  0  0
   57.7800   29.6700   44.3450 C   0  0  0  0  0  0  0  0  0  0  0  0
   57.7262   28.8431   43.6215 H   0  0  0  0  0  0  0  0  0  0  0  0
   58.4954   30.4275   43.9923 H   0  0  0  0  0  0  0  0  0  0  0  0
   56.4210   30.3000   44.4840 C   0  0  0  0  0  0  0  0  0  0  0  0
   55.4000   29.5640   44.4330 O   0  0  0  0  0  0  0  0  0  0  0  0
   56.2620   31.6730   44.8710 N   0  0  0  0  0  0  0  0  0  0  0  0
   57.2110   32.5030   45.1900 C   0  0  0  0  0  0  0  0  0  0  0  0
   58.2200   32.7940   44.3410 N   0  0  0  0  0  0  0  0  0  0  0  0
   59.1240   33.6420   44.9000 C   0  0  0  0  0  0  0  0  0  0  0  0
   60.0146   33.9985   44.3616 H   0  0  0  0  0  0  0  0  0  0  0  0
   58.8340   34.0240   46.2080 C   0  0  0  0  0  0  0  0  0  0  0  0
   59.6730   34.9130   47.0720 C   0  0  0  0  0  0  0  0  0  0  0  0
   59.0756   35.2530   47.9308 H   0  0  0  0  0  0  0  0  0  0  0  0
   60.0063   35.7772   46.4786 H   0  0  0  0  0  0  0  0  0  0  0  0
   60.8840   34.1660   47.5730 C   0  0  0  0  0  0  0  0  0  0  0  0
   61.9090   33.8230   46.6730 C   0  0  0  0  0  0  0  0  0  0  0  0
   61.8133   34.0867   45.6094 H   0  0  0  0  0  0  0  0  0  0  0  0
   63.0470   33.1500   47.1210 C   0  0  0  0  0  0  0  0  0  0  0  0
   63.8412   32.8798   46.4095 H   0  0  0  0  0  0  0  0  0  0  0  0
   63.1780   32.8200   48.4690 C   0  0  0  0  0  0  0  0  0  0  0  0
   64.0771   32.2917   48.8192 H   0  0  0  0  0  0  0  0  0  0  0  0
   62.1710   33.1580   49.3770 C   0  0  0  0  0  0  0  0  0  0  0  0
   62.2811   32.8934   50.4390 H   0  0  0  0  0  0  0  0  0  0  0  0
   61.0150   33.8360   48.9400 C   0  0  0  0  0  0  0  0  0  0  0  0
   59.9890   34.1980   49.8290 O   0  0  0  0  0  0  0  0  0  0  0  0
   59.3800   33.3150   50.7660 C   0  0  0  0  0  0  0  0  0  0  0  0
   59.6106   33.6493   51.7883 H   0  0  0  0  0  0  0  0  0  0  0  0
   58.2902   33.3168   50.6167 H   0  0  0  0  0  0  0  0  0  0  0  0
   59.7689   32.2969   50.6167 H   0  0  0  0  0  0  0  0  0  0  0  0
   57.4110   33.2640   46.6850 S   0  0  0  0  0  0  0  0  0  0  0  0
  1  2  1  0
  2  3  1  0
  3  4  2  0
  4  5  1  0
  4  6  1  0
  6  7  1  0
  7  8  2  3
  8  9  1  0
  9 10  2  0
  9 11  1  0
 11 12  1  0
 11 13  1  0
 11 14  1  0
  7 15  1  0
 15 16  1  0
 16 17  1  0
 16 18  1  0
 16 19  1  0
 19 20  2  0
 19 21  1  0
 21 22  2  0
 22 23  1  0
 23 24  1  0
 24 25  1  0
 24 26  2  0
 26 27  1  0
 27 28  1  0
 27 29  1  0
 27 30  1  0
 30 31  2  0
 31 32  1  0
 31 33  1  0
 33 34  1  0
 33 35  2  0
 35 36  1  0
 35 37  1  0
 37 38  1  0
 37 39  2  0
 39 40  1  0
 40 41  1  0
 41 42  1  0
 41 43  1  0
 41 44  1  0
 26 45  1  0
 15  3  1  0
 45 22  1  0
 39 30  1  0
M  CHG  2   6  -1  23  -1
M  END
>  <UniqueID>  (43) 
41

>  <SMILES>  (43) 
COc1ccccc1Cc1c[n-]/c(=N/C(=O)Cn2c(O)c[n-]c2=NC(C)=O)s1

>  <Energy>  (43) 
112.10367881151709

>  <Genealogy>  (43) 
COc1ccccc1Cc1c[n-]c(=NC(=O)Cn2c(O)c[n-]c2=NC(C)=O)s1 (protonated)
COc1ccccc1Cc1c[n-]/c(=N/C(=O)Cn2c(O)c[n-]c2=NC(C)=O)s1 (cis-trans isomerization)
COc1ccccc1Cc1c[n-]/c(=N/C(=O)Cn2c(O)c[n-]c2=NC(C)=O)s1 (3D coordinates assigned)
COc1ccccc1Cc1c[n-]/c(=N/C(=O)Cn2c(O)c[n-]c2=NC(C)=O)s1 (optimized conformer: 112.10367881151709 kcal/mol)

>  <smiles>  (43) 
COc1ccccc1Cc1c[nH]c(=NC(=O)Cn2c(O)c[nH]c2=NC(C)=O)s1

>  <score_type>  (43) 
oracle

>  <origin>  (43) 
adg

>  <m_score__min__energy>  (43) 
-11.48

>  <m_primary>  (43) 
energy

$$$$
43:0
     RDKit          3D

 38 40  0  0  0  0  0  0  0  0999 V2000
   60.4520   30.2600   48.5360 H   0  0  0  0  0  0  0  0  0  0  0  0
   61.4470   30.4340   48.4500 O   0  0  0  0  0  0  0  0  0  0  0  0
   61.9340   31.6200   47.9010 C   0  0  0  0  0  0  0  0  0  0  0  0
   63.3040   31.7770   47.6510 C   0  0  0  0  0  0  0  0  0  0  0  0
   64.0047   30.9645   47.8937 H   0  0  0  0  0  0  0  0  0  0  0  0
   63.7780   32.9650   47.0940 C   0  0  0  0  0  0  0  0  0  0  0  0
   64.8514   33.0942   46.8910 H   0  0  0  0  0  0  0  0  0  0  0  0
   62.8760   33.9880   46.7970 C   0  0  0  0  0  0  0  0  0  0  0  0
   63.2384   34.9327   46.3654 H   0  0  0  0  0  0  0  0  0  0  0  0
   61.5500   33.8170   47.0410 N   0  0  0  0  0  0  0  0  0  0  0  0
   61.0550   32.6630   47.5750 C   0  0  0  0  0  0  0  0  0  0  0  0
   59.7770   32.5140   47.7790 N   0  0  0  0  0  0  0  0  0  0  0  0
   58.9070   31.5940   47.0990 C   0  0  0  0  0  0  0  0  0  0  0  0
   58.4640   30.6050   47.7410 O   0  0  0  0  0  0  0  0  0  0  0  0
   58.5590   31.7330   45.6590 C   0  0  0  0  0  0  0  0  0  0  0  0
   58.5710   33.0110   45.0740 C   0  0  0  0  0  0  0  0  0  0  0  0
   58.8458   33.8854   45.6822 H   0  0  0  0  0  0  0  0  0  0  0  0
   58.2380   33.1820   43.7300 C   0  0  0  0  0  0  0  0  0  0  0  0
   58.2641   34.1860   43.2814 H   0  0  0  0  0  0  0  0  0  0  0  0
   57.8720   32.0820   42.9540 C   0  0  0  0  0  0  0  0  0  0  0  0
   57.3940   32.3220   41.1200 Br  0  0  0  0  0  0  0  0  0  0  0  0
   57.8400   30.8060   43.5220 C   0  0  0  0  0  0  0  0  0  0  0  0
   57.5400   29.9427   42.9098 H   0  0  0  0  0  0  0  0  0  0  0  0
   58.1890   30.6180   44.8720 C   0  0  0  0  0  0  0  0  0  0  0  0
   58.1310   29.3450   45.4600 O   0  0  0  0  0  0  0  0  0  0  0  0
   57.0160   28.4950   45.4380 C   0  0  0  0  0  0  0  0  0  0  0  0
   55.8820   28.9450   45.1140 O   0  0  0  0  0  0  0  0  0  0  0  0
   57.1840   27.0440   45.7010 C   0  0  0  0  0  0  0  0  0  0  0  0
   58.4740   26.4790   45.6960 C   0  0  0  0  0  0  0  0  0  0  0  0
   59.3444   27.1117   45.4677 H   0  0  0  0  0  0  0  0  0  0  0  0
   58.6600   25.1230   45.9780 C   0  0  0  0  0  0  0  0  0  0  0  0
   59.6731   24.6946   45.9696 H   0  0  0  0  0  0  0  0  0  0  0  0
   57.5640   24.3120   46.2700 C   0  0  0  0  0  0  0  0  0  0  0  0
   57.7131   23.2456   46.4948 H   0  0  0  0  0  0  0  0  0  0  0  0
   56.2770   24.8540   46.2770 C   0  0  0  0  0  0  0  0  0  0  0  0
   55.4142   24.2114   46.5064 H   0  0  0  0  0  0  0  0  0  0  0  0
   56.0790   26.2090   45.9940 C   0  0  0  0  0  0  0  0  0  0  0  0
   54.7800   26.7080   46.0070 O   0  0  0  0  0  0  0  0  0  0  0  0
  1  2  1  0
  2  3  1  0
  3  4  2  0
  4  5  1  0
  4  6  1  0
  6  7  1  0
  6  8  2  0
  8  9  1  0
  8 10  1  0
 10 11  1  0
 11 12  2  0
 12 13  1  0
 13 14  2  0
 13 15  1  0
 15 16  2  0
 16 17  1  0
 16 18  1  0
 18 19  1  0
 18 20  2  0
 20 21  1  0
 20 22  1  0
 22 23  1  0
 22 24  2  0
 24 25  1  0
 25 26  1  0
 26 27  2  0
 26 28  1  0
 28 29  2  0
 29 30  1  0
 29 31  1  0
 31 32  1  0
 31 33  2  0
 33 34  1  0
 33 35  1  0
 35 36  1  0
 35 37  2  0
 37 38  1  0
 11  3  1  0
 24 15  1  0
 37 28  1  0
M  CHG  2  10  -1  38  -1
M  END
>  <UniqueID>  (44) 
42

>  <SMILES>  (44) 
O=C(Oc1cc(Br)ccc1C(=O)/N=c1\[n-]cccc1O)c1ccccc1[O-]

>  <Energy>  (44) 
54.72756816945862

>  <Genealogy>  (44) 
O=C(Oc1cc(Br)ccc1C(=O)N=c1[n-]cccc1O)c1ccccc1[O-] (protonated)
O=C(Oc1cc(Br)ccc1C(=O)/N=c1\[n-]cccc1O)c1ccccc1[O-] (cis-trans isomerization)
O=C(Oc1cc(Br)ccc1C(=O)/N=c1\[n-]cccc1O)c1ccccc1[O-] (3D coordinates assigned)
O=C(Oc1cc(Br)ccc1C(=O)/N=c1\[n-]cccc1O)c1ccccc1[O-] (optimized conformer: 54.72756816945862 kcal/mol)

>  <smiles>  (44) 
O=C(Oc1cc(Br)ccc1C(=O)N=c1[nH]cccc1O)c1ccccc1O

>  <score_type>  (44) 
oracle

>  <origin>  (44) 
adg

>  <m_score__min__energy>  (44) 
-13.23

>  <m_primary>  (44) 
energy

$$$$
44:0
     RDKit          3D

 63 67  0  0  0  0  0  0  0  0999 V2000
   58.3310   22.8831   45.3021 H   0  0  0  0  0  0  0  0  0  0  0  0
   57.5270   23.6270   45.4030 C   0  0  0  0  0  0  0  0  0  0  0  0
   57.7460   24.7740   46.0970 N   0  0  0  0  0  0  0  0  0  0  0  0
   56.7900   25.7330   46.2580 C   0  0  0  0  0  0  0  0  0  0  0  0
   57.1310   26.8170   46.9050 N   0  0  0  0  0  0  0  0  0  0  0  0
   58.3550   27.5670   46.8630 C   0  0  0  0  0  0  0  0  0  0  0  0
   59.4150   27.0740   47.3430 O   0  0  0  0  0  0  0  0  0  0  0  0
   58.3430   28.9770   46.4040 C   0  0  0  0  0  0  0  0  0  0  0  0
   59.1810   29.9350   47.0010 C   0  0  0  0  0  0  0  0  0  0  0  0
   59.8340   29.6437   47.8369 H   0  0  0  0  0  0  0  0  0  0  0  0
   59.1910   31.2540   46.5410 C   0  0  0  0  0  0  0  0  0  0  0  0
   59.8516   31.9932   47.0175 H   0  0  0  0  0  0  0  0  0  0  0  0
   58.3650   31.6430   45.4760 C   0  0  0  0  0  0  0  0  0  0  0  0
   58.4120   33.0560   44.9660 C   0  0  0  0  0  0  0  0  0  0  0  0
   59.3098   33.1906   44.3448 H   0  0  0  0  0  0  0  0  0  0  0  0
   57.5127   33.2559   44.3649 H   0  0  0  0  0  0  0  0  0  0  0  0
   58.4570   33.9860   46.0920 N   0  0  0  0  0  0  0  0  0  0  0  0
   59.6150   34.7300   46.4880 C   0  0  0  0  0  0  0  0  0  0  0  0
   59.6240   35.9750   46.3120 O   0  0  0  0  0  0  0  0  0  0  0  0
   60.8130   34.0740   47.0500 C   0  0  0  0  0  0  0  0  0  0  0  0
   60.9280   33.3150   48.5520 S   0  0  0  0  0  0  0  0  0  0  0  0
   62.5260   32.7940   48.3860 C   0  0  0  0  0  0  0  0  0  0  0  0
   63.3160   32.0950   49.4300 C   0  0  0  0  0  0  0  0  0  0  0  0
   64.6170   32.5210   49.7480 C   0  0  0  0  0  0  0  0  0  0  0  0
   65.0758   33.3450   49.1819 H   0  0  0  0  0  0  0  0  0  0  0  0
   65.3310   31.9050   50.7780 C   0  0  0  0  0  0  0  0  0  0  0  0
   66.3448   32.2533   51.0247 H   0  0  0  0  0  0  0  0  0  0  0  0
   64.7670   30.8520   51.4950 C   0  0  0  0  0  0  0  0  0  0  0  0
   65.3301   30.3861   52.3171 H   0  0  0  0  0  0  0  0  0  0  0  0
   63.4820   30.3820   51.1730 C   0  0  0  0  0  0  0  0  0  0  0  0
   62.8850   29.2420   51.9140 C   0  0  0  0  0  0  0  0  0  0  0  0
   63.5440   28.1760   52.0540 O   0  0  0  0  0  0  0  0  0  0  0  0
   61.5630   29.3090   52.4690 N   0  0  0  0  0  0  0  0  0  0  0  0
   60.4540   30.0240   51.9030 C   0  0  0  0  0  0  0  0  0  0  0  0
   59.6590   29.3920   50.9390 C   0  0  0  0  0  0  0  0  0  0  0  0
   59.8842   28.3601   50.6315 H   0  0  0  0  0  0  0  0  0  0  0  0
   58.5830   30.0690   50.3690 C   0  0  0  0  0  0  0  0  0  0  0  0
   57.9726   29.5757   49.5982 H   0  0  0  0  0  0  0  0  0  0  0  0
   58.2750   31.3710   50.7710 C   0  0  0  0  0  0  0  0  0  0  0  0
   57.4344   31.9032   50.3017 H   0  0  0  0  0  0  0  0  0  0  0  0
   59.0310   32.0050   51.7700 C   0  0  0  0  0  0  0  0  0  0  0  0
   58.6920   33.4170   52.1840 C   0  0  0  0  0  0  0  0  0  0  0  0
   59.1220   34.3130   51.2170 F   0  0  0  0  0  0  0  0  0  0  0  0
   59.3210   33.7080   53.3810 F   0  0  0  0  0  0  0  0  0  0  0  0
   57.3240   33.5760   52.3420 F   0  0  0  0  0  0  0  0  0  0  0  0
   60.1310   31.3270   52.3230 C   0  0  0  0  0  0  0  0  0  0  0  0
   60.7449   31.8199   53.0913 H   0  0  0  0  0  0  0  0  0  0  0  0
   62.7560   31.0250   50.1520 C   0  0  0  0  0  0  0  0  0  0  0  0
   61.7366   30.6860   49.9155 H   0  0  0  0  0  0  0  0  0  0  0  0
   62.9740   33.1900   47.1250 C   0  0  0  0  0  0  0  0  0  0  0  0
   63.9837   32.9678   46.7493 H   0  0  0  0  0  0  0  0  0  0  0  0
   62.0190   33.8970   46.3810 C   0  0  0  0  0  0  0  0  0  0  0  0
   62.2059   34.2755   45.3652 H   0  0  0  0  0  0  0  0  0  0  0  0
   57.5180   30.6950   44.8840 C   0  0  0  0  0  0  0  0  0  0  0  0
   56.8600   30.9915   44.0538 H   0  0  0  0  0  0  0  0  0  0  0  0
   57.5060   29.3750   45.3440 C   0  0  0  0  0  0  0  0  0  0  0  0
   56.8363   28.6402   44.8734 H   0  0  0  0  0  0  0  0  0  0  0  0
   55.4910   25.4930   45.7310 C   0  0  0  0  0  0  0  0  0  0  0  0
   54.4160   26.3410   45.9690 O   0  0  0  0  0  0  0  0  0  0  0  0
   55.2620   24.3250   44.9930 C   0  0  0  0  0  0  0  0  0  0  0  0
   54.2723   24.1424   44.5491 H   0  0  0  0  0  0  0  0  0  0  0  0
   56.2840   23.3930   44.8190 C   0  0  0  0  0  0  0  0  0  0  0  0
   56.1108   22.4824   44.2268 H   0  0  0  0  0  0  0  0  0  0  0  0
  1  2  1  0
  2  3  1  0
  3  4  1  0
  4  5  2  0
  5  6  1  0
  6  7  2  0
  6  8  1  0
  8  9  2  0
  9 10  1  0
  9 11  1  0
 11 12  1  0
 11 13  2  0
 13 14  1  0
 14 15  1  0
 14 16  1  0
 14 17  1  0
 17 18  1  0
 18 19  2  0
 18 20  1  0
 20 21  1  0
 21 22  1  0
 22 23  1  0
 23 24  2  0
 24 25  1  0
 24 26  1  0
 26 27  1  0
 26 28  2  0
 28 29  1  0
 28 30  1  0
 30 31  1  0
 31 32  2  0
 31 33  1  0
 33 34  1  0
 34 35  2  0
 35 36  1  0
 35 37  1  0
 37 38  1  0
 37 39  2  0
 39 40  1  0
 39 41  1  0
 41 42  1  0
 42 43  1  0
 42 44  1  0
 42 45  1  0
 41 46  2  0
 46 47  1  0
 30 48  2  0
 48 49  1  0
 22 50  2  0
 50 51  1  0
 50 52  1  0
 52 53  1  0
 13 54  1  0
 54 55  1  0
 54 56  2  0
 56 57  1  0
  4 58  1  0
 58 59  1  0
 58 60  2  0
 60 61  1  0
 60 62  1  0
 62 63  1  0
 62  2  2  0
 56  8  1  0
 52 20  2  0
 48 23  1  0
 46 34  1  0
M  CHG  4   3  -1  17  -1  33  -1  59  -1
M  END
>  <UniqueID>  (45) 
43

>  <SMILES>  (45) 
O=C(/N=c1/[n-]cccc1[O-])c1ccc(C[N-]C(=O)c2ccc(-c3cccc(C(=O)[N-]c4cccc(C(F)(F)F)c4)c3)s2)cc1

>  <Energy>  (45) 
124.71607453620909

>  <Genealogy>  (45) 
O=C(N=c1[n-]cccc1[O-])c1ccc(C[N-]C(=O)c2ccc(-c3cccc(C(=O)[N-]c4cccc(C(F)(F)F)c4)c3)s2)cc1 (protonated)
O=C(/N=c1/[n-]cccc1[O-])c1ccc(C[N-]C(=O)c2ccc(-c3cccc(C(=O)[N-]c4cccc(C(F)(F)F)c4)c3)s2)cc1 (cis-trans isomerization)
O=C(/N=c1/[n-]cccc1[O-])c1ccc(C[N-]C(=O)c2ccc(-c3cccc(C(=O)[N-]c4cccc(C(F)(F)F)c4)c3)s2)cc1 (3D coordinates assigned)
O=C(/N=c1/[n-]cccc1[O-])c1ccc(C[N-]C(=O)c2ccc(-c3cccc(C(=O)[N-]c4cccc(C(F)(F)F)c4)c3)s2)cc1 (optimized conformer: 124.71607453620909 kcal/mol)

>  <smiles>  (45) 
O=C(N=c1[nH]cccc1O)c1ccc(CNC(=O)c2ccc(-c3cccc(C(=O)Nc4cccc(C(F)(F)F)c4)c3)s2)cc1

>  <score_type>  (45) 
oracle

>  <origin>  (45) 
adg

>  <m_score__min__energy>  (45) 
-19.190000000000001

>  <m_primary>  (45) 
energy

$$$$
45:0
     RDKit          3D

 36 37  0  0  0  0  0  0  0  0999 V2000
   57.6795   34.2618   45.6255 H   0  0  0  0  0  0  0  0  0  0  0  0
   57.6810   33.2000   45.9130 C   0  0  0  0  0  0  0  0  0  0  0  0
   56.7605   32.7314   46.2914 H   0  0  0  0  0  0  0  0  0  0  0  0
   56.4500   24.2250   44.2000 C   0  0  0  0  0  0  0  0  0  0  0  0
   56.4756   24.9722   43.3931 H   0  0  0  0  0  0  0  0  0  0  0  0
   58.8610   31.0530   46.1730 C   0  0  0  0  0  0  0  0  0  0  0  0
   59.9810   30.4800   46.8150 C   0  0  0  0  0  0  0  0  0  0  0  0
   61.5900   31.4700   47.1660 Br  0  0  0  0  0  0  0  0  0  0  0  0
   59.9760   29.1230   47.1480 C   0  0  0  0  0  0  0  0  0  0  0  0
   60.8464   28.6864   47.6596 H   0  0  0  0  0  0  0  0  0  0  0  0
   58.8740   28.3090   46.8380 C   0  0  0  0  0  0  0  0  0  0  0  0
   58.8660   26.9440   47.1800 C   0  0  0  0  0  0  0  0  0  0  0  0
   59.9480   26.3730   47.8450 O   0  0  0  0  0  0  0  0  0  0  0  0
   57.7680   26.1410   46.8520 C   0  0  0  0  0  0  0  0  0  0  0  0
   57.7920   24.7920   47.1920 O   0  0  0  0  0  0  0  0  0  0  0  0
   56.6620   26.6840   46.1740 C   0  0  0  0  0  0  0  0  0  0  0  0
   55.5090   25.8120   45.8430 C   0  0  0  0  0  0  0  0  0  0  0  0
   54.2220   26.3220   45.9960 O   0  0  0  0  0  0  0  0  0  0  0  0
   55.6910   24.5490   45.4300 C   0  0  0  0  0  0  0  0  0  0  0  0
   55.2630   23.7277   46.0236 H   0  0  0  0  0  0  0  0  0  0  0  0
   58.7970   32.4820   45.8030 C   0  0  0  0  0  0  0  0  0  0  0  0
   59.7057   32.9713   45.4223 H   0  0  0  0  0  0  0  0  0  0  0  0
   57.1110   23.0650   44.0150 C   0  0  0  0  0  0  0  0  0  0  0  0
   56.6430   22.0910   42.9680 C   0  0  0  0  0  0  0  0  0  0  0  0
   56.2164   21.2032   43.4577 H   0  0  0  0  0  0  0  0  0  0  0  0
   55.8757   22.5679   42.3404 H   0  0  0  0  0  0  0  0  0  0  0  0
   57.4948   21.7899   42.3404 H   0  0  0  0  0  0  0  0  0  0  0  0
   58.3260   22.7000   44.8250 C   0  0  0  0  0  0  0  0  0  0  0  0
   58.0875   22.7717   45.8964 H   0  0  0  0  0  0  0  0  0  0  0  0
   58.6308   21.6706   44.5853 H   0  0  0  0  0  0  0  0  0  0  0  0
   59.1476   23.3910   44.5853 H   0  0  0  0  0  0  0  0  0  0  0  0
   56.6550   28.0570   45.8470 C   0  0  0  0  0  0  0  0  0  0  0  0
   55.5400   28.6150   45.2250 O   0  0  0  0  0  0  0  0  0  0  0  0
   57.7610   28.8690   46.1670 C   0  0  0  0  0  0  0  0  0  0  0  0
   57.7710   30.2360   45.8360 C   0  0  0  0  0  0  0  0  0  0  0  0
   56.9115   30.6712   45.3050 H   0  0  0  0  0  0  0  0  0  0  0  0
  1  2  1  0
  2  3  1  0
  2  4  2  0
  4  5  1  0
  4  6  1  0
  6  7  2  0
  7  8  1  0
  7  9  1  0
  9 10  1  0
  9 11  2  0
 11 12  1  0
 12 13  1  0
 12 14  2  0
 14 15  1  0
 14 16  1  0
 16 17  1  0
 17 18  1  0
 17 19  2  0
 19 20  1  0
 19 21  1  0
 21 22  1  0
 21 23  2  3
 23 24  1  0
 24 25  1  0
 24 26  1  0
 24 27  1  0
 23 28  1  0
 28 29  1  0
 28 30  1  0
 28 31  1  0
 16 32  2  0
 32 33  1  0
 32 34  1  0
 34 35  2  0
 35 36  1  0
 35  6  1  0
 34 11  1  0
M  CHG  4  13  -1  15  -1  18  -1  33  -1
M  END
>  <UniqueID>  (46) 
44

>  <SMILES>  (46) 
C=Cc1cc2c([O-])c(/C([O-])=C/C=C(C)C)c([O-])c([O-])c2cc1Br

>  <Energy>  (46) 
51.783859002041225

>  <Genealogy>  (46) 
C=Cc1cc2c([O-])c(C([O-])=CC=C(C)C)c([O-])c([O-])c2cc1Br (protonated)
C=Cc1cc2c([O-])c(/C([O-])=C/C=C(C)C)c([O-])c([O-])c2cc1Br (cis-trans isomerization)
C=Cc1cc2c([O-])c(/C([O-])=C/C=C(C)C)c([O-])c([O-])c2cc1Br (3D coordinates assigned)
C=Cc1cc2c([O-])c(/C([O-])=C/C=C(C)C)c([O-])c([O-])c2cc1Br (optimized conformer: 51.783859002041225 kcal/mol)

>  <smiles>  (46) 
C=Cc1cc2c(O)c(C(O)=CC=C(C)C)c(O)c(O)c2cc1Br

>  <score_type>  (46) 
oracle

>  <origin>  (46) 
adg

>  <m_score__min__energy>  (46) 
-17.199999999999999

>  <m_primary>  (46) 
energy

$$$$
46:0
     RDKit          3D

 60 62  0  0  0  0  0  0  0  0999 V2000
   60.2850   28.7290   47.8930 C   0  0  0  0  0  0  0  0  0  0  0  0
   60.1730   29.0290   46.3900 C   0  0  0  0  0  0  0  0  0  0  0  0
   58.9080   28.5730   45.7600 N   0  0  1  0  0  0  0  0  0  0  0  0
   58.6980   29.1710   44.4150 C   0  0  0  0  0  0  0  0  0  0  0  0
   57.3770   29.8930   44.2980 C   0  0  0  0  0  0  0  0  0  0  0  0
   56.5750   29.5570   43.3830 O   0  0  0  0  0  0  0  0  0  0  0  0
   57.0120   30.9170   45.2320 N   0  0  0  0  0  0  0  0  0  0  0  0
   56.9120   32.3300   44.8830 C   0  0  0  0  0  0  0  0  0  0  0  0
   57.1960   33.2190   46.1000 C   0  0  0  0  0  0  0  0  0  0  0  0
   58.6510   33.1790   46.4940 C   0  0  0  0  0  0  0  0  0  0  0  0
   59.5400   34.1670   46.0420 C   0  0  0  0  0  0  0  0  0  0  0  0
   60.8950   34.1080   46.3860 C   0  0  0  0  0  0  0  0  0  0  0  0
   61.3780   33.0610   47.1850 C   0  0  0  0  0  0  0  0  0  0  0  0
   63.1030   32.9370   47.5510 S   0  0  0  0  0  0  0  0  0  0  0  0
   63.6980   31.8190   46.7420 O   0  0  0  0  0  0  0  0  0  0  0  0
   63.7860   34.2140   47.1460 O   0  0  0  0  0  0  0  0  0  0  0  0
   63.3980   32.6440   49.2490 N   0  0  0  0  0  0  0  0  0  0  0  0
   62.5630   33.5080   50.1110 C   0  0  0  0  0  0  0  0  0  0  0  0
   63.3880   34.6050   50.8030 C   0  0  0  0  0  0  0  0  0  0  0  0
   64.4290   34.0800   51.6100 O   0  0  0  0  0  0  0  0  0  0  0  0
   65.0720   32.9380   51.0490 C   0  0  0  0  0  0  0  0  0  0  0  0
   64.8390   32.7480   49.5420 C   0  0  0  0  0  0  0  0  0  0  0  0
   60.4870   32.0860   47.6530 C   0  0  0  0  0  0  0  0  0  0  0  0
   59.1310   32.1510   47.3190 C   0  0  0  0  0  0  0  0  0  0  0  0
   58.8340   27.1200   45.7300 C   0  0  0  0  0  0  0  0  0  0  0  0
   59.8980   26.4380   45.6970 O   0  0  0  0  0  0  0  0  0  0  0  0
   57.5310   26.3990   45.7280 C   0  0  0  0  0  0  0  0  0  0  0  0
   57.4330   25.0240   45.4450 C   0  0  0  0  0  0  0  0  0  0  0  0
   56.1890   24.3880   45.4650 C   0  0  0  0  0  0  0  0  0  0  0  0
   55.0450   25.1310   45.7590 C   0  0  0  0  0  0  0  0  0  0  0  0
   53.9160   24.5740   45.7830 O   0  0  0  0  0  0  0  0  0  0  0  0
   55.1480   26.4600   46.0210 N   0  0  0  0  0  0  0  0  0  0  0  0
   56.3460   27.1020   46.0090 C   0  0  0  0  0  0  0  0  0  0  0  0
   59.9570   29.6077   48.4677 H   0  0  0  0  0  0  0  0  0  0  0  0
   59.6477   27.8682   48.1436 H   0  0  0  0  0  0  0  0  0  0  0  0
   61.3305   28.4964   48.1436 H   0  0  0  0  0  0  0  0  0  0  0  0
   60.2526   30.1172   46.2507 H   0  0  0  0  0  0  0  0  0  0  0  0
   60.9839   28.4702   45.8998 H   0  0  0  0  0  0  0  0  0  0  0  0
   58.1370   28.9410   46.3640 H   0  0  0  0  0  0  0  0  0  0  0  0
   59.5092   29.8873   44.2178 H   0  0  0  0  0  0  0  0  0  0  0  0
   58.6937   28.3497   43.6833 H   0  0  0  0  0  0  0  0  0  0  0  0
   57.6427   32.5578   44.0929 H   0  0  0  0  0  0  0  0  0  0  0  0
   55.8892   32.5325   44.5326 H   0  0  0  0  0  0  0  0  0  0  0  0
   56.9214   34.2558   45.8557 H   0  0  0  0  0  0  0  0  0  0  0  0
   56.6018   32.8420   46.9455 H   0  0  0  0  0  0  0  0  0  0  0  0
   59.1697   34.9912   45.4146 H   0  0  0  0  0  0  0  0  0  0  0  0
   61.5849   34.8865   46.0281 H   0  0  0  0  0  0  0  0  0  0  0  0
   61.7884   33.9841   49.4919 H   0  0  0  0  0  0  0  0  0  0  0  0
   62.1165   32.8760   50.8929 H   0  0  0  0  0  0  0  0  0  0  0  0
   63.8326   35.2506   50.0313 H   0  0  0  0  0  0  0  0  0  0  0  0
   62.7085   35.1664   51.4611 H   0  0  0  0  0  0  0  0  0  0  0  0
   66.1544   33.0357   51.2191 H   0  0  0  0  0  0  0  0  0  0  0  0
   64.6346   32.0591   51.5451 H   0  0  0  0  0  0  0  0  0  0  0  0
   65.2569   33.6093   49.0001 H   0  0  0  0  0  0  0  0  0  0  0  0
   65.3342   31.8198   49.2208 H   0  0  0  0  0  0  0  0  0  0  0  0
   60.8562   31.2657   48.2861 H   0  0  0  0  0  0  0  0  0  0  0  0
   58.4360   31.3911   47.7056 H   0  0  0  0  0  0  0  0  0  0  0  0
   58.3392   24.4477   45.2071 H   0  0  0  0  0  0  0  0  0  0  0  0
   56.1122   23.3118   45.2510 H   0  0  0  0  0  0  0  0  0  0  0  0
   56.3889   28.1805   46.2209 H   0  0  0  0  0  0  0  0  0  0  0  0
  1  2  1  0
  2  3  1  0
  3  4  1  0
  4  5  1  0
  5  6  2  0
  5  7  1  0
  7  8  1  0
  8  9  1  0
  9 10  1  0
 10 11  2  0
 11 12  1  0
 12 13  2  0
 13 14  1  0
 14 15  2  0
 14 16  2  0
 14 17  1  0
 17 18  1  0
 18 19  1  0
 19 20  1  0
 20 21  1  0
 21 22  1  0
 13 23  1  0
 23 24  2  0
  3 25  1  0
 25 26  2  0
 25 27  1  0
 27 28  1  0
 28 29  2  0
 29 30  1  0
 30 31  2  0
 30 32  1  0
 32 33  1  0
 24 10  1  0
 33 27  2  0
 22 17  1  0
  1 34  1  0
  1 35  1  0
  1 36  1  0
  2 37  1  0
  2 38  1  0
  3 39  1  1
  4 40  1  0
  4 41  1  0
  8 42  1  0
  8 43  1  0
  9 44  1  0
  9 45  1  0
 11 46  1  0
 12 47  1  0
 18 48  1  0
 18 49  1  0
 19 50  1  0
 19 51  1  0
 21 52  1  0
 21 53  1  0
 22 54  1  0
 22 55  1  0
 23 56  1  0
 24 57  1  0
 28 58  1  0
 29 59  1  0
 33 60  1  0
M  CHG  3   3   1   7  -1  32  -1
M  END
>  <UniqueID>  (47) 
45

>  <SMILES>  (47) 
CC[N@@H+](CC(=O)[N-]CCc1ccc(S(=O)(=O)N2CCOCC2)cc1)C(=O)c1ccc(=O)[n-]c1

>  <Energy>  (47) 
72.53841537073755

>  <Genealogy>  (47) 
CC[NH+](CC(=O)[N-]CCc1ccc(S(=O)(=O)N2CCOCC2)cc1)C(=O)c1ccc(=O)[n-]c1 (protonated)
CC[N@@H+](CC(=O)[N-]CCc1ccc(S(=O)(=O)N2CCOCC2)cc1)C(=O)c1ccc(=O)[n-]c1 (chirality)
CC[N@@H+](CC(=O)[N-]CCc1ccc(S(=O)(=O)N2CCOCC2)cc1)C(=O)c1ccc(=O)[n-]c1 (3D coordinates assigned)
CC[N@@H+](CC(=O)[N-]CCc1ccc(S(=O)(=O)N2CCOCC2)cc1)C(=O)c1ccc(=O)[n-]c1 (nonaromatic ring conformer: 72.53841537073755 kcal/mol)

>  <smiles>  (47) 
CCN(CC(=O)NCCc1ccc(S(=O)(=O)N2CCOCC2)cc1)C(=O)c1ccc(=O)[nH]c1

>  <score_type>  (47) 
oracle

>  <origin>  (47) 
adg

>  <m_score__min__energy>  (47) 
-11.24

>  <m_primary>  (47) 
energy

$$$$
47:0
     RDKit          3D

 33 34  0  0  0  0  0  0  0  0999 V2000
   61.1990   28.5550   48.1740 H   0  0  0  0  0  0  0  0  0  0  0  0
   60.9090   28.4620   49.1390 O   0  0  0  0  0  0  0  0  0  0  0  0
   60.0020   29.3440   49.7270 C   0  0  0  0  0  0  0  0  0  0  0  0
   59.6290   29.1490   51.0600 C   0  0  0  0  0  0  0  0  0  0  0  0
   60.0517   28.3075   51.6285 H   0  0  0  0  0  0  0  0  0  0  0  0
   58.7220   30.0170   51.6750 C   0  0  0  0  0  0  0  0  0  0  0  0
   58.4412   29.8586   52.7267 H   0  0  0  0  0  0  0  0  0  0  0  0
   58.1650   31.0940   50.9560 C   0  0  0  0  0  0  0  0  0  0  0  0
   57.2070   32.0490   51.5640 C   0  0  0  0  0  0  0  0  0  0  0  0
   56.9230   32.9386   50.9827 H   0  0  0  0  0  0  0  0  0  0  0  0
   56.6670   31.8910   52.7810 C   0  0  0  0  0  0  0  0  0  0  0  0
   56.9252   32.6082   53.5741 H   0  0  0  0  0  0  0  0  0  0  0  0
   55.7400   30.7900   53.0920 C   0  0  0  0  0  0  0  0  0  0  0  0
   55.3310   30.6030   54.2710 O   0  0  0  0  0  0  0  0  0  0  0  0
   55.3120   29.9250   52.0360 N   0  0  0  0  0  0  0  0  0  0  0  0
   53.9770   29.3420   51.9600 C   0  0  0  0  0  0  0  0  0  0  0  0
   53.8629   28.8208   50.9981 H   0  0  0  0  0  0  0  0  0  0  0  0
   53.8486   28.6324   52.7907 H   0  0  0  0  0  0  0  0  0  0  0  0
   52.9300   30.4180   52.0690 C   0  0  0  0  0  0  0  0  0  0  0  0
   52.4300   30.8060   53.3230 C   0  0  0  0  0  0  0  0  0  0  0  0
   52.7927   30.3095   54.2351 H   0  0  0  0  0  0  0  0  0  0  0  0
   51.4730   31.8210   53.4160 C   0  0  0  0  0  0  0  0  0  0  0  0
   51.0819   32.1183   54.4002 H   0  0  0  0  0  0  0  0  0  0  0  0
   51.0120   32.4590   52.2600 C   0  0  0  0  0  0  0  0  0  0  0  0
   50.0610   33.4680   52.3600 O   0  0  0  0  0  0  0  0  0  0  0  0
   51.5100   32.0820   51.0070 C   0  0  0  0  0  0  0  0  0  0  0  0
   51.0560   32.7150   49.8550 O   0  0  0  0  0  0  0  0  0  0  0  0
   52.4670   31.0660   50.9120 C   0  0  0  0  0  0  0  0  0  0  0  0
   52.8587   30.7733   49.9267 H   0  0  0  0  0  0  0  0  0  0  0  0
   58.5580   31.2920   49.6220 C   0  0  0  0  0  0  0  0  0  0  0  0
   58.1472   32.1399   49.0543 H   0  0  0  0  0  0  0  0  0  0  0  0
   59.4660   30.4230   49.0070 C   0  0  0  0  0  0  0  0  0  0  0  0
   59.8300   30.6360   47.6830 O   0  0  0  0  0  0  0  0  0  0  0  0
  1  2  1  0
  2  3  1  0
  3  4  2  0
  4  5  1  0
  4  6  1  0
  6  7  1  0
  6  8  2  0
  8  9  1  0
  9 10  1  0
  9 11  2  0
 11 12  1  0
 11 13  1  0
 13 14  2  0
 13 15  1  0
 15 16  1  0
 16 17  1  0
 16 18  1  0
 16 19  1  0
 19 20  2  0
 20 21  1  0
 20 22  1  0
 22 23  1  0
 22 24  2  0
 24 25  1  0
 24 26  1  0
 26 27  1  0
 26 28  2  0
 28 29  1  0
  8 30  1  0
 30 31  1  0
 30 32  2  0
 32 33  1  0
 32  3  1  0
 28 19  1  0
M  CHG  4  15  -1  25  -1  27  -1  33  -1
M  END
>  <UniqueID>  (48) 
46

>  <SMILES>  (48) 
O=C(/C=C/c1ccc(O)c([O-])c1)[N-]Cc1ccc([O-])c([O-])c1

>  <Energy>  (48) 
33.30251856880001

>  <Genealogy>  (48) 
O=C(C=Cc1ccc(O)c([O-])c1)[N-]Cc1ccc([O-])c([O-])c1 (protonated)
O=C(/C=C/c1ccc(O)c([O-])c1)[N-]Cc1ccc([O-])c([O-])c1 (cis-trans isomerization)
O=C(/C=C/c1ccc(O)c([O-])c1)[N-]Cc1ccc([O-])c([O-])c1 (3D coordinates assigned)
O=C(/C=C/c1ccc(O)c([O-])c1)[N-]Cc1ccc([O-])c([O-])c1 (optimized conformer: 33.30251856880001 kcal/mol)

>  <smiles>  (48) 
O=C(C=Cc1ccc(O)c(O)c1)NCc1ccc(O)c(O)c1

>  <score_type>  (48) 
oracle

>  <origin>  (48) 
adg

>  <m_score__min__energy>  (48) 
-15.9

>  <m_primary>  (48) 
energy

$$$$
48:0
     RDKit          3D

 68 70  0  0  0  0  0  0  0  0999 V2000
   66.7200   27.2240   51.5780 C   0  0  0  0  0  0  0  0  0  0  0  0
   67.2900   28.6070   51.4730 C   0  0  0  0  0  0  0  0  0  0  0  0
   68.5430   28.7440   51.4890 O   0  0  0  0  0  0  0  0  0  0  0  0
   66.4340   29.7680   51.3720 N   0  0  0  0  0  0  0  0  0  0  0  0
   67.0210   31.1000   51.1450 C   0  0  0  0  0  0  0  0  0  0  0  0
   66.1550   31.9140   50.1730 C   0  0  0  0  0  0  0  0  0  0  0  0
   64.7230   31.7820   50.4770 N   0  0  0  0  0  0  0  0  0  0  0  0
   63.7530   32.3310   49.5680 C   0  0  0  0  0  0  0  0  0  0  0  0
   64.1170   33.3450   48.6680 C   0  0  0  0  0  0  0  0  0  0  0  0
   63.1760   33.8700   47.7790 C   0  0  0  0  0  0  0  0  0  0  0  0
   61.8690   33.3740   47.7660 C   0  0  0  0  0  0  0  0  0  0  0  0
   61.5060   32.3340   48.6290 C   0  0  0  0  0  0  0  0  0  0  0  0
   60.1570   31.8560   48.6350 N   0  0  0  0  0  0  0  0  0  0  0  0
   59.6330   30.8440   47.9950 C   0  0  0  0  0  0  0  0  0  0  0  0
   59.4370   29.7060   48.7100 N   0  0  0  0  0  0  0  0  0  0  0  0
   58.9420   28.5660   48.1730 C   0  0  0  0  0  0  0  0  0  0  0  0
   58.5970   28.5110   46.8180 C   0  0  0  0  0  0  0  0  0  0  0  0
   58.1510   27.2220   46.2340 C   0  0  0  0  0  0  0  0  0  0  0  0
   58.2500   27.0150   44.9930 O   0  0  0  0  0  0  0  0  0  0  0  0
   57.6160   26.1990   47.0840 N   0  0  0  0  0  0  0  0  0  0  0  0
   57.6670   24.7710   46.7850 C   0  0  0  0  0  0  0  0  0  0  0  0
   56.2600   24.1450   46.6830 C   0  0  1  0  0  0  0  0  0  0  0  0
   55.6020   24.2630   47.8970 F   0  0  0  0  0  0  0  0  0  0  0  0
   55.3440   24.6820   45.5350 C   0  0  0  0  0  0  0  0  0  0  0  0
   53.9200   24.0880   45.6200 C   0  0  0  0  0  0  0  0  0  0  0  0
   55.9320   24.3830   44.1450 C   0  0  0  0  0  0  0  0  0  0  0  0
   55.2540   26.0850   45.6510 O   0  0  0  0  0  0  0  0  0  0  0  0
   58.7100   29.6900   46.0500 C   0  0  0  0  0  0  0  0  0  0  0  0
   58.2420   29.7160   44.6970 N   0  0  0  0  0  0  0  0  0  0  0  0
   56.5420   29.7150   44.3510 S   0  0  0  0  0  0  0  0  0  0  0  0
   56.2470   29.4760   42.6140 C   0  0  0  0  0  0  0  0  0  0  0  0
   55.8700   28.6170   45.1260 O   0  0  0  0  0  0  0  0  0  0  0  0
   55.9570   31.0350   44.7640 O   0  0  0  0  0  0  0  0  0  0  0  0
   59.2450   30.8640   46.6240 C   0  0  0  0  0  0  0  0  0  0  0  0
   59.2660   32.3190   45.6160 Cl  0  0  0  0  0  0  0  0  0  0  0  0
   62.4380   31.8380   49.5520 C   0  0  0  0  0  0  0  0  0  0  0  0
   64.2950   31.0040   51.6450 C   0  0  0  0  0  0  0  0  0  0  0  0
   64.9890   29.6400   51.6320 C   0  0  0  0  0  0  0  0  0  0  0  0
   66.6083   26.9530   52.6382 H   0  0  0  0  0  0  0  0  0  0  0  0
   65.7364   27.1945   51.0864 H   0  0  0  0  0  0  0  0  0  0  0  0
   67.3972   26.5100   51.0864 H   0  0  0  0  0  0  0  0  0  0  0  0
   67.0871   31.6341   52.1043 H   0  0  0  0  0  0  0  0  0  0  0  0
   68.0230   30.9761   50.7084 H   0  0  0  0  0  0  0  0  0  0  0  0
   66.4383   32.9744   50.2460 H   0  0  0  0  0  0  0  0  0  0  0  0
   66.3261   31.5284   49.1571 H   0  0  0  0  0  0  0  0  0  0  0  0
   65.1482   33.7280   48.6628 H   0  0  0  0  0  0  0  0  0  0  0  0
   63.4641   34.6756   47.0876 H   0  0  0  0  0  0  0  0  0  0  0  0
   61.1256   33.8015   47.0771 H   0  0  0  0  0  0  0  0  0  0  0  0
   58.8101   27.6765   48.8065 H   0  0  0  0  0  0  0  0  0  0  0  0
   58.1883   24.6283   45.8269 H   0  0  0  0  0  0  0  0  0  0  0  0
   58.1989   24.2727   47.6089 H   0  0  0  0  0  0  0  0  0  0  0  0
   56.4477   23.0933   46.4208 H   0  0  0  0  0  0  0  0  0  0  0  0
   53.6348   23.9690   46.6757 H   0  0  0  0  0  0  0  0  0  0  0  0
   53.2100   24.7650   45.1224 H   0  0  0  0  0  0  0  0  0  0  0  0
   53.9015   23.1072   45.1224 H   0  0  0  0  0  0  0  0  0  0  0  0
   56.9073   23.8871   44.2584 H   0  0  0  0  0  0  0  0  0  0  0  0
   55.2474   23.7235   43.5914 H   0  0  0  0  0  0  0  0  0  0  0  0
   56.0616   25.3247   43.5914 H   0  0  0  0  0  0  0  0  0  0  0  0
   56.1480   26.4700   45.4520 H   0  0  0  0  0  0  0  0  0  0  0  0
   58.8970   30.0310   43.9470 H   0  0  0  0  0  0  0  0  0  0  0  0
   55.3989   28.7889   42.4772 H   0  0  0  0  0  0  0  0  0  0  0  0
   56.0144   30.4435   42.1451 H   0  0  0  0  0  0  0  0  0  0  0  0
   57.1452   29.0478   42.1451 H   0  0  0  0  0  0  0  0  0  0  0  0
   62.1374   31.0584   50.2675 H   0  0  0  0  0  0  0  0  0  0  0  0
   64.5653   31.5441   52.5643 H   0  0  0  0  0  0  0  0  0  0  0  0
   63.2049   30.8609   51.6107 H   0  0  0  0  0  0  0  0  0  0  0  0
   64.8438   29.1564   52.6093 H   0  0  0  0  0  0  0  0  0  0  0  0
   64.5467   29.0371   50.8252 H   0  0  0  0  0  0  0  0  0  0  0  0
  1  2  1  0
  2  3  2  0
  2  4  1  0
  4  5  1  0
  5  6  1  0
  6  7  1  0
  7  8  1  0
  8  9  2  0
  9 10  1  0
 10 11  2  0
 11 12  1  0
 12 13  1  0
 13 14  2  3
 14 15  1  0
 15 16  1  0
 16 17  2  0
 17 18  1  0
 18 19  2  0
 18 20  1  0
 20 21  1  0
 21 22  1  0
 22 23  1  0
 22 24  1  0
 24 25  1  0
 24 26  1  0
 24 27  1  0
 17 28  1  0
 28 29  1  0
 29 30  1  0
 30 31  1  0
 30 32  2  0
 30 33  2  0
 28 34  2  0
 34 35  1  0
 12 36  2  0
  7 37  1  0
 37 38  1  0
 38  4  1  0
 36  8  1  0
 34 14  1  0
  1 39  1  0
  1 40  1  0
  1 41  1  0
  5 42  1  0
  5 43  1  0
  6 44  1  0
  6 45  1  0
  9 46  1  0
 10 47  1  0
 11 48  1  0
 16 49  1  0
 21 50  1  0
 21 51  1  0
 22 52  1  6
 25 53  1  0
 25 54  1  0
 25 55  1  0
 26 56  1  0
 26 57  1  0
 26 58  1  0
 27 59  1  0
 29 60  1  0
 31 61  1  0
 31 62  1  0
 31 63  1  0
 36 64  1  0
 37 65  1  0
 37 66  1  0
 38 67  1  0
 38 68  1  0
M  CHG  2  15  -1  20  -1
M  END
>  <UniqueID>  (49) 
47

>  <SMILES>  (49) 
CC(=O)N1CCN(c2cccc(N=c3[n-]cc(C(=O)[N-]C[C@@H](F)C(C)(C)O)c(NS(C)(=O)=O)c3Cl)c2)CC1

>  <Energy>  (49) 
93.72770250893686

>  <Genealogy>  (49) 
CC(=O)N1CCN(c2cccc(N=c3[n-]cc(C(=O)[N-]CC(F)C(C)(C)O)c(NS(C)(=O)=O)c3Cl)c2)CC1 (protonated)
CC(=O)N1CCN(c2cccc(N=c3[n-]cc(C(=O)[N-]C[C@@H](F)C(C)(C)O)c(NS(C)(=O)=O)c3Cl)c2)CC1 (chirality)
CC(=O)N1CCN(c2cccc(N=c3[n-]cc(C(=O)[N-]C[C@@H](F)C(C)(C)O)c(NS(C)(=O)=O)c3Cl)c2)CC1 (3D coordinates assigned)
CC(=O)N1CCN(c2cccc(N=c3[n-]cc(C(=O)[N-]C[C@@H](F)C(C)(C)O)c(NS(C)(=O)=O)c3Cl)c2)CC1 (nonaromatic ring conformer: 93.72770250893686 kcal/mol)

>  <smiles>  (49) 
CC(=O)N1CCN(c2cccc(N=c3[nH]cc(C(=O)NCC(F)C(C)(C)O)c(NS(C)(=O)=O)c3Cl)c2)CC1

>  <score_type>  (49) 
oracle

>  <origin>  (49) 
adg

>  <m_score__min__energy>  (49) 
-13.26

>  <m_primary>  (49) 
energy

$$$$
49:0
     RDKit          3D

 41 44  0  0  0  0  0  0  0  0999 V2000
   57.1130   28.5586   43.0816 H   0  0  0  0  0  0  0  0  0  0  0  0
   56.9650   29.6480   43.1180 C   0  0  0  0  0  0  0  0  0  0  0  0
   56.4149   30.1556   42.3119 H   0  0  0  0  0  0  0  0  0  0  0  0
   57.4570   30.3600   44.1490 C   0  0  0  0  0  0  0  0  0  0  0  0
   57.2340   31.7500   44.1370 C   0  0  0  0  0  0  0  0  0  0  0  0
   56.5059   32.1713   43.4282 H   0  0  0  0  0  0  0  0  0  0  0  0
   57.9180   32.6090   45.0070 C   0  0  0  0  0  0  0  0  0  0  0  0
   57.6710   34.0940   44.9190 C   0  0  0  0  0  0  0  0  0  0  0  0
   57.6010   34.5148   45.9329 H   0  0  0  0  0  0  0  0  0  0  0  0
   58.5019   34.5726   44.3799 H   0  0  0  0  0  0  0  0  0  0  0  0
   56.7299   34.2779   44.3799 H   0  0  0  0  0  0  0  0  0  0  0  0
   58.8480   32.0710   45.9190 C   0  0  0  0  0  0  0  0  0  0  0  0
   59.6100   32.9320   46.8520 C   0  0  0  0  0  0  0  0  0  0  0  0
   58.9880   33.7360   47.5970 O   0  0  0  0  0  0  0  0  0  0  0  0
   61.0440   32.8500   46.9270 N   0  0  0  0  0  0  0  0  0  0  0  0
   61.7860   32.0350   47.8110 C   0  0  0  0  0  0  0  0  0  0  0  0
   61.3190   31.3790   48.8950 N   0  0  0  0  0  0  0  0  0  0  0  0
   62.4220   31.2660   49.6790 C   0  0  0  0  0  0  0  0  0  0  0  0
   62.4652   30.7372   50.6426 H   0  0  0  0  0  0  0  0  0  0  0  0
   63.4840   31.9200   49.0770 C   0  0  0  0  0  0  0  0  0  0  0  0
   64.7330   32.2730   49.6960 C   0  0  0  0  0  0  0  0  0  0  0  0
   65.7390   32.5560   50.1930 N   0  0  0  0  0  0  0  0  0  0  0  0
   63.0580   32.3640   47.8890 N   0  0  0  0  0  0  0  0  0  0  0  0
   63.3500   33.5420   47.0930 C   0  0  0  0  0  0  0  0  0  0  0  0
   64.1391   33.3344   46.3553 H   0  0  0  0  0  0  0  0  0  0  0  0
   63.7213   34.3870   47.6914 H   0  0  0  0  0  0  0  0  0  0  0  0
   61.9930   33.8390   46.3910 C   0  0  0  0  0  0  0  0  0  0  0  0
   62.0916   33.7250   45.3014 H   0  0  0  0  0  0  0  0  0  0  0  0
   61.6555   34.8691   46.5779 H   0  0  0  0  0  0  0  0  0  0  0  0
   59.0280   30.6840   45.9830 C   0  0  0  0  0  0  0  0  0  0  0  0
   59.7653   30.2728   46.6883 H   0  0  0  0  0  0  0  0  0  0  0  0
   58.2910   29.7990   45.1690 C   0  0  0  0  0  0  0  0  0  0  0  0
   58.4180   28.4740   45.4390 C   0  0  0  0  0  0  0  0  0  0  0  0
   59.4406   28.0702   45.4747 H   0  0  0  0  0  0  0  0  0  0  0  0
   57.3180   27.5240   45.6890 C   0  0  0  0  0  0  0  0  0  0  0  0
   57.5070   26.2850   46.1760 N   0  0  0  0  0  0  0  0  0  0  0  0
   56.2500   25.8190   46.3430 C   0  0  0  0  0  0  0  0  0  0  0  0
   56.0090   24.6630   46.7780 O   0  0  0  0  0  0  0  0  0  0  0  0
   55.2740   26.6930   46.0200 N   0  0  0  0  0  0  0  0  0  0  0  0
   55.9640   27.7720   45.6200 C   0  0  0  0  0  0  0  0  0  0  0  0
   55.3710   28.9670   45.2330 O   0  0  0  0  0  0  0  0  0  0  0  0
  1  2  1  0
  2  3  1  0
  2  4  2  0
  4  5  1  0
  5  6  1  0
  5  7  2  0
  7  8  1  0
  8  9  1  0
  8 10  1  0
  8 11  1  0
  7 12  1  0
 12 13  1  0
 13 14  2  0
 13 15  1  0
 15 16  1  0
 16 17  2  0
 17 18  1  0
 18 19  1  0
 18 20  2  0
 20 21  1  0
 21 22  3  0
 20 23  1  0
 23 24  1  0
 24 25  1  0
 24 26  1  0
 24 27  1  0
 27 28  1  0
 27 29  1  0
 12 30  2  0
 30 31  1  0
 30 32  1  0
 32 33  2  0
 33 34  1  0
 33 35  1  0
 35 36  1  0
 36 37  1  0
 37 38  2  0
 37 39  1  0
 39 40  1  0
 40 41  1  0
 32  4  1  0
 40 35  2  0
 27 15  1  0
 23 16  1  0
M  CHG  3  36  -1  39  -1  41  -1
M  END
>  <UniqueID>  (50) 
48

>  <SMILES>  (50) 
C=c1cc(C)c(C(=O)N2CCn3c(C#N)cnc32)c/c1=C/c1[n-]c(=O)[n-]c1[O-]

>  <Energy>  (50) 
161.48853773023652

>  <Genealogy>  (50) 
C=c1cc(C)c(C(=O)N2CCn3c(C#N)cnc32)cc1=Cc1[n-]c(=O)[n-]c1[O-] (protonated)
C=c1cc(C)c(C(=O)N2CCn3c(C#N)cnc32)c/c1=C/c1[n-]c(=O)[n-]c1[O-] (cis-trans isomerization)
C=c1cc(C)c(C(=O)N2CCn3c(C#N)cnc32)c/c1=C/c1[n-]c(=O)[n-]c1[O-] (3D coordinates assigned)
C=c1cc(C)c(C(=O)N2CCn3c(C#N)cnc32)c/c1=C/c1[n-]c(=O)[n-]c1[O-] (nonaromatic ring conformer: 161.48853773023652 kcal/mol)

>  <smiles>  (50) 
C=c1cc(C)c(C(=O)N2CCn3c(C#N)cnc32)cc1=Cc1[nH]c(=O)[nH]c1O

>  <score_type>  (50) 
oracle

>  <origin>  (50) 
adg

>  <m_score__min__energy>  (50) 
-16.68

>  <m_primary>  (50) 
energy

$$$$
50:0
     RDKit          3D

 61 64  0  0  0  0  0  0  0  0999 V2000
   61.9750   30.6000   51.3600 N   0  0  0  0  0  0  0  0  0  0  0  0
   60.6330   30.9120   50.9660 C   0  0  0  0  0  0  0  0  0  0  0  0
   59.7380   31.4150   51.9240 C   0  0  0  0  0  0  0  0  0  0  0  0
   58.4310   31.7500   51.5660 C   0  0  0  0  0  0  0  0  0  0  0  0
   58.0040   31.5880   50.2470 C   0  0  0  0  0  0  0  0  0  0  0  0
   58.8820   31.0850   49.2850 C   0  0  0  0  0  0  0  0  0  0  0  0
   60.1940   30.7350   49.6350 C   0  0  0  0  0  0  0  0  0  0  0  0
   61.2710   30.0640   48.3590 S   0  0  0  0  0  0  0  0  0  0  0  0
   59.9050   29.3240   47.4590 C   0  0  0  0  0  0  0  0  0  0  0  0
   59.3570   28.1120   47.8950 C   0  0  0  0  0  0  0  0  0  0  0  0
   58.2900   27.5370   47.2000 C   0  0  0  0  0  0  0  0  0  0  0  0
   57.7740   28.1670   46.0630 C   0  0  0  0  0  0  0  0  0  0  0  0
   58.3340   29.3710   45.6070 C   0  0  0  0  0  0  0  0  0  0  0  0
   57.7980   30.0590   44.4710 N   0  0  0  0  0  0  0  0  0  0  0  0
   56.8700   31.1510   44.5080 C   0  0  0  0  0  0  0  0  0  0  0  0
   55.6360   30.8940   44.4790 O   0  0  0  0  0  0  0  0  0  0  0  0
   57.3250   32.5650   44.7640 C   0  0  0  0  0  0  0  0  0  0  0  0
   58.2180   32.6310   45.9190 N   0  0  0  0  0  0  0  0  0  0  0  0
   59.1580   33.7030   46.1050 C   0  0  0  0  0  0  0  0  0  0  0  0
   59.1550   34.6770   45.3050 O   0  0  0  0  0  0  0  0  0  0  0  0
   60.1150   33.6970   47.2380 C   0  0  0  0  0  0  0  0  0  0  0  0
   59.7170   34.1840   48.4960 C   0  0  0  0  0  0  0  0  0  0  0  0
   60.6060   34.1770   49.5740 C   0  0  0  0  0  0  0  0  0  0  0  0
   61.9070   33.6890   49.4120 C   0  0  0  0  0  0  0  0  0  0  0  0
   63.0150   33.6750   50.7810 S   0  0  0  0  0  0  0  0  0  0  0  0
   62.2220   33.4560   52.0400 O   0  0  0  0  0  0  0  0  0  0  0  0
   63.7350   34.9930   50.8730 O   0  0  0  0  0  0  0  0  0  0  0  0
   64.1790   32.3890   50.5800 N   0  0  0  0  0  0  0  0  0  0  0  0
   65.1720   32.7250   49.5350 C   0  0  0  0  0  0  0  0  0  0  0  0
   66.5460   33.0840   50.1300 C   0  0  0  0  0  0  0  0  0  0  0  0
   67.0960   32.0450   50.9250 O   0  0  0  0  0  0  0  0  0  0  0  0
   66.1270   31.3200   51.6740 C   0  0  0  0  0  0  0  0  0  0  0  0
   64.7980   32.0650   51.8800 C   0  0  0  0  0  0  0  0  0  0  0  0
   62.3190   33.2230   48.1580 C   0  0  0  0  0  0  0  0  0  0  0  0
   61.4320   33.2270   47.0770 C   0  0  0  0  0  0  0  0  0  0  0  0
   59.3810   29.9600   46.3280 C   0  0  0  0  0  0  0  0  0  0  0  0
   62.3490   29.6270   51.3320 H   0  0  0  0  0  0  0  0  0  0  0  0
   62.6300   31.3580   51.6570 H   0  0  0  0  0  0  0  0  0  0  0  0
   60.0694   31.5461   52.9647 H   0  0  0  0  0  0  0  0  0  0  0  0
   57.7370   32.1420   52.3240 H   0  0  0  0  0  0  0  0  0  0  0  0
   56.9752   31.8568   49.9653 H   0  0  0  0  0  0  0  0  0  0  0  0
   58.5424   30.9625   48.2459 H   0  0  0  0  0  0  0  0  0  0  0  0
   59.7665   27.6121   48.7851 H   0  0  0  0  0  0  0  0  0  0  0  0
   57.8555   26.5881   47.5474 H   0  0  0  0  0  0  0  0  0  0  0  0
   56.9267   27.7178   45.5243 H   0  0  0  0  0  0  0  0  0  0  0  0
   57.8580   32.9368   43.8765 H   0  0  0  0  0  0  0  0  0  0  0  0
   56.4397   33.1839   44.9719 H   0  0  0  0  0  0  0  0  0  0  0  0
   58.1160   31.8940   46.6520 H   0  0  0  0  0  0  0  0  0  0  0  0
   58.6974   34.5736   48.6324 H   0  0  0  0  0  0  0  0  0  0  0  0
   60.2815   34.5568   50.5540 H   0  0  0  0  0  0  0  0  0  0  0  0
   65.2907   31.8585   48.8678 H   0  0  0  0  0  0  0  0  0  0  0  0
   64.8013   33.6045   48.9882 H   0  0  0  0  0  0  0  0  0  0  0  0
   67.2403   33.2980   49.3041 H   0  0  0  0  0  0  0  0  0  0  0  0
   66.4029   33.9570   50.7837 H   0  0  0  0  0  0  0  0  0  0  0  0
   65.9159   30.3793   51.1445 H   0  0  0  0  0  0  0  0  0  0  0  0
   66.5568   31.1612   52.6740 H   0  0  0  0  0  0  0  0  0  0  0  0
   64.1123   31.4285   52.4586 H   0  0  0  0  0  0  0  0  0  0  0  0
   64.9959   33.0012   52.4225 H   0  0  0  0  0  0  0  0  0  0  0  0
   63.3456   32.8518   48.0223 H   0  0  0  0  0  0  0  0  0  0  0  0
   61.7655   32.8606   46.0949 H   0  0  0  0  0  0  0  0  0  0  0  0
   59.7931   30.9269   46.0035 H   0  0  0  0  0  0  0  0  0  0  0  0
  1  2  1  0
  2  3  2  0
  3  4  1  0
  4  5  2  0
  5  6  1  0
  6  7  2  0
  7  8  1  0
  8  9  1  0
  9 10  2  0
 10 11  1  0
 11 12  2  0
 12 13  1  0
 13 14  1  0
 14 15  1  0
 15 16  2  0
 15 17  1  0
 17 18  1  0
 18 19  1  0
 19 20  2  0
 19 21  1  0
 21 22  2  0
 22 23  1  0
 23 24  2  0
 24 25  1  0
 25 26  2  0
 25 27  2  0
 25 28  1  0
 28 29  1  0
 29 30  1  0
 30 31  1  0
 31 32  1  0
 32 33  1  0
 24 34  1  0
 34 35  2  0
 13 36  2  0
  7  2  1  0
 36  9  1  0
 35 21  1  0
 33 28  1  0
  1 37  1  0
  1 38  1  0
  3 39  1  0
  4 40  1  0
  5 41  1  0
  6 42  1  0
 10 43  1  0
 11 44  1  0
 12 45  1  0
 17 46  1  0
 17 47  1  0
 18 48  1  0
 22 49  1  0
 23 50  1  0
 29 51  1  0
 29 52  1  0
 30 53  1  0
 30 54  1  0
 32 55  1  0
 32 56  1  0
 33 57  1  0
 33 58  1  0
 34 59  1  0
 35 60  1  0
 36 61  1  0
M  CHG  1  14  -1
M  END
>  <UniqueID>  (51) 
49

>  <SMILES>  (51) 
Nc1ccccc1Sc1cccc([N-]C(=O)CNC(=O)c2ccc(S(=O)(=O)N3CCOCC3)cc2)c1

>  <Energy>  (51) 
78.76568694396586

>  <Genealogy>  (51) 
Nc1ccccc1Sc1cccc([N-]C(=O)CNC(=O)c2ccc(S(=O)(=O)N3CCOCC3)cc2)c1 (protonated)
Nc1ccccc1Sc1cccc([N-]C(=O)CNC(=O)c2ccc(S(=O)(=O)N3CCOCC3)cc2)c1 (3D coordinates assigned)
Nc1ccccc1Sc1cccc([N-]C(=O)CNC(=O)c2ccc(S(=O)(=O)N3CCOCC3)cc2)c1 (nonaromatic ring conformer: 78.76568694396586 kcal/mol)

>  <smiles>  (51) 
Nc1ccccc1Sc1cccc(NC(=O)CNC(=O)c2ccc(S(=O)(=O)N3CCOCC3)cc2)c1

>  <score_type>  (51) 
oracle

>  <origin>  (51) 
adg

>  <m_score__min__energy>  (51) 
-12.460000000000001

>  <m_primary>  (51) 
energy

$$$$
51:0
     RDKit          3D

 50 52  0  0  0  0  0  0  0  0999 V2000
   60.3810   27.6840   46.1180 C   0  0  0  0  0  0  0  0  0  0  0  0
   58.6920   27.8530   46.6620 S   0  0  0  0  0  0  0  0  0  0  0  0
   58.0420   26.4980   46.5920 O   0  0  0  0  0  0  0  0  0  0  0  0
   58.7080   28.3280   48.0880 O   0  0  0  0  0  0  0  0  0  0  0  0
   57.7610   28.9950   45.6770 C   0  0  0  0  0  0  0  0  0  0  0  0
   58.3260   30.2350   45.3270 C   0  0  0  0  0  0  0  0  0  0  0  0
   57.6100   31.1550   44.5420 C   0  0  0  0  0  0  0  0  0  0  0  0
   58.1480   32.4380   44.1920 N   0  0  0  0  0  0  0  0  0  0  0  0
   58.2370   33.5900   45.0420 C   0  0  0  0  0  0  0  0  0  0  0  0
   57.4690   34.5730   44.8520 O   0  0  0  0  0  0  0  0  0  0  0  0
   59.1640   33.6110   46.1460 N   0  0  0  0  0  0  0  0  0  0  0  0
   60.0550   32.4740   46.4120 C   0  0  0  0  0  0  0  0  0  0  0  0
   61.4720   32.9620   46.7490 C   0  0  0  0  0  0  0  0  0  0  0  0
   61.5420   34.2080   47.6910 C   0  0  0  0  0  0  0  0  0  0  0  0
   62.5460   33.9690   48.7730 N   0  0  0  0  0  0  0  0  0  0  0  0
   61.9150   33.3360   49.9570 C   0  0  0  0  0  0  0  0  0  0  0  0
   62.7460   33.6140   51.2200 C   0  0  0  0  0  0  0  0  0  0  0  0
   64.5410   33.8030   50.8910 S   0  0  0  0  0  0  0  0  0  0  0  0
   64.5750   32.6410   49.4900 C   0  0  0  0  0  0  0  0  0  0  0  0
   63.7090   33.1540   48.3270 C   0  0  0  0  0  0  0  0  0  0  0  0
   60.1310   34.5540   48.2370 C   0  0  0  0  0  0  0  0  0  0  0  0
   59.1280   34.7360   47.0910 C   0  0  0  0  0  0  0  0  0  0  0  0
   56.3060   30.8470   44.1450 C   0  0  0  0  0  0  0  0  0  0  0  0
   55.7350   29.6210   44.4850 C   0  0  0  0  0  0  0  0  0  0  0  0
   56.4500   28.6860   45.2410 C   0  0  0  0  0  0  0  0  0  0  0  0
   55.8280   27.4730   45.5390 O   0  0  0  0  0  0  0  0  0  0  0  0
   61.0434   27.6177   46.9937 H   0  0  0  0  0  0  0  0  0  0  0  0
   60.4815   26.7713   45.5123 H   0  0  0  0  0  0  0  0  0  0  0  0
   60.6604   28.5587   45.5123 H   0  0  0  0  0  0  0  0  0  0  0  0
   59.3397   30.4873   45.6717 H   0  0  0  0  0  0  0  0  0  0  0  0
   59.6603   31.8969   47.2612 H   0  0  0  0  0  0  0  0  0  0  0  0
   60.1027   31.8438   45.5117 H   0  0  0  0  0  0  0  0  0  0  0  0
   62.0090   32.1357   47.2377 H   0  0  0  0  0  0  0  0  0  0  0  0
   61.9211   33.2756   45.7951 H   0  0  0  0  0  0  0  0  0  0  0  0
   61.8806   35.0877   47.1240 H   0  0  0  0  0  0  0  0  0  0  0  0
   60.9033   33.7463   50.0913 H   0  0  0  0  0  0  0  0  0  0  0  0
   61.8638   32.2491   49.7957 H   0  0  0  0  0  0  0  0  0  0  0  0
   62.3774   34.5420   51.6816 H   0  0  0  0  0  0  0  0  0  0  0  0
   62.6291   32.7428   51.8814 H   0  0  0  0  0  0  0  0  0  0  0  0
   65.6124   32.5266   49.1427 H   0  0  0  0  0  0  0  0  0  0  0  0
   64.1724   31.6743   49.8267 H   0  0  0  0  0  0  0  0  0  0  0  0
   64.3378   33.7732   47.6703 H   0  0  0  0  0  0  0  0  0  0  0  0
   63.3079   32.2721   47.8062 H   0  0  0  0  0  0  0  0  0  0  0  0
   59.7876   33.7377   48.8895 H   0  0  0  0  0  0  0  0  0  0  0  0
   60.1945   35.4966   48.8004 H   0  0  0  0  0  0  0  0  0  0  0  0
   58.1154   34.8128   47.5138 H   0  0  0  0  0  0  0  0  0  0  0  0
   59.3998   35.6500   46.5427 H   0  0  0  0  0  0  0  0  0  0  0  0
   55.7261   31.5764   43.5605 H   0  0  0  0  0  0  0  0  0  0  0  0
   54.7120   29.3868   44.1554 H   0  0  0  0  0  0  0  0  0  0  0  0
   56.2390   26.5700   45.3460 H   0  0  0  0  0  0  0  0  0  0  0  0
  1  2  1  0
  2  3  2  0
  2  4  2  0
  2  5  1  0
  5  6  2  0
  6  7  1  0
  7  8  1  0
  8  9  1  0
  9 10  2  0
  9 11  1  0
 11 12  1  0
 12 13  1  0
 13 14  1  0
 14 15  1  0
 15 16  1  0
 16 17  1  0
 17 18  1  0
 18 19  1  0
 19 20  1  0
 14 21  1  0
 21 22  1  0
  7 23  2  0
 23 24  1  0
 24 25  2  0
 25 26  1  0
 25  5  1  0
 22 11  1  0
 20 15  1  0
  1 27  1  0
  1 28  1  0
  1 29  1  0
  6 30  1  0
 12 31  1  0
 12 32  1  0
 13 33  1  0
 13 34  1  0
 14 35  1  0
 16 36  1  0
 16 37  1  0
 17 38  1  0
 17 39  1  0
 19 40  1  0
 19 41  1  0
 20 42  1  0
 20 43  1  0
 21 44  1  0
 21 45  1  0
 22 46  1  0
 22 47  1  0
 23 48  1  0
 24 49  1  0
 26 50  1  0
M  CHG  1   8  -1
M  END
>  <UniqueID>  (52) 
50

>  <SMILES>  (52) 
CS(=O)(=O)c1cc([N-]C(=O)N2CCC(N3CCSCC3)CC2)ccc1O

>  <Energy>  (52) 
66.06413577326283

>  <Genealogy>  (52) 
CS(=O)(=O)c1cc([N-]C(=O)N2CCC(N3CCSCC3)CC2)ccc1O (protonated)
CS(=O)(=O)c1cc([N-]C(=O)N2CCC(N3CCSCC3)CC2)ccc1O (3D coordinates assigned)
CS(=O)(=O)c1cc([N-]C(=O)N2CCC(N3CCSCC3)CC2)ccc1O (nonaromatic ring conformer: 66.06413577326283 kcal/mol)

>  <smiles>  (52) 
CS(=O)(=O)c1cc(NC(=O)N2CCC(N3CCSCC3)CC2)ccc1O

>  <score_type>  (52) 
oracle

>  <origin>  (52) 
adg

>  <m_score__min__energy>  (52) 
-9.8399999999999999

>  <m_primary>  (52) 
energy

$$$$
52:0
     RDKit          3D

 56 59  0  0  0  0  0  0  0  0999 V2000
   57.4390   31.2180   54.1720 C   0  0  0  0  0  0  0  0  0  0  0  0
   57.0580   31.4180   52.7650 N   0  0  0  0  0  0  0  0  0  0  0  0
   55.7320   30.9670   52.3180 C   0  0  0  0  0  0  0  0  0  0  0  0
   57.9740   32.0530   51.8320 C   0  0  0  0  0  0  0  0  0  0  0  0
   58.3980   31.3840   50.6640 C   0  0  0  0  0  0  0  0  0  0  0  0
   59.2690   32.0020   49.7600 C   0  0  0  0  0  0  0  0  0  0  0  0
   59.7430   33.3030   49.9980 C   0  0  0  0  0  0  0  0  0  0  0  0
   60.6570   33.9600   49.0340 C   0  0  0  0  0  0  0  0  0  0  0  0
   61.8940   34.0090   49.2740 O   0  0  0  0  0  0  0  0  0  0  0  0
   60.1270   34.5800   47.8520 N   0  0  0  0  0  0  0  0  0  0  0  0
   59.4020   33.9420   46.7930 C   0  0  0  0  0  0  0  0  0  0  0  0
   58.9570   34.7280   45.7240 C   0  0  0  0  0  0  0  0  0  0  0  0
   58.1910   34.1640   44.7000 C   0  0  0  0  0  0  0  0  0  0  0  0
   57.8610   32.8070   44.7360 C   0  0  0  0  0  0  0  0  0  0  0  0
   58.2940   32.0000   45.8020 C   0  0  0  0  0  0  0  0  0  0  0  0
   57.9340   30.5640   45.8520 C   0  0  0  0  0  0  0  0  0  0  0  0
   58.4870   29.7280   46.8380 C   0  0  0  0  0  0  0  0  0  0  0  0
   58.1390   28.3750   46.8950 C   0  0  0  0  0  0  0  0  0  0  0  0
   57.2180   27.8450   45.9800 C   0  0  0  0  0  0  0  0  0  0  0  0
   56.8160   26.4320   46.0710 C   0  0  0  0  0  0  0  0  0  0  0  0
   57.7050   25.5510   46.2330 O   0  0  0  0  0  0  0  0  0  0  0  0
   55.4390   26.0320   45.9890 N   0  0  0  0  0  0  0  0  0  0  0  0
   54.9690   24.6500   45.9480 C   0  0  0  0  0  0  0  0  0  0  0  0
   55.0350   24.1120   44.5090 C   0  0  0  0  0  0  0  0  0  0  0  0
   56.4100   24.0960   43.8540 C   0  0  0  0  0  0  0  0  0  0  0  0
   55.7960   22.8020   44.3650 C   0  0  0  0  0  0  0  0  0  0  0  0
   56.6750   28.6700   44.9860 C   0  0  0  0  0  0  0  0  0  0  0  0
   57.0350   30.0200   44.9200 C   0  0  0  0  0  0  0  0  0  0  0  0
   59.0550   32.5790   46.8360 C   0  0  0  0  0  0  0  0  0  0  0  0
   59.3260   33.9730   51.1600 C   0  0  0  0  0  0  0  0  0  0  0  0
   58.4560   33.3580   52.0650 C   0  0  0  0  0  0  0  0  0  0  0  0
   56.6558   31.6291   54.8259 H   0  0  0  0  0  0  0  0  0  0  0  0
   57.5556   30.1424   54.3710 H   0  0  0  0  0  0  0  0  0  0  0  0
   58.3905   31.7329   54.3710 H   0  0  0  0  0  0  0  0  0  0  0  0
   55.1028   30.7530   53.1945 H   0  0  0  0  0  0  0  0  0  0  0  0
   55.2613   31.7556   51.7125 H   0  0  0  0  0  0  0  0  0  0  0  0
   55.8398   30.0550   51.7125 H   0  0  0  0  0  0  0  0  0  0  0  0
   58.0393   30.3640   50.4618 H   0  0  0  0  0  0  0  0  0  0  0  0
   59.5857   31.4641   48.8543 H   0  0  0  0  0  0  0  0  0  0  0  0
   59.2120   35.7975   45.6894 H   0  0  0  0  0  0  0  0  0  0  0  0
   57.8471   34.7902   43.8636 H   0  0  0  0  0  0  0  0  0  0  0  0
   57.2595   32.3682   43.9263 H   0  0  0  0  0  0  0  0  0  0  0  0
   59.1977   30.1409   47.5690 H   0  0  0  0  0  0  0  0  0  0  0  0
   58.5889   27.7246   47.6596 H   0  0  0  0  0  0  0  0  0  0  0  0
   55.6044   24.0302   46.5977 H   0  0  0  0  0  0  0  0  0  0  0  0
   53.9270   24.6135   46.2986 H   0  0  0  0  0  0  0  0  0  0  0  0
   54.0465   24.4910   44.2101 H   0  0  0  0  0  0  0  0  0  0  0  0
   56.5059   24.2696   42.7720 H   0  0  0  0  0  0  0  0  0  0  0  0
   57.3584   24.6269   44.0232 H   0  0  0  0  0  0  0  0  0  0  0  0
   55.4482   22.0396   43.6525 H   0  0  0  0  0  0  0  0  0  0  0  0
   56.1170   22.0094   45.0569 H   0  0  0  0  0  0  0  0  0  0  0  0
   55.9642   28.2551   44.2562 H   0  0  0  0  0  0  0  0  0  0  0  0
   56.6110   30.6603   44.1325 H   0  0  0  0  0  0  0  0  0  0  0  0
   59.3811   31.9601   47.6849 H   0  0  0  0  0  0  0  0  0  0  0  0
   59.6878   34.9924   51.3600 H   0  0  0  0  0  0  0  0  0  0  0  0
   58.1433   33.8987   52.9705 H   0  0  0  0  0  0  0  0  0  0  0  0
  1  2  1  0
  2  3  1  0
  2  4  1  0
  4  5  2  0
  5  6  1  0
  6  7  2  0
  7  8  1  0
  8  9  2  0
  8 10  1  0
 10 11  1  0
 11 12  2  0
 12 13  1  0
 13 14  2  0
 14 15  1  0
 15 16  1  0
 16 17  2  0
 17 18  1  0
 18 19  2  0
 19 20  1  0
 20 21  2  0
 20 22  1  0
 22 23  1  0
 23 24  1  0
 24 25  1  0
 25 26  1  0
 19 27  1  0
 27 28  2  0
 15 29  2  0
  7 30  1  0
 30 31  2  0
 31  4  1  0
 29 11  1  0
 28 16  1  0
 26 24  1  0
  1 32  1  0
  1 33  1  0
  1 34  1  0
  3 35  1  0
  3 36  1  0
  3 37  1  0
  5 38  1  0
  6 39  1  0
 12 40  1  0
 13 41  1  0
 14 42  1  0
 17 43  1  0
 18 44  1  0
 23 45  1  0
 23 46  1  0
 24 47  1  0
 25 48  1  0
 25 49  1  0
 26 50  1  0
 26 51  1  0
 27 52  1  0
 28 53  1  0
 29 54  1  0
 30 55  1  0
 31 56  1  0
M  CHG  2  10  -1  22  -1
M  END
>  <UniqueID>  (53) 
51

>  <SMILES>  (53) 
CN(C)c1ccc(C(=O)[N-]c2cccc(-c3ccc(C(=O)[N-]CC4CC4)cc3)c2)cc1

>  <Energy>  (53) 
336.4092279161088

>  <Genealogy>  (53) 
CN(C)c1ccc(C(=O)[N-]c2cccc(-c3ccc(C(=O)[N-]CC4CC4)cc3)c2)cc1 (protonated)
CN(C)c1ccc(C(=O)[N-]c2cccc(-c3ccc(C(=O)[N-]CC4CC4)cc3)c2)cc1 (3D coordinates assigned)
CN(C)c1ccc(C(=O)[N-]c2cccc(-c3ccc(C(=O)[N-]CC4CC4)cc3)c2)cc1 (nonaromatic ring conformer: 336.4092279161088 kcal/mol)

>  <smiles>  (53) 
CN(C)c1ccc(C(=O)Nc2cccc(-c3ccc(C(=O)NCC4CC4)cc3)c2)cc1

>  <score_type>  (53) 
oracle

>  <origin>  (53) 
adg

>  <m_score__min__energy>  (53) 
-11.56

>  <m_primary>  (53) 
energy

$$$$
53:0
     RDKit          3D

 38 39  0  0  0  0  0  0  0  0999 V2000
   60.2218   34.7857   44.2930 H   0  0  0  0  0  0  0  0  0  0  0  0
   59.5400   34.3140   45.0160 C   0  0  0  0  0  0  0  0  0  0  0  0
   59.7540   34.7230   46.7530 S   0  0  0  0  0  0  0  0  0  0  0  0
   59.8340   33.0000   47.2400 C   0  0  0  0  0  0  0  0  0  0  0  0
   60.9090   32.2030   46.8270 C   0  0  0  0  0  0  0  0  0  0  0  0
   61.7079   32.6370   46.2078 H   0  0  0  0  0  0  0  0  0  0  0  0
   60.9690   30.8570   47.2000 C   0  0  0  0  0  0  0  0  0  0  0  0
   61.8158   30.2353   46.8738 H   0  0  0  0  0  0  0  0  0  0  0  0
   59.9530   30.2960   47.9890 C   0  0  0  0  0  0  0  0  0  0  0  0
   60.0360   28.8610   48.4230 C   0  0  0  0  0  0  0  0  0  0  0  0
   60.0390   28.8098   49.5218 H   0  0  0  0  0  0  0  0  0  0  0  0
   59.1683   28.3091   48.0326 H   0  0  0  0  0  0  0  0  0  0  0  0
   60.9616   28.4128   48.0326 H   0  0  0  0  0  0  0  0  0  0  0  0
   58.8900   31.1040   48.4230 C   0  0  0  0  0  0  0  0  0  0  0  0
   58.1021   30.6776   49.0613 H   0  0  0  0  0  0  0  0  0  0  0  0
   58.8300   32.4500   48.0460 C   0  0  0  0  0  0  0  0  0  0  0  0
   57.9921   33.0776   48.3836 H   0  0  0  0  0  0  0  0  0  0  0  0
   58.6100   33.4760   44.5380 C   0  0  0  0  0  0  0  0  0  0  0  0
   58.8760   32.8894   43.6463 H   0  0  0  0  0  0  0  0  0  0  0  0
   57.2610   33.2690   45.1000 C   0  0  0  0  0  0  0  0  0  0  0  0
   56.6070   34.2180   45.6110 O   0  0  0  0  0  0  0  0  0  0  0  0
   56.6820   31.9660   45.0280 N   0  0  0  0  0  0  0  0  0  0  0  0
   56.9950   31.0180   43.9680 C   0  0  0  0  0  0  0  0  0  0  0  0
   56.0980   30.8445   43.3554 H   0  0  0  0  0  0  0  0  0  0  0  0
   57.7981   31.4272   43.3374 H   0  0  0  0  0  0  0  0  0  0  0  0
   57.4480   29.7170   44.5720 C   0  0  0  0  0  0  0  0  0  0  0  0
   56.5220   28.7530   44.9910 C   0  0  0  0  0  0  0  0  0  0  0  0
   55.1550   28.9800   44.8750 O   0  0  0  0  0  0  0  0  0  0  0  0
   56.9640   27.5790   45.5120 N   0  0  0  0  0  0  0  0  0  0  0  0
   58.2650   27.3010   45.6390 N   0  0  0  0  0  0  0  0  0  0  0  0
   58.6520   26.0080   46.2010 C   0  0  0  0  0  0  0  0  0  0  0  0
   58.6347   26.0656   47.2994 H   0  0  0  0  0  0  0  0  0  0  0  0
   57.9458   25.2352   45.8632 H   0  0  0  0  0  0  0  0  0  0  0  0
   59.6666   25.7503   45.8632 H   0  0  0  0  0  0  0  0  0  0  0  0
   59.2100   28.2000   45.2250 C   0  0  0  0  0  0  0  0  0  0  0  0
   60.4410   27.9370   45.3260 O   0  0  0  0  0  0  0  0  0  0  0  0
   58.8100   29.4220   44.6820 C   0  0  0  0  0  0  0  0  0  0  0  0
   59.5624   30.1490   44.3424 H   0  0  0  0  0  0  0  0  0  0  0  0
  1  2  1  0
  2  3  1  0
  3  4  1  0
  4  5  2  0
  5  6  1  0
  5  7  1  0
  7  8  1  0
  7  9  2  0
  9 10  1  0
 10 11  1  0
 10 12  1  0
 10 13  1  0
  9 14  1  0
 14 15  1  0
 14 16  2  0
 16 17  1  0
  2 18  2  0
 18 19  1  0
 18 20  1  0
 20 21  2  0
 20 22  1  0
 22 23  1  0
 23 24  1  0
 23 25  1  0
 23 26  1  0
 26 27  1  0
 27 28  1  0
 27 29  2  0
 29 30  1  0
 30 31  1  0
 31 32  1  0
 31 33  1  0
 31 34  1  0
 30 35  1  0
 35 36  2  0
 35 37  1  0
 37 38  1  0
 16  4  1  0
 37 26  2  0
M  CHG  2  22  -1  28  -1
M  END
>  <UniqueID>  (54) 
52

>  <SMILES>  (54) 
Cc1ccc(S/C=C\C(=O)[N-]Cc2cc(=O)n(C)nc2[O-])cc1

>  <Energy>  (54) 
33.736311371765304

>  <Genealogy>  (54) 
Cc1ccc(SC=CC(=O)[N-]Cc2cc(=O)n(C)nc2[O-])cc1 (protonated)
Cc1ccc(S/C=C\C(=O)[N-]Cc2cc(=O)n(C)nc2[O-])cc1 (cis-trans isomerization)
Cc1ccc(S/C=C\C(=O)[N-]Cc2cc(=O)n(C)nc2[O-])cc1 (3D coordinates assigned)
Cc1ccc(S/C=C\C(=O)[N-]Cc2cc(=O)n(C)nc2[O-])cc1 (optimized conformer: 33.736311371765304 kcal/mol)

>  <smiles>  (54) 
Cc1ccc(SC=CC(=O)NCc2cc(=O)n(C)nc2O)cc1

>  <score_type>  (54) 
oracle

>  <origin>  (54) 
adg

>  <m_score__min__energy>  (54) 
-13.380000000000001

>  <m_primary>  (54) 
energy

$$$$
54:0
     RDKit          3D

 61 65  0  0  0  0  0  0  0  0999 V2000
   59.5840   35.1350   45.6940 C   0  0  0  0  0  0  0  0  0  0  0  0
   59.2370   34.0520   44.8370 O   0  0  0  0  0  0  0  0  0  0  0  0
   57.9460   33.5140   44.7790 C   0  0  0  0  0  0  0  0  0  0  0  0
   56.9480   34.2790   44.8860 O   0  0  0  0  0  0  0  0  0  0  0  0
   57.7650   32.0420   44.6270 C   0  0  0  0  0  0  0  0  0  0  0  0
   57.1770   31.5870   43.5110 C   0  0  0  0  0  0  0  0  0  0  0  0
   57.0460   30.2190   43.2710 O   0  0  0  0  0  0  0  0  0  0  0  0
   57.2000   29.2350   44.2880 C   0  0  1  0  0  0  0  0  0  0  0  0
   57.7680   27.9530   43.6620 C   0  0  0  0  0  0  0  0  0  0  0  0
   58.1310   26.9450   44.7170 C   0  0  0  0  0  0  0  0  0  0  0  0
   58.1470   25.7170   44.4340 O   0  0  0  0  0  0  0  0  0  0  0  0
   58.5610   27.3900   46.0540 C   0  0  0  0  0  0  0  0  0  0  0  0
   58.5610   28.6830   46.3830 C   0  0  0  0  0  0  0  0  0  0  0  0
   58.0780   29.7170   45.4260 C   0  0  0  0  0  0  0  0  0  0  0  0
   58.2910   31.0450   45.6170 C   0  0  0  0  0  0  0  0  0  0  0  0
   59.0750   31.5020   46.7870 C   0  0  0  0  0  0  0  0  0  0  0  0
   58.6080   31.3170   47.9450 O   0  0  0  0  0  0  0  0  0  0  0  0
   60.3120   32.2090   46.5960 N   0  0  0  0  0  0  0  0  0  0  0  0
   61.0970   32.7310   47.6800 C   0  0  0  0  0  0  0  0  0  0  0  0
   62.4920   32.5600   47.7210 C   0  0  0  0  0  0  0  0  0  0  0  0
   63.2270   33.0140   48.8180 C   0  0  0  0  0  0  0  0  0  0  0  0
   62.5810   33.6690   49.8750 C   0  0  0  0  0  0  0  0  0  0  0  0
   63.4780   34.1320   51.3230 S   0  0  0  0  0  0  0  0  0  0  0  0
   63.7880   35.6020   51.2750 O   0  0  0  0  0  0  0  0  0  0  0  0
   62.6150   33.8520   52.5220 O   0  0  0  0  0  0  0  0  0  0  0  0
   64.9640   33.2190   51.4330 N   0  0  0  0  0  0  0  0  0  0  0  0
   66.2040   33.9210   51.0720 C   0  0  0  0  0  0  0  0  0  0  0  0
   67.4540   33.1070   51.4070 C   0  0  0  0  0  0  0  0  0  0  0  0
   67.3420   31.7050   50.8180 C   0  0  0  0  0  0  0  0  0  0  0  0
   66.1090   31.0240   51.3390 C   0  0  0  0  0  0  0  0  0  0  0  0
   66.0940   29.6310   51.4870 C   0  0  0  0  0  0  0  0  0  0  0  0
   64.9580   28.9880   51.9790 C   0  0  0  0  0  0  0  0  0  0  0  0
   63.8290   29.7320   52.3220 C   0  0  0  0  0  0  0  0  0  0  0  0
   63.8250   31.1200   52.1540 C   0  0  0  0  0  0  0  0  0  0  0  0
   64.9530   31.7830   51.6340 C   0  0  0  0  0  0  0  0  0  0  0  0
   61.1980   33.8830   49.8130 C   0  0  0  0  0  0  0  0  0  0  0  0
   60.4630   33.4240   48.7180 C   0  0  0  0  0  0  0  0  0  0  0  0
   59.4829   34.8195   46.7429 H   0  0  0  0  0  0  0  0  0  0  0  0
   60.6239   35.4370   45.5005 H   0  0  0  0  0  0  0  0  0  0  0  0
   58.9133   35.9851   45.5005 H   0  0  0  0  0  0  0  0  0  0  0  0
   56.7913   32.3048   42.7721 H   0  0  0  0  0  0  0  0  0  0  0  0
   56.2114   29.0300   44.7247 H   0  0  0  0  0  0  0  0  0  0  0  0
   57.0123   27.5154   42.9931 H   0  0  0  0  0  0  0  0  0  0  0  0
   58.6785   28.2135   43.1024 H   0  0  0  0  0  0  0  0  0  0  0  0
   58.8875   26.6438   46.7933 H   0  0  0  0  0  0  0  0  0  0  0  0
   58.9230   28.9898   47.3754 H   0  0  0  0  0  0  0  0  0  0  0  0
   60.5420   32.5270   45.6260 H   0  0  0  0  0  0  0  0  0  0  0  0
   63.0072   32.0658   46.8842 H   0  0  0  0  0  0  0  0  0  0  0  0
   64.3152   32.8572   48.8525 H   0  0  0  0  0  0  0  0  0  0  0  0
   66.1935   34.1231   49.9908 H   0  0  0  0  0  0  0  0  0  0  0  0
   66.2441   34.8523   51.6561 H   0  0  0  0  0  0  0  0  0  0  0  0
   68.3379   33.6085   50.9862 H   0  0  0  0  0  0  0  0  0  0  0  0
   67.5508   33.0308   52.5001 H   0  0  0  0  0  0  0  0  0  0  0  0
   67.2837   31.7744   49.7217 H   0  0  0  0  0  0  0  0  0  0  0  0
   68.2269   31.1201   51.1092 H   0  0  0  0  0  0  0  0  0  0  0  0
   66.9818   29.0417   51.2141 H   0  0  0  0  0  0  0  0  0  0  0  0
   64.9525   27.8943   52.0965 H   0  0  0  0  0  0  0  0  0  0  0  0
   62.9398   29.2255   52.7256 H   0  0  0  0  0  0  0  0  0  0  0  0
   62.9320   31.6996   52.4307 H   0  0  0  0  0  0  0  0  0  0  0  0
   60.6889   34.4148   50.6303 H   0  0  0  0  0  0  0  0  0  0  0  0
   59.3795   33.6080   48.6708 H   0  0  0  0  0  0  0  0  0  0  0  0
  1  2  1  0
  2  3  1  0
  3  4  2  0
  3  5  1  0
  5  6  2  0
  6  7  1  0
  7  8  1  0
  8  9  1  0
  9 10  1  0
 10 11  2  0
 10 12  1  0
 12 13  2  0
 13 14  1  0
 14 15  2  0
 15 16  1  0
 16 17  2  0
 16 18  1  0
 18 19  1  0
 19 20  2  0
 20 21  1  0
 21 22  2  0
 22 23  1  0
 23 24  2  0
 23 25  2  0
 23 26  1  0
 26 27  1  0
 27 28  1  0
 28 29  1  0
 29 30  1  0
 30 31  2  0
 31 32  1  0
 32 33  2  0
 33 34  1  0
 34 35  2  0
 22 36  1  0
 36 37  2  0
 15  5  1  0
 37 19  1  0
 14  8  1  0
 35 26  1  0
 35 30  1  0
  1 38  1  0
  1 39  1  0
  1 40  1  0
  6 41  1  0
  8 42  1  1
  9 43  1  0
  9 44  1  0
 12 45  1  0
 13 46  1  0
 18 47  1  0
 20 48  1  0
 21 49  1  0
 27 50  1  0
 27 51  1  0
 28 52  1  0
 28 53  1  0
 29 54  1  0
 29 55  1  0
 31 56  1  0
 32 57  1  0
 33 58  1  0
 34 59  1  0
 36 60  1  0
 37 61  1  0
M  END
>  <UniqueID>  (55) 
53

>  <SMILES>  (55) 
COC(=O)C1=CO[C@H]2CC(=O)C=CC2=C1C(=O)Nc1ccc(S(=O)(=O)N2CCCc3ccccc32)cc1

>  <Energy>  (55) 
85.80599043762707

>  <Genealogy>  (55) 
COC(=O)C1=CO[C@H]2CC(=O)C=CC2=C1C(=O)Nc1ccc(S(=O)(=O)N2CCCc3ccccc32)cc1 (chirality)
COC(=O)C1=CO[C@H]2CC(=O)C=CC2=C1C(=O)Nc1ccc(S(=O)(=O)N2CCCc3ccccc32)cc1 (3D coordinates assigned)
COC(=O)C1=CO[C@H]2CC(=O)C=CC2=C1C(=O)Nc1ccc(S(=O)(=O)N2CCCc3ccccc32)cc1 (nonaromatic ring conformer: 85.80599043762707 kcal/mol)

>  <smiles>  (55) 
COC(=O)C1=COC2CC(=O)C=CC2=C1C(=O)Nc1ccc(S(=O)(=O)N2CCCc3ccccc32)cc1

>  <score_type>  (55) 
oracle

>  <origin>  (55) 
adg

>  <m_score__min__energy>  (55) 
-9.8699999999999992

>  <m_primary>  (55) 
energy

$$$$
55:0
     RDKit          3D

 59 63  0  0  0  0  0  0  0  0999 V2000
   58.9309   28.3836   43.2650 H   0  0  0  0  0  0  0  0  0  0  0  0
   58.4350   27.4490   43.5660 C   0  0  0  0  0  0  0  0  0  0  0  0
   57.8245   26.8919   42.8402 H   0  0  0  0  0  0  0  0  0  0  0  0
   58.5750   26.9880   44.8200 C   0  0  0  0  0  0  0  0  0  0  0  0
   58.0000   25.8150   45.3340 C   0  0  0  0  0  0  0  0  0  0  0  0
   57.2100   24.9410   44.6700 C   0  0  0  0  0  0  0  0  0  0  0  0
   57.6382   24.4562   43.7803 H   0  0  0  0  0  0  0  0  0  0  0  0
   55.8200   24.5770   45.0320 C   0  0  0  0  0  0  0  0  0  0  0  0
   55.2300   23.3870   44.8200 N   0  0  0  0  0  0  0  0  0  0  0  0
   53.9800   23.5610   45.2990 C   0  0  0  0  0  0  0  0  0  0  0  0
   53.1130   22.6500   45.2790 O   0  0  0  0  0  0  0  0  0  0  0  0
   53.7330   24.7900   45.8000 N   0  0  0  0  0  0  0  0  0  0  0  0
   54.9060   25.4190   45.6210 C   0  0  0  0  0  0  0  0  0  0  0  0
   55.1350   26.7390   45.9890 O   0  0  0  0  0  0  0  0  0  0  0  0
   58.4060   25.7410   46.6600 C   0  0  0  0  0  0  0  0  0  0  0  0
   58.1530   24.9485   47.3797 H   0  0  0  0  0  0  0  0  0  0  0  0
   59.1860   26.8500   46.9010 C   0  0  0  0  0  0  0  0  0  0  0  0
   59.7960   27.1480   48.2090 C   0  0  0  0  0  0  0  0  0  0  0  0
   60.3310   26.2100   48.8590 O   0  0  0  0  0  0  0  0  0  0  0  0
   59.7480   28.4740   48.7660 N   0  0  0  0  0  0  0  0  0  0  0  0
   60.7290   28.8870   49.7690 C   0  0  0  0  0  0  0  0  0  0  0  0
   60.3188   28.7175   50.7755 H   0  0  0  0  0  0  0  0  0  0  0  0
   61.6505   28.2989   49.6464 H   0  0  0  0  0  0  0  0  0  0  0  0
   61.0430   30.3740   49.5890 C   0  0  0  0  0  0  0  0  0  0  0  0
   61.7227   30.6895   50.3943 H   0  0  0  0  0  0  0  0  0  0  0  0
   61.5004   30.4976   48.5963 H   0  0  0  0  0  0  0  0  0  0  0  0
   59.8260   31.2310   49.6310 N   0  0  0  0  0  0  0  0  0  0  0  0
   59.8750   32.5120   48.8750 C   0  0  0  0  0  0  0  0  0  0  0  0
   59.1745   32.2249   48.0770 H   0  0  0  0  0  0  0  0  0  0  0  0
   61.2750   33.0190   48.5210 C   0  0  0  0  0  0  0  0  0  0  0  0
   62.0916   32.3841   48.8952 H   0  0  0  0  0  0  0  0  0  0  0  0
   61.5907   33.1014   47.4705 H   0  0  0  0  0  0  0  0  0  0  0  0
   61.0250   34.2710   49.3560 C   0  0  0  0  0  0  0  0  0  0  0  0
   61.6937   34.3709   50.2237 H   0  0  0  0  0  0  0  0  0  0  0  0
   61.1622   35.2681   48.9121 H   0  0  0  0  0  0  0  0  0  0  0  0
   59.6260   33.7730   49.7050 C   0  0  0  0  0  0  0  0  0  0  0  0
   59.4705   33.5826   50.7772 H   0  0  0  0  0  0  0  0  0  0  0  0
   58.7447   34.4029   49.5139 H   0  0  0  0  0  0  0  0  0  0  0  0
   58.5330   30.5240   49.4630 C   0  0  0  0  0  0  0  0  0  0  0  0
   58.2184   30.1333   50.4420 H   0  0  0  0  0  0  0  0  0  0  0  0
   57.8134   31.2505   49.0575 H   0  0  0  0  0  0  0  0  0  0  0  0
   58.6080   29.3530   48.4710 C   0  0  0  0  0  0  0  0  0  0  0  0
   57.6786   28.7682   48.5364 H   0  0  0  0  0  0  0  0  0  0  0  0
   58.7397   29.7638   47.4591 H   0  0  0  0  0  0  0  0  0  0  0  0
   59.3040   27.6110   45.7870 N   0  0  0  0  0  0  0  0  0  0  0  0
   60.2270   28.7490   45.6260 C   0  0  0  0  0  0  0  0  0  0  0  0
   60.9148   28.7820   46.4838 H   0  0  0  0  0  0  0  0  0  0  0  0
   60.7936   28.6196   44.6921 H   0  0  0  0  0  0  0  0  0  0  0  0
   59.4580   30.0430   45.5560 C   0  0  0  0  0  0  0  0  0  0  0  0
   60.0310   31.2320   46.0390 C   0  0  0  0  0  0  0  0  0  0  0  0
   61.0318   31.2111   46.4950 H   0  0  0  0  0  0  0  0  0  0  0  0
   59.3360   32.4410   45.9430 C   0  0  0  0  0  0  0  0  0  0  0  0
   59.7885   33.3671   46.3272 H   0  0  0  0  0  0  0  0  0  0  0  0
   58.0660   32.4740   45.3590 C   0  0  0  0  0  0  0  0  0  0  0  0
   57.1180   34.1280   45.2260 Br  0  0  0  0  0  0  0  0  0  0  0  0
   57.4890   31.2970   44.8740 C   0  0  0  0  0  0  0  0  0  0  0  0
   56.4895   31.3235   44.4155 H   0  0  0  0  0  0  0  0  0  0  0  0
   58.1810   30.0860   44.9710 C   0  0  0  0  0  0  0  0  0  0  0  0
   57.7235   29.1621   44.5874 H   0  0  0  0  0  0  0  0  0  0  0  0
  1  2  1  0
  2  3  1  0
  2  4  2  0
  4  5  1  0
  5  6  2  0
  6  7  1  0
  6  8  1  0
  8  9  1  0
  9 10  1  0
 10 11  2  0
 10 12  1  0
 12 13  1  0
 13 14  1  0
  5 15  1  0
 15 16  1  0
 15 17  2  0
 17 18  1  0
 18 19  2  0
 18 20  1  0
 20 21  1  0
 21 22  1  0
 21 23  1  0
 21 24  1  0
 24 25  1  0
 24 26  1  0
 24 27  1  0
 27 28  1  0
 28 29  1  0
 28 30  1  0
 30 31  1  0
 30 32  1  0
 30 33  1  0
 33 34  1  0
 33 35  1  0
 33 36  1  0
 36 37  1  0
 36 38  1  0
 27 39  1  0
 39 40  1  0
 39 41  1  0
 39 42  1  0
 42 43  1  0
 42 44  1  0
 17 45  1  0
 45 46  1  0
 46 47  1  0
 46 48  1  0
 46 49  1  0
 49 50  2  0
 50 51  1  0
 50 52  1  0
 52 53  1  0
 52 54  2  0
 54 55  1  0
 54 56  1  0
 56 57  1  0
 56 58  2  0
 58 59  1  0
 45  4  1  0
 58 49  1  0
 13  8  2  0
 42 20  1  0
 36 28  1  0
M  CHG  3   9  -1  12  -1  14  -1
M  END
>  <UniqueID>  (56) 
54

>  <SMILES>  (56) 
C=c1/c(=C/c2[n-]c(=O)[n-]c2[O-])cc(C(=O)N2CCN(C3CCC3)CC2)n1Cc1ccc(Br)cc1

>  <Energy>  (56) 
202.94862768231576

>  <Genealogy>  (56) 
C=c1c(=Cc2[n-]c(=O)[n-]c2[O-])cc(C(=O)N2CCN(C3CCC3)CC2)n1Cc1ccc(Br)cc1 (protonated)
C=c1/c(=C/c2[n-]c(=O)[n-]c2[O-])cc(C(=O)N2CCN(C3CCC3)CC2)n1Cc1ccc(Br)cc1 (cis-trans isomerization)
C=c1/c(=C/c2[n-]c(=O)[n-]c2[O-])cc(C(=O)N2CCN(C3CCC3)CC2)n1Cc1ccc(Br)cc1 (3D coordinates assigned)
C=c1/c(=C/c2[n-]c(=O)[n-]c2[O-])cc(C(=O)N2CCN(C3CCC3)CC2)n1Cc1ccc(Br)cc1 (nonaromatic ring conformer: 202.94862768231576 kcal/mol)

>  <smiles>  (56) 
C=c1c(=Cc2[nH]c(=O)[nH]c2O)cc(C(=O)N2CCN(C3CCC3)CC2)n1Cc1ccc(Br)cc1

>  <score_type>  (56) 
oracle

>  <origin>  (56) 
adg

>  <m_score__min__energy>  (56) 
-17.23

>  <m_primary>  (56) 
energy

$$$$
56:0
     RDKit          3D

 54 57  0  0  0  0  0  0  0  0999 V2000
   58.6360   30.1440   51.8680 C   0  0  0  0  0  0  0  0  0  0  0  0
   59.3900   30.1100   50.5710 C   0  0  0  0  0  0  0  0  0  0  0  0
   60.5640   30.8550   50.4130 C   0  0  0  0  0  0  0  0  0  0  0  0
   61.2400   30.8530   49.1910 C   0  0  0  0  0  0  0  0  0  0  0  0
   60.7460   30.1170   48.1010 C   0  0  0  0  0  0  0  0  0  0  0  0
   61.4860   30.1720   46.7940 C   0  0  0  0  0  0  0  0  0  0  0  0
   59.5740   29.3400   48.2660 C   0  0  0  0  0  0  0  0  0  0  0  0
   59.0340   28.5480   47.1970 N   0  0  0  0  0  0  0  0  0  0  0  0
   59.4120   27.1790   46.9850 C   0  0  0  0  0  0  0  0  0  0  0  0
   60.2010   26.6130   47.7910 O   0  0  0  0  0  0  0  0  0  0  0  0
   58.7890   26.3840   45.9010 C   0  0  0  0  0  0  0  0  0  0  0  0
   58.4650   25.0400   46.1470 C   0  0  0  0  0  0  0  0  0  0  0  0
   57.7770   24.2940   45.1920 C   0  0  0  0  0  0  0  0  0  0  0  0
   57.4120   24.8950   43.9890 C   0  0  0  0  0  0  0  0  0  0  0  0
   57.7620   26.1830   43.7400 N   0  0  0  0  0  0  0  0  0  0  0  0
   58.4510   26.9350   44.6410 C   0  0  0  0  0  0  0  0  0  0  0  0
   58.9920   28.5790   44.1390 S   0  0  0  0  0  0  0  0  0  0  0  0
   57.3490   29.1650   43.5840 C   0  0  0  0  0  0  0  0  0  0  0  0
   56.5110   29.6430   44.7260 C   0  0  0  0  0  0  0  0  0  0  0  0
   55.2780   29.3800   44.7460 O   0  0  0  0  0  0  0  0  0  0  0  0
   57.1180   30.3750   45.7960 N   0  0  0  0  0  0  0  0  0  0  0  0
   57.7670   31.6490   45.6730 C   0  0  0  0  0  0  0  0  0  0  0  0
   57.1770   32.6330   44.8750 C   0  0  0  0  0  0  0  0  0  0  0  0
   57.7470   33.9030   44.7870 C   0  0  0  0  0  0  0  0  0  0  0  0
   58.9000   34.2110   45.5140 C   0  0  0  0  0  0  0  0  0  0  0  0
   59.4970   33.2440   46.3460 C   0  0  0  0  0  0  0  0  0  0  0  0
   60.6990   33.5510   47.1680 C   0  0  0  0  0  0  0  0  0  0  0  0
   60.6580   34.0780   48.4660 C   0  0  0  0  0  0  0  0  0  0  0  0
   62.2390   34.2370   49.0250 S   0  0  0  0  0  0  0  0  0  0  0  0
   62.8980   33.6330   47.6080 C   0  0  0  0  0  0  0  0  0  0  0  0
   64.1300   33.4930   47.4000 O   0  0  0  0  0  0  0  0  0  0  0  0
   61.9560   33.3060   46.7030 N   0  0  0  0  0  0  0  0  0  0  0  0
   58.9240   31.9600   46.4090 C   0  0  0  0  0  0  0  0  0  0  0  0
   58.8910   29.3710   49.4900 C   0  0  0  0  0  0  0  0  0  0  0  0
   59.3472   30.1119   52.7065 H   0  0  0  0  0  0  0  0  0  0  0  0
   58.0445   31.0697   51.9241 H   0  0  0  0  0  0  0  0  0  0  0  0
   57.9636   29.2753   51.9241 H   0  0  0  0  0  0  0  0  0  0  0  0
   60.9560   31.4446   51.2548 H   0  0  0  0  0  0  0  0  0  0  0  0
   62.1680   31.4332   49.0808 H   0  0  0  0  0  0  0  0  0  0  0  0
   62.5659   30.2523   46.9872 H   0  0  0  0  0  0  0  0  0  0  0  0
   61.2834   29.2563   46.2191 H   0  0  0  0  0  0  0  0  0  0  0  0
   61.1503   31.0477   46.2191 H   0  0  0  0  0  0  0  0  0  0  0  0
   58.1530   28.8850   46.7470 H   0  0  0  0  0  0  0  0  0  0  0  0
   58.7561   24.5731   47.0995 H   0  0  0  0  0  0  0  0  0  0  0  0
   57.5245   23.2411   45.3859 H   0  0  0  0  0  0  0  0  0  0  0  0
   56.8403   24.3260   43.2411 H   0  0  0  0  0  0  0  0  0  0  0  0
   57.4884   29.9938   42.8743 H   0  0  0  0  0  0  0  0  0  0  0  0
   56.8284   28.3196   43.1104 H   0  0  0  0  0  0  0  0  0  0  0  0
   56.2589   32.4049   44.3137 H   0  0  0  0  0  0  0  0  0  0  0  0
   57.2866   34.6660   44.1421 H   0  0  0  0  0  0  0  0  0  0  0  0
   59.3439   35.2144   45.4360 H   0  0  0  0  0  0  0  0  0  0  0  0
   59.7482   34.3427   49.0247 H   0  0  0  0  0  0  0  0  0  0  0  0
   59.3875   31.1894   47.0425 H   0  0  0  0  0  0  0  0  0  0  0  0
   57.9524   28.8086   49.6031 H   0  0  0  0  0  0  0  0  0  0  0  0
  1  2  1  0
  2  3  2  0
  3  4  1  0
  4  5  2  0
  5  6  1  0
  5  7  1  0
  7  8  1  0
  8  9  1  0
  9 10  2  0
  9 11  1  0
 11 12  2  0
 12 13  1  0
 13 14  2  0
 14 15  1  0
 15 16  2  0
 16 17  1  0
 17 18  1  0
 18 19  1  0
 19 20  2  0
 19 21  1  0
 21 22  1  0
 22 23  2  0
 23 24  1  0
 24 25  2  0
 25 26  1  0
 26 27  1  0
 27 28  2  0
 28 29  1  0
 29 30  1  0
 30 31  2  0
 30 32  1  0
 26 33  2  0
  7 34  2  0
 34  2  1  0
 16 11  1  0
 33 22  1  0
 32 27  1  0
  1 35  1  0
  1 36  1  0
  1 37  1  0
  3 38  1  0
  4 39  1  0
  6 40  1  0
  6 41  1  0
  6 42  1  0
  8 43  1  0
 12 44  1  0
 13 45  1  0
 14 46  1  0
 18 47  1  0
 18 48  1  0
 23 49  1  0
 24 50  1  0
 25 51  1  0
 28 52  1  0
 33 53  1  0
 34 54  1  0
M  CHG  2  21  -1  32  -1
M  END
>  <UniqueID>  (57) 
55

>  <SMILES>  (57) 
Cc1ccc(C)c(NC(=O)c2cccnc2SCC(=O)[N-]c2cccc(-c3csc(=O)[n-]3)c2)c1

>  <Energy>  (57) 
97.06824618254007

>  <Genealogy>  (57) 
Cc1ccc(C)c(NC(=O)c2cccnc2SCC(=O)[N-]c2cccc(-c3csc(=O)[n-]3)c2)c1 (protonated)
Cc1ccc(C)c(NC(=O)c2cccnc2SCC(=O)[N-]c2cccc(-c3csc(=O)[n-]3)c2)c1 (3D coordinates assigned)
Cc1ccc(C)c(NC(=O)c2cccnc2SCC(=O)[N-]c2cccc(-c3csc(=O)[n-]3)c2)c1 (optimized conformer: 97.06824618254007 kcal/mol)

>  <smiles>  (57) 
Cc1ccc(C)c(NC(=O)c2cccnc2SCC(=O)Nc2cccc(-c3csc(=O)[nH]3)c2)c1

>  <score_type>  (57) 
oracle

>  <origin>  (57) 
adg

>  <m_score__min__energy>  (57) 
-12.380000000000001

>  <m_primary>  (57) 
energy

$$$$
57:0
     RDKit          3D

 56 59  0  0  0  0  0  0  0  0999 V2000
   63.5976   30.6185   47.5983 H   0  0  0  0  0  0  0  0  0  0  0  0
   63.3500   31.6360   47.9350 C   0  0  0  0  0  0  0  0  0  0  0  0
   62.6460   32.4670   47.1250 N   0  0  0  0  0  0  0  0  0  0  0  0
   62.3300   33.7310   47.5200 C   0  0  0  0  0  0  0  0  0  0  0  0
   61.6650   34.5280   46.7410 N   0  0  0  0  0  0  0  0  0  0  0  0
   59.9930   34.9320   46.9730 S   0  0  0  0  0  0  0  0  0  0  0  0
   59.7190   36.2810   46.3670 O   0  0  0  0  0  0  0  0  0  0  0  0
   59.6680   34.9660   48.4400 O   0  0  0  0  0  0  0  0  0  0  0  0
   59.0000   33.7020   46.1990 C   0  0  0  0  0  0  0  0  0  0  0  0
   59.5470   32.4410   45.9330 C   0  0  0  0  0  0  0  0  0  0  0  0
   60.5915   32.2287   46.2049 H   0  0  0  0  0  0  0  0  0  0  0  0
   58.7710   31.4500   45.3230 C   0  0  0  0  0  0  0  0  0  0  0  0
   59.2032   30.4573   45.1287 H   0  0  0  0  0  0  0  0  0  0  0  0
   57.4390   31.7190   44.9570 C   0  0  0  0  0  0  0  0  0  0  0  0
   56.5990   30.7240   44.3540 N   0  0  0  0  0  0  0  0  0  0  0  0
   56.3320   29.4060   44.8520 C   0  0  0  0  0  0  0  0  0  0  0  0
   55.1510   28.9650   44.8690 O   0  0  0  0  0  0  0  0  0  0  0  0
   57.4420   28.5970   45.4180 C   0  0  0  0  0  0  0  0  0  0  0  0
   57.8230   28.8070   46.7570 C   0  0  0  0  0  0  0  0  0  0  0  0
   57.2986   29.5648   47.3576 H   0  0  0  0  0  0  0  0  0  0  0  0
   58.8640   28.0620   47.3370 C   0  0  0  0  0  0  0  0  0  0  0  0
   59.2830   28.2690   48.6940 N   0  0  0  0  0  0  0  0  0  0  0  0
   60.1230   29.3260   49.1720 C   0  0  0  0  0  0  0  0  0  0  0  0
   61.0880   29.0840   49.9460 O   0  0  0  0  0  0  0  0  0  0  0  0
   59.9100   30.7190   48.6710 C   0  0  0  0  0  0  0  0  0  0  0  0
   60.8590   31.1137   48.2790 H   0  0  0  0  0  0  0  0  0  0  0  0
   59.1531   30.7026   47.8730 H   0  0  0  0  0  0  0  0  0  0  0  0
   59.4280   31.6020   49.7880 C   0  0  0  0  0  0  0  0  0  0  0  0
   58.2280   31.3070   50.4570 C   0  0  0  0  0  0  0  0  0  0  0  0
   57.6281   30.4380   50.1487 H   0  0  0  0  0  0  0  0  0  0  0  0
   57.7940   32.1130   51.5120 C   0  0  0  0  0  0  0  0  0  0  0  0
   56.8511   31.8809   52.0289 H   0  0  0  0  0  0  0  0  0  0  0  0
   58.5570   33.2150   51.9120 C   0  0  0  0  0  0  0  0  0  0  0  0
   58.2114   33.8517   52.7397 H   0  0  0  0  0  0  0  0  0  0  0  0
   59.7570   33.5070   51.2610 C   0  0  0  0  0  0  0  0  0  0  0  0
   60.3583   34.3713   51.5795 H   0  0  0  0  0  0  0  0  0  0  0  0
   60.1960   32.7020   50.2040 C   0  0  0  0  0  0  0  0  0  0  0  0
   61.1451   32.9313   49.6975 H   0  0  0  0  0  0  0  0  0  0  0  0
   59.5560   27.1320   46.5580 C   0  0  0  0  0  0  0  0  0  0  0  0
   60.3925   26.5675   46.9958 H   0  0  0  0  0  0  0  0  0  0  0  0
   59.1940   26.9140   45.2290 C   0  0  0  0  0  0  0  0  0  0  0  0
   59.7397   26.1701   44.6300 H   0  0  0  0  0  0  0  0  0  0  0  0
   58.1420   27.6340   44.6510 C   0  0  0  0  0  0  0  0  0  0  0  0
   57.8030   27.3410   42.9480 Cl  0  0  0  0  0  0  0  0  0  0  0  0
   56.8910   32.9740   45.2460 C   0  0  0  0  0  0  0  0  0  0  0  0
   55.8420   33.1833   44.9896 H   0  0  0  0  0  0  0  0  0  0  0  0
   57.6660   33.9640   45.8580 C   0  0  0  0  0  0  0  0  0  0  0  0
   57.2280   34.9500   46.0722 H   0  0  0  0  0  0  0  0  0  0  0  0
   62.7180   34.1690   48.7470 N   0  0  0  0  0  0  0  0  0  0  0  0
   63.4150   33.3670   49.5960 C   0  0  0  0  0  0  0  0  0  0  0  0
   63.8530   33.8920   50.9270 C   0  0  0  0  0  0  0  0  0  0  0  0
   63.3694   33.3123   51.7270 H   0  0  0  0  0  0  0  0  0  0  0  0
   64.9455   33.7995   51.0162 H   0  0  0  0  0  0  0  0  0  0  0  0
   63.5662   34.9502   51.0162 H   0  0  0  0  0  0  0  0  0  0  0  0
   63.7590   32.0730   49.1940 C   0  0  0  0  0  0  0  0  0  0  0  0
   64.3396   31.4142   49.8565 H   0  0  0  0  0  0  0  0  0  0  0  0
  1  2  1  0
  2  3  1  0
  3  4  1  0
  4  5  2  0
  5  6  1  0
  6  7  2  0
  6  8  2  0
  6  9  1  0
  9 10  2  0
 10 11  1  0
 10 12  1  0
 12 13  1  0
 12 14  2  0
 14 15  1  0
 15 16  1  0
 16 17  2  0
 16 18  1  0
 18 19  2  0
 19 20  1  0
 19 21  1  0
 21 22  1  0
 22 23  1  0
 23 24  2  0
 23 25  1  0
 25 26  1  0
 25 27  1  0
 25 28  1  0
 28 29  2  0
 29 30  1  0
 29 31  1  0
 31 32  1  0
 31 33  2  0
 33 34  1  0
 33 35  1  0
 35 36  1  0
 35 37  2  0
 37 38  1  0
 21 39  2  0
 39 40  1  0
 39 41  1  0
 41 42  1  0
 41 43  2  0
 43 44  1  0
 14 45  1  0
 45 46  1  0
 45 47  2  0
 47 48  1  0
  4 49  1  0
 49 50  2  0
 50 51  1  0
 51 52  1  0
 51 53  1  0
 51 54  1  0
 50 55  1  0
 55 56  1  0
 55  2  2  0
 47  9  1  0
 43 18  1  0
 37 28  1  0
M  CHG  3   3  -1  15  -1  22  -1
M  END
>  <UniqueID>  (58) 
56

>  <SMILES>  (58) 
Cc1cc[n-]/c(=N\S(=O)(=O)c2ccc([N-]C(=O)c3cc([N-]C(=O)Cc4ccccc4)ccc3Cl)cc2)n1

>  <Energy>  (58) 
73.94281799680763

>  <Genealogy>  (58) 
Cc1cc[n-]c(=NS(=O)(=O)c2ccc([N-]C(=O)c3cc([N-]C(=O)Cc4ccccc4)ccc3Cl)cc2)n1 (protonated)
Cc1cc[n-]/c(=N\S(=O)(=O)c2ccc([N-]C(=O)c3cc([N-]C(=O)Cc4ccccc4)ccc3Cl)cc2)n1 (cis-trans isomerization)
Cc1cc[n-]/c(=N\S(=O)(=O)c2ccc([N-]C(=O)c3cc([N-]C(=O)Cc4ccccc4)ccc3Cl)cc2)n1 (3D coordinates assigned)
Cc1cc[n-]/c(=N\S(=O)(=O)c2ccc([N-]C(=O)c3cc([N-]C(=O)Cc4ccccc4)ccc3Cl)cc2)n1 (optimized conformer: 73.94281799680763 kcal/mol)

>  <smiles>  (58) 
Cc1cc[nH]c(=NS(=O)(=O)c2ccc(NC(=O)c3cc(NC(=O)Cc4ccccc4)ccc3Cl)cc2)n1

>  <score_type>  (58) 
oracle

>  <origin>  (58) 
adg

>  <m_score__min__energy>  (58) 
-13.359999999999999

>  <m_primary>  (58) 
energy

$$$$
58:0
     RDKit          3D

 38 41  0  0  0  0  0  0  0  0999 V2000
   58.9570   31.1158   43.7951 H   0  0  0  0  0  0  0  0  0  0  0  0
   58.8770   30.1170   44.2490 C   0  0  0  0  0  0  0  0  0  0  0  0
   58.9363   29.2190   43.6165 H   0  0  0  0  0  0  0  0  0  0  0  0
   58.7070   29.9940   45.5750 C   0  0  0  0  0  0  0  0  0  0  0  0
   58.5870   28.8050   46.3120 C   0  0  0  0  0  0  0  0  0  0  0  0
   58.3920   27.5350   45.9100 C   0  0  0  0  0  0  0  0  0  0  0  0
   59.2135   27.0481   45.3641 H   0  0  0  0  0  0  0  0  0  0  0  0
   57.1730   26.7430   46.1390 C   0  0  0  0  0  0  0  0  0  0  0  0
   57.1570   25.4660   46.5670 N   0  0  0  0  0  0  0  0  0  0  0  0
   55.8510   25.1290   46.4890 C   0  0  0  0  0  0  0  0  0  0  0  0
   55.4230   23.9940   46.8250 O   0  0  0  0  0  0  0  0  0  0  0  0
   55.0420   26.0990   46.0110 N   0  0  0  0  0  0  0  0  0  0  0  0
   55.8980   27.1080   45.7820 C   0  0  0  0  0  0  0  0  0  0  0  0
   55.5220   28.3350   45.2520 O   0  0  0  0  0  0  0  0  0  0  0  0
   58.6840   29.1650   47.6470 C   0  0  0  0  0  0  0  0  0  0  0  0
   58.6850   28.4843   48.5111 H   0  0  0  0  0  0  0  0  0  0  0  0
   58.7790   30.5410   47.6840 C   0  0  0  0  0  0  0  0  0  0  0  0
   58.9060   31.3580   48.9320 C   0  0  0  0  0  0  0  0  0  0  0  0
   58.8043   30.7038   49.8104 H   0  0  0  0  0  0  0  0  0  0  0  0
   59.8910   31.8473   48.9513 H   0  0  0  0  0  0  0  0  0  0  0  0
   58.1160   32.1232   48.9513 H   0  0  0  0  0  0  0  0  0  0  0  0
   58.7860   31.0440   46.4310 N   0  0  0  0  0  0  0  0  0  0  0  0
   58.9610   32.4300   46.0880 C   0  0  0  0  0  0  0  0  0  0  0  0
   57.8960   33.1180   45.4830 C   0  0  0  0  0  0  0  0  0  0  0  0
   56.7340   32.4720   45.2090 F   0  0  0  0  0  0  0  0  0  0  0  0
   58.0120   34.4750   45.1780 C   0  0  0  0  0  0  0  0  0  0  0  0
   57.1742   35.0054   44.7018 H   0  0  0  0  0  0  0  0  0  0  0  0
   59.1900   35.1580   45.4770 C   0  0  0  0  0  0  0  0  0  0  0  0
   59.2784   36.2284   45.2394 H   0  0  0  0  0  0  0  0  0  0  0  0
   60.2580   34.4880   46.0770 C   0  0  0  0  0  0  0  0  0  0  0  0
   61.1817   35.0373   46.3116 H   0  0  0  0  0  0  0  0  0  0  0  0
   60.1660   33.1180   46.3850 C   0  0  0  0  0  0  0  0  0  0  0  0
   61.3360   32.4400   46.9990 C   0  0  0  0  0  0  0  0  0  0  0  0
   62.2760   33.0890   47.7250 N   0  0  0  0  0  0  0  0  0  0  0  0
   63.1060   32.0770   48.0320 C   0  0  0  0  0  0  0  0  0  0  0  0
   64.1500   32.2170   48.7200 O   0  0  0  0  0  0  0  0  0  0  0  0
   62.7080   30.9370   47.5340 O   0  0  0  0  0  0  0  0  0  0  0  0
   61.6040   31.1220   46.8790 N   0  0  0  0  0  0  0  0  0  0  0  0
  1  2  1  0
  2  3  1  0
  2  4  2  0
  4  5  1  0
  5  6  2  0
  6  7  1  0
  6  8  1  0
  8  9  1  0
  9 10  1  0
 10 11  2  0
 10 12  1  0
 12 13  1  0
 13 14  1  0
  5 15  1  0
 15 16  1  0
 15 17  2  0
 17 18  1  0
 18 19  1  0
 18 20  1  0
 18 21  1  0
 17 22  1  0
 22 23  1  0
 23 24  2  0
 24 25  1  0
 24 26  1  0
 26 27  1  0
 26 28  2  0
 28 29  1  0
 28 30  1  0
 30 31  1  0
 30 32  2  0
 32 33  1  0
 33 34  2  0
 34 35  1  0
 35 36  2  0
 35 37  1  0
 37 38  1  0
 22  4  1  0
 32 23  1  0
 38 33  1  0
 13  8  2  0
M  CHG  4   9  -1  12  -1  14  -1  38  -1
M  END
>  <UniqueID>  (59) 
57

>  <SMILES>  (59) 
C=c1/c(=C\c2[n-]c(=O)[n-]c2[O-])cc(C)n1-c1c(F)cccc1-c1nc(=O)o[n-]1

>  <Energy>  (59) 
153.5914053785725

>  <Genealogy>  (59) 
C=c1c(=Cc2[n-]c(=O)[n-]c2[O-])cc(C)n1-c1c(F)cccc1-c1nc(=O)o[n-]1 (protonated)
C=c1/c(=C\c2[n-]c(=O)[n-]c2[O-])cc(C)n1-c1c(F)cccc1-c1nc(=O)o[n-]1 (cis-trans isomerization)
C=c1/c(=C\c2[n-]c(=O)[n-]c2[O-])cc(C)n1-c1c(F)cccc1-c1nc(=O)o[n-]1 (3D coordinates assigned)
C=c1/c(=C\c2[n-]c(=O)[n-]c2[O-])cc(C)n1-c1c(F)cccc1-c1nc(=O)o[n-]1 (optimized conformer: 153.5914053785725 kcal/mol)

>  <smiles>  (59) 
C=c1c(=Cc2[nH]c(=O)[nH]c2O)cc(C)n1-c1c(F)cccc1-c1nc(=O)o[nH]1

>  <score_type>  (59) 
oracle

>  <origin>  (59) 
adg

>  <m_score__min__energy>  (59) 
-16.41

>  <m_primary>  (59) 
energy

$$$$
59:0
     RDKit          3D

 38 40  0  0  0  0  0  0  0  0999 V2000
   57.5900   24.4600   47.1380 O   0  0  0  0  0  0  0  0  0  0  0  0
   57.3410   24.9480   46.0030 C   0  0  0  0  0  0  0  0  0  0  0  0
   56.6980   24.0720   44.9630 C   0  0  0  0  0  0  0  0  0  0  0  0
   55.2110   24.0230   45.1580 C   0  0  0  0  0  0  0  0  0  0  0  0
   54.4530   22.9520   44.8540 N   0  0  0  0  0  0  0  0  0  0  0  0
   53.1980   23.3670   45.1320 C   0  0  0  0  0  0  0  0  0  0  0  0
   52.1890   22.6300   44.9750 O   0  0  0  0  0  0  0  0  0  0  0  0
   53.1110   24.6390   45.5820 N   0  0  0  0  0  0  0  0  0  0  0  0
   54.3910   25.0460   45.5870 C   0  0  0  0  0  0  0  0  0  0  0  0
   54.7860   26.3290   45.9560 O   0  0  0  0  0  0  0  0  0  0  0  0
   57.7220   26.3060   45.7120 N   0  0  0  0  0  0  0  0  0  0  0  0
   57.8980   27.2610   46.8170 C   0  0  0  0  0  0  0  0  0  0  0  0
   57.4860   28.6700   46.3780 C   0  0  0  0  0  0  0  0  0  0  0  0
   58.1190   29.0500   45.1050 N   0  0  0  0  0  0  0  0  0  0  0  0
   58.1350   30.4380   44.7030 C   0  0  0  0  0  0  0  0  0  0  0  0
   58.5420   31.4440   45.6050 C   0  0  0  0  0  0  0  0  0  0  0  0
   58.5590   32.7880   45.2130 C   0  0  0  0  0  0  0  0  0  0  0  0
   58.9570   33.7770   46.1150 O   0  0  0  0  0  0  0  0  0  0  0  0
   58.1750   33.1400   43.9150 C   0  0  0  0  0  0  0  0  0  0  0  0
   57.7780   32.1530   43.0090 C   0  0  0  0  0  0  0  0  0  0  0  0
   57.4050   32.5060   41.7180 O   0  0  0  0  0  0  0  0  0  0  0  0
   57.7580   30.8090   43.3990 C   0  0  0  0  0  0  0  0  0  0  0  0
   58.8210   28.0360   44.3050 C   0  0  0  0  0  0  0  0  0  0  0  0
   58.0560   26.7090   44.3380 C   0  0  0  0  0  0  0  0  0  0  0  0
   56.9182   24.4761   43.9639 H   0  0  0  0  0  0  0  0  0  0  0  0
   57.1015   23.0533   45.0595 H   0  0  0  0  0  0  0  0  0  0  0  0
   54.7830   27.0930   45.2930 H   0  0  0  0  0  0  0  0  0  0  0  0
   57.2739   26.9497   47.6676 H   0  0  0  0  0  0  0  0  0  0  0  0
   58.9581   27.2750   47.1102 H   0  0  0  0  0  0  0  0  0  0  0  0
   56.3932   28.7001   46.2558 H   0  0  0  0  0  0  0  0  0  0  0  0
   57.8158   29.3802   47.1506 H   0  0  0  0  0  0  0  0  0  0  0  0
   58.8486   31.1698   46.6252 H   0  0  0  0  0  0  0  0  0  0  0  0
   58.1855   34.1959   43.6067 H   0  0  0  0  0  0  0  0  0  0  0  0
   57.4452   30.0368   42.6807 H   0  0  0  0  0  0  0  0  0  0  0  0
   58.8983   28.3844   43.2645 H   0  0  0  0  0  0  0  0  0  0  0  0
   59.8252   27.8805   44.7261 H   0  0  0  0  0  0  0  0  0  0  0  0
   57.1248   26.8203   43.7632 H   0  0  0  0  0  0  0  0  0  0  0  0
   58.6999   25.9319   43.9004 H   0  0  0  0  0  0  0  0  0  0  0  0
  1  2  2  0
  2  3  1  0
  3  4  1  0
  4  5  1  0
  5  6  1  0
  6  7  2  0
  6  8  1  0
  8  9  1  0
  9 10  1  0
  2 11  1  0
 11 12  1  0
 12 13  1  0
 13 14  1  0
 14 15  1  0
 15 16  2  0
 16 17  1  0
 17 18  1  0
 17 19  2  0
 19 20  1  0
 20 21  1  0
 20 22  2  0
 14 23  1  0
 23 24  1  0
  9  4  2  0
 24 11  1  0
 22 15  1  0
  3 25  1  0
  3 26  1  0
 10 27  1  0
 12 28  1  0
 12 29  1  0
 13 30  1  0
 13 31  1  0
 16 32  1  0
 19 33  1  0
 22 34  1  0
 23 35  1  0
 23 36  1  0
 24 37  1  0
 24 38  1  0
M  CHG  4   5  -1   8  -1  18  -1  21  -1
M  END
>  <UniqueID>  (60) 
58

>  <SMILES>  (60) 
O=C(Cc1[n-]c(=O)[n-]c1O)N1CCN(c2cc([O-])cc([O-])c2)CC1

>  <Energy>  (60) 
72.17181513911532

>  <Genealogy>  (60) 
O=C(Cc1[n-]c(=O)[n-]c1O)N1CCN(c2cc([O-])cc([O-])c2)CC1 (protonated)
O=C(Cc1[n-]c(=O)[n-]c1O)N1CCN(c2cc([O-])cc([O-])c2)CC1 (3D coordinates assigned)
O=C(Cc1[n-]c(=O)[n-]c1O)N1CCN(c2cc([O-])cc([O-])c2)CC1 (nonaromatic ring conformer: 72.17181513911532 kcal/mol)

>  <smiles>  (60) 
O=C(Cc1[nH]c(=O)[nH]c1O)N1CCN(c2cc(O)cc(O)c2)CC1

>  <score_type>  (60) 
oracle

>  <origin>  (60) 
adg

>  <m_score__min__energy>  (60) 
-13.25

>  <m_primary>  (60) 
energy

$$$$
60:0
     RDKit          3D

 63 66  0  0  0  0  0  0  0  0999 V2000
   58.4030   29.3630   52.2860 C   0  0  0  0  0  0  0  0  0  0  0  0
   58.5630   30.1830   51.0880 N   0  0  0  0  0  0  0  0  0  0  0  0
   59.2800   29.9170   49.9750 C   0  0  0  0  0  0  0  0  0  0  0  0
   59.9870   28.6260   49.6830 C   0  0  0  0  0  0  0  0  0  0  0  0
   60.0920   28.4060   48.2020 C   0  0  0  0  0  0  0  0  0  0  0  0
   59.7510   27.2940   47.7190 O   0  0  0  0  0  0  0  0  0  0  0  0
   60.5690   29.4520   47.3440 N   0  0  0  0  0  0  0  0  0  0  0  0
   60.5730   29.3350   45.8890 C   0  0  0  0  0  0  0  0  0  0  0  0
   59.1690   29.3040   45.3790 C   0  0  0  0  0  0  0  0  0  0  0  0
   58.7140   28.5720   44.3030 C   0  0  0  0  0  0  0  0  0  0  0  0
   57.3590   28.8190   44.2330 C   0  0  0  0  0  0  0  0  0  0  0  0
   57.0750   29.6820   45.2710 C   0  0  0  0  0  0  0  0  0  0  0  0
   58.1730   29.9510   45.9380 O   0  0  0  0  0  0  0  0  0  0  0  0
   59.2580   30.9580   49.1170 N   0  0  0  0  0  0  0  0  0  0  0  0
   58.5380   31.9150   49.6850 N   0  0  0  0  0  0  0  0  0  0  0  0
   58.1310   31.4430   50.8780 C   0  0  0  0  0  0  0  0  0  0  0  0
   57.1340   32.3960   52.0290 S   0  0  0  0  0  0  0  0  0  0  0  0
   58.4540   32.5450   53.2780 C   0  0  0  0  0  0  0  0  0  0  0  0
   59.7970   32.5160   52.6200 C   0  0  0  0  0  0  0  0  0  0  0  0
   60.5110   31.4800   52.6990 O   0  0  0  0  0  0  0  0  0  0  0  0
   60.2710   33.6840   51.9410 N   0  0  0  0  0  0  0  0  0  0  0  0
   61.2700   33.7250   50.9120 C   0  0  0  0  0  0  0  0  0  0  0  0
   62.6410   33.8170   51.2070 C   0  0  0  0  0  0  0  0  0  0  0  0
   63.5830   33.8330   50.1740 C   0  0  0  0  0  0  0  0  0  0  0  0
   63.1670   33.7470   48.8440 C   0  0  0  0  0  0  0  0  0  0  0  0
   61.8060   33.6230   48.5400 C   0  0  0  0  0  0  0  0  0  0  0  0
   61.2890   33.5380   46.8580 S   0  0  0  0  0  0  0  0  0  0  0  0
   62.4720   33.8420   45.9800 O   0  0  0  0  0  0  0  0  0  0  0  0
   60.8120   32.1480   46.5410 O   0  0  0  0  0  0  0  0  0  0  0  0
   60.0230   34.7060   46.5420 N   0  0  0  0  0  0  0  0  0  0  0  0
   58.8920   34.5700   47.4830 C   0  0  0  0  0  0  0  0  0  0  0  0
   58.0230   33.3320   47.1970 C   0  0  0  0  0  0  0  0  0  0  0  0
   57.8100   33.0780   45.6940 C   0  0  0  0  0  0  0  0  0  0  0  0
   58.1750   34.2980   44.8500 C   0  0  0  0  0  0  0  0  0  0  0  0
   59.6310   34.7230   45.1100 C   0  0  0  0  0  0  0  0  0  0  0  0
   60.8620   33.6070   49.5760 C   0  0  0  0  0  0  0  0  0  0  0  0
   58.5257   29.9921   53.1800 H   0  0  0  0  0  0  0  0  0  0  0  0
   57.3999   28.9117   52.2901 H   0  0  0  0  0  0  0  0  0  0  0  0
   59.1629   28.5677   52.2901 H   0  0  0  0  0  0  0  0  0  0  0  0
   60.9976   28.6610   50.1161 H   0  0  0  0  0  0  0  0  0  0  0  0
   59.4127   27.7986   50.1252 H   0  0  0  0  0  0  0  0  0  0  0  0
   60.8430   30.3690   47.7620 H   0  0  0  0  0  0  0  0  0  0  0  0
   61.1001   30.1974   45.4549 H   0  0  0  0  0  0  0  0  0  0  0  0
   61.0842   28.4044   45.6013 H   0  0  0  0  0  0  0  0  0  0  0  0
   59.3075   27.9261   43.6392 H   0  0  0  0  0  0  0  0  0  0  0  0
   56.6490   28.4108   43.4987 H   0  0  0  0  0  0  0  0  0  0  0  0
   56.0782   30.0843   45.5046 H   0  0  0  0  0  0  0  0  0  0  0  0
   58.3356   33.4952   53.8195 H   0  0  0  0  0  0  0  0  0  0  0  0
   58.3806   31.7003   53.9787 H   0  0  0  0  0  0  0  0  0  0  0  0
   62.9739   33.8766   52.2537 H   0  0  0  0  0  0  0  0  0  0  0  0
   64.6544   33.9135   50.4097 H   0  0  0  0  0  0  0  0  0  0  0  0
   63.9100   33.7767   48.0334 H   0  0  0  0  0  0  0  0  0  0  0  0
   59.2924   34.4899   48.5044 H   0  0  0  0  0  0  0  0  0  0  0  0
   58.2533   35.4575   47.3633 H   0  0  0  0  0  0  0  0  0  0  0  0
   58.5144   32.4506   47.6348 H   0  0  0  0  0  0  0  0  0  0  0  0
   57.0339   33.5156   47.6420 H   0  0  0  0  0  0  0  0  0  0  0  0
   58.4395   32.2307   45.3843 H   0  0  0  0  0  0  0  0  0  0  0  0
   56.7436   32.8608   45.5339 H   0  0  0  0  0  0  0  0  0  0  0  0
   58.0561   34.0491   43.7851 H   0  0  0  0  0  0  0  0  0  0  0  0
   57.5093   35.1298   45.1240 H   0  0  0  0  0  0  0  0  0  0  0  0
   60.2938   34.0366   44.5626 H   0  0  0  0  0  0  0  0  0  0  0  0
   59.7220   35.7650   44.7695 H   0  0  0  0  0  0  0  0  0  0  0  0
   59.7931   33.5011   49.3390 H   0  0  0  0  0  0  0  0  0  0  0  0
  1  2  1  0
  2  3  1  0
  3  4  1  0
  4  5  1  0
  5  6  2  0
  5  7  1  0
  7  8  1  0
  8  9  1  0
  9 10  2  0
 10 11  1  0
 11 12  2  0
 12 13  1  0
  3 14  2  0
 14 15  1  0
 15 16  2  0
 16 17  1  0
 17 18  1  0
 18 19  1  0
 19 20  2  0
 19 21  1  0
 21 22  1  0
 22 23  2  0
 23 24  1  0
 24 25  2  0
 25 26  1  0
 26 27  1  0
 27 28  2  0
 27 29  2  0
 27 30  1  0
 30 31  1  0
 31 32  1  0
 32 33  1  0
 33 34  1  0
 34 35  1  0
 26 36  2  0
 16  2  1  0
 36 22  1  0
 13  9  1  0
 35 30  1  0
  1 37  1  0
  1 38  1  0
  1 39  1  0
  4 40  1  0
  4 41  1  0
  7 42  1  0
  8 43  1  0
  8 44  1  0
 10 45  1  0
 11 46  1  0
 12 47  1  0
 18 48  1  0
 18 49  1  0
 23 50  1  0
 24 51  1  0
 25 52  1  0
 31 53  1  0
 31 54  1  0
 32 55  1  0
 32 56  1  0
 33 57  1  0
 33 58  1  0
 34 59  1  0
 34 60  1  0
 35 61  1  0
 35 62  1  0
 36 63  1  0
M  CHG  1  21  -1
M  END
>  <UniqueID>  (61) 
59

>  <SMILES>  (61) 
Cn1c(CC(=O)NCc2ccco2)nnc1SCC(=O)[N-]c1cccc(S(=O)(=O)N2CCCCC2)c1

>  <Energy>  (61) 
126.00271317548663

>  <Genealogy>  (61) 
Cn1c(CC(=O)NCc2ccco2)nnc1SCC(=O)[N-]c1cccc(S(=O)(=O)N2CCCCC2)c1 (protonated)
Cn1c(CC(=O)NCc2ccco2)nnc1SCC(=O)[N-]c1cccc(S(=O)(=O)N2CCCCC2)c1 (3D coordinates assigned)
Cn1c(CC(=O)NCc2ccco2)nnc1SCC(=O)[N-]c1cccc(S(=O)(=O)N2CCCCC2)c1 (nonaromatic ring conformer: 126.00271317548663 kcal/mol)

>  <smiles>  (61) 
Cn1c(CC(=O)NCc2ccco2)nnc1SCC(=O)Nc1cccc(S(=O)(=O)N2CCCCC2)c1

>  <score_type>  (61) 
oracle

>  <origin>  (61) 
adg

>  <m_score__min__energy>  (61) 
-11.91

>  <m_primary>  (61) 
energy

$$$$
61:0
     RDKit          3D

 68 72  0  0  0  0  0  0  0  0999 V2000
   55.1520   30.2810   44.6270 O   0  0  0  0  0  0  0  0  0  0  0  0
   56.3380   29.9010   44.8200 C   0  0  0  0  0  0  0  0  0  0  0  0
   56.6340   28.5040   44.6710 N   0  0  0  0  0  0  0  0  0  0  0  0
   57.1830   27.5830   45.6320 C   0  0  0  0  0  0  0  0  0  0  0  0
   58.5630   27.5150   45.9150 C   0  0  0  0  0  0  0  0  0  0  0  0
   59.0720   26.5410   46.7960 C   0  0  0  0  0  0  0  0  0  0  0  0
   60.5080   26.4960   47.1740 C   0  0  0  0  0  0  0  0  0  0  0  0
   61.3330   26.0530   46.3330 O   0  0  0  0  0  0  0  0  0  0  0  0
   61.0140   26.9380   48.4440 N   0  0  0  0  0  0  0  0  0  0  0  0
   60.3090   27.7090   49.4650 C   0  0  1  0  0  0  0  0  0  0  0  0
   61.3010   28.4400   50.3640 C   0  0  0  0  0  0  0  0  0  0  0  0
   60.9760   29.9190   50.2120 C   0  0  0  0  0  0  0  0  0  0  0  0
   59.6470   30.0280   49.6030 N   0  0  0  0  0  0  0  0  0  0  0  0
   58.5600   30.2980   50.5780 C   0  0  0  0  0  0  0  0  0  0  0  0
   58.5930   31.6860   51.1930 C   0  0  0  0  0  0  0  0  0  0  0  0
   59.2100   32.7510   50.5160 C   0  0  0  0  0  0  0  0  0  0  0  0
   59.2960   34.0140   51.1130 C   0  0  0  0  0  0  0  0  0  0  0  0
   58.7580   34.2220   52.3830 C   0  0  0  0  0  0  0  0  0  0  0  0
   58.1010   33.1810   53.0460 C   0  0  0  0  0  0  0  0  0  0  0  0
   58.0090   31.9220   52.4520 C   0  0  0  0  0  0  0  0  0  0  0  0
   59.4660   28.8040   48.8170 C   0  0  0  0  0  0  0  0  0  0  0  0
   58.1770   25.6360   47.3970 C   0  0  0  0  0  0  0  0  0  0  0  0
   56.8090   25.7020   47.1230 C   0  0  0  0  0  0  0  0  0  0  0  0
   56.3130   26.6690   46.2440 C   0  0  0  0  0  0  0  0  0  0  0  0
   54.9500   26.7070   45.9700 O   0  0  0  0  0  0  0  0  0  0  0  0
   57.3480   30.8980   45.2390 C   0  0  0  0  0  0  0  0  0  0  0  0
   58.3090   30.5900   46.2170 C   0  0  0  0  0  0  0  0  0  0  0  0
   59.2630   31.5370   46.5910 C   0  0  0  0  0  0  0  0  0  0  0  0
   59.2680   32.8150   46.0050 C   0  0  0  0  0  0  0  0  0  0  0  0
   60.2940   33.8460   46.4300 C   0  0  0  0  0  0  0  0  0  0  0  0
   61.5100   33.2960   47.0740 N   0  0  0  0  0  0  0  0  0  0  0  0
   61.5700   33.4460   48.5250 C   0  0  0  0  0  0  0  0  0  0  0  0
   63.0140   33.1670   48.9040 C   0  0  0  0  0  0  0  0  0  0  0  0
   63.8250   33.4920   47.6550 C   0  0  0  0  0  0  0  0  0  0  0  0
   62.7950   33.7740   46.5600 C   0  0  0  0  0  0  0  0  0  0  0  0
   58.2790   33.1400   45.0600 C   0  0  0  0  0  0  0  0  0  0  0  0
   57.3280   32.1890   44.6810 C   0  0  0  0  0  0  0  0  0  0  0  0
   59.2504   28.2316   45.4418 H   0  0  0  0  0  0  0  0  0  0  0  0
   59.6915   26.9977   50.0330 H   0  0  0  0  0  0  0  0  0  0  0  0
   61.1759   28.1247   51.4104 H   0  0  0  0  0  0  0  0  0  0  0  0
   62.3422   28.2207   50.0850 H   0  0  0  0  0  0  0  0  0  0  0  0
   60.9759   30.4050   51.1988 H   0  0  0  0  0  0  0  0  0  0  0  0
   61.7286   30.4138   49.5805 H   0  0  0  0  0  0  0  0  0  0  0  0
   57.5969   30.1746   50.0611 H   0  0  0  0  0  0  0  0  0  0  0  0
   58.6997   29.5869   51.4055 H   0  0  0  0  0  0  0  0  0  0  0  0
   59.6279   32.5915   49.5111 H   0  0  0  0  0  0  0  0  0  0  0  0
   59.7875   34.8419   50.5811 H   0  0  0  0  0  0  0  0  0  0  0  0
   58.8508   35.2070   52.8639 H   0  0  0  0  0  0  0  0  0  0  0  0
   57.6562   33.3548   54.0369 H   0  0  0  0  0  0  0  0  0  0  0  0
   57.4776   31.1099   52.9698 H   0  0  0  0  0  0  0  0  0  0  0  0
   58.4057   28.5110   48.8183 H   0  0  0  0  0  0  0  0  0  0  0  0
   59.7782   28.9652   47.7746 H   0  0  0  0  0  0  0  0  0  0  0  0
   58.5582   24.8701   48.0885 H   0  0  0  0  0  0  0  0  0  0  0  0
   56.1195   24.9904   47.6007 H   0  0  0  0  0  0  0  0  0  0  0  0
   58.3091   29.5970   46.6902 H   0  0  0  0  0  0  0  0  0  0  0  0
   60.0170   31.2817   47.3502 H   0  0  0  0  0  0  0  0  0  0  0  0
   60.6057   34.4051   45.5354 H   0  0  0  0  0  0  0  0  0  0  0  0
   59.8023   34.4718   47.1893 H   0  0  0  0  0  0  0  0  0  0  0  0
   61.2866   34.4678   48.8176 H   0  0  0  0  0  0  0  0  0  0  0  0
   60.8755   32.7617   49.0344 H   0  0  0  0  0  0  0  0  0  0  0  0
   63.3235   33.8082   49.7425 H   0  0  0  0  0  0  0  0  0  0  0  0
   63.1599   32.1265   49.2297 H   0  0  0  0  0  0  0  0  0  0  0  0
   64.4561   34.3766   47.8260 H   0  0  0  0  0  0  0  0  0  0  0  0
   64.4977   32.6665   47.3793 H   0  0  0  0  0  0  0  0  0  0  0  0
   62.7450   34.8531   46.3525 H   0  0  0  0  0  0  0  0  0  0  0  0
   63.0624   33.2704   45.6193 H   0  0  0  0  0  0  0  0  0  0  0  0
   58.2538   34.1467   44.6174 H   0  0  0  0  0  0  0  0  0  0  0  0
   56.5580   32.4519   43.9408 H   0  0  0  0  0  0  0  0  0  0  0  0
  1  2  2  0
  2  3  1  0
  3  4  1  0
  4  5  2  0
  5  6  1  0
  6  7  1  0
  7  8  2  0
  7  9  1  0
  9 10  1  0
 10 11  1  0
 11 12  1  0
 12 13  1  0
 13 14  1  0
 14 15  1  0
 15 16  2  0
 16 17  1  0
 17 18  2  0
 18 19  1  0
 19 20  2  0
 13 21  1  0
  6 22  2  0
 22 23  1  0
 23 24  2  0
 24 25  1  0
  2 26  1  0
 26 27  2  0
 27 28  1  0
 28 29  2  0
 29 30  1  0
 30 31  1  0
 31 32  1  0
 32 33  1  0
 33 34  1  0
 34 35  1  0
 29 36  1  0
 36 37  2  0
 24  4  1  0
 37 26  1  0
 21 10  1  0
 35 31  1  0
 20 15  1  0
  5 38  1  0
 10 39  1  1
 11 40  1  0
 11 41  1  0
 12 42  1  0
 12 43  1  0
 14 44  1  0
 14 45  1  0
 16 46  1  0
 17 47  1  0
 18 48  1  0
 19 49  1  0
 20 50  1  0
 21 51  1  0
 21 52  1  0
 22 53  1  0
 23 54  1  0
 27 55  1  0
 28 56  1  0
 30 57  1  0
 30 58  1  0
 32 59  1  0
 32 60  1  0
 33 61  1  0
 33 62  1  0
 34 63  1  0
 34 64  1  0
 35 65  1  0
 35 66  1  0
 36 67  1  0
 37 68  1  0
M  CHG  3   3  -1   9  -1  25  -1
M  END
>  <UniqueID>  (62) 
60

>  <SMILES>  (62) 
O=C([N-]c1cc(C(=O)[N-][C@H]2CCN(Cc3ccccc3)C2)ccc1[O-])c1ccc(CN2CCCC2)cc1

>  <Energy>  (62) 
91.58735052725714

>  <Genealogy>  (62) 
O=C([N-]c1cc(C(=O)[N-]C2CCN(Cc3ccccc3)C2)ccc1[O-])c1ccc(CN2CCCC2)cc1 (protonated)
O=C([N-]c1cc(C(=O)[N-][C@H]2CCN(Cc3ccccc3)C2)ccc1[O-])c1ccc(CN2CCCC2)cc1 (chirality)
O=C([N-]c1cc(C(=O)[N-][C@H]2CCN(Cc3ccccc3)C2)ccc1[O-])c1ccc(CN2CCCC2)cc1 (3D coordinates assigned)
O=C([N-]c1cc(C(=O)[N-][C@H]2CCN(Cc3ccccc3)C2)ccc1[O-])c1ccc(CN2CCCC2)cc1 (nonaromatic ring conformer: 91.58735052725714 kcal/mol)

>  <smiles>  (62) 
O=C(Nc1cc(C(=O)NC2CCN(Cc3ccccc3)C2)ccc1O)c1ccc(CN2CCCC2)cc1

>  <score_type>  (62) 
oracle

>  <origin>  (62) 
adg

>  <m_score__min__energy>  (62) 
-17.48

>  <m_primary>  (62) 
energy

$$$$
62:0
     RDKit          3D

 64 68  0  0  1  0  0  0  0  0999 V2000
   60.3740   34.5950   45.9880 C   0  0  0  0  0  0  0  0  0  0  0  0
   61.4110   34.0420   46.8560 C   0  0  0  0  0  0  0  0  0  0  0  0
   62.7180   33.8190   46.4860 C   0  0  0  0  0  0  0  0  0  0  0  0
   63.6500   33.3080   47.3250 N   0  0  0  0  0  0  0  0  0  0  0  0
   63.2990   32.9950   48.5950 C   0  0  0  0  0  0  0  0  0  0  0  0
   64.2370   32.4510   49.5160 N   0  0  0  0  0  0  0  0  0  0  0  0
   63.9420   31.2870   50.3310 C   0  0  0  0  0  0  0  0  0  0  0  0
   64.4690   31.5540   51.7400 C   0  0  0  0  0  0  0  0  0  0  0  0
   65.9750   31.7000   51.7430 C   0  0  0  0  0  0  0  0  0  0  0  0
   66.5070   32.1490   50.4130 C   0  0  0  0  0  0  0  0  0  0  0  0
   65.5400   33.0570   49.6720 C   0  0  0  0  0  0  0  0  0  0  0  0
   62.0320   33.2130   48.9400 N   0  0  0  0  0  0  0  0  0  0  0  0
   61.0700   33.7160   48.1520 C   0  0  0  0  0  0  0  0  0  0  0  0
   59.9280   33.8760   48.5830 N   0  0  0  0  0  0  0  0  0  0  0  0
   58.8850   33.0060   48.7420 C   0  0  0  0  0  0  0  0  0  0  0  0
   58.5170   32.2270   47.4940 C   0  0  0  0  0  0  0  0  0  0  0  0
   58.5380   30.8410   47.4710 C   0  0  0  0  0  0  0  0  0  0  0  0
   58.1650   30.1500   46.3280 C   0  0  0  0  0  0  0  0  0  0  0  0
   58.1870   28.7480   46.3200 C   0  0  0  0  0  0  0  0  0  0  0  0
   57.8100   28.0310   45.1890 C   0  0  0  0  0  0  0  0  0  0  0  0
   57.8470   26.5720   45.2020 C   0  0  0  0  0  0  0  0  0  0  0  0
   58.3040   25.9630   46.2230 O   0  0  0  0  0  0  0  0  0  0  0  0
   57.4030   25.7580   44.1380 N   0  0  0  0  0  0  0  0  0  0  0  0
   57.4370   24.3350   44.1440 C   0  0  0  0  0  0  0  0  0  0  0  0
   56.4960   23.5530   43.5060 C   0  0  0  0  0  0  0  0  0  0  0  0
   56.5900   22.1580   43.5480 C   0  0  0  0  0  0  0  0  0  0  0  0
   57.6530   21.5840   44.2470 C   0  0  0  0  0  0  0  0  0  0  0  0
   58.6020   22.3620   44.8900 C   0  0  0  0  0  0  0  0  0  0  0  0
   59.6220   21.7060   45.5590 O   0  0  0  0  0  0  0  0  0  0  0  0
   58.4700   23.7260   44.8230 C   0  0  0  0  0  0  0  0  0  0  0  0
   57.4050   28.6900   44.0500 C   0  0  0  0  0  0  0  0  0  0  0  0
   57.3870   30.0930   44.0650 C   0  0  0  0  0  0  0  0  0  0  0  0
   57.7580   30.8140   45.1770 C   0  0  0  0  0  0  0  0  0  0  0  0
   57.7530   32.1860   45.2450 C   0  0  0  0  0  0  0  0  0  0  0  0
   57.3840   32.8250   44.2080 O   0  0  0  0  0  0  0  0  0  0  0  0
   58.1200   32.8250   46.3640 N   0  0  0  0  0  0  0  0  0  0  0  0
   59.5701   35.0237   46.6044 H   0  0  0  0  0  0  0  0  0  0  0  0
   60.8082   35.3813   45.3530 H   0  0  0  0  0  0  0  0  0  0  0  0
   59.9630   33.7963   45.3530 H   0  0  0  0  0  0  0  0  0  0  0  0
   63.0202   34.0682   45.4581 H   0  0  0  0  0  0  0  0  0  0  0  0
   62.8553   31.1196   50.3640 H   0  0  0  0  0  0  0  0  0  0  0  0
   64.4195   30.3914   49.9068 H   0  0  0  0  0  0  0  0  0  0  0  0
   64.0179   32.4817   52.1219 H   0  0  0  0  0  0  0  0  0  0  0  0
   64.2008   30.7001   52.3795 H   0  0  0  0  0  0  0  0  0  0  0  0
   66.2569   32.4413   52.5052 H   0  0  0  0  0  0  0  0  0  0  0  0
   66.4081   30.7130   51.9626 H   0  0  0  0  0  0  0  0  0  0  0  0
   67.4478   32.6950   50.5763 H   0  0  0  0  0  0  0  0  0  0  0  0
   66.6600   31.2515   49.7957 H   0  0  0  0  0  0  0  0  0  0  0  0
   65.4300   33.9945   50.2368 H   0  0  0  0  0  0  0  0  0  0  0  0
   65.9502   33.2420   48.6682 H   0  0  0  0  0  0  0  0  0  0  0  0
   61.7890   32.9540   49.9500 H   0  0  0  0  0  0  0  0  0  0  0  0
   59.1555   32.2861   49.5285 H   0  0  0  0  0  0  0  0  0  0  0  0
   58.0065   33.6161   48.9991 H   0  0  0  0  0  0  0  0  0  0  0  0
   58.8530   30.2851   48.3664 H   0  0  0  0  0  0  0  0  0  0  0  0
   58.5074   28.2065   47.2223 H   0  0  0  0  0  0  0  0  0  0  0  0
   57.0130   26.1900   43.2600 H   0  0  0  0  0  0  0  0  0  0  0  0
   55.6674   24.0292   42.9614 H   0  0  0  0  0  0  0  0  0  0  0  0
   55.8436   21.5281   43.0420 H   0  0  0  0  0  0  0  0  0  0  0  0
   57.7393   20.4882   44.2883 H   0  0  0  0  0  0  0  0  0  0  0  0
   59.8130   20.7470   45.2900 H   0  0  0  0  0  0  0  0  0  0  0  0
   59.2157   24.3563   45.3296 H   0  0  0  0  0  0  0  0  0  0  0  0
   57.1034   28.1313   43.1517 H   0  0  0  0  0  0  0  0  0  0  0  0
   57.0669   30.6324   43.1614 H   0  0  0  0  0  0  0  0  0  0  0  0
   58.1010   33.8650   46.3790 H   0  0  0  0  0  0  0  0  0  0  0  0
  1  2  1  0
  2  3  2  0
  3  4  1  0
  4  5  2  0
  5  6  1  0
  6  7  1  0
  7  8  1  0
  8  9  1  0
  9 10  1  0
 10 11  1  0
  5 12  1  0
 12 13  1  0
 13 14  2  0
 14 15  1  0
 15 16  1  0
 16 17  2  0
 17 18  1  0
 18 19  2  0
 19 20  1  0
 20 21  1  0
 21 22  2  0
 21 23  1  0
 23 24  1  0
 24 25  2  0
 25 26  1  0
 26 27  2  0
 27 28  1  0
 28 29  1  0
 28 30  2  0
 20 31  2  0
 31 32  1  0
 32 33  2  0
 33 34  1  0
 34 35  2  0
 34 36  1  0
 13  2  1  0
 36 16  1  0
 11  6  1  0
 33 18  1  0
 30 24  1  0
  1 37  1  0
  1 38  1  0
  1 39  1  0
  3 40  1  0
  7 41  1  0
  7 42  1  0
  8 43  1  0
  8 44  1  0
  9 45  1  0
  9 46  1  0
 10 47  1  0
 10 48  1  0
 11 49  1  0
 11 50  1  0
 12 51  1  0
 15 52  1  0
 15 53  1  0
 17 54  1  0
 19 55  1  0
 23 56  1  0
 25 57  1  0
 26 58  1  0
 27 59  1  0
 29 60  1  0
 30 61  1  0
 31 62  1  0
 32 63  1  0
 36 64  1  0
M  END
>  <smiles>  (63) 
Cc1cnc(N2CCCCC2)[nH]c1=NCc1cc2cc(C(=O)Nc3cccc(O)c3)ccc2c(=O)[nH]1

>  <score_type>  (63) 
oracle

>  <origin>  (63) 
adg

>  <m_score__min__energy>  (63) 
-10.199999999999999

>  <m_primary>  (63) 
energy

$$$$
63:0
     RDKit          3D

 52 54  0  0  0  0  0  0  0  0999 V2000
   58.5040   24.7050   47.1040 O   0  0  0  0  0  0  0  0  0  0  0  0
   57.7220   25.6920   47.0330 C   0  0  0  0  0  0  0  0  0  0  0  0
   56.3020   25.4680   46.6120 C   0  0  0  0  0  0  0  0  0  0  0  0
   55.7200   26.7250   46.1620 N   0  0  0  0  0  0  0  0  0  0  0  0
   56.4120   27.6370   45.3070 C   0  0  0  0  0  0  0  0  0  0  0  0
   57.5150   27.3060   44.7910 O   0  0  0  0  0  0  0  0  0  0  0  0
   55.8180   28.9090   45.0090 N   0  0  0  0  0  0  0  0  0  0  0  0
   56.4980   29.9780   44.3300 C   0  0  0  0  0  0  0  0  0  0  0  0
   57.4160   30.7710   45.0390 C   0  0  0  0  0  0  0  0  0  0  0  0
   58.1080   31.8010   44.3940 C   0  0  0  0  0  0  0  0  0  0  0  0
   57.9020   32.0370   43.0330 C   0  0  0  0  0  0  0  0  0  0  0  0
   57.0080   31.2390   42.3120 C   0  0  0  0  0  0  0  0  0  0  0  0
   56.3110   30.2110   42.9540 C   0  0  0  0  0  0  0  0  0  0  0  0
   58.1930   27.0210   47.3130 N   0  0  0  0  0  0  0  0  0  0  0  0
   59.4890   27.3000   47.8750 C   0  0  0  0  0  0  0  0  0  0  0  0
   60.1550   26.3720   48.4110 O   0  0  0  0  0  0  0  0  0  0  0  0
   60.0400   28.6770   47.8680 C   0  0  0  0  0  0  0  0  0  0  0  0
   60.0860   29.4450   49.0460 C   0  0  0  0  0  0  0  0  0  0  0  0
   60.6070   30.7430   49.0260 C   0  0  0  0  0  0  0  0  0  0  0  0
   61.0890   31.2920   47.8310 C   0  0  0  0  0  0  0  0  0  0  0  0
   61.7360   32.9300   47.7900 S   0  0  0  0  0  0  0  0  0  0  0  0
   62.7890   33.0050   46.7190 O   0  0  0  0  0  0  0  0  0  0  0  0
   62.3720   33.2670   49.1120 O   0  0  0  0  0  0  0  0  0  0  0  0
   60.4570   34.0660   47.4370 N   0  0  0  0  0  0  0  0  0  0  0  0
   60.1410   34.0370   45.9960 C   0  0  0  0  0  0  0  0  0  0  0  0
   58.7390   34.6100   45.7380 C   0  0  0  0  0  0  0  0  0  0  0  0
   57.6900   33.9110   46.3990 O   0  0  0  0  0  0  0  0  0  0  0  0
   58.1240   33.1510   47.5180 C   0  0  0  0  0  0  0  0  0  0  0  0
   59.2730   33.8190   48.2930 C   0  0  0  0  0  0  0  0  0  0  0  0
   61.0280   30.5400   46.6520 C   0  0  0  0  0  0  0  0  0  0  0  0
   60.5050   29.2440   46.6670 C   0  0  0  0  0  0  0  0  0  0  0  0
   56.2751   24.7375   45.7901 H   0  0  0  0  0  0  0  0  0  0  0  0
   55.7248   25.0841   47.4660 H   0  0  0  0  0  0  0  0  0  0  0  0
   54.8020   29.0270   45.2250 H   0  0  0  0  0  0  0  0  0  0  0  0
   57.5915   30.5805   46.1081 H   0  0  0  0  0  0  0  0  0  0  0  0
   58.8152   32.4259   44.9592 H   0  0  0  0  0  0  0  0  0  0  0  0
   58.4431   32.8508   42.5280 H   0  0  0  0  0  0  0  0  0  0  0  0
   56.8530   31.4204   41.2382 H   0  0  0  0  0  0  0  0  0  0  0  0
   55.6136   29.5816   42.3817 H   0  0  0  0  0  0  0  0  0  0  0  0
   57.5410   27.8180   47.1450 H   0  0  0  0  0  0  0  0  0  0  0  0
   59.7097   29.0218   49.9891 H   0  0  0  0  0  0  0  0  0  0  0  0
   60.6383   31.3350   49.9526 H   0  0  0  0  0  0  0  0  0  0  0  0
   60.8833   34.6386   45.4510 H   0  0  0  0  0  0  0  0  0  0  0  0
   60.1671   32.9937   45.6482 H   0  0  0  0  0  0  0  0  0  0  0  0
   58.7257   35.6553   46.0803 H   0  0  0  0  0  0  0  0  0  0  0  0
   58.5520   34.5114   44.6585 H   0  0  0  0  0  0  0  0  0  0  0  0
   57.2725   33.0167   48.2014 H   0  0  0  0  0  0  0  0  0  0  0  0
   58.5011   32.1910   47.1358 H   0  0  0  0  0  0  0  0  0  0  0  0
   58.9184   34.7804   48.6930 H   0  0  0  0  0  0  0  0  0  0  0  0
   59.5769   33.1367   49.1005 H   0  0  0  0  0  0  0  0  0  0  0  0
   61.3937   30.9714   45.7085 H   0  0  0  0  0  0  0  0  0  0  0  0
   60.4566   28.6635   45.7339 H   0  0  0  0  0  0  0  0  0  0  0  0
  1  2  2  0
  2  3  1  0
  3  4  1  0
  4  5  1  0
  5  6  2  0
  5  7  1  0
  7  8  1  0
  8  9  2  0
  9 10  1  0
 10 11  2  0
 11 12  1  0
 12 13  2  0
  2 14  1  0
 14 15  1  0
 15 16  2  0
 15 17  1  0
 17 18  2  0
 18 19  1  0
 19 20  2  0
 20 21  1  0
 21 22  2  0
 21 23  2  0
 21 24  1  0
 24 25  1  0
 25 26  1  0
 26 27  1  0
 27 28  1  0
 28 29  1  0
 20 30  1  0
 30 31  2  0
 13  8  1  0
 31 17  1  0
 29 24  1  0
  3 32  1  0
  3 33  1  0
  7 34  1  0
  9 35  1  0
 10 36  1  0
 11 37  1  0
 12 38  1  0
 13 39  1  0
 14 40  1  0
 18 41  1  0
 19 42  1  0
 25 43  1  0
 25 44  1  0
 26 45  1  0
 26 46  1  0
 28 47  1  0
 28 48  1  0
 29 49  1  0
 29 50  1  0
 30 51  1  0
 31 52  1  0
M  CHG  1   4  -1
M  END
>  <UniqueID>  (64) 
61

>  <SMILES>  (64) 
O=C(C[N-]C(=O)Nc1ccccc1)NC(=O)c1ccc(S(=O)(=O)N2CCOCC2)cc1

>  <Energy>  (64) 
68.24415885198555

>  <Genealogy>  (64) 
O=C(C[N-]C(=O)Nc1ccccc1)NC(=O)c1ccc(S(=O)(=O)N2CCOCC2)cc1 (protonated)
O=C(C[N-]C(=O)Nc1ccccc1)NC(=O)c1ccc(S(=O)(=O)N2CCOCC2)cc1 (3D coordinates assigned)
O=C(C[N-]C(=O)Nc1ccccc1)NC(=O)c1ccc(S(=O)(=O)N2CCOCC2)cc1 (nonaromatic ring conformer: 68.24415885198555 kcal/mol)

>  <smiles>  (64) 
O=C(CNC(=O)Nc1ccccc1)NC(=O)c1ccc(S(=O)(=O)N2CCOCC2)cc1

>  <score_type>  (64) 
oracle

>  <origin>  (64) 
adg

>  <m_score__min__energy>  (64) 
-10.76

>  <m_primary>  (64) 
energy

$$$$
64:0
     RDKit          3D

 50 53  0  0  0  0  0  0  0  0999 V2000
   57.7980   28.0880   44.2840 C   0  0  0  0  0  0  0  0  0  0  0  0
   58.2550   27.6600   45.4720 C   0  0  0  0  0  0  0  0  0  0  0  0
   58.2540   26.3380   45.9380 C   0  0  0  0  0  0  0  0  0  0  0  0
   57.7990   25.2470   45.2850 C   0  0  0  0  0  0  0  0  0  0  0  0
   56.4550   24.6550   45.4620 C   0  0  0  0  0  0  0  0  0  0  0  0
   56.1550   23.3530   45.3010 N   0  0  0  0  0  0  0  0  0  0  0  0
   54.8200   23.3080   45.4870 C   0  0  0  0  0  0  0  0  0  0  0  0
   54.1620   22.2370   45.4220 O   0  0  0  0  0  0  0  0  0  0  0  0
   54.2430   24.5010   45.7430 N   0  0  0  0  0  0  0  0  0  0  0  0
   55.2870   25.3470   45.7190 C   0  0  0  0  0  0  0  0  0  0  0  0
   55.1600   26.7160   45.9360 O   0  0  0  0  0  0  0  0  0  0  0  0
   58.7780   26.3840   47.2260 C   0  0  0  0  0  0  0  0  0  0  0  0
   59.0880   27.7040   47.4830 C   0  0  0  0  0  0  0  0  0  0  0  0
   59.6570   28.2070   48.7760 C   0  0  0  0  0  0  0  0  0  0  0  0
   58.7670   28.4800   46.4250 N   0  0  0  0  0  0  0  0  0  0  0  0
   58.9490   29.9040   46.3420 C   0  0  0  0  0  0  0  0  0  0  0  0
   57.9420   30.7140   45.8050 C   0  0  0  0  0  0  0  0  0  0  0  0
   58.1240   32.0950   45.7090 C   0  0  0  0  0  0  0  0  0  0  0  0
   59.3230   32.6900   46.1500 C   0  0  0  0  0  0  0  0  0  0  0  0
   59.5250   34.0780   46.0940 O   0  0  0  0  0  0  0  0  0  0  0  0
   59.2530   34.9780   47.1620 C   0  0  0  0  0  0  0  0  0  0  0  0
   60.3410   31.8730   46.6780 C   0  0  0  0  0  0  0  0  0  0  0  0
   61.5810   32.4490   47.1170 N   0  0  0  0  0  0  0  0  0  0  0  0
   62.2440   33.5360   46.4180 C   0  0  0  0  0  0  0  0  0  0  0  0
   63.4930   33.8380   47.2320 C   0  0  0  0  0  0  0  0  0  0  0  0
   63.7150   32.6220   48.1310 C   0  0  0  0  0  0  0  0  0  0  0  0
   62.3750   31.9020   48.2010 C   0  0  0  0  0  0  0  0  0  0  0  0
   60.1450   30.4870   46.7760 C   0  0  0  0  0  0  0  0  0  0  0  0
   57.8513   29.1561   44.0266 H   0  0  0  0  0  0  0  0  0  0  0  0
   57.3703   27.3705   43.5683 H   0  0  0  0  0  0  0  0  0  0  0  0
   58.4783   24.7625   44.5682 H   0  0  0  0  0  0  0  0  0  0  0  0
   54.3370   27.1150   46.3690 H   0  0  0  0  0  0  0  0  0  0  0  0
   58.9182   25.5324   47.9080 H   0  0  0  0  0  0  0  0  0  0  0  0
   59.1261   27.7377   49.6174 H   0  0  0  0  0  0  0  0  0  0  0  0
   60.7260   27.9532   48.8295 H   0  0  0  0  0  0  0  0  0  0  0  0
   59.5363   29.2990   48.8295 H   0  0  0  0  0  0  0  0  0  0  0  0
   57.0023   30.2604   45.4568 H   0  0  0  0  0  0  0  0  0  0  0  0
   57.3259   32.7230   45.2862 H   0  0  0  0  0  0  0  0  0  0  0  0
   59.4081   34.4648   48.1225 H   0  0  0  0  0  0  0  0  0  0  0  0
   59.9300   35.8423   47.0946 H   0  0  0  0  0  0  0  0  0  0  0  0
   58.2106   35.3227   47.0946 H   0  0  0  0  0  0  0  0  0  0  0  0
   62.5150   33.2284   45.3972 H   0  0  0  0  0  0  0  0  0  0  0  0
   61.5940   34.4184   46.3239 H   0  0  0  0  0  0  0  0  0  0  0  0
   64.3567   33.9840   46.5666 H   0  0  0  0  0  0  0  0  0  0  0  0
   63.3761   34.7590   47.8220 H   0  0  0  0  0  0  0  0  0  0  0  0
   64.4815   31.9619   47.6988 H   0  0  0  0  0  0  0  0  0  0  0  0
   64.0660   32.9184   49.1305 H   0  0  0  0  0  0  0  0  0  0  0  0
   62.5136   30.8190   48.0669 H   0  0  0  0  0  0  0  0  0  0  0  0
   61.8863   32.0455   49.1760 H   0  0  0  0  0  0  0  0  0  0  0  0
   60.9387   29.8529   47.1978 H   0  0  0  0  0  0  0  0  0  0  0  0
  1  2  2  0
  2  3  1  0
  3  4  2  3
  4  5  1  0
  5  6  1  0
  6  7  1  0
  7  8  2  0
  7  9  1  0
  9 10  1  0
 10 11  1  0
  3 12  1  0
 12 13  2  0
 13 14  1  0
 13 15  1  0
 15 16  1  0
 16 17  2  0
 17 18  1  0
 18 19  2  0
 19 20  1  0
 20 21  1  0
 19 22  1  0
 22 23  1  0
 23 24  1  0
 24 25  1  0
 25 26  1  0
 26 27  1  0
 22 28  2  0
 15  2  1  0
 28 16  1  0
 10  5  2  0
 27 23  1  0
  1 29  1  0
  1 30  1  0
  4 31  1  0
 11 32  1  0
 12 33  1  0
 14 34  1  0
 14 35  1  0
 14 36  1  0
 17 37  1  0
 18 38  1  0
 21 39  1  0
 21 40  1  0
 21 41  1  0
 24 42  1  0
 24 43  1  0
 25 44  1  0
 25 45  1  0
 26 46  1  0
 26 47  1  0
 27 48  1  0
 27 49  1  0
 28 50  1  0
M  CHG  2   6  -1   9  -1
M  END
>  <UniqueID>  (65) 
62

>  <SMILES>  (65) 
C=c1c(=Cc2[n-]c(=O)[n-]c2O)cc(C)n1-c1ccc(OC)c(N2CCCC2)c1

>  <Energy>  (65) 
125.26040009129187

>  <Genealogy>  (65) 
C=c1c(=Cc2[n-]c(=O)[n-]c2O)cc(C)n1-c1ccc(OC)c(N2CCCC2)c1 (protonated)
C=c1c(=Cc2[n-]c(=O)[n-]c2O)cc(C)n1-c1ccc(OC)c(N2CCCC2)c1 (3D coordinates assigned)
C=c1c(=Cc2[n-]c(=O)[n-]c2O)cc(C)n1-c1ccc(OC)c(N2CCCC2)c1 (nonaromatic ring conformer: 125.26040009129187 kcal/mol)

>  <smiles>  (65) 
C=c1c(=Cc2[nH]c(=O)[nH]c2O)cc(C)n1-c1ccc(OC)c(N2CCCC2)c1

>  <score_type>  (65) 
oracle

>  <origin>  (65) 
adg

>  <m_score__min__energy>  (65) 
-13.300000000000001

>  <m_primary>  (65) 
energy

$$$$
65:0
     RDKit          3D

 50 53  0  0  0  0  0  0  0  0999 V2000
   58.1330   20.8980   45.9890 C   0  0  0  0  0  0  0  0  0  0  0  0
   57.8960   22.2590   45.4030 C   0  0  0  0  0  0  0  0  0  0  0  0
   57.4970   22.4020   44.0530 C   0  0  0  0  0  0  0  0  0  0  0  0
   57.3140   23.6780   43.4910 C   0  0  0  0  0  0  0  0  0  0  0  0
   57.5400   24.8030   44.2860 C   0  0  0  0  0  0  0  0  0  0  0  0
   57.3920   26.0880   43.8710 N   0  0  0  0  0  0  0  0  0  0  0  0
   57.6770   26.9790   44.8600 C   0  0  0  0  0  0  0  0  0  0  0  0
   57.5840   28.4540   44.7140 C   0  0  0  0  0  0  0  0  0  0  0  0
   58.0710   29.3120   45.7170 C   0  0  0  0  0  0  0  0  0  0  0  0
   58.0110   30.6980   45.5550 C   0  0  0  0  0  0  0  0  0  0  0  0
   57.4440   31.2570   44.4050 C   0  0  0  0  0  0  0  0  0  0  0  0
   57.4390   32.6840   44.2650 N   0  0  0  0  0  0  0  0  0  0  0  0
   58.3430   33.6100   44.8740 C   0  0  0  0  0  0  0  0  0  0  0  0
   59.1930   34.2300   44.1810 O   0  0  0  0  0  0  0  0  0  0  0  0
   58.2290   33.8950   46.3370 C   0  0  0  0  0  0  0  0  0  0  0  0
   59.7460   34.5860   46.9870 S   0  0  0  0  0  0  0  0  0  0  0  0
   59.7790   34.4390   48.4850 O   0  0  0  0  0  0  0  0  0  0  0  0
   59.7890   36.0490   46.6460 O   0  0  0  0  0  0  0  0  0  0  0  0
   61.1900   33.8020   46.2800 C   0  0  0  0  0  0  0  0  0  0  0  0
   62.1090   33.2630   47.3490 C   0  0  0  0  0  0  0  0  0  0  0  0
   63.3210   33.9290   47.6030 C   0  0  0  0  0  0  0  0  0  0  0  0
   64.1980   33.4600   48.5810 C   0  0  0  0  0  0  0  0  0  0  0  0
   63.8760   32.3220   49.3200 C   0  0  0  0  0  0  0  0  0  0  0  0
   62.6770   31.6530   49.0830 C   0  0  0  0  0  0  0  0  0  0  0  0
   61.7910   32.1110   48.1020 C   0  0  0  0  0  0  0  0  0  0  0  0
   60.3020   31.2110   47.8550 Cl  0  0  0  0  0  0  0  0  0  0  0  0
   56.9640   30.4070   43.3950 C   0  0  0  0  0  0  0  0  0  0  0  0
   57.0280   29.0200   43.5520 C   0  0  0  0  0  0  0  0  0  0  0  0
   58.1190   26.1750   46.2910 S   0  0  0  0  0  0  0  0  0  0  0  0
   57.9380   24.6550   45.6040 C   0  0  0  0  0  0  0  0  0  0  0  0
   58.1280   23.4060   46.1870 C   0  0  0  0  0  0  0  0  0  0  0  0
   58.1214   20.9644   47.0869 H   0  0  0  0  0  0  0  0  0  0  0  0
   57.3408   20.2119   45.6548 H   0  0  0  0  0  0  0  0  0  0  0  0
   59.1105   20.5200   45.6548 H   0  0  0  0  0  0  0  0  0  0  0  0
   57.3283   21.5063   43.4371 H   0  0  0  0  0  0  0  0  0  0  0  0
   56.9982   23.7877   42.4430 H   0  0  0  0  0  0  0  0  0  0  0  0
   57.0670   26.3410   42.9110 H   0  0  0  0  0  0  0  0  0  0  0  0
   58.5023   28.8880   46.6358 H   0  0  0  0  0  0  0  0  0  0  0  0
   58.4134   31.3561   46.3392 H   0  0  0  0  0  0  0  0  0  0  0  0
   57.4107   34.6119   46.4994 H   0  0  0  0  0  0  0  0  0  0  0  0
   58.0277   32.9483   46.8597 H   0  0  0  0  0  0  0  0  0  0  0  0
   60.8658   32.9713   45.6359 H   0  0  0  0  0  0  0  0  0  0  0  0
   61.7419   34.5565   45.7002 H   0  0  0  0  0  0  0  0  0  0  0  0
   63.5800   34.8284   47.0250 H   0  0  0  0  0  0  0  0  0  0  0  0
   65.1443   33.9882   48.7695 H   0  0  0  0  0  0  0  0  0  0  0  0
   64.5689   31.9524   50.0903 H   0  0  0  0  0  0  0  0  0  0  0  0
   62.4253   30.7584   49.6714 H   0  0  0  0  0  0  0  0  0  0  0  0
   56.5359   30.8350   42.4766 H   0  0  0  0  0  0  0  0  0  0  0  0
   56.6397   28.3639   42.7590 H   0  0  0  0  0  0  0  0  0  0  0  0
   58.4515   23.3165   47.2345 H   0  0  0  0  0  0  0  0  0  0  0  0
  1  2  1  0
  2  3  2  0
  3  4  1  0
  4  5  2  0
  5  6  1  0
  6  7  2  0
  7  8  1  0
  8  9  2  0
  9 10  1  0
 10 11  2  0
 11 12  1  0
 12 13  1  0
 13 14  2  0
 13 15  1  0
 15 16  1  0
 16 17  2  0
 16 18  2  0
 16 19  1  0
 19 20  1  0
 20 21  2  0
 21 22  1  0
 22 23  2  0
 23 24  1  0
 24 25  2  0
 25 26  1  0
 11 27  1  0
 27 28  2  0
  7 29  1  0
 29 30  1  0
 30 31  2  0
 31  2  1  0
 30  5  1  0
 28  8  1  0
 25 20  1  0
  1 32  1  0
  1 33  1  0
  1 34  1  0
  3 35  1  0
  4 36  1  0
  6 37  1  0
  9 38  1  0
 10 39  1  0
 15 40  1  0
 15 41  1  0
 19 42  1  0
 19 43  1  0
 21 44  1  0
 22 45  1  0
 23 46  1  0
 24 47  1  0
 27 48  1  0
 28 49  1  0
 31 50  1  0
M  CHG  2   6   1  12  -1
M  END
>  <UniqueID>  (66) 
63

>  <SMILES>  (66) 
Cc1ccc2[nH+]c(-c3ccc([N-]C(=O)CS(=O)(=O)Cc4ccccc4Cl)cc3)sc2c1

>  <Energy>  (66) 
84.1926828344305

>  <Genealogy>  (66) 
Cc1ccc2[nH+]c(-c3ccc([N-]C(=O)CS(=O)(=O)Cc4ccccc4Cl)cc3)sc2c1 (protonated)
Cc1ccc2[nH+]c(-c3ccc([N-]C(=O)CS(=O)(=O)Cc4ccccc4Cl)cc3)sc2c1 (3D coordinates assigned)
Cc1ccc2[nH+]c(-c3ccc([N-]C(=O)CS(=O)(=O)Cc4ccccc4Cl)cc3)sc2c1 (optimized conformer: 84.1926828344305 kcal/mol)

>  <smiles>  (66) 
Cc1ccc2nc(-c3ccc(NC(=O)CS(=O)(=O)Cc4ccccc4Cl)cc3)sc2c1

>  <score_type>  (66) 
oracle

>  <origin>  (66) 
adg

>  <m_score__min__energy>  (66) 
-10.119999999999999

>  <m_primary>  (66) 
energy

$$$$
66:0
     RDKit          3D

 55 57  0  0  0  0  0  0  0  0999 V2000
   56.3930   20.6490   45.4030 H   0  0  0  0  0  0  0  0  0  0  0  0
   56.2350   21.3630   44.7030 O   0  0  0  0  0  0  0  0  0  0  0  0
   56.8050   22.6300   44.8110 C   0  0  0  0  0  0  0  0  0  0  0  0
   56.7240   23.5390   43.7470 C   0  0  0  0  0  0  0  0  0  0  0  0
   56.2098   23.2523   42.8178 H   0  0  0  0  0  0  0  0  0  0  0  0
   57.2960   24.8100   43.8650 C   0  0  0  0  0  0  0  0  0  0  0  0
   57.2537   25.5101   43.0177 H   0  0  0  0  0  0  0  0  0  0  0  0
   57.9250   25.1970   45.0620 C   0  0  0  0  0  0  0  0  0  0  0  0
   58.5710   26.5190   45.2010 C   0  0  0  0  0  0  0  0  0  0  0  0
   59.6571   26.5305   45.3748 H   0  0  0  0  0  0  0  0  0  0  0  0
   57.9500   27.7060   45.1340 C   0  0  0  0  0  0  0  0  0  0  0  0
   58.5720   28.5841   44.9058 H   0  0  0  0  0  0  0  0  0  0  0  0
   56.5070   27.9400   45.3390 C   0  0  0  0  0  0  0  0  0  0  0  0
   55.8400   27.0730   45.9640 O   0  0  0  0  0  0  0  0  0  0  0  0
   55.8710   29.1220   44.8300 N   0  0  0  0  0  0  0  0  0  0  0  0
   56.5100   30.2400   44.1980 C   0  0  0  0  0  0  0  0  0  0  0  0
   56.5950   30.2600   42.7990 C   0  0  0  0  0  0  0  0  0  0  0  0
   56.1530   29.4406   42.2131 H   0  0  0  0  0  0  0  0  0  0  0  0
   57.2370   31.3130   42.1440 C   0  0  0  0  0  0  0  0  0  0  0  0
   57.3084   31.3145   41.0463 H   0  0  0  0  0  0  0  0  0  0  0  0
   57.7890   32.3650   42.8800 C   0  0  0  0  0  0  0  0  0  0  0  0
   58.3067   33.1860   42.3624 H   0  0  0  0  0  0  0  0  0  0  0  0
   57.6830   32.3740   44.2770 C   0  0  0  0  0  0  0  0  0  0  0  0
   58.2430   33.4910   45.0540 C   0  0  0  0  0  0  0  0  0  0  0  0
   57.7230   34.6320   44.9250 O   0  0  0  0  0  0  0  0  0  0  0  0
   59.3560   33.2910   45.9520 N   0  0  0  0  0  0  0  0  0  0  0  0
   60.1210   34.4360   46.4660 C   0  0  0  0  0  0  0  0  0  0  0  0
   59.5914   35.3683   46.2206 H   0  0  0  0  0  0  0  0  0  0  0  0
   61.1187   34.4424   46.0029 H   0  0  0  0  0  0  0  0  0  0  0  0
   60.2710   34.3220   47.9860 C   0  0  0  0  0  0  0  0  0  0  0  0
   59.3057   34.5572   48.4581 H   0  0  0  0  0  0  0  0  0  0  0  0
   61.0499   35.0290   48.3076 H   0  0  0  0  0  0  0  0  0  0  0  0
   60.6830   32.9710   48.3920 N   0  0  0  0  0  0  0  0  0  0  0  0
   60.9990   32.7320   49.7770 C   0  0  0  0  0  0  0  0  0  0  0  0
   61.4340   31.6070   50.1470 O   0  0  0  0  0  0  0  0  0  0  0  0
   60.8300   33.7620   50.7150 O   0  0  0  0  0  0  0  0  0  0  0  0
   60.2820   33.5610   52.0160 C   0  0  0  0  0  0  0  0  0  0  0  0
   60.7785   34.2387   52.7260 H   0  0  0  0  0  0  0  0  0  0  0  0
   60.4452   32.5141   52.3116 H   0  0  0  0  0  0  0  0  0  0  0  0
   58.7850   33.8440   52.0170 C   0  0  0  0  0  0  0  0  0  0  0  0
   58.4254   33.9120   53.0543 H   0  0  0  0  0  0  0  0  0  0  0  0
   58.5912   34.7947   51.4987 H   0  0  0  0  0  0  0  0  0  0  0  0
   58.2575   33.0297   51.4987 H   0  0  0  0  0  0  0  0  0  0  0  0
   60.8770   31.9210   47.3800 C   0  0  0  0  0  0  0  0  0  0  0  0
   60.9170   30.9410   47.8780 H   0  0  0  0  0  0  0  0  0  0  0  0
   61.8185   32.1124   46.8443 H   0  0  0  0  0  0  0  0  0  0  0  0
   59.7200   31.9280   46.3700 C   0  0  0  0  0  0  0  0  0  0  0  0
   58.8425   31.4532   46.8331 H   0  0  0  0  0  0  0  0  0  0  0  0
   60.0482   31.3768   45.4764 H   0  0  0  0  0  0  0  0  0  0  0  0
   57.0330   31.3200   44.9330 C   0  0  0  0  0  0  0  0  0  0  0  0
   56.9311   31.3370   46.0281 H   0  0  0  0  0  0  0  0  0  0  0  0
   58.0340   24.2700   46.1080 C   0  0  0  0  0  0  0  0  0  0  0  0
   58.5672   24.5461   47.0297 H   0  0  0  0  0  0  0  0  0  0  0  0
   57.4690   22.9960   45.9870 C   0  0  0  0  0  0  0  0  0  0  0  0
   57.5730   22.0950   47.0390 O   0  0  0  0  0  0  0  0  0  0  0  0
  1  2  1  0
  2  3  1  0
  3  4  2  0
  4  5  1  0
  4  6  1  0
  6  7  1  0
  6  8  2  0
  8  9  1  0
  9 10  1  0
  9 11  2  0
 11 12  1  0
 11 13  1  0
 13 14  2  0
 13 15  1  0
 15 16  1  0
 16 17  2  0
 17 18  1  0
 17 19  1  0
 19 20  1  0
 19 21  2  0
 21 22  1  0
 21 23  1  0
 23 24  1  0
 24 25  2  0
 24 26  1  0
 26 27  1  0
 27 28  1  0
 27 29  1  0
 27 30  1  0
 30 31  1  0
 30 32  1  0
 30 33  1  0
 33 34  1  0
 34 35  2  0
 34 36  1  0
 36 37  1  0
 37 38  1  0
 37 39  1  0
 37 40  1  0
 40 41  1  0
 40 42  1  0
 40 43  1  0
 33 44  1  0
 44 45  1  0
 44 46  1  0
 44 47  1  0
 47 48  1  0
 47 49  1  0
 23 50  2  0
 50 51  1  0
  8 52  1  0
 52 53  1  0
 52 54  2  0
 54 55  1  0
 54  3  1  0
 50 16  1  0
 47 26  1  0
M  CHG  2  15  -1  55  -1
M  END
>  <UniqueID>  (67) 
64

>  <SMILES>  (67) 
CCOC(=O)N1CCN(C(=O)c2cccc([N-]C(=O)/C=C\c3ccc(O)c([O-])c3)c2)CC1

>  <Energy>  (67) 
69.66918695462782

>  <Genealogy>  (67) 
CCOC(=O)N1CCN(C(=O)c2cccc([N-]C(=O)C=Cc3ccc(O)c([O-])c3)c2)CC1 (protonated)
CCOC(=O)N1CCN(C(=O)c2cccc([N-]C(=O)/C=C\c3ccc(O)c([O-])c3)c2)CC1 (cis-trans isomerization)
CCOC(=O)N1CCN(C(=O)c2cccc([N-]C(=O)/C=C\c3ccc(O)c([O-])c3)c2)CC1 (3D coordinates assigned)
CCOC(=O)N1CCN(C(=O)c2cccc([N-]C(=O)/C=C\c3ccc(O)c([O-])c3)c2)CC1 (nonaromatic ring conformer: 69.66918695462782 kcal/mol)

>  <smiles>  (67) 
CCOC(=O)N1CCN(C(=O)c2cccc(NC(=O)C=Cc3ccc(O)c(O)c3)c2)CC1

>  <score_type>  (67) 
oracle

>  <origin>  (67) 
adg

>  <m_score__min__energy>  (67) 
-14.17

>  <m_primary>  (67) 
energy

$$$$
67:0
     RDKit          3D

 34 35  0  0  0  0  0  0  0  0999 V2000
   58.5900   30.8700   46.6280 C   0  0  0  0  0  0  0  0  0  0  0  0
   58.3390   30.5590   45.3490 C   0  0  0  0  0  0  0  0  0  0  0  0
   57.5690   31.5250   44.4890 C   0  0  0  0  0  0  0  0  0  0  0  0
   58.8120   29.2390   44.7810 C   0  0  0  0  0  0  0  0  0  0  0  0
   58.1490   28.1200   45.4720 N   0  0  0  0  0  0  0  0  0  0  0  0
   58.9260   27.2300   46.1630 C   0  0  0  0  0  0  0  0  0  0  0  0
   58.3560   26.1280   46.8000 C   0  0  0  0  0  0  0  0  0  0  0  0
   56.9820   25.9130   46.7160 C   0  0  0  0  0  0  0  0  0  0  0  0
   56.4210   24.7650   47.3690 N   0  0  0  0  0  0  0  0  0  0  0  0
   56.8180   23.4010   47.1680 C   0  0  0  0  0  0  0  0  0  0  0  0
   57.0360   22.6830   48.1800 O   0  0  0  0  0  0  0  0  0  0  0  0
   57.0410   22.8460   45.8130 C   0  0  0  0  0  0  0  0  0  0  0  0
   56.0020   22.8100   44.8690 C   0  0  0  0  0  0  0  0  0  0  0  0
   56.2430   22.2740   43.6020 C   0  0  0  0  0  0  0  0  0  0  0  0
   57.5080   21.7750   43.2870 C   0  0  0  0  0  0  0  0  0  0  0  0
   58.5170   21.8170   44.2500 C   0  0  0  0  0  0  0  0  0  0  0  0
   58.2630   22.3430   45.4780 N   0  0  0  0  0  0  0  0  0  0  0  0
   56.1840   26.8480   46.0370 C   0  0  0  0  0  0  0  0  0  0  0  0
   54.7990   26.7100   46.0050 O   0  0  0  0  0  0  0  0  0  0  0  0
   56.7880   27.9430   45.4050 C   0  0  0  0  0  0  0  0  0  0  0  0
   56.0640   28.7650   44.7790 O   0  0  0  0  0  0  0  0  0  0  0  0
   59.1520   30.1703   47.2641 H   0  0  0  0  0  0  0  0  0  0  0  0
   58.2341   31.8250   47.0418 H   0  0  0  0  0  0  0  0  0  0  0  0
   57.0121   32.2237   45.1307 H   0  0  0  0  0  0  0  0  0  0  0  0
   58.2684   32.0885   43.8539 H   0  0  0  0  0  0  0  0  0  0  0  0
   56.8638   30.9688   43.8539 H   0  0  0  0  0  0  0  0  0  0  0  0
   58.5707   29.1978   43.7086 H   0  0  0  0  0  0  0  0  0  0  0  0
   59.8993   29.1557   44.9252 H   0  0  0  0  0  0  0  0  0  0  0  0
   60.0136   27.3858   46.2166 H   0  0  0  0  0  0  0  0  0  0  0  0
   58.9896   25.4304   47.3673 H   0  0  0  0  0  0  0  0  0  0  0  0
   55.0062   23.2008   45.1254 H   0  0  0  0  0  0  0  0  0  0  0  0
   55.4373   22.2451   42.8536 H   0  0  0  0  0  0  0  0  0  0  0  0
   57.7073   21.3534   42.2907 H   0  0  0  0  0  0  0  0  0  0  0  0
   59.5176   21.4247   44.0158 H   0  0  0  0  0  0  0  0  0  0  0  0
  1  2  2  0
  2  3  1  0
  2  4  1  0
  4  5  1  0
  5  6  1  0
  6  7  2  0
  7  8  1  0
  8  9  1  0
  9 10  1  0
 10 11  2  0
 10 12  1  0
 12 13  2  0
 13 14  1  0
 14 15  2  0
 15 16  1  0
 16 17  2  0
  8 18  2  0
 18 19  1  0
 18 20  1  0
 20 21  2  0
 20  5  1  0
 17 12  1  0
  1 22  1  0
  1 23  1  0
  3 24  1  0
  3 25  1  0
  3 26  1  0
  4 27  1  0
  4 28  1  0
  6 29  1  0
  7 30  1  0
 13 31  1  0
 14 32  1  0
 15 33  1  0
 16 34  1  0
M  CHG  2   9  -1  19  -1
M  END
>  <UniqueID>  (68) 
65

>  <SMILES>  (68) 
C=C(C)Cn1ccc([N-]C(=O)c2ccccn2)c([O-])c1=O

>  <Energy>  (68) 
40.68993030243414

>  <Genealogy>  (68) 
C=C(C)Cn1ccc([N-]C(=O)c2ccccn2)c([O-])c1=O (protonated)
C=C(C)Cn1ccc([N-]C(=O)c2ccccn2)c([O-])c1=O (3D coordinates assigned)
C=C(C)Cn1ccc([N-]C(=O)c2ccccn2)c([O-])c1=O (optimized conformer: 40.68993030243414 kcal/mol)

>  <smiles>  (68) 
C=C(C)Cn1ccc(NC(=O)c2ccccn2)c(O)c1=O

>  <score_type>  (68) 
oracle

>  <origin>  (68) 
adg

>  <m_score__min__energy>  (68) 
-13.119999999999999

>  <m_primary>  (68) 
energy

$$$$
68:0
     RDKit          3D

 42 44  0  0  0  0  0  0  0  0999 V2000
   55.1550   29.3650   44.8990 N   0  0  0  0  0  0  0  0  0  0  0  0
   56.5380   30.2010   44.2910 S   0  0  0  0  0  0  0  0  0  0  0  0
   56.6370   30.0020   42.8040 O   0  0  0  0  0  0  0  0  0  0  0  0
   56.3920   31.6700   44.5740 O   0  0  0  0  0  0  0  0  0  0  0  0
   57.9900   29.5740   45.0650 C   0  0  0  0  0  0  0  0  0  0  0  0
   58.5980   28.4000   44.6010 C   0  0  0  0  0  0  0  0  0  0  0  0
   59.7480   27.9110   45.2280 C   0  0  0  0  0  0  0  0  0  0  0  0
   60.3020   28.5980   46.3130 C   0  0  0  0  0  0  0  0  0  0  0  0
   59.7160   29.7880   46.7720 C   0  0  0  0  0  0  0  0  0  0  0  0
   60.2960   30.5120   47.9220 C   0  0  0  0  0  0  0  0  0  0  0  0
   61.5250   30.7890   47.9270 O   0  0  0  0  0  0  0  0  0  0  0  0
   59.4760   30.9050   49.0320 N   0  0  0  0  0  0  0  0  0  0  0  0
   59.2440   30.1070   50.2270 C   0  0  0  0  0  0  0  0  0  0  0  0
   58.0930   30.8360   50.9430 C   0  0  0  0  0  0  0  0  0  0  0  0
   57.7680   31.9560   50.0710 N   0  0  0  0  0  0  0  0  0  0  0  0
   58.5330   31.9620   49.0390 C   0  0  0  0  0  0  0  0  0  0  0  0
   58.4870   33.2760   47.8130 S   0  0  0  0  0  0  0  0  0  0  0  0
   59.7540   34.3000   48.6440 C   0  0  0  0  0  0  0  0  0  0  0  0
   61.1400   33.9300   48.1920 C   0  0  0  0  0  0  0  0  0  0  0  0
   61.4470   33.8810   46.8210 C   0  0  0  0  0  0  0  0  0  0  0  0
   62.7440   33.5760   46.4010 C   0  0  0  0  0  0  0  0  0  0  0  0
   63.7450   33.3220   47.3420 C   0  0  0  0  0  0  0  0  0  0  0  0
   63.4490   33.3720   48.7080 C   0  0  0  0  0  0  0  0  0  0  0  0
   64.4230   33.1320   49.6210 F   0  0  0  0  0  0  0  0  0  0  0  0
   62.1520   33.6730   49.1330 C   0  0  0  0  0  0  0  0  0  0  0  0
   58.5480   30.2630   46.1490 C   0  0  0  0  0  0  0  0  0  0  0  0
   55.1770   28.4020   44.4910 H   0  0  0  0  0  0  0  0  0  0  0  0
   58.1699   27.8623   43.7422 H   0  0  0  0  0  0  0  0  0  0  0  0
   60.2180   26.9842   44.8673 H   0  0  0  0  0  0  0  0  0  0  0  0
   61.2012   28.2039   46.8090 H   0  0  0  0  0  0  0  0  0  0  0  0
   58.9515   29.0805   49.9611 H   0  0  0  0  0  0  0  0  0  0  0  0
   60.1422   30.0138   50.8551 H   0  0  0  0  0  0  0  0  0  0  0  0
   57.2250   30.1704   51.0599 H   0  0  0  0  0  0  0  0  0  0  0  0
   58.3725   31.1632   51.9553 H   0  0  0  0  0  0  0  0  0  0  0  0
   57.0390   32.6770   50.2720 H   0  0  0  0  0  0  0  0  0  0  0  0
   59.5707   35.3585   48.4072 H   0  0  0  0  0  0  0  0  0  0  0  0
   59.6846   34.1254   49.7278 H   0  0  0  0  0  0  0  0  0  0  0  0
   60.6632   34.0835   46.0763 H   0  0  0  0  0  0  0  0  0  0  0  0
   62.9777   33.5357   45.3269 H   0  0  0  0  0  0  0  0  0  0  0  0
   64.7656   33.0828   47.0086 H   0  0  0  0  0  0  0  0  0  0  0  0
   61.9223   33.7089   50.2081 H   0  0  0  0  0  0  0  0  0  0  0  0
   58.0691   31.1828   46.5160 H   0  0  0  0  0  0  0  0  0  0  0  0
  1  2  1  0
  2  3  2  0
  2  4  2  0
  2  5  1  0
  5  6  2  0
  6  7  1  0
  7  8  2  0
  8  9  1  0
  9 10  1  0
 10 11  2  0
 10 12  1  0
 12 13  1  0
 13 14  1  0
 14 15  1  0
 15 16  2  0
 16 17  1  0
 17 18  1  0
 18 19  1  0
 19 20  2  0
 20 21  1  0
 21 22  2  0
 22 23  1  0
 23 24  1  0
 23 25  2  0
  9 26  2  0
 26  5  1  0
 16 12  1  0
 25 19  1  0
  1 27  1  0
  6 28  1  0
  7 29  1  0
  8 30  1  0
 13 31  1  0
 13 32  1  0
 14 33  1  0
 14 34  1  0
 15 35  1  0
 18 36  1  0
 18 37  1  0
 20 38  1  0
 21 39  1  0
 22 40  1  0
 25 41  1  0
 26 42  1  0
M  CHG  2   1  -1  15   1
M  END
>  <UniqueID>  (69) 
66

>  <SMILES>  (69) 
[NH-]S(=O)(=O)c1cccc(C(=O)N2CC[NH+]=C2SCc2cccc(F)c2)c1

>  <Energy>  (69) 
53.58571453886192

>  <Genealogy>  (69) 
[NH-]S(=O)(=O)c1cccc(C(=O)N2CC[NH+]=C2SCc2cccc(F)c2)c1 (protonated)
[NH-]S(=O)(=O)c1cccc(C(=O)N2CC[NH+]=C2SCc2cccc(F)c2)c1 (3D coordinates assigned)
[NH-]S(=O)(=O)c1cccc(C(=O)N2CC[NH+]=C2SCc2cccc(F)c2)c1 (nonaromatic ring conformer: 53.58571453886192 kcal/mol)

>  <smiles>  (69) 
NS(=O)(=O)c1cccc(C(=O)N2CCN=C2SCc2cccc(F)c2)c1

>  <score_type>  (69) 
oracle

>  <origin>  (69) 
adg

>  <m_score__min__energy>  (69) 
-10.51

>  <m_primary>  (69) 
energy

$$$$
69:0
     RDKit          3D

 47 49  0  0  0  0  0  0  0  0999 V2000
   59.3950   32.9180   49.1520 O   0  0  0  0  0  0  0  0  0  0  0  0
   59.9910   33.9670   48.7890 C   0  0  0  0  0  0  0  0  0  0  0  0
   59.2680   34.9330   47.8900 C   0  0  0  0  0  0  0  0  0  0  0  0
   58.8870   34.2580   46.6000 C   0  0  0  0  0  0  0  0  0  0  0  0
   57.8510   33.3100   46.5810 C   0  0  0  0  0  0  0  0  0  0  0  0
   57.5150   32.6570   45.3920 C   0  0  0  0  0  0  0  0  0  0  0  0
   58.2110   32.9420   44.2130 C   0  0  0  0  0  0  0  0  0  0  0  0
   57.7520   32.0480   42.5890 Br  0  0  0  0  0  0  0  0  0  0  0  0
   59.2470   33.8820   44.2240 C   0  0  0  0  0  0  0  0  0  0  0  0
   59.5850   34.5360   45.4120 C   0  0  0  0  0  0  0  0  0  0  0  0
   61.3510   34.1580   49.1990 N   0  0  0  0  0  0  0  0  0  0  0  0
   62.5430   33.6460   48.5220 C   0  0  1  0  0  0  0  0  0  0  0  0
   63.2130   32.5600   49.3740 C   0  0  0  0  0  0  0  0  0  0  0  0
   62.3120   31.3140   49.5510 C   0  0  0  0  0  0  0  0  0  0  0  0
   61.3100   31.1410   48.4620 N   0  0  2  0  0  0  0  0  0  0  0  0
   60.8490   29.7350   48.3800 C   0  0  0  0  0  0  0  0  0  0  0  0
   60.0000   29.4920   47.1530 C   0  0  0  0  0  0  0  0  0  0  0  0
   60.5900   29.0000   45.9760 C   0  0  0  0  0  0  0  0  0  0  0  0
   59.8140   28.8040   44.8290 C   0  0  0  0  0  0  0  0  0  0  0  0
   58.4490   29.1010   44.8480 C   0  0  0  0  0  0  0  0  0  0  0  0
   57.8560   29.5940   46.0130 C   0  0  0  0  0  0  0  0  0  0  0  0
   58.6280   29.7920   47.1630 C   0  0  0  0  0  0  0  0  0  0  0  0
   61.8610   31.5680   47.1570 C   0  0  0  0  0  0  0  0  0  0  0  0
   62.1560   33.0830   47.1390 C   0  0  0  0  0  0  0  0  0  0  0  0
   58.3585   35.2890   48.3961 H   0  0  0  0  0  0  0  0  0  0  0  0
   59.9316   35.7818   47.6682 H   0  0  0  0  0  0  0  0  0  0  0  0
   57.3017   33.0805   47.5060 H   0  0  0  0  0  0  0  0  0  0  0  0
   56.7011   31.9171   45.3835 H   0  0  0  0  0  0  0  0  0  0  0  0
   59.7957   34.1064   43.2974 H   0  0  0  0  0  0  0  0  0  0  0  0
   60.4020   35.2726   45.4174 H   0  0  0  0  0  0  0  0  0  0  0  0
   63.2592   34.4694   48.3838 H   0  0  0  0  0  0  0  0  0  0  0  0
   63.4383   32.9776   50.3664 H   0  0  0  0  0  0  0  0  0  0  0  0
   64.1292   32.2421   48.8548 H   0  0  0  0  0  0  0  0  0  0  0  0
   61.7745   31.4068   50.5062 H   0  0  0  0  0  0  0  0  0  0  0  0
   62.9712   30.4338   49.5247 H   0  0  0  0  0  0  0  0  0  0  0  0
   60.4740   31.7380   48.6690 H   0  0  0  0  0  0  0  0  0  0  0  0
   61.7275   29.0741   48.3414 H   0  0  0  0  0  0  0  0  0  0  0  0
   60.2342   29.5250   49.2676 H   0  0  0  0  0  0  0  0  0  0  0  0
   61.6652   28.7684   45.9569 H   0  0  0  0  0  0  0  0  0  0  0  0
   60.2790   28.4156   43.9109 H   0  0  0  0  0  0  0  0  0  0  0  0
   57.8405   28.9465   43.9448 H   0  0  0  0  0  0  0  0  0  0  0  0
   56.7810   29.8268   46.0262 H   0  0  0  0  0  0  0  0  0  0  0  0
   58.1590   30.1838   48.0776 H   0  0  0  0  0  0  0  0  0  0  0  0
   61.1313   31.3360   46.3672 H   0  0  0  0  0  0  0  0  0  0  0  0
   62.8049   31.0294   46.9867 H   0  0  0  0  0  0  0  0  0  0  0  0
   61.2567   33.6096   46.7869 H   0  0  0  0  0  0  0  0  0  0  0  0
   63.0161   33.2394   46.4714 H   0  0  0  0  0  0  0  0  0  0  0  0
  1  2  2  0
  2  3  1  0
  3  4  1  0
  4  5  2  0
  5  6  1  0
  6  7  2  0
  7  8  1  0
  7  9  1  0
  9 10  2  0
  2 11  1  0
 11 12  1  0
 12 13  1  0
 13 14  1  0
 14 15  1  0
 15 16  1  0
 16 17  1  0
 17 18  2  0
 18 19  1  0
 19 20  2  0
 20 21  1  0
 21 22  2  0
 15 23  1  0
 23 24  1  0
 10  4  1  0
 24 12  1  0
 22 17  1  0
  3 25  1  0
  3 26  1  0
  5 27  1  0
  6 28  1  0
  9 29  1  0
 10 30  1  0
 12 31  1  6
 13 32  1  0
 13 33  1  0
 14 34  1  0
 14 35  1  0
 15 36  1  1
 16 37  1  0
 16 38  1  0
 18 39  1  0
 19 40  1  0
 20 41  1  0
 21 42  1  0
 22 43  1  0
 23 44  1  0
 23 45  1  0
 24 46  1  0
 24 47  1  0
M  CHG  2  11  -1  15   1
M  END
>  <UniqueID>  (70) 
67

>  <SMILES>  (70) 
O=C(Cc1ccc(Br)cc1)[N-]C1CC[NH+](Cc2ccccc2)CC1

>  <Energy>  (70) 
53.1528623967181

>  <Genealogy>  (70) 
O=C(Cc1ccc(Br)cc1)[N-]C1CC[NH+](Cc2ccccc2)CC1 (protonated)
O=C(Cc1ccc(Br)cc1)[N-]C1CC[NH+](Cc2ccccc2)CC1 (3D coordinates assigned)
O=C(Cc1ccc(Br)cc1)[N-]C1CC[NH+](Cc2ccccc2)CC1 (nonaromatic ring conformer: 53.1528623967181 kcal/mol)

>  <smiles>  (70) 
O=C(Cc1ccc(Br)cc1)NC1CCN(Cc2ccccc2)CC1

>  <score_type>  (70) 
oracle

>  <origin>  (70) 
adg

>  <m_score__min__energy>  (70) 
-8.4499999999999993

>  <m_primary>  (70) 
energy

$$$$
70:0
     RDKit          3D

 53 56  0  0  0  0  0  0  0  0999 V2000
   57.4590   25.4120   45.4800 O   0  0  0  0  0  0  0  0  0  0  0  0
   57.5430   26.6670   45.5740 C   0  0  0  0  0  0  0  0  0  0  0  0
   57.8730   27.4800   44.3620 C   0  0  0  0  0  0  0  0  0  0  0  0
   57.7190   28.9490   44.6290 C   0  0  0  0  0  0  0  0  0  0  0  0
   58.9730   30.0540   44.8510 S   0  0  0  0  0  0  0  0  0  0  0  0
   57.9310   31.3240   45.2430 C   0  0  0  0  0  0  0  0  0  0  0  0
   58.3380   32.6690   45.5630 N   0  0  0  0  0  0  0  0  0  0  0  0
   58.8600   33.5310   44.4950 C   0  0  0  0  0  0  0  0  0  0  0  0
   59.7040   34.6680   45.0820 C   0  0  0  0  0  0  0  0  0  0  0  0
   59.0020   35.3320   46.1160 O   0  0  0  0  0  0  0  0  0  0  0  0
   58.8190   34.4480   47.2020 C   0  0  0  0  0  0  0  0  0  0  0  0
   57.8890   33.2940   46.8140 C   0  0  0  0  0  0  0  0  0  0  0  0
   56.6410   30.9190   45.2380 N   0  0  0  0  0  0  0  0  0  0  0  0
   56.5240   29.6050   44.9100 C   0  0  0  0  0  0  0  0  0  0  0  0
   55.2880   28.9730   44.8710 O   0  0  0  0  0  0  0  0  0  0  0  0
   57.4320   27.3170   46.8460 N   0  0  0  0  0  0  0  0  0  0  0  0
   58.5070   27.8390   47.6390 C   0  0  0  0  0  0  0  0  0  0  0  0
   59.5680   26.9870   47.9710 C   0  0  0  0  0  0  0  0  0  0  0  0
   60.6470   27.4610   48.7200 C   0  0  0  0  0  0  0  0  0  0  0  0
   60.6830   28.7940   49.1320 C   0  0  0  0  0  0  0  0  0  0  0  0
   59.6360   29.6630   48.7960 C   0  0  0  0  0  0  0  0  0  0  0  0
   59.6840   31.3490   49.3190 S   0  0  0  0  0  0  0  0  0  0  0  0
   60.2920   31.4230   50.6920 O   0  0  0  0  0  0  0  0  0  0  0  0
   58.2740   31.8620   49.4150 O   0  0  0  0  0  0  0  0  0  0  0  0
   60.5910   32.3720   48.2230 N   0  0  0  0  0  0  0  0  0  0  0  0
   61.3160   31.6030   47.1900 C   0  0  0  0  0  0  0  0  0  0  0  0
   62.8130   31.4400   47.5050 C   0  0  0  0  0  0  0  0  0  0  0  0
   63.0290   31.4490   48.8970 O   0  0  0  0  0  0  0  0  0  0  0  0
   62.7810   32.7440   49.4110 C   0  0  0  0  0  0  0  0  0  0  0  0
   61.4420   33.3480   48.9290 C   0  0  0  0  0  0  0  0  0  0  0  0
   58.5550   29.1870   48.0380 C   0  0  0  0  0  0  0  0  0  0  0  0
   58.9132   27.2770   44.0673 H   0  0  0  0  0  0  0  0  0  0  0  0
   57.1773   27.1997   43.5573 H   0  0  0  0  0  0  0  0  0  0  0  0
   59.4847   32.9296   43.8182 H   0  0  0  0  0  0  0  0  0  0  0  0
   58.0125   33.9664   43.9452 H   0  0  0  0  0  0  0  0  0  0  0  0
   60.6371   34.2515   45.4892 H   0  0  0  0  0  0  0  0  0  0  0  0
   59.9246   35.3921   44.2838 H   0  0  0  0  0  0  0  0  0  0  0  0
   59.7950   34.0391   47.5025 H   0  0  0  0  0  0  0  0  0  0  0  0
   58.3632   35.0030   48.0352 H   0  0  0  0  0  0  0  0  0  0  0  0
   57.8923   32.5413   47.6161 H   0  0  0  0  0  0  0  0  0  0  0  0
   56.8729   33.6897   46.6690 H   0  0  0  0  0  0  0  0  0  0  0  0
   59.5512   25.9382   47.6397 H   0  0  0  0  0  0  0  0  0  0  0  0
   61.4706   26.7821   48.9860 H   0  0  0  0  0  0  0  0  0  0  0  0
   61.5350   29.1634   49.7217 H   0  0  0  0  0  0  0  0  0  0  0  0
   60.8626   30.6037   47.1137 H   0  0  0  0  0  0  0  0  0  0  0  0
   61.2364   32.1620   46.2460 H   0  0  0  0  0  0  0  0  0  0  0  0
   63.1682   30.4853   47.0899 H   0  0  0  0  0  0  0  0  0  0  0  0
   63.3643   32.2785   47.0544 H   0  0  0  0  0  0  0  0  0  0  0  0
   62.7624   32.6859   50.5093 H   0  0  0  0  0  0  0  0  0  0  0  0
   63.5846   33.3993   49.0438 H   0  0  0  0  0  0  0  0  0  0  0  0
   60.8920   33.7244   49.8041 H   0  0  0  0  0  0  0  0  0  0  0  0
   61.6808   34.1521   48.2174 H   0  0  0  0  0  0  0  0  0  0  0  0
   57.7416   29.8712   47.7546 H   0  0  0  0  0  0  0  0  0  0  0  0
  1  2  2  0
  2  3  1  0
  3  4  1  0
  4  5  1  0
  5  6  1  0
  6  7  1  0
  7  8  1  0
  8  9  1  0
  9 10  1  0
 10 11  1  0
 11 12  1  0
  6 13  2  0
 13 14  1  0
 14 15  1  0
  2 16  1  0
 16 17  1  0
 17 18  2  0
 18 19  1  0
 19 20  2  0
 20 21  1  0
 21 22  1  0
 22 23  2  0
 22 24  2  0
 22 25  1  0
 25 26  1  0
 26 27  1  0
 27 28  1  0
 28 29  1  0
 29 30  1  0
 21 31  2  0
 14  4  2  0
 31 17  1  0
 12  7  1  0
 30 25  1  0
  3 32  1  0
  3 33  1  0
  8 34  1  0
  8 35  1  0
  9 36  1  0
  9 37  1  0
 11 38  1  0
 11 39  1  0
 12 40  1  0
 12 41  1  0
 18 42  1  0
 19 43  1  0
 20 44  1  0
 26 45  1  0
 26 46  1  0
 27 47  1  0
 27 48  1  0
 29 49  1  0
 29 50  1  0
 30 51  1  0
 30 52  1  0
 31 53  1  0
M  CHG  2  15  -1  16  -1
M  END
>  <UniqueID>  (71) 
68

>  <SMILES>  (71) 
O=C(Cc1sc(N2CCOCC2)nc1[O-])[N-]c1cccc(S(=O)(=O)N2CCOCC2)c1

>  <Energy>  (71) 
99.20871622342976

>  <Genealogy>  (71) 
O=C(Cc1sc(N2CCOCC2)nc1[O-])[N-]c1cccc(S(=O)(=O)N2CCOCC2)c1 (protonated)
O=C(Cc1sc(N2CCOCC2)nc1[O-])[N-]c1cccc(S(=O)(=O)N2CCOCC2)c1 (3D coordinates assigned)
O=C(Cc1sc(N2CCOCC2)nc1[O-])[N-]c1cccc(S(=O)(=O)N2CCOCC2)c1 (nonaromatic ring conformer: 99.20871622342976 kcal/mol)

>  <smiles>  (71) 
O=C(Cc1sc(N2CCOCC2)nc1O)Nc1cccc(S(=O)(=O)N2CCOCC2)c1

>  <score_type>  (71) 
oracle

>  <origin>  (71) 
adg

>  <m_score__min__energy>  (71) 
-14.26

>  <m_primary>  (71) 
energy

$$$$
71:0
     RDKit          3D

 38 39  0  0  0  0  0  0  0  0999 V2000
   61.8720   31.0140   48.5510 C   0  0  0  0  0  0  0  0  0  0  0  0
   60.8930   31.8140   47.7360 C   0  0  0  0  0  0  0  0  0  0  0  0
   61.1830   32.9930   47.0570 C   0  0  0  0  0  0  0  0  0  0  0  0
   62.4390   33.6890   47.0450 N   0  0  0  0  0  0  0  0  0  0  0  0
   63.0680   33.8370   45.9780 O   0  0  0  0  0  0  0  0  0  0  0  0
   62.9830   34.1640   48.2150 O   0  0  0  0  0  0  0  0  0  0  0  0
   60.0070   33.4030   46.4500 C   0  0  0  0  0  0  0  0  0  0  0  0
   59.8170   34.5730   45.6450 N   0  0  0  0  0  0  0  0  0  0  0  0
   59.5550   34.4680   44.4290 O   0  0  0  0  0  0  0  0  0  0  0  0
   59.9120   35.8250   46.2070 O   0  0  0  0  0  0  0  0  0  0  0  0
   59.0490   32.4530   46.7640 C   0  0  0  0  0  0  0  0  0  0  0  0
   57.7050   32.4370   46.2600 N   0  0  0  0  0  0  0  0  0  0  0  0
   57.3100   31.5040   45.5330 O   0  0  0  0  0  0  0  0  0  0  0  0
   56.8390   33.4610   46.5650 O   0  0  0  0  0  0  0  0  0  0  0  0
   59.5940   31.4750   47.5310 N   0  0  0  0  0  0  0  0  0  0  0  0
   58.9150   30.2710   48.0280 C   0  0  0  0  0  0  0  0  0  0  0  0
   59.1010   29.1340   47.0660 C   0  0  0  0  0  0  0  0  0  0  0  0
   59.5710   28.0400   47.4810 O   0  0  0  0  0  0  0  0  0  0  0  0
   58.7640   29.2960   45.6810 N   0  0  0  0  0  0  0  0  0  0  0  0
   58.7160   28.1670   44.7540 C   0  0  0  0  0  0  0  0  0  0  0  0
   57.6700   27.1810   45.1970 C   0  0  0  0  0  0  0  0  0  0  0  0
   57.9290   25.8040   45.1440 C   0  0  0  0  0  0  0  0  0  0  0  0
   56.9380   24.8920   45.5120 C   0  0  0  0  0  0  0  0  0  0  0  0
   55.6920   25.3680   45.9280 C   0  0  0  0  0  0  0  0  0  0  0  0
   54.7860   24.5600   46.2640 O   0  0  0  0  0  0  0  0  0  0  0  0
   55.4540   26.7060   45.9690 N   0  0  0  0  0  0  0  0  0  0  0  0
   56.4030   27.6130   45.6150 C   0  0  0  0  0  0  0  0  0  0  0  0
   61.6755   31.1745   49.6213 H   0  0  0  0  0  0  0  0  0  0  0  0
   61.7599   29.9457   48.3138 H   0  0  0  0  0  0  0  0  0  0  0  0
   62.8965   31.3367   48.3138 H   0  0  0  0  0  0  0  0  0  0  0  0
   59.3378   29.9929   49.0047 H   0  0  0  0  0  0  0  0  0  0  0  0
   57.8402   30.4821   48.1292 H   0  0  0  0  0  0  0  0  0  0  0  0
   58.4950   30.2400   45.3260 H   0  0  0  0  0  0  0  0  0  0  0  0
   58.4680   28.5331   43.7468 H   0  0  0  0  0  0  0  0  0  0  0  0
   59.6972   27.6700   44.7395 H   0  0  0  0  0  0  0  0  0  0  0  0
   58.9134   25.4421   44.8123 H   0  0  0  0  0  0  0  0  0  0  0  0
   57.1360   23.8106   45.4748 H   0  0  0  0  0  0  0  0  0  0  0  0
   56.1764   28.6886   45.6566 H   0  0  0  0  0  0  0  0  0  0  0  0
  1  2  1  0
  2  3  2  0
  3  4  1  0
  4  5  2  0
  4  6  1  0
  3  7  1  0
  7  8  1  0
  8  9  2  0
  8 10  1  0
  7 11  2  0
 11 12  1  0
 12 13  2  0
 12 14  1  0
 11 15  1  0
 15 16  1  0
 16 17  1  0
 17 18  2  0
 17 19  1  0
 19 20  1  0
 20 21  1  0
 21 22  1  0
 22 23  2  0
 23 24  1  0
 24 25  2  0
 24 26  1  0
 26 27  1  0
 15  2  1  0
 27 21  2  0
  1 28  1  0
  1 29  1  0
  1 30  1  0
 16 31  1  0
 16 32  1  0
 19 33  1  0
 20 34  1  0
 20 35  1  0
 22 36  1  0
 23 37  1  0
 27 38  1  0
M  CHG  7   4   1   6  -1   8   1  10  -1  12   1  14  -1  26  -1
M  END
>  <UniqueID>  (72) 
69

>  <SMILES>  (72) 
Cc1c([N+](=O)[O-])c([N+](=O)[O-])c([N+](=O)[O-])n1CC(=O)NCc1ccc(=O)[n-]c1

>  <Energy>  (72) 
74.21871477939914

>  <Genealogy>  (72) 
Cc1c([N+](=O)[O-])c([N+](=O)[O-])c([N+](=O)[O-])n1CC(=O)NCc1ccc(=O)[n-]c1 (protonated)
Cc1c([N+](=O)[O-])c([N+](=O)[O-])c([N+](=O)[O-])n1CC(=O)NCc1ccc(=O)[n-]c1 (3D coordinates assigned)
Cc1c([N+](=O)[O-])c([N+](=O)[O-])c([N+](=O)[O-])n1CC(=O)NCc1ccc(=O)[n-]c1 (optimized conformer: 74.21871477939914 kcal/mol)

>  <smiles>  (72) 
Cc1c([N+](=O)[O-])c([N+](=O)[O-])c([N+](=O)[O-])n1CC(=O)NCc1ccc(=O)[nH]c1

>  <score_type>  (72) 
oracle

>  <origin>  (72) 
adg

>  <m_score__min__energy>  (72) 
-9.9100000000000001

>  <m_primary>  (72) 
energy

$$$$
72:0
     RDKit          3D

 63 66  0  0  1  0  0  0  0  0999 V2000
   60.8050   26.7250   50.1540 C   0  0  0  0  0  0  0  0  0  0  0  0
   60.4330   27.8410   50.7630 C   0  0  0  0  0  0  0  0  0  0  0  0
   60.4310   29.0610   49.9260 C   0  0  0  0  0  0  0  0  0  0  0  0
   60.4200   28.8730   48.6920 O   0  0  0  0  0  0  0  0  0  0  0  0
   60.4420   30.3430   50.5230 N   0  0  0  0  0  0  0  0  0  0  0  0
   60.4420   31.5740   49.8520 C   0  0  0  0  0  0  0  0  0  0  0  0
   59.7950   32.6380   50.4600 C   0  0  0  0  0  0  0  0  0  0  0  0
   59.7570   33.8740   49.8570 C   0  0  0  0  0  0  0  0  0  0  0  0
   60.3450   34.1340   48.6370 C   0  0  0  0  0  0  0  0  0  0  0  0
   60.9900   33.0810   48.0240 C   0  0  0  0  0  0  0  0  0  0  0  0
   61.6470   33.2900   46.7020 C   0  0  0  0  0  0  0  0  0  0  0  0
   60.7790   34.2150   45.9790 N   0  0  0  0  0  0  0  0  0  0  0  0
   59.5780   33.8720   45.6080 C   0  0  0  0  0  0  0  0  0  0  0  0
   58.6450   34.8260   45.2560 C   0  0  0  0  0  0  0  0  0  0  0  0
   57.3900   34.4000   44.8710 C   0  0  0  0  0  0  0  0  0  0  0  0
   57.1570   33.0600   44.8670 N   0  0  0  0  0  0  0  0  0  0  0  0
   58.0920   32.1670   45.2180 C   0  0  0  0  0  0  0  0  0  0  0  0
   57.7510   30.7330   45.1840 C   0  0  0  0  0  0  0  0  0  0  0  0
   56.5830   30.4490   44.8680 O   0  0  0  0  0  0  0  0  0  0  0  0
   58.7200   29.7740   45.4960 N   0  0  0  0  0  0  0  0  0  0  0  0
   58.5470   28.3730   45.5080 C   0  0  0  0  0  0  0  0  0  0  0  0
   58.1350   27.7360   44.3430 C   0  0  0  0  0  0  0  0  0  0  0  0
   57.9460   26.3750   44.2810 C   0  0  0  0  0  0  0  0  0  0  0  0
   58.1520   25.5610   45.3700 C   0  0  0  0  0  0  0  0  0  0  0  0
   57.9660   24.1000   45.3780 C   0  0  0  0  0  0  0  0  0  0  0  0
   57.7880   23.5250   44.0620 N   0  0  0  0  0  0  0  0  0  0  0  0
   56.4090   23.6950   43.6190 C   0  0  0  0  0  0  0  0  0  0  0  0
   56.2480   22.5950   42.6180 C   0  0  0  0  0  0  0  0  0  0  0  0
   57.0470   21.4620   43.1770 C   0  0  2  0  0  0  0  0  0  0  0  0
   56.2190   20.5000   43.7790 O   0  0  0  0  0  0  0  0  0  0  0  0
   57.9600   22.0850   44.1810 C   0  0  0  0  0  0  0  0  0  0  0  0
   58.5610   26.1710   46.5370 C   0  0  0  0  0  0  0  0  0  0  0  0
   58.7520   27.5570   46.5950 C   0  0  0  0  0  0  0  0  0  0  0  0
   59.3260   32.5500   45.5970 N   0  0  0  0  0  0  0  0  0  0  0  0
   61.0260   31.8320   48.6380 C   0  0  0  0  0  0  0  0  0  0  0  0
   60.8316   25.7770   50.7112 H   0  0  0  0  0  0  0  0  0  0  0  0
   61.0873   26.7463   49.0910 H   0  0  0  0  0  0  0  0  0  0  0  0
   60.1438   27.8595   51.8241 H   0  0  0  0  0  0  0  0  0  0  0  0
   60.4520   30.3390   51.5860 H   0  0  0  0  0  0  0  0  0  0  0  0
   59.3067   32.4928   51.4349 H   0  0  0  0  0  0  0  0  0  0  0  0
   59.2333   34.6929   50.3719 H   0  0  0  0  0  0  0  0  0  0  0  0
   60.3015   35.1318   48.1760 H   0  0  0  0  0  0  0  0  0  0  0  0
   62.6482   33.7258   46.8345 H   0  0  0  0  0  0  0  0  0  0  0  0
   61.7799   32.3436   46.1573 H   0  0  0  0  0  0  0  0  0  0  0  0
   58.8948   35.8969   45.2816 H   0  0  0  0  0  0  0  0  0  0  0  0
   56.6083   35.1166   44.5786 H   0  0  0  0  0  0  0  0  0  0  0  0
   56.1880   32.7790   44.5680 H   0  0  0  0  0  0  0  0  0  0  0  0
   59.6750   30.1350   45.7500 H   0  0  0  0  0  0  0  0  0  0  0  0
   57.9543   28.3400   43.4416 H   0  0  0  0  0  0  0  0  0  0  0  0
   57.6203   25.9242   43.3319 H   0  0  0  0  0  0  0  0  0  0  0  0
   58.8522   23.6404   45.8399 H   0  0  0  0  0  0  0  0  0  0  0  0
   57.0436   23.8983   45.9423 H   0  0  0  0  0  0  0  0  0  0  0  0
   55.7057   23.5756   44.4563 H   0  0  0  0  0  0  0  0  0  0  0  0
   56.2025   24.6939   43.2073 H   0  0  0  0  0  0  0  0  0  0  0  0
   55.1897   22.3123   42.5175 H   0  0  0  0  0  0  0  0  0  0  0  0
   56.5857   22.8901   41.6136 H   0  0  0  0  0  0  0  0  0  0  0  0
   57.6020   20.9309   42.3897 H   0  0  0  0  0  0  0  0  0  0  0  0
   56.7300   19.6430   43.8220 H   0  0  0  0  0  0  0  0  0  0  0  0
   57.6921   21.7532   45.1950 H   0  0  0  0  0  0  0  0  0  0  0  0
   59.0054   21.7941   44.0009 H   0  0  0  0  0  0  0  0  0  0  0  0
   58.7397   25.5606   47.4345 H   0  0  0  0  0  0  0  0  0  0  0  0
   59.0775   28.0086   47.5437 H   0  0  0  0  0  0  0  0  0  0  0  0
   61.5485   31.0116   48.1242 H   0  0  0  0  0  0  0  0  0  0  0  0
  1  2  2  0
  2  3  1  0
  3  4  2  0
  3  5  1  0
  5  6  1  0
  6  7  2  0
  7  8  1  0
  8  9  2  0
  9 10  1  0
 10 11  1  0
 11 12  1  0
 12 13  2  0
 13 14  1  0
 14 15  2  0
 15 16  1  0
 16 17  1  0
 17 18  1  0
 18 19  2  0
 18 20  1  0
 20 21  1  0
 21 22  2  0
 22 23  1  0
 23 24  2  0
 24 25  1  0
 25 26  1  0
 26 27  1  0
 27 28  1  0
 28 29  1  0
 29 30  1  0
 29 31  1  0
 24 32  1  0
 32 33  2  0
 17 34  2  0
 10 35  2  0
 35  6  1  0
 34 13  1  0
 33 21  1  0
 31 26  1  0
  1 36  1  0
  1 37  1  0
  2 38  1  0
  5 39  1  0
  7 40  1  0
  8 41  1  0
  9 42  1  0
 11 43  1  0
 11 44  1  0
 14 45  1  0
 15 46  1  0
 16 47  1  0
 20 48  1  0
 22 49  1  0
 23 50  1  0
 25 51  1  0
 25 52  1  0
 27 53  1  0
 27 54  1  0
 28 55  1  0
 28 56  1  0
 29 57  1  6
 30 58  1  0
 31 59  1  0
 31 60  1  0
 32 61  1  0
 33 62  1  0
 35 63  1  0
M  END
>  <smiles>  (73) 
C=CC(=O)Nc1cccc(CN=c2cc[nH]c(C(=O)Nc3ccc(CN4CCC(O)C4)cc3)n2)c1

>  <score_type>  (73) 
oracle

>  <origin>  (73) 
adg

>  <m_score__min__energy>  (73) 
-10.220000000000001

>  <m_primary>  (73) 
energy

$$$$
73:0
     RDKit          3D

 39 42  0  0  0  0  0  0  0  0999 V2000
   53.8200   24.2049   44.7965 H   0  0  0  0  0  0  0  0  0  0  0  0
   54.4520   24.7630   45.5030 C   0  0  0  0  0  0  0  0  0  0  0  0
   54.3060   25.9680   45.6320 O   0  0  0  0  0  0  0  0  0  0  0  0
   55.4920   24.0440   46.3070 C   0  0  0  0  0  0  0  0  0  0  0  0
   56.1804   23.5251   45.6237 H   0  0  0  0  0  0  0  0  0  0  0  0
   54.9890   23.3220   46.9670 H   0  0  0  0  0  0  0  0  0  0  0  0
   56.2530   24.9810   47.1330 N   0  0  0  0  0  0  0  0  0  0  0  0
   57.3260   25.6080   46.7470 C   0  0  0  0  0  0  0  0  0  0  0  0
   58.4650   24.9240   46.4470 N   0  0  0  0  0  0  0  0  0  0  0  0
   59.5960   25.5590   46.0430 C   0  0  0  0  0  0  0  0  0  0  0  0
   60.4986   24.9760   45.8076 H   0  0  0  0  0  0  0  0  0  0  0  0
   59.6150   26.9500   45.9260 C   0  0  0  0  0  0  0  0  0  0  0  0
   60.5319   27.4636   45.6013 H   0  0  0  0  0  0  0  0  0  0  0  0
   58.4600   27.6920   46.2240 C   0  0  0  0  0  0  0  0  0  0  0  0
   58.4820   29.1720   46.0980 C   0  0  0  0  0  0  0  0  0  0  0  0
   58.8430   29.9910   47.1190 N   0  0  0  0  0  0  0  0  0  0  0  0
   58.7350   31.2310   46.6150 C   0  0  0  0  0  0  0  0  0  0  0  0
   58.3220   31.2220   45.3130 C   0  0  0  0  0  0  0  0  0  0  0  0
   58.1540   29.9050   44.9530 C   0  0  0  0  0  0  0  0  0  0  0  0
   57.8318   29.5135   43.9768 H   0  0  0  0  0  0  0  0  0  0  0  0
   58.1470   32.4220   44.5260 N   0  0  0  0  0  0  0  0  0  0  0  0
   57.7720   32.3430   43.1130 C   0  0  0  0  0  0  0  0  0  0  0  0
   56.6987   32.1169   43.0306 H   0  0  0  0  0  0  0  0  0  0  0  0
   57.9826   33.3052   42.6234 H   0  0  0  0  0  0  0  0  0  0  0  0
   58.3529   31.5475   42.6234 H   0  0  0  0  0  0  0  0  0  0  0  0
   58.4730   33.6880   45.1580 C   0  0  0  0  0  0  0  0  0  0  0  0
   58.3990   34.7720   44.5190 O   0  0  0  0  0  0  0  0  0  0  0  0
   58.8880   33.6890   46.5340 N   0  0  0  0  0  0  0  0  0  0  0  0
   59.0330   32.4980   47.2670 C   0  0  0  0  0  0  0  0  0  0  0  0
   59.4560   32.6680   48.4680 N   0  0  0  0  0  0  0  0  0  0  0  0
   59.6340   31.9020   49.1560 H   0  0  0  0  0  0  0  0  0  0  0  0
   59.6630   34.0950   48.7150 C   0  0  0  0  0  0  0  0  0  0  0  0
   60.7141   34.2940   48.9712 H   0  0  0  0  0  0  0  0  0  0  0  0
   59.0575   34.4591   49.5581 H   0  0  0  0  0  0  0  0  0  0  0  0
   59.2860   34.7940   47.3860 C   0  0  0  0  0  0  0  0  0  0  0  0
   60.1491   35.3283   46.9622 H   0  0  0  0  0  0  0  0  0  0  0  0
   58.4990   35.5533   47.5050 H   0  0  0  0  0  0  0  0  0  0  0  0
   57.3050   27.0040   46.6400 C   0  0  0  0  0  0  0  0  0  0  0  0
   56.3878   27.5616   46.8806 H   0  0  0  0  0  0  0  0  0  0  0  0
  1  2  1  0
  2  3  2  0
  2  4  1  0
  4  5  1  0
  4  6  1  0
  4  7  1  0
  7  8  2  0
  8  9  1  0
  9 10  1  0
 10 11  1  0
 10 12  2  0
 12 13  1  0
 12 14  1  0
 14 15  1  0
 15 16  1  0
 16 17  1  0
 17 18  2  0
 18 19  1  0
 19 20  1  0
 18 21  1  0
 21 22  1  0
 22 23  1  0
 22 24  1  0
 22 25  1  0
 21 26  1  0
 26 27  2  0
 26 28  1  0
 28 29  1  0
 29 30  2  0
 30 31  1  0
 30 32  1  0
 32 33  1  0
 32 34  1  0
 32 35  1  0
 35 36  1  0
 35 37  1  0
 14 38  2  0
 38 39  1  0
 38  8  1  0
 19 15  2  0
 35 28  1  0
 29 17  1  0
M  CHG  3   9  -1  16  -1  30   1
M  END
>  <UniqueID>  (74) 
70

>  <SMILES>  (74) 
CN1C(=O)N2CC[NH+]=C2c2[n-]c(-c3cc[n-]/c(=N\CC=O)c3)cc21

>  <Energy>  (74) 
86.7698963062131

>  <Genealogy>  (74) 
CN1C(=O)N2CC[NH+]=C2c2[n-]c(-c3cc[n-]c(=NCC=O)c3)cc21 (protonated)
CN1C(=O)N2CC[NH+]=C2c2[n-]c(-c3cc[n-]/c(=N\CC=O)c3)cc21 (cis-trans isomerization)
CN1C(=O)N2CC[NH+]=C2c2[n-]c(-c3cc[n-]/c(=N\CC=O)c3)cc21 (3D coordinates assigned)
CN1C(=O)N2CC[NH+]=C2c2[n-]c(-c3cc[n-]/c(=N\CC=O)c3)cc21 (nonaromatic ring conformer: 86.7698963062131 kcal/mol)

>  <smiles>  (74) 
CN1C(=O)N2CCN=C2c2[nH]c(-c3cc[nH]c(=NCC=O)c3)cc21

>  <score_type>  (74) 
oracle

>  <origin>  (74) 
adg

>  <m_score__min__energy>  (74) 
-8.5199999999999996

>  <m_primary>  (74) 
energy

$$$$
74:0
     RDKit          3D

 38 40  0  0  0  0  0  0  0  0999 V2000
   58.2492   29.5075   53.0154 H   0  0  0  0  0  0  0  0  0  0  0  0
   57.2860   29.9400   52.7070 C   0  0  0  0  0  0  0  0  0  0  0  0
   56.2140   29.1780   52.3620 N   0  0  0  0  0  0  0  0  0  0  0  0
   55.1510   29.9440   52.0220 C   0  0  0  0  0  0  0  0  0  0  0  0
   53.9980   29.4750   51.6490 N   0  0  0  0  0  0  0  0  0  0  0  0
   52.9340   30.2210   51.0330 C   0  0  0  0  0  0  0  0  0  0  0  0
   52.7050   30.0940   49.7980 O   0  0  0  0  0  0  0  0  0  0  0  0
   52.0910   31.1440   51.8420 C   0  0  0  0  0  0  0  0  0  0  0  0
   51.9620   30.9330   53.2280 C   0  0  0  0  0  0  0  0  0  0  0  0
   52.4856   30.0898   53.7022 H   0  0  0  0  0  0  0  0  0  0  0  0
   51.1760   31.7840   54.0050 C   0  0  0  0  0  0  0  0  0  0  0  0
   51.0769   31.6147   55.0874 H   0  0  0  0  0  0  0  0  0  0  0  0
   50.5180   32.8500   53.3970 C   0  0  0  0  0  0  0  0  0  0  0  0
   49.8974   33.5290   54.0002 H   0  0  0  0  0  0  0  0  0  0  0  0
   50.6420   33.0520   52.0590 N   0  0  0  0  0  0  0  0  0  0  0  0
   51.3980   32.2410   51.2720 C   0  0  0  0  0  0  0  0  0  0  0  0
   51.4630   32.4820   50.0390 O   0  0  0  0  0  0  0  0  0  0  0  0
   55.4870   31.5890   52.1330 S   0  0  0  0  0  0  0  0  0  0  0  0
   57.0650   31.3080   52.6380 C   0  0  0  0  0  0  0  0  0  0  0  0
   58.2650   32.5800   53.0150 S   0  0  0  0  0  0  0  0  0  0  0  0
   58.7020   32.8000   51.2910 C   0  0  0  0  0  0  0  0  0  0  0  0
   58.1660   31.9520   50.3180 C   0  0  0  0  0  0  0  0  0  0  0  0
   57.4691   31.1526   50.6100 H   0  0  0  0  0  0  0  0  0  0  0  0
   58.5140   32.1180   48.9740 C   0  0  0  0  0  0  0  0  0  0  0  0
   58.0885   31.4469   48.2134 H   0  0  0  0  0  0  0  0  0  0  0  0
   59.4010   33.1330   48.5880 C   0  0  0  0  0  0  0  0  0  0  0  0
   59.7150   33.2520   47.2250 O   0  0  0  0  0  0  0  0  0  0  0  0
   59.2470   34.2810   46.3510 C   0  0  0  0  0  0  0  0  0  0  0  0
   60.0186   34.4916   45.5959 H   0  0  0  0  0  0  0  0  0  0  0  0
   59.0386   35.1821   46.9465 H   0  0  0  0  0  0  0  0  0  0  0  0
   57.9630   33.8510   45.6480 C   0  0  0  0  0  0  0  0  0  0  0  0
   57.2013   33.5959   46.3995 H   0  0  0  0  0  0  0  0  0  0  0  0
   57.5958   34.6752   45.0188 H   0  0  0  0  0  0  0  0  0  0  0  0
   58.1662   32.9719   45.0188 H   0  0  0  0  0  0  0  0  0  0  0  0
   59.9310   33.9900   49.5730 C   0  0  0  0  0  0  0  0  0  0  0  0
   60.6235   34.7943   49.2837 H   0  0  0  0  0  0  0  0  0  0  0  0
   59.5810   33.8230   50.9160 C   0  0  0  0  0  0  0  0  0  0  0  0
   59.9970   34.4967   51.6796 H   0  0  0  0  0  0  0  0  0  0  0  0
  1  2  1  0
  2  3  1  0
  3  4  1  0
  4  5  2  0
  5  6  1  0
  6  7  2  0
  6  8  1  0
  8  9  2  0
  9 10  1  0
  9 11  1  0
 11 12  1  0
 11 13  2  0
 13 14  1  0
 13 15  1  0
 15 16  1  0
 16 17  2  0
  4 18  1  0
 18 19  1  0
 19 20  1  0
 20 21  1  0
 21 22  2  0
 22 23  1  0
 22 24  1  0
 24 25  1  0
 24 26  2  0
 26 27  1  0
 27 28  1  0
 28 29  1  0
 28 30  1  0
 28 31  1  0
 31 32  1  0
 31 33  1  0
 31 34  1  0
 26 35  1  0
 35 36  1  0
 35 37  2  0
 37 38  1  0
 19  2  2  0
 37 21  1  0
 16  8  1  0
M  CHG  2   3  -1  15  -1
M  END
>  <UniqueID>  (75) 
71

>  <SMILES>  (75) 
CCOc1ccc(Sc2c[n-]/c(=N\C(=O)c3ccc[n-]c3=O)s2)cc1

>  <Energy>  (75) 
70.56327694839389

>  <Genealogy>  (75) 
CCOc1ccc(Sc2c[n-]c(=NC(=O)c3ccc[n-]c3=O)s2)cc1 (protonated)
CCOc1ccc(Sc2c[n-]/c(=N\C(=O)c3ccc[n-]c3=O)s2)cc1 (cis-trans isomerization)
CCOc1ccc(Sc2c[n-]/c(=N\C(=O)c3ccc[n-]c3=O)s2)cc1 (3D coordinates assigned)
CCOc1ccc(Sc2c[n-]/c(=N\C(=O)c3ccc[n-]c3=O)s2)cc1 (optimized conformer: 70.56327694839389 kcal/mol)

>  <smiles>  (75) 
CCOc1ccc(Sc2c[nH]c(=NC(=O)c3ccc[nH]c3=O)s2)cc1

>  <score_type>  (75) 
oracle

>  <origin>  (75) 
adg

>  <m_score__min__energy>  (75) 
-12.609999999999999

>  <m_primary>  (75) 
energy

$$$$
75:0
     RDKit          3D

 65 69  0  0  0  0  0  0  0  0999 V2000
   54.3870   27.0970   46.3750 H   0  0  0  0  0  0  0  0  0  0  0  0
   55.0040   26.4080   45.9590 O   0  0  0  0  0  0  0  0  0  0  0  0
   54.6100   25.0790   45.8560 C   0  0  0  0  0  0  0  0  0  0  0  0
   53.3830   24.6840   45.4810 N   0  0  0  0  0  0  0  0  0  0  0  0
   53.4850   23.3370   45.5020 C   0  0  0  0  0  0  0  0  0  0  0  0
   52.5270   22.5800   45.1980 O   0  0  0  0  0  0  0  0  0  0  0  0
   54.6990   22.8660   45.8650 N   0  0  0  0  0  0  0  0  0  0  0  0
   55.4030   23.9870   46.1130 C   0  0  0  0  0  0  0  0  0  0  0  0
   56.8370   24.0200   46.4380 C   0  0  0  0  0  0  0  0  0  0  0  0
   57.3039   23.0721   46.7439 H   0  0  0  0  0  0  0  0  0  0  0  0
   57.6300   25.1100   46.3940 C   0  0  0  0  0  0  0  0  0  0  0  0
   58.3050   25.5780   47.5020 C   0  0  0  0  0  0  0  0  0  0  0  0
   58.3321   25.1092   48.4967 H   0  0  0  0  0  0  0  0  0  0  0  0
   58.9390   26.7430   47.1290 C   0  0  0  0  0  0  0  0  0  0  0  0
   59.7040   27.5750   48.0800 C   0  0  0  0  0  0  0  0  0  0  0  0
   60.8930   27.2670   48.3520 O   0  0  0  0  0  0  0  0  0  0  0  0
   59.1090   28.6930   48.7410 N   0  0  0  0  0  0  0  0  0  0  0  0
   59.7840   29.9720   48.9720 C   0  0  0  0  0  0  0  0  0  0  0  0
   59.1388   30.5840   49.6195 H   0  0  0  0  0  0  0  0  0  0  0  0
   61.1160   29.7700   49.7250 C   0  0  0  0  0  0  0  0  0  0  0  0
   60.9121   29.6453   50.7987 H   0  0  0  0  0  0  0  0  0  0  0  0
   61.6192   28.8734   49.3340 H   0  0  0  0  0  0  0  0  0  0  0  0
   62.0250   30.9870   49.5190 C   0  0  0  0  0  0  0  0  0  0  0  0
   61.4913   31.8891   49.8528 H   0  0  0  0  0  0  0  0  0  0  0  0
   62.9429   30.8275   50.1038 H   0  0  0  0  0  0  0  0  0  0  0  0
   62.4130   31.1590   48.0960 N   0  0  0  0  0  0  0  0  0  0  0  0
   62.7940   32.5610   47.8300 C   0  0  0  0  0  0  0  0  0  0  0  0
   63.3556   32.9521   48.6912 H   0  0  0  0  0  0  0  0  0  0  0  0
   63.4153   32.5924   46.9228 H   0  0  0  0  0  0  0  0  0  0  0  0
   61.5710   33.4130   47.6090 C   0  0  0  0  0  0  0  0  0  0  0  0
   61.2410   33.8470   46.3150 C   0  0  0  0  0  0  0  0  0  0  0  0
   61.8688   33.5515   45.4614 H   0  0  0  0  0  0  0  0  0  0  0  0
   60.1180   34.6530   46.1070 C   0  0  0  0  0  0  0  0  0  0  0  0
   59.8678   34.9961   45.0923 H   0  0  0  0  0  0  0  0  0  0  0  0
   59.3130   35.0230   47.1880 C   0  0  0  0  0  0  0  0  0  0  0  0
   58.4290   35.6566   47.0233 H   0  0  0  0  0  0  0  0  0  0  0  0
   59.6300   34.5890   48.4770 C   0  0  0  0  0  0  0  0  0  0  0  0
   58.9922   34.8773   49.3256 H   0  0  0  0  0  0  0  0  0  0  0  0
   60.7560   33.7890   48.6910 C   0  0  0  0  0  0  0  0  0  0  0  0
   61.0050   33.4529   49.7084 H   0  0  0  0  0  0  0  0  0  0  0  0
   61.4020   30.6590   47.1230 C   0  0  0  0  0  0  0  0  0  0  0  0
   61.4795   31.2513   46.1993 H   0  0  0  0  0  0  0  0  0  0  0  0
   61.6126   29.5945   46.9424 H   0  0  0  0  0  0  0  0  0  0  0  0
   59.9650   30.7640   47.6550 C   0  0  0  0  0  0  0  0  0  0  0  0
   59.7297   31.8225   47.8401 H   0  0  0  0  0  0  0  0  0  0  0  0
   59.2877   30.3361   46.9012 H   0  0  0  0  0  0  0  0  0  0  0  0
   58.7270   27.0020   45.8110 N   0  0  0  0  0  0  0  0  0  0  0  0
   59.4170   28.0350   45.0130 C   0  0  0  0  0  0  0  0  0  0  0  0
   60.1668   28.5368   45.6422 H   0  0  0  0  0  0  0  0  0  0  0  0
   59.9036   27.5521   44.1528 H   0  0  0  0  0  0  0  0  0  0  0  0
   58.4320   29.0590   44.5030 C   0  0  0  0  0  0  0  0  0  0  0  0
   57.5080   28.7220   43.4990 C   0  0  0  0  0  0  0  0  0  0  0  0
   57.5187   27.7124   43.0624 H   0  0  0  0  0  0  0  0  0  0  0  0
   56.5750   29.6630   43.0520 C   0  0  0  0  0  0  0  0  0  0  0  0
   55.8536   29.3913   42.2673 H   0  0  0  0  0  0  0  0  0  0  0  0
   56.5580   30.9480   43.6010 C   0  0  0  0  0  0  0  0  0  0  0  0
   55.8224   31.6865   43.2496 H   0  0  0  0  0  0  0  0  0  0  0  0
   57.4760   31.2950   44.5970 C   0  0  0  0  0  0  0  0  0  0  0  0
   57.4560   32.9100   45.2860 Cl  0  0  0  0  0  0  0  0  0  0  0  0
   58.4090   30.3540   45.0470 C   0  0  0  0  0  0  0  0  0  0  0  0
   59.1289   30.6301   45.8316 H   0  0  0  0  0  0  0  0  0  0  0  0
   57.9450   25.9850   45.3420 C   0  0  0  0  0  0  0  0  0  0  0  0
   57.6510   25.8000   44.0440 C   0  0  0  0  0  0  0  0  0  0  0  0
   57.9469   26.5543   43.3001 H   0  0  0  0  0  0  0  0  0  0  0  0
   57.1144   24.8942   43.7253 H   0  0  0  0  0  0  0  0  0  0  0  0
  1  2  1  0
  2  3  1  0
  3  4  1  0
  4  5  1  0
  5  6  2  0
  5  7  1  0
  7  8  1  0
  8  9  1  0
  9 10  1  0
  9 11  2  0
 11 12  1  0
 12 13  1  0
 12 14  2  0
 14 15  1  0
 15 16  2  0
 15 17  1  0
 17 18  1  0
 18 19  1  0
 18 20  1  0
 20 21  1  0
 20 22  1  0
 20 23  1  0
 23 24  1  0
 23 25  1  0
 23 26  1  0
 26 27  1  0
 27 28  1  0
 27 29  1  0
 27 30  1  0
 30 31  2  0
 31 32  1  0
 31 33  1  0
 33 34  1  0
 33 35  2  0
 35 36  1  0
 35 37  1  0
 37 38  1  0
 37 39  2  0
 39 40  1  0
 26 41  1  0
 41 42  1  0
 41 43  1  0
 41 44  1  0
 44 45  1  0
 44 46  1  0
 14 47  1  0
 47 48  1  0
 48 49  1  0
 48 50  1  0
 48 51  1  0
 51 52  2  0
 52 53  1  0
 52 54  1  0
 54 55  1  0
 54 56  2  0
 56 57  1  0
 56 58  1  0
 58 59  1  0
 58 60  2  0
 60 61  1  0
 47 62  1  0
 62 63  2  0
 63 64  1  0
 63 65  1  0
  8  3  2  0
 62 11  1  0
 44 18  1  0
 60 51  1  0
 39 30  1  0
M  CHG  3   4  -1   7  -1  17  -1
M  END
>  <UniqueID>  (76) 
72

>  <SMILES>  (76) 
C=c1/c(=C\c2[n-]c(=O)[n-]c2O)cc(C(=O)[N-]C2CCN(Cc3ccccc3)CC2)n1Cc1cccc(Cl)c1

>  <Energy>  (76) 
156.6367786940812

>  <Genealogy>  (76) 
C=c1c(=Cc2[n-]c(=O)[n-]c2O)cc(C(=O)[N-]C2CCN(Cc3ccccc3)CC2)n1Cc1cccc(Cl)c1 (protonated)
C=c1/c(=C\c2[n-]c(=O)[n-]c2O)cc(C(=O)[N-]C2CCN(Cc3ccccc3)CC2)n1Cc1cccc(Cl)c1 (cis-trans isomerization)
C=c1/c(=C\c2[n-]c(=O)[n-]c2O)cc(C(=O)[N-]C2CCN(Cc3ccccc3)CC2)n1Cc1cccc(Cl)c1 (3D coordinates assigned)
C=c1/c(=C\c2[n-]c(=O)[n-]c2O)cc(C(=O)[N-]C2CCN(Cc3ccccc3)CC2)n1Cc1cccc(Cl)c1 (nonaromatic ring conformer: 156.6367786940812 kcal/mol)

>  <smiles>  (76) 
C=c1c(=Cc2[nH]c(=O)[nH]c2O)cc(C(=O)NC2CCN(Cc3ccccc3)CC2)n1Cc1cccc(Cl)c1

>  <score_type>  (76) 
oracle

>  <origin>  (76) 
adg

>  <m_score__min__energy>  (76) 
-16.469999999999999

>  <m_primary>  (76) 
energy

$$$$
76:0
     RDKit          3D

 50 53  0  0  0  0  0  0  0  0999 V2000
   59.5510   29.3310   44.6810 C   0  0  0  0  0  0  0  0  0  0  0  0
   59.2110   28.9840   45.9340 C   0  0  0  0  0  0  0  0  0  0  0  0
   58.5120   27.8270   46.3140 C   0  0  0  0  0  0  0  0  0  0  0  0
   57.8470   26.9120   45.5820 C   0  0  0  0  0  0  0  0  0  0  0  0
   57.2300   25.6800   46.0970 C   0  0  0  0  0  0  0  0  0  0  0  0
   57.9350   24.6440   46.5840 N   0  0  0  0  0  0  0  0  0  0  0  0
   56.9800   23.8060   47.0450 C   0  0  0  0  0  0  0  0  0  0  0  0
   57.2510   22.6950   47.5690 O   0  0  0  0  0  0  0  0  0  0  0  0
   55.7150   24.2580   46.9090 N   0  0  0  0  0  0  0  0  0  0  0  0
   55.8910   25.4540   46.3210 C   0  0  0  0  0  0  0  0  0  0  0  0
   54.8540   26.3290   46.0160 O   0  0  0  0  0  0  0  0  0  0  0  0
   58.6040   27.7560   47.6900 C   0  0  0  0  0  0  0  0  0  0  0  0
   59.2840   28.8790   48.1140 C   0  0  0  0  0  0  0  0  0  0  0  0
   59.5640   29.1640   49.5420 C   0  0  0  0  0  0  0  0  0  0  0  0
   60.6630   28.8350   50.0610 O   0  0  0  0  0  0  0  0  0  0  0  0
   58.5390   29.7600   50.3480 N   0  0  0  0  0  0  0  0  0  0  0  0
   58.5630   31.0710   50.9360 C   0  0  0  0  0  0  0  0  0  0  0  0
   59.6120   31.9650   50.6440 C   0  0  0  0  0  0  0  0  0  0  0  0
   59.6190   33.2520   51.1800 C   0  0  0  0  0  0  0  0  0  0  0  0
   58.5740   33.6740   51.9990 C   0  0  0  0  0  0  0  0  0  0  0  0
   57.5130   32.8120   52.2790 C   0  0  0  0  0  0  0  0  0  0  0  0
   57.4840   31.5060   51.7520 C   0  0  0  0  0  0  0  0  0  0  0  0
   56.3310   30.6210   52.0770 C   0  0  0  0  0  0  0  0  0  0  0  0
   55.0070   31.1520   52.1240 N   0  0  0  0  0  0  0  0  0  0  0  0
   56.5010   29.3970   52.3220 O   0  0  0  0  0  0  0  0  0  0  0  0
   59.6410   29.6430   47.0480 N   0  0  0  0  0  0  0  0  0  0  0  0
   60.3690   30.9250   47.1000 C   0  0  0  0  0  0  0  0  0  0  0  0
   59.5000   32.0810   46.6640 C   0  0  0  0  0  0  0  0  0  0  0  0
   60.0440   33.3620   46.4550 C   0  0  0  0  0  0  0  0  0  0  0  0
   59.2300   34.4130   46.0210 C   0  0  0  0  0  0  0  0  0  0  0  0
   57.8720   34.1940   45.7770 C   0  0  0  0  0  0  0  0  0  0  0  0
   57.3270   32.9210   45.9610 C   0  0  0  0  0  0  0  0  0  0  0  0
   58.1370   31.8670   46.3960 C   0  0  0  0  0  0  0  0  0  0  0  0
   60.1015   30.2659   44.4994 H   0  0  0  0  0  0  0  0  0  0  0  0
   59.2788   28.6801   43.8370 H   0  0  0  0  0  0  0  0  0  0  0  0
   57.7574   27.1034   44.5025 H   0  0  0  0  0  0  0  0  0  0  0  0
   54.2740   26.7180   46.7490 H   0  0  0  0  0  0  0  0  0  0  0  0
   58.2085   26.9530   48.3294 H   0  0  0  0  0  0  0  0  0  0  0  0
   60.4336   31.6444   49.9866 H   0  0  0  0  0  0  0  0  0  0  0  0
   60.4512   33.9355   50.9558 H   0  0  0  0  0  0  0  0  0  0  0  0
   58.5853   34.6879   52.4254 H   0  0  0  0  0  0  0  0  0  0  0  0
   56.6882   33.1570   52.9199 H   0  0  0  0  0  0  0  0  0  0  0  0
   54.5700   31.5840   51.2790 H   0  0  0  0  0  0  0  0  0  0  0  0
   60.7055   31.1019   48.1322 H   0  0  0  0  0  0  0  0  0  0  0  0
   61.2242   30.8610   46.4112 H   0  0  0  0  0  0  0  0  0  0  0  0
   61.1151   33.5374   46.6340 H   0  0  0  0  0  0  0  0  0  0  0  0
   59.6599   35.4144   45.8714 H   0  0  0  0  0  0  0  0  0  0  0  0
   57.2325   35.0232   45.4403 H   0  0  0  0  0  0  0  0  0  0  0  0
   56.2589   32.7472   45.7634 H   0  0  0  0  0  0  0  0  0  0  0  0
   57.7046   30.8644   46.5292 H   0  0  0  0  0  0  0  0  0  0  0  0
  1  2  2  0
  2  3  1  0
  3  4  2  3
  4  5  1  0
  5  6  1  0
  6  7  1  0
  7  8  2  0
  7  9  1  0
  9 10  1  0
 10 11  1  0
  3 12  1  0
 12 13  2  0
 13 14  1  0
 14 15  2  0
 14 16  1  0
 16 17  1  0
 17 18  2  0
 18 19  1  0
 19 20  2  0
 20 21  1  0
 21 22  2  0
 22 23  1  0
 23 24  1  0
 23 25  2  0
 13 26  1  0
 26 27  1  0
 27 28  1  0
 28 29  2  0
 29 30  1  0
 30 31  2  0
 31 32  1  0
 32 33  2  0
 26  2  1  0
 33 28  1  0
 10  5  2  0
 22 17  1  0
  1 34  1  0
  1 35  1  0
  4 36  1  0
 11 37  1  0
 12 38  1  0
 18 39  1  0
 19 40  1  0
 20 41  1  0
 21 42  1  0
 24 43  1  0
 27 44  1  0
 27 45  1  0
 29 46  1  0
 30 47  1  0
 31 48  1  0
 32 49  1  0
 33 50  1  0
M  CHG  4   6  -1   9  -1  16  -1  24  -1
M  END
>  <UniqueID>  (77) 
73

>  <SMILES>  (77) 
C=c1c(=Cc2[n-]c(=O)[n-]c2O)cc(C(=O)[N-]c2ccccc2C([NH-])=O)n1Cc1ccccc1

>  <Energy>  (77) 
132.5689221179916

>  <Genealogy>  (77) 
C=c1c(=Cc2[n-]c(=O)[n-]c2O)cc(C(=O)[N-]c2ccccc2C([NH-])=O)n1Cc1ccccc1 (protonated)
C=c1c(=Cc2[n-]c(=O)[n-]c2O)cc(C(=O)[N-]c2ccccc2C([NH-])=O)n1Cc1ccccc1 (3D coordinates assigned)
C=c1c(=Cc2[n-]c(=O)[n-]c2O)cc(C(=O)[N-]c2ccccc2C([NH-])=O)n1Cc1ccccc1 (optimized conformer: 132.5689221179916 kcal/mol)

>  <smiles>  (77) 
C=c1c(=Cc2[nH]c(=O)[nH]c2O)cc(C(=O)Nc2ccccc2C(N)=O)n1Cc1ccccc1

>  <score_type>  (77) 
oracle

>  <origin>  (77) 
adg

>  <m_score__min__energy>  (77) 
-15.960000000000001

>  <m_primary>  (77) 
energy

$$$$
77:0
     RDKit          3D

 42 44  0  0  0  0  0  0  0  0999 V2000
   55.1540   27.4810   45.5220 H   0  0  0  0  0  0  0  0  0  0  0  0
   54.9700   26.6430   46.0600 O   0  0  0  0  0  0  0  0  0  0  0  0
   55.5990   25.4330   45.7670 C   0  0  0  0  0  0  0  0  0  0  0  0
   54.9890   24.5220   44.8920 C   0  0  0  0  0  0  0  0  0  0  0  0
   54.0105   24.7592   44.4490 H   0  0  0  0  0  0  0  0  0  0  0  0
   55.6190   23.3150   44.5810 C   0  0  0  0  0  0  0  0  0  0  0  0
   55.1354   22.6038   43.8952 H   0  0  0  0  0  0  0  0  0  0  0  0
   56.8610   23.0100   45.1390 C   0  0  0  0  0  0  0  0  0  0  0  0
   57.3546   22.0583   44.8927 H   0  0  0  0  0  0  0  0  0  0  0  0
   57.4790   23.9110   46.0100 C   0  0  0  0  0  0  0  0  0  0  0  0
   58.4627   23.6696   46.4391 H   0  0  0  0  0  0  0  0  0  0  0  0
   56.8510   25.1240   46.3410 C   0  0  0  0  0  0  0  0  0  0  0  0
   57.5620   26.1120   47.2320 C   0  0  0  0  0  0  0  0  0  0  0  0
   58.3760   25.6008   47.7668 H   0  0  0  0  0  0  0  0  0  0  0  0
   56.8454   26.5281   47.9555 H   0  0  0  0  0  0  0  0  0  0  0  0
   58.1310   27.2230   46.4080 C   0  0  0  0  0  0  0  0  0  0  0  0
   59.1650   27.0210   45.7130 O   0  0  0  0  0  0  0  0  0  0  0  0
   57.4700   28.4980   46.4090 N   0  0  0  0  0  0  0  0  0  0  0  0
   57.1050   29.1990   45.3760 C   0  0  0  0  0  0  0  0  0  0  0  0
   55.8630   29.0590   44.8310 N   0  0  0  0  0  0  0  0  0  0  0  0
   55.4480   29.8140   43.7810 C   0  0  0  0  0  0  0  0  0  0  0  0
   54.4413   29.6673   43.3625 H   0  0  0  0  0  0  0  0  0  0  0  0
   56.2970   30.7750   43.2330 C   0  0  0  0  0  0  0  0  0  0  0  0
   55.9642   31.3919   42.3853 H   0  0  0  0  0  0  0  0  0  0  0  0
   57.5730   30.9460   43.7710 C   0  0  0  0  0  0  0  0  0  0  0  0
   58.2507   31.7027   43.3488 H   0  0  0  0  0  0  0  0  0  0  0  0
   57.9930   30.1520   44.8520 C   0  0  0  0  0  0  0  0  0  0  0  0
   59.2670   30.2810   45.4330 O   0  0  0  0  0  0  0  0  0  0  0  0
   59.5200   30.7350   46.7620 C   0  0  0  0  0  0  0  0  0  0  0  0
   58.7706   30.3028   47.4414 H   0  0  0  0  0  0  0  0  0  0  0  0
   60.5297   30.4173   47.0613 H   0  0  0  0  0  0  0  0  0  0  0  0
   59.4410   32.2430   46.8280 C   0  0  0  0  0  0  0  0  0  0  0  0
   59.4460   32.9680   45.6230 C   0  0  0  0  0  0  0  0  0  0  0  0
   59.5104   32.4315   44.6649 H   0  0  0  0  0  0  0  0  0  0  0  0
   59.3700   34.3620   45.6310 C   0  0  0  0  0  0  0  0  0  0  0  0
   59.3850   34.9190   44.6825 H   0  0  0  0  0  0  0  0  0  0  0  0
   59.2750   35.0490   46.8420 C   0  0  0  0  0  0  0  0  0  0  0  0
   59.2198   36.1476   46.8478 H   0  0  0  0  0  0  0  0  0  0  0  0
   59.2500   34.3430   48.0460 C   0  0  0  0  0  0  0  0  0  0  0  0
   59.1708   34.8893   48.9974 H   0  0  0  0  0  0  0  0  0  0  0  0
   59.3250   32.9440   48.0520 C   0  0  0  0  0  0  0  0  0  0  0  0
   59.2530   32.0610   49.7540 Br  0  0  0  0  0  0  0  0  0  0  0  0
  1  2  1  0
  2  3  1  0
  3  4  2  0
  4  5  1  0
  4  6  1  0
  6  7  1  0
  6  8  2  0
  8  9  1  0
  8 10  1  0
 10 11  1  0
 10 12  2  0
 12 13  1  0
 13 14  1  0
 13 15  1  0
 13 16  1  0
 16 17  2  0
 16 18  1  0
 18 19  2  0
 19 20  1  0
 20 21  1  0
 21 22  1  0
 21 23  2  0
 23 24  1  0
 23 25  1  0
 25 26  1  0
 25 27  2  0
 27 28  1  0
 28 29  1  0
 29 30  1  0
 29 31  1  0
 29 32  1  0
 32 33  2  0
 33 34  1  0
 33 35  1  0
 35 36  1  0
 35 37  2  0
 37 38  1  0
 37 39  1  0
 39 40  1  0
 39 41  2  0
 41 42  1  0
 12  3  1  0
 27 19  1  0
 41 32  1  0
M  CHG  1  20  -1
M  END
>  <UniqueID>  (78) 
74

>  <SMILES>  (78) 
O=C(Cc1ccccc1O)/N=c1\[n-]cccc1OCc1ccccc1Br

>  <Energy>  (78) 
47.18323920143593

>  <Genealogy>  (78) 
O=C(Cc1ccccc1O)N=c1[n-]cccc1OCc1ccccc1Br (protonated)
O=C(Cc1ccccc1O)/N=c1\[n-]cccc1OCc1ccccc1Br (cis-trans isomerization)
O=C(Cc1ccccc1O)/N=c1\[n-]cccc1OCc1ccccc1Br (3D coordinates assigned)
O=C(Cc1ccccc1O)/N=c1\[n-]cccc1OCc1ccccc1Br (optimized conformer: 47.18323920143593 kcal/mol)

>  <smiles>  (78) 
O=C(Cc1ccccc1O)N=c1[nH]cccc1OCc1ccccc1Br

>  <score_type>  (78) 
oracle

>  <origin>  (78) 
adg

>  <m_score__min__energy>  (78) 
-11.140000000000001

>  <m_primary>  (78) 
energy

$$$$
78:0
     RDKit          3D

 51 53  0  0  0  0  0  0  0  0999 V2000
   55.5310   29.8630   43.9290 C   0  0  0  0  0  0  0  0  0  0  0  0
   56.2720   30.7140   44.8510 N   0  0  0  0  0  0  0  0  0  0  0  0
   57.2020   31.7320   44.4590 C   0  0  0  0  0  0  0  0  0  0  0  0
   57.3950   31.9340   43.2300 O   0  0  0  0  0  0  0  0  0  0  0  0
   57.9660   32.5270   45.4430 C   0  0  0  0  0  0  0  0  0  0  0  0
   58.7130   33.6430   45.0500 C   0  0  0  0  0  0  0  0  0  0  0  0
   59.4430   34.3600   45.9960 C   0  0  0  0  0  0  0  0  0  0  0  0
   59.4490   33.9470   47.3340 C   0  0  0  0  0  0  0  0  0  0  0  0
   60.1480   34.6420   48.1900 N   0  0  0  0  0  0  0  0  0  0  0  0
   61.2290   34.2090   49.0340 C   0  0  0  0  0  0  0  0  0  0  0  0
   62.2310   34.9560   49.2140 O   0  0  0  0  0  0  0  0  0  0  0  0
   61.1170   32.9390   49.7990 C   0  0  0  0  0  0  0  0  0  0  0  0
   61.2490   31.7160   49.1240 C   0  0  0  0  0  0  0  0  0  0  0  0
   61.1590   30.5100   49.8120 C   0  0  0  0  0  0  0  0  0  0  0  0
   61.3240   29.3130   49.0980 O   0  0  0  0  0  0  0  0  0  0  0  0
   60.3980   28.7630   48.1980 C   0  0  0  0  0  0  0  0  0  0  0  0
   59.9210   29.4840   47.0900 C   0  0  0  0  0  0  0  0  0  0  0  0
   59.0120   28.8980   46.2050 C   0  0  0  0  0  0  0  0  0  0  0  0
   58.5790   27.5820   46.4070 C   0  0  0  0  0  0  0  0  0  0  0  0
   57.4270   26.8590   45.2870 S   0  0  0  0  0  0  0  0  0  0  0  0
   57.8050   27.3760   43.6270 C   0  0  0  0  0  0  0  0  0  0  0  0
   56.0290   27.2960   45.6230 O   0  0  0  0  0  0  0  0  0  0  0  0
   57.5070   25.3610   45.3840 O   0  0  0  0  0  0  0  0  0  0  0  0
   59.0670   26.8530   47.5020 C   0  0  0  0  0  0  0  0  0  0  0  0
   59.9780   27.4390   48.3870 C   0  0  0  0  0  0  0  0  0  0  0  0
   60.4390   26.7260   49.4440 F   0  0  0  0  0  0  0  0  0  0  0  0
   60.9620   30.5350   51.1980 C   0  0  0  0  0  0  0  0  0  0  0  0
   60.8230   31.7210   51.8650 N   0  0  0  0  0  0  0  0  0  0  0  0
   60.5920   31.7070   53.3160 C   0  0  0  0  0  0  0  0  0  0  0  0
   60.8760   32.9150   51.1920 C   0  0  0  0  0  0  0  0  0  0  0  0
   60.7030   33.9960   51.8200 O   0  0  0  0  0  0  0  0  0  0  0  0
   58.7070   32.8550   47.7010 N   0  0  0  0  0  0  0  0  0  0  0  0
   57.9890   32.1420   46.7900 C   0  0  0  0  0  0  0  0  0  0  0  0
   54.9136   29.1540   44.5001 H   0  0  0  0  0  0  0  0  0  0  0  0
   54.8826   30.4861   43.2955 H   0  0  0  0  0  0  0  0  0  0  0  0
   56.2373   29.3065   43.2955 H   0  0  0  0  0  0  0  0  0  0  0  0
   58.7240   33.9542   43.9950 H   0  0  0  0  0  0  0  0  0  0  0  0
   60.0140   35.2496   45.6919 H   0  0  0  0  0  0  0  0  0  0  0  0
   61.4257   31.7106   48.0383 H   0  0  0  0  0  0  0  0  0  0  0  0
   60.2649   30.5147   46.9185 H   0  0  0  0  0  0  0  0  0  0  0  0
   58.6352   29.4730   45.3463 H   0  0  0  0  0  0  0  0  0  0  0  0
   58.4540   28.2636   43.6582 H   0  0  0  0  0  0  0  0  0  0  0  0
   58.3224   26.5619   43.0983 H   0  0  0  0  0  0  0  0  0  0  0  0
   56.8723   27.6221   43.0983 H   0  0  0  0  0  0  0  0  0  0  0  0
   58.7323   25.8179   47.6649 H   0  0  0  0  0  0  0  0  0  0  0  0
   60.9185   29.5889   51.7575 H   0  0  0  0  0  0  0  0  0  0  0  0
   61.5566   31.7655   53.8414 H   0  0  0  0  0  0  0  0  0  0  0  0
   59.9689   32.5690   53.5964 H   0  0  0  0  0  0  0  0  0  0  0  0
   60.0775   30.7760   53.5964 H   0  0  0  0  0  0  0  0  0  0  0  0
   58.6280   32.5530   48.6950 H   0  0  0  0  0  0  0  0  0  0  0  0
   57.4224   31.2566   47.1141 H   0  0  0  0  0  0  0  0  0  0  0  0
  1  2  1  0
  2  3  1  0
  3  4  2  0
  3  5  1  0
  5  6  1  0
  6  7  2  0
  7  8  1  0
  8  9  2  3
  9 10  1  0
 10 11  2  0
 10 12  1  0
 12 13  2  0
 13 14  1  0
 14 15  1  0
 15 16  1  0
 16 17  2  0
 17 18  1  0
 18 19  2  0
 19 20  1  0
 20 21  1  0
 20 22  2  0
 20 23  2  0
 19 24  1  0
 24 25  2  0
 25 26  1  0
 14 27  2  0
 27 28  1  0
 28 29  1  0
 28 30  1  0
 30 31  2  0
  8 32  1  0
 32 33  1  0
 33  5  2  0
 30 12  1  0
 25 16  1  0
  1 34  1  0
  1 35  1  0
  1 36  1  0
  6 37  1  0
  7 38  1  0
 13 39  1  0
 17 40  1  0
 18 41  1  0
 21 42  1  0
 21 43  1  0
 21 44  1  0
 24 45  1  0
 27 46  1  0
 29 47  1  0
 29 48  1  0
 29 49  1  0
 32 50  1  0
 33 51  1  0
M  CHG  1   2  -1
M  END
>  <UniqueID>  (79) 
75

>  <SMILES>  (79) 
C[N-]C(=O)c1ccc(=NC(=O)c2cc(Oc3ccc(S(C)(=O)=O)cc3F)cn(C)c2=O)[nH]c1

>  <Energy>  (79) 
73.78344725873737

>  <Genealogy>  (79) 
C[N-]C(=O)c1ccc(=NC(=O)c2cc(Oc3ccc(S(C)(=O)=O)cc3F)cn(C)c2=O)[nH]c1 (protonated)
C[N-]C(=O)c1ccc(=NC(=O)c2cc(Oc3ccc(S(C)(=O)=O)cc3F)cn(C)c2=O)[nH]c1 (3D coordinates assigned)
C[N-]C(=O)c1ccc(=NC(=O)c2cc(Oc3ccc(S(C)(=O)=O)cc3F)cn(C)c2=O)[nH]c1 (optimized conformer: 73.78344725873737 kcal/mol)

>  <smiles>  (79) 
CNC(=O)c1ccc(=NC(=O)c2cc(Oc3ccc(S(C)(=O)=O)cc3F)cn(C)c2=O)[nH]c1

>  <score_type>  (79) 
oracle

>  <origin>  (79) 
adg

>  <m_score__min__energy>  (79) 
-11.18

>  <m_primary>  (79) 
energy

$$$$
79:0
     RDKit          3D

 15 15  0  0  0  0  0  0  0  0999 V2000
   55.5470   30.2800   52.4420 C   0  0  0  0  0  0  0  0  0  0  0  0
   54.3350   29.7370   52.3210 C   0  0  0  0  0  0  0  0  0  0  0  0
   53.1790   30.3790   51.6530 C   0  0  0  0  0  0  0  0  0  0  0  0
   52.4410   31.4310   52.2230 C   0  0  0  0  0  0  0  0  0  0  0  0
   51.3670   31.9650   51.5050 C   0  0  0  0  0  0  0  0  0  0  0  0
   50.6910   32.9090   51.9950 O   0  0  0  0  0  0  0  0  0  0  0  0
   51.0520   31.4670   50.2790 N   0  0  0  0  0  0  0  0  0  0  0  0
   51.7750   30.4490   49.7390 C   0  0  0  0  0  0  0  0  0  0  0  0
   51.3940   29.8530   48.2640 S   0  0  0  0  0  0  0  0  0  0  0  0
   52.8210   29.9200   50.4240 N   0  0  0  0  0  0  0  0  0  0  0  0
   56.3480   29.7283   52.9558 H   0  0  0  0  0  0  0  0  0  0  0  0
   55.7457   31.2796   52.0280 H   0  0  0  0  0  0  0  0  0  0  0  0
   54.1819   28.7358   52.7500 H   0  0  0  0  0  0  0  0  0  0  0  0
   52.7037   31.8265   53.2153 H   0  0  0  0  0  0  0  0  0  0  0  0
   50.2470   31.8750   49.7510 H   0  0  0  0  0  0  0  0  0  0  0  0
  1  2  2  0
  2  3  1  0
  3  4  2  0
  4  5  1  0
  5  6  2  0
  5  7  1  0
  7  8  1  0
  8  9  2  0
  8 10  1  0
 10  3  1  0
  1 11  1  0
  1 12  1  0
  2 13  1  0
  4 14  1  0
  7 15  1  0
M  CHG  1  10  -1
M  END
>  <UniqueID>  (80) 
76

>  <SMILES>  (80) 
C=Cc1cc(=O)[nH]c(=S)[n-]1

>  <Energy>  (80) 
15.327752911657194

>  <Genealogy>  (80) 
C=Cc1cc(=O)[nH]c(=S)[n-]1 (protonated)
C=Cc1cc(=O)[nH]c(=S)[n-]1 (3D coordinates assigned)
C=Cc1cc(=O)[nH]c(=S)[n-]1 (optimized conformer: 15.327752911657194 kcal/mol)

>  <smiles>  (80) 
C=Cc1cc(=O)[nH]c(=S)[nH]1

>  <score_type>  (80) 
oracle

>  <origin>  (80) 
adg

>  <m_score__min__energy>  (80) 
-7.0199999999999996

>  <m_primary>  (80) 
energy

$$$$
80:0
     RDKit          3D

 44 46  0  0  0  0  0  0  0  0999 V2000
   56.3910   29.8200   42.3490 O   0  0  0  0  0  0  0  0  0  0  0  0
   56.6790   30.1900   43.7760 S   0  0  0  0  0  0  0  0  0  0  0  0
   55.3700   30.3990   44.4840 O   0  0  0  0  0  0  0  0  0  0  0  0
   57.6260   31.6420   43.7950 N   0  0  0  0  0  0  0  0  0  0  0  0
   58.0660   32.2730   45.0010 C   0  0  0  0  0  0  0  0  0  0  0  0
   58.1290   33.6710   45.1160 C   0  0  0  0  0  0  0  0  0  0  0  0
   58.4940   34.2600   46.3300 C   0  0  0  0  0  0  0  0  0  0  0  0
   58.7880   33.4610   47.4350 C   0  0  0  0  0  0  0  0  0  0  0  0
   58.7460   32.0640   47.3260 C   0  0  0  0  0  0  0  0  0  0  0  0
   59.0000   31.0760   48.7590 S   0  0  0  0  0  0  0  0  0  0  0  0
   58.2680   31.6390   49.9460 O   0  0  0  0  0  0  0  0  0  0  0  0
   58.4880   29.6890   48.4920 O   0  0  0  0  0  0  0  0  0  0  0  0
   60.6990   31.0040   49.0980 N   0  0  0  0  0  0  0  0  0  0  0  0
   61.6790   31.9250   48.5950 C   0  0  0  0  0  0  0  0  0  0  0  0
   62.5590   31.5720   47.5540 C   0  0  0  0  0  0  0  0  0  0  0  0
   63.5080   32.4860   47.0900 C   0  0  0  0  0  0  0  0  0  0  0  0
   63.5890   33.7600   47.6550 C   0  0  0  0  0  0  0  0  0  0  0  0
   62.7160   34.1230   48.6840 C   0  0  0  0  0  0  0  0  0  0  0  0
   61.7580   33.2140   49.1500 C   0  0  0  0  0  0  0  0  0  0  0  0
   60.6810   33.7010   50.4510 Cl  0  0  0  0  0  0  0  0  0  0  0  0
   58.4100   31.4750   46.0970 C   0  0  0  0  0  0  0  0  0  0  0  0
   57.5950   28.8950   44.5490 C   0  0  0  0  0  0  0  0  0  0  0  0
   58.9970   28.9150   44.5450 C   0  0  0  0  0  0  0  0  0  0  0  0
   59.7160   27.9000   45.1820 C   0  0  0  0  0  0  0  0  0  0  0  0
   59.0420   26.8690   45.8410 C   0  0  0  0  0  0  0  0  0  0  0  0
   57.6390   26.8550   45.8790 C   0  0  0  0  0  0  0  0  0  0  0  0
   56.9090   25.7480   46.5880 C   0  0  0  0  0  0  0  0  0  0  0  0
   55.5310   25.8560   46.3590 O   0  0  0  0  0  0  0  0  0  0  0  0
   56.9210   27.8590   45.2100 C   0  0  0  0  0  0  0  0  0  0  0  0
   57.8906   34.3042   44.2487 H   0  0  0  0  0  0  0  0  0  0  0  0
   58.5495   35.3554   46.4141 H   0  0  0  0  0  0  0  0  0  0  0  0
   59.0536   33.9285   48.3947 H   0  0  0  0  0  0  0  0  0  0  0  0
   62.4988   30.5703   47.1034 H   0  0  0  0  0  0  0  0  0  0  0  0
   64.1929   32.2013   46.2777 H   0  0  0  0  0  0  0  0  0  0  0  0
   64.3392   34.4773   47.2906 H   0  0  0  0  0  0  0  0  0  0  0  0
   62.7815   35.1265   49.1297 H   0  0  0  0  0  0  0  0  0  0  0  0
   58.4173   30.3797   45.9953 H   0  0  0  0  0  0  0  0  0  0  0  0
   59.5324   29.7319   44.0390 H   0  0  0  0  0  0  0  0  0  0  0  0
   60.8158   27.9129   45.1644 H   0  0  0  0  0  0  0  0  0  0  0  0
   59.6122   26.0662   46.3313 H   0  0  0  0  0  0  0  0  0  0  0  0
   57.2654   24.7778   46.2117 H   0  0  0  0  0  0  0  0  0  0  0  0
   57.1015   25.8240   47.6684 H   0  0  0  0  0  0  0  0  0  0  0  0
   55.1470   26.3210   47.1480 H   0  0  0  0  0  0  0  0  0  0  0  0
   55.8213   27.8324   45.2046 H   0  0  0  0  0  0  0  0  0  0  0  0
  1  2  2  0
  2  3  2  0
  2  4  1  0
  4  5  1  0
  5  6  2  0
  6  7  1  0
  7  8  2  0
  8  9  1  0
  9 10  1  0
 10 11  2  0
 10 12  2  0
 10 13  1  0
 13 14  1  0
 14 15  2  0
 15 16  1  0
 16 17  2  0
 17 18  1  0
 18 19  2  0
 19 20  1  0
  9 21  2  0
  2 22  1  0
 22 23  2  0
 23 24  1  0
 24 25  2  0
 25 26  1  0
 26 27  1  0
 27 28  1  0
 26 29  2  0
 21  5  1  0
 29 22  1  0
 19 14  1  0
  6 30  1  0
  7 31  1  0
  8 32  1  0
 15 33  1  0
 16 34  1  0
 17 35  1  0
 18 36  1  0
 21 37  1  0
 23 38  1  0
 24 39  1  0
 25 40  1  0
 27 41  1  0
 27 42  1  0
 28 43  1  0
 29 44  1  0
M  CHG  2   4  -1  13  -1
M  END
>  <UniqueID>  (81) 
77

>  <SMILES>  (81) 
O=S(=O)([N-]c1cccc(S(=O)(=O)[N-]c2ccccc2Cl)c1)c1cccc(CO)c1

>  <Energy>  (81) 
52.662390826704815

>  <Genealogy>  (81) 
O=S(=O)([N-]c1cccc(S(=O)(=O)[N-]c2ccccc2Cl)c1)c1cccc(CO)c1 (protonated)
O=S(=O)([N-]c1cccc(S(=O)(=O)[N-]c2ccccc2Cl)c1)c1cccc(CO)c1 (3D coordinates assigned)
O=S(=O)([N-]c1cccc(S(=O)(=O)[N-]c2ccccc2Cl)c1)c1cccc(CO)c1 (optimized conformer: 52.662390826704815 kcal/mol)

>  <smiles>  (81) 
O=S(=O)(Nc1cccc(S(=O)(=O)Nc2ccccc2Cl)c1)c1cccc(CO)c1

>  <score_type>  (81) 
oracle

>  <origin>  (81) 
adg

>  <m_score__min__energy>  (81) 
-13.800000000000001

>  <m_primary>  (81) 
energy

$$$$
81:0
     RDKit          3D

 48 51  0  0  1  0  0  0  0  0999 V2000
   65.4670   33.0790   49.7470 N   0  0  0  0  0  0  0  0  0  0  0  0
   64.3050   32.7860   49.2290 C   0  0  0  0  0  0  0  0  0  0  0  0
   63.3110   32.4410   50.0580 N   0  0  0  0  0  0  0  0  0  0  0  0
   62.1100   32.1360   49.5210 C   0  0  0  0  0  0  0  0  0  0  0  0
   61.8970   32.1750   48.1490 C   0  0  0  0  0  0  0  0  0  0  0  0
   60.5850   31.8450   47.6190 C   0  0  0  0  0  0  0  0  0  0  0  0
   59.5650   32.7620   47.4980 C   0  0  0  0  0  0  0  0  0  0  0  0
   58.3310   32.4200   46.9890 C   0  0  0  0  0  0  0  0  0  0  0  0
   57.3450   33.2300   46.8660 N   0  0  0  0  0  0  0  0  0  0  0  0
   57.2950   34.1360   45.7650 C   0  0  0  0  0  0  0  0  0  0  0  0
   57.9500   33.5970   44.4930 C   0  0  0  0  0  0  0  0  0  0  0  0
   57.4100   32.2920   44.1060 C   0  0  0  0  0  0  0  0  0  0  0  0
   57.9700   31.4940   43.1130 C   0  0  0  0  0  0  0  0  0  0  0  0
   57.2530   30.3550   42.9860 N   0  0  0  0  0  0  0  0  0  0  0  0
   56.2630   30.4280   43.8740 C   0  0  0  0  0  0  0  0  0  0  0  0
   56.3380   31.6000   44.5680 N   0  0  0  0  0  0  0  0  0  0  0  0
   58.1360   31.1470   46.6030 N   0  0  0  0  0  0  0  0  0  0  0  0
   59.1230   30.2300   46.7120 C   0  0  0  0  0  0  0  0  0  0  0  0
   58.8790   28.8780   46.2890 N   0  0  0  0  0  0  0  0  0  0  0  0
   58.4950   27.8660   47.2410 C   0  0  0  0  0  0  0  0  0  0  0  0
   57.4040   26.9620   46.7210 C   0  0  0  0  0  0  0  0  0  0  0  0
   57.4760   26.7490   45.3520 O   0  0  0  0  0  0  0  0  0  0  0  0
   58.7380   27.0040   44.8290 C   0  0  0  0  0  0  0  0  0  0  0  0
   59.0090   28.4710   44.9000 C   0  0  0  0  0  0  0  0  0  0  0  0
   60.3370   30.5920   47.2200 N   0  0  0  0  0  0  0  0  0  0  0  0
   62.9660   32.5380   47.3740 C   0  0  0  0  0  0  0  0  0  0  0  0
   64.1790   32.8480   47.8900 N   0  0  0  0  0  0  0  0  0  0  0  0
   65.5680   33.7030   50.5660 H   0  0  0  0  0  0  0  0  0  0  0  0
   61.2813   31.8501   50.1855 H   0  0  0  0  0  0  0  0  0  0  0  0
   59.7407   33.7998   47.8176 H   0  0  0  0  0  0  0  0  0  0  0  0
   56.2401   34.3570   45.5452 H   0  0  0  0  0  0  0  0  0  0  0  0
   57.8596   35.0323   46.0614 H   0  0  0  0  0  0  0  0  0  0  0  0
   57.7749   34.3103   43.6742 H   0  0  0  0  0  0  0  0  0  0  0  0
   59.0249   33.4735   44.6916 H   0  0  0  0  0  0  0  0  0  0  0  0
   58.8609   31.7510   42.5212 H   0  0  0  0  0  0  0  0  0  0  0  0
   57.4910   29.5930   42.2920 H   0  0  0  0  0  0  0  0  0  0  0  0
   55.4956   29.6547   44.0259 H   0  0  0  0  0  0  0  0  0  0  0  0
   57.2180   30.8230   46.2090 H   0  0  0  0  0  0  0  0  0  0  0  0
   59.3770   27.2529   47.4781 H   0  0  0  0  0  0  0  0  0  0  0  0
   58.1050   28.3790   48.1325 H   0  0  0  0  0  0  0  0  0  0  0  0
   57.4829   25.9903   47.2305 H   0  0  0  0  0  0  0  0  0  0  0  0
   56.4438   27.4588   46.9241 H   0  0  0  0  0  0  0  0  0  0  0  0
   59.4955   26.4608   45.4131 H   0  0  0  0  0  0  0  0  0  0  0  0
   58.7797   26.6696   43.7819 H   0  0  0  0  0  0  0  0  0  0  0  0
   60.0275   28.6815   44.5417 H   0  0  0  0  0  0  0  0  0  0  0  0
   58.2988   29.0248   44.2684 H   0  0  0  0  0  0  0  0  0  0  0  0
   62.8334   32.5797   46.2828 H   0  0  0  0  0  0  0  0  0  0  0  0
   64.9630   33.1200   47.2620 H   0  0  0  0  0  0  0  0  0  0  0  0
  1  2  2  3
  2  3  1  0
  3  4  2  0
  4  5  1  0
  5  6  1  0
  6  7  2  0
  7  8  1  0
  8  9  2  0
  9 10  1  0
 10 11  1  0
 11 12  1  0
 12 13  2  0
 13 14  1  0
 14 15  1  0
 15 16  2  0
  8 17  1  0
 17 18  1  0
 18 19  1  0
 19 20  1  0
 20 21  1  0
 21 22  1  0
 22 23  1  0
 23 24  1  0
 18 25  2  0
  5 26  2  0
 26 27  1  0
 27  2  1  0
 25  6  1  0
 16 12  1  0
 24 19  1  0
  1 28  1  0
  4 29  1  0
  7 30  1  0
 10 31  1  0
 10 32  1  0
 11 33  1  0
 11 34  1  0
 13 35  1  0
 14 36  1  0
 15 37  1  0
 17 38  1  0
 20 39  1  0
 20 40  1  0
 21 41  1  0
 21 42  1  0
 23 43  1  0
 23 44  1  0
 24 45  1  0
 24 46  1  0
 26 47  1  0
 27 48  1  0
M  END
>  <smiles>  (82) 
N=c1ncc(-c2cc(=NCCc3c[nH]cn3)[nH]c(N3CCOCC3)n2)c[nH]1

>  <score_type>  (82) 
oracle

>  <origin>  (82) 
adg

>  <m_score__min__energy>  (82) 
-7.46

>  <m_primary>  (82) 
energy

$$$$
82:0
     RDKit          3D

 74 77  0  0  0  0  0  0  0  0999 V2000
   56.3710   30.1590   43.4130 O   0  0  0  0  0  0  0  0  0  0  0  0
   56.2590   29.3040   44.3320 C   0  0  0  0  0  0  0  0  0  0  0  0
   55.1470   29.3340   45.1670 O   0  0  0  0  0  0  0  0  0  0  0  0
   57.3570   28.3150   44.5720 C   0  0  0  0  0  0  0  0  0  0  0  0
   57.1140   27.4380   45.8130 C   0  0  0  0  0  0  0  0  0  0  0  0
   56.8630   25.9470   45.4860 C   0  0  1  0  0  0  0  0  0  0  0  0
   57.9300   25.1400   46.0800 N   0  0  0  0  0  0  0  0  0  0  0  0
   59.2920   25.5180   46.3480 C   0  0  0  0  0  0  0  0  0  0  0  0
   60.2090   24.7620   45.9350 O   0  0  0  0  0  0  0  0  0  0  0  0
   59.6660   26.7880   47.0140 C   0  0  0  0  0  0  0  0  0  0  0  0
   59.6620   26.9160   48.4120 C   0  0  0  0  0  0  0  0  0  0  0  0
   60.0210   28.1290   49.0090 C   0  0  0  0  0  0  0  0  0  0  0  0
   60.3650   29.2400   48.2180 C   0  0  0  0  0  0  0  0  0  0  0  0
   60.6590   30.5790   48.8520 C   0  0  0  0  0  0  0  0  0  0  0  0
   59.5320   31.0410   49.6670 N   0  0  0  0  0  0  0  0  0  0  0  0
   59.6560   32.0500   50.6840 C   0  0  0  0  0  0  0  0  0  0  0  0
   58.5250   32.6000   51.3120 C   0  0  0  0  0  0  0  0  0  0  0  0
   58.6760   33.4960   52.3740 C   0  0  0  0  0  0  0  0  0  0  0  0
   59.9540   33.8310   52.8350 C   0  0  0  0  0  0  0  0  0  0  0  0
   61.0930   33.2770   52.2280 C   0  0  0  0  0  0  0  0  0  0  0  0
   62.4680   33.5800   52.7660 C   0  0  0  0  0  0  0  0  0  0  0  0
   63.5340   33.2430   51.7650 C   0  0  0  0  0  0  0  0  0  0  0  0
   64.2020   32.1850   51.9020 O   0  0  0  0  0  0  0  0  0  0  0  0
   63.7610   34.1000   50.6370 N   0  0  0  0  0  0  0  0  0  0  0  0
   63.2160   33.8770   49.3330 C   0  0  0  0  0  0  0  0  0  0  0  0
   64.0130   33.3860   48.2870 C   0  0  0  0  0  0  0  0  0  0  0  0
   63.4650   33.1790   47.0180 C   0  0  0  0  0  0  0  0  0  0  0  0
   62.1130   33.4540   46.7850 C   0  0  0  0  0  0  0  0  0  0  0  0
   61.3130   33.9570   47.8210 C   0  0  0  0  0  0  0  0  0  0  0  0
   59.8810   34.1880   47.5980 C   0  0  0  0  0  0  0  0  0  0  0  0
   59.2600   34.9650   48.3730 O   0  0  0  0  0  0  0  0  0  0  0  0
   59.1790   33.5140   46.5440 N   0  0  0  0  0  0  0  0  0  0  0  0
   59.3530   32.0720   46.3660 C   0  0  0  0  0  0  0  0  0  0  0  0
   58.2810   31.5270   45.4240 C   0  0  0  0  0  0  0  0  0  0  0  0
   58.2630   32.2880   44.2350 O   0  0  0  0  0  0  0  0  0  0  0  0
   57.8290   33.6270   44.4570 C   0  0  0  0  0  0  0  0  0  0  0  0
   58.0670   34.1990   45.8770 C   0  0  0  0  0  0  0  0  0  0  0  0
   61.8710   34.1860   49.0900 C   0  0  0  0  0  0  0  0  0  0  0  0
   60.9350   32.4240   51.1220 C   0  0  0  0  0  0  0  0  0  0  0  0
   60.4150   29.0970   46.8220 C   0  0  0  0  0  0  0  0  0  0  0  0
   60.0740   27.8810   46.2270 C   0  0  0  0  0  0  0  0  0  0  0  0
   55.5160   25.5230   46.0070 C   0  0  0  0  0  0  0  0  0  0  0  0
   54.5340   26.3130   45.9720 O   0  0  0  0  0  0  0  0  0  0  0  0
   55.3440   24.2380   46.5090 O   0  0  0  0  0  0  0  0  0  0  0  0
   57.4390   27.6613   43.6911 H   0  0  0  0  0  0  0  0  0  0  0  0
   58.2814   28.8849   44.7471 H   0  0  0  0  0  0  0  0  0  0  0  0
   57.9981   27.5060   46.4639 H   0  0  0  0  0  0  0  0  0  0  0  0
   56.2026   27.8167   46.2987 H   0  0  0  0  0  0  0  0  0  0  0  0
   56.8672   25.7990   44.3960 H   0  0  0  0  0  0  0  0  0  0  0  0
   59.3756   26.0595   49.0400 H   0  0  0  0  0  0  0  0  0  0  0  0
   60.0344   28.2147   50.1056 H   0  0  0  0  0  0  0  0  0  0  0  0
   61.5490   30.4850   49.4916 H   0  0  0  0  0  0  0  0  0  0  0  0
   60.8316   31.3123   48.0505 H   0  0  0  0  0  0  0  0  0  0  0  0
   58.5710   30.7600   49.3640 H   0  0  0  0  0  0  0  0  0  0  0  0
   57.5177   32.3243   50.9664 H   0  0  0  0  0  0  0  0  0  0  0  0
   57.7880   33.9389   52.8486 H   0  0  0  0  0  0  0  0  0  0  0  0
   60.0670   34.5309   53.6760 H   0  0  0  0  0  0  0  0  0  0  0  0
   62.5297   34.6514   53.0076 H   0  0  0  0  0  0  0  0  0  0  0  0
   62.6309   32.9672   53.6649 H   0  0  0  0  0  0  0  0  0  0  0  0
   65.0750   33.1629   48.4671 H   0  0  0  0  0  0  0  0  0  0  0  0
   64.0972   32.7995   46.2017 H   0  0  0  0  0  0  0  0  0  0  0  0
   61.6782   33.2758   45.7904 H   0  0  0  0  0  0  0  0  0  0  0  0
   60.3473   31.8754   45.9385 H   0  0  0  0  0  0  0  0  0  0  0  0
   59.2610   31.5746   47.3428 H   0  0  0  0  0  0  0  0  0  0  0  0
   58.5048   30.4773   45.1833 H   0  0  0  0  0  0  0  0  0  0  0  0
   57.2980   31.5915   45.9135 H   0  0  0  0  0  0  0  0  0  0  0  0
   58.3585   34.2739   43.7420 H   0  0  0  0  0  0  0  0  0  0  0  0
   56.7368   33.6065   44.3282 H   0  0  0  0  0  0  0  0  0  0  0  0
   58.3014   35.2708   45.7977 H   0  0  0  0  0  0  0  0  0  0  0  0
   57.1550   34.0450   46.4724 H   0  0  0  0  0  0  0  0  0  0  0  0
   61.2509   34.6086   49.8942 H   0  0  0  0  0  0  0  0  0  0  0  0
   61.8233   32.0460   50.5947 H   0  0  0  0  0  0  0  0  0  0  0  0
   60.7240   29.9463   46.1949 H   0  0  0  0  0  0  0  0  0  0  0  0
   60.1247   27.7763   45.1332 H   0  0  0  0  0  0  0  0  0  0  0  0
  1  2  2  0
  2  3  1  0
  2  4  1  0
  4  5  1  0
  5  6  1  0
  6  7  1  0
  7  8  1  0
  8  9  2  0
  8 10  1  0
 10 11  2  0
 11 12  1  0
 12 13  2  0
 13 14  1  0
 14 15  1  0
 15 16  1  0
 16 17  2  0
 17 18  1  0
 18 19  2  0
 19 20  1  0
 20 21  1  0
 21 22  1  0
 22 23  2  0
 22 24  1  0
 24 25  1  0
 25 26  2  0
 26 27  1  0
 27 28  2  0
 28 29  1  0
 29 30  1  0
 30 31  2  0
 30 32  1  0
 32 33  1  0
 33 34  1  0
 34 35  1  0
 35 36  1  0
 36 37  1  0
 29 38  2  0
 20 39  2  0
 13 40  1  0
 40 41  2  0
  6 42  1  0
 42 43  2  0
 42 44  1  0
 41 10  1  0
 39 16  1  0
 38 25  1  0
 37 32  1  0
  4 45  1  0
  4 46  1  0
  5 47  1  0
  5 48  1  0
  6 49  1  6
 11 50  1  0
 12 51  1  0
 14 52  1  0
 14 53  1  0
 15 54  1  0
 17 55  1  0
 18 56  1  0
 19 57  1  0
 21 58  1  0
 21 59  1  0
 26 60  1  0
 27 61  1  0
 28 62  1  0
 33 63  1  0
 33 64  1  0
 34 65  1  0
 34 66  1  0
 36 67  1  0
 36 68  1  0
 37 69  1  0
 37 70  1  0
 38 71  1  0
 39 72  1  0
 40 73  1  0
 41 74  1  0
M  CHG  4   3  -1   7  -1  24  -1  44  -1
M  END
>  <UniqueID>  (83) 
78

>  <SMILES>  (83) 
O=C([O-])CC[C@@H]([N-]C(=O)c1ccc(CNc2cccc(CC(=O)[N-]c3cccc(C(=O)N4CCOCC4)c3)c2)cc1)C(=O)[O-]

>  <Energy>  (83) 
89.98728214207453

>  <Genealogy>  (83) 
O=C([O-])CCC([N-]C(=O)c1ccc(CNc2cccc(CC(=O)[N-]c3cccc(C(=O)N4CCOCC4)c3)c2)cc1)C(=O)[O-] (protonated)
O=C([O-])CC[C@@H]([N-]C(=O)c1ccc(CNc2cccc(CC(=O)[N-]c3cccc(C(=O)N4CCOCC4)c3)c2)cc1)C(=O)[O-] (chirality)
O=C([O-])CC[C@@H]([N-]C(=O)c1ccc(CNc2cccc(CC(=O)[N-]c3cccc(C(=O)N4CCOCC4)c3)c2)cc1)C(=O)[O-] (3D coordinates assigned)
O=C([O-])CC[C@@H]([N-]C(=O)c1ccc(CNc2cccc(CC(=O)[N-]c3cccc(C(=O)N4CCOCC4)c3)c2)cc1)C(=O)[O-] (nonaromatic ring conformer: 89.98728214207453 kcal/mol)

>  <smiles>  (83) 
O=C(O)CCC(NC(=O)c1ccc(CNc2cccc(CC(=O)Nc3cccc(C(=O)N4CCOCC4)c3)c2)cc1)C(=O)O

>  <score_type>  (83) 
oracle

>  <origin>  (83) 
adg

>  <m_score__min__energy>  (83) 
-20.059999999999999

>  <m_primary>  (83) 
energy

$$$$
83:0
     RDKit          3D

 60 64  0  0  0  0  0  0  0  0999 V2000
   57.6830   32.2960   51.7410 C   0  0  0  0  0  0  0  0  0  0  0  0
   58.9460   31.8680   51.7010 C   0  0  0  0  0  0  0  0  0  0  0  0
   59.4400   30.8100   50.7850 C   0  0  0  0  0  0  0  0  0  0  0  0
   60.7900   30.4090   50.7410 C   0  0  0  0  0  0  0  0  0  0  0  0
   61.2020   29.4000   49.8660 C   0  0  0  0  0  0  0  0  0  0  0  0
   60.2740   28.7620   49.0280 C   0  0  0  0  0  0  0  0  0  0  0  0
   60.7210   27.6670   48.0840 C   0  0  0  0  0  0  0  0  0  0  0  0
   59.6670   27.2160   47.1490 N   0  0  0  0  0  0  0  0  0  0  0  0
   59.1020   25.8990   47.4880 C   0  0  0  0  0  0  0  0  0  0  0  0
   57.9940   25.4850   46.4930 C   0  0  0  0  0  0  0  0  0  0  0  0
   57.6570   26.5410   45.5160 N   0  0  0  0  0  0  0  0  0  0  0  0
   56.5840   27.4780   45.9270 C   0  0  0  0  0  0  0  0  0  0  0  0
   56.8760   28.9260   45.5920 C   0  0  0  0  0  0  0  0  0  0  0  0
   57.9970   29.5600   46.1570 C   0  0  0  0  0  0  0  0  0  0  0  0
   58.2420   30.9270   45.9360 C   0  0  0  0  0  0  0  0  0  0  0  0
   59.3730   31.6060   46.6100 C   0  0  0  0  0  0  0  0  0  0  0  0
   60.6140   31.0430   46.8990 C   0  0  0  0  0  0  0  0  0  0  0  0
   61.3370   31.9800   47.5350 N   0  0  0  0  0  0  0  0  0  0  0  0
   62.6000   31.9200   48.0270 C   0  0  0  0  0  0  0  0  0  0  0  0
   63.1190   33.0610   48.6590 C   0  0  0  0  0  0  0  0  0  0  0  0
   64.8900   33.0450   49.3730 Br  0  0  0  0  0  0  0  0  0  0  0  0
   62.3210   34.2190   48.7630 C   0  0  0  0  0  0  0  0  0  0  0  0
   61.0170   34.2310   48.2410 C   0  0  0  0  0  0  0  0  0  0  0  0
   60.5570   33.0680   47.6240 C   0  0  0  0  0  0  0  0  0  0  0  0
   59.3450   32.8810   47.0720 N   0  0  0  0  0  0  0  0  0  0  0  0
   57.3780   31.6460   45.0940 C   0  0  0  0  0  0  0  0  0  0  0  0
   56.2860   31.0150   44.4970 C   0  0  0  0  0  0  0  0  0  0  0  0
   56.0290   29.6640   44.7420 C   0  0  0  0  0  0  0  0  0  0  0  0
   54.9280   29.0660   44.1380 O   0  0  0  0  0  0  0  0  0  0  0  0
   58.8210   27.1490   44.8330 C   0  0  0  0  0  0  0  0  0  0  0  0
   60.0620   27.2740   45.7360 C   0  0  0  0  0  0  0  0  0  0  0  0
   58.9290   29.1580   49.0700 C   0  0  0  0  0  0  0  0  0  0  0  0
   58.5150   30.1660   49.9450 C   0  0  0  0  0  0  0  0  0  0  0  0
   57.3921   33.0859   52.4491 H   0  0  0  0  0  0  0  0  0  0  0  0
   56.9325   31.8590   51.0659 H   0  0  0  0  0  0  0  0  0  0  0  0
   59.6677   32.3290   52.3914 H   0  0  0  0  0  0  0  0  0  0  0  0
   61.5252   30.8937   51.4002 H   0  0  0  0  0  0  0  0  0  0  0  0
   62.2609   29.1038   49.8338 H   0  0  0  0  0  0  0  0  0  0  0  0
   61.5698   28.0431   47.4941 H   0  0  0  0  0  0  0  0  0  0  0  0
   60.9903   26.7998   48.7048 H   0  0  0  0  0  0  0  0  0  0  0  0
   59.9052   25.1479   47.4614 H   0  0  0  0  0  0  0  0  0  0  0  0
   58.6580   25.9620   48.4924 H   0  0  0  0  0  0  0  0  0  0  0  0
   58.3349   24.5962   45.9418 H   0  0  0  0  0  0  0  0  0  0  0  0
   57.0865   25.2867   47.0822 H   0  0  0  0  0  0  0  0  0  0  0  0
   55.6539   27.1850   45.4181 H   0  0  0  0  0  0  0  0  0  0  0  0
   56.5032   27.4123   47.0221 H   0  0  0  0  0  0  0  0  0  0  0  0
   58.6919   28.9784   46.7806 H   0  0  0  0  0  0  0  0  0  0  0  0
   60.9409   30.0220   46.6525 H   0  0  0  0  0  0  0  0  0  0  0  0
   63.2004   31.0031   47.9333 H   0  0  0  0  0  0  0  0  0  0  0  0
   62.7217   35.1174   49.2554 H   0  0  0  0  0  0  0  0  0  0  0  0
   60.3814   35.1257   48.3162 H   0  0  0  0  0  0  0  0  0  0  0  0
   58.5690   33.5760   47.0070 H   0  0  0  0  0  0  0  0  0  0  0  0
   57.5633   32.7135   44.9039 H   0  0  0  0  0  0  0  0  0  0  0  0
   55.6233   31.5850   43.8292 H   0  0  0  0  0  0  0  0  0  0  0  0
   59.0820   26.5245   43.9659 H   0  0  0  0  0  0  0  0  0  0  0  0
   58.5294   28.1679   44.5383 H   0  0  0  0  0  0  0  0  0  0  0  0
   60.7550   26.4481   45.5180 H   0  0  0  0  0  0  0  0  0  0  0  0
   60.5541   28.2380   45.5395 H   0  0  0  0  0  0  0  0  0  0  0  0
   58.1954   28.6720   48.4100 H   0  0  0  0  0  0  0  0  0  0  0  0
   57.4550   30.4583   49.9767 H   0  0  0  0  0  0  0  0  0  0  0  0
  1  2  2  0
  2  3  1  0
  3  4  2  0
  4  5  1  0
  5  6  2  0
  6  7  1  0
  7  8  1  0
  8  9  1  0
  9 10  1  0
 10 11  1  0
 11 12  1  0
 12 13  1  0
 13 14  2  0
 14 15  1  0
 15 16  1  0
 16 17  2  0
 17 18  1  0
 18 19  1  0
 19 20  2  0
 20 21  1  0
 20 22  1  0
 22 23  2  0
 23 24  1  0
 24 25  2  0
 15 26  2  0
 26 27  1  0
 27 28  2  0
 28 29  1  0
 11 30  1  0
 30 31  1  0
  6 32  1  0
 32 33  2  0
 33  3  1  0
 31  8  1  0
 28 13  1  0
 25 16  1  0
 24 18  1  0
  1 34  1  0
  1 35  1  0
  2 36  1  0
  4 37  1  0
  5 38  1  0
  7 39  1  0
  7 40  1  0
  9 41  1  0
  9 42  1  0
 10 43  1  0
 10 44  1  0
 12 45  1  0
 12 46  1  0
 14 47  1  0
 17 48  1  0
 19 49  1  0
 22 50  1  0
 23 51  1  0
 25 52  1  0
 26 53  1  0
 27 54  1  0
 30 55  1  0
 30 56  1  0
 31 57  1  0
 31 58  1  0
 32 59  1  0
 33 60  1  0
M  CHG  2  25   1  29  -1
M  END
>  <UniqueID>  (84) 
79

>  <SMILES>  (84) 
C=Cc1ccc(CN2CCN(Cc3cc(-c4cn5cc(Br)ccc5[nH+]4)ccc3[O-])CC2)cc1

>  <Energy>  (84) 
120.32218952548462

>  <Genealogy>  (84) 
C=Cc1ccc(CN2CCN(Cc3cc(-c4cn5cc(Br)ccc5[nH+]4)ccc3[O-])CC2)cc1 (protonated)
C=Cc1ccc(CN2CCN(Cc3cc(-c4cn5cc(Br)ccc5[nH+]4)ccc3[O-])CC2)cc1 (3D coordinates assigned)
C=Cc1ccc(CN2CCN(Cc3cc(-c4cn5cc(Br)ccc5[nH+]4)ccc3[O-])CC2)cc1 (nonaromatic ring conformer: 120.32218952548462 kcal/mol)

>  <smiles>  (84) 
C=Cc1ccc(CN2CCN(Cc3cc(-c4cn5cc(Br)ccc5n4)ccc3O)CC2)cc1

>  <score_type>  (84) 
oracle

>  <origin>  (84) 
adg

>  <m_score__min__energy>  (84) 
-9.7599999999999998

>  <m_primary>  (84) 
energy

$$$$
84:0
     RDKit          3D

 49 51  0  0  0  0  0  0  0  0999 V2000
   58.1360   32.9700   43.4250 C   0  0  0  0  0  0  0  0  0  0  0  0
   58.3070   33.7520   44.4930 C   0  0  0  0  0  0  0  0  0  0  0  0
   58.6120   33.2480   45.8540 C   0  0  0  0  0  0  0  0  0  0  0  0
   58.5310   34.0570   47.0000 C   0  0  0  0  0  0  0  0  0  0  0  0
   58.7740   33.5300   48.2260 N   0  0  0  0  0  0  0  0  0  0  0  0
   59.0870   32.2180   48.4130 C   0  0  0  0  0  0  0  0  0  0  0  0
   59.3480   31.7590   49.6060 N   0  0  0  0  0  0  0  0  0  0  0  0
   58.4010   31.3660   50.6140 C   0  0  0  0  0  0  0  0  0  0  0  0
   58.1450   30.0230   50.9340 C   0  0  0  0  0  0  0  0  0  0  0  0
   57.2700   29.7170   51.9270 N   0  0  0  0  0  0  0  0  0  0  0  0
   56.6400   30.6950   52.6290 C   0  0  0  0  0  0  0  0  0  0  0  0
   56.8980   32.0000   52.3590 N   0  0  0  0  0  0  0  0  0  0  0  0
   57.7690   32.3510   51.3780 C   0  0  0  0  0  0  0  0  0  0  0  0
   59.1900   31.3660   47.2940 C   0  0  0  0  0  0  0  0  0  0  0  0
   59.5000   29.9250   47.4410 C   0  0  0  0  0  0  0  0  0  0  0  0
   59.8810   29.4860   48.5590 O   0  0  0  0  0  0  0  0  0  0  0  0
   59.3130   28.9940   46.3670 N   0  0  0  0  0  0  0  0  0  0  0  0
   58.2220   28.0720   46.2020 C   0  0  0  0  0  0  0  0  0  0  0  0
   58.2880   26.7460   46.6510 C   0  0  0  0  0  0  0  0  0  0  0  0
   57.2010   25.9200   46.5550 N   0  0  0  0  0  0  0  0  0  0  0  0
   57.3200   24.5150   46.9920 C   0  0  0  0  0  0  0  0  0  0  0  0
   58.2410   23.6980   46.0710 C   0  0  0  0  0  0  0  0  0  0  0  0
   57.4840   23.0360   44.9570 C   0  0  0  0  0  0  0  0  0  0  0  0
   57.7350   21.8370   44.6600 O   0  0  0  0  0  0  0  0  0  0  0  0
   56.5220   23.7850   44.2030 N   0  0  0  0  0  0  0  0  0  0  0  0
   55.9110   23.2580   42.9910 C   0  0  0  0  0  0  0  0  0  0  0  0
   56.0240   26.4050   46.0440 C   0  0  0  0  0  0  0  0  0  0  0  0
   55.0020   25.6710   45.9720 O   0  0  0  0  0  0  0  0  0  0  0  0
   55.9460   27.6870   45.6070 N   0  0  0  0  0  0  0  0  0  0  0  0
   57.0110   28.5240   45.6740 C   0  0  0  0  0  0  0  0  0  0  0  0
   56.8950   29.7110   45.2680 O   0  0  0  0  0  0  0  0  0  0  0  0
   58.9510   31.8960   46.0170 C   0  0  0  0  0  0  0  0  0  0  0  0
   57.9116   33.4178   42.4457 H   0  0  0  0  0  0  0  0  0  0  0  0
   58.2195   31.8777   43.5241 H   0  0  0  0  0  0  0  0  0  0  0  0
   58.2159   34.8395   44.3549 H   0  0  0  0  0  0  0  0  0  0  0  0
   58.2697   35.1211   46.9026 H   0  0  0  0  0  0  0  0  0  0  0  0
   58.6527   29.2191   50.3809 H   0  0  0  0  0  0  0  0  0  0  0  0
   55.9201   30.4289   53.4170 H   0  0  0  0  0  0  0  0  0  0  0  0
   57.9777   33.4135   51.1842 H   0  0  0  0  0  0  0  0  0  0  0  0
   59.2240   26.3649   47.0854 H   0  0  0  0  0  0  0  0  0  0  0  0
   57.7304   24.4946   48.0124 H   0  0  0  0  0  0  0  0  0  0  0  0
   56.3177   24.0632   46.9554 H   0  0  0  0  0  0  0  0  0  0  0  0
   58.9950   24.3708   45.6364 H   0  0  0  0  0  0  0  0  0  0  0  0
   58.7110   22.9089   46.6763 H   0  0  0  0  0  0  0  0  0  0  0  0
   56.2800   24.7570   44.5000 H   0  0  0  0  0  0  0  0  0  0  0  0
   55.1034   22.5614   43.2605 H   0  0  0  0  0  0  0  0  0  0  0  0
   55.4974   24.0873   42.3984 H   0  0  0  0  0  0  0  0  0  0  0  0
   56.6706   22.7271   42.3984 H   0  0  0  0  0  0  0  0  0  0  0  0
   59.0302   31.2447   45.1341 H   0  0  0  0  0  0  0  0  0  0  0  0
  1  2  2  0
  2  3  1  0
  3  4  2  0
  4  5  1  0
  5  6  1  0
  6  7  2  3
  7  8  1  0
  8  9  2  0
  9 10  1  0
 10 11  2  0
 11 12  1  0
 12 13  2  0
  6 14  1  0
 14 15  1  0
 15 16  2  0
 15 17  1  0
 17 18  1  0
 18 19  2  0
 19 20  1  0
 20 21  1  0
 21 22  1  0
 22 23  1  0
 23 24  2  0
 23 25  1  0
 25 26  1  0
 20 27  1  0
 27 28  2  0
 27 29  1  0
 29 30  1  0
 30 31  2  0
 14 32  2  0
 32  3  1  0
 13  8  1  0
 30 18  1  0
  1 33  1  0
  1 34  1  0
  2 35  1  0
  4 36  1  0
  9 37  1  0
 11 38  1  0
 13 39  1  0
 19 40  1  0
 21 41  1  0
 21 42  1  0
 22 43  1  0
 22 44  1  0
 25 45  1  0
 26 46  1  0
 26 47  1  0
 26 48  1  0
 32 49  1  0
M  CHG  3   5  -1  17  -1  29  -1
M  END
>  <UniqueID>  (85) 
80

>  <SMILES>  (85) 
C=Cc1c[n-]c(=Nc2cncnc2)c(C(=O)[N-]c2cn(CCC(=O)NC)c(=O)[n-]c2=O)c1

>  <Energy>  (85) 
64.74643332424952

>  <Genealogy>  (85) 
C=Cc1c[n-]c(=Nc2cncnc2)c(C(=O)[N-]c2cn(CCC(=O)NC)c(=O)[n-]c2=O)c1 (protonated)
C=Cc1c[n-]c(=Nc2cncnc2)c(C(=O)[N-]c2cn(CCC(=O)NC)c(=O)[n-]c2=O)c1 (3D coordinates assigned)
C=Cc1c[n-]c(=Nc2cncnc2)c(C(=O)[N-]c2cn(CCC(=O)NC)c(=O)[n-]c2=O)c1 (optimized conformer: 64.74643332424952 kcal/mol)

>  <smiles>  (85) 
C=Cc1c[nH]c(=Nc2cncnc2)c(C(=O)Nc2cn(CCC(=O)NC)c(=O)[nH]c2=O)c1

>  <score_type>  (85) 
oracle

>  <origin>  (85) 
adg

>  <m_score__min__energy>  (85) 
-12.130000000000001

>  <m_primary>  (85) 
energy

$$$$
85:0
     RDKit          3D

 27 28  0  0  0  0  0  0  0  0999 V2000
   56.6730   25.4290   47.1820 O   0  0  0  0  0  0  0  0  0  0  0  0
   56.4270   26.1830   46.2200 C   0  0  0  0  0  0  0  0  0  0  0  0
   55.0780   26.5470   46.0370 O   0  0  0  0  0  0  0  0  0  0  0  0
   57.4100   26.7220   45.2690 C   0  0  0  0  0  0  0  0  0  0  0  0
   57.6830   28.1650   45.3720 C   0  0  0  0  0  0  0  0  0  0  0  0
   58.9860   28.5360   45.6950 C   0  0  0  0  0  0  0  0  0  0  0  0
   60.2070   27.3090   45.9520 Cl  0  0  0  0  0  0  0  0  0  0  0  0
   59.3260   29.8320   45.8120 N   0  0  0  0  0  0  0  0  0  0  0  0
   58.4310   30.8140   45.6230 C   0  0  0  0  0  0  0  0  0  0  0  0
   58.7770   32.2250   45.7450 C   0  0  0  0  0  0  0  0  0  0  0  0
   58.0420   33.2400   45.1740 C   0  0  0  0  0  0  0  0  0  0  0  0
   58.4070   34.5620   45.3010 C   0  0  0  0  0  0  0  0  0  0  0  0
   59.5230   34.9300   46.0090 C   0  0  0  0  0  0  0  0  0  0  0  0
   60.2930   33.9230   46.6020 C   0  0  0  0  0  0  0  0  0  0  0  0
   61.4140   34.2560   47.3120 F   0  0  0  0  0  0  0  0  0  0  0  0
   59.9010   32.5950   46.4560 C   0  0  0  0  0  0  0  0  0  0  0  0
   57.1700   30.4680   45.3100 N   0  0  0  0  0  0  0  0  0  0  0  0
   56.7810   29.1740   45.1820 C   0  0  0  0  0  0  0  0  0  0  0  0
   55.5870   28.9440   44.8860 O   0  0  0  0  0  0  0  0  0  0  0  0
   54.7650   27.4930   46.3050 H   0  0  0  0  0  0  0  0  0  0  0  0
   58.3586   26.1879   45.4264 H   0  0  0  0  0  0  0  0  0  0  0  0
   56.9703   26.5736   44.2717 H   0  0  0  0  0  0  0  0  0  0  0  0
   60.2990   30.0460   46.0520 H   0  0  0  0  0  0  0  0  0  0  0  0
   57.1379   32.9878   44.6003 H   0  0  0  0  0  0  0  0  0  0  0  0
   57.7909   35.3389   44.8248 H   0  0  0  0  0  0  0  0  0  0  0  0
   59.8051   35.9886   46.1080 H   0  0  0  0  0  0  0  0  0  0  0  0
   60.5111   31.8095   46.9258 H   0  0  0  0  0  0  0  0  0  0  0  0
  1  2  2  0
  2  3  1  0
  2  4  1  0
  4  5  1  0
  5  6  2  0
  6  7  1  0
  6  8  1  0
  8  9  1  0
  9 10  1  0
 10 11  2  0
 11 12  1  0
 12 13  2  0
 13 14  1  0
 14 15  1  0
 14 16  2  0
  9 17  2  0
 17 18  1  0
 18 19  2  0
 18  5  1  0
 16 10  1  0
  3 20  1  0
  4 21  1  0
  4 22  1  0
  8 23  1  0
 11 24  1  0
 12 25  1  0
 13 26  1  0
 16 27  1  0
M  END
>  <smiles>  (86) 
O=C(O)Cc1c(Cl)[nH]c(-c2cccc(F)c2)nc1=O

>  <score_type>  (86) 
oracle

>  <origin>  (86) 
adg

>  <m_score__min__energy>  (86) 
-8.9199999999999999

>  <m_primary>  (86) 
energy

$$$$
86:0
     RDKit          3D

 60 64  0  0  0  0  0  0  0  0999 V2000
   55.8870   29.6050   45.9890 H   0  0  0  0  0  0  0  0  0  0  0  0
   55.9740   28.8830   45.2840 O   0  0  0  0  0  0  0  0  0  0  0  0
   56.2200   27.5560   45.6210 C   0  0  0  0  0  0  0  0  0  0  0  0
   55.2490   26.6870   45.9540 N   0  0  0  0  0  0  0  0  0  0  0  0
   55.9390   25.5670   46.2510 C   0  0  0  0  0  0  0  0  0  0  0  0
   55.3770   24.5040   46.6240 O   0  0  0  0  0  0  0  0  0  0  0  0
   57.2800   25.6760   46.1280 N   0  0  0  0  0  0  0  0  0  0  0  0
   57.4520   26.9380   45.6980 C   0  0  0  0  0  0  0  0  0  0  0  0
   58.7750   27.5520   45.5080 C   0  0  0  0  0  0  0  0  0  0  0  0
   59.3809   27.1863   44.6659 H   0  0  0  0  0  0  0  0  0  0  0  0
   59.3110   28.5230   46.2740 C   0  0  0  0  0  0  0  0  0  0  0  0
   59.3980   29.8370   45.8510 C   0  0  0  0  0  0  0  0  0  0  0  0
   58.9889   30.2557   44.9197 H   0  0  0  0  0  0  0  0  0  0  0  0
   60.0960   30.5190   46.8220 C   0  0  0  0  0  0  0  0  0  0  0  0
   60.4440   31.9460   46.7290 C   0  0  0  0  0  0  0  0  0  0  0  0
   61.5400   32.3290   47.2270 O   0  0  0  0  0  0  0  0  0  0  0  0
   59.5570   32.9000   46.1050 N   0  0  0  0  0  0  0  0  0  0  0  0
   60.0000   34.2980   45.9960 C   0  0  0  0  0  0  0  0  0  0  0  0
   59.9368   34.7722   46.9865 H   0  0  0  0  0  0  0  0  0  0  0  0
   61.0359   34.3062   45.6260 H   0  0  0  0  0  0  0  0  0  0  0  0
   59.1270   35.0840   45.0090 C   0  0  0  0  0  0  0  0  0  0  0  0
   59.3514   36.1566   45.1046 H   0  0  0  0  0  0  0  0  0  0  0  0
   59.3475   34.7351   43.9894 H   0  0  0  0  0  0  0  0  0  0  0  0
   57.7540   34.8730   45.2720 O   0  0  0  0  0  0  0  0  0  0  0  0
   57.4350   33.5290   44.9910 C   0  0  0  0  0  0  0  0  0  0  0  0
   56.3454   33.3950   45.0601 H   0  0  0  0  0  0  0  0  0  0  0  0
   57.7871   33.2878   43.9772 H   0  0  0  0  0  0  0  0  0  0  0  0
   58.1210   32.5870   45.9860 C   0  0  0  0  0  0  0  0  0  0  0  0
   57.6458   32.6970   46.9719 H   0  0  0  0  0  0  0  0  0  0  0  0
   58.0161   31.5546   45.6211 H   0  0  0  0  0  0  0  0  0  0  0  0
   60.4130   29.7030   47.8560 N   0  0  0  0  0  0  0  0  0  0  0  0
   61.0560   30.1410   49.1060 C   0  0  0  0  0  0  0  0  0  0  0  0
   61.8354   29.4169   49.3856 H   0  0  0  0  0  0  0  0  0  0  0  0
   61.5014   31.1344   48.9487 H   0  0  0  0  0  0  0  0  0  0  0  0
   60.0420   30.2310   50.2150 C   0  0  0  0  0  0  0  0  0  0  0  0
   58.9500   31.1070   50.1100 C   0  0  0  0  0  0  0  0  0  0  0  0
   58.8597   31.7648   49.2330 H   0  0  0  0  0  0  0  0  0  0  0  0
   57.9770   31.1490   51.1120 C   0  0  0  0  0  0  0  0  0  0  0  0
   57.1228   31.8351   51.0144 H   0  0  0  0  0  0  0  0  0  0  0  0
   58.0810   30.3200   52.2460 C   0  0  0  0  0  0  0  0  0  0  0  0
   57.0670   30.3320   53.2730 N   0  0  0  0  0  0  0  0  0  0  0  0
   55.6860   30.0360   53.1050 C   0  0  0  0  0  0  0  0  0  0  0  0
   55.1550   29.7890   51.9890 O   0  0  0  0  0  0  0  0  0  0  0  0
   54.9160   30.1290   54.3590 C   0  0  0  0  0  0  0  0  0  0  0  0
   54.3815   29.1897   54.5642 H   0  0  0  0  0  0  0  0  0  0  0  0
   54.1418   30.9100   54.3328 H   0  0  0  0  0  0  0  0  0  0  0  0
   55.9970   30.3890   55.4160 C   0  0  0  0  0  0  0  0  0  0  0  0
   56.1292   29.4981   56.0476 H   0  0  0  0  0  0  0  0  0  0  0  0
   55.7128   31.2276   56.0687 H   0  0  0  0  0  0  0  0  0  0  0  0
   57.3030   30.7000   54.6610 C   0  0  0  0  0  0  0  0  0  0  0  0
   58.1333   30.1098   55.0761 H   0  0  0  0  0  0  0  0  0  0  0  0
   57.5764   31.7615   54.7534 H   0  0  0  0  0  0  0  0  0  0  0  0
   59.1750   29.4440   52.3440 C   0  0  0  0  0  0  0  0  0  0  0  0
   59.2681   28.7848   53.2196 H   0  0  0  0  0  0  0  0  0  0  0  0
   60.1460   29.4020   51.3400 C   0  0  0  0  0  0  0  0  0  0  0  0
   60.9984   28.7130   51.4335 H   0  0  0  0  0  0  0  0  0  0  0  0
   59.9030   28.4770   47.5500 C   0  0  0  0  0  0  0  0  0  0  0  0
   59.8810   27.4380   48.4020 C   0  0  0  0  0  0  0  0  0  0  0  0
   60.3812   27.5168   49.3785 H   0  0  0  0  0  0  0  0  0  0  0  0
   59.3628   26.5087   48.1229 H   0  0  0  0  0  0  0  0  0  0  0  0
  1  2  1  0
  2  3  1  0
  3  4  1  0
  4  5  1  0
  5  6  2  0
  5  7  1  0
  7  8  1  0
  8  9  1  0
  9 10  1  0
  9 11  2  0
 11 12  1  0
 12 13  1  0
 12 14  2  0
 14 15  1  0
 15 16  2  0
 15 17  1  0
 17 18  1  0
 18 19  1  0
 18 20  1  0
 18 21  1  0
 21 22  1  0
 21 23  1  0
 21 24  1  0
 24 25  1  0
 25 26  1  0
 25 27  1  0
 25 28  1  0
 28 29  1  0
 28 30  1  0
 14 31  1  0
 31 32  1  0
 32 33  1  0
 32 34  1  0
 32 35  1  0
 35 36  2  0
 36 37  1  0
 36 38  1  0
 38 39  1  0
 38 40  2  0
 40 41  1  0
 41 42  1  0
 42 43  2  0
 42 44  1  0
 44 45  1  0
 44 46  1  0
 44 47  1  0
 47 48  1  0
 47 49  1  0
 47 50  1  0
 50 51  1  0
 50 52  1  0
 40 53  1  0
 53 54  1  0
 53 55  2  0
 55 56  1  0
 31 57  1  0
 57 58  2  0
 58 59  1  0
 58 60  1  0
  8  3  2  0
 57 11  1  0
 28 17  1  0
 55 35  1  0
 50 41  1  0
M  CHG  2   4  -1   7  -1
M  END
>  <UniqueID>  (87) 
81

>  <SMILES>  (87) 
C=c1/c(=C\c2[n-]c(=O)[n-]c2O)cc(C(=O)N2CCOCC2)n1Cc1ccc(N2CCCC2=O)cc1

>  <Energy>  (87) 
151.14420033277

>  <Genealogy>  (87) 
C=c1c(=Cc2[n-]c(=O)[n-]c2O)cc(C(=O)N2CCOCC2)n1Cc1ccc(N2CCCC2=O)cc1 (protonated)
C=c1/c(=C\c2[n-]c(=O)[n-]c2O)cc(C(=O)N2CCOCC2)n1Cc1ccc(N2CCCC2=O)cc1 (cis-trans isomerization)
C=c1/c(=C\c2[n-]c(=O)[n-]c2O)cc(C(=O)N2CCOCC2)n1Cc1ccc(N2CCCC2=O)cc1 (3D coordinates assigned)
C=c1/c(=C\c2[n-]c(=O)[n-]c2O)cc(C(=O)N2CCOCC2)n1Cc1ccc(N2CCCC2=O)cc1 (nonaromatic ring conformer: 151.14420033277 kcal/mol)

>  <smiles>  (87) 
C=c1c(=Cc2[nH]c(=O)[nH]c2O)cc(C(=O)N2CCOCC2)n1Cc1ccc(N2CCCC2=O)cc1

>  <score_type>  (87) 
oracle

>  <origin>  (87) 
adg

>  <m_score__min__energy>  (87) 
-13.210000000000001

>  <m_primary>  (87) 
energy

$$$$
87:0
     RDKit          3D

 60 63  0  0  0  0  0  0  0  0999 V2000
   62.3680   31.6980   51.4670 O   0  0  0  0  0  0  0  0  0  0  0  0
   62.0220   32.6180   50.6800 C   0  0  0  0  0  0  0  0  0  0  0  0
   61.0780   33.5950   51.1360 N   0  0  0  0  0  0  0  0  0  0  0  0
   59.8340   33.9340   50.4530 C   0  0  0  0  0  0  0  0  0  0  0  0
   60.1350   34.6020   49.1110 C   0  0  0  0  0  0  0  0  0  0  0  0
   59.5760   33.8030   47.9630 C   0  0  0  0  0  0  0  0  0  0  0  0
   59.1770   32.4690   48.1510 C   0  0  0  0  0  0  0  0  0  0  0  0
   58.6270   31.7420   47.0920 C   0  0  0  0  0  0  0  0  0  0  0  0
   58.4580   32.3410   45.8370 C   0  0  0  0  0  0  0  0  0  0  0  0
   57.7750   31.4040   44.5100 S   0  0  0  0  0  0  0  0  0  0  0  0
   58.3360   31.8770   43.1980 O   0  0  0  0  0  0  0  0  0  0  0  0
   56.2850   31.6050   44.4970 O   0  0  0  0  0  0  0  0  0  0  0  0
   58.1450   29.7130   44.7400 N   0  0  0  0  0  0  0  0  0  0  0  0
   57.3500   29.1350   45.8500 C   0  0  0  0  0  0  0  0  0  0  0  0
   58.1650   28.9900   47.1460 C   0  0  0  0  0  0  0  0  0  0  0  0
   59.3750   28.1490   46.9610 N   0  0  0  0  0  0  0  0  0  0  0  0
   59.1410   26.7560   47.3970 C   0  0  0  0  0  0  0  0  0  0  0  0
   58.0680   26.1040   46.5630 C   0  0  0  0  0  0  0  0  0  0  0  0
   58.4080   25.1000   45.6400 C   0  0  0  0  0  0  0  0  0  0  0  0
   57.4200   24.5070   44.8490 C   0  0  0  0  0  0  0  0  0  0  0  0
   56.0880   24.9150   44.9690 C   0  0  0  0  0  0  0  0  0  0  0  0
   55.7420   25.9200   45.8760 C   0  0  0  0  0  0  0  0  0  0  0  0
   54.4180   26.3290   45.9900 O   0  0  0  0  0  0  0  0  0  0  0  0
   56.7290   26.5150   46.6720 C   0  0  0  0  0  0  0  0  0  0  0  0
   59.9200   28.2000   45.5790 C   0  0  0  0  0  0  0  0  0  0  0  0
   59.6030   29.5350   44.8970 C   0  0  0  0  0  0  0  0  0  0  0  0
   58.8480   33.6740   45.6470 C   0  0  0  0  0  0  0  0  0  0  0  0
   59.3990   34.4020   46.7050 C   0  0  0  0  0  0  0  0  0  0  0  0
   62.5740   32.6370   49.3120 C   0  0  0  0  0  0  0  0  0  0  0  0
   62.4130   31.5390   48.4540 C   0  0  0  0  0  0  0  0  0  0  0  0
   62.9320   31.5960   47.1590 C   0  0  0  0  0  0  0  0  0  0  0  0
   63.5740   32.7150   46.7300 N   0  0  0  0  0  0  0  0  0  0  0  0
   63.7260   33.8020   47.5330 C   0  0  0  0  0  0  0  0  0  0  0  0
   63.2210   33.7860   48.8360 C   0  0  0  0  0  0  0  0  0  0  0  0
   59.2525   33.0164   50.2801 H   0  0  0  0  0  0  0  0  0  0  0  0
   59.2579   34.6304   51.0800 H   0  0  0  0  0  0  0  0  0  0  0  0
   59.6848   35.6056   49.1016 H   0  0  0  0  0  0  0  0  0  0  0  0
   61.2268   34.6634   48.9915 H   0  0  0  0  0  0  0  0  0  0  0  0
   59.2981   31.9949   49.1361 H   0  0  0  0  0  0  0  0  0  0  0  0
   58.3255   30.6952   47.2444 H   0  0  0  0  0  0  0  0  0  0  0  0
   56.4893   29.7913   46.0463 H   0  0  0  0  0  0  0  0  0  0  0  0
   57.0299   28.1285   45.5426 H   0  0  0  0  0  0  0  0  0  0  0  0
   58.4774   29.9901   47.4809 H   0  0  0  0  0  0  0  0  0  0  0  0
   57.5244   28.4976   47.8925 H   0  0  0  0  0  0  0  0  0  0  0  0
   60.0750   26.1844   47.2929 H   0  0  0  0  0  0  0  0  0  0  0  0
   58.8120   26.7670   48.4466 H   0  0  0  0  0  0  0  0  0  0  0  0
   59.4556   24.7798   45.5398 H   0  0  0  0  0  0  0  0  0  0  0  0
   57.6906   23.7185   44.1313 H   0  0  0  0  0  0  0  0  0  0  0  0
   55.3114   24.4441   44.3485 H   0  0  0  0  0  0  0  0  0  0  0  0
   56.4548   27.3067   47.3848 H   0  0  0  0  0  0  0  0  0  0  0  0
   61.0116   28.0707   45.6207 H   0  0  0  0  0  0  0  0  0  0  0  0
   59.4512   27.3948   44.9942 H   0  0  0  0  0  0  0  0  0  0  0  0
   60.0023   30.3565   45.5100 H   0  0  0  0  0  0  0  0  0  0  0  0
   60.0672   29.5394   43.8998 H   0  0  0  0  0  0  0  0  0  0  0  0
   58.7200   34.1481   44.6627 H   0  0  0  0  0  0  0  0  0  0  0  0
   59.6958   35.4501   46.5517 H   0  0  0  0  0  0  0  0  0  0  0  0
   61.8818   30.6396   48.7989 H   0  0  0  0  0  0  0  0  0  0  0  0
   62.8212   30.7340   46.4847 H   0  0  0  0  0  0  0  0  0  0  0  0
   64.2469   34.6947   47.1565 H   0  0  0  0  0  0  0  0  0  0  0  0
   63.3304   34.6686   49.4834 H   0  0  0  0  0  0  0  0  0  0  0  0
  1  2  2  0
  2  3  1  0
  3  4  1  0
  4  5  1  0
  5  6  1  0
  6  7  2  0
  7  8  1  0
  8  9  2  0
  9 10  1  0
 10 11  2  0
 10 12  2  0
 10 13  1  0
 13 14  1  0
 14 15  1  0
 15 16  1  0
 16 17  1  0
 17 18  1  0
 18 19  2  0
 19 20  1  0
 20 21  2  0
 21 22  1  0
 22 23  1  0
 22 24  2  0
 16 25  1  0
 25 26  1  0
  9 27  1  0
 27 28  2  0
  2 29  1  0
 29 30  2  0
 30 31  1  0
 31 32  2  0
 32 33  1  0
 33 34  2  0
 28  6  1  0
 34 29  1  0
 26 13  1  0
 24 18  1  0
  4 35  1  0
  4 36  1  0
  5 37  1  0
  5 38  1  0
  7 39  1  0
  8 40  1  0
 14 41  1  0
 14 42  1  0
 15 43  1  0
 15 44  1  0
 17 45  1  0
 17 46  1  0
 19 47  1  0
 20 48  1  0
 21 49  1  0
 24 50  1  0
 25 51  1  0
 25 52  1  0
 26 53  1  0
 26 54  1  0
 27 55  1  0
 28 56  1  0
 30 57  1  0
 31 58  1  0
 33 59  1  0
 34 60  1  0
M  CHG  2   3  -1  23  -1
M  END
>  <UniqueID>  (88) 
82

>  <SMILES>  (88) 
O=C([N-]CCc1ccc(S(=O)(=O)N2CCN(Cc3cccc([O-])c3)CC2)cc1)c1ccncc1

>  <Energy>  (88) 
76.83189340587927

>  <Genealogy>  (88) 
O=C([N-]CCc1ccc(S(=O)(=O)N2CCN(Cc3cccc([O-])c3)CC2)cc1)c1ccncc1 (protonated)
O=C([N-]CCc1ccc(S(=O)(=O)N2CCN(Cc3cccc([O-])c3)CC2)cc1)c1ccncc1 (3D coordinates assigned)
O=C([N-]CCc1ccc(S(=O)(=O)N2CCN(Cc3cccc([O-])c3)CC2)cc1)c1ccncc1 (nonaromatic ring conformer: 76.83189340587927 kcal/mol)

>  <smiles>  (88) 
O=C(NCCc1ccc(S(=O)(=O)N2CCN(Cc3cccc(O)c3)CC2)cc1)c1ccncc1

>  <score_type>  (88) 
oracle

>  <origin>  (88) 
adg

>  <m_score__min__energy>  (88) 
-14.44

>  <m_primary>  (88) 
energy

$$$$
88:0
     RDKit          3D

 69 73  0  0  0  0  0  0  0  0999 V2000
   65.1590   32.5720   53.1300 C   0  0  0  0  0  0  0  0  0  0  0  0
   64.8850   33.5800   52.0960 N   0  0  0  0  0  0  0  0  0  0  0  0
   63.4390   33.6270   51.7840 C   0  0  0  0  0  0  0  0  0  0  0  0
   63.1730   34.2480   50.4090 C   0  0  0  0  0  0  0  0  0  0  0  0
   63.8320   33.4390   49.3750 N   0  0  0  0  0  0  0  0  0  0  0  0
   63.3520   33.4370   48.0130 C   0  0  0  0  0  0  0  0  0  0  0  0
   64.1750   33.3960   47.0570 O   0  0  0  0  0  0  0  0  0  0  0  0
   61.9100   33.5030   47.7070 C   0  0  0  0  0  0  0  0  0  0  0  0
   60.9630   33.2650   48.7140 C   0  0  0  0  0  0  0  0  0  0  0  0
   59.6000   33.2240   48.4030 C   0  0  0  0  0  0  0  0  0  0  0  0
   59.1710   33.4190   47.0850 C   0  0  0  0  0  0  0  0  0  0  0  0
   57.7820   33.2450   46.7690 N   0  0  0  0  0  0  0  0  0  0  0  0
   57.2450   32.9880   45.4630 C   0  0  0  0  0  0  0  0  0  0  0  0
   56.6160   33.9080   44.8780 O   0  0  0  0  0  0  0  0  0  0  0  0
   57.4010   31.6740   44.7920 C   0  0  0  0  0  0  0  0  0  0  0  0
   56.2950   31.0110   44.2330 C   0  0  0  0  0  0  0  0  0  0  0  0
   56.4260   29.7140   43.7300 C   0  0  0  0  0  0  0  0  0  0  0  0
   57.6690   29.0660   43.7600 C   0  0  0  0  0  0  0  0  0  0  0  0
   57.7820   27.6280   43.3170 C   0  0  0  0  0  0  0  0  0  0  0  0
   57.9670   26.7510   44.4310 O   0  0  0  0  0  0  0  0  0  0  0  0
   58.5850   27.1020   45.6430 C   0  0  0  0  0  0  0  0  0  0  0  0
   57.8540   27.4490   46.7950 C   0  0  0  0  0  0  0  0  0  0  0  0
   58.5180   27.8810   47.9460 C   0  0  0  0  0  0  0  0  0  0  0  0
   59.9230   27.9390   47.9790 C   0  0  0  0  0  0  0  0  0  0  0  0
   60.6450   28.5040   49.1400 C   0  0  0  0  0  0  0  0  0  0  0  0
   60.3970   29.6980   49.7010 C   0  0  0  0  0  0  0  0  0  0  0  0
   58.8130   30.4840   49.4150 S   0  0  0  0  0  0  0  0  0  0  0  0
   58.4590   30.5030   51.1700 C   0  0  0  0  0  0  0  0  0  0  0  0
   57.3900   30.0030   51.6070 O   0  0  0  0  0  0  0  0  0  0  0  0
   59.4490   31.0900   52.0860 C   0  0  0  0  0  0  0  0  0  0  0  0
   59.1000   31.4700   53.2360 O   0  0  0  0  0  0  0  0  0  0  0  0
   60.8240   31.1910   51.6850 N   0  0  0  0  0  0  0  0  0  0  0  0
   61.3360   30.4280   50.5810 C   0  0  0  0  0  0  0  0  0  0  0  0
   62.5780   30.3970   50.3640 O   0  0  0  0  0  0  0  0  0  0  0  0
   60.6480   27.5720   46.8360 C   0  0  0  0  0  0  0  0  0  0  0  0
   59.9840   27.1420   45.6840 C   0  0  0  0  0  0  0  0  0  0  0  0
   58.7950   29.7650   44.2230 C   0  0  0  0  0  0  0  0  0  0  0  0
   58.6600   31.0560   44.7430 C   0  0  0  0  0  0  0  0  0  0  0  0
   60.1120   33.7570   46.0970 C   0  0  0  0  0  0  0  0  0  0  0  0
   61.4720   33.7960   46.4070 C   0  0  0  0  0  0  0  0  0  0  0  0
   65.0790   32.7390   49.7150 C   0  0  0  0  0  0  0  0  0  0  0  0
   65.7720   33.4080   50.9150 C   0  0  0  0  0  0  0  0  0  0  0  0
   65.0360   33.0246   54.1250 H   0  0  0  0  0  0  0  0  0  0  0  0
   64.4563   31.7329   53.0194 H   0  0  0  0  0  0  0  0  0  0  0  0
   66.1897   32.2041   53.0194 H   0  0  0  0  0  0  0  0  0  0  0  0
   63.0389   32.6024   51.7952 H   0  0  0  0  0  0  0  0  0  0  0  0
   62.9459   34.2526   52.5426 H   0  0  0  0  0  0  0  0  0  0  0  0
   62.0895   34.2733   50.2207 H   0  0  0  0  0  0  0  0  0  0  0  0
   63.5715   35.2730   50.3844 H   0  0  0  0  0  0  0  0  0  0  0  0
   61.2934   33.1101   49.7517 H   0  0  0  0  0  0  0  0  0  0  0  0
   58.8622   33.0378   49.1974 H   0  0  0  0  0  0  0  0  0  0  0  0
   55.3191   31.5168   44.1912 H   0  0  0  0  0  0  0  0  0  0  0  0
   55.5501   29.1990   43.3086 H   0  0  0  0  0  0  0  0  0  0  0  0
   56.8611   27.3436   42.7869 H   0  0  0  0  0  0  0  0  0  0  0  0
   58.6570   27.5374   42.6566 H   0  0  0  0  0  0  0  0  0  0  0  0
   56.7562   27.3798   46.7890 H   0  0  0  0  0  0  0  0  0  0  0  0
   57.9380   28.1778   48.8323 H   0  0  0  0  0  0  0  0  0  0  0  0
   61.4502   27.8966   49.5791 H   0  0  0  0  0  0  0  0  0  0  0  0
   61.4860   31.7400   52.2780 H   0  0  0  0  0  0  0  0  0  0  0  0
   61.7468   27.6230   46.8463 H   0  0  0  0  0  0  0  0  0  0  0  0
   60.5649   26.8326   44.8026 H   0  0  0  0  0  0  0  0  0  0  0  0
   59.7884   29.2948   44.1765 H   0  0  0  0  0  0  0  0  0  0  0  0
   59.5461   31.5905   45.1160 H   0  0  0  0  0  0  0  0  0  0  0  0
   59.7753   33.9915   45.0764 H   0  0  0  0  0  0  0  0  0  0  0  0
   62.2038   34.0577   45.6285 H   0  0  0  0  0  0  0  0  0  0  0  0
   64.8481   31.6938   49.9687 H   0  0  0  0  0  0  0  0  0  0  0  0
   65.7551   32.7825   48.8484 H   0  0  0  0  0  0  0  0  0  0  0  0
   66.6295   32.7864   51.2120 H   0  0  0  0  0  0  0  0  0  0  0  0
   66.0762   34.4143   50.5913 H   0  0  0  0  0  0  0  0  0  0  0  0
  1  2  1  0
  2  3  1  0
  3  4  1  0
  4  5  1  0
  5  6  1  0
  6  7  2  0
  6  8  1  0
  8  9  2  0
  9 10  1  0
 10 11  2  0
 11 12  1  0
 12 13  1  0
 13 14  2  0
 13 15  1  0
 15 16  2  0
 16 17  1  0
 17 18  2  0
 18 19  1  0
 19 20  1  0
 20 21  1  0
 21 22  2  0
 22 23  1  0
 23 24  2  0
 24 25  1  0
 25 26  2  3
 26 27  1  0
 27 28  1  0
 28 29  2  0
 28 30  1  0
 30 31  2  0
 30 32  1  0
 32 33  1  0
 33 34  2  0
 24 35  1  0
 35 36  2  0
 18 37  1  0
 37 38  2  0
 11 39  1  0
 39 40  2  0
  5 41  1  0
 41 42  1  0
 42  2  1  0
 40  8  1  0
 38 15  1  0
 36 21  1  0
 33 26  1  0
  1 43  1  0
  1 44  1  0
  1 45  1  0
  3 46  1  0
  3 47  1  0
  4 48  1  0
  4 49  1  0
  9 50  1  0
 10 51  1  0
 16 52  1  0
 17 53  1  0
 19 54  1  0
 19 55  1  0
 22 56  1  0
 23 57  1  0
 25 58  1  0
 32 59  1  0
 35 60  1  0
 36 61  1  0
 37 62  1  0
 38 63  1  0
 39 64  1  0
 40 65  1  0
 41 66  1  0
 41 67  1  0
 42 68  1  0
 42 69  1  0
M  CHG  1  12  -1
M  END
>  <UniqueID>  (89) 
83

>  <SMILES>  (89) 
CN1CCN(C(=O)c2ccc([N-]C(=O)c3ccc(COc4ccc(C=C5SC(=O)C(=O)NC5=O)cc4)cc3)cc2)CC1

>  <Energy>  (89) 
101.90106362044669

>  <Genealogy>  (89) 
CN1CCN(C(=O)c2ccc([N-]C(=O)c3ccc(COc4ccc(C=C5SC(=O)C(=O)NC5=O)cc4)cc3)cc2)CC1 (protonated)
CN1CCN(C(=O)c2ccc([N-]C(=O)c3ccc(COc4ccc(C=C5SC(=O)C(=O)NC5=O)cc4)cc3)cc2)CC1 (3D coordinates assigned)
CN1CCN(C(=O)c2ccc([N-]C(=O)c3ccc(COc4ccc(C=C5SC(=O)C(=O)NC5=O)cc4)cc3)cc2)CC1 (nonaromatic ring conformer: 101.90106362044669 kcal/mol)

>  <smiles>  (89) 
CN1CCN(C(=O)c2ccc(NC(=O)c3ccc(COc4ccc(C=C5SC(=O)C(=O)NC5=O)cc4)cc3)cc2)CC1

>  <score_type>  (89) 
oracle

>  <origin>  (89) 
adg

>  <m_score__min__energy>  (89) 
-12.19

>  <m_primary>  (89) 
energy

$$$$
89:0
     RDKit          3D

 44 47  0  0  0  0  0  0  0  0999 V2000
   55.8670   27.4320   45.9170 H   0  0  0  0  0  0  0  0  0  0  0  0
   55.2810   26.6550   46.2750 N   0  0  0  0  0  0  0  0  0  0  0  0
   55.2810   25.4410   45.8240 C   0  0  0  0  0  0  0  0  0  0  0  0
   54.0840   24.8290   45.6020 N   0  0  0  0  0  0  0  0  0  0  0  0
   54.0080   23.5490   45.1410 C   0  0  0  0  0  0  0  0  0  0  0  0
   53.0270   23.0816   44.9702 H   0  0  0  0  0  0  0  0  0  0  0  0
   55.1470   22.8520   44.8930 N   0  0  0  0  0  0  0  0  0  0  0  0
   56.3220   23.4380   45.1080 N   0  0  0  0  0  0  0  0  0  0  0  0
   57.5400   22.9110   44.9000 C   0  0  0  0  0  0  0  0  0  0  0  0
   57.7920   21.5260   44.3510 C   0  0  0  0  0  0  0  0  0  0  0  0
   58.8920   21.5298   44.3560 H   0  0  0  0  0  0  0  0  0  0  0  0
   57.0280   21.2170   43.0640 C   0  0  0  0  0  0  0  0  0  0  0  0
   56.4058   22.0480   42.7001 H   0  0  0  0  0  0  0  0  0  0  0  0
   57.5704   20.9887   42.1347 H   0  0  0  0  0  0  0  0  0  0  0  0
   56.2490   20.1280   43.7910 C   0  0  0  0  0  0  0  0  0  0  0  0
   55.1679   20.3193   43.8584 H   0  0  0  0  0  0  0  0  0  0  0  0
   56.2203   19.1043   43.3894 H   0  0  0  0  0  0  0  0  0  0  0  0
   57.0140   20.4290   45.0740 C   0  0  0  0  0  0  0  0  0  0  0  0
   56.3833   20.7940   45.8980 H   0  0  0  0  0  0  0  0  0  0  0  0
   57.5461   19.6271   45.6066 H   0  0  0  0  0  0  0  0  0  0  0  0
   58.4970   23.8640   45.2150 C   0  0  0  0  0  0  0  0  0  0  0  0
   59.5879   23.7426   45.1428 H   0  0  0  0  0  0  0  0  0  0  0  0
   57.8180   25.0040   45.6400 C   0  0  0  0  0  0  0  0  0  0  0  0
   58.5040   26.2940   45.9940 C   0  0  0  0  0  0  0  0  0  0  0  0
   58.6056   26.3597   47.0873 H   0  0  0  0  0  0  0  0  0  0  0  0
   59.4940   26.3088   45.5148 H   0  0  0  0  0  0  0  0  0  0  0  0
   57.7280   27.4530   45.5100 N   0  0  0  0  0  0  0  0  0  0  0  0
   58.3300   28.7140   45.9760 C   0  0  0  0  0  0  0  0  0  0  0  0
   58.5635   28.6314   47.0478 H   0  0  0  0  0  0  0  0  0  0  0  0
   59.2510   28.9054   45.4059 H   0  0  0  0  0  0  0  0  0  0  0  0
   57.3510   29.8800   45.7570 C   0  0  0  0  0  0  0  0  0  0  0  0
   56.6934   29.9562   46.6355 H   0  0  0  0  0  0  0  0  0  0  0  0
   57.9495   30.7918   45.6141 H   0  0  0  0  0  0  0  0  0  0  0  0
   56.4720   29.6980   44.4960 C   0  0  0  0  0  0  0  0  0  0  0  0
   56.3445   30.6943   44.0476 H   0  0  0  0  0  0  0  0  0  0  0  0
   55.1950   29.2050   44.8240 O   0  0  0  0  0  0  0  0  0  0  0  0
   55.2440   28.2160   44.8620 H   0  0  0  0  0  0  0  0  0  0  0  0
   57.1540   28.8020   43.4500 C   0  0  0  0  0  0  0  0  0  0  0  0
   56.4465   28.6197   42.6277 H   0  0  0  0  0  0  0  0  0  0  0  0
   58.0564   29.3256   43.1013 H   0  0  0  0  0  0  0  0  0  0  0  0
   57.5990   27.4400   44.0310 C   0  0  0  0  0  0  0  0  0  0  0  0
   56.8549   26.6798   43.7510 H   0  0  0  0  0  0  0  0  0  0  0  0
   58.5928   27.2151   43.6166 H   0  0  0  0  0  0  0  0  0  0  0  0
   56.4530   24.7000   45.5580 C   0  0  0  0  0  0  0  0  0  0  0  0
  1  2  1  0
  2  3  2  0
  3  4  1  0
  4  5  1  0
  5  6  1  0
  5  7  2  0
  7  8  1  0
  8  9  1  0
  9 10  1  0
 10 11  1  0
 10 12  1  0
 12 13  1  0
 12 14  1  0
 12 15  1  0
 15 16  1  0
 15 17  1  0
 15 18  1  0
 18 19  1  0
 18 20  1  0
  9 21  2  0
 21 22  1  0
 21 23  1  0
 23 24  1  0
 24 25  1  0
 24 26  1  0
 24 27  1  0
 27 28  1  0
 28 29  1  0
 28 30  1  0
 28 31  1  0
 31 32  1  0
 31 33  1  0
 31 34  1  0
 34 35  1  0
 34 36  1  0
 36 37  1  0
 34 38  1  0
 38 39  1  0
 38 40  1  0
 38 41  1  0
 41 42  1  0
 41 43  1  0
 23 44  2  0
 44  3  1  0
 44  8  1  0
 18 10  1  0
 41 27  1  0
M  CHG  1   4  -1
M  END
>  <UniqueID>  (90) 
84

>  <SMILES>  (90) 
[H]/N=c1/[n-]cnn2c(C3CCC3)cc(CN3CCC(O)CC3)c12

>  <Energy>  (90) 
150.8237493774106

>  <Genealogy>  (90) 
N=c1[n-]cnn2c(C3CCC3)cc(CN3CCC(O)CC3)c12 (protonated)
[H]/N=c1/[n-]cnn2c(C3CCC3)cc(CN3CCC(O)CC3)c12 (cis-trans isomerization)
[H]/N=c1/[n-]cnn2c(C3CCC3)cc(CN3CCC(O)CC3)c12 (3D coordinates assigned)
[H]/N=c1/[n-]cnn2c(C3CCC3)cc(CN3CCC(O)CC3)c12 (nonaromatic ring conformer: 150.8237493774106 kcal/mol)

>  <smiles>  (90) 
N=c1[nH]cnn2c(C3CCC3)cc(CN3CCC(O)CC3)c12

>  <score_type>  (90) 
oracle

>  <origin>  (90) 
adg

>  <m_score__min__energy>  (90) 
-9.1799999999999997

>  <m_primary>  (90) 
energy

$$$$
90:0
     RDKit          3D

 40 41  0  0  0  0  0  0  0  0999 V2000
   59.5971   34.7067   43.6304 H   0  0  0  0  0  0  0  0  0  0  0  0
   59.1430   34.2180   44.5050 C   0  0  0  0  0  0  0  0  0  0  0  0
   58.2060   33.2490   44.3310 N   0  0  0  0  0  0  0  0  0  0  0  0
   57.6130   32.6070   45.3740 C   0  0  0  0  0  0  0  0  0  0  0  0
   56.7210   31.6940   45.1020 N   0  0  0  0  0  0  0  0  0  0  0  0
   56.6730   30.7440   44.0220 C   0  0  0  0  0  0  0  0  0  0  0  0
   57.4470   30.8330   43.0310 O   0  0  0  0  0  0  0  0  0  0  0  0
   55.5820   29.7200   44.0030 C   0  0  0  0  0  0  0  0  0  0  0  0
   55.7289   29.0496   43.1433 H   0  0  0  0  0  0  0  0  0  0  0  0
   54.6123   30.2328   43.9207 H   0  0  0  0  0  0  0  0  0  0  0  0
   55.6000   28.9350   45.2340 N   0  0  0  0  0  0  0  0  0  0  0  0
   56.6210   28.0060   45.6320 C   0  0  0  0  0  0  0  0  0  0  0  0
   56.3680   26.7740   45.5740 O   0  0  0  0  0  0  0  0  0  0  0  0
   57.9480   28.4380   46.1140 C   0  0  0  0  0  0  0  0  0  0  0  0
   58.9340   27.6580   46.0240 O   0  0  0  0  0  0  0  0  0  0  0  0
   58.1140   29.7550   46.6650 N   0  0  0  0  0  0  0  0  0  0  0  0
   57.3630   30.4600   46.4840 H   0  0  0  0  0  0  0  0  0  0  0  0
   59.3240   30.2070   47.2960 C   0  0  0  0  0  0  0  0  0  0  0  0
   59.4050   30.3650   48.6900 C   0  0  0  0  0  0  0  0  0  0  0  0
   58.5369   30.1213   49.3201 H   0  0  0  0  0  0  0  0  0  0  0  0
   60.5850   30.8310   49.2800 C   0  0  0  0  0  0  0  0  0  0  0  0
   60.6460   30.9340   50.3735 H   0  0  0  0  0  0  0  0  0  0  0  0
   61.6920   31.1680   48.4840 C   0  0  0  0  0  0  0  0  0  0  0  0
   62.9700   31.6340   49.1190 C   0  0  0  0  0  0  0  0  0  0  0  0
   62.8700   31.5975   50.2138 H   0  0  0  0  0  0  0  0  0  0  0  0
   63.7959   30.9792   48.8042 H   0  0  0  0  0  0  0  0  0  0  0  0
   63.1805   32.6668   48.8042 H   0  0  0  0  0  0  0  0  0  0  0  0
   61.6130   31.0080   47.0940 C   0  0  0  0  0  0  0  0  0  0  0  0
   62.4828   31.2470   46.4644 H   0  0  0  0  0  0  0  0  0  0  0  0
   60.4310   30.5450   46.5040 C   0  0  0  0  0  0  0  0  0  0  0  0
   60.3699   30.4455   45.4102 H   0  0  0  0  0  0  0  0  0  0  0  0
   57.9700   32.9740   46.6910 C   0  0  0  0  0  0  0  0  0  0  0  0
   57.4838   32.4901   47.5509 H   0  0  0  0  0  0  0  0  0  0  0  0
   58.9480   33.9590   46.8960 C   0  0  0  0  0  0  0  0  0  0  0  0
   59.3060   34.3890   48.2880 C   0  0  0  0  0  0  0  0  0  0  0  0
   58.7778   33.7546   49.0150 H   0  0  0  0  0  0  0  0  0  0  0  0
   60.3916   34.2892   48.4348 H   0  0  0  0  0  0  0  0  0  0  0  0
   59.0111   35.4385   48.4348 H   0  0  0  0  0  0  0  0  0  0  0  0
   59.5290   34.5930   45.7910 C   0  0  0  0  0  0  0  0  0  0  0  0
   60.2835   35.3802   45.9364 H   0  0  0  0  0  0  0  0  0  0  0  0
  1  2  1  0
  2  3  1  0
  3  4  1  0
  4  5  2  0
  5  6  1  0
  6  7  2  0
  6  8  1  0
  8  9  1  0
  8 10  1  0
  8 11  1  0
 11 12  1  0
 12 13  2  0
 12 14  1  0
 14 15  2  0
 14 16  1  0
 16 17  1  0
 16 18  1  0
 18 19  2  0
 19 20  1  0
 19 21  1  0
 21 22  1  0
 21 23  2  0
 23 24  1  0
 24 25  1  0
 24 26  1  0
 24 27  1  0
 23 28  1  0
 28 29  1  0
 28 30  2  0
 30 31  1  0
  4 32  1  0
 32 33  1  0
 32 34  2  0
 34 35  1  0
 35 36  1  0
 35 37  1  0
 35 38  1  0
 34 39  1  0
 39 40  1  0
 39  2  2  0
 30 18  1  0
M  CHG  2   3  -1  11  -1
M  END
>  <UniqueID>  (91) 
85

>  <SMILES>  (91) 
Cc1ccc(NC(=O)C(=O)[N-]CC(=O)/N=c2\cc(C)cc[n-]2)cc1

>  <Energy>  (91) 
49.421250845105796

>  <Genealogy>  (91) 
Cc1ccc(NC(=O)C(=O)[N-]CC(=O)N=c2cc(C)cc[n-]2)cc1 (protonated)
Cc1ccc(NC(=O)C(=O)[N-]CC(=O)/N=c2\cc(C)cc[n-]2)cc1 (cis-trans isomerization)
Cc1ccc(NC(=O)C(=O)[N-]CC(=O)/N=c2\cc(C)cc[n-]2)cc1 (3D coordinates assigned)
Cc1ccc(NC(=O)C(=O)[N-]CC(=O)/N=c2\cc(C)cc[n-]2)cc1 (optimized conformer: 49.421250845105796 kcal/mol)

>  <smiles>  (91) 
Cc1ccc(NC(=O)C(=O)NCC(=O)N=c2cc(C)cc[nH]2)cc1

>  <score_type>  (91) 
oracle

>  <origin>  (91) 
adg

>  <m_score__min__energy>  (91) 
-10.59

>  <m_primary>  (91) 
energy

$$$$
91:0
     RDKit          3D

 42 44  0  0  0  0  0  0  0  0999 V2000
   57.4890   27.4440   47.2920 O   0  0  0  0  0  0  0  0  0  0  0  0
   56.9040   27.1840   46.2080 C   0  0  0  0  0  0  0  0  0  0  0  0
   57.3860   27.8250   44.9300 C   0  0  0  0  0  0  0  0  0  0  0  0
   57.3940   29.3030   45.0380 N   0  0  0  0  0  0  0  0  0  0  0  0
   56.3280   30.0160   44.5390 C   0  0  0  0  0  0  0  0  0  0  0  0
   55.3680   29.4320   43.9690 O   0  0  0  0  0  0  0  0  0  0  0  0
   56.2900   31.3660   44.6460 N   0  0  0  0  0  0  0  0  0  0  0  0
   57.2870   32.0670   45.2290 C   0  0  0  0  0  0  0  0  0  0  0  0
   57.1920   33.3230   45.3070 O   0  0  0  0  0  0  0  0  0  0  0  0
   58.4090   31.3950   45.7260 C   0  0  0  0  0  0  0  0  0  0  0  0
   59.4760   32.0950   46.3190 C   0  0  0  0  0  0  0  0  0  0  0  0
   60.5950   31.4070   46.7870 C   0  0  0  0  0  0  0  0  0  0  0  0
   60.6650   30.0220   46.6650 C   0  0  0  0  0  0  0  0  0  0  0  0
   59.6130   29.3130   46.0820 C   0  0  0  0  0  0  0  0  0  0  0  0
   58.4570   29.9800   45.6100 C   0  0  0  0  0  0  0  0  0  0  0  0
   55.8460   26.2170   46.2150 N   0  0  0  0  0  0  0  0  0  0  0  0
   55.9800   24.7920   45.9090 C   0  0  0  0  0  0  0  0  0  0  0  0
   57.0300   24.5820   44.7780 C   0  0  0  0  0  0  0  0  0  0  0  0
   57.7650   23.2290   44.8010 C   0  0  0  0  0  0  0  0  0  0  0  0
   56.9650   22.0510   45.4100 C   0  0  0  0  0  0  0  0  0  0  0  0
   55.5170   21.8860   44.9110 C   0  0  0  0  0  0  0  0  0  0  0  0
   54.4770   22.6720   45.7250 C   0  0  0  0  0  0  0  0  0  0  0  0
   54.5790   24.2040   45.6270 C   0  0  0  0  0  0  0  0  0  0  0  0
   58.4072   27.4759   44.7171 H   0  0  0  0  0  0  0  0  0  0  0  0
   56.6999   27.5401   44.1187 H   0  0  0  0  0  0  0  0  0  0  0  0
   59.4272   33.1898   46.4138 H   0  0  0  0  0  0  0  0  0  0  0  0
   61.4239   31.9596   47.2534 H   0  0  0  0  0  0  0  0  0  0  0  0
   61.5526   29.4841   47.0294 H   0  0  0  0  0  0  0  0  0  0  0  0
   59.6835   28.2193   45.9880 H   0  0  0  0  0  0  0  0  0  0  0  0
   56.3774   24.2299   46.7670 H   0  0  0  0  0  0  0  0  0  0  0  0
   56.5105   24.6695   43.8123 H   0  0  0  0  0  0  0  0  0  0  0  0
   57.8026   25.3490   44.9359 H   0  0  0  0  0  0  0  0  0  0  0  0
   58.0229   22.9648   43.7648 H   0  0  0  0  0  0  0  0  0  0  0  0
   58.6410   23.3699   45.4513 H   0  0  0  0  0  0  0  0  0  0  0  0
   57.5075   21.1220   45.1806 H   0  0  0  0  0  0  0  0  0  0  0  0
   56.8840   22.2727   46.4844 H   0  0  0  0  0  0  0  0  0  0  0  0
   55.4704   22.2305   43.8674 H   0  0  0  0  0  0  0  0  0  0  0  0
   55.2645   20.8209   45.0198 H   0  0  0  0  0  0  0  0  0  0  0  0
   53.4775   22.3758   45.3738 H   0  0  0  0  0  0  0  0  0  0  0  0
   54.6683   22.4235   46.7793 H   0  0  0  0  0  0  0  0  0  0  0  0
   54.2849   24.4997   44.6091 H   0  0  0  0  0  0  0  0  0  0  0  0
   53.9181   24.6036   46.4103 H   0  0  0  0  0  0  0  0  0  0  0  0
  1  2  2  0
  2  3  1  0
  3  4  1  0
  4  5  1  0
  5  6  2  0
  5  7  1  0
  7  8  1  0
  8  9  2  0
  8 10  1  0
 10 11  2  0
 11 12  1  0
 12 13  2  0
 13 14  1  0
 14 15  2  0
  2 16  1  0
 16 17  1  0
 17 18  1  0
 18 19  1  0
 19 20  1  0
 20 21  1  0
 21 22  1  0
 22 23  1  0
 15  4  1  0
 23 17  1  0
 15 10  1  0
  3 24  1  0
  3 25  1  0
 11 26  1  0
 12 27  1  0
 13 28  1  0
 14 29  1  0
 17 30  1  0
 18 31  1  0
 18 32  1  0
 19 33  1  0
 19 34  1  0
 20 35  1  0
 20 36  1  0
 21 37  1  0
 21 38  1  0
 22 39  1  0
 22 40  1  0
 23 41  1  0
 23 42  1  0
M  CHG  2   7  -1  16  -1
M  END
>  <UniqueID>  (92) 
86

>  <SMILES>  (92) 
O=C(Cn1c(=O)[n-]c(=O)c2ccccc21)[N-]C1CCCCCC1

>  <Energy>  (92) 
61.09199276992424

>  <Genealogy>  (92) 
O=C(Cn1c(=O)[n-]c(=O)c2ccccc21)[N-]C1CCCCCC1 (protonated)
O=C(Cn1c(=O)[n-]c(=O)c2ccccc21)[N-]C1CCCCCC1 (3D coordinates assigned)
O=C(Cn1c(=O)[n-]c(=O)c2ccccc21)[N-]C1CCCCCC1 (nonaromatic ring conformer: 61.09199276992424 kcal/mol)

>  <smiles>  (92) 
O=C(Cn1c(=O)[nH]c(=O)c2ccccc21)NC1CCCCCC1

>  <score_type>  (92) 
oracle

>  <origin>  (92) 
adg

>  <m_score__min__energy>  (92) 
-8.6300000000000008

>  <m_primary>  (92) 
energy

$$$$
92:0
     RDKit          3D

 36 38  0  0  0  0  0  0  0  0999 V2000
   55.4890   29.0120   44.9610 N   0  0  0  0  0  0  0  0  0  0  0  0
   56.1970   30.0710   44.3120 C   0  0  0  0  0  0  0  0  0  0  0  0
   55.8950   30.3700   43.1260 O   0  0  0  0  0  0  0  0  0  0  0  0
   57.2760   30.8110   45.0150 C   0  0  0  0  0  0  0  0  0  0  0  0
   57.5490   32.1440   44.6560 C   0  0  0  0  0  0  0  0  0  0  0  0
   58.5500   32.8680   45.3080 C   0  0  0  0  0  0  0  0  0  0  0  0
   58.8690   34.5330   44.8530 Cl  0  0  0  0  0  0  0  0  0  0  0  0
   59.2830   32.2740   46.3350 C   0  0  0  0  0  0  0  0  0  0  0  0
   59.0270   30.9540   46.7060 C   0  0  0  0  0  0  0  0  0  0  0  0
   58.0390   30.2030   46.0420 C   0  0  0  0  0  0  0  0  0  0  0  0
   57.7730   28.8420   46.4160 N   0  0  0  0  0  0  0  0  0  0  0  0
   58.7150   27.7610   46.4330 C   0  0  0  0  0  0  0  0  0  0  0  0
   59.7350   27.8060   47.1730 O   0  0  0  0  0  0  0  0  0  0  0  0
   58.5400   26.6190   45.4780 C   0  0  0  0  0  0  0  0  0  0  0  0
   57.1420   26.0400   45.5040 C   0  0  0  0  0  0  0  0  0  0  0  0
   56.1130   26.7930   45.9830 N   0  0  0  0  0  0  0  0  0  0  0  0
   54.8620   26.3400   46.0350 N   0  0  0  0  0  0  0  0  0  0  0  0
   54.5340   25.0960   45.6080 C   0  0  0  0  0  0  0  0  0  0  0  0
   53.3340   24.7160   45.6780 O   0  0  0  0  0  0  0  0  0  0  0  0
   55.5350   24.2550   45.0980 C   0  0  0  0  0  0  0  0  0  0  0  0
   55.2370   22.9550   44.6430 C   0  0  0  0  0  0  0  0  0  0  0  0
   56.2480   22.1370   44.1370 C   0  0  0  0  0  0  0  0  0  0  0  0
   57.5620   22.6010   44.0780 C   0  0  0  0  0  0  0  0  0  0  0  0
   57.8750   23.8880   44.5250 C   0  0  0  0  0  0  0  0  0  0  0  0
   56.8670   24.7310   45.0400 C   0  0  0  0  0  0  0  0  0  0  0  0
   55.6230   28.8070   45.9750 H   0  0  0  0  0  0  0  0  0  0  0  0
   54.7680   28.4690   44.4370 H   0  0  0  0  0  0  0  0  0  0  0  0
   56.9678   32.6211   43.8531 H   0  0  0  0  0  0  0  0  0  0  0  0
   60.0650   32.8479   46.8538 H   0  0  0  0  0  0  0  0  0  0  0  0
   59.6021   30.4961   47.5243 H   0  0  0  0  0  0  0  0  0  0  0  0
   58.7531   26.9768   44.4599 H   0  0  0  0  0  0  0  0  0  0  0  0
   59.2336   25.8222   45.7848 H   0  0  0  0  0  0  0  0  0  0  0  0
   54.2026   22.5833   44.6869 H   0  0  0  0  0  0  0  0  0  0  0  0
   56.0080   21.1233   43.7836 H   0  0  0  0  0  0  0  0  0  0  0  0
   58.3549   21.9518   43.6782 H   0  0  0  0  0  0  0  0  0  0  0  0
   58.9139   24.2461   44.4750 H   0  0  0  0  0  0  0  0  0  0  0  0
  1  2  1  0
  2  3  2  0
  2  4  1  0
  4  5  2  0
  5  6  1  0
  6  7  1  0
  6  8  2  0
  8  9  1  0
  9 10  2  0
 10 11  1  0
 11 12  1  0
 12 13  2  0
 12 14  1  0
 14 15  1  0
 15 16  2  0
 16 17  1  0
 17 18  1  0
 18 19  2  0
 18 20  1  0
 20 21  2  0
 21 22  1  0
 22 23  2  0
 23 24  1  0
 24 25  2  0
 10  4  1  0
 25 15  1  0
 25 20  1  0
  1 26  1  0
  1 27  1  0
  5 28  1  0
  8 29  1  0
  9 30  1  0
 14 31  1  0
 14 32  1  0
 21 33  1  0
 22 34  1  0
 23 35  1  0
 24 36  1  0
M  CHG  2  11  -1  17  -1
M  END
>  <UniqueID>  (93) 
87

>  <SMILES>  (93) 
NC(=O)c1cc(Cl)ccc1[N-]C(=O)Cc1n[n-]c(=O)c2ccccc12

>  <Energy>  (93) 
52.74088044827656

>  <Genealogy>  (93) 
NC(=O)c1cc(Cl)ccc1[N-]C(=O)Cc1n[n-]c(=O)c2ccccc12 (protonated)
NC(=O)c1cc(Cl)ccc1[N-]C(=O)Cc1n[n-]c(=O)c2ccccc12 (3D coordinates assigned)
NC(=O)c1cc(Cl)ccc1[N-]C(=O)Cc1n[n-]c(=O)c2ccccc12 (optimized conformer: 52.74088044827656 kcal/mol)

>  <smiles>  (93) 
NC(=O)c1cc(Cl)ccc1NC(=O)Cc1n[nH]c(=O)c2ccccc12

>  <score_type>  (93) 
oracle

>  <origin>  (93) 
adg

>  <m_score__min__energy>  (93) 
-13

>  <m_primary>  (93) 
energy

$$$$
