0:0
     RDKit          3D

 44 46  0  0  0  0  0  0  0  0999 V2000
   58.1530   32.3720   41.2640 C   0  0  0  0  0  0  0  0  0  0  0  0
   57.5780   31.8510   42.5420 C   0  0  0  0  0  0  0  0  0  0  0  0
   57.7640   32.5500   43.7390 C   0  0  0  0  0  0  0  0  0  0  0  0
   57.1430   32.0740   44.9000 C   0  0  0  0  0  0  0  0  0  0  0  0
   57.3270   32.8030   46.2050 C   0  0  0  0  0  0  0  0  0  0  0  0
   58.7770   33.1210   46.4910 C   0  0  0  0  0  0  0  0  0  0  0  0
   59.3640   34.2200   45.8400 C   0  0  0  0  0  0  0  0  0  0  0  0
   60.6850   34.5840   46.1080 C   0  0  0  0  0  0  0  0  0  0  0  0
   61.4360   33.8560   47.0300 C   0  0  0  0  0  0  0  0  0  0  0  0
   60.8760   32.7510   47.6690 C   0  0  0  0  0  0  0  0  0  0  0  0
   59.5620   32.3550   47.3900 C   0  0  0  0  0  0  0  0  0  0  0  0
   58.9170   30.9100   48.2580 S   0  0  0  0  0  0  0  0  0  0  0  0
   59.0630   29.8170   46.8400 C   0  0  0  0  0  0  0  0  0  0  0  0
   60.2410   29.8110   46.0870 C   0  0  0  0  0  0  0  0  0  0  0  0
   60.3690   28.9540   44.9920 C   0  0  0  0  0  0  0  0  0  0  0  0
   59.3080   28.1190   44.6290 C   0  0  0  0  0  0  0  0  0  0  0  0
   58.1050   28.1460   45.3460 C   0  0  0  0  0  0  0  0  0  0  0  0
   57.0350   27.2960   44.9120 N   0  0  0  0  0  0  0  0  0  0  0  0
   56.3280   25.9930   45.8130 S   0  0  0  0  0  0  0  0  0  0  0  0
   54.8630   26.2740   45.9880 O   0  0  0  0  0  0  0  0  0  0  0  0
   56.9580   25.8990   47.1750 O   0  0  0  0  0  0  0  0  0  0  0  0
   56.5100   24.4530   44.9340 C   0  0  0  0  0  0  0  0  0  0  0  0
   57.0300   24.6790   43.6730 F   0  0  0  0  0  0  0  0  0  0  0  0
   57.3620   23.6230   45.6350 F   0  0  0  0  0  0  0  0  0  0  0  0
   55.2760   23.8430   44.8130 F   0  0  0  0  0  0  0  0  0  0  0  0
   57.9860   29.0060   46.4540 C   0  0  0  0  0  0  0  0  0  0  0  0
   56.4150   30.9260   44.8420 N   0  0  0  0  0  0  0  0  0  0  0  0
   56.2440   30.2580   43.6710 C   0  0  0  0  0  0  0  0  0  0  0  0
   56.8160   30.7260   42.5320 N   0  0  0  0  0  0  0  0  0  0  0  0
   58.9509   33.0950   41.4888 H   0  0  0  0  0  0  0  0  0  0  0  0
   58.5686   31.5366   40.6815 H   0  0  0  0  0  0  0  0  0  0  0  0
   57.3625   32.8677   40.6815 H   0  0  0  0  0  0  0  0  0  0  0  0
   58.3864   33.4565   43.7677 H   0  0  0  0  0  0  0  0  0  0  0  0
   56.7603   33.7450   46.1658 H   0  0  0  0  0  0  0  0  0  0  0  0
   56.9640   32.1459   47.0090 H   0  0  0  0  0  0  0  0  0  0  0  0
   58.7767   34.7990   45.1121 H   0  0  0  0  0  0  0  0  0  0  0  0
   61.1335   35.4455   45.5915 H   0  0  0  0  0  0  0  0  0  0  0  0
   62.4711   34.1539   47.2533 H   0  0  0  0  0  0  0  0  0  0  0  0
   61.4720   32.1845   48.3996 H   0  0  0  0  0  0  0  0  0  0  0  0
   61.0688   30.4829   46.3578 H   0  0  0  0  0  0  0  0  0  0  0  0
   61.3051   28.9358   44.4147 H   0  0  0  0  0  0  0  0  0  0  0  0
   59.4188   27.4358   43.7740 H   0  0  0  0  0  0  0  0  0  0  0  0
   57.0434   29.0421   47.0199 H   0  0  0  0  0  0  0  0  0  0  0  0
   55.6419   29.3377   43.6459 H   0  0  0  0  0  0  0  0  0  0  0  0
  1  2  1  0
  2  3  2  0
  3  4  1  0
  4  5  1  0
  5  6  1  0
  6  7  2  0
  7  8  1  0
  8  9  2  0
  9 10  1  0
 10 11  2  0
 11 12  1  0
 12 13  1  0
 13 14  2  0
 14 15  1  0
 15 16  2  0
 16 17  1  0
 17 18  1  0
 18 19  1  0
 19 20  2  0
 19 21  2  0
 19 22  1  0
 22 23  1  0
 22 24  1  0
 22 25  1  0
 17 26  2  0
  4 27  2  0
 27 28  1  0
 28 29  2  0
 29  2  1  0
 11  6  1  0
 26 13  1  0
  1 30  1  0
  1 31  1  0
  1 32  1  0
  3 33  1  0
  5 34  1  0
  5 35  1  0
  7 36  1  0
  8 37  1  0
  9 38  1  0
 10 39  1  0
 14 40  1  0
 15 41  1  0
 16 42  1  0
 26 43  1  0
 28 44  1  0
M  CHG  1  18  -1
M  END
>  <UniqueID>  (1) 
1

>  <SMILES>  (1) 
Cc1cc(Cc2ccccc2Sc2cccc([N-]S(=O)(=O)C(F)(F)F)c2)ncn1

>  <Energy>  (1) 
40.51149372791445

>  <Genealogy>  (1) 
Cc1cc(Cc2ccccc2Sc2cccc([N-]S(=O)(=O)C(F)(F)F)c2)ncn1 (protonated)
Cc1cc(Cc2ccccc2Sc2cccc([N-]S(=O)(=O)C(F)(F)F)c2)ncn1 (3D coordinates assigned)
Cc1cc(Cc2ccccc2Sc2cccc([N-]S(=O)(=O)C(F)(F)F)c2)ncn1 (optimized conformer: 40.51149372791445 kcal/mol)

>  <smiles>  (1) 
Cc1cc(Cc2ccccc2Sc2cccc(NS(=O)(=O)C(F)(F)F)c2)ncn1

>  <score_type>  (1) 
oracle

>  <origin>  (1) 
adg

>  <m_score__min__energy>  (1) 
-10.33

>  <m_primary>  (1) 
energy

$$$$
1:0
     RDKit          3D

 42 43  0  0  0  0  0  0  0  0999 V2000
   51.0110   32.3230   50.1410 N   0  0  0  0  0  0  0  0  0  0  0  0
   51.2350   32.1850   51.5430 C   0  0  0  0  0  0  0  0  0  0  0  0
   50.4030   32.6820   52.3500 O   0  0  0  0  0  0  0  0  0  0  0  0
   52.4310   31.4690   52.0470 C   0  0  0  0  0  0  0  0  0  0  0  0
   52.5300   31.1110   53.4050 C   0  0  0  0  0  0  0  0  0  0  0  0
   53.6630   30.4450   53.8840 C   0  0  0  0  0  0  0  0  0  0  0  0
   54.7120   30.1140   53.0120 C   0  0  0  0  0  0  0  0  0  0  0  0
   55.9400   29.4060   53.5240 C   0  0  0  0  0  0  0  0  0  0  0  0
   56.8730   29.0480   52.3900 C   0  0  0  0  0  0  0  0  0  0  0  0
   57.8070   29.8220   51.9390 N   0  0  0  0  0  0  0  0  0  0  0  0
   57.6550   30.8220   50.9000 C   0  0  0  0  0  0  0  0  0  0  0  0
   58.9880   31.0880   50.1890 C   0  0  0  0  0  0  0  0  0  0  0  0
   58.8520   30.9780   48.6650 C   0  0  0  0  0  0  0  0  0  0  0  0
   59.0460   29.5560   48.2210 C   0  0  0  0  0  0  0  0  0  0  0  0
   59.6680   28.6220   48.9590 N   0  0  0  0  0  0  0  0  0  0  0  0
   59.5590   27.4890   48.2400 C   0  0  0  0  0  0  0  0  0  0  0  0
   60.0290   26.3840   48.6210 O   0  0  0  0  0  0  0  0  0  0  0  0
   58.8940   27.6420   47.0760 N   0  0  0  0  0  0  0  0  0  0  0  0
   58.5710   28.9530   47.0660 C   0  0  0  0  0  0  0  0  0  0  0  0
   57.7790   29.5960   45.9670 C   0  0  0  0  0  0  0  0  0  0  0  0
   56.6130   28.7410   45.5870 C   0  0  0  0  0  0  0  0  0  0  0  0
   56.7170   27.4850   45.6040 O   0  0  0  0  0  0  0  0  0  0  0  0
   55.4080   29.3280   45.2190 O   0  0  0  0  0  0  0  0  0  0  0  0
   54.6180   30.4740   51.6580 C   0  0  0  0  0  0  0  0  0  0  0  0
   53.4880   31.1440   51.1780 C   0  0  0  0  0  0  0  0  0  0  0  0
   50.0430   32.3230   49.7490 H   0  0  0  0  0  0  0  0  0  0  0  0
   51.7095   31.3571   54.0951 H   0  0  0  0  0  0  0  0  0  0  0  0
   53.7323   30.1794   54.9492 H   0  0  0  0  0  0  0  0  0  0  0  0
   56.4675   30.0655   54.2289 H   0  0  0  0  0  0  0  0  0  0  0  0
   55.6257   28.4783   54.0246 H   0  0  0  0  0  0  0  0  0  0  0  0
   56.7498   28.0630   51.9160 H   0  0  0  0  0  0  0  0  0  0  0  0
   56.9200   30.4656   50.1633 H   0  0  0  0  0  0  0  0  0  0  0  0
   57.3142   31.7590   51.3646 H   0  0  0  0  0  0  0  0  0  0  0  0
   59.3315   32.1015   50.4437 H   0  0  0  0  0  0  0  0  0  0  0  0
   59.7115   30.3299   50.5236 H   0  0  0  0  0  0  0  0  0  0  0  0
   57.8494   31.3172   48.3656 H   0  0  0  0  0  0  0  0  0  0  0  0
   59.6215   31.6064   48.1928 H   0  0  0  0  0  0  0  0  0  0  0  0
   60.1210   28.7420   49.8940 H   0  0  0  0  0  0  0  0  0  0  0  0
   57.4126   30.5746   46.3107 H   0  0  0  0  0  0  0  0  0  0  0  0
   58.4288   29.7195   45.0880 H   0  0  0  0  0  0  0  0  0  0  0  0
   55.4395   30.2271   50.9694 H   0  0  0  0  0  0  0  0  0  0  0  0
   53.4256   31.4184   50.1146 H   0  0  0  0  0  0  0  0  0  0  0  0
  1  2  1  0
  2  3  2  0
  2  4  1  0
  4  5  2  0
  5  6  1  0
  6  7  2  0
  7  8  1  0
  8  9  1  0
  9 10  2  3
 10 11  1  0
 11 12  1  0
 12 13  1  0
 13 14  1  0
 14 15  1  0
 15 16  1  0
 16 17  2  0
 16 18  1  0
 18 19  1  0
 19 20  1  0
 20 21  1  0
 21 22  2  0
 21 23  1  0
  7 24  1  0
 24 25  2  0
 25  4  1  0
 19 14  2  0
  1 26  1  0
  5 27  1  0
  6 28  1  0
  8 29  1  0
  8 30  1  0
  9 31  1  0
 11 32  1  0
 11 33  1  0
 12 34  1  0
 12 35  1  0
 13 36  1  0
 13 37  1  0
 15 38  1  0
 20 39  1  0
 20 40  1  0
 24 41  1  0
 25 42  1  0
M  CHG  3   1  -1  18  -1  23  -1
M  END
>  <UniqueID>  (2) 
2

>  <SMILES>  (2) 
[NH-]C(=O)c1ccc(CC=NCCCc2[nH]c(=O)[n-]c2CC(=O)[O-])cc1

>  <Energy>  (2) 
65.12696075607862

>  <Genealogy>  (2) 
[NH-]C(=O)c1ccc(CC=NCCCc2[nH]c(=O)[n-]c2CC(=O)[O-])cc1 (protonated)
[NH-]C(=O)c1ccc(CC=NCCCc2[nH]c(=O)[n-]c2CC(=O)[O-])cc1 (3D coordinates assigned)
[NH-]C(=O)c1ccc(CC=NCCCc2[nH]c(=O)[n-]c2CC(=O)[O-])cc1 (optimized conformer: 65.12696075607862 kcal/mol)

>  <smiles>  (2) 
NC(=O)c1ccc(CC=NCCCc2[nH]c(=O)[nH]c2CC(=O)O)cc1

>  <score_type>  (2) 
oracle

>  <origin>  (2) 
adg

>  <m_score__min__energy>  (2) 
-14.15

>  <m_primary>  (2) 
energy

$$$$
2:0
     RDKit          3D

 40 42  0  0  0  0  0  0  0  0999 V2000
   58.1570   33.9650   53.1890 O   0  0  0  0  0  0  0  0  0  0  0  0
   57.8490   32.8540   52.6810 C   0  0  0  0  0  0  0  0  0  0  0  0
   58.0850   32.6160   51.2230 C   0  0  0  0  0  0  0  0  0  0  0  0
   58.8580   31.3120   51.0130 C   0  0  0  0  0  0  0  0  0  0  0  0
   58.8640   30.9290   49.5570 C   0  0  0  0  0  0  0  0  0  0  0  0
   58.8730   31.9210   48.5630 C   0  0  0  0  0  0  0  0  0  0  0  0
   58.9120   31.5650   47.2110 C   0  0  0  0  0  0  0  0  0  0  0  0
   58.9490   30.2160   46.8440 C   0  0  0  0  0  0  0  0  0  0  0  0
   58.9540   29.2240   47.8280 C   0  0  0  0  0  0  0  0  0  0  0  0
   58.9160   29.5760   49.1800 C   0  0  0  0  0  0  0  0  0  0  0  0
   57.2820   31.8100   53.4820 N   0  0  0  0  0  0  0  0  0  0  0  0
   56.2510   30.8950   53.0810 C   0  0  0  0  0  0  0  0  0  0  0  0
   56.2990   29.5800   53.5580 C   0  0  0  0  0  0  0  0  0  0  0  0
   55.3190   28.6560   53.1850 C   0  0  0  0  0  0  0  0  0  0  0  0
   54.2940   29.0340   52.3150 C   0  0  0  0  0  0  0  0  0  0  0  0
   54.2530   30.3360   51.7950 C   0  0  0  0  0  0  0  0  0  0  0  0
   53.1430   30.7510   50.8700 C   0  0  0  0  0  0  0  0  0  0  0  0
   52.0880   31.4910   51.6330 C   0  0  0  0  0  0  0  0  0  0  0  0
   51.8690   31.3470   52.9510 N   0  0  0  0  0  0  0  0  0  0  0  0
   50.7970   32.1380   53.1760 C   0  0  0  0  0  0  0  0  0  0  0  0
   50.2850   32.2760   54.3170 O   0  0  0  0  0  0  0  0  0  0  0  0
   50.3150   32.7640   52.0820 N   0  0  0  0  0  0  0  0  0  0  0  0
   51.1390   32.3380   51.1130 C   0  0  0  0  0  0  0  0  0  0  0  0
   51.0240   32.7100   49.7790 O   0  0  0  0  0  0  0  0  0  0  0  0
   55.2330   31.2660   52.1830 C   0  0  0  0  0  0  0  0  0  0  0  0
   57.1167   32.5507   50.7051 H   0  0  0  0  0  0  0  0  0  0  0  0
   58.6758   33.4501   50.8166 H   0  0  0  0  0  0  0  0  0  0  0  0
   59.8945   31.4468   51.3558 H   0  0  0  0  0  0  0  0  0  0  0  0
   58.3683   30.5125   51.5883 H   0  0  0  0  0  0  0  0  0  0  0  0
   58.8493   32.9829   48.8491 H   0  0  0  0  0  0  0  0  0  0  0  0
   58.9136   32.3460   46.4364 H   0  0  0  0  0  0  0  0  0  0  0  0
   58.9742   29.9359   45.7806 H   0  0  0  0  0  0  0  0  0  0  0  0
   58.9879   28.1635   47.5379 H   0  0  0  0  0  0  0  0  0  0  0  0
   58.9268   28.7918   49.9513 H   0  0  0  0  0  0  0  0  0  0  0  0
   57.1131   29.2719   54.2306 H   0  0  0  0  0  0  0  0  0  0  0  0
   55.3551   27.6290   53.5774 H   0  0  0  0  0  0  0  0  0  0  0  0
   53.5160   28.3080   52.0365 H   0  0  0  0  0  0  0  0  0  0  0  0
   53.5494   31.4043   50.0839 H   0  0  0  0  0  0  0  0  0  0  0  0
   52.6971   29.8534   50.4166 H   0  0  0  0  0  0  0  0  0  0  0  0
   55.2040   32.2900   51.7823 H   0  0  0  0  0  0  0  0  0  0  0  0
  1  2  2  0
  2  3  1  0
  3  4  1  0
  4  5  1  0
  5  6  2  0
  6  7  1  0
  7  8  2  0
  8  9  1  0
  9 10  2  0
  2 11  1  0
 11 12  1  0
 12 13  2  0
 13 14  1  0
 14 15  2  0
 15 16  1  0
 16 17  1  0
 17 18  1  0
 18 19  1  0
 19 20  1  0
 20 21  2  0
 20 22  1  0
 22 23  1  0
 23 24  1  0
 16 25  2  0
 10  5  1  0
 25 12  1  0
 23 18  2  0
  3 26  1  0
  3 27  1  0
  4 28  1  0
  4 29  1  0
  6 30  1  0
  7 31  1  0
  8 32  1  0
  9 33  1  0
 10 34  1  0
 13 35  1  0
 14 36  1  0
 15 37  1  0
 17 38  1  0
 17 39  1  0
 25 40  1  0
M  CHG  4  11  -1  19  -1  22  -1  24  -1
M  END
>  <UniqueID>  (3) 
3

>  <SMILES>  (3) 
O=C(CCc1ccccc1)[N-]c1cccc(Cc2[n-]c(=O)[n-]c2[O-])c1

>  <Energy>  (3) 
69.33016522386558

>  <Genealogy>  (3) 
O=C(CCc1ccccc1)[N-]c1cccc(Cc2[n-]c(=O)[n-]c2[O-])c1 (protonated)
O=C(CCc1ccccc1)[N-]c1cccc(Cc2[n-]c(=O)[n-]c2[O-])c1 (3D coordinates assigned)
O=C(CCc1ccccc1)[N-]c1cccc(Cc2[n-]c(=O)[n-]c2[O-])c1 (optimized conformer: 69.33016522386558 kcal/mol)

>  <smiles>  (3) 
O=C(CCc1ccccc1)Nc1cccc(Cc2[nH]c(=O)[nH]c2O)c1

>  <score_type>  (3) 
oracle

>  <origin>  (3) 
adg

>  <m_score__min__energy>  (3) 
-18.16

>  <m_primary>  (3) 
energy

$$$$
3:0
     RDKit          3D

 55 58  0  0  0  0  0  0  0  0999 V2000
   58.0480   28.7790   44.2140 O   0  0  0  0  0  0  0  0  0  0  0  0
   57.1600   28.3590   45.0020 C   0  0  0  0  0  0  0  0  0  0  0  0
   55.8820   29.0090   45.0180 N   0  0  0  0  0  0  0  0  0  0  0  0
   55.4370   30.0110   44.0530 C   0  0  0  0  0  0  0  0  0  0  0  0
   56.5380   30.9820   43.7730 C   0  0  0  0  0  0  0  0  0  0  0  0
   57.0400   31.2870   42.5220 C   0  0  0  0  0  0  0  0  0  0  0  0
   58.0520   32.1960   42.7440 C   0  0  0  0  0  0  0  0  0  0  0  0
   58.1070   32.3850   44.1140 C   0  0  0  0  0  0  0  0  0  0  0  0
   57.1910   31.6470   44.7000 O   0  0  0  0  0  0  0  0  0  0  0  0
   57.4740   27.2330   45.9040 C   0  0  0  0  0  0  0  0  0  0  0  0
   56.9880   25.9610   45.5630 C   0  0  0  0  0  0  0  0  0  0  0  0
   57.2970   24.8500   46.3480 C   0  0  0  0  0  0  0  0  0  0  0  0
   58.0850   24.9990   47.4890 C   0  0  0  0  0  0  0  0  0  0  0  0
   58.5650   26.2580   47.8510 C   0  0  0  0  0  0  0  0  0  0  0  0
   58.2660   27.3930   47.0730 C   0  0  0  0  0  0  0  0  0  0  0  0
   58.7450   28.7250   47.5300 C   0  0  0  0  0  0  0  0  0  0  0  0
   59.4050   28.8180   48.6000 O   0  0  0  0  0  0  0  0  0  0  0  0
   58.4340   29.9070   46.7720 N   0  0  0  0  0  0  0  0  0  0  0  0
   59.0270   31.1970   47.0110 C   0  0  0  0  0  0  0  0  0  0  0  0
   58.1960   32.3020   47.2560 C   0  0  0  0  0  0  0  0  0  0  0  0
   58.7450   33.5670   47.4830 C   0  0  0  0  0  0  0  0  0  0  0  0
   60.1300   33.7440   47.4570 C   0  0  0  0  0  0  0  0  0  0  0  0
   60.9730   32.6580   47.1850 C   0  0  0  0  0  0  0  0  0  0  0  0
   62.7190   32.8910   47.1490 S   0  0  0  0  0  0  0  0  0  0  0  0
   63.3710   31.5570   46.9150 O   0  0  0  0  0  0  0  0  0  0  0  0
   63.0800   33.8210   46.0240 O   0  0  0  0  0  0  0  0  0  0  0  0
   63.2480   33.5630   48.6780 N   0  0  0  0  0  0  0  0  0  0  0  0
   64.5890   33.0670   49.0620 C   0  0  0  0  0  0  0  0  0  0  0  0
   64.5300   31.9440   50.1140 C   0  0  0  0  0  0  0  0  0  0  0  0
   63.3820   31.1510   49.9150 O   0  0  0  0  0  0  0  0  0  0  0  0
   62.2120   31.8870   50.2310 C   0  0  0  0  0  0  0  0  0  0  0  0
   62.2470   33.3550   49.7410 C   0  0  0  0  0  0  0  0  0  0  0  0
   60.4200   31.3900   46.9560 C   0  0  0  0  0  0  0  0  0  0  0  0
   55.1469   29.5107   43.1173 H   0  0  0  0  0  0  0  0  0  0  0  0
   54.5765   30.5544   44.4705 H   0  0  0  0  0  0  0  0  0  0  0  0
   56.7031   30.8885   41.5537 H   0  0  0  0  0  0  0  0  0  0  0  0
   58.6880   32.6749   41.9850 H   0  0  0  0  0  0  0  0  0  0  0  0
   58.8108   33.0519   44.6336 H   0  0  0  0  0  0  0  0  0  0  0  0
   56.3583   25.8393   44.6694 H   0  0  0  0  0  0  0  0  0  0  0  0
   56.9190   23.8560   46.0669 H   0  0  0  0  0  0  0  0  0  0  0  0
   58.3288   24.1212   48.1054 H   0  0  0  0  0  0  0  0  0  0  0  0
   59.1838   26.3652   48.7541 H   0  0  0  0  0  0  0  0  0  0  0  0
   57.6360   29.8580   46.0990 H   0  0  0  0  0  0  0  0  0  0  0  0
   57.1039   32.1709   47.2694 H   0  0  0  0  0  0  0  0  0  0  0  0
   58.0853   34.4244   47.6824 H   0  0  0  0  0  0  0  0  0  0  0  0
   60.5601   34.7378   47.6504 H   0  0  0  0  0  0  0  0  0  0  0  0
   65.0917   32.6807   48.1631 H   0  0  0  0  0  0  0  0  0  0  0  0
   65.1394   33.9093   49.5065 H   0  0  0  0  0  0  0  0  0  0  0  0
   65.4271   31.3139   50.0236 H   0  0  0  0  0  0  0  0  0  0  0  0
   64.4865   32.3935   51.1170 H   0  0  0  0  0  0  0  0  0  0  0  0
   61.3506   31.3861   49.7650 H   0  0  0  0  0  0  0  0  0  0  0  0
   62.1383   31.9167   51.3281 H   0  0  0  0  0  0  0  0  0  0  0  0
   61.2541   33.6218   49.3499 H   0  0  0  0  0  0  0  0  0  0  0  0
   62.5242   33.9900   50.5953 H   0  0  0  0  0  0  0  0  0  0  0  0
   61.0802   30.5393   46.7316 H   0  0  0  0  0  0  0  0  0  0  0  0
  1  2  2  0
  2  3  1  0
  3  4  1  0
  4  5  1  0
  5  6  2  0
  6  7  1  0
  7  8  2  0
  8  9  1  0
  2 10  1  0
 10 11  2  0
 11 12  1  0
 12 13  2  0
 13 14  1  0
 14 15  2  0
 15 16  1  0
 16 17  2  0
 16 18  1  0
 18 19  1  0
 19 20  2  0
 20 21  1  0
 21 22  2  0
 22 23  1  0
 23 24  1  0
 24 25  2  0
 24 26  2  0
 24 27  1  0
 27 28  1  0
 28 29  1  0
 29 30  1  0
 30 31  1  0
 31 32  1  0
 23 33  2  0
  9  5  1  0
 15 10  1  0
 33 19  1  0
 32 27  1  0
  4 34  1  0
  4 35  1  0
  6 36  1  0
  7 37  1  0
  8 38  1  0
 11 39  1  0
 12 40  1  0
 13 41  1  0
 14 42  1  0
 18 43  1  0
 20 44  1  0
 21 45  1  0
 22 46  1  0
 28 47  1  0
 28 48  1  0
 29 49  1  0
 29 50  1  0
 31 51  1  0
 31 52  1  0
 32 53  1  0
 32 54  1  0
 33 55  1  0
M  CHG  1   3  -1
M  END
>  <UniqueID>  (4) 
4

>  <SMILES>  (4) 
O=C([N-]Cc1ccco1)c1ccccc1C(=O)Nc1cccc(S(=O)(=O)N2CCOCC2)c1

>  <Energy>  (4) 
105.75806458625516

>  <Genealogy>  (4) 
O=C([N-]Cc1ccco1)c1ccccc1C(=O)Nc1cccc(S(=O)(=O)N2CCOCC2)c1 (protonated)
O=C([N-]Cc1ccco1)c1ccccc1C(=O)Nc1cccc(S(=O)(=O)N2CCOCC2)c1 (3D coordinates assigned)
O=C([N-]Cc1ccco1)c1ccccc1C(=O)Nc1cccc(S(=O)(=O)N2CCOCC2)c1 (nonaromatic ring conformer: 105.75806458625516 kcal/mol)

>  <smiles>  (4) 
O=C(NCc1ccco1)c1ccccc1C(=O)Nc1cccc(S(=O)(=O)N2CCOCC2)c1

>  <score_type>  (4) 
oracle

>  <origin>  (4) 
adg

>  <m_score__min__energy>  (4) 
-11.09

>  <m_primary>  (4) 
energy

$$$$
4:0
     RDKit          3D

 54 58  0  0  0  0  0  0  0  0999 V2000
   56.8981   31.8768   44.5391 H   0  0  0  0  0  0  0  0  0  0  0  0
   57.1040   30.8580   44.1790 C   0  0  0  0  0  0  0  0  0  0  0  0
   58.0880   30.0840   44.7980 C   0  0  0  0  0  0  0  0  0  0  0  0
   58.6556   30.4936   45.6465 H   0  0  0  0  0  0  0  0  0  0  0  0
   58.3530   28.7890   44.3410 C   0  0  0  0  0  0  0  0  0  0  0  0
   59.1234   28.1795   44.8359 H   0  0  0  0  0  0  0  0  0  0  0  0
   57.6380   28.2650   43.2520 C   0  0  0  0  0  0  0  0  0  0  0  0
   57.9140   26.8700   42.7550 C   0  0  0  0  0  0  0  0  0  0  0  0
   58.8829   26.8571   42.2343 H   0  0  0  0  0  0  0  0  0  0  0  0
   57.1079   26.5731   42.0679 H   0  0  0  0  0  0  0  0  0  0  0  0
   57.9540   25.9460   43.8430 O   0  0  0  0  0  0  0  0  0  0  0  0
   57.0810   24.8580   44.0270 C   0  0  0  0  0  0  0  0  0  0  0  0
   56.9940   23.8080   43.0910 C   0  0  0  0  0  0  0  0  0  0  0  0
   57.6096   23.8363   42.1798 H   0  0  0  0  0  0  0  0  0  0  0  0
   56.1320   22.7320   43.3120 C   0  0  0  0  0  0  0  0  0  0  0  0
   56.0750   21.9151   42.5775 H   0  0  0  0  0  0  0  0  0  0  0  0
   55.3440   22.6900   44.4600 C   0  0  0  0  0  0  0  0  0  0  0  0
   54.6645   21.8417   44.6294 H   0  0  0  0  0  0  0  0  0  0  0  0
   55.4160   23.7230   45.3950 C   0  0  0  0  0  0  0  0  0  0  0  0
   54.7876   23.6868   46.2971 H   0  0  0  0  0  0  0  0  0  0  0  0
   56.2850   24.8100   45.1940 C   0  0  0  0  0  0  0  0  0  0  0  0
   56.3390   25.9000   46.1990 C   0  0  0  0  0  0  0  0  0  0  0  0
   55.3750   26.7050   46.2940 O   0  0  0  0  0  0  0  0  0  0  0  0
   57.4300   26.0270   47.1200 N   0  0  0  0  0  0  0  0  0  0  0  0
   58.4200   27.0660   47.1250 C   0  0  0  0  0  0  0  0  0  0  0  0
   59.6530   26.8300   46.5060 C   0  0  0  0  0  0  0  0  0  0  0  0
   59.8422   25.8637   46.0156 H   0  0  0  0  0  0  0  0  0  0  0  0
   60.6450   27.8140   46.5070 C   0  0  0  0  0  0  0  0  0  0  0  0
   61.5995   27.6311   45.9918 H   0  0  0  0  0  0  0  0  0  0  0  0
   60.4270   29.0340   47.1630 C   0  0  0  0  0  0  0  0  0  0  0  0
   61.4140   30.0690   47.1260 N   0  0  0  0  0  0  0  0  0  0  0  0
   61.3180   31.2370   47.6930 C   0  0  0  0  0  0  0  0  0  0  0  0
   62.1220   31.6820   48.8240 C   0  0  0  0  0  0  0  0  0  0  0  0
   63.0330   31.0170   49.3830 O   0  0  0  0  0  0  0  0  0  0  0  0
   61.7260   32.9850   49.2370 N   0  0  0  0  0  0  0  0  0  0  0  0
   62.1320   33.5600   50.0080 H   0  0  0  0  0  0  0  0  0  0  0  0
   60.6910   33.3560   48.3290 C   0  0  0  0  0  0  0  0  0  0  0  0
   60.0430   34.5890   48.2890 C   0  0  0  0  0  0  0  0  0  0  0  0
   60.2579   35.3621   49.0414 H   0  0  0  0  0  0  0  0  0  0  0  0
   59.1100   34.8220   47.2670 C   0  0  0  0  0  0  0  0  0  0  0  0
   58.5692   35.7791   47.2278 H   0  0  0  0  0  0  0  0  0  0  0  0
   58.8620   33.8360   46.2900 C   0  0  0  0  0  0  0  0  0  0  0  0
   57.6280   34.1890   44.8760 Br  0  0  0  0  0  0  0  0  0  0  0  0
   59.5340   32.6030   46.3370 C   0  0  0  0  0  0  0  0  0  0  0  0
   59.3662   31.8411   45.5616 H   0  0  0  0  0  0  0  0  0  0  0  0
   60.4220   32.3660   47.3930 C   0  0  0  0  0  0  0  0  0  0  0  0
   59.1930   29.2780   47.7770 C   0  0  0  0  0  0  0  0  0  0  0  0
   59.0036   30.2478   48.2604 H   0  0  0  0  0  0  0  0  0  0  0  0
   58.2010   28.2940   47.7780 C   0  0  0  0  0  0  0  0  0  0  0  0
   57.2456   28.4794   48.2907 H   0  0  0  0  0  0  0  0  0  0  0  0
   56.6430   29.0450   42.6400 C   0  0  0  0  0  0  0  0  0  0  0  0
   56.0686   28.6373   41.7951 H   0  0  0  0  0  0  0  0  0  0  0  0
   56.3810   30.3380   43.1020 C   0  0  0  0  0  0  0  0  0  0  0  0
   55.6042   30.9474   42.6169 H   0  0  0  0  0  0  0  0  0  0  0  0
  1  2  1  0
  2  3  2  0
  3  4  1  0
  3  5  1  0
  5  6  1  0
  5  7  2  0
  7  8  1  0
  8  9  1  0
  8 10  1  0
  8 11  1  0
 11 12  1  0
 12 13  2  0
 13 14  1  0
 13 15  1  0
 15 16  1  0
 15 17  2  0
 17 18  1  0
 17 19  1  0
 19 20  1  0
 19 21  2  0
 21 22  1  0
 22 23  2  0
 22 24  1  0
 24 25  1  0
 25 26  2  0
 26 27  1  0
 26 28  1  0
 28 29  1  0
 28 30  2  0
 30 31  1  0
 31 32  2  0
 32 33  1  0
 33 34  2  0
 33 35  1  0
 35 36  1  0
 35 37  1  0
 37 38  2  0
 38 39  1  0
 38 40  1  0
 40 41  1  0
 40 42  2  0
 42 43  1  0
 42 44  1  0
 44 45  1  0
 44 46  2  0
 30 47  1  0
 47 48  1  0
 47 49  2  0
 49 50  1  0
  7 51  1  0
 51 52  1  0
 51 53  2  0
 53 54  1  0
 53  2  1  0
 21 12  1  0
 49 25  1  0
 46 32  1  0
 46 37  1  0
M  CHG  1  24  -1
M  END
>  <UniqueID>  (5) 
5

>  <SMILES>  (5) 
O=C1Nc2ccc(Br)cc2/C1=N\c1ccc([N-]C(=O)c2ccccc2OCc2ccccc2)cc1

>  <Energy>  (5) 
108.89477981939326

>  <Genealogy>  (5) 
O=C1Nc2ccc(Br)cc2C1=Nc1ccc([N-]C(=O)c2ccccc2OCc2ccccc2)cc1 (protonated)
O=C1Nc2ccc(Br)cc2/C1=N\c1ccc([N-]C(=O)c2ccccc2OCc2ccccc2)cc1 (cis-trans isomerization)
O=C1Nc2ccc(Br)cc2/C1=N\c1ccc([N-]C(=O)c2ccccc2OCc2ccccc2)cc1 (3D coordinates assigned)
O=C1Nc2ccc(Br)cc2/C1=N\c1ccc([N-]C(=O)c2ccccc2OCc2ccccc2)cc1 (nonaromatic ring conformer: 108.89477981939326 kcal/mol)

>  <smiles>  (5) 
O=C1Nc2ccc(Br)cc2C1=Nc1ccc(NC(=O)c2ccccc2OCc2ccccc2)cc1

>  <score_type>  (5) 
oracle

>  <origin>  (5) 
adg

>  <m_score__min__energy>  (5) 
-12.720000000000001

>  <m_primary>  (5) 
energy

$$$$
5:0
     RDKit          3D

 63 66  0  0  0  0  0  0  0  0999 V2000
   53.7180   24.7050   45.2570 C   0  0  0  0  0  0  0  0  0  0  0  0
   55.1520   24.4720   45.4250 N   0  0  0  0  0  0  0  0  0  0  0  0
   55.8200   25.2230   46.3020 N   0  0  0  0  0  0  0  0  0  0  0  0
   57.1500   25.0800   46.5350 C   0  0  0  0  0  0  0  0  0  0  0  0
   57.7910   26.0050   47.5390 C   0  0  0  0  0  0  0  0  0  0  0  0
   58.7510   26.9430   46.8590 C   0  0  0  0  0  0  0  0  0  0  0  0
   58.7320   27.0370   45.6040 O   0  0  0  0  0  0  0  0  0  0  0  0
   59.7270   27.6950   47.5920 N   0  0  0  0  0  0  0  0  0  0  0  0
   59.8930   29.1190   47.5580 C   0  0  0  0  0  0  0  0  0  0  0  0
   59.1000   29.9160   48.3910 C   0  0  0  0  0  0  0  0  0  0  0  0
   59.2540   31.3050   48.3950 C   0  0  0  0  0  0  0  0  0  0  0  0
   60.2200   31.9110   47.5820 C   0  0  0  0  0  0  0  0  0  0  0  0
   60.4160   33.6620   47.6170 S   0  0  0  0  0  0  0  0  0  0  0  0
   60.9370   34.1030   48.9560 O   0  0  0  0  0  0  0  0  0  0  0  0
   61.4100   34.0600   46.5620 O   0  0  0  0  0  0  0  0  0  0  0  0
   58.9000   34.4530   47.3050 N   0  0  0  0  0  0  0  0  0  0  0  0
   58.6610   34.5190   45.8610 C   0  0  0  0  0  0  0  0  0  0  0  0
   57.4910   33.6110   45.4670 C   0  0  0  0  0  0  0  0  0  0  0  0
   57.9540   32.4430   44.5680 C   0  0  0  0  0  0  0  0  0  0  0  0
   57.0780   31.2520   44.6080 N   0  0  0  0  0  0  0  0  0  0  0  0
   56.6280   30.7870   43.2860 C   0  0  0  0  0  0  0  0  0  0  0  0
   55.5400   29.7070   43.4630 C   0  0  0  0  0  0  0  0  0  0  0  0
   55.4630   29.2180   44.7930 O   0  0  0  0  0  0  0  0  0  0  0  0
   56.7530   28.8810   45.2630 C   0  0  0  0  0  0  0  0  0  0  0  0
   57.6240   30.1430   45.4140 C   0  0  0  0  0  0  0  0  0  0  0  0
   61.0380   31.1120   46.7700 C   0  0  0  0  0  0  0  0  0  0  0  0
   60.8800   29.7240   46.7620 C   0  0  0  0  0  0  0  0  0  0  0  0
   57.8720   24.1040   45.8120 C   0  0  0  0  0  0  0  0  0  0  0  0
   59.2570   23.9040   45.9850 C   0  0  0  0  0  0  0  0  0  0  0  0
   59.9290   22.9250   45.2490 C   0  0  0  0  0  0  0  0  0  0  0  0
   59.2360   22.1340   44.3350 C   0  0  0  0  0  0  0  0  0  0  0  0
   57.8660   22.3180   44.1470 C   0  0  0  0  0  0  0  0  0  0  0  0
   57.1720   23.3010   44.8800 C   0  0  0  0  0  0  0  0  0  0  0  0
   55.7930   23.5050   44.7010 C   0  0  0  0  0  0  0  0  0  0  0  0
   55.1460   22.7990   43.8760 O   0  0  0  0  0  0  0  0  0  0  0  0
   53.2409   24.7825   46.2451 H   0  0  0  0  0  0  0  0  0  0  0  0
   53.5613   25.6404   44.6998 H   0  0  0  0  0  0  0  0  0  0  0  0
   53.2732   23.8673   44.6998 H   0  0  0  0  0  0  0  0  0  0  0  0
   57.0077   26.5914   48.0415 H   0  0  0  0  0  0  0  0  0  0  0  0
   58.3453   25.4017   48.2730 H   0  0  0  0  0  0  0  0  0  0  0  0
   58.3514   29.4467   49.0462 H   0  0  0  0  0  0  0  0  0  0  0  0
   58.6136   31.9251   49.0396 H   0  0  0  0  0  0  0  0  0  0  0  0
   58.9860   35.4300   47.6690 H   0  0  0  0  0  0  0  0  0  0  0  0
   58.4244   35.5560   45.5805 H   0  0  0  0  0  0  0  0  0  0  0  0
   59.5660   34.1803   45.3354 H   0  0  0  0  0  0  0  0  0  0  0  0
   57.0354   33.1997   46.3799 H   0  0  0  0  0  0  0  0  0  0  0  0
   56.7643   34.2128   44.9015 H   0  0  0  0  0  0  0  0  0  0  0  0
   57.9951   32.8043   43.5298 H   0  0  0  0  0  0  0  0  0  0  0  0
   58.9339   32.1229   44.9519 H   0  0  0  0  0  0  0  0  0  0  0  0
   56.2143   31.6349   42.7204 H   0  0  0  0  0  0  0  0  0  0  0  0
   57.4811   30.3613   42.7373 H   0  0  0  0  0  0  0  0  0  0  0  0
   54.5664   30.1407   43.1909 H   0  0  0  0  0  0  0  0  0  0  0  0
   55.8048   28.8599   42.8131 H   0  0  0  0  0  0  0  0  0  0  0  0
   56.6630   28.3851   46.2408 H   0  0  0  0  0  0  0  0  0  0  0  0
   57.2296   28.2070   44.5360 H   0  0  0  0  0  0  0  0  0  0  0  0
   57.6460   30.4423   46.4723 H   0  0  0  0  0  0  0  0  0  0  0  0
   58.6407   29.9158   45.0609 H   0  0  0  0  0  0  0  0  0  0  0  0
   61.8066   31.5798   46.1373 H   0  0  0  0  0  0  0  0  0  0  0  0
   61.5310   29.1022   46.1299 H   0  0  0  0  0  0  0  0  0  0  0  0
   59.8124   24.5233   46.7047 H   0  0  0  0  0  0  0  0  0  0  0  0
   61.0098   22.7780   45.3917 H   0  0  0  0  0  0  0  0  0  0  0  0
   59.7702   21.3629   43.7605 H   0  0  0  0  0  0  0  0  0  0  0  0
   57.3245   21.6921   43.4224 H   0  0  0  0  0  0  0  0  0  0  0  0
  1  2  1  0
  2  3  1  0
  3  4  2  0
  4  5  1  0
  5  6  1  0
  6  7  2  0
  6  8  1  0
  8  9  1  0
  9 10  2  0
 10 11  1  0
 11 12  2  0
 12 13  1  0
 13 14  2  0
 13 15  2  0
 13 16  1  0
 16 17  1  0
 17 18  1  0
 18 19  1  0
 19 20  1  0
 20 21  1  0
 21 22  1  0
 22 23  1  0
 23 24  1  0
 24 25  1  0
 12 26  1  0
 26 27  2  0
  4 28  1  0
 28 29  2  0
 29 30  1  0
 30 31  2  0
 31 32  1  0
 32 33  2  0
 33 34  1  0
 34 35  2  0
 34  2  1  0
 27  9  1  0
 33 28  1  0
 25 20  1  0
  1 36  1  0
  1 37  1  0
  1 38  1  0
  5 39  1  0
  5 40  1  0
 10 41  1  0
 11 42  1  0
 16 43  1  0
 17 44  1  0
 17 45  1  0
 18 46  1  0
 18 47  1  0
 19 48  1  0
 19 49  1  0
 21 50  1  0
 21 51  1  0
 22 52  1  0
 22 53  1  0
 24 54  1  0
 24 55  1  0
 25 56  1  0
 25 57  1  0
 26 58  1  0
 27 59  1  0
 29 60  1  0
 30 61  1  0
 31 62  1  0
 32 63  1  0
M  CHG  1   8  -1
M  END
>  <UniqueID>  (6) 
6

>  <SMILES>  (6) 
Cn1nc(CC(=O)[N-]c2ccc(S(=O)(=O)NCCCN3CCOCC3)cc2)c2ccccc2c1=O

>  <Energy>  (6) 
83.55571662148913

>  <Genealogy>  (6) 
Cn1nc(CC(=O)[N-]c2ccc(S(=O)(=O)NCCCN3CCOCC3)cc2)c2ccccc2c1=O (protonated)
Cn1nc(CC(=O)[N-]c2ccc(S(=O)(=O)NCCCN3CCOCC3)cc2)c2ccccc2c1=O (3D coordinates assigned)
Cn1nc(CC(=O)[N-]c2ccc(S(=O)(=O)NCCCN3CCOCC3)cc2)c2ccccc2c1=O (nonaromatic ring conformer: 83.55571662148913 kcal/mol)

>  <smiles>  (6) 
Cn1nc(CC(=O)Nc2ccc(S(=O)(=O)NCCCN3CCOCC3)cc2)c2ccccc2c1=O

>  <score_type>  (6) 
oracle

>  <origin>  (6) 
adg

>  <m_score__min__energy>  (6) 
-11.48

>  <m_primary>  (6) 
energy

$$$$
6:0
     RDKit          3D

 54 57  0  0  0  0  0  0  0  0999 V2000
   58.5340   30.0620   52.0760 C   0  0  0  0  0  0  0  0  0  0  0  0
   59.4650   30.3960   51.0010 N   0  0  0  0  0  0  0  0  0  0  0  0
   59.5540   31.6690   50.3220 C   0  0  0  0  0  0  0  0  0  0  0  0
   59.5970   32.8190   51.1200 C   0  0  0  0  0  0  0  0  0  0  0  0
   59.6630   34.0870   50.5580 C   0  0  0  0  0  0  0  0  0  0  0  0
   59.6830   34.2410   49.1760 C   0  0  0  0  0  0  0  0  0  0  0  0
   59.6770   33.1200   48.3210 C   0  0  0  0  0  0  0  0  0  0  0  0
   59.6050   33.3010   46.8000 C   0  0  2  0  0  0  0  0  0  0  0  0
   59.5350   34.7750   46.2910 C   0  0  0  0  0  0  0  0  0  0  0  0
   59.0080   34.8010   44.9240 N   0  0  0  0  0  0  0  0  0  0  0  0
   57.6530   34.2210   44.8730 C   0  0  0  0  0  0  0  0  0  0  0  0
   57.4140   33.1600   45.9640 C   0  0  0  0  0  0  0  0  0  0  0  0
   58.5990   32.4530   46.2540 O   0  0  0  0  0  0  0  0  0  0  0  0
   59.6060   31.8190   48.9010 C   0  0  0  0  0  0  0  0  0  0  0  0
   59.5500   30.6680   48.0480 N   0  0  0  0  0  0  0  0  0  0  0  0
   60.4970   29.5980   48.1380 C   0  0  0  0  0  0  0  0  0  0  0  0
   61.4200   29.6330   49.0000 O   0  0  0  0  0  0  0  0  0  0  0  0
   60.3580   28.4650   47.2760 N   0  0  0  0  0  0  0  0  0  0  0  0
   59.1120   27.8890   46.8590 C   0  0  0  0  0  0  0  0  0  0  0  0
   58.2570   28.5580   45.9690 C   0  0  0  0  0  0  0  0  0  0  0  0
   57.0240   27.9950   45.6190 C   0  0  0  0  0  0  0  0  0  0  0  0
   56.6340   26.7490   46.1480 C   0  0  0  0  0  0  0  0  0  0  0  0
   55.3970   26.1560   45.8490 O   0  0  0  0  0  0  0  0  0  0  0  0
   55.1730   24.7920   45.6280 C   0  0  0  0  0  0  0  0  0  0  0  0
   55.7590   24.1770   44.5210 C   0  0  0  0  0  0  0  0  0  0  0  0
   55.5240   22.8180   44.3080 C   0  0  0  0  0  0  0  0  0  0  0  0
   56.0480   22.2300   43.3250 O   0  0  0  0  0  0  0  0  0  0  0  0
   54.7280   22.1270   45.1650 N   0  0  0  0  0  0  0  0  0  0  0  0
   54.1470   22.7410   46.2280 C   0  0  0  0  0  0  0  0  0  0  0  0
   54.3710   24.0620   46.4550 N   0  0  0  0  0  0  0  0  0  0  0  0
   57.4840   26.0970   47.0510 C   0  0  0  0  0  0  0  0  0  0  0  0
   58.7110   26.6630   47.4090 C   0  0  0  0  0  0  0  0  0  0  0  0
   59.0187   30.2359   53.0480 H   0  0  0  0  0  0  0  0  0  0  0  0
   57.6378   30.6947   51.9947 H   0  0  0  0  0  0  0  0  0  0  0  0
   58.2444   29.0039   51.9947 H   0  0  0  0  0  0  0  0  0  0  0  0
   60.1790   29.6630   50.7690 H   0  0  0  0  0  0  0  0  0  0  0  0
   59.5781   32.7156   52.2150 H   0  0  0  0  0  0  0  0  0  0  0  0
   59.6996   34.9733   51.2085 H   0  0  0  0  0  0  0  0  0  0  0  0
   59.7038   35.2523   48.7436 H   0  0  0  0  0  0  0  0  0  0  0  0
   60.5816   32.9807   46.4081 H   0  0  0  0  0  0  0  0  0  0  0  0
   58.8738   35.3580   46.9489 H   0  0  0  0  0  0  0  0  0  0  0  0
   60.5444   35.2120   46.3006 H   0  0  0  0  0  0  0  0  0  0  0  0
   59.6380   34.2200   44.3250 H   0  0  0  0  0  0  0  0  0  0  0  0
   56.9196   35.0303   45.0037 H   0  0  0  0  0  0  0  0  0  0  0  0
   57.5434   33.7230   43.8983 H   0  0  0  0  0  0  0  0  0  0  0  0
   57.0604   33.6586   46.8785 H   0  0  0  0  0  0  0  0  0  0  0  0
   56.6622   32.4456   45.5973 H   0  0  0  0  0  0  0  0  0  0  0  0
   58.8530   30.6590   47.2710 H   0  0  0  0  0  0  0  0  0  0  0  0
   58.5569   29.5278   45.5452 H   0  0  0  0  0  0  0  0  0  0  0  0
   56.3559   28.5286   44.9270 H   0  0  0  0  0  0  0  0  0  0  0  0
   56.3934   24.7518   43.8302 H   0  0  0  0  0  0  0  0  0  0  0  0
   53.4953   22.1692   46.9050 H   0  0  0  0  0  0  0  0  0  0  0  0
   57.1830   25.1308   47.4822 H   0  0  0  0  0  0  0  0  0  0  0  0
   59.3650   26.1443   48.1254 H   0  0  0  0  0  0  0  0  0  0  0  0
  1  2  1  0
  2  3  1  0
  3  4  2  0
  4  5  1  0
  5  6  2  0
  6  7  1  0
  7  8  1  0
  8  9  1  0
  9 10  1  0
 10 11  1  0
 11 12  1  0
 12 13  1  0
  7 14  2  0
 14 15  1  0
 15 16  1  0
 16 17  2  0
 16 18  1  0
 18 19  1  0
 19 20  2  0
 20 21  1  0
 21 22  2  0
 22 23  1  0
 23 24  1  0
 24 25  2  0
 25 26  1  0
 26 27  2  0
 26 28  1  0
 28 29  1  0
 29 30  2  0
 22 31  1  0
 31 32  2  0
 14  3  1  0
 32 19  1  0
 13  8  1  0
 30 24  1  0
  1 33  1  0
  1 34  1  0
  1 35  1  0
  2 36  1  0
  4 37  1  0
  5 38  1  0
  6 39  1  0
  8 40  1  6
  9 41  1  0
  9 42  1  0
 10 43  1  0
 11 44  1  0
 11 45  1  0
 12 46  1  0
 12 47  1  0
 15 48  1  0
 20 49  1  0
 21 50  1  0
 25 51  1  0
 29 52  1  0
 31 53  1  0
 32 54  1  0
M  CHG  2  18  -1  28  -1
M  END
>  <UniqueID>  (7) 
7

>  <SMILES>  (7) 
CNc1cccc([C@@H]2CNCCO2)c1NC(=O)[N-]c1ccc(Oc2cc(=O)[n-]cn2)cc1

>  <Energy>  (7) 
91.85862621145222

>  <Genealogy>  (7) 
CNc1cccc(C2CNCCO2)c1NC(=O)[N-]c1ccc(Oc2cc(=O)[n-]cn2)cc1 (protonated)
CNc1cccc([C@@H]2CNCCO2)c1NC(=O)[N-]c1ccc(Oc2cc(=O)[n-]cn2)cc1 (chirality)
CNc1cccc([C@@H]2CNCCO2)c1NC(=O)[N-]c1ccc(Oc2cc(=O)[n-]cn2)cc1 (3D coordinates assigned)
CNc1cccc([C@@H]2CNCCO2)c1NC(=O)[N-]c1ccc(Oc2cc(=O)[n-]cn2)cc1 (nonaromatic ring conformer: 91.85862621145222 kcal/mol)

>  <smiles>  (7) 
CNc1cccc(C2CNCCO2)c1NC(=O)Nc1ccc(Oc2cc(=O)[nH]cn2)cc1

>  <score_type>  (7) 
oracle

>  <origin>  (7) 
adg

>  <m_score__min__energy>  (7) 
-11.41

>  <m_primary>  (7) 
energy

$$$$
7:0
     RDKit          3D

 42 44  0  0  0  0  0  0  0  0999 V2000
   56.3280   29.9340   42.6500 C   0  0  0  0  0  0  0  0  0  0  0  0
   57.1570   30.6160   43.6890 C   0  0  0  0  0  0  0  0  0  0  0  0
   57.4370   31.9360   43.6810 N   0  0  0  0  0  0  0  0  0  0  0  0
   58.2170   32.1830   44.7220 N   0  0  0  0  0  0  0  0  0  0  0  0
   58.7750   33.4950   45.0210 C   0  0  0  0  0  0  0  0  0  0  0  0
   58.4600   31.0400   45.3940 C   0  0  0  0  0  0  0  0  0  0  0  0
   59.5120   30.8940   46.7950 Cl  0  0  0  0  0  0  0  0  0  0  0  0
   57.7800   30.0130   44.7700 C   0  0  0  0  0  0  0  0  0  0  0  0
   57.8330   28.5560   45.1030 C   0  0  0  0  0  0  0  0  0  0  0  0
   56.4760   28.0470   45.2550 N   0  0  0  0  0  0  0  0  0  0  0  0
   56.1650   26.7210   45.6940 C   0  0  0  0  0  0  0  0  0  0  0  0
   55.1090   26.5240   46.3510 O   0  0  0  0  0  0  0  0  0  0  0  0
   57.0530   25.5820   45.4060 C   0  0  0  0  0  0  0  0  0  0  0  0
   58.3700   25.4070   45.8370 C   0  0  0  0  0  0  0  0  0  0  0  0
   59.1550   26.3880   46.6580 C   0  0  0  0  0  0  0  0  0  0  0  0
   58.8450   24.2040   45.4190 N   0  0  0  0  0  0  0  0  0  0  0  0
   60.1910   23.6660   45.6250 C   0  0  0  0  0  0  0  0  0  0  0  0
   57.8490   23.6350   44.7060 C   0  0  0  0  0  0  0  0  0  0  0  0
   57.8540   22.3970   44.0550 C   0  0  0  0  0  0  0  0  0  0  0  0
   56.6790   21.9860   43.3980 C   0  0  0  0  0  0  0  0  0  0  0  0
   56.6580   20.7570   42.7410 O   0  0  0  0  0  0  0  0  0  0  0  0
   55.5310   22.8130   43.4090 C   0  0  0  0  0  0  0  0  0  0  0  0
   55.5530   24.0540   44.0670 C   0  0  0  0  0  0  0  0  0  0  0  0
   56.7390   24.4430   44.6910 C   0  0  0  0  0  0  0  0  0  0  0  0
   55.5675   29.3084   43.1402 H   0  0  0  0  0  0  0  0  0  0  0  0
   55.8324   30.6893   42.0224 H   0  0  0  0  0  0  0  0  0  0  0  0
   56.9736   29.3021   42.0224 H   0  0  0  0  0  0  0  0  0  0  0  0
   58.8321   33.6293   46.1113 H   0  0  0  0  0  0  0  0  0  0  0  0
   59.7836   33.5717   44.5888 H   0  0  0  0  0  0  0  0  0  0  0  0
   58.1306   34.2747   44.5888 H   0  0  0  0  0  0  0  0  0  0  0  0
   58.3408   28.0122   44.2929 H   0  0  0  0  0  0  0  0  0  0  0  0
   58.3877   28.4126   46.0420 H   0  0  0  0  0  0  0  0  0  0  0  0
   58.9923   26.1847   47.7267 H   0  0  0  0  0  0  0  0  0  0  0  0
   60.2253   26.2880   46.4245 H   0  0  0  0  0  0  0  0  0  0  0  0
   58.8227   27.4103   46.4245 H   0  0  0  0  0  0  0  0  0  0  0  0
   60.3926   23.5854   46.7034 H   0  0  0  0  0  0  0  0  0  0  0  0
   60.2625   22.6702   45.1632 H   0  0  0  0  0  0  0  0  0  0  0  0
   60.9292   24.3382   45.1632 H   0  0  0  0  0  0  0  0  0  0  0  0
   58.7520   21.7617   44.0564 H   0  0  0  0  0  0  0  0  0  0  0  0
   57.1910   19.9660   43.0830 H   0  0  0  0  0  0  0  0  0  0  0  0
   54.6146   22.4818   42.8986 H   0  0  0  0  0  0  0  0  0  0  0  0
   54.6625   24.6994   44.0897 H   0  0  0  0  0  0  0  0  0  0  0  0
  1  2  1  0
  2  3  2  0
  3  4  1  0
  4  5  1  0
  4  6  1  0
  6  7  1  0
  6  8  2  0
  8  9  1  0
  9 10  1  0
 10 11  1  0
 11 12  2  0
 11 13  1  0
 13 14  2  0
 14 15  1  0
 14 16  1  0
 16 17  1  0
 16 18  1  0
 18 19  2  0
 19 20  1  0
 20 21  1  0
 20 22  2  0
 22 23  1  0
 23 24  2  0
  8  2  1  0
 24 13  1  0
 24 18  1  0
  1 25  1  0
  1 26  1  0
  1 27  1  0
  5 28  1  0
  5 29  1  0
  5 30  1  0
  9 31  1  0
  9 32  1  0
 15 33  1  0
 15 34  1  0
 15 35  1  0
 17 36  1  0
 17 37  1  0
 17 38  1  0
 19 39  1  0
 21 40  1  0
 22 41  1  0
 23 42  1  0
M  CHG  1  10  -1
M  END
>  <UniqueID>  (8) 
8

>  <SMILES>  (8) 
Cc1nn(C)c(Cl)c1C[N-]C(=O)c1c(C)n(C)c2cc(O)ccc12

>  <Energy>  (8) 
107.9735450507536

>  <Genealogy>  (8) 
Cc1nn(C)c(Cl)c1C[N-]C(=O)c1c(C)n(C)c2cc(O)ccc12 (protonated)
Cc1nn(C)c(Cl)c1C[N-]C(=O)c1c(C)n(C)c2cc(O)ccc12 (3D coordinates assigned)
Cc1nn(C)c(Cl)c1C[N-]C(=O)c1c(C)n(C)c2cc(O)ccc12 (optimized conformer: 107.9735450507536 kcal/mol)

>  <smiles>  (8) 
Cc1nn(C)c(Cl)c1CNC(=O)c1c(C)n(C)c2cc(O)ccc12

>  <score_type>  (8) 
oracle

>  <origin>  (8) 
adg

>  <m_score__min__energy>  (8) 
-9.8000000000000007

>  <m_primary>  (8) 
energy

$$$$
8:0
     RDKit          3D

 39 42  0  0  0  0  0  0  0  0999 V2000
   54.6140   28.2197   55.0351 H   0  0  0  0  0  0  0  0  0  0  0  0
   53.8560   28.8060   54.4950 C   0  0  0  0  0  0  0  0  0  0  0  0
   52.7960   28.7284   54.7784 H   0  0  0  0  0  0  0  0  0  0  0  0
   54.2250   29.6170   53.4890 C   0  0  0  0  0  0  0  0  0  0  0  0
   53.3790   30.4210   52.7130 C   0  0  0  0  0  0  0  0  0  0  0  0
   52.0390   30.5410   52.8380 C   0  0  0  0  0  0  0  0  0  0  0  0
   51.4411   29.6229   52.7397 H   0  0  0  0  0  0  0  0  0  0  0  0
   51.3050   31.8020   53.0960 C   0  0  0  0  0  0  0  0  0  0  0  0
   51.0930   32.3620   54.2990 N   0  0  0  0  0  0  0  0  0  0  0  0
   50.3540   33.4560   54.0140 C   0  0  0  0  0  0  0  0  0  0  0  0
   49.9540   34.2550   54.9010 O   0  0  0  0  0  0  0  0  0  0  0  0
   50.0750   33.6250   52.7050 N   0  0  0  0  0  0  0  0  0  0  0  0
   50.6790   32.5670   52.1390 C   0  0  0  0  0  0  0  0  0  0  0  0
   50.6600   32.3080   50.7740 O   0  0  0  0  0  0  0  0  0  0  0  0
   54.1960   31.0440   51.7750 C   0  0  0  0  0  0  0  0  0  0  0  0
   53.8765   31.7437   50.9887 H   0  0  0  0  0  0  0  0  0  0  0  0
   55.4850   30.6150   52.0210 C   0  0  0  0  0  0  0  0  0  0  0  0
   56.6850   31.0290   51.2260 C   0  0  0  0  0  0  0  0  0  0  0  0
   57.4991   31.3099   51.9103 H   0  0  0  0  0  0  0  0  0  0  0  0
   57.0115   30.1915   50.5919 H   0  0  0  0  0  0  0  0  0  0  0  0
   56.4257   31.8896   50.5919 H   0  0  0  0  0  0  0  0  0  0  0  0
   55.5040   29.7460   53.0550 N   0  0  0  0  0  0  0  0  0  0  0  0
   56.6750   29.1010   53.5880 C   0  0  0  0  0  0  0  0  0  0  0  0
   57.6700   29.8560   54.2230 C   0  0  0  0  0  0  0  0  0  0  0  0
   57.5601   30.9474   54.3047 H   0  0  0  0  0  0  0  0  0  0  0  0
   58.8010   29.2300   54.7530 C   0  0  0  0  0  0  0  0  0  0  0  0
   59.5780   29.8312   55.2478 H   0  0  0  0  0  0  0  0  0  0  0  0
   58.9510   27.8350   54.6570 C   0  0  0  0  0  0  0  0  0  0  0  0
   60.1430   27.1660   55.2140 C   0  0  0  0  0  0  0  0  0  0  0  0
   60.3000   25.8250   55.2640 N   0  0  0  0  0  0  0  0  0  0  0  0
   61.5080   25.6720   55.8380 C   0  0  0  0  0  0  0  0  0  0  0  0
   61.9946   24.7090   56.0522 H   0  0  0  0  0  0  0  0  0  0  0  0
   62.0370   26.9110   56.1140 C   0  0  0  0  0  0  0  0  0  0  0  0
   63.0120   27.1100   56.5829 H   0  0  0  0  0  0  0  0  0  0  0  0
   61.1730   27.8110   55.7190 O   0  0  0  0  0  0  0  0  0  0  0  0
   57.9500   27.0810   54.0230 C   0  0  0  0  0  0  0  0  0  0  0  0
   58.0561   25.9891   53.9421 H   0  0  0  0  0  0  0  0  0  0  0  0
   56.8190   27.7110   53.4940 C   0  0  0  0  0  0  0  0  0  0  0  0
   56.0388   27.1119   53.0017 H   0  0  0  0  0  0  0  0  0  0  0  0
  1  2  1  0
  2  3  1  0
  2  4  2  0
  4  5  1  0
  5  6  2  0
  6  7  1  0
  6  8  1  0
  8  9  1  0
  9 10  1  0
 10 11  2  0
 10 12  1  0
 12 13  1  0
 13 14  1  0
  5 15  1  0
 15 16  1  0
 15 17  2  0
 17 18  1  0
 18 19  1  0
 18 20  1  0
 18 21  1  0
 17 22  1  0
 22 23  1  0
 23 24  2  0
 24 25  1  0
 24 26  1  0
 26 27  1  0
 26 28  2  0
 28 29  1  0
 29 30  2  0
 30 31  1  0
 31 32  1  0
 31 33  2  0
 33 34  1  0
 33 35  1  0
 28 36  1  0
 36 37  1  0
 36 38  2  0
 38 39  1  0
 22  4  1  0
 38 23  1  0
 13  8  2  0
 35 29  1  0
M  CHG  3   9  -1  12  -1  14  -1
M  END
>  <UniqueID>  (9) 
9

>  <SMILES>  (9) 
C=c1/c(=C/c2[n-]c(=O)[n-]c2[O-])cc(C)n1-c1ccc(-c2ncco2)cc1

>  <Energy>  (9) 
141.11492671931293

>  <Genealogy>  (9) 
C=c1c(=Cc2[n-]c(=O)[n-]c2[O-])cc(C)n1-c1ccc(-c2ncco2)cc1 (protonated)
C=c1/c(=C/c2[n-]c(=O)[n-]c2[O-])cc(C)n1-c1ccc(-c2ncco2)cc1 (cis-trans isomerization)
C=c1/c(=C/c2[n-]c(=O)[n-]c2[O-])cc(C)n1-c1ccc(-c2ncco2)cc1 (3D coordinates assigned)
C=c1/c(=C/c2[n-]c(=O)[n-]c2[O-])cc(C)n1-c1ccc(-c2ncco2)cc1 (optimized conformer: 141.11492671931293 kcal/mol)

>  <smiles>  (9) 
C=c1c(=Cc2[nH]c(=O)[nH]c2O)cc(C)n1-c1ccc(-c2ncco2)cc1

>  <score_type>  (9) 
oracle

>  <origin>  (9) 
adg

>  <m_score__min__energy>  (9) 
-15.23

>  <m_primary>  (9) 
energy

$$$$
9:0
     RDKit          3D

 47 49  0  0  0  0  0  0  0  0999 V2000
   59.1941   27.6731   43.6745 H   0  0  0  0  0  0  0  0  0  0  0  0
   59.2480   27.6530   44.7730 C   0  0  0  0  0  0  0  0  0  0  0  0
   60.3720   28.4720   45.7240 S   0  0  0  0  0  0  0  0  0  0  0  0
   59.7390   27.8900   47.1630 C   0  0  0  0  0  0  0  0  0  0  0  0
   60.2050   28.2180   48.3330 N   0  0  0  0  0  0  0  0  0  0  0  0
   60.2160   29.5390   48.8880 C   0  0  0  0  0  0  0  0  0  0  0  0
   60.6250   29.7040   50.0670 O   0  0  0  0  0  0  0  0  0  0  0  0
   59.5670   30.6820   48.1680 C   0  0  0  0  0  0  0  0  0  0  0  0
   60.0454   30.8194   47.1870 H   0  0  0  0  0  0  0  0  0  0  0  0
   58.4976   30.4700   48.0213 H   0  0  0  0  0  0  0  0  0  0  0  0
   59.7640   32.1960   49.1610 S   0  0  0  0  0  0  0  0  0  0  0  0
   61.3210   32.6610   48.3870 C   0  0  0  0  0  0  0  0  0  0  0  0
   62.5030   32.0570   48.8340 C   0  0  0  0  0  0  0  0  0  0  0  0
   62.4697   31.3396   49.6672 H   0  0  0  0  0  0  0  0  0  0  0  0
   63.7240   32.3610   48.2270 C   0  0  0  0  0  0  0  0  0  0  0  0
   64.6489   31.8853   48.5852 H   0  0  0  0  0  0  0  0  0  0  0  0
   63.7720   33.2680   47.1660 C   0  0  0  0  0  0  0  0  0  0  0  0
   64.7339   33.5034   46.6872 H   0  0  0  0  0  0  0  0  0  0  0  0
   62.5980   33.8770   46.7120 C   0  0  0  0  0  0  0  0  0  0  0  0
   62.6386   34.5841   45.8704 H   0  0  0  0  0  0  0  0  0  0  0  0
   61.3690   33.5910   47.3240 C   0  0  0  0  0  0  0  0  0  0  0  0
   60.1480   34.2420   46.8160 C   0  0  0  0  0  0  0  0  0  0  0  0
   59.3960   34.8530   47.6220 O   0  0  0  0  0  0  0  0  0  0  0  0
   59.7870   34.1850   45.4320 N   0  0  0  0  0  0  0  0  0  0  0  0
   58.4120   34.2070   44.9490 C   0  0  0  0  0  0  0  0  0  0  0  0
   57.7479   34.5687   45.7478 H   0  0  0  0  0  0  0  0  0  0  0  0
   58.3376   34.8781   44.0806 H   0  0  0  0  0  0  0  0  0  0  0  0
   58.0040   32.8200   44.5480 C   0  0  0  0  0  0  0  0  0  0  0  0
   57.8020   31.8290   45.5240 C   0  0  0  0  0  0  0  0  0  0  0  0
   57.9670   32.0635   46.5860 H   0  0  0  0  0  0  0  0  0  0  0  0
   57.3920   30.5460   45.1490 C   0  0  0  0  0  0  0  0  0  0  0  0
   57.2453   29.7705   45.9152 H   0  0  0  0  0  0  0  0  0  0  0  0
   57.1680   30.2470   43.8010 C   0  0  0  0  0  0  0  0  0  0  0  0
   56.8472   29.2365   43.5077 H   0  0  0  0  0  0  0  0  0  0  0  0
   57.3520   31.2330   42.8260 C   0  0  0  0  0  0  0  0  0  0  0  0
   57.1725   30.9978   41.7665 H   0  0  0  0  0  0  0  0  0  0  0  0
   57.7640   32.5180   43.1960 C   0  0  0  0  0  0  0  0  0  0  0  0
   57.9004   33.2933   42.4277 H   0  0  0  0  0  0  0  0  0  0  0  0
   58.6640   27.0960   46.9490 N   0  0  0  0  0  0  0  0  0  0  0  0
   58.0610   26.6900   47.6970 H   0  0  0  0  0  0  0  0  0  0  0  0
   58.3990   26.9460   45.6210 C   0  0  0  0  0  0  0  0  0  0  0  0
   57.2310   26.1480   45.1270 C   0  0  0  0  0  0  0  0  0  0  0  0
   57.5627   25.1265   44.8894 H   0  0  0  0  0  0  0  0  0  0  0  0
   56.8224   26.6281   44.2256 H   0  0  0  0  0  0  0  0  0  0  0  0
   56.1680   26.0910   46.1750 C   0  0  0  0  0  0  0  0  0  0  0  0
   55.0850   26.7130   46.0130 O   0  0  0  0  0  0  0  0  0  0  0  0
   56.3540   25.3110   47.3100 O   0  0  0  0  0  0  0  0  0  0  0  0
  1  2  1  0
  2  3  1  0
  3  4  1  0
  4  5  2  0
  5  6  1  0
  6  7  2  0
  6  8  1  0
  8  9  1  0
  8 10  1  0
  8 11  1  0
 11 12  1  0
 12 13  2  0
 13 14  1  0
 13 15  1  0
 15 16  1  0
 15 17  2  0
 17 18  1  0
 17 19  1  0
 19 20  1  0
 19 21  2  0
 21 22  1  0
 22 23  2  0
 22 24  1  0
 24 25  1  0
 25 26  1  0
 25 27  1  0
 25 28  1  0
 28 29  2  0
 29 30  1  0
 29 31  1  0
 31 32  1  0
 31 33  2  0
 33 34  1  0
 33 35  1  0
 35 36  1  0
 35 37  2  0
 37 38  1  0
  4 39  1  0
 39 40  1  0
 39 41  1  0
 41 42  1  0
 42 43  1  0
 42 44  1  0
 42 45  1  0
 45 46  2  0
 45 47  1  0
 41  2  2  0
 21 12  1  0
 37 28  1  0
M  CHG  2  24  -1  47  -1
M  END
>  <UniqueID>  (10) 
10

>  <SMILES>  (10) 
O=C([O-])Cc1cs/c(=N/C(=O)CSc2ccccc2C(=O)[N-]Cc2ccccc2)[nH]1

>  <Energy>  (10) 
83.07696272477386

>  <Genealogy>  (10) 
O=C([O-])Cc1csc(=NC(=O)CSc2ccccc2C(=O)[N-]Cc2ccccc2)[nH]1 (protonated)
O=C([O-])Cc1cs/c(=N/C(=O)CSc2ccccc2C(=O)[N-]Cc2ccccc2)[nH]1 (cis-trans isomerization)
O=C([O-])Cc1cs/c(=N/C(=O)CSc2ccccc2C(=O)[N-]Cc2ccccc2)[nH]1 (3D coordinates assigned)
O=C([O-])Cc1cs/c(=N/C(=O)CSc2ccccc2C(=O)[N-]Cc2ccccc2)[nH]1 (optimized conformer: 83.07696272477386 kcal/mol)

>  <smiles>  (10) 
O=C(O)Cc1csc(=NC(=O)CSc2ccccc2C(=O)NCc2ccccc2)[nH]1

>  <score_type>  (10) 
oracle

>  <origin>  (10) 
adg

>  <m_score__min__energy>  (10) 
-14.220000000000001

>  <m_primary>  (10) 
energy

$$$$
10:0
     RDKit          3D

 51 53  0  0  0  0  0  0  0  0999 V2000
   56.5700   32.2760   52.0030 C   0  0  0  0  0  0  0  0  0  0  0  0
   57.0360   30.8710   52.3520 C   0  0  0  0  0  0  0  0  0  0  0  0
   58.3600   30.4660   52.0210 C   0  0  0  0  0  0  0  0  0  0  0  0
   59.3520   31.3860   51.3190 C   0  0  0  0  0  0  0  0  0  0  0  0
   59.6760   30.9170   49.9190 C   0  0  0  0  0  0  0  0  0  0  0  0
   60.9910   31.0100   49.4320 C   0  0  0  0  0  0  0  0  0  0  0  0
   61.3030   30.5630   48.1470 C   0  0  0  0  0  0  0  0  0  0  0  0
   60.3150   29.9970   47.3350 C   0  0  0  0  0  0  0  0  0  0  0  0
   60.6590   29.5620   46.0540 O   0  0  0  0  0  0  0  0  0  0  0  0
   59.0030   29.8660   47.8240 C   0  0  0  0  0  0  0  0  0  0  0  0
   57.9820   29.2980   47.0060 N   0  0  0  0  0  0  0  0  0  0  0  0
   57.6240   29.9030   45.4210 S   0  0  0  0  0  0  0  0  0  0  0  0
   58.0570   31.6250   45.2640 C   0  0  0  0  0  0  0  0  0  0  0  0
   56.1540   29.7320   45.1490 O   0  0  0  0  0  0  0  0  0  0  0  0
   58.4150   29.1200   44.4090 O   0  0  0  0  0  0  0  0  0  0  0  0
   58.6900   30.3300   49.1080 C   0  0  0  0  0  0  0  0  0  0  0  0
   58.7490   29.1580   52.3480 C   0  0  0  0  0  0  0  0  0  0  0  0
   59.9010   28.7330   52.0650 O   0  0  0  0  0  0  0  0  0  0  0  0
   57.8840   28.3330   52.9700 N   0  0  0  0  0  0  0  0  0  0  0  0
   56.6390   28.7240   53.3230 C   0  0  0  0  0  0  0  0  0  0  0  0
   55.6920   27.6060   54.0730 S   0  0  0  0  0  0  0  0  0  0  0  0
   56.2080   30.0070   53.0540 N   0  0  0  0  0  0  0  0  0  0  0  0
   54.8590   30.4420   53.4940 C   0  0  0  0  0  0  0  0  0  0  0  0
   53.7740   29.5250   52.9110 C   0  0  0  0  0  0  0  0  0  0  0  0
   52.8870   30.2910   51.9680 C   0  0  0  0  0  0  0  0  0  0  0  0
   52.6910   29.8360   50.6530 C   0  0  0  0  0  0  0  0  0  0  0  0
   51.8330   30.5250   49.7910 C   0  0  0  0  0  0  0  0  0  0  0  0
   51.1560   31.6650   50.2360 C   0  0  0  0  0  0  0  0  0  0  0  0
   50.3020   32.3450   49.3740 O   0  0  0  0  0  0  0  0  0  0  0  0
   51.3360   32.1160   51.5490 C   0  0  0  0  0  0  0  0  0  0  0  0
   50.6610   33.2450   51.9990 O   0  0  0  0  0  0  0  0  0  0  0  0
   52.1950   31.4290   52.4130 C   0  0  0  0  0  0  0  0  0  0  0  0
   56.3827   32.8406   52.9283 H   0  0  0  0  0  0  0  0  0  0  0  0
   57.3476   32.7845   51.4141 H   0  0  0  0  0  0  0  0  0  0  0  0
   55.6426   32.2191   51.4141 H   0  0  0  0  0  0  0  0  0  0  0  0
   58.9195   32.3958   51.2628 H   0  0  0  0  0  0  0  0  0  0  0  0
   60.2857   31.3813   51.9005 H   0  0  0  0  0  0  0  0  0  0  0  0
   61.7799   31.4380   50.0679 H   0  0  0  0  0  0  0  0  0  0  0  0
   62.3324   30.6565   47.7707 H   0  0  0  0  0  0  0  0  0  0  0  0
   59.9820   29.1520   45.4220 H   0  0  0  0  0  0  0  0  0  0  0  0
   58.1683   32.0678   46.2648 H   0  0  0  0  0  0  0  0  0  0  0  0
   59.0060   31.7159   44.7152 H   0  0  0  0  0  0  0  0  0  0  0  0
   57.2639   32.1539   44.7152 H   0  0  0  0  0  0  0  0  0  0  0  0
   57.6613   30.2338   49.4855 H   0  0  0  0  0  0  0  0  0  0  0  0
   54.8090   30.4070   54.5923 H   0  0  0  0  0  0  0  0  0  0  0  0
   54.6845   31.4672   53.1356 H   0  0  0  0  0  0  0  0  0  0  0  0
   54.2533   28.6984   52.3660 H   0  0  0  0  0  0  0  0  0  0  0  0
   53.1609   29.1312   53.7350 H   0  0  0  0  0  0  0  0  0  0  0  0
   53.2144   28.9348   50.3009 H   0  0  0  0  0  0  0  0  0  0  0  0
   51.6899   30.1696   48.7599 H   0  0  0  0  0  0  0  0  0  0  0  0
   52.3292   31.7819   53.4462 H   0  0  0  0  0  0  0  0  0  0  0  0
  1  2  1  0
  2  3  2  0
  3  4  1  0
  4  5  1  0
  5  6  2  0
  6  7  1  0
  7  8  2  0
  8  9  1  0
  8 10  1  0
 10 11  1  0
 11 12  1  0
 12 13  1  0
 12 14  2  0
 12 15  2  0
 10 16  2  0
  3 17  1  0
 17 18  2  0
 17 19  1  0
 19 20  1  0
 20 21  2  0
 20 22  1  0
 22 23  1  0
 23 24  1  0
 24 25  1  0
 25 26  2  0
 26 27  1  0
 27 28  2  0
 28 29  1  0
 28 30  1  0
 30 31  1  0
 30 32  2  0
 22  2  1  0
 32 25  1  0
 16  5  1  0
  1 33  1  0
  1 34  1  0
  1 35  1  0
  4 36  1  0
  4 37  1  0
  6 38  1  0
  7 39  1  0
  9 40  1  0
 13 41  1  0
 13 42  1  0
 13 43  1  0
 16 44  1  0
 23 45  1  0
 23 46  1  0
 24 47  1  0
 24 48  1  0
 26 49  1  0
 27 50  1  0
 32 51  1  0
M  CHG  4  11  -1  19  -1  29  -1  31  -1
M  END
>  <UniqueID>  (11) 
11

>  <SMILES>  (11) 
Cc1c(Cc2ccc(O)c([N-]S(C)(=O)=O)c2)c(=O)[n-]c(=S)n1CCc1ccc([O-])c([O-])c1

>  <Energy>  (11) 
68.39721813598354

>  <Genealogy>  (11) 
Cc1c(Cc2ccc(O)c([N-]S(C)(=O)=O)c2)c(=O)[n-]c(=S)n1CCc1ccc([O-])c([O-])c1 (protonated)
Cc1c(Cc2ccc(O)c([N-]S(C)(=O)=O)c2)c(=O)[n-]c(=S)n1CCc1ccc([O-])c([O-])c1 (3D coordinates assigned)
Cc1c(Cc2ccc(O)c([N-]S(C)(=O)=O)c2)c(=O)[n-]c(=S)n1CCc1ccc([O-])c([O-])c1 (optimized conformer: 68.39721813598354 kcal/mol)

>  <smiles>  (11) 
Cc1c(Cc2ccc(O)c(NS(C)(=O)=O)c2)c(=O)[nH]c(=S)n1CCc1ccc(O)c(O)c1

>  <score_type>  (11) 
oracle

>  <origin>  (11) 
adg

>  <m_score__min__energy>  (11) 
-18.41

>  <m_primary>  (11) 
energy

$$$$
11:0
     RDKit          3D

 44 46  0  0  0  0  0  0  0  0999 V2000
   57.9983   30.5130   46.8213 H   0  0  0  0  0  0  0  0  0  0  0  0
   58.5790   31.4450   46.8860 C   0  0  0  0  0  0  0  0  0  0  0  0
   59.6460   31.8550   48.1180 S   0  0  0  0  0  0  0  0  0  0  0  0
   60.0440   33.3430   47.4300 C   0  0  0  0  0  0  0  0  0  0  0  0
   60.8630   34.2170   47.9420 N   0  0  0  0  0  0  0  0  0  0  0  0
   62.0920   33.9130   48.6160 C   0  0  0  0  0  0  0  0  0  0  0  0
   62.2240   34.2400   49.9720 C   0  0  0  0  0  0  0  0  0  0  0  0
   61.3815   34.7013   50.5082 H   0  0  0  0  0  0  0  0  0  0  0  0
   63.4210   33.9830   50.6470 C   0  0  0  0  0  0  0  0  0  0  0  0
   63.5123   34.2269   51.7157 H   0  0  0  0  0  0  0  0  0  0  0  0
   64.5010   33.4170   49.9660 C   0  0  0  0  0  0  0  0  0  0  0  0
   65.4383   33.2048   50.5011 H   0  0  0  0  0  0  0  0  0  0  0  0
   64.3910   33.1200   48.6040 C   0  0  0  0  0  0  0  0  0  0  0  0
   65.2462   32.6855   48.0656 H   0  0  0  0  0  0  0  0  0  0  0  0
   63.1940   33.3750   47.9250 C   0  0  0  0  0  0  0  0  0  0  0  0
   63.1260   33.1370   46.5900 F   0  0  0  0  0  0  0  0  0  0  0  0
   59.3560   33.5540   46.2780 N   0  0  0  0  0  0  0  0  0  0  0  0
   59.5240   34.7440   45.4330 C   0  0  0  0  0  0  0  0  0  0  0  0
   59.6493   35.6316   46.0705 H   0  0  0  0  0  0  0  0  0  0  0  0
   60.4136   34.6201   44.7979 H   0  0  0  0  0  0  0  0  0  0  0  0
   58.6349   34.8712   44.7979 H   0  0  0  0  0  0  0  0  0  0  0  0
   58.5550   32.4880   45.9590 C   0  0  0  0  0  0  0  0  0  0  0  0
   57.6760   32.4350   44.7350 C   0  0  0  0  0  0  0  0  0  0  0  0
   58.2740   32.7098   43.8536 H   0  0  0  0  0  0  0  0  0  0  0  0
   56.8427   33.1386   44.8783 H   0  0  0  0  0  0  0  0  0  0  0  0
   57.1000   31.0560   44.5260 C   0  0  0  0  0  0  0  0  0  0  0  0
   55.8500   30.9030   44.5020 O   0  0  0  0  0  0  0  0  0  0  0  0
   57.9330   29.9400   44.1880 N   0  0  0  0  0  0  0  0  0  0  0  0
   58.0720   28.7300   44.9470 C   0  0  0  0  0  0  0  0  0  0  0  0
   56.9430   27.9650   45.2800 C   0  0  0  0  0  0  0  0  0  0  0  0
   55.9446   28.3084   44.9713 H   0  0  0  0  0  0  0  0  0  0  0  0
   57.0710   26.7670   46.0020 C   0  0  0  0  0  0  0  0  0  0  0  0
   55.8720   25.9790   46.3610 C   0  0  0  0  0  0  0  0  0  0  0  0
   54.7280   26.3430   45.9770 O   0  0  0  0  0  0  0  0  0  0  0  0
   55.9890   24.8250   47.1290 O   0  0  0  0  0  0  0  0  0  0  0  0
   58.3540   26.3290   46.3700 C   0  0  0  0  0  0  0  0  0  0  0  0
   58.4692   25.3976   46.9437 H   0  0  0  0  0  0  0  0  0  0  0  0
   59.4840   27.0670   46.0130 C   0  0  0  0  0  0  0  0  0  0  0  0
   60.4834   26.7074   46.2991 H   0  0  0  0  0  0  0  0  0  0  0  0
   59.3550   28.2640   45.2920 C   0  0  0  0  0  0  0  0  0  0  0  0
   60.5800   29.0510   44.9170 C   0  0  0  0  0  0  0  0  0  0  0  0
   61.0964   29.3827   45.8299 H   0  0  0  0  0  0  0  0  0  0  0  0
   61.2554   28.4174   44.3234 H   0  0  0  0  0  0  0  0  0  0  0  0
   60.2845   29.9287   44.3234 H   0  0  0  0  0  0  0  0  0  0  0  0
  1  2  1  0
  2  3  1  0
  3  4  1  0
  4  5  2  0
  5  6  1  0
  6  7  2  0
  7  8  1  0
  7  9  1  0
  9 10  1  0
  9 11  2  0
 11 12  1  0
 11 13  1  0
 13 14  1  0
 13 15  2  0
 15 16  1  0
  4 17  1  0
 17 18  1  0
 18 19  1  0
 18 20  1  0
 18 21  1  0
 17 22  1  0
 22 23  1  0
 23 24  1  0
 23 25  1  0
 23 26  1  0
 26 27  2  0
 26 28  1  0
 28 29  1  0
 29 30  2  0
 30 31  1  0
 30 32  1  0
 32 33  1  0
 33 34  2  0
 33 35  1  0
 32 36  2  0
 36 37  1  0
 36 38  1  0
 38 39  1  0
 38 40  2  0
 40 41  1  0
 41 42  1  0
 41 43  1  0
 41 44  1  0
 22  2  2  0
 40 29  1  0
 15  6  1  0
M  CHG  2  28  -1  35  -1
M  END
>  <UniqueID>  (12) 
12

>  <SMILES>  (12) 
Cc1ccc(C(=O)[O-])cc1[N-]C(=O)Cc1cs/c(=N\c2ccccc2F)n1C

>  <Energy>  (12) 
90.96541396179691

>  <Genealogy>  (12) 
Cc1ccc(C(=O)[O-])cc1[N-]C(=O)Cc1csc(=Nc2ccccc2F)n1C (protonated)
Cc1ccc(C(=O)[O-])cc1[N-]C(=O)Cc1cs/c(=N\c2ccccc2F)n1C (cis-trans isomerization)
Cc1ccc(C(=O)[O-])cc1[N-]C(=O)Cc1cs/c(=N\c2ccccc2F)n1C (3D coordinates assigned)
Cc1ccc(C(=O)[O-])cc1[N-]C(=O)Cc1cs/c(=N\c2ccccc2F)n1C (optimized conformer: 90.96541396179691 kcal/mol)

>  <smiles>  (12) 
Cc1ccc(C(=O)O)cc1NC(=O)Cc1csc(=Nc2ccccc2F)n1C

>  <score_type>  (12) 
oracle

>  <origin>  (12) 
adg

>  <m_score__min__energy>  (12) 
-13.24

>  <m_primary>  (12) 
energy

$$$$
12:0
     RDKit          3D

 54 57  0  0  0  0  0  0  0  0999 V2000
   56.3640   33.2870   45.4540 O   0  0  0  0  0  0  0  0  0  0  0  0
   57.3060   32.4840   45.2190 C   0  0  0  0  0  0  0  0  0  0  0  0
   58.7040   32.8700   45.5260 C   0  0  0  0  0  0  0  0  0  0  0  0
   59.0750   33.7070   46.5080 C   0  0  0  0  0  0  0  0  0  0  0  0
   60.4110   33.7280   47.1490 C   0  0  0  0  0  0  0  0  0  0  0  0
   61.5820   33.5840   46.3790 C   0  0  0  0  0  0  0  0  0  0  0  0
   62.8380   33.6130   46.9900 C   0  0  0  0  0  0  0  0  0  0  0  0
   62.9450   33.8200   48.3670 C   0  0  0  0  0  0  0  0  0  0  0  0
   61.7910   34.0020   49.1400 C   0  0  0  0  0  0  0  0  0  0  0  0
   61.9050   34.2230   50.5080 O   0  0  0  0  0  0  0  0  0  0  0  0
   60.5250   33.9620   48.5340 C   0  0  0  0  0  0  0  0  0  0  0  0
   59.3850   34.1390   49.3130 O   0  0  0  0  0  0  0  0  0  0  0  0
   57.0070   31.2510   44.5550 N   0  0  0  0  0  0  0  0  0  0  0  0
   57.4400   29.9400   44.9500 C   0  0  0  0  0  0  0  0  0  0  0  0
   58.8090   29.6570   44.9280 C   0  0  0  0  0  0  0  0  0  0  0  0
   59.2730   28.3800   45.2480 C   0  0  0  0  0  0  0  0  0  0  0  0
   58.3700   27.3750   45.6000 C   0  0  0  0  0  0  0  0  0  0  0  0
   56.9910   27.6450   45.6440 C   0  0  0  0  0  0  0  0  0  0  0  0
   56.0370   26.6230   45.9780 N   0  0  0  0  0  0  0  0  0  0  0  0
   56.2780   25.4350   46.7420 C   0  0  0  0  0  0  0  0  0  0  0  0
   57.1710   25.4620   47.6300 O   0  0  0  0  0  0  0  0  0  0  0  0
   55.5560   24.1720   46.4800 C   0  0  0  0  0  0  0  0  0  0  0  0
   54.3480   24.1060   45.8740 N   0  0  0  0  0  0  0  0  0  0  0  0
   54.0380   22.7920   45.8370 C   0  0  0  0  0  0  0  0  0  0  0  0
   52.8580   22.3050   45.2920 O   0  0  0  0  0  0  0  0  0  0  0  0
   55.0290   22.0130   46.3980 C   0  0  0  0  0  0  0  0  0  0  0  0
   55.0230   20.5510   46.5530 C   0  0  0  0  0  0  0  0  0  0  0  0
   54.7420   20.0140   47.6990 N   0  0  0  0  0  0  0  0  0  0  0  0
   54.7720   20.7580   48.9530 C   0  0  0  0  0  0  0  0  0  0  0  0
   56.1610   20.7410   49.5310 C   0  0  0  0  0  0  0  0  0  0  0  0
   57.0370   19.6920   49.2210 C   0  0  0  0  0  0  0  0  0  0  0  0
   58.3320   19.6980   49.7470 C   0  0  0  0  0  0  0  0  0  0  0  0
   58.7400   20.7230   50.5430 N   0  0  0  0  0  0  0  0  0  0  0  0
   57.9180   21.7620   50.8450 C   0  0  0  0  0  0  0  0  0  0  0  0
   56.6120   21.7940   50.3430 C   0  0  0  0  0  0  0  0  0  0  0  0
   56.0020   22.9040   46.8020 C   0  0  0  0  0  0  0  0  0  0  0  0
   57.2030   22.5870   47.4270 O   0  0  0  0  0  0  0  0  0  0  0  0
   56.5270   28.9130   45.2670 C   0  0  0  0  0  0  0  0  0  0  0  0
   55.1540   29.1310   45.1690 O   0  0  0  0  0  0  0  0  0  0  0  0
   59.4989   32.4372   44.9009 H   0  0  0  0  0  0  0  0  0  0  0  0
   58.3297   34.4333   46.8643 H   0  0  0  0  0  0  0  0  0  0  0  0
   61.5069   33.4479   45.2900 H   0  0  0  0  0  0  0  0  0  0  0  0
   63.7456   33.4723   46.3846 H   0  0  0  0  0  0  0  0  0  0  0  0
   63.9357   33.8401   48.8447 H   0  0  0  0  0  0  0  0  0  0  0  0
   59.5255   30.4463   44.6566 H   0  0  0  0  0  0  0  0  0  0  0  0
   60.3515   28.1652   45.2228 H   0  0  0  0  0  0  0  0  0  0  0  0
   58.7390   26.3679   45.8439 H   0  0  0  0  0  0  0  0  0  0  0  0
   55.2584   19.9089   45.6914 H   0  0  0  0  0  0  0  0  0  0  0  0
   54.4684   21.7986   48.7660 H   0  0  0  0  0  0  0  0  0  0  0  0
   54.0792   20.2886   49.6669 H   0  0  0  0  0  0  0  0  0  0  0  0
   56.7079   18.8699   48.5685 H   0  0  0  0  0  0  0  0  0  0  0  0
   59.0221   18.8729   49.5170 H   0  0  0  0  0  0  0  0  0  0  0  0
   58.2799   22.5798   51.4855 H   0  0  0  0  0  0  0  0  0  0  0  0
   55.9454   22.6357   50.5822 H   0  0  0  0  0  0  0  0  0  0  0  0
  1  2  2  0
  2  3  1  0
  3  4  2  3
  4  5  1  0
  5  6  2  0
  6  7  1  0
  7  8  2  0
  8  9  1  0
  9 10  1  0
  9 11  2  0
 11 12  1  0
  2 13  1  0
 13 14  1  0
 14 15  2  0
 15 16  1  0
 16 17  2  0
 17 18  1  0
 18 19  1  0
 19 20  1  0
 20 21  2  0
 20 22  1  0
 22 23  1  0
 23 24  1  0
 24 25  1  0
 24 26  2  0
 26 27  1  0
 27 28  2  3
 28 29  1  0
 29 30  1  0
 30 31  2  0
 31 32  1  0
 32 33  2  0
 33 34  1  0
 34 35  2  0
 26 36  1  0
 36 37  1  0
 18 38  2  0
 38 39  1  0
 11  5  1  0
 38 14  1  0
 36 22  2  0
 35 30  1  0
  3 40  1  0
  4 41  1  0
  6 42  1  0
  7 43  1  0
  8 44  1  0
 15 45  1  0
 16 46  1  0
 17 47  1  0
 27 48  1  0
 29 49  1  0
 29 50  1  0
 31 51  1  0
 32 52  1  0
 34 53  1  0
 35 54  1  0
M  CHG  8  10  -1  12  -1  13  -1  19  -1  23  -1  25  -1  37  -1  39  -1
M  END
>  <UniqueID>  (13) 
13

>  <SMILES>  (13) 
O=C(C=Cc1cccc([O-])c1[O-])[N-]c1cccc([N-]C(=O)c2[n-]c([O-])c(C=NCc3ccncc3)c2[O-])c1[O-]

>  <Energy>  (13) 
105.44602212051059

>  <Genealogy>  (13) 
O=C(C=Cc1cccc([O-])c1[O-])[N-]c1cccc([N-]C(=O)c2[n-]c([O-])c(C=NCc3ccncc3)c2[O-])c1[O-] (protonated)
O=C(C=Cc1cccc([O-])c1[O-])[N-]c1cccc([N-]C(=O)c2[n-]c([O-])c(C=NCc3ccncc3)c2[O-])c1[O-] (3D coordinates assigned)
O=C(C=Cc1cccc([O-])c1[O-])[N-]c1cccc([N-]C(=O)c2[n-]c([O-])c(C=NCc3ccncc3)c2[O-])c1[O-] (optimized conformer: 105.44602212051059 kcal/mol)

>  <smiles>  (13) 
O=C(C=Cc1cccc(O)c1O)Nc1cccc(NC(=O)c2[nH]c(O)c(C=NCc3ccncc3)c2O)c1O

>  <score_type>  (13) 
oracle

>  <origin>  (13) 
adg

>  <m_score__min__energy>  (13) 
-22.23

>  <m_primary>  (13) 
energy

$$$$
13:0
     RDKit          3D

 37 38  0  0  0  0  0  0  0  0999 V2000
   54.8290   26.3310   46.0190 O   0  0  0  0  0  0  0  0  0  0  0  0
   55.8980   26.8830   45.6470 C   0  0  0  0  0  0  0  0  0  0  0  0
   57.1270   26.1480   45.6430 N   0  0  0  0  0  0  0  0  0  0  0  0
   57.9270   25.8900   46.8360 C   0  0  0  0  0  0  0  0  0  0  0  0
   59.4070   25.6670   46.4880 C   0  0  0  0  0  0  0  0  0  0  0  0
   60.3600   26.6510   47.1860 C   0  0  0  0  0  0  0  0  0  0  0  0
   59.9380   28.0860   46.9970 C   0  0  0  0  0  0  0  0  0  0  0  0
   59.2650   28.7700   48.0240 C   0  0  0  0  0  0  0  0  0  0  0  0
   58.8960   30.1080   47.8540 C   0  0  0  0  0  0  0  0  0  0  0  0
   59.1990   30.7730   46.6630 C   0  0  0  0  0  0  0  0  0  0  0  0
   59.8740   30.1010   45.6400 C   0  0  0  0  0  0  0  0  0  0  0  0
   60.2450   28.7630   45.8060 C   0  0  0  0  0  0  0  0  0  0  0  0
   55.8740   28.2560   45.2480 N   0  0  0  0  0  0  0  0  0  0  0  0
   56.9440   28.8950   44.4900 C   0  0  0  0  0  0  0  0  0  0  0  0
   56.3800   29.9910   43.5850 C   0  0  0  0  0  0  0  0  0  0  0  0
   56.9650   31.3220   43.9430 C   0  0  0  0  0  0  0  0  0  0  0  0
   57.9480   31.9870   43.2490 C   0  0  0  0  0  0  0  0  0  0  0  0
   58.2530   33.1190   43.9070 N   0  0  0  0  0  0  0  0  0  0  0  0
   57.4440   33.0990   44.9880 C   0  0  0  0  0  0  0  0  0  0  0  0
   56.6470   32.0130   45.0510 N   0  0  0  0  0  0  0  0  0  0  0  0
   57.8458   26.7527   47.5136 H   0  0  0  0  0  0  0  0  0  0  0  0
   57.5451   24.9765   47.3151 H   0  0  0  0  0  0  0  0  0  0  0  0
   59.6838   24.6449   46.7857 H   0  0  0  0  0  0  0  0  0  0  0  0
   59.5114   25.8310   45.4053 H   0  0  0  0  0  0  0  0  0  0  0  0
   60.3754   26.4254   48.2625 H   0  0  0  0  0  0  0  0  0  0  0  0
   61.3568   26.5309   46.7366 H   0  0  0  0  0  0  0  0  0  0  0  0
   59.0278   28.2511   48.9645 H   0  0  0  0  0  0  0  0  0  0  0  0
   58.3663   30.6380   48.6593 H   0  0  0  0  0  0  0  0  0  0  0  0
   58.9064   31.8251   46.5305 H   0  0  0  0  0  0  0  0  0  0  0  0
   60.1137   30.6253   44.7032 H   0  0  0  0  0  0  0  0  0  0  0  0
   60.7796   28.2388   45.0001 H   0  0  0  0  0  0  0  0  0  0  0  0
   57.6670   29.3399   45.1895 H   0  0  0  0  0  0  0  0  0  0  0  0
   57.4379   28.1369   43.8644 H   0  0  0  0  0  0  0  0  0  0  0  0
   56.6256   29.7577   42.5384 H   0  0  0  0  0  0  0  0  0  0  0  0
   55.2891   30.0352   43.7188 H   0  0  0  0  0  0  0  0  0  0  0  0
   58.4093   31.6484   42.3095 H   0  0  0  0  0  0  0  0  0  0  0  0
   57.4358   33.8950   45.7471 H   0  0  0  0  0  0  0  0  0  0  0  0
  1  2  2  0
  2  3  1  0
  3  4  1  0
  4  5  1  0
  5  6  1  0
  6  7  1  0
  7  8  2  0
  8  9  1  0
  9 10  2  0
 10 11  1  0
 11 12  2  0
  2 13  1  0
 13 14  1  0
 14 15  1  0
 15 16  1  0
 16 17  2  0
 17 18  1  0
 18 19  1  0
 19 20  2  0
 12  7  1  0
 20 16  1  0
  4 21  1  0
  4 22  1  0
  5 23  1  0
  5 24  1  0
  6 25  1  0
  6 26  1  0
  8 27  1  0
  9 28  1  0
 10 29  1  0
 11 30  1  0
 12 31  1  0
 14 32  1  0
 14 33  1  0
 15 34  1  0
 15 35  1  0
 17 36  1  0
 19 37  1  0
M  CHG  3   3  -1  13  -1  18  -1
M  END
>  <UniqueID>  (14) 
14

>  <SMILES>  (14) 
O=C([N-]CCCc1ccccc1)[N-]CCc1c[n-]cn1

>  <Energy>  (14) 
51.609760199478316

>  <Genealogy>  (14) 
O=C([N-]CCCc1ccccc1)[N-]CCc1c[n-]cn1 (protonated)
O=C([N-]CCCc1ccccc1)[N-]CCc1c[n-]cn1 (3D coordinates assigned)
O=C([N-]CCCc1ccccc1)[N-]CCc1c[n-]cn1 (optimized conformer: 51.609760199478316 kcal/mol)

>  <smiles>  (14) 
O=C(NCCCc1ccccc1)NCCc1c[nH]cn1

>  <score_type>  (14) 
oracle

>  <origin>  (14) 
adg

>  <m_score__min__energy>  (14) 
-12.789999999999999

>  <m_primary>  (14) 
energy

$$$$
14:0
     RDKit          3D

 42 46  0  0  0  0  0  0  0  0999 V2000
   54.3980   26.7120   45.1640 H   0  0  0  0  0  0  0  0  0  0  0  0
   54.8950   26.7100   46.0460 O   0  0  0  0  0  0  0  0  0  0  0  0
   55.9590   25.8440   46.2800 C   0  0  0  0  0  0  0  0  0  0  0  0
   55.9010   24.8210   47.1470 N   0  0  0  0  0  0  0  0  0  0  0  0
   57.1370   24.2850   47.0600 C   0  0  0  0  0  0  0  0  0  0  0  0
   57.4920   23.2860   47.7370 O   0  0  0  0  0  0  0  0  0  0  0  0
   57.9640   24.9090   46.1940 N   0  0  0  0  0  0  0  0  0  0  0  0
   57.2010   25.8910   45.6830 C   0  0  0  0  0  0  0  0  0  0  0  0
   57.6960   26.9570   44.7940 C   0  0  0  0  0  0  0  0  0  0  0  0
   58.1465   26.6561   43.8366 H   0  0  0  0  0  0  0  0  0  0  0  0
   57.6360   28.2690   45.0700 C   0  0  0  0  0  0  0  0  0  0  0  0
   57.0410   29.2400   44.2660 C   0  0  0  0  0  0  0  0  0  0  0  0
   56.5559   29.0456   43.2981 H   0  0  0  0  0  0  0  0  0  0  0  0
   57.1470   30.4580   44.8500 N   0  0  0  0  0  0  0  0  0  0  0  0
   57.8050   30.2780   45.9840 N   0  0  0  0  0  0  0  0  0  0  0  0
   58.1790   31.2190   46.8820 C   0  0  0  0  0  0  0  0  0  0  0  0
   57.8380   32.4620   46.7190 N   0  0  0  0  0  0  0  0  0  0  0  0
   58.6160   33.4090   45.9260 C   0  0  0  0  0  0  0  0  0  0  0  0
   59.4804   33.4946   46.6009 H   0  0  0  0  0  0  0  0  0  0  0  0
   57.7640   34.3950   45.1480 C   0  0  0  0  0  0  0  0  0  0  0  0
   56.6732   34.4105   45.2888 H   0  0  0  0  0  0  0  0  0  0  0  0
   57.7620   35.4870   45.0156 H   0  0  0  0  0  0  0  0  0  0  0  0
   58.4230   33.2240   44.4320 C   0  0  0  0  0  0  0  0  0  0  0  0
   57.8085   32.3931   44.0552 H   0  0  0  0  0  0  0  0  0  0  0  0
   59.0949   33.1186   43.5674 H   0  0  0  0  0  0  0  0  0  0  0  0
   58.9250   30.8220   47.9530 N   0  0  0  0  0  0  0  0  0  0  0  0
   59.2970   29.5140   48.0970 C   0  0  0  0  0  0  0  0  0  0  0  0
   60.1320   29.1260   49.2470 C   0  0  0  0  0  0  0  0  0  0  0  0
   60.5190   30.1550   50.5230 S   0  0  0  0  0  0  0  0  0  0  0  0
   61.4470   29.0030   51.3170 C   0  0  0  0  0  0  0  0  0  0  0  0
   62.2080   29.2440   52.5750 C   0  0  0  0  0  0  0  0  0  0  0  0
   61.5605   29.0389   53.4402 H   0  0  0  0  0  0  0  0  0  0  0  0
   63.0839   28.5793   52.6068 H   0  0  0  0  0  0  0  0  0  0  0  0
   62.5415   30.2917   52.6068 H   0  0  0  0  0  0  0  0  0  0  0  0
   61.5100   27.8490   50.6170 N   0  0  0  0  0  0  0  0  0  0  0  0
   60.7830   27.9050   49.4680 C   0  0  0  0  0  0  0  0  0  0  0  0
   60.7530   26.7470   48.5200 C   0  0  0  0  0  0  0  0  0  0  0  0
   60.7286   25.8067   49.0904 H   0  0  0  0  0  0  0  0  0  0  0  0
   59.8563   26.8149   47.8865 H   0  0  0  0  0  0  0  0  0  0  0  0
   61.6520   26.7684   47.8865 H   0  0  0  0  0  0  0  0  0  0  0  0
   58.8930   28.5830   47.1820 N   0  0  0  0  0  0  0  0  0  0  0  0
   58.1220   28.9910   46.1440 C   0  0  0  0  0  0  0  0  0  0  0  0
  1  2  1  0
  2  3  1  0
  3  4  1  0
  4  5  1  0
  5  6  2  0
  5  7  1  0
  7  8  1  0
  8  9  1  0
  9 10  1  0
  9 11  2  0
 11 12  1  0
 12 13  1  0
 12 14  2  0
 14 15  1  0
 15 16  1  0
 16 17  2  0
 17 18  1  0
 18 19  1  0
 18 20  1  0
 20 21  1  0
 20 22  1  0
 20 23  1  0
 23 24  1  0
 23 25  1  0
 16 26  1  0
 26 27  2  0
 27 28  1  0
 28 29  1  0
 29 30  1  0
 30 31  1  0
 31 32  1  0
 31 33  1  0
 31 34  1  0
 30 35  2  0
 35 36  1  0
 36 37  1  0
 37 38  1  0
 37 39  1  0
 37 40  1  0
 27 41  1  0
 41 42  2  0
  8  3  2  0
 42 11  1  0
 42 15  1  0
 23 18  1  0
 36 28  2  0
M  CHG  2   4  -1   7  -1
M  END
>  <UniqueID>  (15) 
15

>  <SMILES>  (15) 
Cc1nc(C)c(-c2n/c(=N\C3CC3)n3nc/c(=C/c4[n-]c(=O)[n-]c4O)c3n2)s1

>  <Energy>  (15) 
411.8853209183617

>  <Genealogy>  (15) 
Cc1nc(C)c(-c2nc(=NC3CC3)n3ncc(=Cc4[n-]c(=O)[n-]c4O)c3n2)s1 (protonated)
Cc1nc(C)c(-c2n/c(=N\C3CC3)n3nc/c(=C/c4[n-]c(=O)[n-]c4O)c3n2)s1 (cis-trans isomerization)
Cc1nc(C)c(-c2n/c(=N\C3CC3)n3nc/c(=C/c4[n-]c(=O)[n-]c4O)c3n2)s1 (3D coordinates assigned)
Cc1nc(C)c(-c2n/c(=N\C3CC3)n3nc/c(=C/c4[n-]c(=O)[n-]c4O)c3n2)s1 (nonaromatic ring conformer: 411.8853209183617 kcal/mol)

>  <smiles>  (15) 
Cc1nc(C)c(-c2nc(=NC3CC3)n3ncc(=Cc4[nH]c(=O)[nH]c4O)c3n2)s1

>  <score_type>  (15) 
oracle

>  <origin>  (15) 
adg

>  <m_score__min__energy>  (15) 
-13.369999999999999

>  <m_primary>  (15) 
energy

$$$$
15:0
     RDKit          3D

 32 34  0  0  0  0  0  0  0  0999 V2000
   60.7960   26.7070   45.7250 O   0  0  0  0  0  0  0  0  0  0  0  0
   59.9800   27.2490   46.5190 C   0  0  0  0  0  0  0  0  0  0  0  0
   60.4520   28.1460   47.5330 N   0  0  0  0  0  0  0  0  0  0  0  0
   59.7970   29.3370   47.9930 C   0  0  0  0  0  0  0  0  0  0  0  0
   59.4480   29.4290   49.3440 C   0  0  0  0  0  0  0  0  0  0  0  0
   58.8270   30.5780   49.8350 C   0  0  0  0  0  0  0  0  0  0  0  0
   58.5600   31.6530   48.9850 C   0  0  0  0  0  0  0  0  0  0  0  0
   58.9210   31.5940   47.6240 C   0  0  0  0  0  0  0  0  0  0  0  0
   58.6680   32.7340   46.7040 C   0  0  0  0  0  0  0  0  0  0  0  0
   57.6260   32.7790   45.7700 C   0  0  0  0  0  0  0  0  0  0  0  0
   57.7180   34.2410   44.9370 S   0  0  0  0  0  0  0  0  0  0  0  0
   59.0660   34.7460   45.7940 C   0  0  0  0  0  0  0  0  0  0  0  0
   59.6510   35.8450   45.6150 O   0  0  0  0  0  0  0  0  0  0  0  0
   59.4660   33.8390   46.7060 N   0  0  0  0  0  0  0  0  0  0  0  0
   59.5530   30.4300   47.1410 C   0  0  0  0  0  0  0  0  0  0  0  0
   58.5270   26.9980   46.3670 C   0  0  0  0  0  0  0  0  0  0  0  0
   57.6940   27.9600   45.7670 C   0  0  0  0  0  0  0  0  0  0  0  0
   56.3230   27.7240   45.6200 C   0  0  0  0  0  0  0  0  0  0  0  0
   55.5230   28.6920   45.0240 O   0  0  0  0  0  0  0  0  0  0  0  0
   55.7640   26.5180   46.0730 C   0  0  0  0  0  0  0  0  0  0  0  0
   54.3990   26.2630   45.9380 O   0  0  0  0  0  0  0  0  0  0  0  0
   56.5870   25.5570   46.6710 C   0  0  0  0  0  0  0  0  0  0  0  0
   56.0430   24.3590   47.1220 O   0  0  0  0  0  0  0  0  0  0  0  0
   57.9570   25.7930   46.8170 C   0  0  0  0  0  0  0  0  0  0  0  0
   59.6642   28.5912   50.0232 H   0  0  0  0  0  0  0  0  0  0  0  0
   58.5464   30.6372   50.8970 H   0  0  0  0  0  0  0  0  0  0  0  0
   58.0645   32.5520   49.3803 H   0  0  0  0  0  0  0  0  0  0  0  0
   56.8741   31.9927   45.6074 H   0  0  0  0  0  0  0  0  0  0  0  0
   59.8589   30.3756   46.0858 H   0  0  0  0  0  0  0  0  0  0  0  0
   58.1250   28.9070   45.4100 H   0  0  0  0  0  0  0  0  0  0  0  0
   53.9560   25.4640   46.3750 H   0  0  0  0  0  0  0  0  0  0  0  0
   58.5947   25.0303   47.2876 H   0  0  0  0  0  0  0  0  0  0  0  0
  1  2  2  0
  2  3  1  0
  3  4  1  0
  4  5  2  0
  5  6  1  0
  6  7  2  0
  7  8  1  0
  8  9  1  0
  9 10  2  0
 10 11  1  0
 11 12  1  0
 12 13  2  0
 12 14  1  0
  8 15  2  0
  2 16  1  0
 16 17  2  0
 17 18  1  0
 18 19  1  0
 18 20  2  0
 20 21  1  0
 20 22  1  0
 22 23  1  0
 22 24  2  0
 15  4  1  0
 24 16  1  0
 14  9  1  0
  5 25  1  0
  6 26  1  0
  7 27  1  0
 10 28  1  0
 15 29  1  0
 17 30  1  0
 21 31  1  0
 24 32  1  0
M  CHG  4   3  -1  14  -1  19  -1  23  -1
M  END
>  <UniqueID>  (16) 
16

>  <SMILES>  (16) 
O=C([N-]c1cccc(-c2csc(=O)[n-]2)c1)c1cc([O-])c(O)c([O-])c1

>  <Energy>  (16) 
72.90403255450609

>  <Genealogy>  (16) 
O=C([N-]c1cccc(-c2csc(=O)[n-]2)c1)c1cc([O-])c(O)c([O-])c1 (protonated)
O=C([N-]c1cccc(-c2csc(=O)[n-]2)c1)c1cc([O-])c(O)c([O-])c1 (3D coordinates assigned)
O=C([N-]c1cccc(-c2csc(=O)[n-]2)c1)c1cc([O-])c(O)c([O-])c1 (optimized conformer: 72.90403255450609 kcal/mol)

>  <smiles>  (16) 
O=C(Nc1cccc(-c2csc(=O)[nH]2)c1)c1cc(O)c(O)c(O)c1

>  <score_type>  (16) 
oracle

>  <origin>  (16) 
adg

>  <m_score__min__energy>  (16) 
-15.210000000000001

>  <m_primary>  (16) 
energy

$$$$
16:0
     RDKit          3D

 39 41  0  0  0  0  0  0  0  0999 V2000
   57.0000   20.3510   44.0180 N   0  0  0  0  0  0  0  0  0  0  0  0
   56.6520   21.6790   43.6180 C   0  0  0  0  0  0  0  0  0  0  0  0
   55.9440   21.8440   42.5890 O   0  0  0  0  0  0  0  0  0  0  0  0
   57.1000   22.8580   44.3840 C   0  0  0  0  0  0  0  0  0  0  0  0
   56.4360   24.0700   44.4920 C   0  0  0  0  0  0  0  0  0  0  0  0
   57.2280   24.8570   45.3020 C   0  0  0  0  0  0  0  0  0  0  0  0
   56.8800   26.4970   45.8160 S   0  0  0  0  0  0  0  0  0  0  0  0
   57.5710   26.7930   47.1170 O   0  0  0  0  0  0  0  0  0  0  0  0
   55.3970   26.6480   45.9980 O   0  0  0  0  0  0  0  0  0  0  0  0
   57.4220   27.6210   44.6110 N   0  0  0  0  0  0  0  0  0  0  0  0
   57.5250   29.0400   44.7910 C   0  0  0  0  0  0  0  0  0  0  0  0
   56.8010   29.9510   43.9990 C   0  0  0  0  0  0  0  0  0  0  0  0
   56.9250   31.3260   44.2160 C   0  0  0  0  0  0  0  0  0  0  0  0
   57.7740   31.8090   45.2210 C   0  0  0  0  0  0  0  0  0  0  0  0
   57.9480   33.5420   45.4860 S   0  0  0  0  0  0  0  0  0  0  0  0
   56.6450   34.2230   45.1720 O   0  0  0  0  0  0  0  0  0  0  0  0
   59.0070   34.0990   44.5750 O   0  0  0  0  0  0  0  0  0  0  0  0
   58.3700   33.8580   47.1390 N   0  0  0  0  0  0  0  0  0  0  0  0
   59.6330   34.5860   47.1720 C   0  0  0  0  0  0  0  0  0  0  0  0
   60.8270   33.6770   46.9420 C   0  0  0  0  0  0  0  0  0  0  0  0
   60.5330   34.2100   48.3360 C   0  0  0  0  0  0  0  0  0  0  0  0
   58.5040   30.9040   46.0020 C   0  0  0  0  0  0  0  0  0  0  0  0
   58.3770   29.5290   45.7890 C   0  0  0  0  0  0  0  0  0  0  0  0
   58.3310   24.1100   45.6560 C   0  0  0  0  0  0  0  0  0  0  0  0
   58.2490   22.8920   45.0920 N   0  0  0  0  0  0  0  0  0  0  0  0
   56.6600   19.5350   43.4630 H   0  0  0  0  0  0  0  0  0  0  0  0
   57.5910   20.1650   44.8560 H   0  0  0  0  0  0  0  0  0  0  0  0
   55.4775   24.3465   44.0285 H   0  0  0  0  0  0  0  0  0  0  0  0
   56.1351   29.5792   43.2063 H   0  0  0  0  0  0  0  0  0  0  0  0
   56.3538   32.0321   43.5954 H   0  0  0  0  0  0  0  0  0  0  0  0
   59.2706   35.5366   46.7536 H   0  0  0  0  0  0  0  0  0  0  0  0
   60.6719   32.6116   46.7164 H   0  0  0  0  0  0  0  0  0  0  0  0
   61.6985   33.6921   46.2710 H   0  0  0  0  0  0  0  0  0  0  0  0
   60.1651   33.5302   49.1187 H   0  0  0  0  0  0  0  0  0  0  0  0
   61.1035   34.7704   49.0913 H   0  0  0  0  0  0  0  0  0  0  0  0
   59.1796   31.2771   46.7858 H   0  0  0  0  0  0  0  0  0  0  0  0
   58.9506   28.8252   46.4100 H   0  0  0  0  0  0  0  0  0  0  0  0
   59.1520   24.4568   46.3007 H   0  0  0  0  0  0  0  0  0  0  0  0
   58.9460   22.1220   45.1930 H   0  0  0  0  0  0  0  0  0  0  0  0
  1  2  1  0
  2  3  2  0
  2  4  1  0
  4  5  2  0
  5  6  1  0
  6  7  1  0
  7  8  2  0
  7  9  2  0
  7 10  1  0
 10 11  1  0
 11 12  2  0
 12 13  1  0
 13 14  2  0
 14 15  1  0
 15 16  2  0
 15 17  2  0
 15 18  1  0
 18 19  1  0
 19 20  1  0
 20 21  1  0
 14 22  1  0
 22 23  2  0
  6 24  2  0
 24 25  1  0
 25  4  1  0
 23 11  1  0
 21 19  1  0
  1 26  1  0
  1 27  1  0
  5 28  1  0
 12 29  1  0
 13 30  1  0
 19 31  1  0
 20 32  1  0
 20 33  1  0
 21 34  1  0
 21 35  1  0
 22 36  1  0
 23 37  1  0
 24 38  1  0
 25 39  1  0
M  CHG  2  10  -1  18  -1
M  END
>  <UniqueID>  (17) 
17

>  <SMILES>  (17) 
NC(=O)c1cc(S(=O)(=O)[N-]c2ccc(S(=O)(=O)[N-]C3CC3)cc2)c[nH]1

>  <Energy>  (17) 
329.48345445806154

>  <Genealogy>  (17) 
NC(=O)c1cc(S(=O)(=O)[N-]c2ccc(S(=O)(=O)[N-]C3CC3)cc2)c[nH]1 (protonated)
NC(=O)c1cc(S(=O)(=O)[N-]c2ccc(S(=O)(=O)[N-]C3CC3)cc2)c[nH]1 (3D coordinates assigned)
NC(=O)c1cc(S(=O)(=O)[N-]c2ccc(S(=O)(=O)[N-]C3CC3)cc2)c[nH]1 (nonaromatic ring conformer: 329.48345445806154 kcal/mol)

>  <smiles>  (17) 
NC(=O)c1cc(S(=O)(=O)Nc2ccc(S(=O)(=O)NC3CC3)cc2)c[nH]1

>  <score_type>  (17) 
oracle

>  <origin>  (17) 
adg

>  <m_score__min__energy>  (17) 
-10.869999999999999

>  <m_primary>  (17) 
energy

$$$$
17:0
     RDKit          3D

 59 62  0  0  0  0  0  0  0  0999 V2000
   54.9380   29.3400   44.1390 O   0  0  0  0  0  0  0  0  0  0  0  0
   56.0890   29.6820   44.5190 C   0  0  0  0  0  0  0  0  0  0  0  0
   57.1940   28.6480   44.5470 C   0  0  0  0  0  0  0  0  0  0  0  0
   58.3250   29.0530   45.4160 N   0  0  0  0  0  0  0  0  0  0  0  0
   58.3250   28.2370   46.6540 C   0  0  0  0  0  0  0  0  0  0  0  0
   59.6420   28.3930   47.4430 C   0  0  0  0  0  0  0  0  0  0  0  0
   60.3870   29.4990   46.9780 O   0  0  0  0  0  0  0  0  0  0  0  0
   60.7980   29.2720   45.6420 C   0  0  0  0  0  0  0  0  0  0  0  0
   59.6190   28.9000   44.7140 C   0  0  0  0  0  0  0  0  0  0  0  0
   56.3180   31.0570   44.8560 N   0  0  0  0  0  0  0  0  0  0  0  0
   57.4190   31.8910   44.3820 C   0  0  0  0  0  0  0  0  0  0  0  0
   58.1810   32.4570   45.5400 C   0  0  0  0  0  0  0  0  0  0  0  0
   58.1240   32.0060   46.8560 C   0  0  0  0  0  0  0  0  0  0  0  0
   58.9720   32.7120   47.7170 C   0  0  0  0  0  0  0  0  0  0  0  0
   59.6840   33.7190   47.0770 C   0  0  0  0  0  0  0  0  0  0  0  0
   60.6840   34.6270   47.7260 C   0  0  0  0  0  0  0  0  0  0  0  0
   62.0330   34.0190   47.7450 N   0  0  0  0  0  0  0  0  0  0  0  0
   62.6610   34.0320   49.0870 C   0  0  0  0  0  0  0  0  0  0  0  0
   61.9900   33.0350   50.0410 C   0  0  0  0  0  0  0  0  0  0  0  0
   61.7650   31.7450   49.3810 N   0  0  0  0  0  0  0  0  0  0  0  0
   61.2040   30.6510   50.1360 C   0  0  0  0  0  0  0  0  0  0  0  0
   62.0400   29.6570   50.6790 C   0  0  0  0  0  0  0  0  0  0  0  0
   61.4950   28.5980   51.4110 C   0  0  0  0  0  0  0  0  0  0  0  0
   60.1140   28.5180   51.6040 C   0  0  0  0  0  0  0  0  0  0  0  0
   59.2740   29.4990   51.0710 C   0  0  0  0  0  0  0  0  0  0  0  0
   57.9330   29.4180   51.2590 F   0  0  0  0  0  0  0  0  0  0  0  0
   59.8140   30.5610   50.3390 C   0  0  0  0  0  0  0  0  0  0  0  0
   62.3520   31.5090   48.0580 C   0  0  0  0  0  0  0  0  0  0  0  0
   62.0440   32.6780   47.1010 C   0  0  0  0  0  0  0  0  0  0  0  0
   59.2760   33.7310   45.4440 S   0  0  0  0  0  0  0  0  0  0  0  0
   56.7814   27.7001   44.9230 H   0  0  0  0  0  0  0  0  0  0  0  0
   57.5797   28.5414   43.5224 H   0  0  0  0  0  0  0  0  0  0  0  0
   58.2000   30.0570   45.6920 H   0  0  0  0  0  0  0  0  0  0  0  0
   57.4878   28.5573   47.2916 H   0  0  0  0  0  0  0  0  0  0  0  0
   58.2214   27.1802   46.3670 H   0  0  0  0  0  0  0  0  0  0  0  0
   59.4074   28.5402   48.5076 H   0  0  0  0  0  0  0  0  0  0  0  0
   60.2434   27.4830   47.3011 H   0  0  0  0  0  0  0  0  0  0  0  0
   61.2730   30.1872   45.2589 H   0  0  0  0  0  0  0  0  0  0  0  0
   61.4987   28.4240   45.6478 H   0  0  0  0  0  0  0  0  0  0  0  0
   59.6314   29.5598   43.8340 H   0  0  0  0  0  0  0  0  0  0  0  0
   59.7306   27.8492   44.4083 H   0  0  0  0  0  0  0  0  0  0  0  0
   58.0962   31.2814   43.7657 H   0  0  0  0  0  0  0  0  0  0  0  0
   57.0083   32.7193   43.7860 H   0  0  0  0  0  0  0  0  0  0  0  0
   57.4781   31.1788   47.1855 H   0  0  0  0  0  0  0  0  0  0  0  0
   59.0653   32.4921   48.7908 H   0  0  0  0  0  0  0  0  0  0  0  0
   60.7255   35.5726   47.1655 H   0  0  0  0  0  0  0  0  0  0  0  0
   60.3688   34.8026   48.7651 H   0  0  0  0  0  0  0  0  0  0  0  0
   63.7237   33.7670   48.9852 H   0  0  0  0  0  0  0  0  0  0  0  0
   62.5432   35.0408   49.5093 H   0  0  0  0  0  0  0  0  0  0  0  0
   62.6385   32.8828   50.9164 H   0  0  0  0  0  0  0  0  0  0  0  0
   61.0169   33.4454   50.3486 H   0  0  0  0  0  0  0  0  0  0  0  0
   63.1279   29.7139   50.5265 H   0  0  0  0  0  0  0  0  0  0  0  0
   62.1546   27.8268   51.8355 H   0  0  0  0  0  0  0  0  0  0  0  0
   59.6871   27.6814   52.1765 H   0  0  0  0  0  0  0  0  0  0  0  0
   59.1490   31.3303   49.9195 H   0  0  0  0  0  0  0  0  0  0  0  0
   63.4423   31.4062   48.1612 H   0  0  0  0  0  0  0  0  0  0  0  0
   61.9164   30.5895   47.6400 H   0  0  0  0  0  0  0  0  0  0  0  0
   62.8078   32.6838   46.3094 H   0  0  0  0  0  0  0  0  0  0  0  0
   61.0270   32.5077   46.7180 H   0  0  0  0  0  0  0  0  0  0  0  0
  1  2  2  0
  2  3  1  0
  3  4  1  0
  4  5  1  0
  5  6  1  0
  6  7  1  0
  7  8  1  0
  8  9  1  0
  2 10  1  0
 10 11  1  0
 11 12  1  0
 12 13  2  0
 13 14  1  0
 14 15  2  0
 15 16  1  0
 16 17  1  0
 17 18  1  0
 18 19  1  0
 19 20  1  0
 20 21  1  0
 21 22  2  0
 22 23  1  0
 23 24  2  0
 24 25  1  0
 25 26  1  0
 25 27  2  0
 20 28  1  0
 28 29  1  0
 15 30  1  0
  9  4  1  0
 30 12  1  0
 29 17  1  0
 27 21  1  0
  3 31  1  0
  3 32  1  0
  4 33  1  0
  5 34  1  0
  5 35  1  0
  6 36  1  0
  6 37  1  0
  8 38  1  0
  8 39  1  0
  9 40  1  0
  9 41  1  0
 11 42  1  0
 11 43  1  0
 13 44  1  0
 14 45  1  0
 16 46  1  0
 16 47  1  0
 18 48  1  0
 18 49  1  0
 19 50  1  0
 19 51  1  0
 22 52  1  0
 23 53  1  0
 24 54  1  0
 27 55  1  0
 28 56  1  0
 28 57  1  0
 29 58  1  0
 29 59  1  0
M  CHG  2   4   1  10  -1
M  END
>  <UniqueID>  (18) 
18

>  <SMILES>  (18) 
O=C(C[NH+]1CCOCC1)[N-]Cc1ccc(CN2CCN(c3cccc(F)c3)CC2)s1

>  <Energy>  (18) 
106.68627118865247

>  <Genealogy>  (18) 
O=C(C[NH+]1CCOCC1)[N-]Cc1ccc(CN2CCN(c3cccc(F)c3)CC2)s1 (protonated)
O=C(C[NH+]1CCOCC1)[N-]Cc1ccc(CN2CCN(c3cccc(F)c3)CC2)s1 (3D coordinates assigned)
O=C(C[NH+]1CCOCC1)[N-]Cc1ccc(CN2CCN(c3cccc(F)c3)CC2)s1 (nonaromatic ring conformer: 106.68627118865247 kcal/mol)

>  <smiles>  (18) 
O=C(CN1CCOCC1)NCc1ccc(CN2CCN(c3cccc(F)c3)CC2)s1

>  <score_type>  (18) 
oracle

>  <origin>  (18) 
adg

>  <m_score__min__energy>  (18) 
-10.5

>  <m_primary>  (18) 
energy

$$$$
18:0
     RDKit          3D

 46 48  0  0  0  0  0  0  0  0999 V2000
   63.7300   33.7020   46.9620 C   0  0  0  0  0  0  0  0  0  0  0  0
   62.2840   33.4240   47.2500 C   0  0  0  0  0  0  0  0  0  0  0  0
   61.9070   32.8130   48.4520 C   0  0  0  0  0  0  0  0  0  0  0  0
   60.5590   32.5900   48.7340 C   0  0  0  0  0  0  0  0  0  0  0  0
   59.5610   32.9910   47.8310 C   0  0  0  0  0  0  0  0  0  0  0  0
   58.1200   32.7110   48.1690 C   0  0  0  0  0  0  0  0  0  0  0  0
   59.9360   33.6100   46.6120 C   0  0  0  0  0  0  0  0  0  0  0  0
   58.7320   34.1360   45.4250 S   0  0  0  0  0  0  0  0  0  0  0  0
   57.4410   34.4520   46.1290 O   0  0  0  0  0  0  0  0  0  0  0  0
   59.2470   35.3550   44.7110 O   0  0  0  0  0  0  0  0  0  0  0  0
   58.4400   32.8770   44.2670 N   0  0  0  0  0  0  0  0  0  0  0  0
   58.1230   31.5170   44.5860 C   0  0  0  0  0  0  0  0  0  0  0  0
   58.7640   30.8260   45.6290 C   0  0  0  0  0  0  0  0  0  0  0  0
   58.4230   29.4990   45.9080 C   0  0  0  0  0  0  0  0  0  0  0  0
   57.4480   28.8360   45.1400 C   0  0  0  0  0  0  0  0  0  0  0  0
   57.0570   27.4820   45.4250 N   0  0  0  0  0  0  0  0  0  0  0  0
   57.9220   26.4920   45.9990 C   0  0  0  0  0  0  0  0  0  0  0  0
   59.1670   26.6860   46.0440 O   0  0  0  0  0  0  0  0  0  0  0  0
   57.3490   25.2630   46.4750 N   0  0  0  0  0  0  0  0  0  0  0  0
   56.2350   24.7140   46.0860 C   0  0  0  0  0  0  0  0  0  0  0  0
   56.2240   23.3560   45.7450 C   0  0  0  0  0  0  0  0  0  0  0  0
   55.0330   22.7620   45.3260 C   0  0  0  0  0  0  0  0  0  0  0  0
   53.8660   23.5220   45.2520 C   0  0  0  0  0  0  0  0  0  0  0  0
   53.9100   24.8740   45.5960 C   0  0  0  0  0  0  0  0  0  0  0  0
   55.0800   25.4350   46.0010 N   0  0  0  0  0  0  0  0  0  0  0  0
   56.7970   29.5370   44.1160 C   0  0  0  0  0  0  0  0  0  0  0  0
   57.1380   30.8640   43.8380 C   0  0  0  0  0  0  0  0  0  0  0  0
   61.2970   33.8330   46.3440 C   0  0  0  0  0  0  0  0  0  0  0  0
   64.2789   33.8075   47.9094 H   0  0  0  0  0  0  0  0  0  0  0  0
   64.1552   32.8692   46.3827 H   0  0  0  0  0  0  0  0  0  0  0  0
   63.8161   34.6331   46.3827 H   0  0  0  0  0  0  0  0  0  0  0  0
   62.6763   32.5077   49.1765 H   0  0  0  0  0  0  0  0  0  0  0  0
   60.2747   32.0946   49.6741 H   0  0  0  0  0  0  0  0  0  0  0  0
   57.9977   32.6872   49.2619 H   0  0  0  0  0  0  0  0  0  0  0  0
   57.4837   33.5023   47.7459 H   0  0  0  0  0  0  0  0  0  0  0  0
   57.8263   31.7390   47.7459 H   0  0  0  0  0  0  0  0  0  0  0  0
   59.5364   31.3310   46.2276 H   0  0  0  0  0  0  0  0  0  0  0  0
   58.9205   28.9695   46.7339 H   0  0  0  0  0  0  0  0  0  0  0  0
   56.0990   27.1750   45.1420 H   0  0  0  0  0  0  0  0  0  0  0  0
   57.1476   22.7618   45.8070 H   0  0  0  0  0  0  0  0  0  0  0  0
   55.0146   21.6962   45.0545 H   0  0  0  0  0  0  0  0  0  0  0  0
   52.9217   23.0613   44.9263 H   0  0  0  0  0  0  0  0  0  0  0  0
   52.9975   25.4857   45.5393 H   0  0  0  0  0  0  0  0  0  0  0  0
   56.0123   29.0397   43.5269 H   0  0  0  0  0  0  0  0  0  0  0  0
   56.6272   31.3992   43.0239 H   0  0  0  0  0  0  0  0  0  0  0  0
   61.5913   34.3353   45.4107 H   0  0  0  0  0  0  0  0  0  0  0  0
  1  2  1  0
  2  3  2  0
  3  4  1  0
  4  5  2  0
  5  6  1  0
  5  7  1  0
  7  8  1  0
  8  9  2  0
  8 10  2  0
  8 11  1  0
 11 12  1  0
 12 13  2  0
 13 14  1  0
 14 15  2  0
 15 16  1  0
 16 17  1  0
 17 18  2  0
 17 19  1  0
 19 20  2  3
 20 21  1  0
 21 22  2  0
 22 23  1  0
 23 24  2  0
 24 25  1  0
 15 26  1  0
 26 27  2  0
  7 28  2  0
 28  2  1  0
 27 12  1  0
 25 20  1  0
  1 29  1  0
  1 30  1  0
  1 31  1  0
  3 32  1  0
  4 33  1  0
  6 34  1  0
  6 35  1  0
  6 36  1  0
 13 37  1  0
 14 38  1  0
 16 39  1  0
 21 40  1  0
 22 41  1  0
 23 42  1  0
 24 43  1  0
 26 44  1  0
 27 45  1  0
 28 46  1  0
M  CHG  2  11  -1  25  -1
M  END
>  <UniqueID>  (19) 
19

>  <SMILES>  (19) 
Cc1ccc(C)c(S(=O)(=O)[N-]c2ccc(NC(=O)N=c3cccc[n-]3)cc2)c1

>  <Energy>  (19) 
59.875963882344486

>  <Genealogy>  (19) 
Cc1ccc(C)c(S(=O)(=O)[N-]c2ccc(NC(=O)N=c3cccc[n-]3)cc2)c1 (protonated)
Cc1ccc(C)c(S(=O)(=O)[N-]c2ccc(NC(=O)N=c3cccc[n-]3)cc2)c1 (3D coordinates assigned)
Cc1ccc(C)c(S(=O)(=O)[N-]c2ccc(NC(=O)N=c3cccc[n-]3)cc2)c1 (optimized conformer: 59.875963882344486 kcal/mol)

>  <smiles>  (19) 
Cc1ccc(C)c(S(=O)(=O)Nc2ccc(NC(=O)N=c3cccc[nH]3)cc2)c1

>  <score_type>  (19) 
oracle

>  <origin>  (19) 
adg

>  <m_score__min__energy>  (19) 
-11.82

>  <m_primary>  (19) 
energy

$$$$
19:0
     RDKit          3D

 28 29  0  0  0  0  0  0  0  0999 V2000
   51.2653   32.3600   49.5980 H   0  0  0  0  0  0  0  0  0  0  0  0
   51.3980   31.9780   50.6210 C   0  0  0  0  0  0  0  0  0  0  0  0
   50.6660   32.5000   51.6370 N   0  0  0  0  0  0  0  0  0  0  0  0
   50.7950   32.0500   52.9120 C   0  0  0  0  0  0  0  0  0  0  0  0
   50.1829   32.4897   53.7133 H   0  0  0  0  0  0  0  0  0  0  0  0
   51.7030   31.0300   53.2090 C   0  0  0  0  0  0  0  0  0  0  0  0
   51.8520   30.4230   55.0230 Br  0  0  0  0  0  0  0  0  0  0  0  0
   52.4960   30.4810   52.1850 C   0  0  0  0  0  0  0  0  0  0  0  0
   53.3340   29.5250   52.4860 N   0  0  0  0  0  0  0  0  0  0  0  0
   54.7710   29.5430   52.4510 C   0  0  0  0  0  0  0  0  0  0  0  0
   55.4640   30.6150   51.7870 N   0  0  0  0  0  0  0  0  0  0  0  0
   56.7520   30.7830   51.7150 C   0  0  0  0  0  0  0  0  0  0  0  0
   57.2620   32.0380   51.8280 N   0  0  0  0  0  0  0  0  0  0  0  0
   58.6030   32.2630   51.7820 C   0  0  0  0  0  0  0  0  0  0  0  0
   59.1310   33.6560   51.9160 C   0  0  0  0  0  0  0  0  0  0  0  0
   59.2275   33.9106   52.9818 H   0  0  0  0  0  0  0  0  0  0  0  0
   60.1167   33.7226   51.4324 H   0  0  0  0  0  0  0  0  0  0  0  0
   58.4371   34.3593   51.4324 H   0  0  0  0  0  0  0  0  0  0  0  0
   59.4800   31.1850   51.6290 C   0  0  0  0  0  0  0  0  0  0  0  0
   60.5677   31.3449   51.5915 H   0  0  0  0  0  0  0  0  0  0  0  0
   58.9430   29.9020   51.5250 C   0  0  0  0  0  0  0  0  0  0  0  0
   59.7030   28.9080   51.3880 O   0  0  0  0  0  0  0  0  0  0  0  0
   57.5980   29.7240   51.5720 N   0  0  0  0  0  0  0  0  0  0  0  0
   55.4230   28.6010   53.0630 N   0  0  0  0  0  0  0  0  0  0  0  0
   54.9590   27.9720   53.7560 H   0  0  0  0  0  0  0  0  0  0  0  0
   56.4510   28.4890   52.9160 H   0  0  0  0  0  0  0  0  0  0  0  0
   52.3190   30.9580   50.8680 C   0  0  0  0  0  0  0  0  0  0  0  0
   52.9035   30.5284   50.0410 H   0  0  0  0  0  0  0  0  0  0  0  0
  1  2  1  0
  2  3  1  0
  3  4  1  0
  4  5  1  0
  4  6  2  0
  6  7  1  0
  6  8  1  0
  8  9  2  3
  9 10  1  0
 10 11  1  0
 11 12  2  0
 12 13  1  0
 13 14  1  0
 14 15  1  0
 15 16  1  0
 15 17  1  0
 15 18  1  0
 14 19  2  0
 19 20  1  0
 19 21  1  0
 21 22  2  0
 21 23  1  0
 10 24  2  0
 24 25  1  0
 24 26  1  0
  8 27  1  0
 27 28  1  0
 27  2  2  0
 23 12  1  0
M  CHG  4   3  -1  13  -1  23  -1  24   1
M  END
>  <UniqueID>  (20) 
20

>  <SMILES>  (20) 
Cc1cc(=O)[n-]/c(=N\C(=[NH2+])N=c2cc[n-]cc2Br)[n-]1

>  <Energy>  (20) 
43.21513513085436

>  <Genealogy>  (20) 
Cc1cc(=O)[n-]c(=NC(=[NH2+])N=c2cc[n-]cc2Br)[n-]1 (protonated)
Cc1cc(=O)[n-]/c(=N\C(=[NH2+])N=c2cc[n-]cc2Br)[n-]1 (cis-trans isomerization)
Cc1cc(=O)[n-]/c(=N\C(=[NH2+])N=c2cc[n-]cc2Br)[n-]1 (3D coordinates assigned)
Cc1cc(=O)[n-]/c(=N\C(=[NH2+])N=c2cc[n-]cc2Br)[n-]1 (optimized conformer: 43.21513513085436 kcal/mol)

>  <smiles>  (20) 
Cc1cc(=O)[nH]c(=NC(=N)N=c2cc[nH]cc2Br)[nH]1

>  <score_type>  (20) 
oracle

>  <origin>  (20) 
adg

>  <m_score__min__energy>  (20) 
-8.5899999999999999

>  <m_primary>  (20) 
energy

$$$$
20:0
     RDKit          3D

 24 25  0  0  1  0  0  0  0  0999 V2000
   57.0500   31.1820   43.0330 C   0  0  0  0  0  0  0  0  0  0  0  0
   56.8540   29.9760   43.8630 C   0  0  0  0  0  0  0  0  0  0  0  0
   57.7150   28.9000   44.0480 C   0  0  0  0  0  0  0  0  0  0  0  0
   57.0620   28.0560   44.9050 C   0  0  0  0  0  0  0  0  0  0  0  0
   57.4780   26.9270   45.3570 N   0  0  0  0  0  0  0  0  0  0  0  0
   56.6110   25.8560   45.6730 C   0  0  0  0  0  0  0  0  0  0  0  0
   55.6340   25.9160   46.4470 O   0  0  0  0  0  0  0  0  0  0  0  0
   56.9110   24.5620   45.0170 C   0  0  0  0  0  0  0  0  0  0  0  0
   58.0760   23.8340   45.1950 C   0  0  0  0  0  0  0  0  0  0  0  0
   57.9140   22.7350   44.4110 N   0  0  0  0  0  0  0  0  0  0  0  0
   56.7190   22.7930   43.7890 C   0  0  0  0  0  0  0  0  0  0  0  0
   56.2000   21.9680   42.9810 O   0  0  0  0  0  0  0  0  0  0  0  0
   56.0970   23.9250   44.1640 N   0  0  0  0  0  0  0  0  0  0  0  0
   55.8600   28.5780   45.2360 N   0  0  0  0  0  0  0  0  0  0  0  0
   55.7370   29.7430   44.6020 N   0  0  0  0  0  0  0  0  0  0  0  0
   57.1921   32.0566   43.6848 H   0  0  0  0  0  0  0  0  0  0  0  0
   57.9384   31.0497   42.3980 H   0  0  0  0  0  0  0  0  0  0  0  0
   56.1654   31.3378   42.3980 H   0  0  0  0  0  0  0  0  0  0  0  0
   58.7097   28.7574   43.6006 H   0  0  0  0  0  0  0  0  0  0  0  0
   58.9386   24.0880   45.8285 H   0  0  0  0  0  0  0  0  0  0  0  0
   58.5930   21.9330   44.2770 H   0  0  0  0  0  0  0  0  0  0  0  0
   55.1610   24.2820   43.8750 H   0  0  0  0  0  0  0  0  0  0  0  0
   55.1480   28.1660   45.8650 H   0  0  0  0  0  0  0  0  0  0  0  0
   54.8910   30.3680   44.6790 H   0  0  0  0  0  0  0  0  0  0  0  0
  1  2  1  0
  2  3  2  0
  3  4  1  0
  4  5  2  0
  5  6  1  0
  6  7  2  0
  6  8  1  0
  8  9  2  0
  9 10  1  0
 10 11  1  0
 11 12  2  0
 11 13  1  0
  4 14  1  0
 14 15  1  0
 15  2  1  0
 13  8  1  0
  1 16  1  0
  1 17  1  0
  1 18  1  0
  3 19  1  0
  9 20  1  0
 10 21  1  0
 13 22  1  0
 14 23  1  0
 15 24  1  0
M  END
>  <smiles>  (21) 
Cc1cc(=NC(=O)c2c[nH]c(=O)[nH]2)[nH][nH]1

>  <score_type>  (21) 
oracle

>  <origin>  (21) 
adg

>  <m_score__min__energy>  (21) 
-6.3099999999999996

>  <m_primary>  (21) 
energy

$$$$
21:0
     RDKit          3D

 52 54  0  0  0  0  0  0  0  0999 V2000
   57.4820   25.1110   43.7070 C   0  0  0  0  0  0  0  0  0  0  0  0
   58.2910   24.7140   44.8570 N   0  0  0  0  0  0  0  0  0  0  0  0
   58.7780   25.7160   45.7620 C   0  0  0  0  0  0  0  0  0  0  0  0
   60.1360   25.7130   46.1150 C   0  0  0  0  0  0  0  0  0  0  0  0
   60.6270   26.6280   47.0440 C   0  0  0  0  0  0  0  0  0  0  0  0
   59.7640   27.5470   47.6410 C   0  0  0  0  0  0  0  0  0  0  0  0
   58.4100   27.5620   47.2990 C   0  0  0  0  0  0  0  0  0  0  0  0
   57.8990   26.6570   46.3510 C   0  0  0  0  0  0  0  0  0  0  0  0
   56.4640   26.7240   45.9810 C   0  0  0  0  0  0  0  0  0  0  0  0
   55.7650   25.6740   45.9690 O   0  0  0  0  0  0  0  0  0  0  0  0
   55.8880   27.9700   45.5740 N   0  0  0  0  0  0  0  0  0  0  0  0
   56.5600   29.0320   44.8770 C   0  0  0  0  0  0  0  0  0  0  0  0
   56.2690   29.3460   43.5400 C   0  0  0  0  0  0  0  0  0  0  0  0
   56.9180   30.4100   42.9100 C   0  0  0  0  0  0  0  0  0  0  0  0
   57.8530   31.1750   43.6070 C   0  0  0  0  0  0  0  0  0  0  0  0
   58.1490   30.8850   44.9440 C   0  0  0  0  0  0  0  0  0  0  0  0
   59.0730   31.7270   45.6560 N   0  0  0  0  0  0  0  0  0  0  0  0
   60.2030   31.2460   46.4050 C   0  0  0  0  0  0  0  0  0  0  0  0
   60.6980   30.1150   46.1470 O   0  0  0  0  0  0  0  0  0  0  0  0
   60.8550   32.1150   47.4140 C   0  0  0  0  0  0  0  0  0  0  0  0
   62.0040   31.6400   48.0700 C   0  0  0  0  0  0  0  0  0  0  0  0
   62.7130   32.4620   48.9490 C   0  0  0  0  0  0  0  0  0  0  0  0
   62.2850   33.7680   49.1860 C   0  0  0  0  0  0  0  0  0  0  0  0
   61.1330   34.2490   48.5610 C   0  0  0  0  0  0  0  0  0  0  0  0
   60.3930   33.4310   47.6890 C   0  0  0  0  0  0  0  0  0  0  0  0
   59.1600   33.9300   47.1430 N   0  0  0  0  0  0  0  0  0  0  0  0
   59.1730   34.7980   46.2440 O   0  0  0  0  0  0  0  0  0  0  0  0
   57.9700   33.3090   47.4490 O   0  0  0  0  0  0  0  0  0  0  0  0
   57.4790   29.8210   45.5800 C   0  0  0  0  0  0  0  0  0  0  0  0
   58.3620   23.0320   45.2920 S   0  0  0  0  0  0  0  0  0  0  0  0
   57.4940   22.0300   44.1010 C   0  0  0  0  0  0  0  0  0  0  0  0
   57.7150   22.8440   46.6360 O   0  0  0  0  0  0  0  0  0  0  0  0
   59.7990   22.5920   45.3610 O   0  0  0  0  0  0  0  0  0  0  0  0
   56.5461   25.5703   44.0581 H   0  0  0  0  0  0  0  0  0  0  0  0
   58.0411   25.8371   43.0985 H   0  0  0  0  0  0  0  0  0  0  0  0
   57.2497   24.2245   43.0985 H   0  0  0  0  0  0  0  0  0  0  0  0
   60.8180   24.9829   45.6549 H   0  0  0  0  0  0  0  0  0  0  0  0
   61.6952   26.6257   47.3066 H   0  0  0  0  0  0  0  0  0  0  0  0
   60.1507   28.2614   48.3827 H   0  0  0  0  0  0  0  0  0  0  0  0
   57.7362   28.2890   47.7759 H   0  0  0  0  0  0  0  0  0  0  0  0
   55.5270   28.7517   42.9866 H   0  0  0  0  0  0  0  0  0  0  0  0
   56.6909   30.6457   41.8598 H   0  0  0  0  0  0  0  0  0  0  0  0
   58.3606   32.0108   43.1033 H   0  0  0  0  0  0  0  0  0  0  0  0
   58.9500   32.7630   45.5820 H   0  0  0  0  0  0  0  0  0  0  0  0
   62.3481   30.6109   47.8893 H   0  0  0  0  0  0  0  0  0  0  0  0
   63.6110   32.0784   49.4555 H   0  0  0  0  0  0  0  0  0  0  0  0
   62.8550   34.4190   49.8652 H   0  0  0  0  0  0  0  0  0  0  0  0
   60.8004   35.2798   48.7529 H   0  0  0  0  0  0  0  0  0  0  0  0
   57.6800   29.6078   46.6403 H   0  0  0  0  0  0  0  0  0  0  0  0
   56.8616   21.3000   44.6274 H   0  0  0  0  0  0  0  0  0  0  0  0
   56.8635   22.6738   43.4702 H   0  0  0  0  0  0  0  0  0  0  0  0
   58.2212   21.4977   43.4702 H   0  0  0  0  0  0  0  0  0  0  0  0
  1  2  1  0
  2  3  1  0
  3  4  2  0
  4  5  1  0
  5  6  2  0
  6  7  1  0
  7  8  2  0
  8  9  1  0
  9 10  2  0
  9 11  1  0
 11 12  1  0
 12 13  2  0
 13 14  1  0
 14 15  2  0
 15 16  1  0
 16 17  1  0
 17 18  1  0
 18 19  2  0
 18 20  1  0
 20 21  2  0
 21 22  1  0
 22 23  2  0
 23 24  1  0
 24 25  2  0
 25 26  1  0
 26 27  2  0
 26 28  1  0
 16 29  2  0
  2 30  1  0
 30 31  1  0
 30 32  2  0
 30 33  2  0
  8  3  1  0
 29 12  1  0
 25 20  1  0
  1 34  1  0
  1 35  1  0
  1 36  1  0
  4 37  1  0
  5 38  1  0
  6 39  1  0
  7 40  1  0
 13 41  1  0
 14 42  1  0
 15 43  1  0
 17 44  1  0
 21 45  1  0
 22 46  1  0
 23 47  1  0
 24 48  1  0
 29 49  1  0
 31 50  1  0
 31 51  1  0
 31 52  1  0
M  CHG  3  11  -1  26   1  28  -1
M  END
>  <UniqueID>  (22) 
21

>  <SMILES>  (22) 
CN(c1ccccc1C(=O)[N-]c1cccc(NC(=O)c2ccccc2[N+](=O)[O-])c1)S(C)(=O)=O

>  <Energy>  (22) 
75.02860211115775

>  <Genealogy>  (22) 
CN(c1ccccc1C(=O)[N-]c1cccc(NC(=O)c2ccccc2[N+](=O)[O-])c1)S(C)(=O)=O (protonated)
CN(c1ccccc1C(=O)[N-]c1cccc(NC(=O)c2ccccc2[N+](=O)[O-])c1)S(C)(=O)=O (3D coordinates assigned)
CN(c1ccccc1C(=O)[N-]c1cccc(NC(=O)c2ccccc2[N+](=O)[O-])c1)S(C)(=O)=O (optimized conformer: 75.02860211115775 kcal/mol)

>  <smiles>  (22) 
CN(c1ccccc1C(=O)Nc1cccc(NC(=O)c2ccccc2[N+](=O)[O-])c1)S(C)(=O)=O

>  <score_type>  (22) 
oracle

>  <origin>  (22) 
adg

>  <m_score__min__energy>  (22) 
-11.75

>  <m_primary>  (22) 
energy

$$$$
22:0
     RDKit          3D

 41 43  0  0  0  0  0  0  0  0999 V2000
   56.2880   21.0620   44.5320 C   0  0  0  0  0  0  0  0  0  0  0  0
   56.5110   22.5160   44.8240 C   0  0  0  0  0  0  0  0  0  0  0  0
   56.8970   23.3920   43.7990 C   0  0  0  0  0  0  0  0  0  0  0  0
   57.0700   24.7530   44.0630 C   0  0  0  0  0  0  0  0  0  0  0  0
   56.8420   25.2680   45.3510 C   0  0  0  0  0  0  0  0  0  0  0  0
   57.0340   26.7130   45.6220 C   0  0  0  0  0  0  0  0  0  0  0  0
   56.6890   27.1860   46.7400 O   0  0  0  0  0  0  0  0  0  0  0  0
   57.6460   27.5720   44.6460 N   0  0  0  0  0  0  0  0  0  0  0  0
   57.5720   29.0070   44.7120 C   0  0  0  0  0  0  0  0  0  0  0  0
   56.3420   29.6790   44.8290 C   0  0  0  0  0  0  0  0  0  0  0  0
   55.1450   28.9740   44.8730 O   0  0  0  0  0  0  0  0  0  0  0  0
   56.3140   31.0360   44.8700 N   0  0  0  0  0  0  0  0  0  0  0  0
   57.4550   31.7650   44.7850 C   0  0  0  0  0  0  0  0  0  0  0  0
   57.3810   33.5530   44.8190 S   0  0  0  0  0  0  0  0  0  0  0  0
   57.5660   33.6800   46.6330 C   0  0  0  0  0  0  0  0  0  0  0  0
   59.0170   33.7710   47.0220 C   0  0  0  0  0  0  0  0  0  0  0  0
   59.3860   33.7550   48.3760 C   0  0  0  0  0  0  0  0  0  0  0  0
   60.7360   33.8080   48.7390 C   0  0  0  0  0  0  0  0  0  0  0  0
   61.7240   33.8710   47.7520 C   0  0  0  0  0  0  0  0  0  0  0  0
   61.3660   33.8830   46.4020 C   0  0  0  0  0  0  0  0  0  0  0  0
   60.0170   33.8330   46.0350 C   0  0  0  0  0  0  0  0  0  0  0  0
   58.6530   31.1390   44.6520 N   0  0  0  0  0  0  0  0  0  0  0  0
   58.7350   29.7850   44.6060 C   0  0  0  0  0  0  0  0  0  0  0  0
   59.8630   29.2370   44.4780 O   0  0  0  0  0  0  0  0  0  0  0  0
   56.4480   24.3850   46.3740 C   0  0  0  0  0  0  0  0  0  0  0  0
   56.2750   23.0240   46.1100 C   0  0  0  0  0  0  0  0  0  0  0  0
   56.2029   20.5069   45.4779 H   0  0  0  0  0  0  0  0  0  0  0  0
   55.3610   20.9425   43.9520 H   0  0  0  0  0  0  0  0  0  0  0  0
   57.1365   20.6701   43.9520 H   0  0  0  0  0  0  0  0  0  0  0  0
   57.0643   23.0058   42.7827 H   0  0  0  0  0  0  0  0  0  0  0  0
   57.3878   25.4283   43.2549 H   0  0  0  0  0  0  0  0  0  0  0  0
   58.3090   27.1470   43.9590 H   0  0  0  0  0  0  0  0  0  0  0  0
   57.0418   34.5804   46.9859 H   0  0  0  0  0  0  0  0  0  0  0  0
   57.1356   32.7783   47.0932 H   0  0  0  0  0  0  0  0  0  0  0  0
   58.6109   33.7006   49.1546 H   0  0  0  0  0  0  0  0  0  0  0  0
   61.0202   33.8001   49.8016 H   0  0  0  0  0  0  0  0  0  0  0  0
   62.7851   33.9112   48.0391 H   0  0  0  0  0  0  0  0  0  0  0  0
   62.1451   33.9318   45.6270 H   0  0  0  0  0  0  0  0  0  0  0  0
   59.7375   33.8422   44.9711 H   0  0  0  0  0  0  0  0  0  0  0  0
   56.2749   24.7698   47.3899 H   0  0  0  0  0  0  0  0  0  0  0  0
   55.9520   22.3473   46.9148 H   0  0  0  0  0  0  0  0  0  0  0  0
  1  2  1  0
  2  3  2  0
  3  4  1  0
  4  5  2  0
  5  6  1  0
  6  7  2  0
  6  8  1  0
  8  9  1  0
  9 10  2  0
 10 11  1  0
 10 12  1  0
 12 13  1  0
 13 14  1  0
 14 15  1  0
 15 16  1  0
 16 17  2  0
 17 18  1  0
 18 19  2  0
 19 20  1  0
 20 21  2  0
 13 22  2  0
 22 23  1  0
 23 24  2  0
  5 25  1  0
 25 26  2  0
 26  2  1  0
 23  9  1  0
 21 16  1  0
  1 27  1  0
  1 28  1  0
  1 29  1  0
  3 30  1  0
  4 31  1  0
  8 32  1  0
 15 33  1  0
 15 34  1  0
 17 35  1  0
 18 36  1  0
 19 37  1  0
 20 38  1  0
 21 39  1  0
 25 40  1  0
 26 41  1  0
M  CHG  2  11  -1  12  -1
M  END
>  <UniqueID>  (23) 
22

>  <SMILES>  (23) 
Cc1ccc(C(=O)Nc2c([O-])[n-]c(SCc3ccccc3)nc2=O)cc1

>  <Energy>  (23) 
46.87473937585463

>  <Genealogy>  (23) 
Cc1ccc(C(=O)Nc2c([O-])[n-]c(SCc3ccccc3)nc2=O)cc1 (protonated)
Cc1ccc(C(=O)Nc2c([O-])[n-]c(SCc3ccccc3)nc2=O)cc1 (3D coordinates assigned)
Cc1ccc(C(=O)Nc2c([O-])[n-]c(SCc3ccccc3)nc2=O)cc1 (optimized conformer: 46.87473937585463 kcal/mol)

>  <smiles>  (23) 
Cc1ccc(C(=O)Nc2c(O)[nH]c(SCc3ccccc3)nc2=O)cc1

>  <score_type>  (23) 
oracle

>  <origin>  (23) 
adg

>  <m_score__min__energy>  (23) 
-13.449999999999999

>  <m_primary>  (23) 
energy

$$$$
23:0
     RDKit          3D

 28 29  0  0  0  0  0  0  0  0999 V2000
   57.0160   27.9850   44.2330 O   0  0  0  0  0  0  0  0  0  0  0  0
   57.1220   28.6930   45.2710 C   0  0  0  0  0  0  0  0  0  0  0  0
   57.8080   28.1430   46.4800 C   0  0  0  0  0  0  0  0  0  0  0  0
   57.4980   26.6860   46.6310 C   0  0  0  0  0  0  0  0  0  0  0  0
   58.6300   25.5030   47.0320 S   0  0  0  0  0  0  0  0  0  0  0  0
   57.5060   24.2620   46.9010 C   0  0  0  0  0  0  0  0  0  0  0  0
   57.7640   23.0480   47.1030 O   0  0  0  0  0  0  0  0  0  0  0  0
   56.2810   24.7050   46.5470 N   0  0  0  0  0  0  0  0  0  0  0  0
   56.2730   26.0540   46.3890 C   0  0  0  0  0  0  0  0  0  0  0  0
   55.1130   26.7260   46.0070 O   0  0  0  0  0  0  0  0  0  0  0  0
   56.6280   30.0360   45.2890 N   0  0  0  0  0  0  0  0  0  0  0  0
   57.0130   31.0500   44.3140 C   0  0  0  0  0  0  0  0  0  0  0  0
   57.6470   32.2260   45.0070 C   0  0  0  0  0  0  0  0  0  0  0  0
   58.0660   33.3390   44.2610 C   0  0  0  0  0  0  0  0  0  0  0  0
   58.6740   34.4260   44.8970 C   0  0  0  0  0  0  0  0  0  0  0  0
   58.8690   34.4070   46.2820 C   0  0  0  0  0  0  0  0  0  0  0  0
   58.4600   33.3000   47.0310 C   0  0  0  0  0  0  0  0  0  0  0  0
   58.6550   33.2820   48.3730 F   0  0  0  0  0  0  0  0  0  0  0  0
   57.8510   32.2110   46.3980 C   0  0  0  0  0  0  0  0  0  0  0  0
   58.8948   28.2742   46.3726 H   0  0  0  0  0  0  0  0  0  0  0  0
   57.4517   28.6805   47.3711 H   0  0  0  0  0  0  0  0  0  0  0  0
   55.1340   27.5130   45.3710 H   0  0  0  0  0  0  0  0  0  0  0  0
   57.7323   30.6161   43.6038 H   0  0  0  0  0  0  0  0  0  0  0  0
   56.1147   31.3914   43.7787 H   0  0  0  0  0  0  0  0  0  0  0  0
   57.9154   33.3562   43.1715 H   0  0  0  0  0  0  0  0  0  0  0  0
   58.9990   35.2962   44.3079 H   0  0  0  0  0  0  0  0  0  0  0  0
   59.3445   35.2637   46.7820 H   0  0  0  0  0  0  0  0  0  0  0  0
   57.5310   31.3409   46.9901 H   0  0  0  0  0  0  0  0  0  0  0  0
  1  2  2  0
  2  3  1  0
  3  4  1  0
  4  5  1  0
  5  6  1  0
  6  7  2  0
  6  8  1  0
  8  9  1  0
  9 10  1  0
  2 11  1  0
 11 12  1  0
 12 13  1  0
 13 14  2  0
 14 15  1  0
 15 16  2  0
 16 17  1  0
 17 18  1  0
 17 19  2  0
  9  4  2  0
 19 13  1  0
  3 20  1  0
  3 21  1  0
 10 22  1  0
 12 23  1  0
 12 24  1  0
 14 25  1  0
 15 26  1  0
 16 27  1  0
 19 28  1  0
M  CHG  2   8  -1  11  -1
M  END
>  <UniqueID>  (24) 
23

>  <SMILES>  (24) 
O=C(Cc1sc(=O)[n-]c1O)[N-]Cc1cccc(F)c1

>  <Energy>  (24) 
54.33854387337862

>  <Genealogy>  (24) 
O=C(Cc1sc(=O)[n-]c1O)[N-]Cc1cccc(F)c1 (protonated)
O=C(Cc1sc(=O)[n-]c1O)[N-]Cc1cccc(F)c1 (3D coordinates assigned)
O=C(Cc1sc(=O)[n-]c1O)[N-]Cc1cccc(F)c1 (optimized conformer: 54.33854387337862 kcal/mol)

>  <smiles>  (24) 
O=C(Cc1sc(=O)[nH]c1O)NCc1cccc(F)c1

>  <score_type>  (24) 
oracle

>  <origin>  (24) 
adg

>  <m_score__min__energy>  (24) 
-11.84

>  <m_primary>  (24) 
energy

$$$$
24:0
     RDKit          3D

 49 52  0  0  0  0  0  0  0  0999 V2000
   59.3310   34.9610   48.5120 O   0  0  0  0  0  0  0  0  0  0  0  0
   59.7740   33.7820   48.4260 C   0  0  0  0  0  0  0  0  0  0  0  0
   60.0150   33.1680   47.0550 C   0  0  0  0  0  0  0  0  0  0  0  0
   58.7980   32.8170   46.2890 N   0  0  0  0  0  0  0  0  0  0  0  0
   58.9990   32.7450   44.8350 C   0  0  0  0  0  0  0  0  0  0  0  0
   57.7390   33.2830   44.1820 C   0  0  0  0  0  0  0  0  0  0  0  0
   57.1220   34.1910   45.2240 C   0  0  0  0  0  0  0  0  0  0  0  0
   57.6250   33.6610   46.5590 C   0  0  0  0  0  0  0  0  0  0  0  0
   60.0860   33.0540   49.6390 N   0  0  0  0  0  0  0  0  0  0  0  0
   61.4940   32.8310   50.0450 C   0  0  0  0  0  0  0  0  0  0  0  0
   62.0120   31.4090   49.7400 C   0  0  0  0  0  0  0  0  0  0  0  0
   61.0420   30.2790   50.1540 C   0  0  0  0  0  0  0  0  0  0  0  0
   59.6970   30.4630   49.5840 N   0  0  0  0  0  0  0  0  0  0  0  0
   59.2790   29.7210   48.4150 C   0  0  0  0  0  0  0  0  0  0  0  0
   58.5450   30.2530   47.4020 N   0  0  0  0  0  0  0  0  0  0  0  0
   58.4170   29.3880   46.3630 C   0  0  0  0  0  0  0  0  0  0  0  0
   57.7610   29.6750   45.1630 C   0  0  0  0  0  0  0  0  0  0  0  0
   57.7420   28.6970   44.1540 C   0  0  0  0  0  0  0  0  0  0  0  0
   58.3760   27.4540   44.3520 C   0  0  0  0  0  0  0  0  0  0  0  0
   59.0360   27.1780   45.5590 C   0  0  0  0  0  0  0  0  0  0  0  0
   59.0380   28.1630   46.5440 C   0  0  0  0  0  0  0  0  0  0  0  0
   59.7900   28.1440   48.0450 S   0  0  0  0  0  0  0  0  0  0  0  0
   58.6860   31.1380   50.4120 C   0  0  0  0  0  0  0  0  0  0  0  0
   58.9870   32.6460   50.5370 C   0  0  0  0  0  0  0  0  0  0  0  0
   60.5944   33.8882   46.4586 H   0  0  0  0  0  0  0  0  0  0  0  0
   60.5397   32.2187   47.2382 H   0  0  0  0  0  0  0  0  0  0  0  0
   59.8655   33.3566   44.5433 H   0  0  0  0  0  0  0  0  0  0  0  0
   59.1924   31.7096   44.5178 H   0  0  0  0  0  0  0  0  0  0  0  0
   57.9856   33.8491   43.2716 H   0  0  0  0  0  0  0  0  0  0  0  0
   57.0547   32.4788   43.8740 H   0  0  0  0  0  0  0  0  0  0  0  0
   57.4491   35.2303   45.0731 H   0  0  0  0  0  0  0  0  0  0  0  0
   56.0234   34.1945   45.1693 H   0  0  0  0  0  0  0  0  0  0  0  0
   57.9085   34.4992   47.2125 H   0  0  0  0  0  0  0  0  0  0  0  0
   56.8395   33.0802   47.0646 H   0  0  0  0  0  0  0  0  0  0  0  0
   62.1279   33.5534   49.5099 H   0  0  0  0  0  0  0  0  0  0  0  0
   61.5374   32.9608   51.1364 H   0  0  0  0  0  0  0  0  0  0  0  0
   62.1899   31.3315   48.6572 H   0  0  0  0  0  0  0  0  0  0  0  0
   62.9282   31.2723   50.3333 H   0  0  0  0  0  0  0  0  0  0  0  0
   61.4470   29.3184   49.8030 H   0  0  0  0  0  0  0  0  0  0  0  0
   60.9495   30.2984   51.2499 H   0  0  0  0  0  0  0  0  0  0  0  0
   58.1680   31.2250   47.3790 H   0  0  0  0  0  0  0  0  0  0  0  0
   57.2692   30.6472   45.0112 H   0  0  0  0  0  0  0  0  0  0  0  0
   57.2288   28.9031   43.2031 H   0  0  0  0  0  0  0  0  0  0  0  0
   58.3533   26.6957   43.5555 H   0  0  0  0  0  0  0  0  0  0  0  0
   59.5370   26.2125   45.7226 H   0  0  0  0  0  0  0  0  0  0  0  0
   57.6967   31.0063   49.9495 H   0  0  0  0  0  0  0  0  0  0  0  0
   58.7049   30.6934   51.4180 H   0  0  0  0  0  0  0  0  0  0  0  0
   58.0821   33.2141   50.2756 H   0  0  0  0  0  0  0  0  0  0  0  0
   59.2929   32.8525   51.5732 H   0  0  0  0  0  0  0  0  0  0  0  0
  1  2  2  0
  2  3  1  0
  3  4  1  0
  4  5  1  0
  5  6  1  0
  6  7  1  0
  7  8  1  0
  2  9  1  0
  9 10  1  0
 10 11  1  0
 11 12  1  0
 12 13  1  0
 13 14  1  0
 14 15  2  0
 15 16  1  0
 16 17  2  0
 17 18  1  0
 18 19  2  0
 19 20  1  0
 20 21  2  0
 21 22  1  0
 13 23  1  0
 23 24  1  0
  8  4  1  0
 24  9  1  0
 22 14  1  0
 21 16  1  0
  3 25  1  0
  3 26  1  0
  5 27  1  0
  5 28  1  0
  6 29  1  0
  6 30  1  0
  7 31  1  0
  7 32  1  0
  8 33  1  0
  8 34  1  0
 10 35  1  0
 10 36  1  0
 11 37  1  0
 11 38  1  0
 12 39  1  0
 12 40  1  0
 15 41  1  0
 17 42  1  0
 18 43  1  0
 19 44  1  0
 20 45  1  0
 23 46  1  0
 23 47  1  0
 24 48  1  0
 24 49  1  0
M  CHG  1  15   1
M  END
>  <UniqueID>  (25) 
24

>  <SMILES>  (25) 
O=C(CN1CCCC1)N1CCCN(c2[nH+]c3ccccc3s2)CC1

>  <Energy>  (25) 
98.02086210482476

>  <Genealogy>  (25) 
O=C(CN1CCCC1)N1CCCN(c2[nH+]c3ccccc3s2)CC1 (protonated)
O=C(CN1CCCC1)N1CCCN(c2[nH+]c3ccccc3s2)CC1 (3D coordinates assigned)
O=C(CN1CCCC1)N1CCCN(c2[nH+]c3ccccc3s2)CC1 (nonaromatic ring conformer: 98.02086210482476 kcal/mol)

>  <smiles>  (25) 
O=C(CN1CCCC1)N1CCCN(c2nc3ccccc3s2)CC1

>  <score_type>  (25) 
oracle

>  <origin>  (25) 
adg

>  <m_score__min__energy>  (25) 
-4.3799999999999999

>  <m_primary>  (25) 
energy

$$$$
25:0
     RDKit          3D

 53 56  0  0  0  0  0  0  0  0999 V2000
   55.8340   30.1740   53.5190 O   0  0  0  0  0  0  0  0  0  0  0  0
   55.6290   30.2580   52.2780 C   0  0  0  0  0  0  0  0  0  0  0  0
   54.3840   29.6730   51.6920 C   0  0  0  0  0  0  0  0  0  0  0  0
   53.2450   30.6430   51.8530 C   0  0  0  0  0  0  0  0  0  0  0  0
   52.6900   30.8840   53.1200 C   0  0  0  0  0  0  0  0  0  0  0  0
   51.5920   31.7390   53.2560 C   0  0  0  0  0  0  0  0  0  0  0  0
   51.0380   32.3550   52.1300 C   0  0  0  0  0  0  0  0  0  0  0  0
   49.9460   33.2030   52.2740 O   0  0  0  0  0  0  0  0  0  0  0  0
   51.5820   32.1160   50.8630 C   0  0  0  0  0  0  0  0  0  0  0  0
   51.0310   32.7200   49.7410 O   0  0  0  0  0  0  0  0  0  0  0  0
   52.6810   31.2610   50.7250 C   0  0  0  0  0  0  0  0  0  0  0  0
   56.5630   30.9460   51.4370 N   0  0  0  0  0  0  0  0  0  0  0  0
   57.9570   31.0420   51.7520 C   0  0  0  0  0  0  0  0  0  0  0  0
   58.3530   31.0170   53.0930 C   0  0  0  0  0  0  0  0  0  0  0  0
   59.6970   31.1830   53.4390 C   0  0  0  0  0  0  0  0  0  0  0  0
   60.0670   31.1670   54.7790 O   0  0  0  0  0  0  0  0  0  0  0  0
   60.6640   31.3740   52.4440 C   0  0  0  0  0  0  0  0  0  0  0  0
   62.0400   31.5250   52.8240 N   0  0  0  0  0  0  0  0  0  0  0  0
   63.1560   31.6370   51.9280 C   0  0  0  0  0  0  0  0  0  0  0  0
   64.2570   31.1310   52.2710 O   0  0  0  0  0  0  0  0  0  0  0  0
   63.0610   32.3700   50.6440 C   0  0  0  0  0  0  0  0  0  0  0  0
   63.3260   31.7240   49.4230 C   0  0  0  0  0  0  0  0  0  0  0  0
   63.2230   32.4230   48.2170 C   0  0  0  0  0  0  0  0  0  0  0  0
   62.8520   33.7690   48.2170 C   0  0  0  0  0  0  0  0  0  0  0  0
   62.5790   34.4180   49.4230 C   0  0  0  0  0  0  0  0  0  0  0  0
   62.6760   33.7230   50.6320 C   0  0  0  0  0  0  0  0  0  0  0  0
   60.2780   31.3410   51.0930 C   0  0  0  0  0  0  0  0  0  0  0  0
   58.9310   31.1740   50.7390 C   0  0  0  0  0  0  0  0  0  0  0  0
   58.5730   31.0290   49.3120 C   0  0  0  0  0  0  0  0  0  0  0  0
   58.1710   29.9040   48.9090 O   0  0  0  0  0  0  0  0  0  0  0  0
   58.6740   32.1580   48.3540 C   0  0  0  0  0  0  0  0  0  0  0  0
   59.2400   33.3890   48.7390 C   0  0  0  0  0  0  0  0  0  0  0  0
   59.2930   34.4560   47.8370 C   0  0  0  0  0  0  0  0  0  0  0  0
   58.7830   34.3090   46.5450 C   0  0  0  0  0  0  0  0  0  0  0  0
   58.2180   33.0940   46.1530 C   0  0  0  0  0  0  0  0  0  0  0  0
   58.1590   32.0250   47.0510 C   0  0  0  0  0  0  0  0  0  0  0  0
   54.5433   29.4699   50.6227 H   0  0  0  0  0  0  0  0  0  0  0  0
   54.1411   28.7353   52.2132 H   0  0  0  0  0  0  0  0  0  0  0  0
   53.1203   30.3987   54.0084 H   0  0  0  0  0  0  0  0  0  0  0  0
   51.1632   31.9273   54.2513 H   0  0  0  0  0  0  0  0  0  0  0  0
   53.1054   31.0719   49.7279 H   0  0  0  0  0  0  0  0  0  0  0  0
   57.6011   30.8655   53.8815 H   0  0  0  0  0  0  0  0  0  0  0  0
   63.6159   30.6629   49.4172 H   0  0  0  0  0  0  0  0  0  0  0  0
   63.4346   31.9118   47.2663 H   0  0  0  0  0  0  0  0  0  0  0  0
   62.7748   34.3182   47.2671 H   0  0  0  0  0  0  0  0  0  0  0  0
   62.2870   35.4785   49.4216 H   0  0  0  0  0  0  0  0  0  0  0  0
   62.4503   34.2364   51.5783 H   0  0  0  0  0  0  0  0  0  0  0  0
   61.0392   31.4471   50.3060 H   0  0  0  0  0  0  0  0  0  0  0  0
   59.6427   33.5116   49.7553 H   0  0  0  0  0  0  0  0  0  0  0  0
   59.7375   35.4137   48.1457 H   0  0  0  0  0  0  0  0  0  0  0  0
   58.8265   35.1498   45.8370 H   0  0  0  0  0  0  0  0  0  0  0  0
   57.8183   32.9779   45.1348 H   0  0  0  0  0  0  0  0  0  0  0  0
   57.7068   31.0726   46.7372 H   0  0  0  0  0  0  0  0  0  0  0  0
  1  2  2  0
  2  3  1  0
  3  4  1  0
  4  5  2  0
  5  6  1  0
  6  7  2  0
  7  8  1  0
  7  9  1  0
  9 10  1  0
  9 11  2  0
  2 12  1  0
 12 13  1  0
 13 14  2  0
 14 15  1  0
 15 16  1  0
 15 17  2  0
 17 18  1  0
 18 19  1  0
 19 20  2  0
 19 21  1  0
 21 22  2  0
 22 23  1  0
 23 24  2  0
 24 25  1  0
 25 26  2  0
 17 27  1  0
 27 28  2  0
 28 29  1  0
 29 30  2  0
 29 31  1  0
 31 32  2  0
 32 33  1  0
 33 34  2  0
 34 35  1  0
 35 36  2  0
 11  4  1  0
 28 13  1  0
 36 31  1  0
 26 21  1  0
  3 37  1  0
  3 38  1  0
  5 39  1  0
  6 40  1  0
 11 41  1  0
 14 42  1  0
 22 43  1  0
 23 44  1  0
 24 45  1  0
 25 46  1  0
 26 47  1  0
 27 48  1  0
 32 49  1  0
 33 50  1  0
 34 51  1  0
 35 52  1  0
 36 53  1  0
M  CHG  5   8  -1  10  -1  12  -1  16  -1  18  -1
M  END
>  <UniqueID>  (26) 
25

>  <SMILES>  (26) 
O=C(Cc1ccc([O-])c([O-])c1)[N-]c1cc([O-])c([N-]C(=O)c2ccccc2)cc1C(=O)c1ccccc1

>  <Energy>  (26) 
71.17263544905771

>  <Genealogy>  (26) 
O=C(Cc1ccc([O-])c([O-])c1)[N-]c1cc([O-])c([N-]C(=O)c2ccccc2)cc1C(=O)c1ccccc1 (protonated)
O=C(Cc1ccc([O-])c([O-])c1)[N-]c1cc([O-])c([N-]C(=O)c2ccccc2)cc1C(=O)c1ccccc1 (3D coordinates assigned)
O=C(Cc1ccc([O-])c([O-])c1)[N-]c1cc([O-])c([N-]C(=O)c2ccccc2)cc1C(=O)c1ccccc1 (optimized conformer: 71.17263544905771 kcal/mol)

>  <smiles>  (26) 
O=C(Cc1ccc(O)c(O)c1)Nc1cc(O)c(NC(=O)c2ccccc2)cc1C(=O)c1ccccc1

>  <score_type>  (26) 
oracle

>  <origin>  (26) 
adg

>  <m_score__min__energy>  (26) 
-20.93

>  <m_primary>  (26) 
energy

$$$$
26:0
     RDKit          3D

 51 54  0  0  0  0  0  0  0  0999 V2000
   56.4990   30.0870   42.6060 C   0  0  0  0  0  0  0  0  0  0  0  0
   56.6510   29.8960   44.3490 S   0  0  0  0  0  0  0  0  0  0  0  0
   56.8940   31.2780   44.9340 O   0  0  0  0  0  0  0  0  0  0  0  0
   55.3740   29.3330   44.9130 O   0  0  0  0  0  0  0  0  0  0  0  0
   57.9470   28.9000   44.8350 N   0  0  0  0  0  0  0  0  0  0  0  0
   58.8320   29.2020   45.9120 C   0  0  0  0  0  0  0  0  0  0  0  0
   59.6480   30.3180   45.7800 C   0  0  0  0  0  0  0  0  0  0  0  0
   60.5410   30.6900   46.7740 C   0  0  0  0  0  0  0  0  0  0  0  0
   60.6300   29.9370   47.9370 C   0  0  0  0  0  0  0  0  0  0  0  0
   59.7990   28.8200   48.0520 C   0  0  0  0  0  0  0  0  0  0  0  0
   58.9150   28.4550   47.0600 C   0  0  0  0  0  0  0  0  0  0  0  0
   59.9420   28.0590   49.3300 C   0  0  0  0  0  0  0  0  0  0  0  0
   59.8170   29.0670   50.3830 N   0  0  0  0  0  0  0  0  0  0  0  0
   58.5640   29.7700   50.2200 C   0  0  0  0  0  0  0  0  0  0  0  0
   58.7660   31.2250   50.4230 C   0  0  0  0  0  0  0  0  0  0  0  0
   58.4660   32.0040   51.4760 N   0  0  0  0  0  0  0  0  0  0  0  0
   58.8270   33.2590   51.2220 N   0  0  0  0  0  0  0  0  0  0  0  0
   59.3730   33.3000   49.9790 C   0  0  0  0  0  0  0  0  0  0  0  0
   59.9090   34.5080   49.3000 C   0  0  0  0  0  0  0  0  0  0  0  0
   61.1440   34.2290   48.5220 C   0  0  0  0  0  0  0  0  0  0  0  0
   62.3890   34.1170   49.1040 C   0  0  0  0  0  0  0  0  0  0  0  0
   63.4840   33.8530   48.2900 C   0  0  0  0  0  0  0  0  0  0  0  0
   63.3350   33.7020   46.9130 C   0  0  0  0  0  0  0  0  0  0  0  0
   62.0800   33.8140   46.3320 C   0  0  0  0  0  0  0  0  0  0  0  0
   60.9760   34.0790   47.1420 C   0  0  0  0  0  0  0  0  0  0  0  0
   59.2340   34.2360   46.3460 Br  0  0  0  0  0  0  0  0  0  0  0  0
   59.3290   32.0430   49.5020 N   0  0  0  0  0  0  0  0  0  0  0  0
   60.9660   29.9120   50.3760 C   0  0  0  0  0  0  0  0  0  0  0  0
   61.5410   30.2420   49.0440 C   0  0  0  0  0  0  0  0  0  0  0  0
   55.8278   30.9304   42.3867 H   0  0  0  0  0  0  0  0  0  0  0  0
   57.4899   30.2842   42.1710 H   0  0  0  0  0  0  0  0  0  0  0  0
   56.0843   29.1657   42.1710 H   0  0  0  0  0  0  0  0  0  0  0  0
   58.1470   27.9910   44.3370 H   0  0  0  0  0  0  0  0  0  0  0  0
   59.5845   30.9227   44.8633 H   0  0  0  0  0  0  0  0  0  0  0  0
   61.1762   31.5782   46.6414 H   0  0  0  0  0  0  0  0  0  0  0  0
   58.2778   27.5675   47.1880 H   0  0  0  0  0  0  0  0  0  0  0  0
   59.1482   27.3030   49.4214 H   0  0  0  0  0  0  0  0  0  0  0  0
   60.8981   27.5178   49.3855 H   0  0  0  0  0  0  0  0  0  0  0  0
   58.1776   29.5944   49.2052 H   0  0  0  0  0  0  0  0  0  0  0  0
   57.8436   29.3992   50.9641 H   0  0  0  0  0  0  0  0  0  0  0  0
   58.7040   34.0720   51.8820 H   0  0  0  0  0  0  0  0  0  0  0  0
   59.1413   34.8958   48.6142 H   0  0  0  0  0  0  0  0  0  0  0  0
   60.1661   35.2403   50.0795 H   0  0  0  0  0  0  0  0  0  0  0  0
   62.5130   34.2343   50.1907 H   0  0  0  0  0  0  0  0  0  0  0  0
   64.4837   33.7619   48.7398 H   0  0  0  0  0  0  0  0  0  0  0  0
   64.2139   33.4936   46.2853 H   0  0  0  0  0  0  0  0  0  0  0  0
   61.9572   33.6952   45.2454 H   0  0  0  0  0  0  0  0  0  0  0  0
   60.6877   30.8581   50.8632 H   0  0  0  0  0  0  0  0  0  0  0  0
   61.7491   29.3418   50.8972 H   0  0  0  0  0  0  0  0  0  0  0  0
   61.7754   31.3165   49.0195 H   0  0  0  0  0  0  0  0  0  0  0  0
   62.4406   29.6231   48.9107 H   0  0  0  0  0  0  0  0  0  0  0  0
  1  2  1  0
  2  3  2  0
  2  4  2  0
  2  5  1  0
  5  6  1  0
  6  7  2  0
  7  8  1  0
  8  9  2  0
  9 10  1  0
 10 11  2  0
 10 12  1  0
 12 13  1  0
 13 14  1  0
 14 15  1  0
 15 16  2  0
 16 17  1  0
 17 18  1  0
 18 19  1  0
 19 20  1  0
 20 21  2  0
 21 22  1  0
 22 23  2  0
 23 24  1  0
 24 25  2  0
 25 26  1  0
 18 27  2  0
 13 28  1  0
 28 29  1  0
 11  6  1  0
 27 15  1  0
 29  9  1  0
 25 20  1  0
  1 30  1  0
  1 31  1  0
  1 32  1  0
  5 33  1  0
  7 34  1  0
  8 35  1  0
 11 36  1  0
 12 37  1  0
 12 38  1  0
 14 39  1  0
 14 40  1  0
 17 41  1  0
 19 42  1  0
 19 43  1  0
 21 44  1  0
 22 45  1  0
 23 46  1  0
 24 47  1  0
 28 48  1  0
 28 49  1  0
 29 50  1  0
 29 51  1  0
M  END
>  <smiles>  (27) 
CS(=O)(=O)Nc1ccc2c(c1)CN(Cc1n[nH]c(Cc3ccccc3Br)n1)CC2

>  <score_type>  (27) 
oracle

>  <origin>  (27) 
adg

>  <m_score__min__energy>  (27) 
-9.6300000000000008

>  <m_primary>  (27) 
energy

$$$$
27:0
     RDKit          3D

 39 40  0  0  0  0  0  0  0  0999 V2000
   58.6848   33.4365   42.0940 H   0  0  0  0  0  0  0  0  0  0  0  0
   58.2130   32.6170   42.6560 C   0  0  0  0  0  0  0  0  0  0  0  0
   58.4270   32.4980   43.9920 N   0  0  0  0  0  0  0  0  0  0  0  0
   57.8660   31.5030   44.7320 C   0  0  0  0  0  0  0  0  0  0  0  0
   58.2150   31.4720   46.4990 S   0  0  0  0  0  0  0  0  0  0  0  0
   59.8200   30.6110   46.3550 C   0  0  0  0  0  0  0  0  0  0  0  0
   60.2956   30.8963   45.4051 H   0  0  0  0  0  0  0  0  0  0  0  0
   59.6365   29.5269   46.3884 H   0  0  0  0  0  0  0  0  0  0  0  0
   60.7330   30.9700   47.4840 C   0  0  0  0  0  0  0  0  0  0  0  0
   60.5040   30.5240   48.6380 O   0  0  0  0  0  0  0  0  0  0  0  0
   61.8730   31.8000   47.2230 N   0  0  0  0  0  0  0  0  0  0  0  0
   61.9360   33.2630   47.2810 C   0  0  0  0  0  0  0  0  0  0  0  0
   61.8020   33.7530   48.7360 C   0  0  0  0  0  0  0  0  0  0  0  0
   62.0284   32.9251   49.4240 H   0  0  0  0  0  0  0  0  0  0  0  0
   62.5073   34.5787   48.9113 H   0  0  0  0  0  0  0  0  0  0  0  0
   60.7746   34.1049   48.9113 H   0  0  0  0  0  0  0  0  0  0  0  0
   63.3060   33.6900   46.7320 C   0  0  0  0  0  0  0  0  0  0  0  0
   63.9867   33.9022   47.5696 H   0  0  0  0  0  0  0  0  0  0  0  0
   63.7233   32.8793   46.1167 H   0  0  0  0  0  0  0  0  0  0  0  0
   63.1888   34.5942   46.1167 H   0  0  0  0  0  0  0  0  0  0  0  0
   60.8280   33.8750   46.4050 C   0  0  0  0  0  0  0  0  0  0  0  0
   60.0475   34.3061   47.0491 H   0  0  0  0  0  0  0  0  0  0  0  0
   61.2566   34.6643   45.7699 H   0  0  0  0  0  0  0  0  0  0  0  0
   60.3881   33.0919   45.7699 H   0  0  0  0  0  0  0  0  0  0  0  0
   57.0300   30.5510   44.1050 C   0  0  0  0  0  0  0  0  0  0  0  0
   56.3960   29.4370   44.8510 C   0  0  0  0  0  0  0  0  0  0  0  0
   55.1400   29.3580   44.8910 O   0  0  0  0  0  0  0  0  0  0  0  0
   57.1640   28.5000   45.6250 N   0  0  0  0  0  0  0  0  0  0  0  0
   56.9580   27.2200   45.7290 C   0  0  0  0  0  0  0  0  0  0  0  0
   55.7390   26.7130   46.0070 N   0  0  0  0  0  0  0  0  0  0  0  0
   55.7500   25.3520   46.0280 C   0  0  0  0  0  0  0  0  0  0  0  0
   54.8497   24.7587   46.2461 H   0  0  0  0  0  0  0  0  0  0  0  0
   56.9810   24.7650   45.7540 C   0  0  0  0  0  0  0  0  0  0  0  0
   57.1908   23.6856   45.7251 H   0  0  0  0  0  0  0  0  0  0  0  0
   58.0910   25.9950   45.4750 S   0  0  0  0  0  0  0  0  0  0  0  0
   56.8090   30.6650   42.7220 C   0  0  0  0  0  0  0  0  0  0  0  0
   56.1692   29.9325   42.2081 H   0  0  0  0  0  0  0  0  0  0  0  0
   57.3960   31.7010   41.9980 C   0  0  0  0  0  0  0  0  0  0  0  0
   57.2157   31.7944   40.9169 H   0  0  0  0  0  0  0  0  0  0  0  0
  1  2  1  0
  2  3  2  0
  3  4  1  0
  4  5  1  0
  5  6  1  0
  6  7  1  0
  6  8  1  0
  6  9  1  0
  9 10  2  0
  9 11  1  0
 11 12  1  0
 12 13  1  0
 13 14  1  0
 13 15  1  0
 13 16  1  0
 12 17  1  0
 17 18  1  0
 17 19  1  0
 17 20  1  0
 12 21  1  0
 21 22  1  0
 21 23  1  0
 21 24  1  0
  4 25  2  0
 25 26  1  0
 26 27  2  0
 26 28  1  0
 28 29  2  0
 29 30  1  0
 30 31  1  0
 31 32  1  0
 31 33  2  0
 33 34  1  0
 33 35  1  0
 25 36  1  0
 36 37  1  0
 36 38  2  0
 38 39  1  0
 38  2  1  0
 35 29  1  0
M  CHG  2  11  -1  30  -1
M  END
>  <UniqueID>  (28) 
26

>  <SMILES>  (28) 
CC(C)(C)[N-]C(=O)CSc1ncccc1C(=O)/N=c1/[n-]ccs1

>  <Energy>  (28) 
66.63639130095602

>  <Genealogy>  (28) 
CC(C)(C)[N-]C(=O)CSc1ncccc1C(=O)N=c1[n-]ccs1 (protonated)
CC(C)(C)[N-]C(=O)CSc1ncccc1C(=O)/N=c1/[n-]ccs1 (cis-trans isomerization)
CC(C)(C)[N-]C(=O)CSc1ncccc1C(=O)/N=c1/[n-]ccs1 (3D coordinates assigned)
CC(C)(C)[N-]C(=O)CSc1ncccc1C(=O)/N=c1/[n-]ccs1 (optimized conformer: 66.63639130095602 kcal/mol)

>  <smiles>  (28) 
CC(C)(C)NC(=O)CSc1ncccc1C(=O)N=c1[nH]ccs1

>  <score_type>  (28) 
oracle

>  <origin>  (28) 
adg

>  <m_score__min__energy>  (28) 
-10.720000000000001

>  <m_primary>  (28) 
energy

$$$$
28:0
     RDKit          3D

 46 49  0  0  0  0  0  0  0  0999 V2000
   53.7420   24.5720   45.3410 O   0  0  0  0  0  0  0  0  0  0  0  0
   54.9810   24.5090   45.5550 C   0  0  0  0  0  0  0  0  0  0  0  0
   55.5770   25.3270   46.5700 N   0  0  0  0  0  0  0  0  0  0  0  0
   56.3560   26.3540   46.3740 C   0  0  0  0  0  0  0  0  0  0  0  0
   57.6250   26.3850   46.8550 N   0  0  0  0  0  0  0  0  0  0  0  0
   58.0900   27.5590   46.3780 C   0  0  0  0  0  0  0  0  0  0  0  0
   59.3660   28.0980   46.5300 C   0  0  0  0  0  0  0  0  0  0  0  0
   59.6650   29.3120   45.8740 C   0  0  0  0  0  0  0  0  0  0  0  0
   60.9840   29.8540   46.0150 N   0  0  0  0  0  0  0  0  0  0  0  0
   61.4870   30.9280   47.2820 S   0  0  0  0  0  0  0  0  0  0  0  0
   62.9530   31.2230   47.1210 O   0  0  0  0  0  0  0  0  0  0  0  0
   61.2810   30.2520   48.6040 O   0  0  0  0  0  0  0  0  0  0  0  0
   60.5450   32.4180   47.2500 C   0  0  0  0  0  0  0  0  0  0  0  0
   60.7390   33.3930   48.2420 C   0  0  0  0  0  0  0  0  0  0  0  0
   59.9930   34.5800   48.2180 C   0  0  0  0  0  0  0  0  0  0  0  0
   59.0480   34.7940   47.2100 C   0  0  0  0  0  0  0  0  0  0  0  0
   58.8440   33.8210   46.2240 C   0  0  0  0  0  0  0  0  0  0  0  0
   57.6450   34.0780   44.9640 Cl  0  0  0  0  0  0  0  0  0  0  0  0
   59.5970   32.6390   46.2380 C   0  0  0  0  0  0  0  0  0  0  0  0
   58.6620   29.9560   45.1050 C   0  0  0  0  0  0  0  0  0  0  0  0
   57.3780   29.3860   44.9870 C   0  0  0  0  0  0  0  0  0  0  0  0
   57.1350   28.1860   45.6380 C   0  0  0  0  0  0  0  0  0  0  0  0
   56.0220   27.4400   45.6240 N   0  0  0  0  0  0  0  0  0  0  0  0
   55.7890   23.4910   44.8420 C   0  0  0  0  0  0  0  0  0  0  0  0
   55.8220   23.5350   43.4350 C   0  0  0  0  0  0  0  0  0  0  0  0
   56.5350   22.5860   42.7050 C   0  0  0  0  0  0  0  0  0  0  0  0
   57.2400   21.5800   43.3630 C   0  0  0  0  0  0  0  0  0  0  0  0
   57.2450   21.5290   44.7580 C   0  0  0  0  0  0  0  0  0  0  0  0
   56.5390   22.4810   45.5180 C   0  0  0  0  0  0  0  0  0  0  0  0
   56.6240   22.3990   47.0270 C   0  0  0  0  0  0  0  0  0  0  0  0
   57.4700   23.3980   47.5280 O   0  0  0  0  0  0  0  0  0  0  0  0
   60.1222   27.5898   47.1463 H   0  0  0  0  0  0  0  0  0  0  0  0
   61.4778   33.2251   49.0395 H   0  0  0  0  0  0  0  0  0  0  0  0
   60.1515   35.3440   48.9934 H   0  0  0  0  0  0  0  0  0  0  0  0
   58.4649   35.7266   47.1916 H   0  0  0  0  0  0  0  0  0  0  0  0
   59.4449   31.8824   45.4541 H   0  0  0  0  0  0  0  0  0  0  0  0
   58.8874   30.9057   44.5978 H   0  0  0  0  0  0  0  0  0  0  0  0
   56.5920   29.8787   44.3959 H   0  0  0  0  0  0  0  0  0  0  0  0
   55.1460   27.6410   45.0900 H   0  0  0  0  0  0  0  0  0  0  0  0
   55.2772   24.3298   42.9045 H   0  0  0  0  0  0  0  0  0  0  0  0
   56.5414   22.6311   41.6059 H   0  0  0  0  0  0  0  0  0  0  0  0
   57.7926   20.8261   42.7831 H   0  0  0  0  0  0  0  0  0  0  0  0
   57.8078   20.7347   45.2702 H   0  0  0  0  0  0  0  0  0  0  0  0
   55.6184   22.5293   47.4534 H   0  0  0  0  0  0  0  0  0  0  0  0
   57.0311   21.4161   47.3066 H   0  0  0  0  0  0  0  0  0  0  0  0
   57.1870   24.2560   47.1230 H   0  0  0  0  0  0  0  0  0  0  0  0
  1  2  2  0
  2  3  1  0
  3  4  2  3
  4  5  1  0
  5  6  1  0
  6  7  2  0
  7  8  1  0
  8  9  1  0
  9 10  1  0
 10 11  2  0
 10 12  2  0
 10 13  1  0
 13 14  2  0
 14 15  1  0
 15 16  2  0
 16 17  1  0
 17 18  1  0
 17 19  2  0
  8 20  2  0
 20 21  1  0
 21 22  2  0
 22 23  1  0
  2 24  1  0
 24 25  2  0
 25 26  1  0
 26 27  2  0
 27 28  1  0
 28 29  2  0
 29 30  1  0
 30 31  1  0
 23  4  1  0
 29 24  1  0
 22  6  1  0
 19 13  1  0
  7 32  1  0
 14 33  1  0
 15 34  1  0
 16 35  1  0
 19 36  1  0
 20 37  1  0
 21 38  1  0
 23 39  1  0
 25 40  1  0
 26 41  1  0
 27 42  1  0
 28 43  1  0
 30 44  1  0
 30 45  1  0
 31 46  1  0
M  CHG  2   5  -1   9  -1
M  END
>  <UniqueID>  (29) 
27

>  <SMILES>  (29) 
O=C(N=c1[n-]c2cc([N-]S(=O)(=O)c3cccc(Cl)c3)ccc2[nH]1)c1ccccc1CO

>  <Energy>  (29) 
102.02583828337782

>  <Genealogy>  (29) 
O=C(N=c1[n-]c2cc([N-]S(=O)(=O)c3cccc(Cl)c3)ccc2[nH]1)c1ccccc1CO (protonated)
O=C(N=c1[n-]c2cc([N-]S(=O)(=O)c3cccc(Cl)c3)ccc2[nH]1)c1ccccc1CO (3D coordinates assigned)
O=C(N=c1[n-]c2cc([N-]S(=O)(=O)c3cccc(Cl)c3)ccc2[nH]1)c1ccccc1CO (optimized conformer: 102.02583828337782 kcal/mol)

>  <smiles>  (29) 
O=C(N=c1[nH]c2ccc(NS(=O)(=O)c3cccc(Cl)c3)cc2[nH]1)c1ccccc1CO

>  <score_type>  (29) 
oracle

>  <origin>  (29) 
adg

>  <m_score__min__energy>  (29) 
-13.289999999999999

>  <m_primary>  (29) 
energy

$$$$
29:0
     RDKit          3D

 38 39  0  0  0  0  0  0  0  0999 V2000
   55.6990   32.3140   52.1990 O   0  0  0  0  0  0  0  0  0  0  0  0
   56.1520   31.2900   52.7780 C   0  0  0  0  0  0  0  0  0  0  0  0
   57.5780   30.8830   52.5560 C   0  0  0  0  0  0  0  0  0  0  0  0
   57.8460   30.4980   51.0910 C   0  0  0  0  0  0  0  0  0  0  0  0
   58.5760   31.5850   50.3430 C   0  0  0  0  0  0  0  0  0  0  0  0
   58.9590   32.7620   51.0090 C   0  0  0  0  0  0  0  0  0  0  0  0
   59.6060   33.7890   50.3140 C   0  0  0  0  0  0  0  0  0  0  0  0
   59.8800   33.6470   48.9480 C   0  0  0  0  0  0  0  0  0  0  0  0
   60.5230   34.6750   48.2600 O   0  0  0  0  0  0  0  0  0  0  0  0
   59.5030   32.4750   48.2760 C   0  0  0  0  0  0  0  0  0  0  0  0
   59.7630   32.3390   46.9160 O   0  0  0  0  0  0  0  0  0  0  0  0
   58.8540   31.4470   48.9700 C   0  0  0  0  0  0  0  0  0  0  0  0
   55.3520   30.5560   53.7170 N   0  0  0  0  0  0  0  0  0  0  0  0
   54.6370   29.4900   53.5030 C   0  0  0  0  0  0  0  0  0  0  0  0
   53.1470   29.5950   53.6830 C   0  0  0  0  0  0  0  0  0  0  0  0
   52.5640   30.3850   52.5400 C   0  0  0  0  0  0  0  0  0  0  0  0
   52.5700   29.8570   51.2340 C   0  0  0  0  0  0  0  0  0  0  0  0
   51.9360   30.5390   50.1940 C   0  0  0  0  0  0  0  0  0  0  0  0
   51.2830   31.7500   50.4430 C   0  0  0  0  0  0  0  0  0  0  0  0
   50.6510   32.4250   49.4020 O   0  0  0  0  0  0  0  0  0  0  0  0
   51.2640   32.2790   51.7400 C   0  0  0  0  0  0  0  0  0  0  0  0
   50.6050   33.4770   51.9970 O   0  0  0  0  0  0  0  0  0  0  0  0
   51.9000   31.5970   52.7880 C   0  0  0  0  0  0  0  0  0  0  0  0
   55.2390   28.1420   53.3230 C   0  0  0  0  0  0  0  0  0  0  0  0
   54.5230   27.1130   53.4390 O   0  0  0  0  0  0  0  0  0  0  0  0
   56.6100   27.9900   53.1380 O   0  0  0  0  0  0  0  0  0  0  0  0
   58.2336   31.7233   52.8280 H   0  0  0  0  0  0  0  0  0  0  0  0
   57.7810   30.0013   53.1816 H   0  0  0  0  0  0  0  0  0  0  0  0
   58.4556   29.5826   51.0707 H   0  0  0  0  0  0  0  0  0  0  0  0
   56.8747   30.3418   50.5988 H   0  0  0  0  0  0  0  0  0  0  0  0
   58.7488   32.8761   52.0827 H   0  0  0  0  0  0  0  0  0  0  0  0
   59.8998   34.7089   50.8408 H   0  0  0  0  0  0  0  0  0  0  0  0
   58.5603   30.5285   48.4408 H   0  0  0  0  0  0  0  0  0  0  0  0
   52.7062   28.5873   53.6963 H   0  0  0  0  0  0  0  0  0  0  0  0
   52.9245   30.1017   54.6337 H   0  0  0  0  0  0  0  0  0  0  0  0
   53.0771   28.9019   51.0326 H   0  0  0  0  0  0  0  0  0  0  0  0
   51.9502   30.1226   49.1760 H   0  0  0  0  0  0  0  0  0  0  0  0
   51.8785   32.0126   53.8062 H   0  0  0  0  0  0  0  0  0  0  0  0
  1  2  2  0
  2  3  1  0
  3  4  1  0
  4  5  1  0
  5  6  2  0
  6  7  1  0
  7  8  2  0
  8  9  1  0
  8 10  1  0
 10 11  1  0
 10 12  2  0
  2 13  1  0
 13 14  2  3
 14 15  1  0
 15 16  1  0
 16 17  2  0
 17 18  1  0
 18 19  2  0
 19 20  1  0
 19 21  1  0
 21 22  1  0
 21 23  2  0
 14 24  1  0
 24 25  2  0
 24 26  1  0
 12  5  1  0
 23 16  1  0
  3 27  1  0
  3 28  1  0
  4 29  1  0
  4 30  1  0
  6 31  1  0
  7 32  1  0
 12 33  1  0
 15 34  1  0
 15 35  1  0
 17 36  1  0
 18 37  1  0
 23 38  1  0
M  CHG  5   9  -1  11  -1  20  -1  22  -1  26  -1
M  END
>  <UniqueID>  (30) 
28

>  <SMILES>  (30) 
O=C(CCc1ccc([O-])c([O-])c1)N=C(Cc1ccc([O-])c([O-])c1)C(=O)[O-]

>  <Energy>  (30) 
39.33487789312658

>  <Genealogy>  (30) 
O=C(CCc1ccc([O-])c([O-])c1)N=C(Cc1ccc([O-])c([O-])c1)C(=O)[O-] (protonated)
O=C(CCc1ccc([O-])c([O-])c1)N=C(Cc1ccc([O-])c([O-])c1)C(=O)[O-] (3D coordinates assigned)
O=C(CCc1ccc([O-])c([O-])c1)N=C(Cc1ccc([O-])c([O-])c1)C(=O)[O-] (optimized conformer: 39.33487789312658 kcal/mol)

>  <smiles>  (30) 
O=C(CCc1ccc(O)c(O)c1)N=C(Cc1ccc(O)c(O)c1)C(=O)O

>  <score_type>  (30) 
oracle

>  <origin>  (30) 
adg

>  <m_score__min__energy>  (30) 
-17.719999999999999

>  <m_primary>  (30) 
energy

$$$$
30:0
     RDKit          3D

 55 58  0  0  0  0  0  0  0  0999 V2000
   55.1330   26.1100   45.9530 O   0  0  0  0  0  0  0  0  0  0  0  0
   56.2290   25.4880   46.0130 C   0  0  0  0  0  0  0  0  0  0  0  0
   57.2140   25.8530   46.9890 N   0  0  0  0  0  0  0  0  0  0  0  0
   58.2830   26.7920   46.7980 C   0  0  0  0  0  0  0  0  0  0  0  0
   58.9350   26.9360   45.5600 C   0  0  0  0  0  0  0  0  0  0  0  0
   59.9710   27.8630   45.4140 C   0  0  0  0  0  0  0  0  0  0  0  0
   60.3740   28.6440   46.4990 C   0  0  0  0  0  0  0  0  0  0  0  0
   59.7490   28.4900   47.7440 C   0  0  0  0  0  0  0  0  0  0  0  0
   60.2280   29.4830   49.1170 S   0  0  0  0  0  0  0  0  0  0  0  0
   59.0340   30.1710   49.7200 O   0  0  0  0  0  0  0  0  0  0  0  0
   60.8420   28.5980   50.1660 O   0  0  0  0  0  0  0  0  0  0  0  0
   61.3850   30.6770   48.6240 N   0  0  0  0  0  0  0  0  0  0  0  0
   61.0450   31.7880   47.7790 C   0  0  0  0  0  0  0  0  0  0  0  0
   62.0360   32.6130   47.2200 C   0  0  0  0  0  0  0  0  0  0  0  0
   61.6810   33.6660   46.3740 C   0  0  0  0  0  0  0  0  0  0  0  0
   60.3370   33.9060   46.0760 C   0  0  0  0  0  0  0  0  0  0  0  0
   59.3380   33.0970   46.6300 C   0  0  0  0  0  0  0  0  0  0  0  0
   57.6570   33.3420   46.1560 S   0  0  0  0  0  0  0  0  0  0  0  0
   56.7900   33.4680   47.3800 O   0  0  0  0  0  0  0  0  0  0  0  0
   57.5560   34.6140   45.3590 O   0  0  0  0  0  0  0  0  0  0  0  0
   57.1240   31.9920   45.1830 N   0  0  0  0  0  0  0  0  0  0  0  0
   57.4640   32.2270   43.7690 C   0  0  0  0  0  0  0  0  0  0  0  0
   57.1950   30.9660   42.9210 C   0  0  0  0  0  0  0  0  0  0  0  0
   56.5360   29.9700   43.6780 O   0  0  0  0  0  0  0  0  0  0  0  0
   57.3690   29.5640   44.7510 C   0  0  0  0  0  0  0  0  0  0  0  0
   57.7510   30.7500   45.6630 C   0  0  0  0  0  0  0  0  0  0  0  0
   59.6970   32.0480   47.4900 C   0  0  0  0  0  0  0  0  0  0  0  0
   58.7140   27.5550   47.8930 C   0  0  0  0  0  0  0  0  0  0  0  0
   56.4900   24.3570   45.1060 C   0  0  0  0  0  0  0  0  0  0  0  0
   55.6460   24.0880   44.0120 C   0  0  0  0  0  0  0  0  0  0  0  0
   55.9330   23.0130   43.1700 C   0  0  0  0  0  0  0  0  0  0  0  0
   57.0610   22.2260   43.4070 C   0  0  0  0  0  0  0  0  0  0  0  0
   57.8800   22.5190   44.5000 C   0  0  0  0  0  0  0  0  0  0  0  0
   57.5790   23.5650   45.3170 N   0  0  0  0  0  0  0  0  0  0  0  0
   58.6286   26.3170   44.7038 H   0  0  0  0  0  0  0  0  0  0  0  0
   60.4706   27.9776   44.4407 H   0  0  0  0  0  0  0  0  0  0  0  0
   61.1821   29.3802   46.3766 H   0  0  0  0  0  0  0  0  0  0  0  0
   62.2920   30.6950   49.1450 H   0  0  0  0  0  0  0  0  0  0  0  0
   63.0958   32.4286   47.4498 H   0  0  0  0  0  0  0  0  0  0  0  0
   62.4618   34.3085   45.9409 H   0  0  0  0  0  0  0  0  0  0  0  0
   60.0633   34.7329   45.4042 H   0  0  0  0  0  0  0  0  0  0  0  0
   56.8525   33.0567   43.3846 H   0  0  0  0  0  0  0  0  0  0  0  0
   58.5336   32.4745   43.7012 H   0  0  0  0  0  0  0  0  0  0  0  0
   56.5645   31.2393   42.0621 H   0  0  0  0  0  0  0  0  0  0  0  0
   58.1605   30.5628   42.5816 H   0  0  0  0  0  0  0  0  0  0  0  0
   56.8356   28.8116   45.3505 H   0  0  0  0  0  0  0  0  0  0  0  0
   58.2946   29.1484   44.3261 H   0  0  0  0  0  0  0  0  0  0  0  0
   57.4080   30.5439   46.6876 H   0  0  0  0  0  0  0  0  0  0  0  0
   58.8439   30.8738   45.6467 H   0  0  0  0  0  0  0  0  0  0  0  0
   58.9131   31.4228   47.9424 H   0  0  0  0  0  0  0  0  0  0  0  0
   58.2373   27.4193   48.8750 H   0  0  0  0  0  0  0  0  0  0  0  0
   54.7665   24.7208   43.8222 H   0  0  0  0  0  0  0  0  0  0  0  0
   55.2714   22.7862   42.3210 H   0  0  0  0  0  0  0  0  0  0  0  0
   57.3023   21.3847   42.7407 H   0  0  0  0  0  0  0  0  0  0  0  0
   58.7693   21.9035   44.7006 H   0  0  0  0  0  0  0  0  0  0  0  0
  1  2  2  0
  2  3  1  0
  3  4  1  0
  4  5  2  0
  5  6  1  0
  6  7  2  0
  7  8  1  0
  8  9  1  0
  9 10  2  0
  9 11  2  0
  9 12  1  0
 12 13  1  0
 13 14  2  0
 14 15  1  0
 15 16  2  0
 16 17  1  0
 17 18  1  0
 18 19  2  0
 18 20  2  0
 18 21  1  0
 21 22  1  0
 22 23  1  0
 23 24  1  0
 24 25  1  0
 25 26  1  0
 17 27  2  0
  8 28  2  0
  2 29  1  0
 29 30  2  0
 30 31  1  0
 31 32  2  0
 32 33  1  0
 33 34  2  0
 28  4  1  0
 34 29  1  0
 27 13  1  0
 26 21  1  0
  5 35  1  0
  6 36  1  0
  7 37  1  0
 12 38  1  0
 14 39  1  0
 15 40  1  0
 16 41  1  0
 22 42  1  0
 22 43  1  0
 23 44  1  0
 23 45  1  0
 25 46  1  0
 25 47  1  0
 26 48  1  0
 26 49  1  0
 27 50  1  0
 28 51  1  0
 30 52  1  0
 31 53  1  0
 32 54  1  0
 33 55  1  0
M  CHG  1   3  -1
M  END
>  <UniqueID>  (31) 
29

>  <SMILES>  (31) 
O=C([N-]c1cccc(S(=O)(=O)Nc2cccc(S(=O)(=O)N3CCOCC3)c2)c1)c1ccccn1

>  <Energy>  (31) 
73.85385889778745

>  <Genealogy>  (31) 
O=C([N-]c1cccc(S(=O)(=O)Nc2cccc(S(=O)(=O)N3CCOCC3)c2)c1)c1ccccn1 (protonated)
O=C([N-]c1cccc(S(=O)(=O)Nc2cccc(S(=O)(=O)N3CCOCC3)c2)c1)c1ccccn1 (3D coordinates assigned)
O=C([N-]c1cccc(S(=O)(=O)Nc2cccc(S(=O)(=O)N3CCOCC3)c2)c1)c1ccccn1 (nonaromatic ring conformer: 73.85385889778745 kcal/mol)

>  <smiles>  (31) 
O=C(Nc1cccc(S(=O)(=O)Nc2cccc(S(=O)(=O)N3CCOCC3)c2)c1)c1ccccn1

>  <score_type>  (31) 
oracle

>  <origin>  (31) 
adg

>  <m_score__min__energy>  (31) 
-13.4

>  <m_primary>  (31) 
energy

$$$$
31:0
     RDKit          3D

 61 64  0  0  0  0  0  0  0  0999 V2000
   57.0510   30.1220   42.9080 O   0  0  0  0  0  0  0  0  0  0  0  0
   56.5740   30.3850   44.0550 C   0  0  0  0  0  0  0  0  0  0  0  0
   55.7770   29.3460   44.7860 C   0  0  0  0  0  0  0  0  0  0  0  0
   56.6740   28.3100   45.4000 C   0  0  0  0  0  0  0  0  0  0  0  0
   56.2700   27.0860   45.8950 C   0  0  0  0  0  0  0  0  0  0  0  0
   54.9550   26.6440   45.9990 O   0  0  0  0  0  0  0  0  0  0  0  0
   57.3490   26.3690   46.2690 N   0  0  0  0  0  0  0  0  0  0  0  0
   57.3680   25.0180   46.8370 C   0  0  0  0  0  0  0  0  0  0  0  0
   58.1880   24.0670   45.9540 C   0  0  0  0  0  0  0  0  0  0  0  0
   57.4070   23.6410   44.7680 N   0  0  0  0  0  0  0  0  0  0  0  0
   55.9590   23.7020   45.0430 C   0  0  0  0  0  0  0  0  0  0  0  0
   55.1720   23.3480   43.7570 C   0  0  0  0  0  0  0  0  0  0  0  0
   55.8820   22.5060   42.8600 O   0  0  0  0  0  0  0  0  0  0  0  0
   56.6740   21.5630   43.5550 C   0  0  0  0  0  0  0  0  0  0  0  0
   57.8130   22.2900   44.3020 C   0  0  0  0  0  0  0  0  0  0  0  0
   58.4000   27.1700   45.9850 C   0  0  0  0  0  0  0  0  0  0  0  0
   59.6000   26.8430   46.1920 O   0  0  0  0  0  0  0  0  0  0  0  0
   58.0280   28.3580   45.4510 N   0  0  0  0  0  0  0  0  0  0  0  0
   58.9010   29.4880   45.1160 C   0  0  0  0  0  0  0  0  0  0  0  0
   59.5070   30.0660   46.3690 C   0  0  0  0  0  0  0  0  0  0  0  0
   60.8450   30.4900   46.3890 C   0  0  0  0  0  0  0  0  0  0  0  0
   61.3840   31.0640   47.5450 C   0  0  0  0  0  0  0  0  0  0  0  0
   60.5960   31.2120   48.6890 C   0  0  0  0  0  0  0  0  0  0  0  0
   59.2680   30.7840   48.6810 C   0  0  0  0  0  0  0  0  0  0  0  0
   58.7250   30.2130   47.5280 C   0  0  0  0  0  0  0  0  0  0  0  0
   56.8540   31.6430   44.6800 N   0  0  0  0  0  0  0  0  0  0  0  0
   57.7830   32.6120   44.1100 C   0  0  0  0  0  0  0  0  0  0  0  0
   58.4130   33.4230   45.2000 C   0  0  0  0  0  0  0  0  0  0  0  0
   59.2610   34.4940   44.8910 C   0  0  0  0  0  0  0  0  0  0  0  0
   59.7710   35.2740   45.9240 C   0  0  0  0  0  0  0  0  0  0  0  0
   59.4300   34.9880   47.2500 C   0  0  0  0  0  0  0  0  0  0  0  0
   58.5810   33.9160   47.5200 C   0  0  0  0  0  0  0  0  0  0  0  0
   58.0930   33.1670   46.5000 N   0  0  0  0  0  0  0  0  0  0  0  0
   55.1945   29.8338   45.5814 H   0  0  0  0  0  0  0  0  0  0  0  0
   55.1090   28.8484   44.0675 H   0  0  0  0  0  0  0  0  0  0  0  0
   57.8166   25.0550   47.8407 H   0  0  0  0  0  0  0  0  0  0  0  0
   56.3349   24.6444   46.8929 H   0  0  0  0  0  0  0  0  0  0  0  0
   59.0996   24.5832   45.6185 H   0  0  0  0  0  0  0  0  0  0  0  0
   58.4465   23.1750   46.5436 H   0  0  0  0  0  0  0  0  0  0  0  0
   55.7063   22.9835   45.8366 H   0  0  0  0  0  0  0  0  0  0  0  0
   55.6908   24.7181   45.3680 H   0  0  0  0  0  0  0  0  0  0  0  0
   54.2429   22.8369   44.0494 H   0  0  0  0  0  0  0  0  0  0  0  0
   54.9856   24.2936   43.2268 H   0  0  0  0  0  0  0  0  0  0  0  0
   56.0475   21.0229   44.2801 H   0  0  0  0  0  0  0  0  0  0  0  0
   57.1059   20.8503   42.8370 H   0  0  0  0  0  0  0  0  0  0  0  0
   58.1052   21.6875   45.1747 H   0  0  0  0  0  0  0  0  0  0  0  0
   58.6516   22.4130   43.6008 H   0  0  0  0  0  0  0  0  0  0  0  0
   59.7049   29.1413   44.4500 H   0  0  0  0  0  0  0  0  0  0  0  0
   58.3061   30.2648   44.6133 H   0  0  0  0  0  0  0  0  0  0  0  0
   61.4715   30.3705   45.4928 H   0  0  0  0  0  0  0  0  0  0  0  0
   62.4314   31.3999   47.5534 H   0  0  0  0  0  0  0  0  0  0  0  0
   61.0223   31.6658   49.5958 H   0  0  0  0  0  0  0  0  0  0  0  0
   58.6486   30.8964   49.5831 H   0  0  0  0  0  0  0  0  0  0  0  0
   57.6779   29.8759   47.5267 H   0  0  0  0  0  0  0  0  0  0  0  0
   56.4090   31.8680   45.5990 H   0  0  0  0  0  0  0  0  0  0  0  0
   58.5677   32.0795   43.5527 H   0  0  0  0  0  0  0  0  0  0  0  0
   57.2335   33.2830   43.4334 H   0  0  0  0  0  0  0  0  0  0  0  0
   59.5204   34.7155   43.8452 H   0  0  0  0  0  0  0  0  0  0  0  0
   60.4423   36.1155   45.6979 H   0  0  0  0  0  0  0  0  0  0  0  0
   59.8276   35.6026   48.0711 H   0  0  0  0  0  0  0  0  0  0  0  0
   58.3073   33.6779   48.5585 H   0  0  0  0  0  0  0  0  0  0  0  0
  1  2  2  0
  2  3  1  0
  3  4  1  0
  4  5  2  0
  5  6  1  0
  5  7  1  0
  7  8  1  0
  8  9  1  0
  9 10  1  0
 10 11  1  0
 11 12  1  0
 12 13  1  0
 13 14  1  0
 14 15  1  0
  7 16  1  0
 16 17  2  0
 16 18  1  0
 18 19  1  0
 19 20  1  0
 20 21  2  0
 21 22  1  0
 22 23  2  0
 23 24  1  0
 24 25  2  0
  2 26  1  0
 26 27  1  0
 27 28  1  0
 28 29  2  0
 29 30  1  0
 30 31  2  0
 31 32  1  0
 32 33  2  0
 18  4  1  0
 25 20  1  0
 33 28  1  0
 15 10  1  0
  3 34  1  0
  3 35  1  0
  8 36  1  0
  8 37  1  0
  9 38  1  0
  9 39  1  0
 11 40  1  0
 11 41  1  0
 12 42  1  0
 12 43  1  0
 14 44  1  0
 14 45  1  0
 15 46  1  0
 15 47  1  0
 19 48  1  0
 19 49  1  0
 21 50  1  0
 22 51  1  0
 23 52  1  0
 24 53  1  0
 25 54  1  0
 26 55  1  0
 27 56  1  0
 27 57  1  0
 29 58  1  0
 30 59  1  0
 31 60  1  0
 32 61  1  0
M  CHG  1   6  -1
M  END
>  <UniqueID>  (32) 
30

>  <SMILES>  (32) 
O=C(Cc1c([O-])n(CCN2CCOCC2)c(=O)n1Cc1ccccc1)NCc1ccccn1

>  <Energy>  (32) 
102.09633629413811

>  <Genealogy>  (32) 
O=C(Cc1c([O-])n(CCN2CCOCC2)c(=O)n1Cc1ccccc1)NCc1ccccn1 (protonated)
O=C(Cc1c([O-])n(CCN2CCOCC2)c(=O)n1Cc1ccccc1)NCc1ccccn1 (3D coordinates assigned)
O=C(Cc1c([O-])n(CCN2CCOCC2)c(=O)n1Cc1ccccc1)NCc1ccccn1 (nonaromatic ring conformer: 102.09633629413811 kcal/mol)

>  <smiles>  (32) 
O=C(Cc1c(O)n(CCN2CCOCC2)c(=O)n1Cc1ccccc1)NCc1ccccn1

>  <score_type>  (32) 
oracle

>  <origin>  (32) 
adg

>  <m_score__min__energy>  (32) 
-12.19

>  <m_primary>  (32) 
energy

$$$$
32:0
     RDKit          3D

 61 65  0  0  1  0  0  0  0  0999 V2000
   58.6750   31.7880   49.3560 N   0  0  0  0  0  0  0  0  0  0  0  0
   60.0400   30.7560   49.0390 S   0  0  0  0  0  0  0  0  0  0  0  0
   59.6680   29.6790   48.0900 O   0  0  0  0  0  0  0  0  0  0  0  0
   60.4490   30.1000   50.3380 O   0  0  0  0  0  0  0  0  0  0  0  0
   61.3310   31.7730   48.4560 C   0  0  0  0  0  0  0  0  0  0  0  0
   62.6670   31.4040   48.5640 C   0  0  0  0  0  0  0  0  0  0  0  0
   63.6900   32.2210   48.0900 C   0  0  0  0  0  0  0  0  0  0  0  0
   63.4010   33.4410   47.4900 C   0  0  0  0  0  0  0  0  0  0  0  0
   62.0770   33.8190   47.3770 C   0  0  0  0  0  0  0  0  0  0  0  0
   61.0380   33.0030   47.8500 C   0  0  0  0  0  0  0  0  0  0  0  0
   57.1960   30.5290   45.2410 N   0  0  0  0  0  0  0  0  0  0  0  0
   57.7690   31.6780   45.3780 C   0  0  0  0  0  0  0  0  0  0  0  0
   58.4750   32.0120   46.4740 N   0  0  0  0  0  0  0  0  0  0  0  0
   59.0740   33.2320   46.6020 C   0  0  0  0  0  0  0  0  0  0  0  0
   59.7130   33.4560   47.6600 N   0  0  0  0  0  0  0  0  0  0  0  0
   58.0260   29.3830   45.2520 C   0  0  0  0  0  0  0  0  0  0  0  0
   59.3820   29.5660   45.0970 C   0  0  0  0  0  0  0  0  0  0  0  0
   60.1710   28.4360   45.1110 C   0  0  0  0  0  0  0  0  0  0  0  0
   59.6260   27.1550   45.2760 C   0  0  0  0  0  0  0  0  0  0  0  0
   58.2690   26.9720   45.4310 C   0  0  0  0  0  0  0  0  0  0  0  0
   57.7130   25.6800   45.6060 N   0  0  0  0  0  0  0  0  0  0  0  0
   58.3190   24.6820   46.5000 C   0  0  0  0  0  0  0  0  0  0  0  0
   58.7180   23.5370   45.5840 C   0  0  0  0  0  0  0  0  0  0  0  0
   57.4960   23.0160   45.0350 N   0  0  0  0  0  0  0  0  0  0  0  0
   57.6600   21.7060   44.4470 C   0  0  0  0  0  0  0  0  0  0  0  0
   57.2020   21.7150   43.0060 C   0  0  0  0  0  0  0  0  0  0  0  0
   56.0010   21.1160   43.3290 O   0  0  0  0  0  0  0  0  0  0  0  0
   56.4860   20.7860   44.5700 C   0  0  0  0  0  0  0  0  0  0  0  0
   56.7720   23.9140   44.1940 C   0  0  0  0  0  0  0  0  0  0  0  0
   56.5140   25.2210   44.9190 C   0  0  0  0  0  0  0  0  0  0  0  0
   57.4830   28.1030   45.4160 C   0  0  0  0  0  0  0  0  0  0  0  0
   57.6120   32.5400   44.3330 N   0  0  0  0  0  0  0  0  0  0  0  0
   58.2060   33.7350   44.4740 C   0  0  0  0  0  0  0  0  0  0  0  0
   58.9250   34.1050   45.5650 C   0  0  0  0  0  0  0  0  0  0  0  0
   59.6410   35.6730   45.6400 Cl  0  0  0  0  0  0  0  0  0  0  0  0
   58.2110   31.9560   48.4230 H   0  0  0  0  0  0  0  0  0  0  0  0
   59.0760   32.7100   49.6490 H   0  0  0  0  0  0  0  0  0  0  0  0
   62.9221   30.4434   49.0353 H   0  0  0  0  0  0  0  0  0  0  0  0
   64.7366   31.8979   48.1913 H   0  0  0  0  0  0  0  0  0  0  0  0
   64.2064   34.0894   47.1145 H   0  0  0  0  0  0  0  0  0  0  0  0
   61.8316   34.7820   46.9053 H   0  0  0  0  0  0  0  0  0  0  0  0
   58.5600   31.3200   47.2310 H   0  0  0  0  0  0  0  0  0  0  0  0
   59.8158   30.5686   44.9679 H   0  0  0  0  0  0  0  0  0  0  0  0
   61.2591   28.5423   44.9893 H   0  0  0  0  0  0  0  0  0  0  0  0
   60.2933   26.2805   45.2818 H   0  0  0  0  0  0  0  0  0  0  0  0
   59.2017   25.0997   47.0063 H   0  0  0  0  0  0  0  0  0  0  0  0
   57.6287   24.3597   47.2934 H   0  0  0  0  0  0  0  0  0  0  0  0
   59.3718   23.9033   44.7788 H   0  0  0  0  0  0  0  0  0  0  0  0
   59.2733   22.7613   46.1317 H   0  0  0  0  0  0  0  0  0  0  0  0
   58.6597   21.4582   44.8333 H   0  0  0  0  0  0  0  0  0  0  0  0
   57.0912   22.7253   42.5853 H   0  0  0  0  0  0  0  0  0  0  0  0
   57.8408   21.2572   42.2364 H   0  0  0  0  0  0  0  0  0  0  0  0
   55.8047   21.0550   45.3906 H   0  0  0  0  0  0  0  0  0  0  0  0
   56.6674   19.7261   44.8015 H   0  0  0  0  0  0  0  0  0  0  0  0
   57.3588   24.1128   43.2851 H   0  0  0  0  0  0  0  0  0  0  0  0
   55.8080   23.4562   43.9273 H   0  0  0  0  0  0  0  0  0  0  0  0
   56.2036   25.9827   44.1886 H   0  0  0  0  0  0  0  0  0  0  0  0
   55.7221   25.0585   45.6650 H   0  0  0  0  0  0  0  0  0  0  0  0
   56.3948   27.9973   45.5366 H   0  0  0  0  0  0  0  0  0  0  0  0
   57.0640   32.2670   43.4950 H   0  0  0  0  0  0  0  0  0  0  0  0
   58.1040   34.4609   43.6538 H   0  0  0  0  0  0  0  0  0  0  0  0
  1  2  1  0
  2  3  2  0
  2  4  2  0
  2  5  1  0
  5  6  2  0
  6  7  1  0
  7  8  2  0
  8  9  1  0
  9 10  2  0
 10 11  1  0
 11 12  2  0
 12 13  1  0
 13 14  1  0
 14 15  2  0
 15 16  1  0
 16 17  2  0
 17 18  1  0
 18 19  2  0
 19 20  1  0
 20 21  1  0
 21 22  1  0
 22 23  1  0
 23 24  1  0
 24 25  1  0
 25 26  1  0
 26 27  1  0
 27 28  1  0
 24 29  1  0
 29 30  1  0
 20 31  2  0
 14 32  1  0
 32 33  1  0
 33 34  2  0
 34 35  1  0
 10  5  1  0
 34 12  1  0
 31 16  1  0
 30 21  1  0
 28 25  1  0
  1 36  1  0
  1 37  1  0
  6 38  1  0
  7 39  1  0
  8 40  1  0
  9 41  1  0
 13 42  1  0
 17 43  1  0
 18 44  1  0
 19 45  1  0
 22 46  1  0
 22 47  1  0
 23 48  1  0
 23 49  1  0
 25 50  1  0
 26 51  1  0
 26 52  1  0
 28 53  1  0
 28 54  1  0
 29 55  1  0
 29 56  1  0
 30 57  1  0
 30 58  1  0
 31 59  1  0
 32 60  1  0
 33 61  1  0
M  END
>  <smiles>  (33) 
NS(=O)(=O)c1ccccc1N=c1[nH]c(=Nc2cccc(N3CCN(C4COC4)CC3)c2)[nH]cc1Cl

>  <score_type>  (33) 
oracle

>  <origin>  (33) 
adg

>  <m_score__min__energy>  (33) 
-10.98

>  <m_primary>  (33) 
energy

$$$$
33:0
     RDKit          3D

 51 54  0  0  0  0  0  0  0  0999 V2000
   60.3557   30.3175   47.7415 H   0  0  0  0  0  0  0  0  0  0  0  0
   59.8700   29.7020   46.9700 C   0  0  0  0  0  0  0  0  0  0  0  0
   60.0988   28.6284   46.8983 H   0  0  0  0  0  0  0  0  0  0  0  0
   58.9980   30.2610   46.1160 C   0  0  0  0  0  0  0  0  0  0  0  0
   58.3080   29.6090   45.0910 C   0  0  0  0  0  0  0  0  0  0  0  0
   58.3670   28.3030   44.7630 C   0  0  0  0  0  0  0  0  0  0  0  0
   59.0580   27.9945   43.9647 H   0  0  0  0  0  0  0  0  0  0  0  0
   57.5470   27.2640   45.4250 C   0  0  0  0  0  0  0  0  0  0  0  0
   56.1680   27.4390   45.6350 C   0  0  0  0  0  0  0  0  0  0  0  0
   55.5270   28.5980   45.2180 O   0  0  0  0  0  0  0  0  0  0  0  0
   55.4440   26.4590   46.2360 N   0  0  0  0  0  0  0  0  0  0  0  0
   56.0270   25.2960   46.6250 C   0  0  0  0  0  0  0  0  0  0  0  0
   55.3380   24.4030   47.1850 O   0  0  0  0  0  0  0  0  0  0  0  0
   57.3510   25.0930   46.4070 N   0  0  0  0  0  0  0  0  0  0  0  0
   58.1200   26.0430   45.8120 C   0  0  0  0  0  0  0  0  0  0  0  0
   59.3450   25.8190   45.6220 O   0  0  0  0  0  0  0  0  0  0  0  0
   57.4900   30.5640   44.5000 C   0  0  0  0  0  0  0  0  0  0  0  0
   56.7955   30.4075   43.6614 H   0  0  0  0  0  0  0  0  0  0  0  0
   57.7200   31.7480   45.1720 C   0  0  0  0  0  0  0  0  0  0  0  0
   57.0100   33.0370   44.8880 C   0  0  0  0  0  0  0  0  0  0  0  0
   56.7415   33.5245   45.8368 H   0  0  0  0  0  0  0  0  0  0  0  0
   57.6704   33.6996   44.3094 H   0  0  0  0  0  0  0  0  0  0  0  0
   56.0970   32.8330   44.3094 H   0  0  0  0  0  0  0  0  0  0  0  0
   58.6290   31.5650   46.1540 N   0  0  0  0  0  0  0  0  0  0  0  0
   59.0800   32.5710   47.0760 C   0  0  0  0  0  0  0  0  0  0  0  0
   59.4700   33.8330   46.6090 C   0  0  0  0  0  0  0  0  0  0  0  0
   59.4328   34.0550   45.5323 H   0  0  0  0  0  0  0  0  0  0  0  0
   59.9060   34.8100   47.5070 C   0  0  0  0  0  0  0  0  0  0  0  0
   60.2101   35.7997   47.1355 H   0  0  0  0  0  0  0  0  0  0  0  0
   59.9570   34.5340   48.8760 C   0  0  0  0  0  0  0  0  0  0  0  0
   60.3050   35.3072   49.5767 H   0  0  0  0  0  0  0  0  0  0  0  0
   59.5660   33.2730   49.3640 C   0  0  0  0  0  0  0  0  0  0  0  0
   59.6310   32.9700   50.8130 C   0  0  0  0  0  0  0  0  0  0  0  0
   58.6190   33.1490   51.5450 O   0  0  0  0  0  0  0  0  0  0  0  0
   60.8420   32.4710   51.3870 N   0  0  0  0  0  0  0  0  0  0  0  0
   61.6520   31.4320   50.7650 C   0  0  0  0  0  0  0  0  0  0  0  0
   62.3953   31.0647   51.4879 H   0  0  0  0  0  0  0  0  0  0  0  0
   61.0037   30.6007   50.4510 H   0  0  0  0  0  0  0  0  0  0  0  0
   62.3580   31.9980   49.5640 C   0  0  0  0  0  0  0  0  0  0  0  0
   62.3730   31.2830   48.3550 C   0  0  0  0  0  0  0  0  0  0  0  0
   61.8580   30.3135   48.2853 H   0  0  0  0  0  0  0  0  0  0  0  0
   63.0400   31.7990   47.2400 C   0  0  0  0  0  0  0  0  0  0  0  0
   63.0552   31.2305   46.2984 H   0  0  0  0  0  0  0  0  0  0  0  0
   63.6870   33.0340   47.3180 C   0  0  0  0  0  0  0  0  0  0  0  0
   64.2038   33.4417   46.4367 H   0  0  0  0  0  0  0  0  0  0  0  0
   63.6770   33.7510   48.5170 C   0  0  0  0  0  0  0  0  0  0  0  0
   64.1886   34.7228   48.5795 H   0  0  0  0  0  0  0  0  0  0  0  0
   63.0180   33.2360   49.6380 C   0  0  0  0  0  0  0  0  0  0  0  0
   63.0165   33.8023   50.5810 H   0  0  0  0  0  0  0  0  0  0  0  0
   59.1260   32.2970   48.4510 C   0  0  0  0  0  0  0  0  0  0  0  0
   58.8147   31.3084   48.8194 H   0  0  0  0  0  0  0  0  0  0  0  0
  1  2  1  0
  2  3  1  0
  2  4  2  0
  4  5  1  0
  5  6  2  0
  6  7  1  0
  6  8  1  0
  8  9  2  0
  9 10  1  0
  9 11  1  0
 11 12  1  0
 12 13  2  0
 12 14  1  0
 14 15  1  0
 15 16  2  0
  5 17  1  0
 17 18  1  0
 17 19  2  0
 19 20  1  0
 20 21  1  0
 20 22  1  0
 20 23  1  0
 19 24  1  0
 24 25  1  0
 25 26  2  0
 26 27  1  0
 26 28  1  0
 28 29  1  0
 28 30  2  0
 30 31  1  0
 30 32  1  0
 32 33  1  0
 33 34  2  0
 33 35  1  0
 35 36  1  0
 36 37  1  0
 36 38  1  0
 36 39  1  0
 39 40  2  0
 40 41  1  0
 40 42  1  0
 42 43  1  0
 42 44  2  0
 44 45  1  0
 44 46  1  0
 46 47  1  0
 46 48  2  0
 48 49  1  0
 32 50  2  0
 50 51  1  0
 24  4  1  0
 50 25  1  0
 15  8  1  0
 48 39  1  0
M  CHG  4  10  -1  11  -1  14  -1  35  -1
M  END
>  <UniqueID>  (34) 
31

>  <SMILES>  (34) 
C=c1/c(=C/c2c([O-])[n-]c(=O)[n-]c2=O)cc(C)n1-c1cccc(C(=O)[N-]Cc2ccccc2)c1

>  <Energy>  (34) 
98.83751926975373

>  <Genealogy>  (34) 
C=c1c(=Cc2c([O-])[n-]c(=O)[n-]c2=O)cc(C)n1-c1cccc(C(=O)[N-]Cc2ccccc2)c1 (protonated)
C=c1/c(=C/c2c([O-])[n-]c(=O)[n-]c2=O)cc(C)n1-c1cccc(C(=O)[N-]Cc2ccccc2)c1 (cis-trans isomerization)
C=c1/c(=C/c2c([O-])[n-]c(=O)[n-]c2=O)cc(C)n1-c1cccc(C(=O)[N-]Cc2ccccc2)c1 (3D coordinates assigned)
C=c1/c(=C/c2c([O-])[n-]c(=O)[n-]c2=O)cc(C)n1-c1cccc(C(=O)[N-]Cc2ccccc2)c1 (optimized conformer: 98.83751926975373 kcal/mol)

>  <smiles>  (34) 
C=c1c(=Cc2c(O)[nH]c(=O)[nH]c2=O)cc(C)n1-c1cccc(C(=O)NCc2ccccc2)c1

>  <score_type>  (34) 
oracle

>  <origin>  (34) 
adg

>  <m_score__min__energy>  (34) 
-17.73

>  <m_primary>  (34) 
energy

$$$$
34:0
     RDKit          3D

 50 52  0  0  0  0  0  0  0  0999 V2000
   59.1330   24.3790   46.0010 O   0  0  0  0  0  0  0  0  0  0  0  0
   58.5090   25.4380   45.7100 C   0  0  0  0  0  0  0  0  0  0  0  0
   57.4870   25.4180   44.5960 C   0  0  0  0  0  0  0  0  0  0  0  0
   56.2030   24.7550   45.0020 C   0  0  0  0  0  0  0  0  0  0  0  0
   55.7930   23.1510   44.6810 S   0  0  0  0  0  0  0  0  0  0  0  0
   54.2680   23.3240   45.3720 C   0  0  0  0  0  0  0  0  0  0  0  0
   53.4190   22.3970   45.4520 O   0  0  0  0  0  0  0  0  0  0  0  0
   54.0400   24.5710   45.8360 N   0  0  0  0  0  0  0  0  0  0  0  0
   55.1180   25.3710   45.6240 C   0  0  0  0  0  0  0  0  0  0  0  0
   55.1200   26.7090   46.0020 O   0  0  0  0  0  0  0  0  0  0  0  0
   58.7800   26.6790   46.4850 C   0  0  0  0  0  0  0  0  0  0  0  0
   57.9300   27.8000   46.3970 C   0  0  0  0  0  0  0  0  0  0  0  0
   58.1580   28.9290   47.1890 C   0  0  0  0  0  0  0  0  0  0  0  0
   59.2340   28.9580   48.0870 C   0  0  0  0  0  0  0  0  0  0  0  0
   59.4100   30.1160   49.0340 C   0  0  0  0  0  0  0  0  0  0  0  0
   60.1580   31.2150   48.3870 N   0  0  0  0  0  0  0  0  0  0  0  0
   60.7940   30.7620   47.1300 C   0  0  0  0  0  0  0  0  0  0  0  0
   62.2530   31.2160   47.0950 C   0  0  0  0  0  0  0  0  0  0  0  0
   62.3830   32.4300   47.7820 O   0  0  0  0  0  0  0  0  0  0  0  0
   59.1090   32.5940   48.0790 S   0  0  0  0  0  0  0  0  0  0  0  0
   57.8900   32.5390   48.9550 O   0  0  0  0  0  0  0  0  0  0  0  0
   59.8500   33.8700   48.3680 O   0  0  0  0  0  0  0  0  0  0  0  0
   58.5700   32.5780   46.4010 C   0  0  0  0  0  0  0  0  0  0  0  0
   58.9510   33.5960   45.5170 C   0  0  0  0  0  0  0  0  0  0  0  0
   58.5680   33.5400   44.1770 C   0  0  0  0  0  0  0  0  0  0  0  0
   57.7960   32.4740   43.7030 C   0  0  0  0  0  0  0  0  0  0  0  0
   57.4500   32.4500   42.3560 O   0  0  0  0  0  0  0  0  0  0  0  0
   57.3890   31.4470   44.5850 C   0  0  0  0  0  0  0  0  0  0  0  0
   56.5810   30.2900   44.1230 C   0  0  0  0  0  0  0  0  0  0  0  0
   56.8730   29.6770   43.0610 O   0  0  0  0  0  0  0  0  0  0  0  0
   55.4840   29.8630   44.8610 O   0  0  0  0  0  0  0  0  0  0  0  0
   57.7770   31.5210   45.9370 C   0  0  0  0  0  0  0  0  0  0  0  0
   60.1120   27.8680   48.1440 C   0  0  0  0  0  0  0  0  0  0  0  0
   59.8880   26.7390   47.3510 C   0  0  0  0  0  0  0  0  0  0  0  0
   57.2696   26.4545   44.2988 H   0  0  0  0  0  0  0  0  0  0  0  0
   57.9127   24.8380   43.7639 H   0  0  0  0  0  0  0  0  0  0  0  0
   57.0799   27.7862   45.6990 H   0  0  0  0  0  0  0  0  0  0  0  0
   57.4898   29.7990   47.1072 H   0  0  0  0  0  0  0  0  0  0  0  0
   58.4200   30.4850   49.3402 H   0  0  0  0  0  0  0  0  0  0  0  0
   59.9783   29.7712   49.9105 H   0  0  0  0  0  0  0  0  0  0  0  0
   60.7517   29.6642   47.0744 H   0  0  0  0  0  0  0  0  0  0  0  0
   60.2575   31.1975   46.2741 H   0  0  0  0  0  0  0  0  0  0  0  0
   62.8852   30.4542   47.5746 H   0  0  0  0  0  0  0  0  0  0  0  0
   62.5690   31.3514   46.0501 H   0  0  0  0  0  0  0  0  0  0  0  0
   61.5340   32.5530   48.2830 H   0  0  0  0  0  0  0  0  0  0  0  0
   59.5536   34.4414   45.8806 H   0  0  0  0  0  0  0  0  0  0  0  0
   58.8753   34.3402   43.4876 H   0  0  0  0  0  0  0  0  0  0  0  0
   57.4527   30.7378   46.6381 H   0  0  0  0  0  0  0  0  0  0  0  0
   60.9821   27.9007   48.8162 H   0  0  0  0  0  0  0  0  0  0  0  0
   60.5844   25.8891   47.4042 H   0  0  0  0  0  0  0  0  0  0  0  0
  1  2  2  0
  2  3  1  0
  3  4  1  0
  4  5  1  0
  5  6  1  0
  6  7  2  0
  6  8  1  0
  8  9  1  0
  9 10  1  0
  2 11  1  0
 11 12  2  0
 12 13  1  0
 13 14  2  0
 14 15  1  0
 15 16  1  0
 16 17  1  0
 17 18  1  0
 18 19  1  0
 16 20  1  0
 20 21  2  0
 20 22  2  0
 20 23  1  0
 23 24  2  0
 24 25  1  0
 25 26  2  0
 26 27  1  0
 26 28  1  0
 28 29  1  0
 29 30  2  0
 29 31  1  0
 28 32  2  0
 14 33  1  0
 33 34  2  0
  9  4  2  0
 34 11  1  0
 32 23  1  0
  3 35  1  0
  3 36  1  0
 12 37  1  0
 13 38  1  0
 15 39  1  0
 15 40  1  0
 17 41  1  0
 17 42  1  0
 18 43  1  0
 18 44  1  0
 19 45  1  0
 24 46  1  0
 25 47  1  0
 32 48  1  0
 33 49  1  0
 34 50  1  0
M  CHG  4   8  -1  10  -1  27  -1  31  -1
M  END
>  <UniqueID>  (35) 
32

>  <SMILES>  (35) 
O=C(Cc1sc(=O)[n-]c1[O-])c1ccc(CN(CCO)S(=O)(=O)c2ccc([O-])c(C(=O)[O-])c2)cc1

>  <Energy>  (35) 
80.72074474963077

>  <Genealogy>  (35) 
O=C(Cc1sc(=O)[n-]c1[O-])c1ccc(CN(CCO)S(=O)(=O)c2ccc([O-])c(C(=O)[O-])c2)cc1 (protonated)
O=C(Cc1sc(=O)[n-]c1[O-])c1ccc(CN(CCO)S(=O)(=O)c2ccc([O-])c(C(=O)[O-])c2)cc1 (3D coordinates assigned)
O=C(Cc1sc(=O)[n-]c1[O-])c1ccc(CN(CCO)S(=O)(=O)c2ccc([O-])c(C(=O)[O-])c2)cc1 (optimized conformer: 80.72074474963077 kcal/mol)

>  <smiles>  (35) 
O=C(Cc1sc(=O)[nH]c1O)c1ccc(CN(CCO)S(=O)(=O)c2ccc(O)c(C(=O)O)c2)cc1

>  <score_type>  (35) 
oracle

>  <origin>  (35) 
adg

>  <m_score__min__energy>  (35) 
-19.789999999999999

>  <m_primary>  (35) 
energy

$$$$
35:0
     RDKit          3D

 52 54  0  0  0  0  0  0  0  0999 V2000
   56.8810   29.7040   42.6610 C   0  0  0  0  0  0  0  0  0  0  0  0
   55.8010   29.7130   44.0770 S   0  0  0  0  0  0  0  0  0  0  0  0
   54.4200   29.3320   43.6280 O   0  0  0  0  0  0  0  0  0  0  0  0
   55.7500   31.0840   44.6910 O   0  0  0  0  0  0  0  0  0  0  0  0
   56.3430   28.5580   45.2520 N   0  0  0  0  0  0  0  0  0  0  0  0
   57.6980   28.3810   45.6870 C   0  0  0  0  0  0  0  0  0  0  0  0
   58.1810   27.0770   45.8550 C   0  0  0  0  0  0  0  0  0  0  0  0
   59.4950   26.8560   46.2720 C   0  0  0  0  0  0  0  0  0  0  0  0
   60.3400   27.9370   46.5300 C   0  0  0  0  0  0  0  0  0  0  0  0
   59.8740   29.2510   46.3710 C   0  0  0  0  0  0  0  0  0  0  0  0
   60.7680   30.4160   46.7010 C   0  0  0  0  0  0  0  0  0  0  0  0
   61.1290   30.3890   48.1220 N   0  0  0  0  0  0  0  0  0  0  0  0
   60.4560   29.4700   49.0460 C   0  0  0  0  0  0  0  0  0  0  0  0
   60.0450   30.1820   50.3630 C   0  0  2  0  0  0  0  0  0  0  0  0
   58.6140   30.6750   50.2880 C   0  0  0  0  0  0  0  0  0  0  0  0
   57.7360   30.1310   51.0100 O   0  0  0  0  0  0  0  0  0  0  0  0
   58.2060   31.6950   49.3670 N   0  0  0  0  0  0  0  0  0  0  0  0
   58.9010   32.9580   49.1610 C   0  0  0  0  0  0  0  0  0  0  0  0
   58.8130   33.3460   47.7130 C   0  0  0  0  0  0  0  0  0  0  0  0
   57.7700   32.8490   46.9130 C   0  0  0  0  0  0  0  0  0  0  0  0
   57.6700   33.2250   45.5700 C   0  0  0  0  0  0  0  0  0  0  0  0
   58.6020   34.1070   45.0180 C   0  0  0  0  0  0  0  0  0  0  0  0
   59.6330   34.6210   45.8100 C   0  0  0  0  0  0  0  0  0  0  0  0
   59.7380   34.2500   47.1550 C   0  0  0  0  0  0  0  0  0  0  0  0
   60.7370   34.7740   47.9120 F   0  0  0  0  0  0  0  0  0  0  0  0
   60.9860   31.3560   50.7680 C   0  0  0  0  0  0  0  0  0  0  0  0
   62.3770   31.2650   50.1280 C   0  0  0  0  0  0  0  0  0  0  0  0
   62.2170   31.1670   48.6440 C   0  0  0  0  0  0  0  0  0  0  0  0
   63.0290   31.7510   47.8770 O   0  0  0  0  0  0  0  0  0  0  0  0
   58.5490   29.4680   45.9570 C   0  0  0  0  0  0  0  0  0  0  0  0
   57.9279   29.6953   42.9984 H   0  0  0  0  0  0  0  0  0  0  0  0
   56.6836   28.8075   42.0550 H   0  0  0  0  0  0  0  0  0  0  0  0
   56.6986   30.6037   42.0550 H   0  0  0  0  0  0  0  0  0  0  0  0
   57.5199   26.2204   45.6569 H   0  0  0  0  0  0  0  0  0  0  0  0
   59.8653   25.8278   46.3975 H   0  0  0  0  0  0  0  0  0  0  0  0
   61.3743   27.7581   46.8589 H   0  0  0  0  0  0  0  0  0  0  0  0
   61.6823   30.3565   46.0924 H   0  0  0  0  0  0  0  0  0  0  0  0
   60.2333   31.3524   46.4837 H   0  0  0  0  0  0  0  0  0  0  0  0
   59.5537   29.0717   48.5591 H   0  0  0  0  0  0  0  0  0  0  0  0
   61.1571   28.6605   49.2972 H   0  0  0  0  0  0  0  0  0  0  0  0
   60.1382   29.4179   51.1488 H   0  0  0  0  0  0  0  0  0  0  0  0
   58.4339   33.7389   49.7791 H   0  0  0  0  0  0  0  0  0  0  0  0
   59.9571   32.8470   49.4479 H   0  0  0  0  0  0  0  0  0  0  0  0
   57.0287   32.1609   47.3454 H   0  0  0  0  0  0  0  0  0  0  0  0
   56.8561   32.8256   44.9471 H   0  0  0  0  0  0  0  0  0  0  0  0
   58.5247   34.3972   43.9598 H   0  0  0  0  0  0  0  0  0  0  0  0
   60.3635   35.3188   45.3747 H   0  0  0  0  0  0  0  0  0  0  0  0
   60.5190   32.3018   50.4559 H   0  0  0  0  0  0  0  0  0  0  0  0
   61.1240   31.3027   51.8580 H   0  0  0  0  0  0  0  0  0  0  0  0
   62.9593   32.1639   50.3789 H   0  0  0  0  0  0  0  0  0  0  0  0
   62.9065   30.3785   50.5071 H   0  0  0  0  0  0  0  0  0  0  0  0
   58.1742   30.4959   45.8431 H   0  0  0  0  0  0  0  0  0  0  0  0
  1  2  1  0
  2  3  2  0
  2  4  2  0
  2  5  1  0
  5  6  1  0
  6  7  2  0
  7  8  1  0
  8  9  2  0
  9 10  1  0
 10 11  1  0
 11 12  1  0
 12 13  1  0
 13 14  1  0
 14 15  1  0
 15 16  2  0
 15 17  1  0
 17 18  1  0
 18 19  1  0
 19 20  2  0
 20 21  1  0
 21 22  2  0
 22 23  1  0
 23 24  2  0
 24 25  1  0
 14 26  1  0
 26 27  1  0
 27 28  1  0
 28 29  2  0
 10 30  2  0
 30  6  1  0
 28 12  1  0
 24 19  1  0
  1 31  1  0
  1 32  1  0
  1 33  1  0
  7 34  1  0
  8 35  1  0
  9 36  1  0
 11 37  1  0
 11 38  1  0
 13 39  1  0
 13 40  1  0
 14 41  1  1
 18 42  1  0
 18 43  1  0
 20 44  1  0
 21 45  1  0
 22 46  1  0
 23 47  1  0
 26 48  1  0
 26 49  1  0
 27 50  1  0
 27 51  1  0
 30 52  1  0
M  CHG  2   5  -1  17  -1
M  END
>  <UniqueID>  (36) 
33

>  <SMILES>  (36) 
CS(=O)(=O)[N-]c1cccc(CN2C[C@H](C(=O)[N-]Cc3ccccc3F)CCC2=O)c1

>  <Energy>  (36) 
51.55917522246219

>  <Genealogy>  (36) 
CS(=O)(=O)[N-]c1cccc(CN2CC(C(=O)[N-]Cc3ccccc3F)CCC2=O)c1 (protonated)
CS(=O)(=O)[N-]c1cccc(CN2C[C@H](C(=O)[N-]Cc3ccccc3F)CCC2=O)c1 (chirality)
CS(=O)(=O)[N-]c1cccc(CN2C[C@H](C(=O)[N-]Cc3ccccc3F)CCC2=O)c1 (3D coordinates assigned)
CS(=O)(=O)[N-]c1cccc(CN2C[C@H](C(=O)[N-]Cc3ccccc3F)CCC2=O)c1 (nonaromatic ring conformer: 51.55917522246219 kcal/mol)

>  <smiles>  (36) 
CS(=O)(=O)Nc1cccc(CN2CC(C(=O)NCc3ccccc3F)CCC2=O)c1

>  <score_type>  (36) 
oracle

>  <origin>  (36) 
adg

>  <m_score__min__energy>  (36) 
-11.609999999999999

>  <m_primary>  (36) 
energy

$$$$
36:0
     RDKit          3D

 55 57  0  0  0  0  0  0  0  0999 V2000
   51.5160   32.9880   49.3290 H   0  0  0  0  0  0  0  0  0  0  0  0
   51.0180   32.3390   49.9790 N   0  0  0  0  0  0  0  0  0  0  0  0
   51.3800   32.2560   51.3560 C   0  0  0  0  0  0  0  0  0  0  0  0
   51.0300   33.1840   52.1370 O   0  0  0  0  0  0  0  0  0  0  0  0
   52.2250   31.1410   51.8440 C   0  0  0  0  0  0  0  0  0  0  0  0
   51.6390   29.9480   52.2980 C   0  0  0  0  0  0  0  0  0  0  0  0
   50.5452   29.8678   52.3828 H   0  0  0  0  0  0  0  0  0  0  0  0
   52.4490   28.8650   52.6410 C   0  0  0  0  0  0  0  0  0  0  0  0
   51.9930   27.9279   52.9930 H   0  0  0  0  0  0  0  0  0  0  0  0
   53.7990   28.9660   52.5410 N   0  0  0  0  0  0  0  0  0  0  0  0
   54.4100   30.1180   52.1310 C   0  0  0  0  0  0  0  0  0  0  0  0
   55.7090   30.2230   52.0840 N   0  0  0  0  0  0  0  0  0  0  0  0
   56.5210   31.3960   51.7410 C   0  0  0  0  0  0  0  0  0  0  0  0
   56.9353   31.8130   52.6708 H   0  0  0  0  0  0  0  0  0  0  0  0
   55.8563   32.0997   51.2185 H   0  0  0  0  0  0  0  0  0  0  0  0
   57.6580   31.1030   50.8090 C   0  0  0  0  0  0  0  0  0  0  0  0
   58.5740   32.0120   50.3100 C   0  0  0  0  0  0  0  0  0  0  0  0
   58.6003   33.0952   50.4996 H   0  0  0  0  0  0  0  0  0  0  0  0
   59.4520   31.2830   49.5230 C   0  0  0  0  0  0  0  0  0  0  0  0
   60.3256   31.6710   48.9787 H   0  0  0  0  0  0  0  0  0  0  0  0
   59.0120   29.9680   49.5570 C   0  0  0  0  0  0  0  0  0  0  0  0
   59.6480   28.7920   48.9340 C   0  0  0  0  0  0  0  0  0  0  0  0
   60.1560   27.9320   49.7100 O   0  0  0  0  0  0  0  0  0  0  0  0
   59.6130   28.5370   47.5060 N   0  0  0  0  0  0  0  0  0  0  0  0
   59.9680   27.2040   46.9850 C   0  0  0  0  0  0  0  0  0  0  0  0
   60.2710   26.5543   47.8193 H   0  0  0  0  0  0  0  0  0  0  0  0
   60.7995   27.3017   46.2715 H   0  0  0  0  0  0  0  0  0  0  0  0
   58.7570   26.5870   46.2720 C   0  0  0  0  0  0  0  0  0  0  0  0
   58.0200   26.2862   47.0312 H   0  0  0  0  0  0  0  0  0  0  0  0
   59.1227   25.7289   45.6890 H   0  0  0  0  0  0  0  0  0  0  0  0
   58.0710   27.5630   45.2770 C   0  0  0  0  0  0  0  0  0  0  0  0
   58.1538   27.0968   44.2841 H   0  0  0  0  0  0  0  0  0  0  0  0
   56.6030   27.7370   45.5990 C   0  0  0  0  0  0  0  0  0  0  0  0
   56.0040   28.7910   45.2550 O   0  0  0  0  0  0  0  0  0  0  0  0
   55.9090   26.7060   46.3140 N   0  0  0  0  0  0  0  0  0  0  0  0
   55.9010   25.2770   45.9940 C   0  0  0  0  0  0  0  0  0  0  0  0
   56.5628   25.1297   45.1278 H   0  0  0  0  0  0  0  0  0  0  0  0
   54.4970   24.8130   45.6040 C   0  0  0  0  0  0  0  0  0  0  0  0
   53.9092   24.6188   46.5133 H   0  0  0  0  0  0  0  0  0  0  0  0
   54.0041   25.5960   45.0091 H   0  0  0  0  0  0  0  0  0  0  0  0
   54.5678   23.8905   45.0091 H   0  0  0  0  0  0  0  0  0  0  0  0
   56.4650   24.4340   47.1380 C   0  0  0  0  0  0  0  0  0  0  0  0
   56.1687   24.8768   48.1004 H   0  0  0  0  0  0  0  0  0  0  0  0
   56.0695   23.4099   47.0684 H   0  0  0  0  0  0  0  0  0  0  0  0
   57.5625   24.4088   47.0684 H   0  0  0  0  0  0  0  0  0  0  0  0
   58.7850   28.9270   45.1790 C   0  0  0  0  0  0  0  0  0  0  0  0
   58.1453   29.6213   44.6144 H   0  0  0  0  0  0  0  0  0  0  0  0
   59.7486   28.7666   44.6733 H   0  0  0  0  0  0  0  0  0  0  0  0
   59.0750   29.5350   46.5610 C   0  0  0  0  0  0  0  0  0  0  0  0
   58.1401   29.9440   46.9716 H   0  0  0  0  0  0  0  0  0  0  0  0
   59.8329   30.3218   46.4321 H   0  0  0  0  0  0  0  0  0  0  0  0
   57.9300   29.8680   50.3510 N   0  0  0  0  0  0  0  0  0  0  0  0
   57.4010   28.9930   50.5760 H   0  0  0  0  0  0  0  0  0  0  0  0
   53.6300   31.2270   51.7870 C   0  0  0  0  0  0  0  0  0  0  0  0
   54.1126   32.1642   51.4727 H   0  0  0  0  0  0  0  0  0  0  0  0
  1  2  1  0
  2  3  1  0
  3  4  2  0
  3  5  1  0
  5  6  1  0
  6  7  1  0
  6  8  2  0
  8  9  1  0
  8 10  1  0
 10 11  1  0
 11 12  2  0
 12 13  1  0
 13 14  1  0
 13 15  1  0
 13 16  1  0
 16 17  2  0
 17 18  1  0
 17 19  1  0
 19 20  1  0
 19 21  2  0
 21 22  1  0
 22 23  2  0
 22 24  1  0
 24 25  1  0
 25 26  1  0
 25 27  1  0
 25 28  1  0
 28 29  1  0
 28 30  1  0
 28 31  1  0
 31 32  1  0
 31 33  1  0
 33 34  2  0
 33 35  1  0
 35 36  1  0
 36 37  1  0
 36 38  1  0
 38 39  1  0
 38 40  1  0
 38 41  1  0
 36 42  1  0
 42 43  1  0
 42 44  1  0
 42 45  1  0
 31 46  1  0
 46 47  1  0
 46 48  1  0
 46 49  1  0
 49 50  1  0
 49 51  1  0
 21 52  1  0
 52 53  1  0
 11 54  1  0
 54 55  1  0
 54  5  2  0
 52 16  1  0
 49 24  1  0
M  CHG  3   2  -1  10  -1  35  -1
M  END
>  <UniqueID>  (37) 
34

>  <SMILES>  (37) 
CC(C)[N-]C(=O)C1CCN(C(=O)c2ccc(C/N=c3/cc(C([NH-])=O)cc[n-]3)[nH]2)CC1

>  <Energy>  (37) 
90.3153191942599

>  <Genealogy>  (37) 
CC(C)[N-]C(=O)C1CCN(C(=O)c2ccc(CN=c3cc(C([NH-])=O)cc[n-]3)[nH]2)CC1 (protonated)
CC(C)[N-]C(=O)C1CCN(C(=O)c2ccc(C/N=c3/cc(C([NH-])=O)cc[n-]3)[nH]2)CC1 (cis-trans isomerization)
CC(C)[N-]C(=O)C1CCN(C(=O)c2ccc(C/N=c3/cc(C([NH-])=O)cc[n-]3)[nH]2)CC1 (3D coordinates assigned)
CC(C)[N-]C(=O)C1CCN(C(=O)c2ccc(C/N=c3/cc(C([NH-])=O)cc[n-]3)[nH]2)CC1 (nonaromatic ring conformer: 90.3153191942599 kcal/mol)

>  <smiles>  (37) 
CC(C)NC(=O)C1CCN(C(=O)c2ccc(CN=c3cc(C(N)=O)cc[nH]3)[nH]2)CC1

>  <score_type>  (37) 
oracle

>  <origin>  (37) 
adg

>  <m_score__min__energy>  (37) 
-15.94

>  <m_primary>  (37) 
energy

$$$$
37:0
     RDKit          3D

 53 56  0  0  0  0  0  0  0  0999 V2000
   57.3652   34.7377   45.4707 H   0  0  0  0  0  0  0  0  0  0  0  0
   57.0180   33.7190   45.2430 C   0  0  0  0  0  0  0  0  0  0  0  0
   56.0142   33.5613   44.8217 H   0  0  0  0  0  0  0  0  0  0  0  0
   57.8150   32.6740   45.4780 C   0  0  0  0  0  0  0  0  0  0  0  0
   57.4410   31.4030   45.2180 N   0  0  0  0  0  0  0  0  0  0  0  0
   58.4370   30.6060   45.5680 N   0  0  0  0  0  0  0  0  0  0  0  0
   58.4160   29.1830   45.3700 C   0  0  0  0  0  0  0  0  0  0  0  0
   58.4950   28.2880   46.4600 C   0  0  0  0  0  0  0  0  0  0  0  0
   58.5290   28.7860   47.8180 C   0  0  0  0  0  0  0  0  0  0  0  0
   58.5550   29.1850   48.9030 N   0  0  0  0  0  0  0  0  0  0  0  0
   58.4730   26.8990   46.2110 C   0  0  0  0  0  0  0  0  0  0  0  0
   58.5390   25.9030   47.3400 C   0  0  0  0  0  0  0  0  0  0  0  0
   58.5037   26.4359   48.3016 H   0  0  0  0  0  0  0  0  0  0  0  0
   57.6846   25.2136   47.2712 H   0  0  0  0  0  0  0  0  0  0  0  0
   59.4769   25.3324   47.2712 H   0  0  0  0  0  0  0  0  0  0  0  0
   58.3510   26.4410   44.8930 C   0  0  0  0  0  0  0  0  0  0  0  0
   58.3213   25.3611   44.6856 H   0  0  0  0  0  0  0  0  0  0  0  0
   58.2670   27.3590   43.8410 C   0  0  0  0  0  0  0  0  0  0  0  0
   58.0900   26.8690   42.4330 C   0  0  0  0  0  0  0  0  0  0  0  0
   57.7163   25.8345   42.4490 H   0  0  0  0  0  0  0  0  0  0  0  0
   57.3673   27.5119   41.9092 H   0  0  0  0  0  0  0  0  0  0  0  0
   59.0567   26.9016   41.9092 H   0  0  0  0  0  0  0  0  0  0  0  0
   58.2810   28.6950   44.1030 N   0  0  0  0  0  0  0  0  0  0  0  0
   58.2000   29.3710   43.3110 H   0  0  0  0  0  0  0  0  0  0  0  0
   59.4640   31.3510   46.0230 C   0  0  0  0  0  0  0  0  0  0  0  0
   60.5960   30.8820   46.3190 O   0  0  0  0  0  0  0  0  0  0  0  0
   59.1070   32.6920   46.0120 C   0  0  0  0  0  0  0  0  0  0  0  0
   59.8370   33.7670   46.3730 C   0  0  0  0  0  0  0  0  0  0  0  0
   59.7920   34.6585   45.7302 H   0  0  0  0  0  0  0  0  0  0  0  0
   60.6920   33.8250   47.5740 C   0  0  0  0  0  0  0  0  0  0  0  0
   60.1340   33.9780   48.8540 C   0  0  0  0  0  0  0  0  0  0  0  0
   59.0415   34.0264   48.9727 H   0  0  0  0  0  0  0  0  0  0  0  0
   60.9600   34.0690   49.9770 C   0  0  0  0  0  0  0  0  0  0  0  0
   60.5156   34.1676   50.9784 H   0  0  0  0  0  0  0  0  0  0  0  0
   62.3530   34.0350   49.8310 C   0  0  0  0  0  0  0  0  0  0  0  0
   63.3900   34.1170   51.2500 S   0  0  0  0  0  0  0  0  0  0  0  0
   62.6060   33.7490   52.4790 O   0  0  0  0  0  0  0  0  0  0  0  0
   63.9080   35.5170   51.4300 O   0  0  0  0  0  0  0  0  0  0  0  0
   64.7350   33.0030   51.0390 C   0  0  0  0  0  0  0  0  0  0  0  0
   64.5960   31.6540   51.3970 C   0  0  0  0  0  0  0  0  0  0  0  0
   63.6380   31.2872   51.7940 H   0  0  0  0  0  0  0  0  0  0  0  0
   65.6740   30.7740   51.2500 C   0  0  0  0  0  0  0  0  0  0  0  0
   65.5617   29.7156   51.5278 H   0  0  0  0  0  0  0  0  0  0  0  0
   66.8940   31.2400   50.7500 C   0  0  0  0  0  0  0  0  0  0  0  0
   67.7399   30.5470   50.6307 H   0  0  0  0  0  0  0  0  0  0  0  0
   67.0390   32.5850   50.4020 C   0  0  0  0  0  0  0  0  0  0  0  0
   68.0005   32.9508   50.0125 H   0  0  0  0  0  0  0  0  0  0  0  0
   65.9640   33.4670   50.5480 C   0  0  0  0  0  0  0  0  0  0  0  0
   66.0824   34.5266   50.2773 H   0  0  0  0  0  0  0  0  0  0  0  0
   62.9130   33.9080   48.5530 C   0  0  0  0  0  0  0  0  0  0  0  0
   64.0062   33.8798   48.4338 H   0  0  0  0  0  0  0  0  0  0  0  0
   62.0870   33.8170   47.4290 C   0  0  0  0  0  0  0  0  0  0  0  0
   62.5330   33.7388   46.4265 H   0  0  0  0  0  0  0  0  0  0  0  0
  1  2  1  0
  2  3  1  0
  2  4  2  0
  4  5  1  0
  5  6  1  0
  6  7  1  0
  7  8  2  0
  8  9  1  0
  9 10  3  0
  8 11  1  0
 11 12  1  0
 12 13  1  0
 12 14  1  0
 12 15  1  0
 11 16  2  0
 16 17  1  0
 16 18  1  0
 18 19  1  0
 19 20  1  0
 19 21  1  0
 19 22  1  0
 18 23  2  0
 23 24  1  0
  6 25  1  0
 25 26  2  0
 25 27  1  0
 27 28  2  0
 28 29  1  0
 28 30  1  0
 30 31  2  0
 31 32  1  0
 31 33  1  0
 33 34  1  0
 33 35  2  0
 35 36  1  0
 36 37  2  0
 36 38  2  0
 36 39  1  0
 39 40  2  0
 40 41  1  0
 40 42  1  0
 42 43  1  0
 42 44  2  0
 44 45  1  0
 44 46  1  0
 46 47  1  0
 46 48  2  0
 48 49  1  0
 35 50  1  0
 50 51  1  0
 50 52  2  0
 52 53  1  0
 27  4  1  0
 52 30  1  0
 23  7  1  0
 48 39  1  0
M  CHG  2   5  -1  23   1
M  END
>  <UniqueID>  (38) 
35

>  <SMILES>  (38) 
C=c1[n-]n(-c2[nH+]c(C)cc(C)c2C#N)c(=O)/c1=C\c1ccc(S(=O)(=O)c2ccccc2)cc1

>  <Energy>  (38) 
107.33303680535366

>  <Genealogy>  (38) 
C=c1[n-]n(-c2[nH+]c(C)cc(C)c2C#N)c(=O)c1=Cc1ccc(S(=O)(=O)c2ccccc2)cc1 (protonated)
C=c1[n-]n(-c2[nH+]c(C)cc(C)c2C#N)c(=O)/c1=C\c1ccc(S(=O)(=O)c2ccccc2)cc1 (cis-trans isomerization)
C=c1[n-]n(-c2[nH+]c(C)cc(C)c2C#N)c(=O)/c1=C\c1ccc(S(=O)(=O)c2ccccc2)cc1 (3D coordinates assigned)
C=c1[n-]n(-c2[nH+]c(C)cc(C)c2C#N)c(=O)/c1=C\c1ccc(S(=O)(=O)c2ccccc2)cc1 (optimized conformer: 107.33303680535366 kcal/mol)

>  <smiles>  (38) 
C=c1[nH]n(-c2nc(C)cc(C)c2C#N)c(=O)c1=Cc1ccc(S(=O)(=O)c2ccccc2)cc1

>  <score_type>  (38) 
oracle

>  <origin>  (38) 
adg

>  <m_score__min__energy>  (38) 
-9.1799999999999997

>  <m_primary>  (38) 
energy

$$$$
38:0
     RDKit          3D

 61 64  0  0  0  0  0  0  0  0999 V2000
   57.3670   32.3780   52.1970 C   0  0  0  0  0  0  0  0  0  0  0  0
   58.0320   32.6970   50.9770 O   0  0  0  0  0  0  0  0  0  0  0  0
   58.5060   31.7420   50.0640 C   0  0  0  0  0  0  0  0  0  0  0  0
   58.8010   30.4220   50.4420 C   0  0  0  0  0  0  0  0  0  0  0  0
   59.2550   29.5010   49.4970 C   0  0  0  0  0  0  0  0  0  0  0  0
   59.4290   29.8810   48.1530 C   0  0  0  0  0  0  0  0  0  0  0  0
   59.8590   28.9700   47.1760 O   0  0  0  0  0  0  0  0  0  0  0  0
   60.3260   27.6530   47.4480 C   0  0  0  0  0  0  0  0  0  0  0  0
   59.1580   31.2110   47.7740 C   0  0  0  0  0  0  0  0  0  0  0  0
   59.2910   31.6430   46.3390 C   0  0  0  0  0  0  0  0  0  0  0  0
   58.0100   32.1810   45.8850 N   0  0  0  0  0  0  0  0  0  0  0  0
   57.3810   31.2320   44.5800 S   0  0  0  0  0  0  0  0  0  0  0  0
   55.8960   31.4440   44.5020 O   0  0  0  0  0  0  0  0  0  0  0  0
   57.9910   31.6830   43.2830 O   0  0  0  0  0  0  0  0  0  0  0  0
   57.7130   29.5200   44.8130 C   0  0  0  0  0  0  0  0  0  0  0  0
   58.7820   28.9160   44.1350 C   0  0  0  0  0  0  0  0  0  0  0  0
   59.0180   27.5470   44.2720 C   0  0  0  0  0  0  0  0  0  0  0  0
   58.1880   26.7690   45.0850 C   0  0  0  0  0  0  0  0  0  0  0  0
   57.0980   27.3630   45.7500 C   0  0  0  0  0  0  0  0  0  0  0  0
   56.8850   28.7410   45.6360 C   0  0  0  0  0  0  0  0  0  0  0  0
   56.1380   26.5550   46.4430 N   0  0  0  0  0  0  0  0  0  0  0  0
   55.9860   25.1580   46.1680 C   0  0  0  0  0  0  0  0  0  0  0  0
   55.1670   24.4810   46.8480 O   0  0  0  0  0  0  0  0  0  0  0  0
   56.7780   24.5330   45.0440 C   0  0  2  0  0  0  0  0  0  0  0  0
   56.6280   23.0030   44.9830 C   0  0  0  0  0  0  0  0  0  0  0  0
   55.7450   22.5850   43.8370 C   0  0  0  0  0  0  0  0  0  0  0  0
   56.1500   21.6910   43.0460 O   0  0  0  0  0  0  0  0  0  0  0  0
   54.4930   23.2320   43.5620 N   0  0  0  0  0  0  0  0  0  0  0  0
   53.7490   24.0880   44.4850 C   0  0  0  0  0  0  0  0  0  0  0  0
   52.7400   23.2800   45.2640 C   0  0  0  0  0  0  0  0  0  0  0  0
   53.1820   22.3950   46.2650 C   0  0  0  0  0  0  0  0  0  0  0  0
   52.2620   21.6460   47.0070 C   0  0  0  0  0  0  0  0  0  0  0  0
   50.8940   21.7770   46.7620 C   0  0  0  0  0  0  0  0  0  0  0  0
   50.4400   22.6590   45.7760 C   0  0  0  0  0  0  0  0  0  0  0  0
   51.3550   23.4130   45.0260 C   0  0  0  0  0  0  0  0  0  0  0  0
   50.7300   24.5240   43.8140 Cl  0  0  0  0  0  0  0  0  0  0  0  0
   58.5260   25.0110   45.2780 S   0  0  0  0  0  0  0  0  0  0  0  0
   58.6880   32.1250   48.7320 C   0  0  0  0  0  0  0  0  0  0  0  0
   57.9962   32.6798   53.0473 H   0  0  0  0  0  0  0  0  0  0  0  0
   56.4074   32.9138   52.2425 H   0  0  0  0  0  0  0  0  0  0  0  0
   57.1843   31.2942   52.2425 H   0  0  0  0  0  0  0  0  0  0  0  0
   58.6734   30.1121   51.4897 H   0  0  0  0  0  0  0  0  0  0  0  0
   59.4788   28.4690   49.8052 H   0  0  0  0  0  0  0  0  0  0  0  0
   60.3801   27.5006   48.5360 H   0  0  0  0  0  0  0  0  0  0  0  0
   59.6329   26.9202   47.0091 H   0  0  0  0  0  0  0  0  0  0  0  0
   61.3259   27.5206   47.0091 H   0  0  0  0  0  0  0  0  0  0  0  0
   60.0668   32.4186   46.2574 H   0  0  0  0  0  0  0  0  0  0  0  0
   59.5752   30.7822   45.7158 H   0  0  0  0  0  0  0  0  0  0  0  0
   59.4369   29.5234   43.4929 H   0  0  0  0  0  0  0  0  0  0  0  0
   59.8589   27.0792   43.7391 H   0  0  0  0  0  0  0  0  0  0  0  0
   56.0647   29.2161   46.1940 H   0  0  0  0  0  0  0  0  0  0  0  0
   56.3913   24.9015   44.0824 H   0  0  0  0  0  0  0  0  0  0  0  0
   57.6221   22.5504   44.8530 H   0  0  0  0  0  0  0  0  0  0  0  0
   56.1647   22.6619   45.9206 H   0  0  0  0  0  0  0  0  0  0  0  0
   54.4525   24.5605   45.1863 H   0  0  0  0  0  0  0  0  0  0  0  0
   53.2161   24.8557   43.9047 H   0  0  0  0  0  0  0  0  0  0  0  0
   54.2586   22.2913   46.4656 H   0  0  0  0  0  0  0  0  0  0  0  0
   52.6171   20.9533   47.7842 H   0  0  0  0  0  0  0  0  0  0  0  0
   50.1723   21.1860   47.3450 H   0  0  0  0  0  0  0  0  0  0  0  0
   49.3611   22.7619   45.5878 H   0  0  0  0  0  0  0  0  0  0  0  0
   58.4598   33.1576   48.4293 H   0  0  0  0  0  0  0  0  0  0  0  0
  1  2  1  0
  2  3  1  0
  3  4  2  0
  4  5  1  0
  5  6  2  0
  6  7  1  0
  7  8  1  0
  6  9  1  0
  9 10  1  0
 10 11  1  0
 11 12  1  0
 12 13  2  0
 12 14  2  0
 12 15  1  0
 15 16  2  0
 16 17  1  0
 17 18  2  0
 18 19  1  0
 19 20  2  0
 19 21  1  0
 21 22  1  0
 22 23  2  0
 22 24  1  0
 24 25  1  0
 25 26  1  0
 26 27  2  0
 26 28  1  0
 28 29  1  0
 29 30  1  0
 30 31  2  0
 31 32  1  0
 32 33  2  0
 33 34  1  0
 34 35  2  0
 35 36  1  0
 24 37  1  0
  9 38  2  0
 38  3  1  0
 20 15  1  0
 35 30  1  0
 37 18  1  0
  1 39  1  0
  1 40  1  0
  1 41  1  0
  4 42  1  0
  5 43  1  0
  8 44  1  0
  8 45  1  0
  8 46  1  0
 10 47  1  0
 10 48  1  0
 16 49  1  0
 17 50  1  0
 20 51  1  0
 24 52  1  6
 25 53  1  0
 25 54  1  0
 29 55  1  0
 29 56  1  0
 31 57  1  0
 32 58  1  0
 33 59  1  0
 34 60  1  0
 38 61  1  0
M  CHG  3  11  -1  21  -1  28  -1
M  END
>  <UniqueID>  (39) 
36

>  <SMILES>  (39) 
COc1ccc(OC)c(C[N-]S(=O)(=O)c2ccc3c(c2)[N-]C(=O)[C@H](CC(=O)[N-]Cc2ccccc2Cl)S3)c1

>  <Energy>  (39) 
66.6029051793334

>  <Genealogy>  (39) 
COc1ccc(OC)c(C[N-]S(=O)(=O)c2ccc3c(c2)[N-]C(=O)C(CC(=O)[N-]Cc2ccccc2Cl)S3)c1 (protonated)
COc1ccc(OC)c(C[N-]S(=O)(=O)c2ccc3c(c2)[N-]C(=O)[C@H](CC(=O)[N-]Cc2ccccc2Cl)S3)c1 (chirality)
COc1ccc(OC)c(C[N-]S(=O)(=O)c2ccc3c(c2)[N-]C(=O)[C@H](CC(=O)[N-]Cc2ccccc2Cl)S3)c1 (3D coordinates assigned)
COc1ccc(OC)c(C[N-]S(=O)(=O)c2ccc3c(c2)[N-]C(=O)[C@H](CC(=O)[N-]Cc2ccccc2Cl)S3)c1 (nonaromatic ring conformer: 66.6029051793334 kcal/mol)

>  <smiles>  (39) 
COc1ccc(OC)c(CNS(=O)(=O)c2ccc3c(c2)NC(=O)C(CC(=O)NCc2ccccc2Cl)S3)c1

>  <score_type>  (39) 
oracle

>  <origin>  (39) 
adg

>  <m_score__min__energy>  (39) 
-13.880000000000001

>  <m_primary>  (39) 
energy

$$$$
39:0
     RDKit          3D

 40 42  0  0  0  0  0  0  0  0999 V2000
   56.6380   29.6910   43.6880 C   0  0  0  0  0  0  0  0  0  0  0  0
   57.2930   29.5470   44.8520 C   0  0  0  0  0  0  0  0  0  0  0  0
   57.8280   28.3580   45.3760 C   0  0  0  0  0  0  0  0  0  0  0  0
   57.6790   27.0750   44.9930 C   0  0  0  0  0  0  0  0  0  0  0  0
   57.1480   25.9860   45.8270 C   0  0  0  0  0  0  0  0  0  0  0  0
   57.9180   25.0410   46.3950 N   0  0  0  0  0  0  0  0  0  0  0  0
   57.0460   24.3460   47.1570 C   0  0  0  0  0  0  0  0  0  0  0  0
   57.3930   23.3500   47.8440 O   0  0  0  0  0  0  0  0  0  0  0  0
   55.7770   24.8060   47.1340 N   0  0  0  0  0  0  0  0  0  0  0  0
   55.8620   25.8550   46.3000 C   0  0  0  0  0  0  0  0  0  0  0  0
   54.7920   26.6890   46.0000 O   0  0  0  0  0  0  0  0  0  0  0  0
   58.6080   28.7280   46.4570 C   0  0  0  0  0  0  0  0  0  0  0  0
   58.4790   30.0940   46.5970 C   0  0  0  0  0  0  0  0  0  0  0  0
   59.1600   30.9060   47.6570 C   0  0  0  0  0  0  0  0  0  0  0  0
   57.6650   30.5950   45.6380 N   0  0  0  0  0  0  0  0  0  0  0  0
   57.3650   32.0190   45.4320 C   0  0  0  0  0  0  0  0  0  0  0  0
   58.5040   32.6850   44.7170 C   0  0  0  0  0  0  0  0  0  0  0  0
   59.0360   33.8330   45.1570 C   0  0  0  0  0  0  0  0  0  0  0  0
   59.8050   33.9550   46.4190 C   0  0  0  0  0  0  0  0  0  0  0  0
   61.1710   33.6240   46.4090 C   0  0  0  0  0  0  0  0  0  0  0  0
   61.9380   33.7330   47.5730 C   0  0  0  0  0  0  0  0  0  0  0  0
   61.3530   34.1860   48.7570 C   0  0  0  0  0  0  0  0  0  0  0  0
   60.0020   34.5370   48.7780 C   0  0  0  0  0  0  0  0  0  0  0  0
   59.2290   34.4270   47.6180 C   0  0  0  0  0  0  0  0  0  0  0  0
   56.2646   30.6806   43.3858 H   0  0  0  0  0  0  0  0  0  0  0  0
   56.4751   28.8194   43.0371 H   0  0  0  0  0  0  0  0  0  0  0  0
   57.9809   26.8194   43.9666 H   0  0  0  0  0  0  0  0  0  0  0  0
   59.2154   28.0599   47.0853 H   0  0  0  0  0  0  0  0  0  0  0  0
   58.8553   30.5427   48.6496 H   0  0  0  0  0  0  0  0  0  0  0  0
   60.2504   30.8085   47.5497 H   0  0  0  0  0  0  0  0  0  0  0  0
   58.8741   31.9628   47.5497 H   0  0  0  0  0  0  0  0  0  0  0  0
   56.4502   32.1150   44.8288 H   0  0  0  0  0  0  0  0  0  0  0  0
   57.2198   32.5026   46.4093 H   0  0  0  0  0  0  0  0  0  0  0  0
   58.9125   32.2186   43.8084 H   0  0  0  0  0  0  0  0  0  0  0  0
   58.8942   34.7373   44.5470 H   0  0  0  0  0  0  0  0  0  0  0  0
   61.6408   33.2761   45.4772 H   0  0  0  0  0  0  0  0  0  0  0  0
   63.0038   33.4615   47.5559 H   0  0  0  0  0  0  0  0  0  0  0  0
   61.9565   34.2663   49.6731 H   0  0  0  0  0  0  0  0  0  0  0  0
   59.5443   34.9011   49.7096 H   0  0  0  0  0  0  0  0  0  0  0  0
   58.1662   34.7099   47.6400 H   0  0  0  0  0  0  0  0  0  0  0  0
  1  2  2  0
  2  3  1  0
  3  4  2  3
  4  5  1  0
  5  6  1  0
  6  7  1  0
  7  8  2  0
  7  9  1  0
  9 10  1  0
 10 11  1  0
  3 12  1  0
 12 13  2  0
 13 14  1  0
 13 15  1  0
 15 16  1  0
 16 17  1  0
 17 18  2  3
 18 19  1  0
 19 20  2  0
 20 21  1  0
 21 22  2  0
 22 23  1  0
 23 24  2  0
 15  2  1  0
 24 19  1  0
 10  5  2  0
  1 25  1  0
  1 26  1  0
  4 27  1  0
 12 28  1  0
 14 29  1  0
 14 30  1  0
 14 31  1  0
 16 32  1  0
 16 33  1  0
 17 34  1  0
 18 35  1  0
 20 36  1  0
 21 37  1  0
 22 38  1  0
 23 39  1  0
 24 40  1  0
M  CHG  3   6  -1   9  -1  11  -1
M  END
>  <UniqueID>  (40) 
37

>  <SMILES>  (40) 
C=c1c(=Cc2[n-]c(=O)[n-]c2[O-])cc(C)n1CC=Cc1ccccc1

>  <Energy>  (40) 
112.21817441624016

>  <Genealogy>  (40) 
C=c1c(=Cc2[n-]c(=O)[n-]c2[O-])cc(C)n1CC=Cc1ccccc1 (protonated)
C=c1c(=Cc2[n-]c(=O)[n-]c2[O-])cc(C)n1CC=Cc1ccccc1 (3D coordinates assigned)
C=c1c(=Cc2[n-]c(=O)[n-]c2[O-])cc(C)n1CC=Cc1ccccc1 (optimized conformer: 112.21817441624016 kcal/mol)

>  <smiles>  (40) 
C=c1c(=Cc2[nH]c(=O)[nH]c2O)cc(C)n1CC=Cc1ccccc1

>  <score_type>  (40) 
oracle

>  <origin>  (40) 
adg

>  <m_score__min__energy>  (40) 
-15.529999999999999

>  <m_primary>  (40) 
energy

$$$$
40:0
     RDKit          3D

 54 56  0  0  0  0  0  0  0  0999 V2000
   56.2510   27.4200   45.0550 H   0  0  0  0  0  0  0  0  0  0  0  0
   56.2640   26.9430   45.9850 N   0  0  0  0  0  0  0  0  0  0  0  0
   57.3450   26.8010   46.6870 C   0  0  0  0  0  0  0  0  0  0  0  0
   58.4360   27.8030   46.6210 C   0  0  0  0  0  0  0  0  0  0  0  0
   58.4990   28.8390   47.5670 C   0  0  0  0  0  0  0  0  0  0  0  0
   57.7353   28.9018   48.3562 H   0  0  0  0  0  0  0  0  0  0  0  0
   59.5240   29.7940   47.5170 C   0  0  0  0  0  0  0  0  0  0  0  0
   59.5460   30.8870   48.4570 N   0  0  0  0  0  0  0  0  0  0  0  0
   60.5840   30.9320   49.4970 C   0  0  0  0  0  0  0  0  0  0  0  0
   60.1755   31.4114   50.3988 H   0  0  0  0  0  0  0  0  0  0  0  0
   60.9041   29.9062   49.7320 H   0  0  0  0  0  0  0  0  0  0  0  0
   61.7690   31.7190   49.0080 C   0  0  0  0  0  0  0  0  0  0  0  0
   63.0030   31.6350   49.6740 C   0  0  0  0  0  0  0  0  0  0  0  0
   63.0930   31.0283   50.5871 H   0  0  0  0  0  0  0  0  0  0  0  0
   64.1170   32.3200   49.1800 C   0  0  0  0  0  0  0  0  0  0  0  0
   65.0794   32.2579   49.7091 H   0  0  0  0  0  0  0  0  0  0  0  0
   64.0090   33.0840   48.0140 C   0  0  0  0  0  0  0  0  0  0  0  0
   64.8859   33.6239   47.6273 H   0  0  0  0  0  0  0  0  0  0  0  0
   62.7880   33.1620   47.3400 C   0  0  0  0  0  0  0  0  0  0  0  0
   62.7048   33.7621   46.4219 H   0  0  0  0  0  0  0  0  0  0  0  0
   61.6710   32.4780   47.8310 C   0  0  0  0  0  0  0  0  0  0  0  0
   60.7130   32.5350   47.2934 H   0  0  0  0  0  0  0  0  0  0  0  0
   58.5010   31.9190   48.3930 C   0  0  0  0  0  0  0  0  0  0  0  0
   57.5218   31.4602   48.5947 H   0  0  0  0  0  0  0  0  0  0  0  0
   58.7091   32.6939   49.1455 H   0  0  0  0  0  0  0  0  0  0  0  0
   58.4870   32.5460   47.0240 C   0  0  0  0  0  0  0  0  0  0  0  0
   58.6810   33.9290   46.8830 C   0  0  0  0  0  0  0  0  0  0  0  0
   58.9462   34.5381   47.7597 H   0  0  0  0  0  0  0  0  0  0  0  0
   58.5380   34.5340   45.6310 C   0  0  0  0  0  0  0  0  0  0  0  0
   58.7126   35.6144   45.5206 H   0  0  0  0  0  0  0  0  0  0  0  0
   58.1740   33.7700   44.5200 C   0  0  0  0  0  0  0  0  0  0  0  0
   58.0641   34.2497   43.5362 H   0  0  0  0  0  0  0  0  0  0  0  0
   57.9480   32.3910   44.6560 C   0  0  0  0  0  0  0  0  0  0  0  0
   57.5540   31.5680   43.4970 C   0  0  0  0  0  0  0  0  0  0  0  0
   58.2145   31.5761   42.6174 H   0  0  0  0  0  0  0  0  0  0  0  0
   56.4480   30.8100   43.4380 C   0  0  0  0  0  0  0  0  0  0  0  0
   55.6167   31.1770   42.8181 H   0  0  0  0  0  0  0  0  0  0  0  0
   56.2560   29.5240   44.1370 C   0  0  0  0  0  0  0  0  0  0  0  0
   57.1430   28.6350   44.0420 O   0  0  0  0  0  0  0  0  0  0  0  0
   55.1470   29.2910   44.9440 O   0  0  0  0  0  0  0  0  0  0  0  0
   58.1340   31.7800   45.9020 C   0  0  0  0  0  0  0  0  0  0  0  0
   58.0026   30.6925   46.0023 H   0  0  0  0  0  0  0  0  0  0  0  0
   60.4980   29.7090   46.5120 C   0  0  0  0  0  0  0  0  0  0  0  0
   61.3143   30.4456   46.4790 H   0  0  0  0  0  0  0  0  0  0  0  0
   60.4390   28.6920   45.5490 C   0  0  0  0  0  0  0  0  0  0  0  0
   61.5010   28.5930   44.4950 C   0  0  0  0  0  0  0  0  0  0  0  0
   62.4865   28.5011   44.9750 H   0  0  0  0  0  0  0  0  0  0  0  0
   61.3144   27.7084   43.8684 H   0  0  0  0  0  0  0  0  0  0  0  0
   61.4811   29.4969   43.8684 H   0  0  0  0  0  0  0  0  0  0  0  0
   59.4180   27.7330   45.6170 C   0  0  0  0  0  0  0  0  0  0  0  0
   59.3851   26.9187   44.8782 H   0  0  0  0  0  0  0  0  0  0  0  0
   57.4660   25.6630   47.5450 N   0  0  0  0  0  0  0  0  0  0  0  0
   58.3560   25.4630   48.0540 H   0  0  0  0  0  0  0  0  0  0  0  0
   56.6820   24.9780   47.6270 H   0  0  0  0  0  0  0  0  0  0  0  0
  1  2  1  0
  2  3  2  0
  3  4  1  0
  4  5  2  0
  5  6  1  0
  5  7  1  0
  7  8  1  0
  8  9  1  0
  9 10  1  0
  9 11  1  0
  9 12  1  0
 12 13  2  0
 13 14  1  0
 13 15  1  0
 15 16  1  0
 15 17  2  0
 17 18  1  0
 17 19  1  0
 19 20  1  0
 19 21  2  0
 21 22  1  0
  8 23  1  0
 23 24  1  0
 23 25  1  0
 23 26  1  0
 26 27  2  0
 27 28  1  0
 27 29  1  0
 29 30  1  0
 29 31  2  0
 31 32  1  0
 31 33  1  0
 33 34  1  0
 34 35  1  0
 34 36  2  3
 36 37  1  0
 36 38  1  0
 38 39  2  0
 38 40  1  0
 33 41  2  0
 41 42  1  0
  7 43  2  0
 43 44  1  0
 43 45  1  0
 45 46  1  0
 46 47  1  0
 46 48  1  0
 46 49  1  0
 45 50  2  0
 50 51  1  0
  3 52  1  0
 52 53  1  0
 52 54  1  0
 50  4  1  0
 21 12  1  0
 41 26  1  0
M  CHG  1  40  -1
M  END
>  <UniqueID>  (41) 
38

>  <SMILES>  (41) 
[H]/N=C(/N)c1cc(C)cc(N(Cc2ccccc2)Cc2cccc(C=CC(=O)[O-])c2)c1

>  <Energy>  (41) 
63.991184816593346

>  <Genealogy>  (41) 
Cc1cc(C(=N)N)cc(N(Cc2ccccc2)Cc2cccc(C=CC(=O)[O-])c2)c1 (protonated)
[H]/N=C(/N)c1cc(C)cc(N(Cc2ccccc2)Cc2cccc(C=CC(=O)[O-])c2)c1 (cis-trans isomerization)
[H]/N=C(/N)c1cc(C)cc(N(Cc2ccccc2)Cc2cccc(C=CC(=O)[O-])c2)c1 (3D coordinates assigned)
[H]/N=C(/N)c1cc(C)cc(N(Cc2ccccc2)Cc2cccc(C=CC(=O)[O-])c2)c1 (optimized conformer: 63.991184816593346 kcal/mol)

>  <smiles>  (41) 
Cc1cc(C(=N)N)cc(N(Cc2ccccc2)Cc2cccc(C=CC(=O)O)c2)c1

>  <score_type>  (41) 
oracle

>  <origin>  (41) 
adg

>  <m_score__min__energy>  (41) 
-13.199999999999999

>  <m_primary>  (41) 
energy

$$$$
41:0
     RDKit          3D

 28 28  0  0  0  0  0  0  0  0999 V2000
   56.6510   30.7440   42.9140 C   0  0  0  0  0  0  0  0  0  0  0  0
   56.7320   29.4590   43.2810 C   0  0  0  0  0  0  0  0  0  0  0  0
   56.8120   29.0130   44.7360 C   0  0  2  0  0  0  0  0  0  0  0  0
   55.5230   28.7630   45.2430 O   0  0  0  0  0  0  0  0  0  0  0  0
   57.4930   30.1100   45.6050 C   0  0  0  0  0  0  0  0  0  0  0  0
   58.9540   30.3340   45.2020 C   0  0  0  0  0  0  0  0  0  0  0  0
   59.6880   29.0300   45.1500 C   0  0  0  0  0  0  0  0  0  0  0  0
   60.9450   29.0190   45.2340 O   0  0  0  0  0  0  0  0  0  0  0  0
   58.9610   27.7630   44.9690 C   0  0  0  0  0  0  0  0  0  0  0  0
   57.6250   27.7150   44.8090 C   0  0  0  0  0  0  0  0  0  0  0  0
   57.0120   26.4110   44.6980 N   0  0  0  0  0  0  0  0  0  0  0  0
   56.1450   25.5610   45.9450 S   0  0  0  0  0  0  0  0  0  0  0  0
   56.0950   23.8220   45.5680 C   0  0  0  0  0  0  0  0  0  0  0  0
   54.7380   26.0850   45.9930 O   0  0  0  0  0  0  0  0  0  0  0  0
   56.7730   25.7720   47.2920 O   0  0  0  0  0  0  0  0  0  0  0  0
   56.5956   31.0091   41.8479 H   0  0  0  0  0  0  0  0  0  0  0  0
   56.6399   31.5347   43.6786 H   0  0  0  0  0  0  0  0  0  0  0  0
   56.7412   28.6891   42.4954 H   0  0  0  0  0  0  0  0  0  0  0  0
   55.2030   27.8930   44.8900 H   0  0  0  0  0  0  0  0  0  0  0  0
   56.9417   31.0539   45.4822 H   0  0  0  0  0  0  0  0  0  0  0  0
   57.4763   29.7739   46.6523 H   0  0  0  0  0  0  0  0  0  0  0  0
   58.9875   30.8084   44.2101 H   0  0  0  0  0  0  0  0  0  0  0  0
   59.4341   30.9836   45.9487 H   0  0  0  0  0  0  0  0  0  0  0  0
   59.5297   26.8214   44.9643 H   0  0  0  0  0  0  0  0  0  0  0  0
   56.9730   25.9630   43.7550 H   0  0  0  0  0  0  0  0  0  0  0  0
   56.0784   23.2443   46.5039 H   0  0  0  0  0  0  0  0  0  0  0  0
   55.1901   23.5994   44.9836 H   0  0  0  0  0  0  0  0  0  0  0  0
   56.9856   23.5478   44.9836 H   0  0  0  0  0  0  0  0  0  0  0  0
  1  2  2  0
  2  3  1  0
  3  4  1  1
  3  5  1  0
  5  6  1  0
  6  7  1  0
  7  8  2  0
  7  9  1  0
  9 10  2  0
 10 11  1  0
 11 12  1  0
 12 13  1  0
 12 14  2  0
 12 15  2  0
 10  3  1  0
  1 16  1  0
  1 17  1  0
  2 18  1  0
  4 19  1  0
  5 20  1  0
  5 21  1  0
  6 22  1  0
  6 23  1  0
  9 24  1  0
 11 25  1  0
 13 26  1  0
 13 27  1  0
 13 28  1  0
M  END
>  <UniqueID>  (42) 
39

>  <SMILES>  (42) 
C=C[C@]1(O)CCC(=O)C=C1NS(C)(=O)=O

>  <Energy>  (42) 
26.82195483868772

>  <Genealogy>  (42) 
C=C[C@]1(O)CCC(=O)C=C1NS(C)(=O)=O (chirality)
C=C[C@]1(O)CCC(=O)C=C1NS(C)(=O)=O (3D coordinates assigned)
C=C[C@]1(O)CCC(=O)C=C1NS(C)(=O)=O (nonaromatic ring conformer: 26.82195483868772 kcal/mol)

>  <smiles>  (42) 
C=CC1(O)CCC(=O)C=C1NS(C)(=O)=O

>  <score_type>  (42) 
oracle

>  <origin>  (42) 
adg

>  <m_score__min__energy>  (42) 
-7.21

>  <m_primary>  (42) 
energy

$$$$
42:0
     RDKit          3D

 67 69  0  0  0  0  0  0  0  0999 V2000
   59.9480   33.8090   49.8300 C   0  0  0  0  0  0  0  0  0  0  0  0
   59.2830   33.2310   48.5840 C   0  0  0  0  0  0  0  0  0  0  0  0
   59.0120   34.3280   47.5450 C   0  0  0  0  0  0  0  0  0  0  0  0
   60.0410   34.3310   46.4000 C   0  0  0  0  0  0  0  0  0  0  0  0
   59.4550   34.7130   45.0280 C   0  0  0  0  0  0  0  0  0  0  0  0
   58.0730   34.1500   44.8180 C   0  0  0  0  0  0  0  0  0  0  0  0
   57.0960   34.9460   44.8900 O   0  0  0  0  0  0  0  0  0  0  0  0
   57.8180   32.7030   44.5630 C   0  0  0  0  0  0  0  0  0  0  0  0
   57.7540   31.8050   45.6440 C   0  0  0  0  0  0  0  0  0  0  0  0
   57.5150   30.4450   45.4290 C   0  0  0  0  0  0  0  0  0  0  0  0
   57.3310   29.9480   44.1360 C   0  0  0  0  0  0  0  0  0  0  0  0
   57.0870   28.5740   43.9850 O   0  0  0  0  0  0  0  0  0  0  0  0
   58.0810   27.5670   43.7870 C   0  0  0  0  0  0  0  0  0  0  0  0
   58.0970   26.5560   44.9410 C   0  0  0  0  0  0  0  0  0  0  0  0
   59.4590   26.4230   45.6630 C   0  0  0  0  0  0  0  0  0  0  0  0
   59.8960   27.6080   46.4380 N   0  0  0  0  0  0  0  0  0  0  0  0
   60.3360   28.7620   45.6320 C   0  0  0  0  0  0  0  0  0  0  0  0
   61.1310   29.7280   46.5160 C   0  0  0  0  0  0  0  0  0  0  0  0
   60.4680   29.9210   47.8160 N   0  0  0  0  0  0  0  0  0  0  0  0
   61.2420   30.3330   48.9580 C   0  0  0  0  0  0  0  0  0  0  0  0
   61.0800   29.7490   50.0640 O   0  0  0  0  0  0  0  0  0  0  0  0
   62.2430   31.4120   48.8670 C   0  0  0  0  0  0  0  0  0  0  0  0
   63.0800   31.7240   49.9480 C   0  0  0  0  0  0  0  0  0  0  0  0
   64.0140   32.7540   49.8190 C   0  0  0  0  0  0  0  0  0  0  0  0
   64.1190   33.4500   48.6140 C   0  0  0  0  0  0  0  0  0  0  0  0
   63.2960   33.0900   47.5380 C   0  0  0  0  0  0  0  0  0  0  0  0
   63.3610   33.8400   46.2470 C   0  0  0  0  0  0  0  0  0  0  0  0
   62.3820   32.0930   47.6950 N   0  0  0  0  0  0  0  0  0  0  0  0
   59.1000   29.4200   47.9930 C   0  0  0  0  0  0  0  0  0  0  0  0
   59.0260   27.9380   47.5930 C   0  0  0  0  0  0  0  0  0  0  0  0
   57.4020   30.8360   43.0480 C   0  0  0  0  0  0  0  0  0  0  0  0
   57.6390   32.1970   43.2600 C   0  0  0  0  0  0  0  0  0  0  0  0
   59.4687   33.3924   50.7282 H   0  0  0  0  0  0  0  0  0  0  0  0
   61.0165   33.5477   49.8300 H   0  0  0  0  0  0  0  0  0  0  0  0
   59.8381   34.9035   49.8300 H   0  0  0  0  0  0  0  0  0  0  0  0
   59.9458   32.4726   48.1417 H   0  0  0  0  0  0  0  0  0  0  0  0
   58.3229   32.7809   48.8764 H   0  0  0  0  0  0  0  0  0  0  0  0
   58.0110   34.1682   47.1178 H   0  0  0  0  0  0  0  0  0  0  0  0
   59.0855   35.2975   48.0595 H   0  0  0  0  0  0  0  0  0  0  0  0
   60.8335   35.0518   46.6498 H   0  0  0  0  0  0  0  0  0  0  0  0
   60.4164   33.3011   46.3086 H   0  0  0  0  0  0  0  0  0  0  0  0
   59.4043   35.8096   44.9582 H   0  0  0  0  0  0  0  0  0  0  0  0
   60.1113   34.2903   44.2530 H   0  0  0  0  0  0  0  0  0  0  0  0
   57.8936   32.1774   46.6696 H   0  0  0  0  0  0  0  0  0  0  0  0
   57.4712   29.7581   46.2871 H   0  0  0  0  0  0  0  0  0  0  0  0
   57.8678   27.0344   42.8485 H   0  0  0  0  0  0  0  0  0  0  0  0
   59.0647   28.0575   43.7450 H   0  0  0  0  0  0  0  0  0  0  0  0
   57.3456   26.8684   45.6811 H   0  0  0  0  0  0  0  0  0  0  0  0
   57.8828   25.5728   44.4967 H   0  0  0  0  0  0  0  0  0  0  0  0
   59.3917   25.5720   46.3567 H   0  0  0  0  0  0  0  0  0  0  0  0
   60.2076   26.2933   44.8675 H   0  0  0  0  0  0  0  0  0  0  0  0
   60.9730   28.4114   44.8066 H   0  0  0  0  0  0  0  0  0  0  0  0
   59.4565   29.2796   45.2215 H   0  0  0  0  0  0  0  0  0  0  0  0
   62.1376   29.3170   46.6831 H   0  0  0  0  0  0  0  0  0  0  0  0
   61.1915   30.7006   46.0058 H   0  0  0  0  0  0  0  0  0  0  0  0
   63.0014   31.1618   50.8902 H   0  0  0  0  0  0  0  0  0  0  0  0
   64.6657   33.0162   50.6655 H   0  0  0  0  0  0  0  0  0  0  0  0
   64.8409   34.2734   48.5096 H   0  0  0  0  0  0  0  0  0  0  0  0
   63.4543   34.9166   46.4527 H   0  0  0  0  0  0  0  0  0  0  0  0
   64.2331   33.5002   45.6690 H   0  0  0  0  0  0  0  0  0  0  0  0
   62.4435   33.6553   45.6690 H   0  0  0  0  0  0  0  0  0  0  0  0
   58.8065   29.5275   49.0476 H   0  0  0  0  0  0  0  0  0  0  0  0
   58.4179   30.0004   47.3543 H   0  0  0  0  0  0  0  0  0  0  0  0
   59.3370   27.3264   48.4528 H   0  0  0  0  0  0  0  0  0  0  0  0
   57.9881   27.7278   47.2953 H   0  0  0  0  0  0  0  0  0  0  0  0
   57.2702   30.4572   42.0237 H   0  0  0  0  0  0  0  0  0  0  0  0
   57.6863   32.8810   42.3999 H   0  0  0  0  0  0  0  0  0  0  0  0
  1  2  1  0
  2  3  1  0
  3  4  1  0
  4  5  1  0
  5  6  1  0
  6  7  2  0
  6  8  1  0
  8  9  2  0
  9 10  1  0
 10 11  2  0
 11 12  1  0
 12 13  1  0
 13 14  1  0
 14 15  1  0
 15 16  1  0
 16 17  1  0
 17 18  1  0
 18 19  1  0
 19 20  1  0
 20 21  2  0
 20 22  1  0
 22 23  2  0
 23 24  1  0
 24 25  2  0
 25 26  1  0
 26 27  1  0
 26 28  2  0
 19 29  1  0
 29 30  1  0
 11 31  1  0
 31 32  2  0
 32  8  1  0
 30 16  1  0
 28 22  1  0
  1 33  1  0
  1 34  1  0
  1 35  1  0
  2 36  1  0
  2 37  1  0
  3 38  1  0
  3 39  1  0
  4 40  1  0
  4 41  1  0
  5 42  1  0
  5 43  1  0
  9 44  1  0
 10 45  1  0
 13 46  1  0
 13 47  1  0
 14 48  1  0
 14 49  1  0
 15 50  1  0
 15 51  1  0
 17 52  1  0
 17 53  1  0
 18 54  1  0
 18 55  1  0
 23 56  1  0
 24 57  1  0
 25 58  1  0
 27 59  1  0
 27 60  1  0
 27 61  1  0
 29 62  1  0
 29 63  1  0
 30 64  1  0
 30 65  1  0
 31 66  1  0
 32 67  1  0
M  END
>  <UniqueID>  (43) 
40

>  <SMILES>  (43) 
CCCCCC(=O)c1ccc(OCCCN2CCN(C(=O)c3cccc(C)n3)CC2)cc1

>  <Energy>  (43) 
74.73340033079717

>  <Genealogy>  (43) 
CCCCCC(=O)c1ccc(OCCCN2CCN(C(=O)c3cccc(C)n3)CC2)cc1 (3D coordinates assigned)
CCCCCC(=O)c1ccc(OCCCN2CCN(C(=O)c3cccc(C)n3)CC2)cc1 (nonaromatic ring conformer: 74.73340033079717 kcal/mol)

>  <smiles>  (43) 
CCCCCC(=O)c1ccc(OCCCN2CCN(C(=O)c3cccc(C)n3)CC2)cc1

>  <score_type>  (43) 
oracle

>  <origin>  (43) 
adg

>  <m_score__min__energy>  (43) 
-8.8800000000000008

>  <m_primary>  (43) 
energy

$$$$
43:0
     RDKit          3D

 43 45  0  0  0  0  0  0  0  0999 V2000
   64.8420   33.0330   49.3580 C   0  0  0  0  0  0  0  0  0  0  0  0
   63.6450   33.3370   48.5180 C   0  0  0  0  0  0  0  0  0  0  0  0
   63.6940   33.3980   47.1280 C   0  0  0  0  0  0  0  0  0  0  0  0
   62.1390   33.7240   46.5710 S   0  0  0  0  0  0  0  0  0  0  0  0
   61.4820   33.7630   48.1160 C   0  0  0  0  0  0  0  0  0  0  0  0
   59.7610   34.0890   48.4810 S   0  0  0  0  0  0  0  0  0  0  0  0
   59.1820   33.8040   46.7700 C   0  0  0  0  0  0  0  0  0  0  0  0
   57.9110   33.0050   46.7990 C   0  0  0  0  0  0  0  0  0  0  0  0
   56.9250   33.4420   47.4460 O   0  0  0  0  0  0  0  0  0  0  0  0
   57.7600   31.8000   46.0380 N   0  0  0  0  0  0  0  0  0  0  0  0
   57.6100   31.7330   44.6130 C   0  0  0  0  0  0  0  0  0  0  0  0
   58.1030   32.7700   43.8020 C   0  0  0  0  0  0  0  0  0  0  0  0
   57.9840   32.6980   42.4130 C   0  0  0  0  0  0  0  0  0  0  0  0
   57.3850   31.5860   41.8190 C   0  0  0  0  0  0  0  0  0  0  0  0
   56.9190   30.5350   42.6120 C   0  0  0  0  0  0  0  0  0  0  0  0
   57.0420   30.5890   44.0120 C   0  0  0  0  0  0  0  0  0  0  0  0
   56.5170   29.4760   44.8340 C   0  0  0  0  0  0  0  0  0  0  0  0
   55.2690   29.3480   44.9590 O   0  0  0  0  0  0  0  0  0  0  0  0
   57.3970   28.5350   45.4830 N   0  0  0  0  0  0  0  0  0  0  0  0
   56.9970   27.1330   45.6350 C   0  0  0  0  0  0  0  0  0  0  0  0
   57.5500   26.5770   46.9500 C   0  0  0  0  0  0  0  0  0  0  0  0
   58.9420   26.8070   47.0500 O   0  0  0  0  0  0  0  0  0  0  0  0
   59.1920   28.1980   47.1180 C   0  0  0  0  0  0  0  0  0  0  0  0
   58.7800   28.8910   45.8150 C   0  0  0  0  0  0  0  0  0  0  0  0
   62.4140   33.5310   49.0630 N   0  0  0  0  0  0  0  0  0  0  0  0
   64.5705   33.1019   50.4217 H   0  0  0  0  0  0  0  0  0  0  0  0
   65.1974   32.0161   49.1354 H   0  0  0  0  0  0  0  0  0  0  0  0
   65.6396   33.7571   49.1354 H   0  0  0  0  0  0  0  0  0  0  0  0
   64.5894   33.2581   46.5046 H   0  0  0  0  0  0  0  0  0  0  0  0
   58.9962   34.7710   46.2798 H   0  0  0  0  0  0  0  0  0  0  0  0
   59.9504   33.2510   46.2099 H   0  0  0  0  0  0  0  0  0  0  0  0
   58.5855   33.6435   44.2647 H   0  0  0  0  0  0  0  0  0  0  0  0
   58.3627   33.5186   41.7859 H   0  0  0  0  0  0  0  0  0  0  0  0
   57.2798   31.5374   40.7251 H   0  0  0  0  0  0  0  0  0  0  0  0
   56.4524   29.6587   42.1382 H   0  0  0  0  0  0  0  0  0  0  0  0
   55.8991   27.0650   45.6424 H   0  0  0  0  0  0  0  0  0  0  0  0
   57.3983   26.5471   44.7950 H   0  0  0  0  0  0  0  0  0  0  0  0
   57.0421   27.0707   47.7916 H   0  0  0  0  0  0  0  0  0  0  0  0
   57.3705   25.4920   46.9757 H   0  0  0  0  0  0  0  0  0  0  0  0
   58.6169   28.6271   47.9518 H   0  0  0  0  0  0  0  0  0  0  0  0
   60.2695   28.3546   47.2743 H   0  0  0  0  0  0  0  0  0  0  0  0
   58.8572   29.9811   45.9402 H   0  0  0  0  0  0  0  0  0  0  0  0
   59.4457   28.5650   45.0022 H   0  0  0  0  0  0  0  0  0  0  0  0
  1  2  1  0
  2  3  2  0
  3  4  1  0
  4  5  1  0
  5  6  1  0
  6  7  1  0
  7  8  1  0
  8  9  2  0
  8 10  1  0
 10 11  1  0
 11 12  2  0
 12 13  1  0
 13 14  2  0
 14 15  1  0
 15 16  2  0
 16 17  1  0
 17 18  2  0
 17 19  1  0
 19 20  1  0
 20 21  1  0
 21 22  1  0
 22 23  1  0
 23 24  1  0
  5 25  2  0
 25  2  1  0
 16 11  1  0
 24 19  1  0
  1 26  1  0
  1 27  1  0
  1 28  1  0
  3 29  1  0
  7 30  1  0
  7 31  1  0
 12 32  1  0
 13 33  1  0
 14 34  1  0
 15 35  1  0
 20 36  1  0
 20 37  1  0
 21 38  1  0
 21 39  1  0
 23 40  1  0
 23 41  1  0
 24 42  1  0
 24 43  1  0
M  CHG  1  10  -1
M  END
>  <UniqueID>  (44) 
41

>  <SMILES>  (44) 
Cc1csc(SCC(=O)[N-]c2ccccc2C(=O)N2CCOCC2)n1

>  <Energy>  (44) 
79.61461600996417

>  <Genealogy>  (44) 
Cc1csc(SCC(=O)[N-]c2ccccc2C(=O)N2CCOCC2)n1 (protonated)
Cc1csc(SCC(=O)[N-]c2ccccc2C(=O)N2CCOCC2)n1 (3D coordinates assigned)
Cc1csc(SCC(=O)[N-]c2ccccc2C(=O)N2CCOCC2)n1 (nonaromatic ring conformer: 79.61461600996417 kcal/mol)

>  <smiles>  (44) 
Cc1csc(SCC(=O)Nc2ccccc2C(=O)N2CCOCC2)n1

>  <score_type>  (44) 
oracle

>  <origin>  (44) 
adg

>  <m_score__min__energy>  (44) 
-10.51

>  <m_primary>  (44) 
energy

$$$$
44:0
     RDKit          3D

 51 54  0  0  0  0  0  0  0  0999 V2000
   57.3940   21.3340   47.7000 O   0  0  0  0  0  0  0  0  0  0  0  0
   56.9990   22.4420   47.2460 C   0  0  0  0  0  0  0  0  0  0  0  0
   56.6850   23.4360   48.1090 N   0  0  0  0  0  0  0  0  0  0  0  0
   56.2570   24.6220   47.6830 N   0  0  0  0  0  0  0  0  0  0  0  0
   56.0990   24.9020   46.3610 C   0  0  0  0  0  0  0  0  0  0  0  0
   55.6110   26.2800   45.9850 C   0  0  0  0  0  0  0  0  0  0  0  0
   56.7560   27.2100   45.6450 C   0  0  0  0  0  0  0  0  0  0  0  0
   58.0790   26.7520   45.7650 C   0  0  0  0  0  0  0  0  0  0  0  0
   59.1490   27.5820   45.4320 C   0  0  0  0  0  0  0  0  0  0  0  0
   58.9150   28.8710   44.9560 C   0  0  0  0  0  0  0  0  0  0  0  0
   57.6020   29.3440   44.7960 C   0  0  0  0  0  0  0  0  0  0  0  0
   57.3480   30.6570   44.2680 N   0  0  0  0  0  0  0  0  0  0  0  0
   57.7460   32.1130   45.1270 S   0  0  0  0  0  0  0  0  0  0  0  0
   58.7450   32.8930   44.3200 O   0  0  0  0  0  0  0  0  0  0  0  0
   56.5120   32.9520   45.3080 O   0  0  0  0  0  0  0  0  0  0  0  0
   58.4660   31.7310   46.7200 C   0  0  0  0  0  0  0  0  0  0  0  0
   59.8590   32.2910   46.8230 C   0  0  0  0  0  0  0  0  0  0  0  0
   60.0850   33.6700   46.6730 C   0  0  0  0  0  0  0  0  0  0  0  0
   61.3740   34.1930   46.8160 C   0  0  0  0  0  0  0  0  0  0  0  0
   62.4480   33.3460   47.1010 C   0  0  0  0  0  0  0  0  0  0  0  0
   63.6960   33.8570   47.2420 F   0  0  0  0  0  0  0  0  0  0  0  0
   62.2320   31.9700   47.2450 C   0  0  0  0  0  0  0  0  0  0  0  0
   63.2740   31.1460   47.5220 F   0  0  0  0  0  0  0  0  0  0  0  0
   60.9430   31.4450   47.1080 C   0  0  0  0  0  0  0  0  0  0  0  0
   56.5220   28.5080   45.1430 C   0  0  0  0  0  0  0  0  0  0  0  0
   55.2190   28.9660   44.9680 O   0  0  0  0  0  0  0  0  0  0  0  0
   56.3800   23.8960   45.4040 C   0  0  0  0  0  0  0  0  0  0  0  0
   56.8770   22.6520   45.8630 C   0  0  0  0  0  0  0  0  0  0  0  0
   57.1790   21.5160   44.9060 C   0  0  0  0  0  0  0  0  0  0  0  0
   57.3910   21.9920   43.4700 C   0  0  0  0  0  0  0  0  0  0  0  0
   56.2570   22.9230   43.0550 C   0  0  0  0  0  0  0  0  0  0  0  0
   56.2610   24.1860   43.9200 C   0  0  0  0  0  0  0  0  0  0  0  0
   54.9487   26.1966   45.1107 H   0  0  0  0  0  0  0  0  0  0  0  0
   55.0753   26.6999   46.8491 H   0  0  0  0  0  0  0  0  0  0  0  0
   58.2722   25.7305   46.1245 H   0  0  0  0  0  0  0  0  0  0  0  0
   60.1809   27.2183   45.5453 H   0  0  0  0  0  0  0  0  0  0  0  0
   59.7646   29.5226   44.7038 H   0  0  0  0  0  0  0  0  0  0  0  0
   57.1040   30.7650   43.2590 H   0  0  0  0  0  0  0  0  0  0  0  0
   57.8415   32.1687   47.5127 H   0  0  0  0  0  0  0  0  0  0  0  0
   58.5154   30.6379   46.8324 H   0  0  0  0  0  0  0  0  0  0  0  0
   59.2443   34.3408   46.4421 H   0  0  0  0  0  0  0  0  0  0  0  0
   61.5428   35.2742   46.7038 H   0  0  0  0  0  0  0  0  0  0  0  0
   60.7774   30.3637   47.2241 H   0  0  0  0  0  0  0  0  0  0  0  0
   58.0918   21.0042   45.2450 H   0  0  0  0  0  0  0  0  0  0  0  0
   56.3093   20.8425   44.9066 H   0  0  0  0  0  0  0  0  0  0  0  0
   58.3476   22.5309   43.4026 H   0  0  0  0  0  0  0  0  0  0  0  0
   57.4052   21.1200   42.7996 H   0  0  0  0  0  0  0  0  0  0  0  0
   56.3876   23.2056   42.0000 H   0  0  0  0  0  0  0  0  0  0  0  0
   55.2984   22.4006   43.1901 H   0  0  0  0  0  0  0  0  0  0  0  0
   57.1121   24.8137   43.6175 H   0  0  0  0  0  0  0  0  0  0  0  0
   55.2968   24.6917   43.7630 H   0  0  0  0  0  0  0  0  0  0  0  0
  1  2  2  0
  2  3  1  0
  3  4  1  0
  4  5  2  0
  5  6  1  0
  6  7  1  0
  7  8  2  0
  8  9  1  0
  9 10  2  0
 10 11  1  0
 11 12  1  0
 12 13  1  0
 13 14  2  0
 13 15  2  0
 13 16  1  0
 16 17  1  0
 17 18  2  0
 18 19  1  0
 19 20  2  0
 20 21  1  0
 20 22  1  0
 22 23  1  0
 22 24  2  0
 11 25  2  0
 25 26  1  0
  5 27  1  0
 27 28  2  0
 28 29  1  0
 29 30  1  0
 30 31  1  0
 31 32  1  0
 28  2  1  0
 25  7  1  0
 32 27  1  0
 24 17  1  0
  6 33  1  0
  6 34  1  0
  8 35  1  0
  9 36  1  0
 10 37  1  0
 12 38  1  0
 16 39  1  0
 16 40  1  0
 18 41  1  0
 19 42  1  0
 24 43  1  0
 29 44  1  0
 29 45  1  0
 30 46  1  0
 30 47  1  0
 31 48  1  0
 31 49  1  0
 32 50  1  0
 32 51  1  0
M  CHG  2   3  -1  26  -1
M  END
>  <UniqueID>  (45) 
42

>  <SMILES>  (45) 
O=c1[n-]nc(Cc2cccc(NS(=O)(=O)Cc3ccc(F)c(F)c3)c2[O-])c2c1CCCC2

>  <Energy>  (45) 
55.33318077828392

>  <Genealogy>  (45) 
O=c1[n-]nc(Cc2cccc(NS(=O)(=O)Cc3ccc(F)c(F)c3)c2[O-])c2c1CCCC2 (protonated)
O=c1[n-]nc(Cc2cccc(NS(=O)(=O)Cc3ccc(F)c(F)c3)c2[O-])c2c1CCCC2 (3D coordinates assigned)
O=c1[n-]nc(Cc2cccc(NS(=O)(=O)Cc3ccc(F)c(F)c3)c2[O-])c2c1CCCC2 (nonaromatic ring conformer: 55.33318077828392 kcal/mol)

>  <smiles>  (45) 
O=c1[nH]nc(Cc2cccc(NS(=O)(=O)Cc3ccc(F)c(F)c3)c2O)c2c1CCCC2

>  <score_type>  (45) 
oracle

>  <origin>  (45) 
adg

>  <m_score__min__energy>  (45) 
-15.9

>  <m_primary>  (45) 
energy

$$$$
45:0
     RDKit          3D

 52 54  0  0  0  0  0  0  0  0999 V2000
   57.9270   27.0690   42.8310 C   0  0  0  0  0  0  0  0  0  0  0  0
   58.0440   26.3050   44.1470 C   0  0  0  0  0  0  0  0  0  0  0  0
   57.9990   27.2270   45.2880 N   0  0  0  0  0  0  0  0  0  0  0  0
   57.7410   26.7270   46.6440 C   0  0  0  0  0  0  0  0  0  0  0  0
   58.7180   27.3220   47.6220 C   0  0  0  0  0  0  0  0  0  0  0  0
   59.7940   26.5560   48.1010 C   0  0  0  0  0  0  0  0  0  0  0  0
   60.6810   27.0980   49.0360 C   0  0  0  0  0  0  0  0  0  0  0  0
   60.5050   28.4100   49.4950 C   0  0  0  0  0  0  0  0  0  0  0  0
   59.4390   29.1820   49.0220 C   0  0  0  0  0  0  0  0  0  0  0  0
   58.5460   28.6400   48.0910 C   0  0  0  0  0  0  0  0  0  0  0  0
   57.9420   28.6420   45.0450 C   0  0  0  0  0  0  0  0  0  0  0  0
   56.7140   29.3090   44.9730 C   0  0  0  0  0  0  0  0  0  0  0  0
   55.5230   28.6280   45.1800 O   0  0  0  0  0  0  0  0  0  0  0  0
   56.6850   30.6380   44.7070 N   0  0  0  0  0  0  0  0  0  0  0  0
   57.8310   31.3400   44.5090 C   0  0  0  0  0  0  0  0  0  0  0  0
   57.7470   33.0900   44.1410 S   0  0  0  0  0  0  0  0  0  0  0  0
   57.2580   33.5870   45.8290 C   0  0  0  0  0  0  0  0  0  0  0  0
   58.4510   33.7650   46.7180 C   0  0  0  0  0  0  0  0  0  0  0  0
   59.0740   34.8620   46.7090 O   0  0  0  0  0  0  0  0  0  0  0  0
   58.8280   32.7120   47.6060 N   0  0  0  0  0  0  0  0  0  0  0  0
   58.9060   32.7860   49.0360 C   0  0  0  0  0  0  0  0  0  0  0  0
   59.7860   33.7080   49.6170 C   0  0  0  0  0  0  0  0  0  0  0  0
   59.8870   33.8100   51.0070 C   0  0  0  0  0  0  0  0  0  0  0  0
   59.0960   33.0060   51.8290 C   0  0  0  0  0  0  0  0  0  0  0  0
   58.1900   32.0950   51.2610 C   0  0  0  0  0  0  0  0  0  0  0  0
   57.2150   31.0600   52.2990 S   0  0  0  0  0  0  0  0  0  0  0  0
   57.8970   31.0180   53.8880 N   0  0  0  0  0  0  0  0  0  0  0  0
   57.1670   29.6670   51.7330 O   0  0  0  0  0  0  0  0  0  0  0  0
   55.8180   31.5980   52.3740 O   0  0  0  0  0  0  0  0  0  0  0  0
   58.0920   31.9880   49.8660 C   0  0  0  0  0  0  0  0  0  0  0  0
   59.0350   30.7150   44.5820 N   0  0  0  0  0  0  0  0  0  0  0  0
   59.1140   29.3850   44.8430 C   0  0  0  0  0  0  0  0  0  0  0  0
   60.2430   28.8290   44.8950 O   0  0  0  0  0  0  0  0  0  0  0  0
   57.7635   28.1365   43.0401 H   0  0  0  0  0  0  0  0  0  0  0  0
   58.8544   26.9465   42.2522 H   0  0  0  0  0  0  0  0  0  0  0  0
   57.0788   26.6746   42.2522 H   0  0  0  0  0  0  0  0  0  0  0  0
   57.2102   25.5919   44.2259 H   0  0  0  0  0  0  0  0  0  0  0  0
   59.0056   25.7710   44.1616 H   0  0  0  0  0  0  0  0  0  0  0  0
   56.7184   27.0014   46.9421 H   0  0  0  0  0  0  0  0  0  0  0  0
   57.8573   25.6332   46.6471 H   0  0  0  0  0  0  0  0  0  0  0  0
   59.9389   25.5273   47.7395 H   0  0  0  0  0  0  0  0  0  0  0  0
   61.5191   26.4929   49.4122 H   0  0  0  0  0  0  0  0  0  0  0  0
   61.2065   28.8337   50.2287 H   0  0  0  0  0  0  0  0  0  0  0  0
   59.3029   30.2128   49.3810 H   0  0  0  0  0  0  0  0  0  0  0  0
   57.7049   29.2460   47.7230 H   0  0  0  0  0  0  0  0  0  0  0  0
   56.7071   34.5376   45.7759 H   0  0  0  0  0  0  0  0  0  0  0  0
   56.6278   32.7915   46.2533 H   0  0  0  0  0  0  0  0  0  0  0  0
   60.4013   34.3557   48.9752 H   0  0  0  0  0  0  0  0  0  0  0  0
   60.5920   34.5260   51.4546 H   0  0  0  0  0  0  0  0  0  0  0  0
   59.1821   33.0857   52.9227 H   0  0  0  0  0  0  0  0  0  0  0  0
   58.4360   30.1190   53.9670 H   0  0  0  0  0  0  0  0  0  0  0  0
   57.3787   31.2802   49.4185 H   0  0  0  0  0  0  0  0  0  0  0  0
  1  2  1  0
  2  3  1  0
  3  4  1  0
  4  5  1  0
  5  6  2  0
  6  7  1  0
  7  8  2  0
  8  9  1  0
  9 10  2  0
  3 11  1  0
 11 12  2  0
 12 13  1  0
 12 14  1  0
 14 15  1  0
 15 16  1  0
 16 17  1  0
 17 18  1  0
 18 19  2  0
 18 20  1  0
 20 21  1  0
 21 22  2  0
 22 23  1  0
 23 24  2  0
 24 25  1  0
 25 26  1  0
 26 27  1  0
 26 28  2  0
 26 29  2  0
 25 30  2  0
 15 31  2  0
 31 32  1  0
 32 33  2  0
 10  5  1  0
 32 11  1  0
 30 21  1  0
  1 34  1  0
  1 35  1  0
  1 36  1  0
  2 37  1  0
  2 38  1  0
  4 39  1  0
  4 40  1  0
  6 41  1  0
  7 42  1  0
  8 43  1  0
  9 44  1  0
 10 45  1  0
 17 46  1  0
 17 47  1  0
 22 48  1  0
 23 49  1  0
 24 50  1  0
 27 51  1  0
 30 52  1  0
M  CHG  4  13  -1  14  -1  20  -1  27  -1
M  END
>  <UniqueID>  (46) 
43

>  <SMILES>  (46) 
CCN(Cc1ccccc1)c1c([O-])[n-]c(SCC(=O)[N-]c2cccc(S([NH-])(=O)=O)c2)nc1=O

>  <Energy>  (46) 
51.48180080021147

>  <Genealogy>  (46) 
CCN(Cc1ccccc1)c1c([O-])[n-]c(SCC(=O)[N-]c2cccc(S([NH-])(=O)=O)c2)nc1=O (protonated)
CCN(Cc1ccccc1)c1c([O-])[n-]c(SCC(=O)[N-]c2cccc(S([NH-])(=O)=O)c2)nc1=O (3D coordinates assigned)
CCN(Cc1ccccc1)c1c([O-])[n-]c(SCC(=O)[N-]c2cccc(S([NH-])(=O)=O)c2)nc1=O (optimized conformer: 51.48180080021147 kcal/mol)

>  <smiles>  (46) 
CCN(Cc1ccccc1)c1c(O)[nH]c(SCC(=O)Nc2cccc(S(N)(=O)=O)c2)nc1=O

>  <score_type>  (46) 
oracle

>  <origin>  (46) 
adg

>  <m_score__min__energy>  (46) 
-15.380000000000001

>  <m_primary>  (46) 
energy

$$$$
46:0
     RDKit          3D

 42 44  0  0  0  0  0  0  0  0999 V2000
   56.4420   24.5250   44.4530 O   0  0  0  0  0  0  0  0  0  0  0  0
   55.7080   24.7540   45.4530 C   0  0  0  0  0  0  0  0  0  0  0  0
   56.0680   25.7890   46.3820 N   0  0  0  0  0  0  0  0  0  0  0  0
   57.1120   26.7430   46.1280 C   0  0  0  0  0  0  0  0  0  0  0  0
   58.4250   26.4330   46.5090 C   0  0  0  0  0  0  0  0  0  0  0  0
   59.4590   27.3380   46.2760 C   0  0  0  0  0  0  0  0  0  0  0  0
   59.1910   28.5700   45.6780 C   0  0  0  0  0  0  0  0  0  0  0  0
   57.8800   28.9180   45.3250 C   0  0  0  0  0  0  0  0  0  0  0  0
   57.5720   30.5110   44.6120 S   0  0  0  0  0  0  0  0  0  0  0  0
   56.3180   30.4670   43.7840 O   0  0  0  0  0  0  0  0  0  0  0  0
   58.7120   30.8650   43.6980 O   0  0  0  0  0  0  0  0  0  0  0  0
   57.4160   31.7490   45.8390 N   0  0  0  0  0  0  0  0  0  0  0  0
   57.0350   33.0600   45.2550 C   0  0  0  0  0  0  0  0  0  0  0  0
   58.2040   34.0540   45.1990 C   0  0  0  0  0  0  0  0  0  0  0  0
   58.7880   34.3050   46.5990 C   0  0  0  0  0  0  0  0  0  0  0  0
   58.6830   33.0720   47.5180 C   0  0  0  0  0  0  0  0  0  0  0  0
   58.6200   31.7800   46.6980 C   0  0  0  0  0  0  0  0  0  0  0  0
   56.8340   28.0010   45.5570 C   0  0  0  0  0  0  0  0  0  0  0  0
   55.5220   28.3440   45.2470 O   0  0  0  0  0  0  0  0  0  0  0  0
   54.4970   23.9360   45.6780 C   0  0  0  0  0  0  0  0  0  0  0  0
   54.2230   23.3680   46.9310 C   0  0  0  0  0  0  0  0  0  0  0  0
   53.0730   22.6000   47.0960 C   0  0  0  0  0  0  0  0  0  0  0  0
   52.2200   22.4110   46.0090 C   0  0  0  0  0  0  0  0  0  0  0  0
   51.1740   21.7220   46.1310 O   0  0  0  0  0  0  0  0  0  0  0  0
   52.5260   22.9790   44.8140 N   0  0  0  0  0  0  0  0  0  0  0  0
   53.6280   23.7150   44.6540 N   0  0  0  0  0  0  0  0  0  0  0  0
   55.6660   25.7560   47.3460 H   0  0  0  0  0  0  0  0  0  0  0  0
   58.6404   25.4698   46.9947 H   0  0  0  0  0  0  0  0  0  0  0  0
   60.4889   27.0805   46.5642 H   0  0  0  0  0  0  0  0  0  0  0  0
   60.0143   29.2728   45.4823 H   0  0  0  0  0  0  0  0  0  0  0  0
   56.6664   32.8942   44.2319 H   0  0  0  0  0  0  0  0  0  0  0  0
   56.2619   33.4973   45.9040 H   0  0  0  0  0  0  0  0  0  0  0  0
   58.9920   33.6449   44.5496 H   0  0  0  0  0  0  0  0  0  0  0  0
   57.8304   35.0090   44.8011 H   0  0  0  0  0  0  0  0  0  0  0  0
   59.8489   34.5763   46.4942 H   0  0  0  0  0  0  0  0  0  0  0  0
   58.2045   35.1146   47.0618 H   0  0  0  0  0  0  0  0  0  0  0  0
   59.5638   33.0378   48.1761 H   0  0  0  0  0  0  0  0  0  0  0  0
   57.7610   33.1553   48.1121 H   0  0  0  0  0  0  0  0  0  0  0  0
   59.5156   31.7143   46.0628 H   0  0  0  0  0  0  0  0  0  0  0  0
   58.5737   30.9286   47.3930 H   0  0  0  0  0  0  0  0  0  0  0  0
   54.9099   23.5277   47.7752 H   0  0  0  0  0  0  0  0  0  0  0  0
   52.8404   22.1481   48.0715 H   0  0  0  0  0  0  0  0  0  0  0  0
  1  2  2  0
  2  3  1  0
  3  4  1  0
  4  5  2  0
  5  6  1  0
  6  7  2  0
  7  8  1  0
  8  9  1  0
  9 10  2  0
  9 11  2  0
  9 12  1  0
 12 13  1  0
 13 14  1  0
 14 15  1  0
 15 16  1  0
 16 17  1  0
  8 18  2  0
 18 19  1  0
  2 20  1  0
 20 21  1  0
 21 22  2  0
 22 23  1  0
 23 24  2  0
 23 25  1  0
 25 26  1  0
 18  4  1  0
 26 20  2  0
 17 12  1  0
  3 27  1  0
  5 28  1  0
  6 29  1  0
  7 30  1  0
 13 31  1  0
 13 32  1  0
 14 33  1  0
 14 34  1  0
 15 35  1  0
 15 36  1  0
 16 37  1  0
 16 38  1  0
 17 39  1  0
 17 40  1  0
 21 41  1  0
 22 42  1  0
M  CHG  2  19  -1  25  -1
M  END
>  <UniqueID>  (47) 
44

>  <SMILES>  (47) 
O=C(Nc1cccc(S(=O)(=O)N2CCCCC2)c1[O-])c1ccc(=O)[n-]n1

>  <Energy>  (47) 
56.174386782024975

>  <Genealogy>  (47) 
O=C(Nc1cccc(S(=O)(=O)N2CCCCC2)c1[O-])c1ccc(=O)[n-]n1 (protonated)
O=C(Nc1cccc(S(=O)(=O)N2CCCCC2)c1[O-])c1ccc(=O)[n-]n1 (3D coordinates assigned)
O=C(Nc1cccc(S(=O)(=O)N2CCCCC2)c1[O-])c1ccc(=O)[n-]n1 (nonaromatic ring conformer: 56.174386782024975 kcal/mol)

>  <smiles>  (47) 
O=C(Nc1cccc(S(=O)(=O)N2CCCCC2)c1O)c1ccc(=O)[nH]n1

>  <score_type>  (47) 
oracle

>  <origin>  (47) 
adg

>  <m_score__min__energy>  (47) 
-14.359999999999999

>  <m_primary>  (47) 
energy

$$$$
47:0
     RDKit          3D

 45 48  0  0  0  0  0  0  0  0999 V2000
   59.2440   35.7278   44.6986 H   0  0  0  0  0  0  0  0  0  0  0  0
   59.1440   34.9530   45.4730 C   0  0  0  0  0  0  0  0  0  0  0  0
   58.5800   33.7420   45.2340 N   0  0  0  0  0  0  0  0  0  0  0  0
   58.6500   33.1360   46.4300 C   0  0  0  0  0  0  0  0  0  0  0  0
   58.2510   31.8380   46.8010 C   0  0  0  0  0  0  0  0  0  0  0  0
   57.6750   30.9940   45.9910 N   0  0  0  0  0  0  0  0  0  0  0  0
   57.9960   29.6060   45.8130 C   0  0  0  0  0  0  0  0  0  0  0  0
   59.2330   29.1310   46.2650 C   0  0  0  0  0  0  0  0  0  0  0  0
   59.9514   29.8254   46.7251 H   0  0  0  0  0  0  0  0  0  0  0  0
   59.5590   27.7780   46.1340 C   0  0  0  0  0  0  0  0  0  0  0  0
   60.5384   27.4126   46.4763 H   0  0  0  0  0  0  0  0  0  0  0  0
   58.6420   26.8910   45.5690 C   0  0  0  0  0  0  0  0  0  0  0  0
   58.9035   25.8283   45.4585 H   0  0  0  0  0  0  0  0  0  0  0  0
   57.3920   27.3490   45.1430 C   0  0  0  0  0  0  0  0  0  0  0  0
   56.6708   26.6440   44.7037 H   0  0  0  0  0  0  0  0  0  0  0  0
   57.0520   28.7100   45.2740 C   0  0  0  0  0  0  0  0  0  0  0  0
   55.7950   29.2040   44.8860 O   0  0  0  0  0  0  0  0  0  0  0  0
   55.5730   30.0530   43.7650 C   0  0  0  0  0  0  0  0  0  0  0  0
   55.3092   31.0617   44.1156 H   0  0  0  0  0  0  0  0  0  0  0  0
   56.4880   30.1038   43.1566 H   0  0  0  0  0  0  0  0  0  0  0  0
   54.7502   29.6494   43.1566 H   0  0  0  0  0  0  0  0  0  0  0  0
   58.5070   31.4490   48.0860 N   0  0  0  0  0  0  0  0  0  0  0  0
   59.0920   32.2720   49.0120 C   0  0  0  0  0  0  0  0  0  0  0  0
   59.3080   31.7860   50.3080 O   0  0  0  0  0  0  0  0  0  0  0  0
   58.3300   31.1710   51.1020 C   0  0  0  0  0  0  0  0  0  0  0  0
   58.6580   30.0010   51.7960 C   0  0  0  0  0  0  0  0  0  0  0  0
   59.6746   29.5873   51.7227 H   0  0  0  0  0  0  0  0  0  0  0  0
   57.6990   29.3560   52.5820 C   0  0  0  0  0  0  0  0  0  0  0  0
   57.9630   28.4368   53.1255 H   0  0  0  0  0  0  0  0  0  0  0  0
   56.4060   29.8760   52.6790 C   0  0  0  0  0  0  0  0  0  0  0  0
   55.6536   29.3607   53.2941 H   0  0  0  0  0  0  0  0  0  0  0  0
   56.0630   31.0500   51.9970 C   0  0  0  0  0  0  0  0  0  0  0  0
   54.7130   31.5300   52.0790 N   0  0  0  0  0  0  0  0  0  0  0  0
   53.5280   30.8650   51.6210 C   0  0  0  0  0  0  0  0  0  0  0  0
   53.6500   29.8520   50.8830 O   0  0  0  0  0  0  0  0  0  0  0  0
   52.1540   31.2660   52.0750 C   0  0  0  0  0  0  0  0  0  0  0  0
   51.5351   30.3650   52.1979 H   0  0  0  0  0  0  0  0  0  0  0  0
   52.2356   31.8007   53.0328 H   0  0  0  0  0  0  0  0  0  0  0  0
   51.3950   32.3410   50.8740 S   0  0  0  0  0  0  0  0  0  0  0  0
   57.0190   31.6750   51.1810 C   0  0  0  0  0  0  0  0  0  0  0  0
   56.7409   32.5659   50.5988 H   0  0  0  0  0  0  0  0  0  0  0  0
   59.4940   33.5740   48.6370 C   0  0  0  0  0  0  0  0  0  0  0  0
   59.9809   34.2518   49.3536 H   0  0  0  0  0  0  0  0  0  0  0  0
   59.2490   33.9620   47.3270 C   0  0  0  0  0  0  0  0  0  0  0  0
   59.5740   35.1270   46.7480 N   0  0  0  0  0  0  0  0  0  0  0  0
  1  2  1  0
  2  3  2  0
  3  4  1  0
  4  5  1  0
  5  6  2  0
  6  7  1  0
  7  8  2  0
  8  9  1  0
  8 10  1  0
 10 11  1  0
 10 12  2  0
 12 13  1  0
 12 14  1  0
 14 15  1  0
 14 16  2  0
 16 17  1  0
 17 18  1  0
 18 19  1  0
 18 20  1  0
 18 21  1  0
  5 22  1  0
 22 23  1  0
 23 24  1  0
 24 25  1  0
 25 26  2  0
 26 27  1  0
 26 28  1  0
 28 29  1  0
 28 30  2  0
 30 31  1  0
 30 32  1  0
 32 33  1  0
 33 34  1  0
 34 35  2  0
 34 36  1  0
 36 37  1  0
 36 38  1  0
 36 39  1  0
 32 40  2  0
 40 41  1  0
 23 42  2  0
 42 43  1  0
 42 44  1  0
 44 45  1  0
 45  2  1  0
 44  4  2  0
 16  7  1  0
 40 25  1  0
M  CHG  4  22  -1  33  -1  39  -1  45  -1
M  END
>  <UniqueID>  (48) 
45

>  <SMILES>  (48) 
COc1ccccc1/N=c1/[n-]c(Oc2cccc([N-]C(=O)C[S-])c2)cc2[n-]cnc12

>  <Energy>  (48) 
104.37445072010826

>  <Genealogy>  (48) 
COc1ccccc1N=c1[n-]c(Oc2cccc([N-]C(=O)C[S-])c2)cc2[n-]cnc12 (protonated)
COc1ccccc1/N=c1/[n-]c(Oc2cccc([N-]C(=O)C[S-])c2)cc2[n-]cnc12 (cis-trans isomerization)
COc1ccccc1/N=c1/[n-]c(Oc2cccc([N-]C(=O)C[S-])c2)cc2[n-]cnc12 (3D coordinates assigned)
COc1ccccc1/N=c1/[n-]c(Oc2cccc([N-]C(=O)C[S-])c2)cc2[n-]cnc12 (optimized conformer: 104.37445072010826 kcal/mol)

>  <smiles>  (48) 
COc1ccccc1N=c1[nH]c(Oc2cccc(NC(=O)CS)c2)cc2[nH]cnc12

>  <score_type>  (48) 
oracle

>  <origin>  (48) 
adg

>  <m_score__min__energy>  (48) 
-14.15

>  <m_primary>  (48) 
energy

$$$$
48:0
     RDKit          3D

 64 67  0  0  0  0  0  0  0  0999 V2000
   57.5640   32.2450   52.4540 C   0  0  0  0  0  0  0  0  0  0  0  0
   58.8320   33.3500   51.8740 S   0  0  0  0  0  0  0  0  0  0  0  0
   58.4900   34.7730   52.2200 O   0  0  0  0  0  0  0  0  0  0  0  0
   58.9330   33.2260   50.3790 O   0  0  0  0  0  0  0  0  0  0  0  0
   60.3560   32.9120   52.5710 N   0  0  0  0  0  0  0  0  0  0  0  0
   61.6370   33.0270   51.9350 C   0  0  0  0  0  0  0  0  0  0  0  0
   62.8380   32.7060   52.5960 C   0  0  0  0  0  0  0  0  0  0  0  0
   64.0620   32.8580   51.9420 C   0  0  0  0  0  0  0  0  0  0  0  0
   64.1040   33.3300   50.6260 C   0  0  0  0  0  0  0  0  0  0  0  0
   62.9140   33.6320   49.9470 C   0  0  0  0  0  0  0  0  0  0  0  0
   62.9550   34.1740   48.5440 C   0  0  0  0  0  0  0  0  0  0  0  0
   61.9930   33.4280   47.6650 C   0  0  0  0  0  0  0  0  0  0  0  0
   62.4430   32.7190   46.7200 O   0  0  0  0  0  0  0  0  0  0  0  0
   60.5810   33.4900   47.9140 N   0  0  0  0  0  0  0  0  0  0  0  0
   59.5960   32.9500   47.0110 C   0  0  0  0  0  0  0  0  0  0  0  0
   58.7140   33.8130   46.3380 C   0  0  0  0  0  0  0  0  0  0  0  0
   57.7310   33.3060   45.4870 C   0  0  0  0  0  0  0  0  0  0  0  0
   57.6150   31.9240   45.2860 C   0  0  0  0  0  0  0  0  0  0  0  0
   56.6010   31.3770   44.4300 N   0  0  0  0  0  0  0  0  0  0  0  0
   56.1970   30.0030   44.3810 C   0  0  0  0  0  0  0  0  0  0  0  0
   55.0860   29.6770   44.8740 O   0  0  0  0  0  0  0  0  0  0  0  0
   57.0900   28.9350   43.8020 C   0  0  0  0  0  0  0  0  0  0  0  0
   57.7010   28.1070   44.9040 C   0  0  0  0  0  0  0  0  0  0  0  0
   59.0920   28.1430   45.1060 C   0  0  0  0  0  0  0  0  0  0  0  0
   59.6770   27.4070   46.1380 C   0  0  0  0  0  0  0  0  0  0  0  0
   58.8800   26.6320   46.9840 C   0  0  0  0  0  0  0  0  0  0  0  0
   57.4960   26.5970   46.8020 C   0  0  0  0  0  0  0  0  0  0  0  0
   56.9010   27.3360   45.7710 C   0  0  0  0  0  0  0  0  0  0  0  0
   55.5190   27.2990   45.6180 O   0  0  0  0  0  0  0  0  0  0  0  0
   58.4580   31.0560   45.9850 C   0  0  0  0  0  0  0  0  0  0  0  0
   59.4490   31.5510   46.8520 C   0  0  0  0  0  0  0  0  0  0  0  0
   60.3550   30.5940   47.5320 C   0  0  0  0  0  0  0  0  0  0  0  0
   61.2890   30.0610   46.8700 O   0  0  0  0  0  0  0  0  0  0  0  0
   60.1750   30.2260   48.9580 C   0  0  0  0  0  0  0  0  0  0  0  0
   61.2870   30.0360   49.8020 C   0  0  0  0  0  0  0  0  0  0  0  0
   61.1070   29.6810   51.1420 C   0  0  0  0  0  0  0  0  0  0  0  0
   59.8200   29.5080   51.6560 C   0  0  0  0  0  0  0  0  0  0  0  0
   58.7090   29.6810   50.8270 C   0  0  0  0  0  0  0  0  0  0  0  0
   58.8830   30.0330   49.4830 C   0  0  0  0  0  0  0  0  0  0  0  0
   61.6860   33.4870   50.6130 C   0  0  0  0  0  0  0  0  0  0  0  0
   57.5576   32.2394   53.5540 H   0  0  0  0  0  0  0  0  0  0  0  0
   56.5852   32.5833   52.0833 H   0  0  0  0  0  0  0  0  0  0  0  0
   57.7653   31.2291   52.0833 H   0  0  0  0  0  0  0  0  0  0  0  0
   62.8118   32.3343   53.6310 H   0  0  0  0  0  0  0  0  0  0  0  0
   64.9970   32.6056   52.4636 H   0  0  0  0  0  0  0  0  0  0  0  0
   65.0725   33.4648   50.1221 H   0  0  0  0  0  0  0  0  0  0  0  0
   62.6807   35.2391   48.5590 H   0  0  0  0  0  0  0  0  0  0  0  0
   63.9722   34.0506   48.1440 H   0  0  0  0  0  0  0  0  0  0  0  0
   60.2530   33.9230   48.8080 H   0  0  0  0  0  0  0  0  0  0  0  0
   58.7995   34.9000   46.4837 H   0  0  0  0  0  0  0  0  0  0  0  0
   57.0444   33.9940   44.9719 H   0  0  0  0  0  0  0  0  0  0  0  0
   56.4959   28.2826   43.1452 H   0  0  0  0  0  0  0  0  0  0  0  0
   57.8958   29.4159   43.2281 H   0  0  0  0  0  0  0  0  0  0  0  0
   59.7239   28.7555   44.4461 H   0  0  0  0  0  0  0  0  0  0  0  0
   60.7667   27.4374   46.2852 H   0  0  0  0  0  0  0  0  0  0  0  0
   59.3429   26.0491   47.7939 H   0  0  0  0  0  0  0  0  0  0  0  0
   56.8706   25.9870   47.4705 H   0  0  0  0  0  0  0  0  0  0  0  0
   58.3450   29.9695   45.8554 H   0  0  0  0  0  0  0  0  0  0  0  0
   62.3039   30.1679   49.4037 H   0  0  0  0  0  0  0  0  0  0  0  0
   61.9816   29.5375   51.7935 H   0  0  0  0  0  0  0  0  0  0  0  0
   59.6813   29.2357   52.7127 H   0  0  0  0  0  0  0  0  0  0  0  0
   57.6955   29.5404   51.2309 H   0  0  0  0  0  0  0  0  0  0  0  0
   58.0046   30.1596   48.8331 H   0  0  0  0  0  0  0  0  0  0  0  0
   60.7513   33.7378   50.0900 H   0  0  0  0  0  0  0  0  0  0  0  0
  1  2  1  0
  2  3  2  0
  2  4  2  0
  2  5  1  0
  5  6  1  0
  6  7  2  0
  7  8  1  0
  8  9  2  0
  9 10  1  0
 10 11  1  0
 11 12  1  0
 12 13  2  0
 12 14  1  0
 14 15  1  0
 15 16  2  0
 16 17  1  0
 17 18  2  0
 18 19  1  0
 19 20  1  0
 20 21  2  0
 20 22  1  0
 22 23  1  0
 23 24  2  0
 24 25  1  0
 25 26  2  0
 26 27  1  0
 27 28  2  0
 28 29  1  0
 18 30  1  0
 30 31  2  0
 31 32  1  0
 32 33  2  0
 32 34  1  0
 34 35  2  0
 35 36  1  0
 36 37  2  0
 37 38  1  0
 38 39  2  0
 10 40  2  0
 40  6  1  0
 31 15  1  0
 39 34  1  0
 28 23  1  0
  1 41  1  0
  1 42  1  0
  1 43  1  0
  7 44  1  0
  8 45  1  0
  9 46  1  0
 11 47  1  0
 11 48  1  0
 14 49  1  0
 16 50  1  0
 17 51  1  0
 22 52  1  0
 22 53  1  0
 24 54  1  0
 25 55  1  0
 26 56  1  0
 27 57  1  0
 30 58  1  0
 35 59  1  0
 36 60  1  0
 37 61  1  0
 38 62  1  0
 39 63  1  0
 40 64  1  0
M  CHG  3   5  -1  19  -1  29  -1
M  END
>  <UniqueID>  (49) 
46

>  <SMILES>  (49) 
CS(=O)(=O)[N-]c1cccc(CC(=O)Nc2ccc([N-]C(=O)Cc3ccccc3[O-])cc2C(=O)c2ccccc2)c1

>  <Energy>  (49) 
82.36531033721135

>  <Genealogy>  (49) 
CS(=O)(=O)[N-]c1cccc(CC(=O)Nc2ccc([N-]C(=O)Cc3ccccc3[O-])cc2C(=O)c2ccccc2)c1 (protonated)
CS(=O)(=O)[N-]c1cccc(CC(=O)Nc2ccc([N-]C(=O)Cc3ccccc3[O-])cc2C(=O)c2ccccc2)c1 (3D coordinates assigned)
CS(=O)(=O)[N-]c1cccc(CC(=O)Nc2ccc([N-]C(=O)Cc3ccccc3[O-])cc2C(=O)c2ccccc2)c1 (optimized conformer: 82.36531033721135 kcal/mol)

>  <smiles>  (49) 
CS(=O)(=O)Nc1cccc(CC(=O)Nc2ccc(NC(=O)Cc3ccccc3O)cc2C(=O)c2ccccc2)c1

>  <score_type>  (49) 
oracle

>  <origin>  (49) 
adg

>  <m_score__min__energy>  (49) 
-15.82

>  <m_primary>  (49) 
energy

$$$$
49:0
     RDKit          3D

 43 45  0  0  0  0  0  0  0  0999 V2000
   57.6670   22.9910   45.1580 C   0  0  0  0  0  0  0  0  0  0  0  0
   56.6690   22.9470   46.6290 S   0  0  0  0  0  0  0  0  0  0  0  0
   55.2840   22.4920   46.2610 O   0  0  0  0  0  0  0  0  0  0  0  0
   57.2880   21.9890   47.6070 O   0  0  0  0  0  0  0  0  0  0  0  0
   56.6120   24.5410   47.3090 N   0  0  0  0  0  0  0  0  0  0  0  0
   57.0310   25.7770   46.7080 C   0  0  0  0  0  0  0  0  0  0  0  0
   58.3980   26.0840   46.7550 C   0  0  0  0  0  0  0  0  0  0  0  0
   58.8890   27.2650   46.1940 C   0  0  0  0  0  0  0  0  0  0  0  0
   58.0140   28.1690   45.5730 C   0  0  0  0  0  0  0  0  0  0  0  0
   58.4720   29.3930   44.9840 N   0  0  0  0  0  0  0  0  0  0  0  0
   57.4490   30.6550   44.3780 S   0  0  0  0  0  0  0  0  0  0  0  0
   56.0420   30.4550   44.8670 O   0  0  0  0  0  0  0  0  0  0  0  0
   57.4790   30.6320   42.8740 O   0  0  0  0  0  0  0  0  0  0  0  0
   58.0400   32.2110   44.9530 C   0  0  0  0  0  0  0  0  0  0  0  0
   57.4310   33.3950   44.5210 C   0  0  0  0  0  0  0  0  0  0  0  0
   57.9010   34.6300   44.9710 C   0  0  0  0  0  0  0  0  0  0  0  0
   58.9840   34.6910   45.8500 C   0  0  0  0  0  0  0  0  0  0  0  0
   59.6140   33.5120   46.2870 C   0  0  0  0  0  0  0  0  0  0  0  0
   60.7720   33.5740   47.2170 C   0  0  0  0  0  0  0  0  0  0  0  0
   60.5730   33.7810   48.5950 C   0  0  0  0  0  0  0  0  0  0  0  0
   61.6640   33.8390   49.4670 C   0  0  0  0  0  0  0  0  0  0  0  0
   62.9640   33.6930   48.9760 C   0  0  0  0  0  0  0  0  0  0  0  0
   64.0200   33.7490   49.8230 F   0  0  0  0  0  0  0  0  0  0  0  0
   63.1740   33.4870   47.6100 C   0  0  0  0  0  0  0  0  0  0  0  0
   62.0860   33.4280   46.7340 C   0  0  0  0  0  0  0  0  0  0  0  0
   59.1320   32.2710   45.8280 C   0  0  0  0  0  0  0  0  0  0  0  0
   56.6480   27.8710   45.5230 C   0  0  0  0  0  0  0  0  0  0  0  0
   56.1490   26.6900   46.0830 C   0  0  0  0  0  0  0  0  0  0  0  0
   54.7840   26.4540   46.0050 O   0  0  0  0  0  0  0  0  0  0  0  0
   58.7299   23.0379   45.4373 H   0  0  0  0  0  0  0  0  0  0  0  0
   57.4838   22.0839   44.5633 H   0  0  0  0  0  0  0  0  0  0  0  0
   57.4047   23.8785   44.5633 H   0  0  0  0  0  0  0  0  0  0  0  0
   59.0941   25.3845   47.2409 H   0  0  0  0  0  0  0  0  0  0  0  0
   59.9654   27.4872   46.2392 H   0  0  0  0  0  0  0  0  0  0  0  0
   56.5800   33.3522   43.8253 H   0  0  0  0  0  0  0  0  0  0  0  0
   57.4167   35.5577   44.6321 H   0  0  0  0  0  0  0  0  0  0  0  0
   59.3469   35.6676   46.2030 H   0  0  0  0  0  0  0  0  0  0  0  0
   59.5524   33.8979   48.9882 H   0  0  0  0  0  0  0  0  0  0  0  0
   61.4987   34.0000   50.5425 H   0  0  0  0  0  0  0  0  0  0  0  0
   64.1972   33.3710   47.2232 H   0  0  0  0  0  0  0  0  0  0  0  0
   62.2581   33.2663   45.6596 H   0  0  0  0  0  0  0  0  0  0  0  0
   59.6171   31.3411   46.1594 H   0  0  0  0  0  0  0  0  0  0  0  0
   55.9567   28.5750   45.0367 H   0  0  0  0  0  0  0  0  0  0  0  0
  1  2  1  0
  2  3  2  0
  2  4  2  0
  2  5  1  0
  5  6  1  0
  6  7  2  0
  7  8  1  0
  8  9  2  0
  9 10  1  0
 10 11  1  0
 11 12  2  0
 11 13  2  0
 11 14  1  0
 14 15  2  0
 15 16  1  0
 16 17  2  0
 17 18  1  0
 18 19  1  0
 19 20  2  0
 20 21  1  0
 21 22  2  0
 22 23  1  0
 22 24  1  0
 24 25  2  0
 18 26  2  0
  9 27  1  0
 27 28  2  0
 28 29  1  0
 28  6  1  0
 26 14  1  0
 25 19  1  0
  1 30  1  0
  1 31  1  0
  1 32  1  0
  7 33  1  0
  8 34  1  0
 15 35  1  0
 16 36  1  0
 17 37  1  0
 20 38  1  0
 21 39  1  0
 24 40  1  0
 25 41  1  0
 26 42  1  0
 27 43  1  0
M  CHG  3   5  -1  10  -1  29  -1
M  END
>  <UniqueID>  (50) 
47

>  <SMILES>  (50) 
CS(=O)(=O)[N-]c1ccc([N-]S(=O)(=O)c2cccc(-c3ccc(F)cc3)c2)cc1[O-]

>  <Energy>  (50) 
57.601461558549055

>  <Genealogy>  (50) 
CS(=O)(=O)[N-]c1ccc([N-]S(=O)(=O)c2cccc(-c3ccc(F)cc3)c2)cc1[O-] (protonated)
CS(=O)(=O)[N-]c1ccc([N-]S(=O)(=O)c2cccc(-c3ccc(F)cc3)c2)cc1[O-] (3D coordinates assigned)
CS(=O)(=O)[N-]c1ccc([N-]S(=O)(=O)c2cccc(-c3ccc(F)cc3)c2)cc1[O-] (optimized conformer: 57.601461558549055 kcal/mol)

>  <smiles>  (50) 
CS(=O)(=O)Nc1ccc(NS(=O)(=O)c2cccc(-c3ccc(F)cc3)c2)cc1O

>  <score_type>  (50) 
oracle

>  <origin>  (50) 
adg

>  <m_score__min__energy>  (50) 
-16.579999999999998

>  <m_primary>  (50) 
energy

$$$$
50:0
     RDKit          3D

 40 42  0  0  0  0  0  0  0  0999 V2000
   58.9460   26.3490   46.3520 O   0  0  0  0  0  0  0  0  0  0  0  0
   57.8690   26.9990   46.2630 C   0  0  0  0  0  0  0  0  0  0  0  0
   56.6340   26.3990   46.6840 N   0  0  0  0  0  0  0  0  0  0  0  0
   56.5510   25.0090   47.1260 C   0  0  0  0  0  0  0  0  0  0  0  0
   56.7940   24.0780   45.9700 C   0  0  0  0  0  0  0  0  0  0  0  0
   55.8220   23.9390   44.9650 C   0  0  0  0  0  0  0  0  0  0  0  0
   56.0330   23.0600   43.8990 C   0  0  0  0  0  0  0  0  0  0  0  0
   57.2120   22.3130   43.8290 C   0  0  0  0  0  0  0  0  0  0  0  0
   58.1820   22.4430   44.8280 C   0  0  0  0  0  0  0  0  0  0  0  0
   57.9750   23.3210   45.8960 C   0  0  0  0  0  0  0  0  0  0  0  0
   57.9050   28.3920   45.7610 C   0  0  0  0  0  0  0  0  0  0  0  0
   59.1310   29.0770   45.7250 C   0  0  0  0  0  0  0  0  0  0  0  0
   59.1950   30.3970   45.2690 C   0  0  0  0  0  0  0  0  0  0  0  0
   58.0320   31.0530   44.8330 C   0  0  0  0  0  0  0  0  0  0  0  0
   58.0490   32.4100   44.3680 N   0  0  0  0  0  0  0  0  0  0  0  0
   58.0320   33.8150   45.3840 S   0  0  0  0  0  0  0  0  0  0  0  0
   58.3020   35.0350   44.5500 O   0  0  0  0  0  0  0  0  0  0  0  0
   56.6780   33.9430   46.0230 O   0  0  0  0  0  0  0  0  0  0  0  0
   59.2420   33.6580   46.6420 C   0  0  0  0  0  0  0  0  0  0  0  0
   58.9940   33.3530   47.9710 C   0  0  0  0  0  0  0  0  0  0  0  0
   60.1600   33.2780   48.7400 C   0  0  0  0  0  0  0  0  0  0  0  0
   61.3220   33.5260   48.0180 C   0  0  0  0  0  0  0  0  0  0  0  0
   60.8980   33.8350   46.4180 S   0  0  0  0  0  0  0  0  0  0  0  0
   56.8140   30.3650   44.8450 C   0  0  0  0  0  0  0  0  0  0  0  0
   56.7440   29.0420   45.2950 C   0  0  0  0  0  0  0  0  0  0  0  0
   55.5220   28.3790   45.2470 O   0  0  0  0  0  0  0  0  0  0  0  0
   55.7710   26.9850   46.7490 H   0  0  0  0  0  0  0  0  0  0  0  0
   57.3093   24.8292   47.9023 H   0  0  0  0  0  0  0  0  0  0  0  0
   55.5455   24.8218   47.5308 H   0  0  0  0  0  0  0  0  0  0  0  0
   54.8919   24.5239   45.0173 H   0  0  0  0  0  0  0  0  0  0  0  0
   55.2697   22.9560   43.1138 H   0  0  0  0  0  0  0  0  0  0  0  0
   57.3770   21.6230   42.9884 H   0  0  0  0  0  0  0  0  0  0  0  0
   59.1091   21.8536   44.7733 H   0  0  0  0  0  0  0  0  0  0  0  0
   58.7394   23.4194   46.6809 H   0  0  0  0  0  0  0  0  0  0  0  0
   60.0486   28.5703   46.0585 H   0  0  0  0  0  0  0  0  0  0  0  0
   60.1603   30.9242   45.2516 H   0  0  0  0  0  0  0  0  0  0  0  0
   57.9858   33.1873   48.3784 H   0  0  0  0  0  0  0  0  0  0  0  0
   60.1578   33.0447   49.8150 H   0  0  0  0  0  0  0  0  0  0  0  0
   62.3446   33.5212   48.4232 H   0  0  0  0  0  0  0  0  0  0  0  0
   55.9009   30.8699   44.4967 H   0  0  0  0  0  0  0  0  0  0  0  0
  1  2  2  0
  2  3  1  0
  3  4  1  0
  4  5  1  0
  5  6  2  0
  6  7  1  0
  7  8  2  0
  8  9  1  0
  9 10  2  0
  2 11  1  0
 11 12  2  0
 12 13  1  0
 13 14  2  0
 14 15  1  0
 15 16  1  0
 16 17  2  0
 16 18  2  0
 16 19  1  0
 19 20  2  0
 20 21  1  0
 21 22  2  0
 22 23  1  0
 14 24  1  0
 24 25  2  0
 25 26  1  0
 10  5  1  0
 25 11  1  0
 23 19  1  0
  3 27  1  0
  4 28  1  0
  4 29  1  0
  6 30  1  0
  7 31  1  0
  8 32  1  0
  9 33  1  0
 10 34  1  0
 12 35  1  0
 13 36  1  0
 20 37  1  0
 21 38  1  0
 22 39  1  0
 24 40  1  0
M  CHG  2  15  -1  26  -1
M  END
>  <UniqueID>  (51) 
48

>  <SMILES>  (51) 
O=C(NCc1ccccc1)c1ccc([N-]S(=O)(=O)c2cccs2)cc1[O-]

>  <Energy>  (51) 
73.76054579762506

>  <Genealogy>  (51) 
O=C(NCc1ccccc1)c1ccc([N-]S(=O)(=O)c2cccs2)cc1[O-] (protonated)
O=C(NCc1ccccc1)c1ccc([N-]S(=O)(=O)c2cccs2)cc1[O-] (3D coordinates assigned)
O=C(NCc1ccccc1)c1ccc([N-]S(=O)(=O)c2cccs2)cc1[O-] (optimized conformer: 73.76054579762506 kcal/mol)

>  <smiles>  (51) 
O=C(NCc1ccccc1)c1ccc(NS(=O)(=O)c2cccs2)cc1O

>  <score_type>  (51) 
oracle

>  <origin>  (51) 
adg

>  <m_score__min__energy>  (51) 
-13.43

>  <m_primary>  (51) 
energy

$$$$
51:0
     RDKit          3D

 57 61  0  0  0  0  0  0  0  0999 V2000
   58.3600   25.9960   48.2470 O   0  0  0  0  0  0  0  0  0  0  0  0
   58.0300   26.5290   47.1570 C   0  0  0  0  0  0  0  0  0  0  0  0
   56.6810   26.3020   46.7030 N   0  0  0  0  0  0  0  0  0  0  0  0
   56.2290   25.2830   46.0290 C   0  0  0  0  0  0  0  0  0  0  0  0
   57.0230   24.2110   45.7440 N   0  0  0  0  0  0  0  0  0  0  0  0
   56.5630   23.1320   45.0570 C   0  0  0  0  0  0  0  0  0  0  0  0
   55.2350   23.0920   44.6280 C   0  0  0  0  0  0  0  0  0  0  0  0
   54.3940   24.1680   44.9150 C   0  0  0  0  0  0  0  0  0  0  0  0
   54.8850   25.2680   45.6230 C   0  0  0  0  0  0  0  0  0  0  0  0
   54.0410   26.3310   45.9210 O   0  0  0  0  0  0  0  0  0  0  0  0
   59.0290   27.3630   46.3400 C   0  0  2  0  0  0  0  0  0  0  0  0
   59.6780   28.6190   46.9490 C   0  0  0  0  0  0  0  0  0  0  0  0
   59.3990   29.1850   48.2160 C   0  0  0  0  0  0  0  0  0  0  0  0
   60.0130   30.3800   48.6080 C   0  0  0  0  0  0  0  0  0  0  0  0
   60.9020   31.0300   47.7550 C   0  0  0  0  0  0  0  0  0  0  0  0
   61.1760   30.4990   46.4970 C   0  0  0  0  0  0  0  0  0  0  0  0
   60.5530   29.3090   46.0850 C   0  0  0  0  0  0  0  0  0  0  0  0
   60.8150   28.7410   44.7180 C   0  0  0  0  0  0  0  0  0  0  0  0
   59.5120   28.2470   44.0490 C   0  0  0  0  0  0  0  0  0  0  0  0
   58.4830   27.6970   44.9890 N   0  0  2  0  0  0  0  0  0  0  0  0
   57.3440   28.5960   45.0790 C   0  0  0  0  0  0  0  0  0  0  0  0
   56.2730   28.2280   45.6340 O   0  0  0  0  0  0  0  0  0  0  0  0
   57.4310   29.9790   44.5870 C   0  0  0  0  0  0  0  0  0  0  0  0
   57.0990   30.2670   43.2570 C   0  0  0  0  0  0  0  0  0  0  0  0
   57.2800   31.5610   42.7540 C   0  0  0  0  0  0  0  0  0  0  0  0
   57.7850   32.5690   43.5790 C   0  0  0  0  0  0  0  0  0  0  0  0
   58.1240   32.2930   44.9140 C   0  0  0  0  0  0  0  0  0  0  0  0
   58.6790   33.3210   45.7540 N   0  0  0  0  0  0  0  0  0  0  0  0
   59.6230   34.3320   45.3130 C   0  0  0  0  0  0  0  0  0  0  0  0
   59.9710   35.1730   46.5580 C   0  0  0  0  0  0  0  0  0  0  0  0
   59.2300   34.5570   47.7540 C   0  0  0  0  0  0  0  0  0  0  0  0
   58.4610   33.4520   47.1490 C   0  0  0  0  0  0  0  0  0  0  0  0
   57.6660   32.7200   47.7970 O   0  0  0  0  0  0  0  0  0  0  0  0
   57.9290   30.9950   45.4170 C   0  0  0  0  0  0  0  0  0  0  0  0
   57.2370   22.2904   44.8391 H   0  0  0  0  0  0  0  0  0  0  0  0
   54.8561   22.2227   44.0704 H   0  0  0  0  0  0  0  0  0  0  0  0
   53.3451   24.1502   44.5840 H   0  0  0  0  0  0  0  0  0  0  0  0
   59.8724   26.6576   46.3065 H   0  0  0  0  0  0  0  0  0  0  0  0
   58.6956   28.6828   48.8964 H   0  0  0  0  0  0  0  0  0  0  0  0
   59.7920   30.8089   49.5965 H   0  0  0  0  0  0  0  0  0  0  0  0
   61.3880   31.9634   48.0753 H   0  0  0  0  0  0  0  0  0  0  0  0
   61.8806   31.0116   45.8256 H   0  0  0  0  0  0  0  0  0  0  0  0
   61.2666   29.5212   44.0876 H   0  0  0  0  0  0  0  0  0  0  0  0
   61.4938   27.8822   44.8260 H   0  0  0  0  0  0  0  0  0  0  0  0
   59.0630   29.0946   43.5105 H   0  0  0  0  0  0  0  0  0  0  0  0
   59.8023   27.4141   43.3917 H   0  0  0  0  0  0  0  0  0  0  0  0
   58.1410   26.8120   44.5540 H   0  0  0  0  0  0  0  0  0  0  0  0
   56.6959   29.4761   42.6074 H   0  0  0  0  0  0  0  0  0  0  0  0
   57.0242   31.7843   41.7077 H   0  0  0  0  0  0  0  0  0  0  0  0
   57.9181   33.5856   43.1805 H   0  0  0  0  0  0  0  0  0  0  0  0
   60.5291   33.8566   44.9093 H   0  0  0  0  0  0  0  0  0  0  0  0
   59.1952   34.9572   44.5155 H   0  0  0  0  0  0  0  0  0  0  0  0
   61.0563   35.1490   46.7359 H   0  0  0  0  0  0  0  0  0  0  0  0
   59.6695   36.2210   46.4139 H   0  0  0  0  0  0  0  0  0  0  0  0
   59.9399   34.1779   48.5038 H   0  0  0  0  0  0  0  0  0  0  0  0
   58.5948   35.2816   48.2846 H   0  0  0  0  0  0  0  0  0  0  0  0
   58.1683   30.7743   46.4677 H   0  0  0  0  0  0  0  0  0  0  0  0
  1  2  2  0
  2  3  1  0
  3  4  2  3
  4  5  1  0
  5  6  1  0
  6  7  2  0
  7  8  1  0
  8  9  2  0
  9 10  1  0
  2 11  1  0
 11 12  1  0
 12 13  2  0
 13 14  1  0
 14 15  2  0
 15 16  1  0
 16 17  2  0
 17 18  1  0
 18 19  1  0
 19 20  1  0
 20 21  1  0
 21 22  2  0
 21 23  1  0
 23 24  2  0
 24 25  1  0
 25 26  2  0
 26 27  1  0
 27 28  1  0
 28 29  1  0
 29 30  1  0
 30 31  1  0
 31 32  1  0
 32 33  2  0
 27 34  2  0
  9  4  1  0
 20 11  1  0
 34 23  1  0
 17 12  1  0
 32 28  1  0
  6 35  1  0
  7 36  1  0
  8 37  1  0
 11 38  1  6
 13 39  1  0
 14 40  1  0
 15 41  1  0
 16 42  1  0
 18 43  1  0
 18 44  1  0
 19 45  1  0
 19 46  1  0
 20 47  1  6
 24 48  1  0
 25 49  1  0
 26 50  1  0
 29 51  1  0
 29 52  1  0
 30 53  1  0
 30 54  1  0
 31 55  1  0
 31 56  1  0
 34 57  1  0
M  CHG  3   5  -1  10  -1  20   1
M  END
>  <UniqueID>  (52) 
49

>  <SMILES>  (52) 
O=C(N=c1[n-]cccc1[O-])[C@@H]1c2ccccc2CC[N@@H+]1C(=O)c1cccc(N2CCCC2=O)c1

>  <Energy>  (52) 
114.21292589440998

>  <Genealogy>  (52) 
O=C(N=c1[n-]cccc1[O-])C1c2ccccc2CC[NH+]1C(=O)c1cccc(N2CCCC2=O)c1 (protonated)
O=C(N=c1[n-]cccc1[O-])[C@@H]1c2ccccc2CC[N@@H+]1C(=O)c1cccc(N2CCCC2=O)c1 (chirality)
O=C(N=c1[n-]cccc1[O-])[C@@H]1c2ccccc2CC[N@@H+]1C(=O)c1cccc(N2CCCC2=O)c1 (3D coordinates assigned)
O=C(N=c1[n-]cccc1[O-])[C@@H]1c2ccccc2CC[N@@H+]1C(=O)c1cccc(N2CCCC2=O)c1 (nonaromatic ring conformer: 114.21292589440998 kcal/mol)

>  <smiles>  (52) 
O=C(N=c1[nH]cccc1O)C1c2ccccc2CCN1C(=O)c1cccc(N2CCCC2=O)c1

>  <score_type>  (52) 
oracle

>  <origin>  (52) 
adg

>  <m_score__min__energy>  (52) 
-13.69

>  <m_primary>  (52) 
energy

$$$$
52:0
     RDKit          3D

 48 51  0  0  0  0  0  0  0  0999 V2000
   60.5740   29.0303   44.2621 H   0  0  0  0  0  0  0  0  0  0  0  0
   60.2260   29.1040   45.3030 C   0  0  0  0  0  0  0  0  0  0  0  0
   60.7990   30.0410   46.1670 C   0  0  0  0  0  0  0  0  0  0  0  0
   61.6073   30.6958   45.8095 H   0  0  0  0  0  0  0  0  0  0  0  0
   60.3460   30.1470   47.4850 C   0  0  0  0  0  0  0  0  0  0  0  0
   60.8026   30.8829   48.1632 H   0  0  0  0  0  0  0  0  0  0  0  0
   59.3100   29.3180   47.9480 C   0  0  0  0  0  0  0  0  0  0  0  0
   58.8390   29.4390   49.3720 C   0  0  0  0  0  0  0  0  0  0  0  0
   59.3628   28.6983   49.9941 H   0  0  0  0  0  0  0  0  0  0  0  0
   57.7549   29.2569   49.4129 H   0  0  0  0  0  0  0  0  0  0  0  0
   59.1220   30.7810   49.8740 N   0  0  0  0  0  0  0  0  0  0  0  0
   58.8620   31.5880   49.2630 H   0  0  0  0  0  0  0  0  0  0  0  0
   59.8490   31.0310   51.0860 C   0  0  0  0  0  0  0  0  0  0  0  0
   60.1340   30.0850   51.8700 O   0  0  0  0  0  0  0  0  0  0  0  0
   60.2520   32.4350   51.4370 C   0  0  0  0  0  0  0  0  0  0  0  0
   61.1692   32.3935   52.0428 H   0  0  0  0  0  0  0  0  0  0  0  0
   59.4121   32.8868   51.9852 H   0  0  0  0  0  0  0  0  0  0  0  0
   60.5200   33.3200   50.2050 C   0  0  0  0  0  0  0  0  0  0  0  0
   61.1214   32.7430   49.4870 H   0  0  0  0  0  0  0  0  0  0  0  0
   61.0426   34.2194   50.5627 H   0  0  0  0  0  0  0  0  0  0  0  0
   59.3010   33.7730   49.5290 N   0  0  0  0  0  0  0  0  0  0  0  0
   59.0390   33.6790   48.2600 C   0  0  0  0  0  0  0  0  0  0  0  0
   58.3630   32.6050   47.7640 N   0  0  0  0  0  0  0  0  0  0  0  0
   58.1320   32.4780   46.4370 C   0  0  0  0  0  0  0  0  0  0  0  0
   57.5090   31.3700   45.9430 N   0  0  0  0  0  0  0  0  0  0  0  0
   57.3280   31.2750   44.6010 C   0  0  0  0  0  0  0  0  0  0  0  0
   57.7460   32.2320   43.7180 C   0  0  0  0  0  0  0  0  0  0  0  0
   57.4260   31.7240   42.4730 C   0  0  0  0  0  0  0  0  0  0  0  0
   57.7500   32.3380   41.1520 C   0  0  0  0  0  0  0  0  0  0  0  0
   58.2581   33.3008   41.3099 H   0  0  0  0  0  0  0  0  0  0  0  0
   58.4097   31.6637   40.5862 H   0  0  0  0  0  0  0  0  0  0  0  0
   56.8211   32.5021   40.5862 H   0  0  0  0  0  0  0  0  0  0  0  0
   56.8570   30.5020   42.6290 N   0  0  0  0  0  0  0  0  0  0  0  0
   56.7820   30.2470   43.9310 N   0  0  0  0  0  0  0  0  0  0  0  0
   56.3030   28.9930   44.4960 C   0  0  0  0  0  0  0  0  0  0  0  0
   56.3260   29.0531   45.5941 H   0  0  0  0  0  0  0  0  0  0  0  0
   55.2716   28.8099   44.1603 H   0  0  0  0  0  0  0  0  0  0  0  0
   56.9496   28.1689   44.1603 H   0  0  0  0  0  0  0  0  0  0  0  0
   58.3910   33.3960   44.1270 C   0  0  0  0  0  0  0  0  0  0  0  0
   58.7164   34.1597   43.4053 H   0  0  0  0  0  0  0  0  0  0  0  0
   58.6060   33.5470   45.5090 C   0  0  0  0  0  0  0  0  0  0  0  0
   59.2720   34.6330   46.0800 C   0  0  0  0  0  0  0  0  0  0  0  0
   59.6990   35.5800   45.3670 O   0  0  0  0  0  0  0  0  0  0  0  0
   59.4760   34.6630   47.4240 N   0  0  0  0  0  0  0  0  0  0  0  0
   58.7590   28.3560   47.0820 C   0  0  0  0  0  0  0  0  0  0  0  0
   57.7860   27.5120   47.5110 F   0  0  0  0  0  0  0  0  0  0  0  0
   59.2110   28.2610   45.7620 C   0  0  0  0  0  0  0  0  0  0  0  0
   58.7655   27.5195   45.0824 H   0  0  0  0  0  0  0  0  0  0  0  0
  1  2  1  0
  2  3  2  0
  3  4  1  0
  3  5  1  0
  5  6  1  0
  5  7  2  0
  7  8  1  0
  8  9  1  0
  8 10  1  0
  8 11  1  0
 11 12  1  0
 11 13  1  0
 13 14  2  0
 13 15  1  0
 15 16  1  0
 15 17  1  0
 15 18  1  0
 18 19  1  0
 18 20  1  0
 18 21  1  0
 21 22  2  0
 22 23  1  0
 23 24  2  0
 24 25  1  0
 25 26  1  0
 26 27  2  0
 27 28  1  0
 28 29  1  0
 29 30  1  0
 29 31  1  0
 29 32  1  0
 28 33  2  0
 33 34  1  0
 34 35  1  0
 35 36  1  0
 35 37  1  0
 35 38  1  0
 27 39  1  0
 39 40  1  0
 39 41  2  0
 41 42  1  0
 42 43  2  0
 42 44  1  0
  7 45  1  0
 45 46  1  0
 45 47  2  0
 47 48  1  0
 47  2  1  0
 44 22  1  0
 41 24  1  0
 34 26  1  0
M  CHG  2  25  -1  44  -1
M  END
>  <UniqueID>  (53) 
50

>  <SMILES>  (53) 
Cc1nn(C)c2[n-]c3n/c(=N\CCC(=O)NCc4ccccc4F)[n-]c(=O)c-3cc12

>  <Energy>  (53) 
84.0837672715392

>  <Genealogy>  (53) 
Cc1nn(C)c2[n-]c3nc(=NCCC(=O)NCc4ccccc4F)[n-]c(=O)c-3cc12 (protonated)
Cc1nn(C)c2[n-]c3n/c(=N\CCC(=O)NCc4ccccc4F)[n-]c(=O)c-3cc12 (cis-trans isomerization)
Cc1nn(C)c2[n-]c3n/c(=N\CCC(=O)NCc4ccccc4F)[n-]c(=O)c-3cc12 (3D coordinates assigned)
Cc1nn(C)c2[n-]c3n/c(=N\CCC(=O)NCc4ccccc4F)[n-]c(=O)c-3cc12 (optimized conformer: 84.0837672715392 kcal/mol)

>  <smiles>  (53) 
Cc1nn(C)c2[nH]c3nc(=NCCC(=O)NCc4ccccc4F)[nH]c(=O)c-3cc12

>  <score_type>  (53) 
oracle

>  <origin>  (53) 
adg

>  <m_score__min__energy>  (53) 
-10.279999999999999

>  <m_primary>  (53) 
energy

$$$$
53:0
     RDKit          3D

 59 62  0  0  0  0  0  0  0  0999 V2000
   58.8370   30.8990   49.0520 C   0  0  0  0  0  0  0  0  0  0  0  0
   59.4030   29.5030   49.0620 C   0  0  0  0  0  0  0  0  0  0  0  0
   60.2190   29.1050   50.1360 C   0  0  0  0  0  0  0  0  0  0  0  0
   60.7620   27.8100   50.1730 C   0  0  0  0  0  0  0  0  0  0  0  0
   61.5910   27.3720   51.2770 N   0  0  0  0  0  0  0  0  0  0  0  0
   61.7840   25.9340   51.5440 C   0  0  0  0  0  0  0  0  0  0  0  0
   62.9610   25.6850   52.4990 C   0  0  0  0  0  0  0  0  0  0  0  0
   64.1590   26.5590   52.1090 C   0  0  0  0  0  0  0  0  0  0  0  0
   63.8180   28.0660   52.0860 C   0  0  0  0  0  0  0  0  0  0  0  0
   62.3090   28.3490   52.1080 C   0  0  0  0  0  0  0  0  0  0  0  0
   60.4900   26.9510   49.1550 N   0  0  0  0  0  0  0  0  0  0  0  0
   59.7030   27.2890   48.1020 C   0  0  0  0  0  0  0  0  0  0  0  0
   59.4660   26.3520   47.0960 C   0  0  0  0  0  0  0  0  0  0  0  0
   58.6460   26.6770   46.0150 C   0  0  0  0  0  0  0  0  0  0  0  0
   58.0450   27.9350   45.9300 C   0  0  0  0  0  0  0  0  0  0  0  0
   57.2130   28.2180   44.7950 N   0  0  0  0  0  0  0  0  0  0  0  0
   56.3820   29.3680   44.5990 C   0  0  0  0  0  0  0  0  0  0  0  0
   55.1530   29.3390   44.8770 O   0  0  0  0  0  0  0  0  0  0  0  0
   56.9680   30.6030   43.9890 C   0  0  0  0  0  0  0  0  0  0  0  0
   56.8160   31.7210   44.8640 O   0  0  0  0  0  0  0  0  0  0  0  0
   57.8590   32.3540   45.5610 C   0  0  0  0  0  0  0  0  0  0  0  0
   59.0740   31.6740   45.6930 C   0  0  0  0  0  0  0  0  0  0  0  0
   60.1380   32.2490   46.3960 C   0  0  0  0  0  0  0  0  0  0  0  0
   60.0030   33.5140   46.9790 C   0  0  0  0  0  0  0  0  0  0  0  0
   61.1190   34.0600   47.6950 N   0  0  0  0  0  0  0  0  0  0  0  0
   62.7450   33.4520   47.6550 S   0  0  0  0  0  0  0  0  0  0  0  0
   63.5690   33.7790   49.1970 C   0  0  0  0  0  0  0  0  0  0  0  0
   63.4920   34.1450   46.5530 O   0  0  0  0  0  0  0  0  0  0  0  0
   62.7280   31.9780   47.3720 O   0  0  0  0  0  0  0  0  0  0  0  0
   58.7880   34.2060   46.8410 C   0  0  0  0  0  0  0  0  0  0  0  0
   57.7270   33.6350   46.1290 C   0  0  0  0  0  0  0  0  0  0  0  0
   58.3070   28.8950   46.9240 C   0  0  0  0  0  0  0  0  0  0  0  0
   59.1290   28.5800   48.0260 C   0  0  0  0  0  0  0  0  0  0  0  0
   58.6966   31.2452   50.0866 H   0  0  0  0  0  0  0  0  0  0  0  0
   59.5329   31.5731   48.5310 H   0  0  0  0  0  0  0  0  0  0  0  0
   57.8682   30.8981   48.5310 H   0  0  0  0  0  0  0  0  0  0  0  0
   60.4332   29.8115   50.9514 H   0  0  0  0  0  0  0  0  0  0  0  0
   60.8665   25.5294   51.9963 H   0  0  0  0  0  0  0  0  0  0  0  0
   62.0066   25.4354   50.5891 H   0  0  0  0  0  0  0  0  0  0  0  0
   62.6526   25.9299   53.5261 H   0  0  0  0  0  0  0  0  0  0  0  0
   63.2550   24.6270   52.4351 H   0  0  0  0  0  0  0  0  0  0  0  0
   64.9672   26.3925   52.8364 H   0  0  0  0  0  0  0  0  0  0  0  0
   64.4611   26.2720   51.0910 H   0  0  0  0  0  0  0  0  0  0  0  0
   64.2749   28.5406   52.9669 H   0  0  0  0  0  0  0  0  0  0  0  0
   64.2117   28.4742   51.1435 H   0  0  0  0  0  0  0  0  0  0  0  0
   61.9430   28.2824   53.1432 H   0  0  0  0  0  0  0  0  0  0  0  0
   62.1298   29.3576   51.7072 H   0  0  0  0  0  0  0  0  0  0  0  0
   59.9266   25.3548   47.1552 H   0  0  0  0  0  0  0  0  0  0  0  0
   58.4711   25.9352   45.2218 H   0  0  0  0  0  0  0  0  0  0  0  0
   58.0385   30.4377   43.7974 H   0  0  0  0  0  0  0  0  0  0  0  0
   56.4396   30.8168   43.0482 H   0  0  0  0  0  0  0  0  0  0  0  0
   59.1940   30.6787   45.2402 H   0  0  0  0  0  0  0  0  0  0  0  0
   61.0880   31.7027   46.4912 H   0  0  0  0  0  0  0  0  0  0  0  0
   62.9032   33.5148   50.0318 H   0  0  0  0  0  0  0  0  0  0  0  0
   64.4880   33.1774   49.2564 H   0  0  0  0  0  0  0  0  0  0  0  0
   63.8254   34.8470   49.2564 H   0  0  0  0  0  0  0  0  0  0  0  0
   58.6702   35.2011   47.2947 H   0  0  0  0  0  0  0  0  0  0  0  0
   56.7847   34.1904   46.0127 H   0  0  0  0  0  0  0  0  0  0  0  0
   57.8672   29.8998   46.8412 H   0  0  0  0  0  0  0  0  0  0  0  0
  1  2  1  0
  2  3  2  0
  3  4  1  0
  4  5  1  0
  5  6  1  0
  6  7  1  0
  7  8  1  0
  8  9  1  0
  9 10  1  0
  4 11  2  0
 11 12  1  0
 12 13  2  0
 13 14  1  0
 14 15  2  0
 15 16  1  0
 16 17  1  0
 17 18  2  0
 17 19  1  0
 19 20  1  0
 20 21  1  0
 21 22  2  0
 22 23  1  0
 23 24  2  0
 24 25  1  0
 25 26  1  0
 26 27  1  0
 26 28  2  0
 26 29  2  0
 24 30  1  0
 30 31  2  0
 15 32  1  0
 32 33  2  0
 33  2  1  0
 10  5  1  0
 33 12  1  0
 31 21  1  0
  1 34  1  0
  1 35  1  0
  1 36  1  0
  3 37  1  0
  6 38  1  0
  6 39  1  0
  7 40  1  0
  7 41  1  0
  8 42  1  0
  8 43  1  0
  9 44  1  0
  9 45  1  0
 10 46  1  0
 10 47  1  0
 13 48  1  0
 14 49  1  0
 19 50  1  0
 19 51  1  0
 22 52  1  0
 23 53  1  0
 27 54  1  0
 27 55  1  0
 27 56  1  0
 30 57  1  0
 31 58  1  0
 32 59  1  0
M  CHG  2  16  -1  25  -1
M  END
>  <UniqueID>  (54) 
51

>  <SMILES>  (54) 
Cc1cc(N2CCCCC2)nc2ccc([N-]C(=O)COc3ccc([N-]S(C)(=O)=O)cc3)cc12

>  <Energy>  (54) 
71.70458542437898

>  <Genealogy>  (54) 
Cc1cc(N2CCCCC2)nc2ccc([N-]C(=O)COc3ccc([N-]S(C)(=O)=O)cc3)cc12 (protonated)
Cc1cc(N2CCCCC2)nc2ccc([N-]C(=O)COc3ccc([N-]S(C)(=O)=O)cc3)cc12 (3D coordinates assigned)
Cc1cc(N2CCCCC2)nc2ccc([N-]C(=O)COc3ccc([N-]S(C)(=O)=O)cc3)cc12 (nonaromatic ring conformer: 71.70458542437898 kcal/mol)

>  <smiles>  (54) 
Cc1cc(N2CCCCC2)nc2ccc(NC(=O)COc3ccc(NS(C)(=O)=O)cc3)cc12

>  <score_type>  (54) 
oracle

>  <origin>  (54) 
adg

>  <m_score__min__energy>  (54) 
-12.51

>  <m_primary>  (54) 
energy

$$$$
54:0
     RDKit          3D

 72 76  0  0  0  0  0  0  0  0999 V2000
   62.0540   30.9900   48.0400 O   0  0  0  0  0  0  0  0  0  0  0  0
   61.6150   31.7680   47.1490 C   0  0  0  0  0  0  0  0  0  0  0  0
   62.2480   33.0820   46.9180 C   0  0  0  0  0  0  0  0  0  0  0  0
   63.3800   33.5350   47.4810 C   0  0  0  0  0  0  0  0  0  0  0  0
   63.7670   33.4080   48.9040 C   0  0  0  0  0  0  0  0  0  0  0  0
   64.5940   32.3410   49.2890 C   0  0  0  0  0  0  0  0  0  0  0  0
   64.9050   32.1360   50.6360 C   0  0  0  0  0  0  0  0  0  0  0  0
   64.3780   32.9850   51.6140 C   0  0  0  0  0  0  0  0  0  0  0  0
   63.5340   34.0340   51.2450 C   0  0  0  0  0  0  0  0  0  0  0  0
   63.2230   34.2410   49.8980 C   0  0  0  0  0  0  0  0  0  0  0  0
   60.4800   31.3920   46.3530 N   0  0  0  0  0  0  0  0  0  0  0  0
   59.7470   30.1670   46.5310 C   0  0  0  0  0  0  0  0  0  0  0  0
   60.2970   29.1240   47.3010 C   0  0  0  0  0  0  0  0  0  0  0  0
   59.5890   27.9370   47.5030 C   0  0  0  0  0  0  0  0  0  0  0  0
   58.3140   27.7830   46.9590 C   0  0  0  0  0  0  0  0  0  0  0  0
   57.7430   28.8150   46.2120 C   0  0  0  0  0  0  0  0  0  0  0  0
   58.4440   30.0120   45.9880 C   0  0  0  0  0  0  0  0  0  0  0  0
   57.6850   31.2730   45.0020 S   0  0  0  0  0  0  0  0  0  0  0  0
   58.4990   31.5130   43.7600 O   0  0  0  0  0  0  0  0  0  0  0  0
   56.3220   30.8050   44.5760 O   0  0  0  0  0  0  0  0  0  0  0  0
   57.6250   32.7630   45.8960 N   0  0  0  0  0  0  0  0  0  0  0  0
   58.2620   33.0710   47.1460 C   0  0  0  0  0  0  0  0  0  0  0  0
   58.9690   34.2910   47.2460 C   0  0  0  0  0  0  0  0  0  0  0  0
   59.6930   34.6140   48.4070 C   0  0  0  0  0  0  0  0  0  0  0  0
   59.6730   33.7080   49.4610 C   0  0  0  0  0  0  0  0  0  0  0  0
   60.3280   33.8050   50.6300 N   0  0  0  0  0  0  0  0  0  0  0  0
   59.9990   32.6990   51.3370 C   0  0  0  0  0  0  0  0  0  0  0  0
   59.1240   31.9000   50.6060 C   0  0  0  0  0  0  0  0  0  0  0  0
   58.4730   30.6600   51.0640 C   0  0  0  0  0  0  0  0  0  0  0  0
   58.3080   29.7140   50.2490 O   0  0  0  0  0  0  0  0  0  0  0  0
   58.0110   30.5040   52.4510 C   0  0  0  0  0  0  0  0  0  0  0  0
   58.7660   29.9850   53.3150 O   0  0  0  0  0  0  0  0  0  0  0  0
   56.6840   30.9130   52.8020 N   0  0  0  0  0  0  0  0  0  0  0  0
   55.4830   30.2110   52.3650 C   0  0  0  0  0  0  0  0  0  0  0  0
   54.3380   31.2170   52.1790 C   0  0  0  0  0  0  0  0  0  0  0  0
   53.0210   30.5870   51.9490 N   0  0  0  0  0  0  0  0  0  0  0  0
   51.9470   31.0350   52.8610 C   0  0  0  0  0  0  0  0  0  0  0  0
   51.0990   32.1930   52.2790 C   0  0  0  0  0  0  0  0  0  0  0  0
   51.3860   32.4790   50.9220 O   0  0  0  0  0  0  0  0  0  0  0  0
   51.3890   31.2830   50.1750 C   0  0  0  0  0  0  0  0  0  0  0  0
   52.6280   30.4470   50.5270 C   0  0  0  0  0  0  0  0  0  0  0  0
   58.9330   32.5570   49.4040 C   0  0  0  0  0  0  0  0  0  0  0  0
   58.2050   32.2070   48.2650 C   0  0  0  0  0  0  0  0  0  0  0  0
   61.7412   33.7580   46.2137 H   0  0  0  0  0  0  0  0  0  0  0  0
   64.0902   34.0518   46.8188 H   0  0  0  0  0  0  0  0  0  0  0  0
   65.0001   31.6615   48.5252 H   0  0  0  0  0  0  0  0  0  0  0  0
   65.5652   31.3057   50.9272 H   0  0  0  0  0  0  0  0  0  0  0  0
   64.6282   32.8265   52.6734 H   0  0  0  0  0  0  0  0  0  0  0  0
   63.1135   34.6980   52.0146 H   0  0  0  0  0  0  0  0  0  0  0  0
   62.5478   35.0614   49.6134 H   0  0  0  0  0  0  0  0  0  0  0  0
   60.2290   32.0070   45.5490 H   0  0  0  0  0  0  0  0  0  0  0  0
   61.2947   29.2454   47.7481 H   0  0  0  0  0  0  0  0  0  0  0  0
   60.0374   27.1230   48.0916 H   0  0  0  0  0  0  0  0  0  0  0  0
   57.7578   26.8475   47.1187 H   0  0  0  0  0  0  0  0  0  0  0  0
   56.7332   28.6897   45.7942 H   0  0  0  0  0  0  0  0  0  0  0  0
   58.9524   34.9978   46.4033 H   0  0  0  0  0  0  0  0  0  0  0  0
   60.2581   35.5550   48.4791 H   0  0  0  0  0  0  0  0  0  0  0  0
   60.9600   34.5760   50.9360 H   0  0  0  0  0  0  0  0  0  0  0  0
   60.3701   32.4646   52.3457 H   0  0  0  0  0  0  0  0  0  0  0  0
   55.6828   29.7030   51.4100 H   0  0  0  0  0  0  0  0  0  0  0  0
   55.1972   29.4681   53.1242 H   0  0  0  0  0  0  0  0  0  0  0  0
   54.2718   31.8382   53.0844 H   0  0  0  0  0  0  0  0  0  0  0  0
   54.5724   31.8060   51.2801 H   0  0  0  0  0  0  0  0  0  0  0  0
   51.2824   30.1825   53.0645 H   0  0  0  0  0  0  0  0  0  0  0  0
   52.4290   31.4094   53.7762 H   0  0  0  0  0  0  0  0  0  0  0  0
   50.0363   31.9206   52.3598 H   0  0  0  0  0  0  0  0  0  0  0  0
   51.3446   33.0955   52.8580 H   0  0  0  0  0  0  0  0  0  0  0  0
   50.4820   30.7058   50.4078 H   0  0  0  0  0  0  0  0  0  0  0  0
   51.4109   31.5271   49.1027 H   0  0  0  0  0  0  0  0  0  0  0  0
   52.4087   29.3884   50.3241 H   0  0  0  0  0  0  0  0  0  0  0  0
   53.4636   30.8118   49.9115 H   0  0  0  0  0  0  0  0  0  0  0  0
   57.6043   31.2859   48.2385 H   0  0  0  0  0  0  0  0  0  0  0  0
  1  2  2  0
  2  3  1  0
  3  4  2  3
  4  5  1  0
  5  6  2  0
  6  7  1  0
  7  8  2  0
  8  9  1  0
  9 10  2  0
  2 11  1  0
 11 12  1  0
 12 13  2  0
 13 14  1  0
 14 15  2  0
 15 16  1  0
 16 17  2  0
 17 18  1  0
 18 19  2  0
 18 20  2  0
 18 21  1  0
 21 22  1  0
 22 23  2  0
 23 24  1  0
 24 25  2  0
 25 26  1  0
 26 27  1  0
 27 28  2  0
 28 29  1  0
 29 30  2  0
 29 31  1  0
 31 32  2  0
 31 33  1  0
 33 34  1  0
 34 35  1  0
 35 36  1  0
 36 37  1  0
 37 38  1  0
 38 39  1  0
 39 40  1  0
 40 41  1  0
 28 42  1  0
 42 43  2  0
 10  5  1  0
 17 12  1  0
 43 22  1  0
 42 25  1  0
 41 36  1  0
  3 44  1  0
  4 45  1  0
  6 46  1  0
  7 47  1  0
  8 48  1  0
  9 49  1  0
 10 50  1  0
 11 51  1  0
 13 52  1  0
 14 53  1  0
 15 54  1  0
 16 55  1  0
 23 56  1  0
 24 57  1  0
 26 58  1  0
 27 59  1  0
 34 60  1  0
 34 61  1  0
 35 62  1  0
 35 63  1  0
 37 64  1  0
 37 65  1  0
 38 66  1  0
 38 67  1  0
 40 68  1  0
 40 69  1  0
 41 70  1  0
 41 71  1  0
 43 72  1  0
M  CHG  2  21  -1  33  -1
M  END
>  <UniqueID>  (55) 
52

>  <SMILES>  (55) 
O=C(C=Cc1ccccc1)Nc1ccccc1S(=O)(=O)[N-]c1ccc2[nH]cc(C(=O)C(=O)[N-]CCN3CCOCC3)c2c1

>  <Energy>  (55) 
142.14504589603789

>  <Genealogy>  (55) 
O=C(C=Cc1ccccc1)Nc1ccccc1S(=O)(=O)[N-]c1ccc2[nH]cc(C(=O)C(=O)[N-]CCN3CCOCC3)c2c1 (protonated)
O=C(C=Cc1ccccc1)Nc1ccccc1S(=O)(=O)[N-]c1ccc2[nH]cc(C(=O)C(=O)[N-]CCN3CCOCC3)c2c1 (3D coordinates assigned)
O=C(C=Cc1ccccc1)Nc1ccccc1S(=O)(=O)[N-]c1ccc2[nH]cc(C(=O)C(=O)[N-]CCN3CCOCC3)c2c1 (nonaromatic ring conformer: 142.14504589603789 kcal/mol)

>  <smiles>  (55) 
O=C(C=Cc1ccccc1)Nc1ccccc1S(=O)(=O)Nc1ccc2[nH]cc(C(=O)C(=O)NCCN3CCOCC3)c2c1

>  <score_type>  (55) 
oracle

>  <origin>  (55) 
adg

>  <m_score__min__energy>  (55) 
-14.19

>  <m_primary>  (55) 
energy

$$$$
55:0
     RDKit          3D

 51 53  0  0  0  0  0  0  0  0999 V2000
   62.5800   28.0640   52.4010 C   0  0  0  0  0  0  0  0  0  0  0  0
   62.8820   29.3070   51.6180 C   0  0  0  0  0  0  0  0  0  0  0  0
   62.0010   29.7380   50.6140 C   0  0  0  0  0  0  0  0  0  0  0  0
   62.2730   30.9040   49.8910 C   0  0  0  0  0  0  0  0  0  0  0  0
   63.4170   31.6600   50.1760 C   0  0  0  0  0  0  0  0  0  0  0  0
   63.7830   33.0890   49.2100 S   0  0  0  0  0  0  0  0  0  0  0  0
   64.0700   32.7080   47.7840 O   0  0  0  0  0  0  0  0  0  0  0  0
   64.9910   33.7730   49.7830 O   0  0  0  0  0  0  0  0  0  0  0  0
   62.4320   34.1720   49.2540 N   0  0  0  0  0  0  0  0  0  0  0  0
   61.1820   33.8500   48.6430 C   0  0  0  0  0  0  0  0  0  0  0  0
   60.1890   34.6090   48.8090 O   0  0  0  0  0  0  0  0  0  0  0  0
   61.0810   32.6870   47.8080 N   0  0  0  0  0  0  0  0  0  0  0  0
   59.9220   32.3890   47.0140 C   0  0  0  0  0  0  0  0  0  0  0  0
   59.1420   31.2640   47.3220 C   0  0  0  0  0  0  0  0  0  0  0  0
   58.0680   30.9030   46.5040 C   0  0  0  0  0  0  0  0  0  0  0  0
   57.7680   31.6570   45.3640 C   0  0  0  0  0  0  0  0  0  0  0  0
   56.7580   31.1980   44.4600 N   0  0  0  0  0  0  0  0  0  0  0  0
   56.2310   29.8660   44.4720 C   0  0  0  0  0  0  0  0  0  0  0  0
   55.1510   29.6420   45.0810 O   0  0  0  0  0  0  0  0  0  0  0  0
   57.0270   28.7020   43.9330 C   0  0  0  0  0  0  0  0  0  0  0  0
   58.1160   28.2370   44.8780 C   0  0  0  0  0  0  0  0  0  0  0  0
   59.4150   28.7460   44.6830 C   0  0  0  0  0  0  0  0  0  0  0  0
   60.4680   28.3560   45.5090 C   0  0  0  0  0  0  0  0  0  0  0  0
   60.2440   27.4620   46.5500 C   0  0  0  0  0  0  0  0  0  0  0  0
   58.9650   26.9510   46.7710 C   0  0  0  0  0  0  0  0  0  0  0  0
   57.8860   27.3130   45.9400 C   0  0  0  0  0  0  0  0  0  0  0  0
   56.5660   26.6920   46.2140 C   0  0  0  0  0  0  0  0  0  0  0  0
   55.5180   27.1130   45.6580 O   0  0  0  0  0  0  0  0  0  0  0  0
   56.4770   25.5930   47.0600 O   0  0  0  0  0  0  0  0  0  0  0  0
   58.4840   32.8360   45.1080 C   0  0  0  0  0  0  0  0  0  0  0  0
   59.5520   33.2010   45.9290 C   0  0  0  0  0  0  0  0  0  0  0  0
   64.2880   31.2420   51.1920 C   0  0  0  0  0  0  0  0  0  0  0  0
   64.0180   30.0750   51.9140 C   0  0  0  0  0  0  0  0  0  0  0  0
   62.6340   28.2862   53.4770 H   0  0  0  0  0  0  0  0  0  0  0  0
   61.5695   27.7091   52.1502 H   0  0  0  0  0  0  0  0  0  0  0  0
   63.3150   27.2850   52.1502 H   0  0  0  0  0  0  0  0  0  0  0  0
   61.0933   29.1566   50.3949 H   0  0  0  0  0  0  0  0  0  0  0  0
   61.5859   31.2284   49.0956 H   0  0  0  0  0  0  0  0  0  0  0  0
   61.9630   32.1600   47.6130 H   0  0  0  0  0  0  0  0  0  0  0  0
   59.3773   30.6627   48.2125 H   0  0  0  0  0  0  0  0  0  0  0  0
   57.4570   30.0240   46.7569 H   0  0  0  0  0  0  0  0  0  0  0  0
   56.3398   27.8626   43.7509 H   0  0  0  0  0  0  0  0  0  0  0  0
   57.5180   29.0409   43.0089 H   0  0  0  0  0  0  0  0  0  0  0  0
   59.6009   29.4609   43.8679 H   0  0  0  0  0  0  0  0  0  0  0  0
   61.4780   28.7563   45.3369 H   0  0  0  0  0  0  0  0  0  0  0  0
   61.0769   27.1571   47.2006 H   0  0  0  0  0  0  0  0  0  0  0  0
   58.7962   26.2553   47.6062 H   0  0  0  0  0  0  0  0  0  0  0  0
   58.2028   33.4746   44.2577 H   0  0  0  0  0  0  0  0  0  0  0  0
   60.1066   34.1289   45.7255 H   0  0  0  0  0  0  0  0  0  0  0  0
   65.1864   31.8336   51.4220 H   0  0  0  0  0  0  0  0  0  0  0  0
   64.6993   29.7580   52.7174 H   0  0  0  0  0  0  0  0  0  0  0  0
  1  2  1  0
  2  3  2  0
  3  4  1  0
  4  5  2  0
  5  6  1  0
  6  7  2  0
  6  8  2  0
  6  9  1  0
  9 10  1  0
 10 11  2  0
 10 12  1  0
 12 13  1  0
 13 14  2  0
 14 15  1  0
 15 16  2  0
 16 17  1  0
 17 18  1  0
 18 19  2  0
 18 20  1  0
 20 21  1  0
 21 22  2  0
 22 23  1  0
 23 24  2  0
 24 25  1  0
 25 26  2  0
 26 27  1  0
 27 28  2  0
 27 29  1  0
 16 30  1  0
 30 31  2  0
  5 32  1  0
 32 33  2  0
 33  2  1  0
 31 13  1  0
 26 21  1  0
  1 34  1  0
  1 35  1  0
  1 36  1  0
  3 37  1  0
  4 38  1  0
 12 39  1  0
 14 40  1  0
 15 41  1  0
 20 42  1  0
 20 43  1  0
 22 44  1  0
 23 45  1  0
 24 46  1  0
 25 47  1  0
 30 48  1  0
 31 49  1  0
 32 50  1  0
 33 51  1  0
M  CHG  3   9  -1  17  -1  29  -1
M  END
>  <UniqueID>  (56) 
53

>  <SMILES>  (56) 
Cc1ccc(S(=O)(=O)[N-]C(=O)Nc2ccc([N-]C(=O)Cc3ccccc3C(=O)[O-])cc2)cc1

>  <Energy>  (56) 
67.0231009868433

>  <Genealogy>  (56) 
Cc1ccc(S(=O)(=O)[N-]C(=O)Nc2ccc([N-]C(=O)Cc3ccccc3C(=O)[O-])cc2)cc1 (protonated)
Cc1ccc(S(=O)(=O)[N-]C(=O)Nc2ccc([N-]C(=O)Cc3ccccc3C(=O)[O-])cc2)cc1 (3D coordinates assigned)
Cc1ccc(S(=O)(=O)[N-]C(=O)Nc2ccc([N-]C(=O)Cc3ccccc3C(=O)[O-])cc2)cc1 (optimized conformer: 67.0231009868433 kcal/mol)

>  <smiles>  (56) 
Cc1ccc(S(=O)(=O)NC(=O)Nc2ccc(NC(=O)Cc3ccccc3C(=O)O)cc2)cc1

>  <score_type>  (56) 
oracle

>  <origin>  (56) 
adg

>  <m_score__min__energy>  (56) 
-14.67

>  <m_primary>  (56) 
energy

$$$$
56:0
     RDKit          3D

 35 36  0  0  0  0  0  0  0  0999 V2000
   55.1020   26.3880   46.0880 N   0  0  0  0  0  0  0  0  0  0  0  0
   56.7220   25.8050   46.2470 S   0  0  0  0  0  0  0  0  0  0  0  0
   56.8180   24.9840   47.5020 O   0  0  0  0  0  0  0  0  0  0  0  0
   57.0690   24.9500   45.0620 O   0  0  0  0  0  0  0  0  0  0  0  0
   57.8370   27.1650   46.3340 C   0  0  0  0  0  0  0  0  0  0  0  0
   58.0560   27.9730   45.2090 C   0  0  0  0  0  0  0  0  0  0  0  0
   58.9330   29.0580   45.2840 C   0  0  0  0  0  0  0  0  0  0  0  0
   59.6000   29.3500   46.4850 C   0  0  0  0  0  0  0  0  0  0  0  0
   60.5240   30.5330   46.5640 C   0  0  0  0  0  0  0  0  0  0  0  0
   59.8830   31.7150   45.9950 N   0  0  0  0  0  0  0  0  0  0  0  0
   60.1740   33.0440   46.4500 C   0  0  0  0  0  0  0  0  0  0  0  0
   60.9960   33.2310   47.3880 O   0  0  0  0  0  0  0  0  0  0  0  0
   59.5360   34.2250   45.7870 C   0  0  0  0  0  0  0  0  0  0  0  0
   57.7230   34.1800   45.9970 S   0  0  0  0  0  0  0  0  0  0  0  0
   57.4730   32.8200   44.8590 C   0  0  0  0  0  0  0  0  0  0  0  0
   56.6300   31.8070   45.1860 N   0  0  0  0  0  0  0  0  0  0  0  0
   56.4380   30.7590   44.3420 C   0  0  0  0  0  0  0  0  0  0  0  0
   55.6540   29.8290   44.6650 O   0  0  0  0  0  0  0  0  0  0  0  0
   57.1130   30.7180   43.1210 C   0  0  0  0  0  0  0  0  0  0  0  0
   57.9710   31.7710   42.8010 C   0  0  0  0  0  0  0  0  0  0  0  0
   58.1340   32.8000   43.6710 N   0  0  0  0  0  0  0  0  0  0  0  0
   59.3690   28.5460   47.6130 C   0  0  0  0  0  0  0  0  0  0  0  0
   58.4910   27.4600   47.5370 C   0  0  0  0  0  0  0  0  0  0  0  0
   55.1580   27.4270   46.0020 H   0  0  0  0  0  0  0  0  0  0  0  0
   57.5360   27.7520   44.2652 H   0  0  0  0  0  0  0  0  0  0  0  0
   59.1020   29.6870   44.3976 H   0  0  0  0  0  0  0  0  0  0  0  0
   60.7751   30.7278   47.6171 H   0  0  0  0  0  0  0  0  0  0  0  0
   61.4382   30.3119   45.9936 H   0  0  0  0  0  0  0  0  0  0  0  0
   59.2180   31.5840   45.1990 H   0  0  0  0  0  0  0  0  0  0  0  0
   59.9291   35.1483   46.2376 H   0  0  0  0  0  0  0  0  0  0  0  0
   59.7688   34.1963   44.7123 H   0  0  0  0  0  0  0  0  0  0  0  0
   56.9720   29.8758   42.4276 H   0  0  0  0  0  0  0  0  0  0  0  0
   58.5146   31.7671   41.8447 H   0  0  0  0  0  0  0  0  0  0  0  0
   59.8808   28.7713   48.5603 H   0  0  0  0  0  0  0  0  0  0  0  0
   58.3135   26.8354   48.4249 H   0  0  0  0  0  0  0  0  0  0  0  0
  1  2  1  0
  2  3  2  0
  2  4  2  0
  2  5  1  0
  5  6  2  0
  6  7  1  0
  7  8  2  0
  8  9  1  0
  9 10  1  0
 10 11  1  0
 11 12  2  0
 11 13  1  0
 13 14  1  0
 14 15  1  0
 15 16  2  0
 16 17  1  0
 17 18  2  0
 17 19  1  0
 19 20  2  0
 20 21  1  0
  8 22  1  0
 22 23  2  0
 23  5  1  0
 21 15  1  0
  1 24  1  0
  6 25  1  0
  7 26  1  0
  9 27  1  0
  9 28  1  0
 10 29  1  0
 13 30  1  0
 13 31  1  0
 19 32  1  0
 20 33  1  0
 22 34  1  0
 23 35  1  0
M  CHG  2   1  -1  21  -1
M  END
>  <UniqueID>  (57) 
54

>  <SMILES>  (57) 
[NH-]S(=O)(=O)c1ccc(CNC(=O)CSc2nc(=O)cc[n-]2)cc1

>  <Energy>  (57) 
28.178885168470405

>  <Genealogy>  (57) 
[NH-]S(=O)(=O)c1ccc(CNC(=O)CSc2nc(=O)cc[n-]2)cc1 (protonated)
[NH-]S(=O)(=O)c1ccc(CNC(=O)CSc2nc(=O)cc[n-]2)cc1 (3D coordinates assigned)
[NH-]S(=O)(=O)c1ccc(CNC(=O)CSc2nc(=O)cc[n-]2)cc1 (optimized conformer: 28.178885168470405 kcal/mol)

>  <smiles>  (57) 
NS(=O)(=O)c1ccc(CNC(=O)CSc2nc(=O)cc[nH]2)cc1

>  <score_type>  (57) 
oracle

>  <origin>  (57) 
adg

>  <m_score__min__energy>  (57) 
-12.26

>  <m_primary>  (57) 
energy

$$$$
57:0
     RDKit          3D

 44 47  0  0  0  0  0  0  0  0999 V2000
   56.6810   26.9200   47.0790 O   0  0  0  0  0  0  0  0  0  0  0  0
   57.0750   27.3280   45.9570 C   0  0  0  0  0  0  0  0  0  0  0  0
   56.2270   28.2000   45.1970 N   0  0  0  0  0  0  0  0  0  0  0  0
   56.6200   29.3970   44.5130 C   0  0  0  0  0  0  0  0  0  0  0  0
   56.3560   29.5900   43.1460 C   0  0  0  0  0  0  0  0  0  0  0  0
   56.7360   30.7800   42.5190 C   0  0  0  0  0  0  0  0  0  0  0  0
   57.4000   31.7740   43.2430 C   0  0  0  0  0  0  0  0  0  0  0  0
   57.6990   31.5720   44.5940 C   0  0  0  0  0  0  0  0  0  0  0  0
   58.5600   32.8050   45.4960 Cl  0  0  0  0  0  0  0  0  0  0  0  0
   57.3150   30.3840   45.2240 C   0  0  0  0  0  0  0  0  0  0  0  0
   58.6440   26.7190   45.3240 S   0  0  0  0  0  0  0  0  0  0  0  0
   59.5440   28.1370   45.9410 C   0  0  0  0  0  0  0  0  0  0  0  0
   59.1740   28.7000   47.1150 N   0  0  0  0  0  0  0  0  0  0  0  0
   59.8070   29.7920   47.6100 C   0  0  0  0  0  0  0  0  0  0  0  0
   59.2660   30.4060   48.8440 C   0  0  0  0  0  0  0  0  0  0  0  0
   58.8860   31.7590   48.8750 C   0  0  0  0  0  0  0  0  0  0  0  0
   58.3470   32.3140   50.0400 C   0  0  0  0  0  0  0  0  0  0  0  0
   58.1630   31.5200   51.1760 C   0  0  0  0  0  0  0  0  0  0  0  0
   57.4120   32.2750   52.7600 Br  0  0  0  0  0  0  0  0  0  0  0  0
   58.5110   30.1660   51.1430 C   0  0  0  0  0  0  0  0  0  0  0  0
   59.0540   29.6090   49.9820 C   0  0  0  0  0  0  0  0  0  0  0  0
   60.9060   30.3170   46.8900 C   0  0  0  0  0  0  0  0  0  0  0  0
   61.7420   31.4360   47.3790 C   0  0  0  0  0  0  0  0  0  0  0  0
   61.6970   32.6790   46.7260 C   0  0  0  0  0  0  0  0  0  0  0  0
   62.4940   33.7380   47.1700 C   0  0  0  0  0  0  0  0  0  0  0  0
   63.3490   33.5630   48.2610 C   0  0  0  0  0  0  0  0  0  0  0  0
   63.4170   32.3240   48.9040 C   0  0  0  0  0  0  0  0  0  0  0  0
   62.6230   31.2610   48.4620 C   0  0  0  0  0  0  0  0  0  0  0  0
   61.2370   29.7290   45.7080 N   0  0  0  0  0  0  0  0  0  0  0  0
   60.5730   28.6740   45.2360 N   0  0  0  0  0  0  0  0  0  0  0  0
   55.8493   28.8029   42.5684 H   0  0  0  0  0  0  0  0  0  0  0  0
   56.5119   30.9345   41.4532 H   0  0  0  0  0  0  0  0  0  0  0  0
   57.6872   32.7147   42.7504 H   0  0  0  0  0  0  0  0  0  0  0  0
   57.5601   30.2235   46.2843 H   0  0  0  0  0  0  0  0  0  0  0  0
   59.0132   32.3841   47.9788 H   0  0  0  0  0  0  0  0  0  0  0  0
   58.0672   33.3776   50.0626 H   0  0  0  0  0  0  0  0  0  0  0  0
   58.3570   29.5380   52.0329 H   0  0  0  0  0  0  0  0  0  0  0  0
   59.3169   28.5411   49.9587 H   0  0  0  0  0  0  0  0  0  0  0  0
   61.0316   32.8195   45.8614 H   0  0  0  0  0  0  0  0  0  0  0  0
   62.4479   34.7112   46.6594 H   0  0  0  0  0  0  0  0  0  0  0  0
   63.9687   34.4005   48.6139 H   0  0  0  0  0  0  0  0  0  0  0  0
   64.0956   32.1848   49.7585 H   0  0  0  0  0  0  0  0  0  0  0  0
   62.6875   30.2839   48.9632 H   0  0  0  0  0  0  0  0  0  0  0  0
   60.8590   28.2540   44.3240 H   0  0  0  0  0  0  0  0  0  0  0  0
  1  2  2  0
  2  3  1  0
  3  4  1  0
  4  5  2  0
  5  6  1  0
  6  7  2  0
  7  8  1  0
  8  9  1  0
  8 10  2  0
  2 11  1  0
 11 12  1  0
 12 13  2  0
 13 14  1  0
 14 15  1  0
 15 16  2  0
 16 17  1  0
 17 18  2  0
 18 19  1  0
 18 20  1  0
 20 21  2  0
 14 22  2  0
 22 23  1  0
 23 24  2  0
 24 25  1  0
 25 26  2  0
 26 27  1  0
 27 28  2  0
 22 29  1  0
 29 30  2  0
 10  4  1  0
 30 12  1  0
 21 15  1  0
 28 23  1  0
  5 31  1  0
  6 32  1  0
  7 33  1  0
 10 34  1  0
 16 35  1  0
 17 36  1  0
 20 37  1  0
 21 38  1  0
 24 39  1  0
 25 40  1  0
 26 41  1  0
 27 42  1  0
 28 43  1  0
 30 44  1  0
M  CHG  2   3  -1  30   1
M  END
>  <UniqueID>  (58) 
55

>  <SMILES>  (58) 
O=C([N-]c1cccc(Cl)c1)Sc1nc(-c2ccc(Br)cc2)c(-c2ccccc2)n[nH+]1

>  <Energy>  (58) 
57.68289391231431

>  <Genealogy>  (58) 
O=C([N-]c1cccc(Cl)c1)Sc1nc(-c2ccc(Br)cc2)c(-c2ccccc2)n[nH+]1 (protonated)
O=C([N-]c1cccc(Cl)c1)Sc1nc(-c2ccc(Br)cc2)c(-c2ccccc2)n[nH+]1 (3D coordinates assigned)
O=C([N-]c1cccc(Cl)c1)Sc1nc(-c2ccc(Br)cc2)c(-c2ccccc2)n[nH+]1 (optimized conformer: 57.68289391231431 kcal/mol)

>  <smiles>  (58) 
O=C(Nc1cccc(Cl)c1)Sc1nnc(-c2ccccc2)c(-c2ccc(Br)cc2)n1

>  <score_type>  (58) 
oracle

>  <origin>  (58) 
adg

>  <m_score__min__energy>  (58) 
-9.9199999999999999

>  <m_primary>  (58) 
energy

$$$$
58:0
     RDKit          3D

 73 77  0  0  0  0  0  0  0  0999 V2000
   61.5560   32.2920   51.9290 C   0  0  0  0  0  0  0  0  0  0  0  0
   62.7590   31.3880   51.7700 C   0  0  0  0  0  0  0  0  0  0  0  0
   62.7750   30.1530   52.4540 C   0  0  0  0  0  0  0  0  0  0  0  0
   61.6770   29.7650   53.2330 O   0  0  0  0  0  0  0  0  0  0  0  0
   60.5780   29.0700   52.7130 C   0  0  0  0  0  0  0  0  0  0  0  0
   59.8440   28.3810   53.4750 O   0  0  0  0  0  0  0  0  0  0  0  0
   60.2510   29.1830   51.2770 C   0  0  0  0  0  0  0  0  0  0  0  0
   60.8600   28.3300   50.3420 C   0  0  0  0  0  0  0  0  0  0  0  0
   60.5510   28.4340   48.9820 C   0  0  0  0  0  0  0  0  0  0  0  0
   59.6400   29.4020   48.5360 C   0  0  0  0  0  0  0  0  0  0  0  0
   59.2400   29.5280   46.8190 S   0  0  0  0  0  0  0  0  0  0  0  0
   60.1150   30.5710   46.1810 O   0  0  0  0  0  0  0  0  0  0  0  0
   57.8100   29.9710   46.6770 O   0  0  0  0  0  0  0  0  0  0  0  0
   59.4620   28.0040   45.9810 N   0  0  0  0  0  0  0  0  0  0  0  0
   59.4920   28.1970   44.5260 C   0  0  0  0  0  0  0  0  0  0  0  0
   58.1400   27.7880   43.9780 C   0  0  0  0  0  0  0  0  0  0  0  0
   57.6330   26.7630   44.9660 C   0  0  0  0  0  0  0  0  0  0  0  0
   58.3640   27.0660   46.2680 C   0  0  0  0  0  0  0  0  0  0  0  0
   59.0490   30.2700   49.4620 C   0  0  0  0  0  0  0  0  0  0  0  0
   59.3400   30.1550   50.8240 C   0  0  0  0  0  0  0  0  0  0  0  0
   63.8900   29.3140   52.3380 C   0  0  0  0  0  0  0  0  0  0  0  0
   63.9090   28.1910   52.9120 O   0  0  0  0  0  0  0  0  0  0  0  0
   64.9820   29.7180   51.5800 C   0  0  0  0  0  0  0  0  0  0  0  0
   64.9620   30.9630   50.9570 C   0  0  0  0  0  0  0  0  0  0  0  0
   63.8760   31.7920   51.0630 N   0  0  0  0  0  0  0  0  0  0  0  0
   63.9620   33.1230   50.4280 C   0  0  0  0  0  0  0  0  0  0  0  0
   62.8710   33.3230   49.4030 C   0  0  0  0  0  0  0  0  0  0  0  0
   62.6940   32.3920   48.3660 C   0  0  0  0  0  0  0  0  0  0  0  0
   61.6600   32.5520   47.4410 C   0  0  0  0  0  0  0  0  0  0  0  0
   60.7630   33.6300   47.5490 C   0  0  0  0  0  0  0  0  0  0  0  0
   59.6700   33.7880   46.5590 C   0  0  0  0  0  0  0  0  0  0  0  0
   59.7090   34.7510   45.7440 O   0  0  0  0  0  0  0  0  0  0  0  0
   58.5760   32.8580   46.5030 N   0  0  0  0  0  0  0  0  0  0  0  0
   57.3390   33.1580   45.7870 C   0  0  0  0  0  0  0  0  0  0  0  0
   57.2610   32.3370   44.5310 C   0  0  0  0  0  0  0  0  0  0  0  0
   56.4500   31.1900   44.4910 C   0  0  0  0  0  0  0  0  0  0  0  0
   56.3350   30.4500   43.3110 C   0  0  0  0  0  0  0  0  0  0  0  0
   57.0250   30.8500   42.1630 C   0  0  0  0  0  0  0  0  0  0  0  0
   57.8260   31.9950   42.1920 C   0  0  0  0  0  0  0  0  0  0  0  0
   57.9440   32.7390   43.3700 C   0  0  0  0  0  0  0  0  0  0  0  0
   60.9360   34.5570   48.5930 C   0  0  0  0  0  0  0  0  0  0  0  0
   61.9760   34.3980   49.5160 C   0  0  0  0  0  0  0  0  0  0  0  0
   61.3516   32.4456   52.9989 H   0  0  0  0  0  0  0  0  0  0  0  0
   61.7605   33.2618   51.4519 H   0  0  0  0  0  0  0  0  0  0  0  0
   60.6814   31.8258   51.4519 H   0  0  0  0  0  0  0  0  0  0  0  0
   61.5846   27.5753   50.6816 H   0  0  0  0  0  0  0  0  0  0  0  0
   61.0247   27.7535   48.2591 H   0  0  0  0  0  0  0  0  0  0  0  0
   59.6865   29.2542   44.2924 H   0  0  0  0  0  0  0  0  0  0  0  0
   60.2902   27.5901   44.0737 H   0  0  0  0  0  0  0  0  0  0  0  0
   57.4611   28.6522   43.9297 H   0  0  0  0  0  0  0  0  0  0  0  0
   58.2035   27.3904   42.9543 H   0  0  0  0  0  0  0  0  0  0  0  0
   56.5460   26.8631   45.1018 H   0  0  0  0  0  0  0  0  0  0  0  0
   57.8167   25.7346   44.6216 H   0  0  0  0  0  0  0  0  0  0  0  0
   57.6669   27.5200   46.9877 H   0  0  0  0  0  0  0  0  0  0  0  0
   58.7654   26.1371   46.6994 H   0  0  0  0  0  0  0  0  0  0  0  0
   58.3516   31.0469   49.1155 H   0  0  0  0  0  0  0  0  0  0  0  0
   58.8542   30.8280   51.5459 H   0  0  0  0  0  0  0  0  0  0  0  0
   65.8562   29.0590   51.4728 H   0  0  0  0  0  0  0  0  0  0  0  0
   65.8335   31.2870   50.3692 H   0  0  0  0  0  0  0  0  0  0  0  0
   63.8674   33.8958   51.2051 H   0  0  0  0  0  0  0  0  0  0  0  0
   64.9325   33.1970   49.9155 H   0  0  0  0  0  0  0  0  0  0  0  0
   63.3741   31.5315   48.2820 H   0  0  0  0  0  0  0  0  0  0  0  0
   61.5460   31.8283   46.6204 H   0  0  0  0  0  0  0  0  0  0  0  0
   58.6600   31.9260   46.9690 H   0  0  0  0  0  0  0  0  0  0  0  0
   56.4789   32.9218   46.4307 H   0  0  0  0  0  0  0  0  0  0  0  0
   57.3244   34.2256   45.5224 H   0  0  0  0  0  0  0  0  0  0  0  0
   55.9037   30.8735   45.3918 H   0  0  0  0  0  0  0  0  0  0  0  0
   55.7007   29.5517   43.2856 H   0  0  0  0  0  0  0  0  0  0  0  0
   56.9375   30.2635   41.2365 H   0  0  0  0  0  0  0  0  0  0  0  0
   58.3645   32.3114   41.2865 H   0  0  0  0  0  0  0  0  0  0  0  0
   58.5730   33.6413   43.3883 H   0  0  0  0  0  0  0  0  0  0  0  0
   60.2498   35.4119   48.6844 H   0  0  0  0  0  0  0  0  0  0  0  0
   62.0928   35.1213   50.3365 H   0  0  0  0  0  0  0  0  0  0  0  0
  1  2  1  0
  2  3  2  0
  3  4  1  0
  4  5  1  0
  5  6  2  0
  5  7  1  0
  7  8  2  0
  8  9  1  0
  9 10  2  0
 10 11  1  0
 11 12  2  0
 11 13  2  0
 11 14  1  0
 14 15  1  0
 15 16  1  0
 16 17  1  0
 17 18  1  0
 10 19  1  0
 19 20  2  0
  3 21  1  0
 21 22  2  0
 21 23  1  0
 23 24  2  0
 24 25  1  0
 25 26  1  0
 26 27  1  0
 27 28  2  0
 28 29  1  0
 29 30  2  0
 30 31  1  0
 31 32  2  0
 31 33  1  0
 33 34  1  0
 34 35  1  0
 35 36  2  0
 36 37  1  0
 37 38  2  0
 38 39  1  0
 39 40  2  0
 30 41  1  0
 41 42  2  0
 25  2  1  0
 42 27  1  0
 20  7  1  0
 40 35  1  0
 18 14  1  0
  1 43  1  0
  1 44  1  0
  1 45  1  0
  8 46  1  0
  9 47  1  0
 15 48  1  0
 15 49  1  0
 16 50  1  0
 16 51  1  0
 17 52  1  0
 17 53  1  0
 18 54  1  0
 18 55  1  0
 19 56  1  0
 20 57  1  0
 23 58  1  0
 24 59  1  0
 26 60  1  0
 26 61  1  0
 28 62  1  0
 29 63  1  0
 33 64  1  0
 34 65  1  0
 34 66  1  0
 36 67  1  0
 37 68  1  0
 38 69  1  0
 39 70  1  0
 40 71  1  0
 41 72  1  0
 42 73  1  0
M  END
>  <UniqueID>  (59) 
56

>  <SMILES>  (59) 
Cc1c(OC(=O)c2ccc(S(=O)(=O)N3CCCC3)cc2)c(=O)ccn1Cc1ccc(C(=O)NCc2ccccc2)cc1

>  <Energy>  (59) 
90.9473416188366

>  <Genealogy>  (59) 
Cc1c(OC(=O)c2ccc(S(=O)(=O)N3CCCC3)cc2)c(=O)ccn1Cc1ccc(C(=O)NCc2ccccc2)cc1 (3D coordinates assigned)
Cc1c(OC(=O)c2ccc(S(=O)(=O)N3CCCC3)cc2)c(=O)ccn1Cc1ccc(C(=O)NCc2ccccc2)cc1 (nonaromatic ring conformer: 90.9473416188366 kcal/mol)

>  <smiles>  (59) 
Cc1c(OC(=O)c2ccc(S(=O)(=O)N3CCCC3)cc2)c(=O)ccn1Cc1ccc(C(=O)NCc2ccccc2)cc1

>  <score_type>  (59) 
oracle

>  <origin>  (59) 
adg

>  <m_score__min__energy>  (59) 
-11.69

>  <m_primary>  (59) 
energy

$$$$
59:0
     RDKit          3D

 66 69  0  0  0  0  0  0  0  0999 V2000
   54.6740   27.0840   46.7210 H   0  0  0  0  0  0  0  0  0  0  0  0
   54.7480   26.3420   45.9880 N   0  0  0  0  0  0  0  0  0  0  0  0
   56.2660   25.5500   46.2170 S   0  0  0  0  0  0  0  0  0  0  0  0
   56.4560   24.5110   45.1480 O   0  0  0  0  0  0  0  0  0  0  0  0
   56.2810   24.8700   47.5560 O   0  0  0  0  0  0  0  0  0  0  0  0
   57.5630   26.7370   46.1330 C   0  0  0  0  0  0  0  0  0  0  0  0
   57.9650   27.2650   44.8960 C   0  0  0  0  0  0  0  0  0  0  0  0
   57.4893   26.9134   43.9686 H   0  0  0  0  0  0  0  0  0  0  0  0
   58.9700   28.2380   44.8400 C   0  0  0  0  0  0  0  0  0  0  0  0
   59.2787   28.6524   43.8689 H   0  0  0  0  0  0  0  0  0  0  0  0
   59.5830   28.6850   46.0160 C   0  0  0  0  0  0  0  0  0  0  0  0
   60.3663   29.4558   45.9692 H   0  0  0  0  0  0  0  0  0  0  0  0
   59.1970   28.1480   47.2590 C   0  0  0  0  0  0  0  0  0  0  0  0
   59.7660   28.6050   48.4950 N   0  0  0  0  0  0  0  0  0  0  0  0
   60.5260   29.6490   48.6760 C   0  0  0  0  0  0  0  0  0  0  0  0
   60.9770   30.3570   47.6110 N   0  0  0  0  0  0  0  0  0  0  0  0
   61.8270   31.3950   47.7660 C   0  0  0  0  0  0  0  0  0  0  0  0
   62.2260   32.0090   46.7400 O   0  0  0  0  0  0  0  0  0  0  0  0
   62.2570   31.7520   49.0160 N   0  0  0  0  0  0  0  0  0  0  0  0
   63.2360   32.8490   49.1980 C   0  0  0  0  0  0  0  0  0  0  0  0
   63.8039   32.9758   48.2645 H   0  0  0  0  0  0  0  0  0  0  0  0
   63.8969   32.5771   50.0343 H   0  0  0  0  0  0  0  0  0  0  0  0
   62.5530   34.1850   49.5490 C   0  0  0  0  0  0  0  0  0  0  0  0
   62.9506   34.9612   48.8785 H   0  0  0  0  0  0  0  0  0  0  0  0
   62.7722   34.3805   50.6091 H   0  0  0  0  0  0  0  0  0  0  0  0
   61.0540   34.1710   49.4160 C   0  0  0  0  0  0  0  0  0  0  0  0
   60.3120   34.2680   50.4330 O   0  0  0  0  0  0  0  0  0  0  0  0
   60.4720   33.9720   48.1220 N   0  0  0  0  0  0  0  0  0  0  0  0
   61.1020   33.7990   47.3080 H   0  0  0  0  0  0  0  0  0  0  0  0
   59.0350   34.0920   47.8800 C   0  0  0  0  0  0  0  0  0  0  0  0
   58.7439   35.1516   47.9297 H   0  0  0  0  0  0  0  0  0  0  0  0
   58.4896   33.5206   48.6455 H   0  0  0  0  0  0  0  0  0  0  0  0
   58.6980   33.5450   46.5190 C   0  0  0  0  0  0  0  0  0  0  0  0
   59.1340   34.2140   45.3660 C   0  0  0  0  0  0  0  0  0  0  0  0
   59.7529   35.1187   45.4583 H   0  0  0  0  0  0  0  0  0  0  0  0
   58.7840   33.7340   44.0970 C   0  0  0  0  0  0  0  0  0  0  0  0
   59.1424   34.2534   43.1960 H   0  0  0  0  0  0  0  0  0  0  0  0
   57.9800   32.5960   43.9730 C   0  0  0  0  0  0  0  0  0  0  0  0
   57.7025   32.2259   42.9750 H   0  0  0  0  0  0  0  0  0  0  0  0
   57.5250   31.9230   45.1240 C   0  0  0  0  0  0  0  0  0  0  0  0
   56.7050   30.7840   45.0590 O   0  0  0  0  0  0  0  0  0  0  0  0
   56.2950   30.1530   43.8440 C   0  0  0  0  0  0  0  0  0  0  0  0
   55.7094   29.2518   44.0784 H   0  0  0  0  0  0  0  0  0  0  0  0
   55.6769   30.8501   43.2592 H   0  0  0  0  0  0  0  0  0  0  0  0
   57.1831   29.8714   43.2592 H   0  0  0  0  0  0  0  0  0  0  0  0
   57.8920   32.4020   46.3900 C   0  0  0  0  0  0  0  0  0  0  0  0
   57.5448   31.8767   47.2919 H   0  0  0  0  0  0  0  0  0  0  0  0
   61.8210   31.0310   50.1000 C   0  0  0  0  0  0  0  0  0  0  0  0
   62.2470   31.3190   51.2550 O   0  0  0  0  0  0  0  0  0  0  0  0
   60.9400   29.9870   49.9380 N   0  0  0  0  0  0  0  0  0  0  0  0
   60.4980   29.1870   51.1020 C   0  0  0  0  0  0  0  0  0  0  0  0
   60.4643   28.1243   50.8199 H   0  0  0  0  0  0  0  0  0  0  0  0
   61.2086   29.3358   51.9284 H   0  0  0  0  0  0  0  0  0  0  0  0
   59.1240   29.6270   51.5510 C   0  0  0  0  0  0  0  0  0  0  0  0
   58.4640   28.9450   52.5860 C   0  0  0  0  0  0  0  0  0  0  0  0
   58.9697   28.1185   53.1067 H   0  0  0  0  0  0  0  0  0  0  0  0
   57.1660   29.3120   52.9580 C   0  0  0  0  0  0  0  0  0  0  0  0
   56.6536   28.7716   53.7676 H   0  0  0  0  0  0  0  0  0  0  0  0
   56.5190   30.3640   52.3030 C   0  0  0  0  0  0  0  0  0  0  0  0
   54.8850   30.8120   52.7630 Cl  0  0  0  0  0  0  0  0  0  0  0  0
   57.1720   31.0530   51.2760 C   0  0  0  0  0  0  0  0  0  0  0  0
   56.6659   31.8846   50.7638 H   0  0  0  0  0  0  0  0  0  0  0  0
   58.4700   30.6850   50.8990 C   0  0  0  0  0  0  0  0  0  0  0  0
   58.9793   31.2272   50.0886 H   0  0  0  0  0  0  0  0  0  0  0  0
   58.1740   27.1920   47.3090 C   0  0  0  0  0  0  0  0  0  0  0  0
   57.8472   26.7946   48.2813 H   0  0  0  0  0  0  0  0  0  0  0  0
  1  2  1  0
  2  3  1  0
  3  4  2  0
  3  5  2  0
  3  6  1  0
  6  7  2  0
  7  8  1  0
  7  9  1  0
  9 10  1  0
  9 11  2  0
 11 12  1  0
 11 13  1  0
 13 14  1  0
 14 15  2  0
 15 16  1  0
 16 17  1  0
 17 18  2  0
 17 19  1  0
 19 20  1  0
 20 21  1  0
 20 22  1  0
 20 23  1  0
 23 24  1  0
 23 25  1  0
 23 26  1  0
 26 27  2  0
 26 28  1  0
 28 29  1  0
 28 30  1  0
 30 31  1  0
 30 32  1  0
 30 33  1  0
 33 34  2  0
 34 35  1  0
 34 36  1  0
 36 37  1  0
 36 38  2  0
 38 39  1  0
 38 40  1  0
 40 41  1  0
 41 42  1  0
 42 43  1  0
 42 44  1  0
 42 45  1  0
 40 46  2  0
 46 47  1  0
 19 48  1  0
 48 49  2  0
 48 50  1  0
 50 51  1  0
 51 52  1  0
 51 53  1  0
 51 54  1  0
 54 55  2  0
 55 56  1  0
 55 57  1  0
 57 58  1  0
 57 59  2  0
 59 60  1  0
 59 61  1  0
 61 62  1  0
 61 63  2  0
 63 64  1  0
 13 65  2  0
 65 66  1  0
 65  6  1  0
 50 15  1  0
 63 54  1  0
 46 33  1  0
M  CHG  2   2  -1  16  -1
M  END
>  <UniqueID>  (60) 
57

>  <SMILES>  (60) 
COc1cccc(CNC(=O)CCn2c(=O)[n-]/c(=N\c3cccc(S([NH-])(=O)=O)c3)n(Cc3ccc(Cl)cc3)c2=O)c1

>  <Energy>  (60) 
77.62991942018216

>  <Genealogy>  (60) 
COc1cccc(CNC(=O)CCn2c(=O)[n-]c(=Nc3cccc(S([NH-])(=O)=O)c3)n(Cc3ccc(Cl)cc3)c2=O)c1 (protonated)
COc1cccc(CNC(=O)CCn2c(=O)[n-]/c(=N\c3cccc(S([NH-])(=O)=O)c3)n(Cc3ccc(Cl)cc3)c2=O)c1 (cis-trans isomerization)
COc1cccc(CNC(=O)CCn2c(=O)[n-]/c(=N\c3cccc(S([NH-])(=O)=O)c3)n(Cc3ccc(Cl)cc3)c2=O)c1 (3D coordinates assigned)
COc1cccc(CNC(=O)CCn2c(=O)[n-]/c(=N\c3cccc(S([NH-])(=O)=O)c3)n(Cc3ccc(Cl)cc3)c2=O)c1 (optimized conformer: 77.62991942018216 kcal/mol)

>  <smiles>  (60) 
COc1cccc(CNC(=O)CCn2c(=O)[nH]c(=Nc3cccc(S(N)(=O)=O)c3)n(Cc3ccc(Cl)cc3)c2=O)c1

>  <score_type>  (60) 
oracle

>  <origin>  (60) 
adg

>  <m_score__min__energy>  (60) 
-14.68

>  <m_primary>  (60) 
energy

$$$$
60:0
     RDKit          3D

 52 55  0  0  0  0  0  0  0  0999 V2000
   59.1110   28.2550   47.6430 C   0  0  0  0  0  0  0  0  0  0  0  0
   58.4800   28.9700   46.6980 C   0  0  0  0  0  0  0  0  0  0  0  0
   57.9170   28.4870   45.5050 C   0  0  0  0  0  0  0  0  0  0  0  0
   57.6750   27.2280   45.0860 C   0  0  0  0  0  0  0  0  0  0  0  0
   57.1700   26.1280   45.9220 C   0  0  0  0  0  0  0  0  0  0  0  0
   57.9210   25.0830   46.3090 N   0  0  0  0  0  0  0  0  0  0  0  0
   57.0350   24.2770   46.9320 C   0  0  0  0  0  0  0  0  0  0  0  0
   57.3690   23.1820   47.4570 O   0  0  0  0  0  0  0  0  0  0  0  0
   55.7630   24.7280   46.9400 N   0  0  0  0  0  0  0  0  0  0  0  0
   55.8610   25.8940   46.2840 C   0  0  0  0  0  0  0  0  0  0  0  0
   54.7750   26.7120   45.9950 O   0  0  0  0  0  0  0  0  0  0  0  0
   57.6040   29.6010   44.7440 C   0  0  0  0  0  0  0  0  0  0  0  0
   57.9120   30.7070   45.5090 C   0  0  0  0  0  0  0  0  0  0  0  0
   57.7090   32.1260   45.0710 C   0  0  0  0  0  0  0  0  0  0  0  0
   58.4440   30.3280   46.6920 N   0  0  0  0  0  0  0  0  0  0  0  0
   58.9060   31.2130   47.7290 C   0  0  0  0  0  0  0  0  0  0  0  0
   59.4870   32.4440   47.3970 C   0  0  0  0  0  0  0  0  0  0  0  0
   59.9430   33.3030   48.4010 C   0  0  0  0  0  0  0  0  0  0  0  0
   59.8140   32.9440   49.7510 C   0  0  0  0  0  0  0  0  0  0  0  0
   60.3410   33.8520   50.8330 C   0  0  0  0  0  0  0  0  0  0  0  0
   61.4430   33.1990   51.5570 N   0  0  0  0  0  0  0  0  0  0  0  0
   62.7620   33.6470   51.0760 C   0  0  0  0  0  0  0  0  0  0  0  0
   63.0050   33.2470   49.6410 C   0  0  0  0  0  0  0  0  0  0  0  0
   63.2110   34.2250   48.6530 C   0  0  0  0  0  0  0  0  0  0  0  0
   63.4130   33.8500   47.3220 C   0  0  0  0  0  0  0  0  0  0  0  0
   63.4060   32.4980   46.9650 C   0  0  0  0  0  0  0  0  0  0  0  0
   63.1970   31.5200   47.9410 C   0  0  0  0  0  0  0  0  0  0  0  0
   62.9950   31.8910   49.2740 C   0  0  0  0  0  0  0  0  0  0  0  0
   59.2440   31.7040   50.0830 C   0  0  0  0  0  0  0  0  0  0  0  0
   58.7890   30.8470   49.0780 C   0  0  0  0  0  0  0  0  0  0  0  0
   59.5096   28.7562   48.5374 H   0  0  0  0  0  0  0  0  0  0  0  0
   59.2294   27.1680   47.5229 H   0  0  0  0  0  0  0  0  0  0  0  0
   57.8724   27.0044   44.0272 H   0  0  0  0  0  0  0  0  0  0  0  0
   57.1894   29.6035   43.7251 H   0  0  0  0  0  0  0  0  0  0  0  0
   57.6164   32.7731   45.9557 H   0  0  0  0  0  0  0  0  0  0  0  0
   58.5699   32.4503   44.4679 H   0  0  0  0  0  0  0  0  0  0  0  0
   56.7917   32.1959   44.4679 H   0  0  0  0  0  0  0  0  0  0  0  0
   59.5848   32.7359   46.3410 H   0  0  0  0  0  0  0  0  0  0  0  0
   60.4048   34.2643   48.1315 H   0  0  0  0  0  0  0  0  0  0  0  0
   60.7079   34.7837   50.3778 H   0  0  0  0  0  0  0  0  0  0  0  0
   59.5290   34.0725   51.5415 H   0  0  0  0  0  0  0  0  0  0  0  0
   61.3660   32.1580   51.4640 H   0  0  0  0  0  0  0  0  0  0  0  0
   61.3720   33.4420   52.5740 H   0  0  0  0  0  0  0  0  0  0  0  0
   62.8149   34.7430   51.1532 H   0  0  0  0  0  0  0  0  0  0  0  0
   63.5320   33.1672   51.6980 H   0  0  0  0  0  0  0  0  0  0  0  0
   63.2132   35.2900   48.9284 H   0  0  0  0  0  0  0  0  0  0  0  0
   63.5778   34.6198   46.5537 H   0  0  0  0  0  0  0  0  0  0  0  0
   63.5649   32.2046   45.9168 H   0  0  0  0  0  0  0  0  0  0  0  0
   63.1914   30.4565   47.6602 H   0  0  0  0  0  0  0  0  0  0  0  0
   62.8276   31.1179   50.0384 H   0  0  0  0  0  0  0  0  0  0  0  0
   59.1555   31.4066   51.1383 H   0  0  0  0  0  0  0  0  0  0  0  0
   58.3369   29.8806   49.3458 H   0  0  0  0  0  0  0  0  0  0  0  0
  1  2  2  0
  2  3  1  0
  3  4  2  3
  4  5  1  0
  5  6  1  0
  6  7  1  0
  7  8  2  0
  7  9  1  0
  9 10  1  0
 10 11  1  0
  3 12  1  0
 12 13  2  0
 13 14  1  0
 13 15  1  0
 15 16  1  0
 16 17  2  0
 17 18  1  0
 18 19  2  0
 19 20  1  0
 20 21  1  0
 21 22  1  0
 22 23  1  0
 23 24  2  0
 24 25  1  0
 25 26  2  0
 26 27  1  0
 27 28  2  0
 19 29  1  0
 29 30  2  0
 15  2  1  0
 30 16  1  0
 10  5  2  0
 28 23  1  0
  1 31  1  0
  1 32  1  0
  4 33  1  0
 12 34  1  0
 14 35  1  0
 14 36  1  0
 14 37  1  0
 17 38  1  0
 18 39  1  0
 20 40  1  0
 20 41  1  0
 21 42  1  0
 21 43  1  0
 22 44  1  0
 22 45  1  0
 24 46  1  0
 25 47  1  0
 26 48  1  0
 27 49  1  0
 28 50  1  0
 29 51  1  0
 30 52  1  0
M  CHG  4   6  -1   9  -1  11  -1  21   1
M  END
>  <UniqueID>  (61) 
58

>  <SMILES>  (61) 
C=c1c(=Cc2[n-]c(=O)[n-]c2[O-])cc(C)n1-c1ccc(C[NH2+]Cc2ccccc2)cc1

>  <Energy>  (61) 
130.65946262028737

>  <Genealogy>  (61) 
C=c1c(=Cc2[n-]c(=O)[n-]c2[O-])cc(C)n1-c1ccc(C[NH2+]Cc2ccccc2)cc1 (protonated)
C=c1c(=Cc2[n-]c(=O)[n-]c2[O-])cc(C)n1-c1ccc(C[NH2+]Cc2ccccc2)cc1 (3D coordinates assigned)
C=c1c(=Cc2[n-]c(=O)[n-]c2[O-])cc(C)n1-c1ccc(C[NH2+]Cc2ccccc2)cc1 (optimized conformer: 130.65946262028737 kcal/mol)

>  <smiles>  (61) 
C=c1c(=Cc2[nH]c(=O)[nH]c2O)cc(C)n1-c1ccc(CNCc2ccccc2)cc1

>  <score_type>  (61) 
oracle

>  <origin>  (61) 
adg

>  <m_score__min__energy>  (61) 
-14.68

>  <m_primary>  (61) 
energy

$$$$
61:0
     RDKit          3D

 52 55  0  0  0  0  0  0  0  0999 V2000
   56.2510   24.5600   47.2220 C   0  0  0  0  0  0  0  0  0  0  0  0
   56.9510   25.7260   46.5860 C   0  0  0  0  0  0  0  0  0  0  0  0
   58.3530   25.7710   46.5510 C   0  0  0  0  0  0  0  0  0  0  0  0
   59.0100   26.8440   45.9480 C   0  0  0  0  0  0  0  0  0  0  0  0
   58.2760   27.8850   45.3800 C   0  0  0  0  0  0  0  0  0  0  0  0
   56.8720   27.8570   45.3980 C   0  0  0  0  0  0  0  0  0  0  0  0
   56.0870   28.9900   44.7870 C   0  0  0  0  0  0  0  0  0  0  0  0
   56.6230   30.2830   45.2070 N   0  0  0  0  0  0  0  0  0  0  0  0
   57.8270   30.8940   44.7200 C   0  0  0  0  0  0  0  0  0  0  0  0
   58.5150   30.2770   43.8650 O   0  0  0  0  0  0  0  0  0  0  0  0
   58.2970   32.2050   45.2050 C   0  0  0  0  0  0  0  0  0  0  0  0
   57.7260   33.3960   44.7280 C   0  0  0  0  0  0  0  0  0  0  0  0
   58.1760   34.6320   45.2010 C   0  0  0  0  0  0  0  0  0  0  0  0
   59.2160   34.6900   46.1310 C   0  0  0  0  0  0  0  0  0  0  0  0
   59.8180   33.5110   46.5830 C   0  0  0  0  0  0  0  0  0  0  0  0
   61.2040   33.5950   47.7130 S   0  0  0  0  0  0  0  0  0  0  0  0
   60.1850   33.3220   49.1570 C   0  0  0  0  0  0  0  0  0  0  0  0
   60.5770   33.5040   50.4760 C   0  0  0  0  0  0  0  0  0  0  0  0
   59.6490   33.1320   51.3970 N   0  0  0  0  0  0  0  0  0  0  0  0
   58.5260   32.6540   50.8190 C   0  0  0  0  0  0  0  0  0  0  0  0
   57.5310   32.2020   51.5250 N   0  0  0  0  0  0  0  0  0  0  0  0
   56.9680   30.8830   51.4960 C   0  0  0  0  0  0  0  0  0  0  0  0
   55.7440   30.7460   51.7560 O   0  0  0  0  0  0  0  0  0  0  0  0
   57.7720   29.7630   51.2300 O   0  0  0  0  0  0  0  0  0  0  0  0
   58.8330   29.6990   50.3140 C   0  0  0  0  0  0  0  0  0  0  0  0
   60.1830   29.8280   50.6980 C   0  0  0  0  0  0  0  0  0  0  0  0
   61.1990   29.7220   49.7410 C   0  0  0  0  0  0  0  0  0  0  0  0
   60.8810   29.4840   48.4030 C   0  0  0  0  0  0  0  0  0  0  0  0
   59.5450   29.3450   48.0180 C   0  0  0  0  0  0  0  0  0  0  0  0
   58.5270   29.4470   48.9710 C   0  0  0  0  0  0  0  0  0  0  0  0
   58.6350   32.6760   49.1310 S   0  0  0  0  0  0  0  0  0  0  0  0
   59.3630   32.2720   46.1180 C   0  0  0  0  0  0  0  0  0  0  0  0
   56.2100   26.7670   45.9940 C   0  0  0  0  0  0  0  0  0  0  0  0
   54.8180   26.7160   46.0000 O   0  0  0  0  0  0  0  0  0  0  0  0
   56.3062   24.6519   48.3168 H   0  0  0  0  0  0  0  0  0  0  0  0
   55.1969   24.5492   46.9076 H   0  0  0  0  0  0  0  0  0  0  0  0
   56.7370   23.6246   46.9076 H   0  0  0  0  0  0  0  0  0  0  0  0
   58.9376   24.9554   47.0017 H   0  0  0  0  0  0  0  0  0  0  0  0
   60.1094   26.8690   45.9205 H   0  0  0  0  0  0  0  0  0  0  0  0
   58.7999   28.7331   44.9151 H   0  0  0  0  0  0  0  0  0  0  0  0
   56.1424   28.9163   43.6909 H   0  0  0  0  0  0  0  0  0  0  0  0
   55.0429   28.9162   45.1253 H   0  0  0  0  0  0  0  0  0  0  0  0
   56.9213   33.3561   43.9791 H   0  0  0  0  0  0  0  0  0  0  0  0
   57.7100   35.5607   44.8399 H   0  0  0  0  0  0  0  0  0  0  0  0
   59.5621   35.6635   46.5084 H   0  0  0  0  0  0  0  0  0  0  0  0
   61.5586   33.9157   50.7534 H   0  0  0  0  0  0  0  0  0  0  0  0
   60.4387   30.0123   51.7519 H   0  0  0  0  0  0  0  0  0  0  0  0
   62.2512   29.8266   50.0444 H   0  0  0  0  0  0  0  0  0  0  0  0
   61.6813   29.4059   47.6524 H   0  0  0  0  0  0  0  0  0  0  0  0
   59.2939   29.1551   46.9640 H   0  0  0  0  0  0  0  0  0  0  0  0
   57.4776   29.3284   48.6634 H   0  0  0  0  0  0  0  0  0  0  0  0
   59.8422   31.3461   46.4689 H   0  0  0  0  0  0  0  0  0  0  0  0
  1  2  1  0
  2  3  2  0
  3  4  1  0
  4  5  2  0
  5  6  1  0
  6  7  1  0
  7  8  1  0
  8  9  1  0
  9 10  2  0
  9 11  1  0
 11 12  2  0
 12 13  1  0
 13 14  2  0
 14 15  1  0
 15 16  1  0
 16 17  1  0
 17 18  2  0
 18 19  1  0
 19 20  1  0
 20 21  2  3
 21 22  1  0
 22 23  2  0
 22 24  1  0
 24 25  1  0
 25 26  2  0
 26 27  1  0
 27 28  2  0
 28 29  1  0
 29 30  2  0
 20 31  1  0
 15 32  2  0
  6 33  2  0
 33 34  1  0
 33  2  1  0
 32 11  1  0
 31 17  1  0
 30 25  1  0
  1 35  1  0
  1 36  1  0
  1 37  1  0
  3 38  1  0
  4 39  1  0
  5 40  1  0
  7 41  1  0
  7 42  1  0
 12 43  1  0
 13 44  1  0
 14 45  1  0
 18 46  1  0
 26 47  1  0
 27 48  1  0
 28 49  1  0
 29 50  1  0
 30 51  1  0
 32 52  1  0
M  CHG  3   8  -1  19  -1  34  -1
M  END
>  <UniqueID>  (62) 
59

>  <SMILES>  (62) 
Cc1cccc(C[N-]C(=O)c2cccc(Sc3c[n-]c(=NC(=O)Oc4ccccc4)s3)c2)c1[O-]

>  <Energy>  (62) 
87.43783459634926

>  <Genealogy>  (62) 
Cc1cccc(C[N-]C(=O)c2cccc(Sc3c[n-]c(=NC(=O)Oc4ccccc4)s3)c2)c1[O-] (protonated)
Cc1cccc(C[N-]C(=O)c2cccc(Sc3c[n-]c(=NC(=O)Oc4ccccc4)s3)c2)c1[O-] (3D coordinates assigned)
Cc1cccc(C[N-]C(=O)c2cccc(Sc3c[n-]c(=NC(=O)Oc4ccccc4)s3)c2)c1[O-] (optimized conformer: 87.43783459634926 kcal/mol)

>  <smiles>  (62) 
Cc1cccc(CNC(=O)c2cccc(Sc3c[nH]c(=NC(=O)Oc4ccccc4)s3)c2)c1O

>  <score_type>  (62) 
oracle

>  <origin>  (62) 
adg

>  <m_score__min__energy>  (62) 
-15.960000000000001

>  <m_primary>  (62) 
energy

$$$$
62:0
     RDKit          3D

 80 83  0  0  0  0  0  0  0  0999 V2000
   64.0750   32.6530   48.4460 C   0  0  0  0  0  0  0  0  0  0  0  0
   62.7320   33.0180   47.7830 C   0  0  0  0  0  0  0  0  0  0  0  0
   62.9570   33.8280   46.4890 C   0  0  0  0  0  0  0  0  0  0  0  0
   61.9060   33.8680   48.7650 C   0  0  0  0  0  0  0  0  0  0  0  0
   61.9680   31.8330   47.5050 O   0  0  0  0  0  0  0  0  0  0  0  0
   61.4890   30.9150   48.4540 C   0  0  0  0  0  0  0  0  0  0  0  0
   62.2010   30.5510   49.4250 O   0  0  0  0  0  0  0  0  0  0  0  0
   60.1770   30.3690   48.3130 N   0  0  0  0  0  0  0  0  0  0  0  0
   59.6120   29.9150   47.0430 C   0  0  2  0  0  0  0  0  0  0  0  0
   58.3280   30.7040   46.7220 C   0  0  0  0  0  0  0  0  0  0  0  0
   58.5900   32.1700   46.4690 C   0  0  0  0  0  0  0  0  0  0  0  0
   58.7450   32.6470   45.1580 C   0  0  0  0  0  0  0  0  0  0  0  0
   59.0350   33.9950   44.9260 C   0  0  0  0  0  0  0  0  0  0  0  0
   59.1870   34.8720   46.0050 C   0  0  0  0  0  0  0  0  0  0  0  0
   59.0290   34.4070   47.3140 C   0  0  0  0  0  0  0  0  0  0  0  0
   58.7230   33.0620   47.5460 C   0  0  0  0  0  0  0  0  0  0  0  0
   59.3680   28.4210   47.1150 C   0  0  0  0  0  0  0  0  0  0  0  0
   60.3140   27.6360   46.8420 O   0  0  0  0  0  0  0  0  0  0  0  0
   58.1170   27.8430   47.5300 N   0  0  0  0  0  0  0  0  0  0  0  0
   57.0800   27.1940   46.7180 C   0  0  1  0  0  0  0  0  0  0  0  0
   57.3320   27.3510   45.2000 C   0  0  0  0  0  0  0  0  0  0  0  0
   56.7540   28.6050   44.6050 C   0  0  0  0  0  0  0  0  0  0  0  0
   57.4440   29.5070   43.8220 C   0  0  0  0  0  0  0  0  0  0  0  0
   56.6590   30.5710   43.5850 N   0  0  0  0  0  0  0  0  0  0  0  0
   55.5130   30.2830   44.2430 C   0  0  0  0  0  0  0  0  0  0  0  0
   55.5350   29.0970   44.8910 N   0  0  0  0  0  0  0  0  0  0  0  0
   57.0150   25.7340   47.0800 C   0  0  0  0  0  0  0  0  0  0  0  0
   57.8780   25.2320   47.8500 O   0  0  0  0  0  0  0  0  0  0  0  0
   56.0170   24.8990   46.4830 N   0  0  0  0  0  0  0  0  0  0  0  0
   55.5760   23.6340   47.0640 C   0  0  1  0  0  0  0  0  0  0  0  0
   54.9050   22.7390   46.0040 C   0  0  0  0  0  0  0  0  0  0  0  0
   53.5480   23.2110   45.5680 C   0  0  0  0  0  0  0  0  0  0  0  0
   53.1870   24.5020   45.2570 C   0  0  0  0  0  0  0  0  0  0  0  0
   51.8930   24.5180   44.8900 N   0  0  0  0  0  0  0  0  0  0  0  0
   51.5070   23.2280   44.9920 C   0  0  0  0  0  0  0  0  0  0  0  0
   52.4950   22.3990   45.3970 N   0  0  0  0  0  0  0  0  0  0  0  0
   56.7470   22.9740   47.7620 C   0  0  0  0  0  0  0  0  0  0  0  0
   56.8250   23.0100   49.0190 O   0  0  0  0  0  0  0  0  0  0  0  0
   57.7470   22.2310   47.0470 N   0  0  0  0  0  0  0  0  0  0  0  0
   58.5330   22.7420   45.9300 C   0  0  0  0  0  0  0  0  0  0  0  0
   57.7630   22.5590   44.6560 C   0  0  0  0  0  0  0  0  0  0  0  0
   57.2340   23.6760   43.9860 C   0  0  0  0  0  0  0  0  0  0  0  0
   56.5010   23.5080   42.8070 C   0  0  0  0  0  0  0  0  0  0  0  0
   56.2790   22.2260   42.2980 C   0  0  0  0  0  0  0  0  0  0  0  0
   56.7840   21.1080   42.9720 C   0  0  0  0  0  0  0  0  0  0  0  0
   57.5200   21.2690   44.1500 C   0  0  0  0  0  0  0  0  0  0  0  0
   63.9640   32.6832   49.5400 H   0  0  0  0  0  0  0  0  0  0  0  0
   64.3741   31.6410   48.1356 H   0  0  0  0  0  0  0  0  0  0  0  0
   64.8452   33.3744   48.1356 H   0  0  0  0  0  0  0  0  0  0  0  0
   63.2432   34.8584   46.7465 H   0  0  0  0  0  0  0  0  0  0  0  0
   63.7595   33.3611   45.8990 H   0  0  0  0  0  0  0  0  0  0  0  0
   62.0287   33.8419   45.8990 H   0  0  0  0  0  0  0  0  0  0  0  0
   62.1703   33.5960   49.7975 H   0  0  0  0  0  0  0  0  0  0  0  0
   62.1228   34.9337   48.5996 H   0  0  0  0  0  0  0  0  0  0  0  0
   60.8346   33.6818   48.5996 H   0  0  0  0  0  0  0  0  0  0  0  0
   60.3180   30.1046   46.2211 H   0  0  0  0  0  0  0  0  0  0  0  0
   57.8638   30.2698   45.8242 H   0  0  0  0  0  0  0  0  0  0  0  0
   57.6671   30.6320   47.5983 H   0  0  0  0  0  0  0  0  0  0  0  0
   58.6377   31.9565   44.3085 H   0  0  0  0  0  0  0  0  0  0  0  0
   59.1435   34.3654   43.8959 H   0  0  0  0  0  0  0  0  0  0  0  0
   59.4312   35.9291   45.8234 H   0  0  0  0  0  0  0  0  0  0  0  0
   59.1453   35.0988   48.1613 H   0  0  0  0  0  0  0  0  0  0  0  0
   58.5859   32.7013   48.5761 H   0  0  0  0  0  0  0  0  0  0  0  0
   56.1218   27.6884   46.9360 H   0  0  0  0  0  0  0  0  0  0  0  0
   58.4187   27.3577   45.0297 H   0  0  0  0  0  0  0  0  0  0  0  0
   56.8282   26.5064   44.7073 H   0  0  0  0  0  0  0  0  0  0  0  0
   58.4714   29.3761   43.4514 H   0  0  0  0  0  0  0  0  0  0  0  0
   54.6412   30.9538   44.2502 H   0  0  0  0  0  0  0  0  0  0  0  0
   54.8000   23.8162   47.8220 H   0  0  0  0  0  0  0  0  0  0  0  0
   55.5581   22.7032   45.1196 H   0  0  0  0  0  0  0  0  0  0  0  0
   54.7616   21.7525   46.4690 H   0  0  0  0  0  0  0  0  0  0  0  0
   53.8495   25.3790   45.3013 H   0  0  0  0  0  0  0  0  0  0  0  0
   50.4864   22.8847   44.7671 H   0  0  0  0  0  0  0  0  0  0  0  0
   58.7386   23.8115   46.0845 H   0  0  0  0  0  0  0  0  0  0  0  0
   59.4840   22.1927   45.8674 H   0  0  0  0  0  0  0  0  0  0  0  0
   57.3973   24.6858   44.3906 H   0  0  0  0  0  0  0  0  0  0  0  0
   56.0989   24.3858   42.2800 H   0  0  0  0  0  0  0  0  0  0  0  0
   55.7072   22.0952   41.3674 H   0  0  0  0  0  0  0  0  0  0  0  0
   56.6012   20.0991   42.5736 H   0  0  0  0  0  0  0  0  0  0  0  0
   57.9088   20.3875   44.6808 H   0  0  0  0  0  0  0  0  0  0  0  0
  1  2  1  0
  2  3  1  0
  2  4  1  0
  2  5  1  0
  5  6  1  0
  6  7  2  0
  6  8  1  0
  8  9  1  0
  9 10  1  0
 10 11  1  0
 11 12  2  0
 12 13  1  0
 13 14  2  0
 14 15  1  0
 15 16  2  0
  9 17  1  0
 17 18  2  0
 17 19  1  0
 19 20  1  0
 20 21  1  0
 21 22  1  0
 22 23  2  0
 23 24  1  0
 24 25  1  0
 25 26  2  0
 20 27  1  0
 27 28  2  0
 27 29  1  0
 29 30  1  0
 30 31  1  0
 31 32  1  0
 32 33  2  0
 33 34  1  0
 34 35  1  0
 35 36  2  0
 30 37  1  0
 37 38  2  0
 37 39  1  0
 39 40  1  0
 40 41  1  0
 41 42  2  0
 42 43  1  0
 43 44  2  0
 44 45  1  0
 45 46  2  0
 16 11  1  0
 26 22  1  0
 36 32  1  0
 46 41  1  0
  1 47  1  0
  1 48  1  0
  1 49  1  0
  3 50  1  0
  3 51  1  0
  3 52  1  0
  4 53  1  0
  4 54  1  0
  4 55  1  0
  9 56  1  6
 10 57  1  0
 10 58  1  0
 12 59  1  0
 13 60  1  0
 14 61  1  0
 15 62  1  0
 16 63  1  0
 20 64  1  6
 21 65  1  0
 21 66  1  0
 23 67  1  0
 25 68  1  0
 30 69  1  1
 31 70  1  0
 31 71  1  0
 33 72  1  0
 35 73  1  0
 40 74  1  0
 40 75  1  0
 42 76  1  0
 43 77  1  0
 44 78  1  0
 45 79  1  0
 46 80  1  0
M  CHG  6   8  -1  19  -1  24  -1  29  -1  34  -1  39  -1
M  END
>  <UniqueID>  (63) 
60

>  <SMILES>  (63) 
CC(C)(C)OC(=O)[N-][C@H](Cc1ccccc1)C(=O)[N-][C@@H](Cc1c[n-]cn1)C(=O)[N-]C(Cc1c[n-]cn1)C(=O)[N-]Cc1ccccc1

>  <Energy>  (63) 
125.65293094022238

>  <Genealogy>  (63) 
CC(C)(C)OC(=O)[N-]C(Cc1ccccc1)C(=O)[N-]C(Cc1c[n-]cn1)C(=O)[N-]C(Cc1c[n-]cn1)C(=O)[N-]Cc1ccccc1 (protonated)
CC(C)(C)OC(=O)[N-][C@H](Cc1ccccc1)C(=O)[N-][C@@H](Cc1c[n-]cn1)C(=O)[N-]C(Cc1c[n-]cn1)C(=O)[N-]Cc1ccccc1 (chirality)
CC(C)(C)OC(=O)[N-][C@H](Cc1ccccc1)C(=O)[N-][C@@H](Cc1c[n-]cn1)C(=O)[N-]C(Cc1c[n-]cn1)C(=O)[N-]Cc1ccccc1 (3D coordinates assigned)
CC(C)(C)OC(=O)[N-][C@H](Cc1ccccc1)C(=O)[N-][C@@H](Cc1c[n-]cn1)C(=O)[N-]C(Cc1c[n-]cn1)C(=O)[N-]Cc1ccccc1 (optimized conformer: 125.65293094022238 kcal/mol)

>  <smiles>  (63) 
CC(C)(C)OC(=O)NC(Cc1ccccc1)C(=O)NC(Cc1c[nH]cn1)C(=O)NC(Cc1c[nH]cn1)C(=O)NCc1ccccc1

>  <score_type>  (63) 
oracle

>  <origin>  (63) 
adg

>  <m_score__min__energy>  (63) 
-18.27

>  <m_primary>  (63) 
energy

$$$$
63:0
     RDKit          3D

 34 36  0  0  1  0  0  0  0  0999 V2000
   57.0460   33.5660   45.7330 C   0  0  0  0  0  0  0  0  0  0  0  0
   57.7590   32.6830   46.6080 O   0  0  0  0  0  0  0  0  0  0  0  0
   59.1390   32.7590   46.7330 C   0  0  0  0  0  0  0  0  0  0  0  0
   59.7850   33.9290   46.3700 C   0  0  0  0  0  0  0  0  0  0  0  0
   61.1380   33.9980   46.4930 C   0  0  0  0  0  0  0  0  0  0  0  0
   61.8810   32.9330   46.9730 C   0  0  0  0  0  0  0  0  0  0  0  0
   63.6240   33.0800   47.1110 Cl  0  0  0  0  0  0  0  0  0  0  0  0
   61.2670   31.7540   47.3440 C   0  0  0  0  0  0  0  0  0  0  0  0
   59.8890   31.6740   47.2210 C   0  0  0  0  0  0  0  0  0  0  0  0
   59.1410   30.5100   47.5290 N   0  0  0  0  0  0  0  0  0  0  0  0
   58.5650   29.7530   46.7030 C   0  0  0  0  0  0  0  0  0  0  0  0
   57.4210   30.1840   46.1280 N   0  0  0  0  0  0  0  0  0  0  0  0
   56.7820   29.4070   45.2370 C   0  0  0  0  0  0  0  0  0  0  0  0
   55.6870   29.7980   44.6750 N   0  0  0  0  0  0  0  0  0  0  0  0
   57.2940   28.2010   44.9250 N   0  0  0  0  0  0  0  0  0  0  0  0
   58.4370   27.7520   45.4890 C   0  0  0  0  0  0  0  0  0  0  0  0
   59.1340   28.5300   46.4230 C   0  0  0  0  0  0  0  0  0  0  0  0
   60.3040   27.7470   46.8310 C   0  0  0  0  0  0  0  0  0  0  0  0
   59.9160   26.2920   46.4630 C   0  0  0  0  0  0  0  0  0  0  0  0
   59.1230   26.5260   45.2790 N   0  0  0  0  0  0  0  0  0  0  0  0
   56.4658   34.2846   46.3305 H   0  0  0  0  0  0  0  0  0  0  0  0
   57.7613   34.1098   45.0985 H   0  0  0  0  0  0  0  0  0  0  0  0
   56.3637   32.9814   45.0985 H   0  0  0  0  0  0  0  0  0  0  0  0
   59.2136   34.7881   45.9886 H   0  0  0  0  0  0  0  0  0  0  0  0
   61.6554   34.9245   46.2034 H   0  0  0  0  0  0  0  0  0  0  0  0
   61.8529   30.9047   47.7253 H   0  0  0  0  0  0  0  0  0  0  0  0
   57.0160   31.1320   46.3700 H   0  0  0  0  0  0  0  0  0  0  0  0
   55.1140   30.4900   45.2400 H   0  0  0  0  0  0  0  0  0  0  0  0
   56.7590   27.6290   44.2230 H   0  0  0  0  0  0  0  0  0  0  0  0
   61.2012   28.0654   46.2799 H   0  0  0  0  0  0  0  0  0  0  0  0
   60.5481   27.8675   47.8968 H   0  0  0  0  0  0  0  0  0  0  0  0
   60.8020   25.6778   46.2442 H   0  0  0  0  0  0  0  0  0  0  0  0
   59.3989   25.7384   47.2606 H   0  0  0  0  0  0  0  0  0  0  0  0
   59.0810   25.8940   44.4400 H   0  0  0  0  0  0  0  0  0  0  0  0
  1  2  1  0
  2  3  1  0
  3  4  2  0
  4  5  1  0
  5  6  2  0
  6  7  1  0
  6  8  1  0
  8  9  2  0
  9 10  1  0
 10 11  2  0
 11 12  1  0
 12 13  1  0
 13 14  2  3
 13 15  1  0
 15 16  1  0
 16 17  2  0
 17 18  1  0
 18 19  1  0
 19 20  1  0
  9  3  1  0
 17 11  1  0
 20 16  1  0
  1 21  1  0
  1 22  1  0
  1 23  1  0
  4 24  1  0
  5 25  1  0
  8 26  1  0
 12 27  1  0
 14 28  1  0
 15 29  1  0
 18 30  1  0
 18 31  1  0
 19 32  1  0
 19 33  1  0
 20 34  1  0
M  END
>  <smiles>  (64) 
COc1ccc(Cl)cc1N=c1[nH]c(=N)[nH]c2c1CCN2

>  <score_type>  (64) 
oracle

>  <origin>  (64) 
adg

>  <m_score__min__energy>  (64) 
-7.2599999999999998

>  <m_primary>  (64) 
energy

$$$$
64:0
     RDKit          3D

 37 38  0  0  0  0  0  0  0  0999 V2000
   60.1240   28.8400   47.8210 C   0  0  0  0  0  0  0  0  0  0  0  0
   59.8820   28.1850   46.4890 C   0  0  0  0  0  0  0  0  0  0  0  0
   60.4860   27.1520   46.2360 O   0  0  0  0  0  0  0  0  0  0  0  0
   58.9580   28.7580   45.5180 N   0  0  1  0  0  0  0  0  0  0  0  0
   59.2710   28.3020   44.1310 C   0  0  0  0  0  0  0  0  0  0  0  0
   58.2350   27.3560   43.5090 C   0  0  0  0  0  0  0  0  0  0  0  0
   57.8150   26.0200   44.6550 S   0  0  0  0  0  0  0  0  0  0  0  0
   57.0750   27.0860   45.9470 C   0  0  0  0  0  0  0  0  0  0  0  0
   57.5460   28.5690   45.9650 C   0  0  2  0  0  0  0  0  0  0  0  0
   56.5690   29.4810   45.2400 C   0  0  0  0  0  0  0  0  0  0  0  0
   55.5050   28.9940   44.7700 O   0  0  0  0  0  0  0  0  0  0  0  0
   56.8140   30.8880   45.1290 N   0  0  0  0  0  0  0  0  0  0  0  0
   57.9870   31.4580   44.4750 C   0  0  0  0  0  0  0  0  0  0  0  0
   58.4680   32.6660   45.2320 C   0  0  0  0  0  0  0  0  0  0  0  0
   58.8210   33.8340   44.5360 C   0  0  0  0  0  0  0  0  0  0  0  0
   59.2890   34.9530   45.2320 C   0  0  0  0  0  0  0  0  0  0  0  0
   59.4120   34.9120   46.6240 C   0  0  0  0  0  0  0  0  0  0  0  0
   59.0670   33.7520   47.3220 C   0  0  0  0  0  0  0  0  0  0  0  0
   58.5990   32.6310   46.6300 C   0  0  0  0  0  0  0  0  0  0  0  0
   59.8647   28.1381   48.6273 H   0  0  0  0  0  0  0  0  0  0  0  0
   61.1847   29.1192   47.9050 H   0  0  0  0  0  0  0  0  0  0  0  0
   59.4997   29.7418   47.9050 H   0  0  0  0  0  0  0  0  0  0  0  0
   59.1320   29.7910   45.5280 H   0  0  0  0  0  0  0  0  0  0  0  0
   59.3492   29.1918   43.4890 H   0  0  0  0  0  0  0  0  0  0  0  0
   60.2074   27.7290   44.2002 H   0  0  0  0  0  0  0  0  0  0  0  0
   57.3247   27.9253   43.2696 H   0  0  0  0  0  0  0  0  0  0  0  0
   58.6626   26.9160   42.5960 H   0  0  0  0  0  0  0  0  0  0  0  0
   55.9846   27.0817   45.8021 H   0  0  0  0  0  0  0  0  0  0  0  0
   57.4053   26.6599   46.9058 H   0  0  0  0  0  0  0  0  0  0  0  0
   57.5454   28.8731   47.0221 H   0  0  0  0  0  0  0  0  0  0  0  0
   58.7883   30.7050   44.4452 H   0  0  0  0  0  0  0  0  0  0  0  0
   57.7168   31.7594   43.4522 H   0  0  0  0  0  0  0  0  0  0  0  0
   58.7290   33.8685   43.4404 H   0  0  0  0  0  0  0  0  0  0  0  0
   59.5608   35.8669   44.6834 H   0  0  0  0  0  0  0  0  0  0  0  0
   59.7804   35.7931   47.1697 H   0  0  0  0  0  0  0  0  0  0  0  0
   59.1637   33.7206   48.4173 H   0  0  0  0  0  0  0  0  0  0  0  0
   58.3323   31.7180   47.1826 H   0  0  0  0  0  0  0  0  0  0  0  0
  1  2  1  0
  2  3  2  0
  2  4  1  0
  4  5  1  0
  5  6  1  0
  6  7  1  0
  7  8  1  0
  8  9  1  0
  9 10  1  0
 10 11  2  0
 10 12  1  0
 12 13  1  0
 13 14  1  0
 14 15  2  0
 15 16  1  0
 16 17  2  0
 17 18  1  0
 18 19  2  0
  9  4  1  0
 19 14  1  0
  1 20  1  0
  1 21  1  0
  1 22  1  0
  4 23  1  6
  5 24  1  0
  5 25  1  0
  6 26  1  0
  6 27  1  0
  8 28  1  0
  8 29  1  0
  9 30  1  1
 13 31  1  0
 13 32  1  0
 15 33  1  0
 16 34  1  0
 17 35  1  0
 18 36  1  0
 19 37  1  0
M  CHG  2   4   1  12  -1
M  END
>  <UniqueID>  (65) 
61

>  <SMILES>  (65) 
CC(=O)[N@H+]1CCSC[C@@H]1C(=O)[N-]Cc1ccccc1

>  <Energy>  (65) 
47.82284165998447

>  <Genealogy>  (65) 
CC(=O)[NH+]1CCSCC1C(=O)[N-]Cc1ccccc1 (protonated)
CC(=O)[N@H+]1CCSC[C@@H]1C(=O)[N-]Cc1ccccc1 (chirality)
CC(=O)[N@H+]1CCSC[C@@H]1C(=O)[N-]Cc1ccccc1 (3D coordinates assigned)
CC(=O)[N@H+]1CCSC[C@@H]1C(=O)[N-]Cc1ccccc1 (nonaromatic ring conformer: 47.82284165998447 kcal/mol)

>  <smiles>  (65) 
CC(=O)N1CCSCC1C(=O)NCc1ccccc1

>  <score_type>  (65) 
oracle

>  <origin>  (65) 
adg

>  <m_score__min__energy>  (65) 
-7.2800000000000002

>  <m_primary>  (65) 
energy

$$$$
65:0
     RDKit          3D

 42 43  0  0  0  0  0  0  0  0999 V2000
   55.1360   26.3480   45.9580 N   0  0  0  0  0  0  0  0  0  0  0  0
   56.8530   26.5370   45.9250 S   0  0  0  0  0  0  0  0  0  0  0  0
   57.4180   26.2410   47.2860 O   0  0  0  0  0  0  0  0  0  0  0  0
   57.4460   25.5730   44.9370 O   0  0  0  0  0  0  0  0  0  0  0  0
   57.2510   28.1880   45.4610 C   0  0  0  0  0  0  0  0  0  0  0  0
   58.5060   28.7260   45.7740 C   0  0  0  0  0  0  0  0  0  0  0  0
   58.8270   30.0330   45.3980 C   0  0  0  0  0  0  0  0  0  0  0  0
   57.9000   30.8210   44.6900 C   0  0  0  0  0  0  0  0  0  0  0  0
   58.2220   32.2100   44.2860 C   0  0  0  0  0  0  0  0  0  0  0  0
   58.2060   32.5160   43.0610 O   0  0  0  0  0  0  0  0  0  0  0  0
   58.5710   33.2080   45.2600 N   0  0  0  0  0  0  0  0  0  0  0  0
   58.8120   34.6020   44.8940 C   0  0  0  0  0  0  0  0  0  0  0  0
   59.4300   35.3400   46.0380 C   0  0  0  0  0  0  0  0  0  0  0  0
   59.9850   36.4550   45.8400 O   0  0  0  0  0  0  0  0  0  0  0  0
   59.3780   34.7780   47.3540 N   0  0  0  0  0  0  0  0  0  0  0  0
   60.5570   34.5500   48.1880 C   0  0  0  0  0  0  0  0  0  0  0  0
   61.5820   33.7200   47.4000 C   0  0  0  0  0  0  0  0  0  0  0  0
   61.0540   32.3140   47.0480 C   0  0  0  0  0  0  0  0  0  0  0  0
   60.0630   31.7500   48.0860 C   0  0  0  0  0  0  0  0  0  0  0  0
   60.3240   32.3160   49.4840 C   0  0  0  0  0  0  0  0  0  0  0  0
   60.1640   33.8510   49.5160 C   0  0  0  0  0  0  0  0  0  0  0  0
   56.6400   30.2740   44.3840 C   0  0  0  0  0  0  0  0  0  0  0  0
   56.3210   28.9670   44.7620 C   0  0  0  0  0  0  0  0  0  0  0  0
   54.7600   27.0800   46.6010 H   0  0  0  0  0  0  0  0  0  0  0  0
   59.2424   28.1166   46.3184 H   0  0  0  0  0  0  0  0  0  0  0  0
   59.8116   30.4493   45.6573 H   0  0  0  0  0  0  0  0  0  0  0  0
   58.7200   32.9350   46.2570 H   0  0  0  0  0  0  0  0  0  0  0  0
   59.4915   34.6379   44.0297 H   0  0  0  0  0  0  0  0  0  0  0  0
   57.8525   35.0758   44.6393 H   0  0  0  0  0  0  0  0  0  0  0  0
   61.0115   35.5165   48.4511 H   0  0  0  0  0  0  0  0  0  0  0  0
   61.8238   34.2503   46.4671 H   0  0  0  0  0  0  0  0  0  0  0  0
   62.4716   33.5951   48.0348 H   0  0  0  0  0  0  0  0  0  0  0  0
   60.5451   32.3672   46.0742 H   0  0  0  0  0  0  0  0  0  0  0  0
   61.9218   31.6383   47.0297 H   0  0  0  0  0  0  0  0  0  0  0  0
   59.0393   32.0123   47.7807 H   0  0  0  0  0  0  0  0  0  0  0  0
   60.1946   30.6587   48.1279 H   0  0  0  0  0  0  0  0  0  0  0  0
   59.6088   31.8680   50.1895 H   0  0  0  0  0  0  0  0  0  0  0  0
   61.3592   32.0726   49.7654 H   0  0  0  0  0  0  0  0  0  0  0  0
   59.1114   34.0854   49.7328 H   0  0  0  0  0  0  0  0  0  0  0  0
   60.8479   34.2280   50.2907 H   0  0  0  0  0  0  0  0  0  0  0  0
   55.8995   30.8808   43.8423 H   0  0  0  0  0  0  0  0  0  0  0  0
   55.3355   28.5486   44.5094 H   0  0  0  0  0  0  0  0  0  0  0  0
  1  2  1  0
  2  3  2  0
  2  4  2  0
  2  5  1  0
  5  6  2  0
  6  7  1  0
  7  8  2  0
  8  9  1  0
  9 10  2  0
  9 11  1  0
 11 12  1  0
 12 13  1  0
 13 14  2  0
 13 15  1  0
 15 16  1  0
 16 17  1  0
 17 18  1  0
 18 19  1  0
 19 20  1  0
 20 21  1  0
  8 22  1  0
 22 23  2  0
 23  5  1  0
 21 16  1  0
  1 24  1  0
  6 25  1  0
  7 26  1  0
 11 27  1  0
 12 28  1  0
 12 29  1  0
 16 30  1  0
 17 31  1  0
 17 32  1  0
 18 33  1  0
 18 34  1  0
 19 35  1  0
 19 36  1  0
 20 37  1  0
 20 38  1  0
 21 39  1  0
 21 40  1  0
 22 41  1  0
 23 42  1  0
M  CHG  2   1  -1  15  -1
M  END
>  <UniqueID>  (66) 
62

>  <SMILES>  (66) 
[NH-]S(=O)(=O)c1ccc(C(=O)NCC(=O)[N-]C2CCCCC2)cc1

>  <Energy>  (66) 
40.50287941609178

>  <Genealogy>  (66) 
[NH-]S(=O)(=O)c1ccc(C(=O)NCC(=O)[N-]C2CCCCC2)cc1 (protonated)
[NH-]S(=O)(=O)c1ccc(C(=O)NCC(=O)[N-]C2CCCCC2)cc1 (3D coordinates assigned)
[NH-]S(=O)(=O)c1ccc(C(=O)NCC(=O)[N-]C2CCCCC2)cc1 (nonaromatic ring conformer: 40.50287941609178 kcal/mol)

>  <smiles>  (66) 
NS(=O)(=O)c1ccc(C(=O)NCC(=O)NC2CCCCC2)cc1

>  <score_type>  (66) 
oracle

>  <origin>  (66) 
adg

>  <m_score__min__energy>  (66) 
-11.52

>  <m_primary>  (66) 
energy

$$$$
66:0
     RDKit          3D

 60 63  0  0  0  0  0  0  0  0999 V2000
   58.8000   36.3160   47.5350 H   0  0  0  0  0  0  0  0  0  0  0  0
   59.4370   35.6910   47.0700 O   0  0  0  0  0  0  0  0  0  0  0  0
   58.9870   34.5540   46.3990 C   0  0  0  0  0  0  0  0  0  0  0  0
   58.7920   34.5970   45.0120 C   0  0  0  0  0  0  0  0  0  0  0  0
   59.0021   35.5236   44.4576 H   0  0  0  0  0  0  0  0  0  0  0  0
   58.3320   33.4680   44.3310 C   0  0  0  0  0  0  0  0  0  0  0  0
   58.1791   33.5085   43.2424 H   0  0  0  0  0  0  0  0  0  0  0  0
   58.0640   32.2810   45.0320 C   0  0  0  0  0  0  0  0  0  0  0  0
   57.5370   30.8380   44.1770 S   0  0  0  0  0  0  0  0  0  0  0  0
   57.2270   31.1410   42.7380 O   0  0  0  0  0  0  0  0  0  0  0  0
   56.3030   30.3250   44.8510 O   0  0  0  0  0  0  0  0  0  0  0  0
   58.7610   29.6190   44.2480 N   0  0  0  0  0  0  0  0  0  0  0  0
   58.5460   28.2450   44.5900 C   0  0  0  0  0  0  0  0  0  0  0  0
   58.0340   27.3320   43.6530 C   0  0  0  0  0  0  0  0  0  0  0  0
   57.7782   27.6753   42.6397 H   0  0  0  0  0  0  0  0  0  0  0  0
   57.8460   25.9820   44.0010 C   0  0  0  0  0  0  0  0  0  0  0  0
   57.4666   25.2716   43.2517 H   0  0  0  0  0  0  0  0  0  0  0  0
   58.1390   25.5380   45.2950 C   0  0  0  0  0  0  0  0  0  0  0  0
   58.0020   24.4797   45.5619 H   0  0  0  0  0  0  0  0  0  0  0  0
   58.6070   26.4490   46.2460 C   0  0  0  0  0  0  0  0  0  0  0  0
   58.8184   26.1069   47.2699 H   0  0  0  0  0  0  0  0  0  0  0  0
   58.8110   27.8030   45.9060 C   0  0  0  0  0  0  0  0  0  0  0  0
   59.2540   28.7240   46.9170 N   0  0  0  0  0  0  0  0  0  0  0  0
   60.2760   29.7330   46.6070 C   0  0  0  0  0  0  0  0  0  0  0  0
   60.9116   29.3647   45.7883 H   0  0  0  0  0  0  0  0  0  0  0  0
   59.7756   30.6660   46.3085 H   0  0  0  0  0  0  0  0  0  0  0  0
   61.1480   30.0100   47.8370 C   0  0  0  0  0  0  0  0  0  0  0  0
   61.8547   29.1767   47.9645 H   0  0  0  0  0  0  0  0  0  0  0  0
   61.6745   30.9611   47.6690 H   0  0  0  0  0  0  0  0  0  0  0  0
   60.3480   30.1480   49.0720 N   0  0  0  0  0  0  0  0  0  0  0  0
   60.9970   30.3130   50.3560 C   0  0  0  0  0  0  0  0  0  0  0  0
   60.3110   30.3240   51.4200 O   0  0  0  0  0  0  0  0  0  0  0  0
   62.4610   30.4090   50.4880 C   0  0  0  0  0  0  0  0  0  0  0  0
   63.0301   29.5043   50.7482 H   0  0  0  0  0  0  0  0  0  0  0  0
   63.1200   31.5500   50.3040 C   0  0  0  0  0  0  0  0  0  0  0  0
   63.7724   31.9157   51.1106 H   0  0  0  0  0  0  0  0  0  0  0  0
   63.0150   32.3480   49.0650 C   0  0  0  0  0  0  0  0  0  0  0  0
   63.7770   32.0460   47.9230 C   0  0  0  0  0  0  0  0  0  0  0  0
   64.4876   31.2065   47.9435 H   0  0  0  0  0  0  0  0  0  0  0  0
   63.6340   32.8080   46.7650 C   0  0  0  0  0  0  0  0  0  0  0  0
   64.2368   32.5705   45.8760 H   0  0  0  0  0  0  0  0  0  0  0  0
   62.7300   33.8710   46.7270 C   0  0  0  0  0  0  0  0  0  0  0  0
   62.6108   34.4614   45.8065 H   0  0  0  0  0  0  0  0  0  0  0  0
   61.9810   34.1810   47.8560 C   0  0  0  0  0  0  0  0  0  0  0  0
   61.2627   35.0136   47.8270 H   0  0  0  0  0  0  0  0  0  0  0  0
   62.1390   33.4370   49.0270 C   0  0  0  0  0  0  0  0  0  0  0  0
   61.5693   33.7101   49.9275 H   0  0  0  0  0  0  0  0  0  0  0  0
   58.8880   30.0200   48.9940 C   0  0  0  0  0  0  0  0  0  0  0  0
   58.4762   29.9285   50.0099 H   0  0  0  0  0  0  0  0  0  0  0  0
   58.4745   30.9122   48.5010 H   0  0  0  0  0  0  0  0  0  0  0  0
   58.5110   28.7800   48.1820 C   0  0  0  0  0  0  0  0  0  0  0  0
   58.7414   27.8812   48.7729 H   0  0  0  0  0  0  0  0  0  0  0  0
   57.4366   28.8296   47.9515 H   0  0  0  0  0  0  0  0  0  0  0  0
   58.2630   32.2310   46.4160 C   0  0  0  0  0  0  0  0  0  0  0  0
   58.0569   31.3003   46.9650 H   0  0  0  0  0  0  0  0  0  0  0  0
   58.7250   33.3640   47.1090 C   0  0  0  0  0  0  0  0  0  0  0  0
   58.9270   33.3140   48.5940 C   0  0  0  0  0  0  0  0  0  0  0  0
   57.9794   33.5485   49.1010 H   0  0  0  0  0  0  0  0  0  0  0  0
   59.2591   32.3066   48.8852 H   0  0  0  0  0  0  0  0  0  0  0  0
   59.6907   34.0502   48.8852 H   0  0  0  0  0  0  0  0  0  0  0  0
  1  2  1  0
  2  3  1  0
  3  4  2  0
  4  5  1  0
  4  6  1  0
  6  7  1  0
  6  8  2  0
  8  9  1  0
  9 10  2  0
  9 11  2  0
  9 12  1  0
 12 13  1  0
 13 14  2  0
 14 15  1  0
 14 16  1  0
 16 17  1  0
 16 18  2  0
 18 19  1  0
 18 20  1  0
 20 21  1  0
 20 22  2  0
 22 23  1  0
 23 24  1  0
 24 25  1  0
 24 26  1  0
 24 27  1  0
 27 28  1  0
 27 29  1  0
 27 30  1  0
 30 31  1  0
 31 32  2  0
 31 33  1  0
 33 34  1  0
 33 35  2  0
 35 36  1  0
 35 37  1  0
 37 38  2  0
 38 39  1  0
 38 40  1  0
 40 41  1  0
 40 42  2  0
 42 43  1  0
 42 44  1  0
 44 45  1  0
 44 46  2  0
 46 47  1  0
 30 48  1  0
 48 49  1  0
 48 50  1  0
 48 51  1  0
 51 52  1  0
 51 53  1  0
  8 54  1  0
 54 55  1  0
 54 56  2  0
 56 57  1  0
 57 58  1  0
 57 59  1  0
 57 60  1  0
 56  3  1  0
 22 13  1  0
 51 23  1  0
 46 37  1  0
M  CHG  1  12  -1
M  END
>  <UniqueID>  (67) 
63

>  <SMILES>  (67) 
Cc1cc(S(=O)(=O)[N-]c2ccccc2N2CCN(C(=O)/C=C/c3ccccc3)CC2)ccc1O

>  <Energy>  (67) 
81.64479080191228

>  <Genealogy>  (67) 
Cc1cc(S(=O)(=O)[N-]c2ccccc2N2CCN(C(=O)C=Cc3ccccc3)CC2)ccc1O (protonated)
Cc1cc(S(=O)(=O)[N-]c2ccccc2N2CCN(C(=O)/C=C/c3ccccc3)CC2)ccc1O (cis-trans isomerization)
Cc1cc(S(=O)(=O)[N-]c2ccccc2N2CCN(C(=O)/C=C/c3ccccc3)CC2)ccc1O (3D coordinates assigned)
Cc1cc(S(=O)(=O)[N-]c2ccccc2N2CCN(C(=O)/C=C/c3ccccc3)CC2)ccc1O (nonaromatic ring conformer: 81.64479080191228 kcal/mol)

>  <smiles>  (67) 
Cc1cc(S(=O)(=O)Nc2ccccc2N2CCN(C(=O)C=Cc3ccccc3)CC2)ccc1O

>  <score_type>  (67) 
oracle

>  <origin>  (67) 
adg

>  <m_score__min__energy>  (67) 
-10.25

>  <m_primary>  (67) 
energy

$$$$
67:0
     RDKit          3D

 38 39  0  0  0  0  0  0  0  0999 V2000
   58.4280   31.8020   50.4110 C   0  0  0  0  0  0  0  0  0  0  0  0
   59.6000   31.0130   49.8380 C   0  0  0  0  0  0  0  0  0  0  0  0
   59.9490   31.4950   48.5400 O   0  0  0  0  0  0  0  0  0  0  0  0
   61.2040   32.0050   48.1620 C   0  0  0  0  0  0  0  0  0  0  0  0
   62.1730   31.2140   47.5110 C   0  0  0  0  0  0  0  0  0  0  0  0
   63.4030   31.7620   47.1430 C   0  0  0  0  0  0  0  0  0  0  0  0
   63.6830   33.1020   47.4140 C   0  0  0  0  0  0  0  0  0  0  0  0
   62.7330   33.8980   48.0550 C   0  0  0  0  0  0  0  0  0  0  0  0
   61.4930   33.3590   48.4350 C   0  0  0  0  0  0  0  0  0  0  0  0
   60.4700   34.2370   49.1110 C   0  0  0  0  0  0  0  0  0  0  0  0
   59.2680   34.3370   48.2930 N   0  0  0  0  0  0  0  0  0  0  0  0
   59.2840   34.5860   46.8820 C   0  0  0  0  0  0  0  0  0  0  0  0
   59.6760   35.7040   46.4490 O   0  0  0  0  0  0  0  0  0  0  0  0
   58.8430   33.5380   45.9330 C   0  0  0  0  0  0  0  0  0  0  0  0
   58.5510   33.8660   44.6000 C   0  0  0  0  0  0  0  0  0  0  0  0
   58.1430   32.8670   43.7170 C   0  0  0  0  0  0  0  0  0  0  0  0
   58.0190   31.5530   44.1640 C   0  0  0  0  0  0  0  0  0  0  0  0
   58.2970   31.2520   45.5030 C   0  0  0  0  0  0  0  0  0  0  0  0
   58.2040   29.8350   45.9880 C   0  0  0  0  0  0  0  0  0  0  0  0
   58.7140   32.2410   46.3490 N   0  0  0  0  0  0  0  0  0  0  0  0
   58.4695   31.7741   51.5099 H   0  0  0  0  0  0  0  0  0  0  0  0
   58.4860   32.8456   50.0683 H   0  0  0  0  0  0  0  0  0  0  0  0
   57.4829   31.3555   50.0683 H   0  0  0  0  0  0  0  0  0  0  0  0
   60.4669   31.1180   50.5069 H   0  0  0  0  0  0  0  0  0  0  0  0
   59.3067   29.9561   49.7547 H   0  0  0  0  0  0  0  0  0  0  0  0
   61.9581   30.1577   47.2916 H   0  0  0  0  0  0  0  0  0  0  0  0
   64.1535   31.1360   46.6381 H   0  0  0  0  0  0  0  0  0  0  0  0
   64.6530   33.5309   47.1222 H   0  0  0  0  0  0  0  0  0  0  0  0
   62.9567   34.9545   48.2641 H   0  0  0  0  0  0  0  0  0  0  0  0
   60.2089   33.8037   50.0878 H   0  0  0  0  0  0  0  0  0  0  0  0
   60.8952   35.2425   49.2457 H   0  0  0  0  0  0  0  0  0  0  0  0
   58.6435   34.9059   44.2536 H   0  0  0  0  0  0  0  0  0  0  0  0
   57.9193   33.1158   42.6691 H   0  0  0  0  0  0  0  0  0  0  0  0
   57.7053   30.7587   43.4707 H   0  0  0  0  0  0  0  0  0  0  0  0
   58.2032   29.8232   47.0879 H   0  0  0  0  0  0  0  0  0  0  0  0
   57.2741   29.3803   45.6158 H   0  0  0  0  0  0  0  0  0  0  0  0
   59.0665   29.2627   45.6158 H   0  0  0  0  0  0  0  0  0  0  0  0
   58.9390   31.9900   47.3380 H   0  0  0  0  0  0  0  0  0  0  0  0
  1  2  1  0
  2  3  1  0
  3  4  1  0
  4  5  2  0
  5  6  1  0
  6  7  2  0
  7  8  1  0
  8  9  2  0
  9 10  1  0
 10 11  1  0
 11 12  1  0
 12 13  2  0
 12 14  1  0
 14 15  2  0
 15 16  1  0
 16 17  2  0
 17 18  1  0
 18 19  1  0
 18 20  2  0
  9  4  1  0
 20 14  1  0
  1 21  1  0
  1 22  1  0
  1 23  1  0
  2 24  1  0
  2 25  1  0
  5 26  1  0
  6 27  1  0
  7 28  1  0
  8 29  1  0
 10 30  1  0
 10 31  1  0
 15 32  1  0
 16 33  1  0
 17 34  1  0
 19 35  1  0
 19 36  1  0
 19 37  1  0
 20 38  1  0
M  CHG  2  11  -1  20   1
M  END
>  <UniqueID>  (68) 
64

>  <SMILES>  (68) 
CCOc1ccccc1C[N-]C(=O)c1cccc(C)[nH+]1

>  <Energy>  (68) 
33.95766181592624

>  <Genealogy>  (68) 
CCOc1ccccc1C[N-]C(=O)c1cccc(C)[nH+]1 (protonated)
CCOc1ccccc1C[N-]C(=O)c1cccc(C)[nH+]1 (3D coordinates assigned)
CCOc1ccccc1C[N-]C(=O)c1cccc(C)[nH+]1 (optimized conformer: 33.95766181592624 kcal/mol)

>  <smiles>  (68) 
CCOc1ccccc1CNC(=O)c1cccc(C)n1

>  <score_type>  (68) 
oracle

>  <origin>  (68) 
adg

>  <m_score__min__energy>  (68) 
-6.8700000000000001

>  <m_primary>  (68) 
energy

$$$$
68:0
     RDKit          3D

 53 56  0  0  0  0  0  0  0  0999 V2000
   59.6650   32.3340   49.9440 C   0  0  0  0  0  0  0  0  0  0  0  0
   58.5240   31.6040   49.2470 C   0  0  0  0  0  0  0  0  0  0  0  0
   59.0340   30.4220   48.5480 N   0  0  0  0  0  0  0  0  0  0  0  0
   58.9770   30.1520   47.2130 C   0  0  0  0  0  0  0  0  0  0  0  0
   58.4610   31.1030   46.2100 C   0  0  0  0  0  0  0  0  0  0  0  0
   57.3580   30.8440   45.6570 O   0  0  0  0  0  0  0  0  0  0  0  0
   59.1700   32.3200   45.8850 N   0  0  0  0  0  0  0  0  0  0  0  0
   60.3130   32.7540   46.7100 C   0  0  0  0  0  0  0  0  0  0  0  0
   60.7280   34.1970   46.3930 C   0  0  0  0  0  0  0  0  0  0  0  0
   59.4940   35.1050   46.3250 C   0  0  0  0  0  0  0  0  0  0  0  0
   58.4320   34.6060   45.3180 C   0  0  0  0  0  0  0  0  0  0  0  0
   58.7130   33.1920   44.7890 C   0  0  0  0  0  0  0  0  0  0  0  0
   59.5210   28.8860   46.9620 C   0  0  0  0  0  0  0  0  0  0  0  0
   59.6800   28.2040   45.7090 N   0  0  0  0  0  0  0  0  0  0  0  0
   58.6300   27.6940   44.8770 C   0  0  0  0  0  0  0  0  0  0  0  0
   58.6390   27.9930   43.6530 O   0  0  0  0  0  0  0  0  0  0  0  0
   57.5940   26.7670   45.3990 C   0  0  0  0  0  0  0  0  0  0  0  0
   57.9140   25.4250   45.6750 C   0  0  0  0  0  0  0  0  0  0  0  0
   56.9410   24.5580   46.1670 C   0  0  0  0  0  0  0  0  0  0  0  0
   55.6430   25.0270   46.3670 C   0  0  0  0  0  0  0  0  0  0  0  0
   55.3360   26.3190   46.0870 N   0  0  0  0  0  0  0  0  0  0  0  0
   56.2640   27.1930   45.6100 C   0  0  0  0  0  0  0  0  0  0  0  0
   55.9200   28.3790   45.3730 O   0  0  0  0  0  0  0  0  0  0  0  0
   59.9320   28.3970   48.1820 C   0  0  0  0  0  0  0  0  0  0  0  0
   60.5180   27.1910   48.5520 C   0  0  0  0  0  0  0  0  0  0  0  0
   60.7800   26.9910   49.9200 C   0  0  0  0  0  0  0  0  0  0  0  0
   60.4530   28.0050   50.8580 C   0  0  0  0  0  0  0  0  0  0  0  0
   60.7040   27.7860   52.3170 C   0  0  0  0  0  0  0  0  0  0  0  0
   59.8600   29.1660   50.4380 N   0  0  0  0  0  0  0  0  0  0  0  0
   59.6140   29.3460   49.1140 C   0  0  0  0  0  0  0  0  0  0  0  0
   59.5399   32.2540   51.0339 H   0  0  0  0  0  0  0  0  0  0  0  0
   60.6235   31.8810   49.6507 H   0  0  0  0  0  0  0  0  0  0  0  0
   59.6555   33.3941   49.6507 H   0  0  0  0  0  0  0  0  0  0  0  0
   57.7811   31.2914   49.9956 H   0  0  0  0  0  0  0  0  0  0  0  0
   58.0574   32.2807   48.5160 H   0  0  0  0  0  0  0  0  0  0  0  0
   60.0312   32.6893   47.7713 H   0  0  0  0  0  0  0  0  0  0  0  0
   61.1656   32.0957   46.4870 H   0  0  0  0  0  0  0  0  0  0  0  0
   61.4033   34.5615   47.1811 H   0  0  0  0  0  0  0  0  0  0  0  0
   61.2391   34.2157   45.4191 H   0  0  0  0  0  0  0  0  0  0  0  0
   59.0361   35.1497   47.3242 H   0  0  0  0  0  0  0  0  0  0  0  0
   59.8319   36.0947   45.9838 H   0  0  0  0  0  0  0  0  0  0  0  0
   57.4517   34.6036   45.8170 H   0  0  0  0  0  0  0  0  0  0  0  0
   58.4562   35.2874   44.4548 H   0  0  0  0  0  0  0  0  0  0  0  0
   57.7916   32.7769   44.3545 H   0  0  0  0  0  0  0  0  0  0  0  0
   59.4992   33.2457   44.0215 H   0  0  0  0  0  0  0  0  0  0  0  0
   58.9367   25.0589   45.5016 H   0  0  0  0  0  0  0  0  0  0  0  0
   57.1944   23.5123   46.3958 H   0  0  0  0  0  0  0  0  0  0  0  0
   54.8671   24.3490   46.7521 H   0  0  0  0  0  0  0  0  0  0  0  0
   60.7669   26.4235   47.8043 H   0  0  0  0  0  0  0  0  0  0  0  0
   61.2373   26.0508   50.2618 H   0  0  0  0  0  0  0  0  0  0  0  0
   60.0036   28.3971   52.9053 H   0  0  0  0  0  0  0  0  0  0  0  0
   60.5559   26.7232   52.5591 H   0  0  0  0  0  0  0  0  0  0  0  0
   61.7369   28.0767   52.5591 H   0  0  0  0  0  0  0  0  0  0  0  0
  1  2  1  0
  2  3  1  0
  3  4  1  0
  4  5  1  0
  5  6  2  0
  5  7  1  0
  7  8  1  0
  8  9  1  0
  9 10  1  0
 10 11  1  0
 11 12  1  0
  4 13  2  0
 13 14  1  0
 14 15  1  0
 15 16  2  0
 15 17  1  0
 17 18  2  0
 18 19  1  0
 19 20  2  0
 20 21  1  0
 21 22  1  0
 22 23  2  0
 13 24  1  0
 24 25  2  0
 25 26  1  0
 26 27  2  0
 27 28  1  0
 27 29  1  0
 29 30  2  0
 30  3  1  0
 12  7  1  0
 22 17  1  0
 30 24  1  0
  1 31  1  0
  1 32  1  0
  1 33  1  0
  2 34  1  0
  2 35  1  0
  8 36  1  0
  8 37  1  0
  9 38  1  0
  9 39  1  0
 10 40  1  0
 10 41  1  0
 11 42  1  0
 11 43  1  0
 12 44  1  0
 12 45  1  0
 18 46  1  0
 19 47  1  0
 20 48  1  0
 25 49  1  0
 26 50  1  0
 28 51  1  0
 28 52  1  0
 28 53  1  0
M  CHG  2  14  -1  21  -1
M  END
>  <UniqueID>  (69) 
65

>  <SMILES>  (69) 
CCn1c(C(=O)N2CCCCC2)c([N-]C(=O)c2ccc[n-]c2=O)c2ccc(C)nc21

>  <Energy>  (69) 
102.58015380059187

>  <Genealogy>  (69) 
CCn1c(C(=O)N2CCCCC2)c([N-]C(=O)c2ccc[n-]c2=O)c2ccc(C)nc21 (protonated)
CCn1c(C(=O)N2CCCCC2)c([N-]C(=O)c2ccc[n-]c2=O)c2ccc(C)nc21 (3D coordinates assigned)
CCn1c(C(=O)N2CCCCC2)c([N-]C(=O)c2ccc[n-]c2=O)c2ccc(C)nc21 (nonaromatic ring conformer: 102.58015380059187 kcal/mol)

>  <smiles>  (69) 
CCn1c(C(=O)N2CCCCC2)c(NC(=O)c2ccc[nH]c2=O)c2ccc(C)nc21

>  <score_type>  (69) 
oracle

>  <origin>  (69) 
adg

>  <m_score__min__energy>  (69) 
-11.289999999999999

>  <m_primary>  (69) 
energy

$$$$
69:0
     RDKit          3D

 32 32  0  0  0  0  0  0  0  0999 V2000
   55.5140   29.7190   43.8130 C   0  0  0  0  0  0  0  0  0  0  0  0
   56.8230   30.5050   43.8750 C   0  0  2  0  0  0  0  0  0  0  0  0
   58.0400   29.5580   44.0860 C   0  0  0  0  0  0  0  0  0  0  0  0
   58.6340   29.7060   45.4300 N   0  0  0  0  0  0  0  0  0  0  0  0
   57.7920   29.1010   46.4880 C   0  0  0  0  0  0  0  0  0  0  0  0
   57.9480   27.5720   46.5060 C   0  0  0  0  0  0  0  0  0  0  0  0
   56.9920   26.8540   45.5400 C   0  0  0  0  0  0  0  0  0  0  0  0
   55.9260   26.0970   46.2690 C   0  0  0  0  0  0  0  0  0  0  0  0
   56.2370   25.2660   47.1630 O   0  0  0  0  0  0  0  0  0  0  0  0
   54.5870   26.3330   45.9870 O   0  0  0  0  0  0  0  0  0  0  0  0
   58.9800   31.1180   45.7140 C   0  0  0  0  0  0  0  0  0  0  0  0
   57.9620   32.1130   45.1000 C   0  0  2  0  0  0  0  0  0  0  0  0
   57.7610   33.3260   46.0080 C   0  0  0  0  0  0  0  0  0  0  0  0
   56.7150   31.4780   44.9010 O   0  0  0  0  0  0  0  0  0  0  0  0
   55.1638   29.5087   44.8344 H   0  0  0  0  0  0  0  0  0  0  0  0
   54.7556   30.3112   43.2800 H   0  0  0  0  0  0  0  0  0  0  0  0
   55.6803   28.7712   43.2800 H   0  0  0  0  0  0  0  0  0  0  0  0
   56.9995   31.0161   42.9171 H   0  0  0  0  0  0  0  0  0  0  0  0
   57.7059   28.5177   43.9587 H   0  0  0  0  0  0  0  0  0  0  0  0
   58.8084   29.8245   43.3454 H   0  0  0  0  0  0  0  0  0  0  0  0
   58.0954   29.5055   47.4649 H   0  0  0  0  0  0  0  0  0  0  0  0
   56.7393   29.3444   46.2814 H   0  0  0  0  0  0  0  0  0  0  0  0
   58.9817   27.3228   46.2244 H   0  0  0  0  0  0  0  0  0  0  0  0
   57.7027   27.2305   47.5225 H   0  0  0  0  0  0  0  0  0  0  0  0
   56.5153   27.6023   44.8898 H   0  0  0  0  0  0  0  0  0  0  0  0
   57.5795   26.1339   44.9516 H   0  0  0  0  0  0  0  0  0  0  0  0
   59.0021   31.2635   46.8041 H   0  0  0  0  0  0  0  0  0  0  0  0
   59.9611   31.3200   45.2594 H   0  0  0  0  0  0  0  0  0  0  0  0
   58.3677   32.4510   44.1350 H   0  0  0  0  0  0  0  0  0  0  0  0
   57.8135   33.0092   47.0601 H   0  0  0  0  0  0  0  0  0  0  0  0
   58.5485   34.0677   45.8087 H   0  0  0  0  0  0  0  0  0  0  0  0
   56.7764   33.7741   45.8087 H   0  0  0  0  0  0  0  0  0  0  0  0
  1  2  1  0
  2  3  1  0
  3  4  1  0
  4  5  1  0
  5  6  1  0
  6  7  1  0
  7  8  1  0
  8  9  2  0
  8 10  1  0
  4 11  1  0
 11 12  1  0
 12 13  1  0
 12 14  1  0
 14  2  1  0
  1 15  1  0
  1 16  1  0
  1 17  1  0
  2 18  1  6
  3 19  1  0
  3 20  1  0
  5 21  1  0
  5 22  1  0
  6 23  1  0
  6 24  1  0
  7 25  1  0
  7 26  1  0
 11 27  1  0
 11 28  1  0
 12 29  1  6
 13 30  1  0
 13 31  1  0
 13 32  1  0
M  CHG  1  10  -1
M  END
>  <UniqueID>  (70) 
66

>  <SMILES>  (70) 
C[C@@H]1CN(CCCC(=O)[O-])C[C@H](C)O1

>  <Energy>  (70) 
33.05889250844504

>  <Genealogy>  (70) 
CC1CN(CCCC(=O)[O-])CC(C)O1 (protonated)
C[C@@H]1CN(CCCC(=O)[O-])C[C@H](C)O1 (chirality)
C[C@@H]1CN(CCCC(=O)[O-])C[C@H](C)O1 (3D coordinates assigned)
C[C@@H]1CN(CCCC(=O)[O-])C[C@H](C)O1 (nonaromatic ring conformer: 33.05889250844504 kcal/mol)

>  <smiles>  (70) 
CC1CN(CCCC(=O)O)CC(C)O1

>  <score_type>  (70) 
oracle

>  <origin>  (70) 
adg

>  <m_score__min__energy>  (70) 
-9.1199999999999992

>  <m_primary>  (70) 
energy

$$$$
70:0
     RDKit          3D

 47 50  0  0  0  0  0  0  0  0999 V2000
   56.5320   23.7790   47.8800 C   0  0  0  0  0  0  0  0  0  0  0  0
   56.5910   23.8240   46.3470 C   0  0  2  0  0  0  0  0  0  0  0  0
   57.3670   25.0030   45.7830 C   0  0  0  0  0  0  0  0  0  0  0  0
   57.3900   25.1880   44.3910 C   0  0  0  0  0  0  0  0  0  0  0  0
   58.0550   26.2790   43.8290 C   0  0  0  0  0  0  0  0  0  0  0  0
   58.6880   27.2150   44.6470 C   0  0  0  0  0  0  0  0  0  0  0  0
   59.3570   28.2460   44.0710 F   0  0  0  0  0  0  0  0  0  0  0  0
   58.6500   27.0710   46.0460 C   0  0  0  0  0  0  0  0  0  0  0  0
   59.3020   28.0620   46.9320 C   0  0  0  0  0  0  0  0  0  0  0  0
   60.2450   27.6880   47.6820 O   0  0  0  0  0  0  0  0  0  0  0  0
   58.8900   29.4410   46.9490 N   0  0  0  0  0  0  0  0  0  0  0  0
   59.4680   30.3350   47.9720 C   0  0  0  0  0  0  0  0  0  0  0  0
   58.8430   31.7420   47.9600 C   0  0  0  0  0  0  0  0  0  0  0  0
   58.6160   32.2190   46.5520 C   0  0  0  0  0  0  0  0  0  0  0  0
   58.8460   33.5540   46.1880 C   0  0  0  0  0  0  0  0  0  0  0  0
   58.5780   33.9780   44.8830 C   0  0  0  0  0  0  0  0  0  0  0  0
   58.0670   33.0770   43.9420 C   0  0  0  0  0  0  0  0  0  0  0  0
   57.8230   31.7500   44.3040 C   0  0  0  0  0  0  0  0  0  0  0  0
   58.1010   31.3160   45.6090 C   0  0  0  0  0  0  0  0  0  0  0  0
   57.8270   29.9030   46.0410 C   0  0  0  0  0  0  0  0  0  0  0  0
   57.9970   25.9600   46.6050 C   0  0  0  0  0  0  0  0  0  0  0  0
   55.2370   23.7830   45.7760 N   0  0  0  0  0  0  0  0  0  0  0  0
   54.3610   24.7920   45.6160 C   0  0  0  0  0  0  0  0  0  0  0  0
   54.5980   26.1140   45.9810 O   0  0  0  0  0  0  0  0  0  0  0  0
   53.2080   24.3100   45.0400 C   0  0  0  0  0  0  0  0  0  0  0  0
   53.3430   22.9840   44.8300 N   0  0  0  0  0  0  0  0  0  0  0  0
   54.5820   22.7060   45.2880 C   0  0  0  0  0  0  0  0  0  0  0  0
   55.0740   21.5460   45.2600 O   0  0  0  0  0  0  0  0  0  0  0  0
   57.3415   24.3965   48.2964 H   0  0  0  0  0  0  0  0  0  0  0  0
   55.5614   24.1683   48.2212 H   0  0  0  0  0  0  0  0  0  0  0  0
   56.6508   22.7400   48.2212 H   0  0  0  0  0  0  0  0  0  0  0  0
   57.1520   22.9263   46.0479 H   0  0  0  0  0  0  0  0  0  0  0  0
   56.8789   24.4660   43.7372 H   0  0  0  0  0  0  0  0  0  0  0  0
   58.0800   26.4012   42.7361 H   0  0  0  0  0  0  0  0  0  0  0  0
   59.3042   29.8866   48.9630 H   0  0  0  0  0  0  0  0  0  0  0  0
   60.5385   30.4473   47.7455 H   0  0  0  0  0  0  0  0  0  0  0  0
   57.8792   31.7120   48.4894 H   0  0  0  0  0  0  0  0  0  0  0  0
   59.5349   32.4370   48.4582 H   0  0  0  0  0  0  0  0  0  0  0  0
   59.2370   34.2669   46.9289 H   0  0  0  0  0  0  0  0  0  0  0  0
   58.7693   35.0223   44.5952 H   0  0  0  0  0  0  0  0  0  0  0  0
   57.8572   33.4141   42.9161 H   0  0  0  0  0  0  0  0  0  0  0  0
   57.4128   31.0452   43.5658 H   0  0  0  0  0  0  0  0  0  0  0  0
   56.8591   29.8622   46.5621 H   0  0  0  0  0  0  0  0  0  0  0  0
   57.8001   29.2523   45.1545 H   0  0  0  0  0  0  0  0  0  0  0  0
   57.9768   25.8350   47.6977 H   0  0  0  0  0  0  0  0  0  0  0  0
   55.1270   26.3360   46.8160 H   0  0  0  0  0  0  0  0  0  0  0  0
   52.3196   24.9090   44.7910 H   0  0  0  0  0  0  0  0  0  0  0  0
  1  2  1  0
  2  3  1  0
  3  4  2  0
  4  5  1  0
  5  6  2  0
  6  7  1  0
  6  8  1  0
  8  9  1  0
  9 10  2  0
  9 11  1  0
 11 12  1  0
 12 13  1  0
 13 14  1  0
 14 15  2  0
 15 16  1  0
 16 17  2  0
 17 18  1  0
 18 19  2  0
 19 20  1  0
  8 21  2  0
  2 22  1  0
 22 23  1  0
 23 24  1  0
 23 25  2  0
 25 26  1  0
 26 27  1  0
 27 28  2  0
 21  3  1  0
 27 22  1  0
 20 11  1  0
 19 14  1  0
  1 29  1  0
  1 30  1  0
  1 31  1  0
  2 32  1  6
  4 33  1  0
  5 34  1  0
 12 35  1  0
 12 36  1  0
 13 37  1  0
 13 38  1  0
 15 39  1  0
 16 40  1  0
 17 41  1  0
 18 42  1  0
 20 43  1  0
 20 44  1  0
 21 45  1  0
 24 46  1  0
 25 47  1  0
M  CHG  1  26  -1
M  END
>  <UniqueID>  (71) 
67

>  <SMILES>  (71) 
C[C@H](c1ccc(F)c(C(=O)N2CCc3ccccc3C2)c1)n1c(O)c[n-]c1=O

>  <Energy>  (71) 
91.00070726639515

>  <Genealogy>  (71) 
CC(c1ccc(F)c(C(=O)N2CCc3ccccc3C2)c1)n1c(O)c[n-]c1=O (protonated)
C[C@H](c1ccc(F)c(C(=O)N2CCc3ccccc3C2)c1)n1c(O)c[n-]c1=O (chirality)
C[C@H](c1ccc(F)c(C(=O)N2CCc3ccccc3C2)c1)n1c(O)c[n-]c1=O (3D coordinates assigned)
C[C@H](c1ccc(F)c(C(=O)N2CCc3ccccc3C2)c1)n1c(O)c[n-]c1=O (nonaromatic ring conformer: 91.00070726639515 kcal/mol)

>  <smiles>  (71) 
CC(c1ccc(F)c(C(=O)N2CCc3ccccc3C2)c1)n1c(O)c[nH]c1=O

>  <score_type>  (71) 
oracle

>  <origin>  (71) 
adg

>  <m_score__min__energy>  (71) 
-11.460000000000001

>  <m_primary>  (71) 
energy

$$$$
71:0
     RDKit          3D

 57 60  0  0  0  0  0  0  0  0999 V2000
   57.0860   31.9140   42.5530 O   0  0  0  0  0  0  0  0  0  0  0  0
   57.0200   31.1660   43.5650 C   0  0  0  0  0  0  0  0  0  0  0  0
   56.7550   29.6990   43.3550 C   0  0  0  0  0  0  0  0  0  0  0  0
   55.9270   28.9490   44.8120 S   0  0  0  0  0  0  0  0  0  0  0  0
   57.4410   28.5320   45.7010 C   0  0  0  0  0  0  0  0  0  0  0  0
   58.3620   29.5230   45.8990 N   0  0  0  0  0  0  0  0  0  0  0  0
   59.5530   29.2900   46.5110 C   0  0  0  0  0  0  0  0  0  0  0  0
   59.8680   28.0090   46.9610 C   0  0  0  0  0  0  0  0  0  0  0  0
   58.9460   26.9750   46.7900 C   0  0  0  0  0  0  0  0  0  0  0  0
   57.7070   27.2200   46.1720 C   0  0  0  0  0  0  0  0  0  0  0  0
   56.7330   26.1070   46.0760 C   0  0  0  0  0  0  0  0  0  0  0  0
   55.4980   26.3610   46.1270 O   0  0  0  0  0  0  0  0  0  0  0  0
   57.1910   24.7520   45.9370 N   0  0  0  0  0  0  0  0  0  0  0  0
   56.7840   23.8400   45.0950 C   0  0  0  0  0  0  0  0  0  0  0  0
   56.2150   24.1470   43.8420 C   0  0  0  0  0  0  0  0  0  0  0  0
   55.8300   23.1110   42.9870 C   0  0  0  0  0  0  0  0  0  0  0  0
   56.0080   21.8160   43.3590 N   0  0  0  0  0  0  0  0  0  0  0  0
   56.5680   21.4920   44.5530 C   0  0  0  0  0  0  0  0  0  0  0  0
   56.9690   22.4950   45.4370 C   0  0  0  0  0  0  0  0  0  0  0  0
   57.1290   31.7760   44.8640 N   0  0  0  0  0  0  0  0  0  0  0  0
   57.9710   32.8350   45.3450 C   0  0  0  0  0  0  0  0  0  0  0  0
   58.1300   34.0580   44.6670 C   0  0  0  0  0  0  0  0  0  0  0  0
   58.9570   35.0540   45.1950 C   0  0  0  0  0  0  0  0  0  0  0  0
   59.5940   34.8620   46.4240 C   0  0  0  0  0  0  0  0  0  0  0  0
   59.3990   33.6720   47.1350 C   0  0  0  0  0  0  0  0  0  0  0  0
   60.1040   33.4700   48.7360 S   0  0  0  0  0  0  0  0  0  0  0  0
   59.6220   32.1620   49.3000 O   0  0  0  0  0  0  0  0  0  0  0  0
   59.6580   34.5910   49.6370 O   0  0  0  0  0  0  0  0  0  0  0  0
   61.8500   33.4640   48.6220 N   0  0  0  0  0  0  0  0  0  0  0  0
   62.4050   32.3530   49.4130 C   0  0  0  0  0  0  0  0  0  0  0  0
   63.9410   32.2980   49.2610 C   0  0  0  0  0  0  0  0  0  0  0  0
   64.4220   33.2750   48.3540 O   0  0  0  0  0  0  0  0  0  0  0  0
   63.7870   33.1160   47.1010 C   0  0  0  0  0  0  0  0  0  0  0  0
   62.2610   33.3370   47.2110 C   0  0  0  0  0  0  0  0  0  0  0  0
   58.5860   32.6660   46.5940 C   0  0  0  0  0  0  0  0  0  0  0  0
   56.1086   29.5752   42.4736 H   0  0  0  0  0  0  0  0  0  0  0  0
   57.7199   29.1918   43.2076 H   0  0  0  0  0  0  0  0  0  0  0  0
   58.1580   30.4920   45.5610 H   0  0  0  0  0  0  0  0  0  0  0  0
   60.2690   30.1132   46.6513 H   0  0  0  0  0  0  0  0  0  0  0  0
   60.8354   27.8144   47.4470 H   0  0  0  0  0  0  0  0  0  0  0  0
   59.1904   25.9616   47.1411 H   0  0  0  0  0  0  0  0  0  0  0  0
   56.0751   25.1953   43.5395 H   0  0  0  0  0  0  0  0  0  0  0  0
   55.3816   23.3443   42.0100 H   0  0  0  0  0  0  0  0  0  0  0  0
   56.7061   20.4350   44.8245 H   0  0  0  0  0  0  0  0  0  0  0  0
   57.4293   22.2293   46.4001 H   0  0  0  0  0  0  0  0  0  0  0  0
   57.6015   34.2310   43.7179 H   0  0  0  0  0  0  0  0  0  0  0  0
   59.1069   35.9924   44.6409 H   0  0  0  0  0  0  0  0  0  0  0  0
   60.2486   35.6459   46.8326 H   0  0  0  0  0  0  0  0  0  0  0  0
   62.1508   32.5005   50.4730 H   0  0  0  0  0  0  0  0  0  0  0  0
   61.9765   31.4074   49.0493 H   0  0  0  0  0  0  0  0  0  0  0  0
   64.4013   32.4704   50.2451 H   0  0  0  0  0  0  0  0  0  0  0  0
   64.2070   31.3071   48.8642 H   0  0  0  0  0  0  0  0  0  0  0  0
   64.2045   33.8468   46.3927 H   0  0  0  0  0  0  0  0  0  0  0  0
   63.9640   32.0884   46.7507 H   0  0  0  0  0  0  0  0  0  0  0  0
   61.9902   34.2571   46.6724 H   0  0  0  0  0  0  0  0  0  0  0  0
   61.7467   32.4699   46.7709 H   0  0  0  0  0  0  0  0  0  0  0  0
   58.4287   31.7334   47.1557 H   0  0  0  0  0  0  0  0  0  0  0  0
  1  2  2  0
  2  3  1  0
  3  4  1  0
  4  5  1  0
  5  6  2  0
  6  7  1  0
  7  8  2  0
  8  9  1  0
  9 10  2  0
 10 11  1  0
 11 12  2  0
 11 13  1  0
 13 14  2  3
 14 15  1  0
 15 16  2  0
 16 17  1  0
 17 18  1  0
 18 19  2  0
  2 20  1  0
 20 21  1  0
 21 22  2  0
 22 23  1  0
 23 24  2  0
 24 25  1  0
 25 26  1  0
 26 27  2  0
 26 28  2  0
 26 29  1  0
 29 30  1  0
 30 31  1  0
 31 32  1  0
 32 33  1  0
 33 34  1  0
 25 35  2  0
 10  5  1  0
 19 14  1  0
 35 21  1  0
 34 29  1  0
  3 36  1  0
  3 37  1  0
  6 38  1  0
  7 39  1  0
  8 40  1  0
  9 41  1  0
 15 42  1  0
 16 43  1  0
 18 44  1  0
 19 45  1  0
 22 46  1  0
 23 47  1  0
 24 48  1  0
 30 49  1  0
 30 50  1  0
 31 51  1  0
 31 52  1  0
 33 53  1  0
 33 54  1  0
 34 55  1  0
 34 56  1  0
 35 57  1  0
M  CHG  3   6   1  17  -1  20  -1
M  END
>  <UniqueID>  (72) 
68

>  <SMILES>  (72) 
O=C(CSc1[nH+]cccc1C(=O)N=c1cc[n-]cc1)[N-]c1cccc(S(=O)(=O)N2CCOCC2)c1

>  <Energy>  (72) 
84.53377761563405

>  <Genealogy>  (72) 
O=C(CSc1[nH+]cccc1C(=O)N=c1cc[n-]cc1)[N-]c1cccc(S(=O)(=O)N2CCOCC2)c1 (protonated)
O=C(CSc1[nH+]cccc1C(=O)N=c1cc[n-]cc1)[N-]c1cccc(S(=O)(=O)N2CCOCC2)c1 (3D coordinates assigned)
O=C(CSc1[nH+]cccc1C(=O)N=c1cc[n-]cc1)[N-]c1cccc(S(=O)(=O)N2CCOCC2)c1 (nonaromatic ring conformer: 84.53377761563405 kcal/mol)

>  <smiles>  (72) 
O=C(CSc1ncccc1C(=O)N=c1cc[nH]cc1)Nc1cccc(S(=O)(=O)N2CCOCC2)c1

>  <score_type>  (72) 
oracle

>  <origin>  (72) 
adg

>  <m_score__min__energy>  (72) 
-12.869999999999999

>  <m_primary>  (72) 
energy

$$$$
72:0
     RDKit          3D

 63 66  0  0  0  0  0  0  0  0999 V2000
   56.9750   25.2560   45.1430 C   0  0  0  0  0  0  0  0  0  0  0  0
   56.3650   26.3130   45.9990 C   0  0  0  0  0  0  0  0  0  0  0  0
   55.1110   26.3950   46.0950 O   0  0  0  0  0  0  0  0  0  0  0  0
   57.2090   27.1950   46.7430 N   0  0  0  0  0  0  0  0  0  0  0  0
   58.9370   27.0800   46.7010 S   0  0  0  0  0  0  0  0  0  0  0  0
   59.3530   25.6730   47.0290 O   0  0  0  0  0  0  0  0  0  0  0  0
   59.4250   27.4160   45.3190 O   0  0  0  0  0  0  0  0  0  0  0  0
   59.6300   28.2200   47.8510 C   0  0  0  0  0  0  0  0  0  0  0  0
   59.2980   29.5780   47.7690 C   0  0  0  0  0  0  0  0  0  0  0  0
   59.8180   30.4880   48.6930 C   0  0  0  0  0  0  0  0  0  0  0  0
   60.6790   30.0510   49.7160 C   0  0  0  0  0  0  0  0  0  0  0  0
   61.1860   30.9810   50.6960 N   0  0  0  0  0  0  0  0  0  0  0  0
   62.2790   31.7510   50.1410 C   0  0  0  0  0  0  0  0  0  0  0  0
   63.6020   31.2920   50.3110 C   0  0  0  0  0  0  0  0  0  0  0  0
   64.6820   32.0160   49.8030 C   0  0  0  0  0  0  0  0  0  0  0  0
   64.4640   33.2170   49.1290 C   0  0  0  0  0  0  0  0  0  0  0  0
   63.1660   33.7010   48.9640 C   0  0  0  0  0  0  0  0  0  0  0  0
   62.0680   32.9810   49.4620 C   0  0  0  0  0  0  0  0  0  0  0  0
   60.7250   33.5660   49.2950 C   0  0  0  0  0  0  0  0  0  0  0  0
   60.0560   33.8480   50.3260 O   0  0  0  0  0  0  0  0  0  0  0  0
   60.1720   33.8000   47.9800 N   0  0  0  0  0  0  0  0  0  0  0  0
   61.0720   33.8070   46.8170 C   0  0  0  0  0  0  0  0  0  0  0  0
   60.3130   34.0700   45.5230 C   0  0  0  0  0  0  0  0  0  0  0  0
   59.0740   33.2780   45.5450 N   0  0  0  0  0  0  0  0  0  0  0  0
   58.4670   33.1940   44.2010 C   0  0  0  0  0  0  0  0  0  0  0  0
   57.7930   31.8600   44.0140 C   0  0  0  0  0  0  0  0  0  0  0  0
   57.2160   31.5160   42.7790 C   0  0  0  0  0  0  0  0  0  0  0  0
   56.6150   30.2650   42.6070 C   0  0  0  0  0  0  0  0  0  0  0  0
   56.5850   29.3500   43.6630 C   0  0  0  0  0  0  0  0  0  0  0  0
   57.1560   29.6850   44.8950 C   0  0  0  0  0  0  0  0  0  0  0  0
   57.7590   30.9340   45.0710 C   0  0  0  0  0  0  0  0  0  0  0  0
   58.1200   33.8660   46.5070 C   0  0  0  0  0  0  0  0  0  0  0  0
   58.7710   34.2450   47.8600 C   0  0  0  0  0  0  0  0  0  0  0  0
   61.0090   28.6850   49.7920 C   0  0  0  0  0  0  0  0  0  0  0  0
   60.4880   27.7770   48.8660 C   0  0  0  0  0  0  0  0  0  0  0  0
   57.4227   24.4802   45.7815 H   0  0  0  0  0  0  0  0  0  0  0  0
   56.1983   24.8050   44.5079 H   0  0  0  0  0  0  0  0  0  0  0  0
   57.7541   25.7028   44.5079 H   0  0  0  0  0  0  0  0  0  0  0  0
   58.6247   29.9299   46.9735 H   0  0  0  0  0  0  0  0  0  0  0  0
   59.5524   31.5530   48.6200 H   0  0  0  0  0  0  0  0  0  0  0  0
   61.5340   30.4680   51.5410 H   0  0  0  0  0  0  0  0  0  0  0  0
   60.4010   31.5860   51.0270 H   0  0  0  0  0  0  0  0  0  0  0  0
   63.7850   30.3513   50.8509 H   0  0  0  0  0  0  0  0  0  0  0  0
   65.7067   31.6384   49.9346 H   0  0  0  0  0  0  0  0  0  0  0  0
   65.3167   33.7837   48.7268 H   0  0  0  0  0  0  0  0  0  0  0  0
   63.0014   34.6539   48.4398 H   0  0  0  0  0  0  0  0  0  0  0  0
   61.8271   34.5950   46.9546 H   0  0  0  0  0  0  0  0  0  0  0  0
   61.5464   32.8173   46.7428 H   0  0  0  0  0  0  0  0  0  0  0  0
   60.0692   35.1399   45.4457 H   0  0  0  0  0  0  0  0  0  0  0  0
   60.9294   33.7852   44.6576 H   0  0  0  0  0  0  0  0  0  0  0  0
   57.7223   33.9957   44.0885 H   0  0  0  0  0  0  0  0  0  0  0  0
   59.2574   33.3047   43.4440 H   0  0  0  0  0  0  0  0  0  0  0  0
   57.2373   32.2332   41.9452 H   0  0  0  0  0  0  0  0  0  0  0  0
   56.1650   30.0007   41.6387 H   0  0  0  0  0  0  0  0  0  0  0  0
   56.1123   28.3664   43.5252 H   0  0  0  0  0  0  0  0  0  0  0  0
   57.1306   28.9651   45.7263 H   0  0  0  0  0  0  0  0  0  0  0  0
   58.2088   31.1932   46.0408 H   0  0  0  0  0  0  0  0  0  0  0  0
   57.6886   34.7740   46.0604 H   0  0  0  0  0  0  0  0  0  0  0  0
   57.3551   33.1034   46.7153 H   0  0  0  0  0  0  0  0  0  0  0  0
   58.7423   35.3395   47.9665 H   0  0  0  0  0  0  0  0  0  0  0  0
   58.1993   33.7357   48.6498 H   0  0  0  0  0  0  0  0  0  0  0  0
   61.6820   28.3293   50.5861 H   0  0  0  0  0  0  0  0  0  0  0  0
   60.7524   26.7114   48.9344 H   0  0  0  0  0  0  0  0  0  0  0  0
  1  2  1  0
  2  3  2  0
  2  4  1  0
  4  5  1  0
  5  6  2  0
  5  7  2  0
  5  8  1  0
  8  9  2  0
  9 10  1  0
 10 11  2  0
 11 12  1  0
 12 13  1  0
 13 14  2  0
 14 15  1  0
 15 16  2  0
 16 17  1  0
 17 18  2  0
 18 19  1  0
 19 20  2  0
 19 21  1  0
 21 22  1  0
 22 23  1  0
 23 24  1  0
 24 25  1  0
 25 26  1  0
 26 27  2  0
 27 28  1  0
 28 29  2  0
 29 30  1  0
 30 31  2  0
 24 32  1  0
 32 33  1  0
 11 34  1  0
 34 35  2  0
 35  8  1  0
 18 13  1  0
 33 21  1  0
 31 26  1  0
  1 36  1  0
  1 37  1  0
  1 38  1  0
  9 39  1  0
 10 40  1  0
 12 41  1  0
 12 42  1  0
 14 43  1  0
 15 44  1  0
 16 45  1  0
 17 46  1  0
 22 47  1  0
 22 48  1  0
 23 49  1  0
 23 50  1  0
 25 51  1  0
 25 52  1  0
 27 53  1  0
 28 54  1  0
 29 55  1  0
 30 56  1  0
 31 57  1  0
 32 58  1  0
 32 59  1  0
 33 60  1  0
 33 61  1  0
 34 62  1  0
 35 63  1  0
M  CHG  2   4  -1  12   1
M  END
>  <UniqueID>  (73) 
69

>  <SMILES>  (73) 
CC(=O)[N-]S(=O)(=O)c1ccc([NH2+]c2ccccc2C(=O)N2CCN(Cc3ccccc3)CC2)cc1

>  <Energy>  (73) 
82.96496626434858

>  <Genealogy>  (73) 
CC(=O)[N-]S(=O)(=O)c1ccc([NH2+]c2ccccc2C(=O)N2CCN(Cc3ccccc3)CC2)cc1 (protonated)
CC(=O)[N-]S(=O)(=O)c1ccc([NH2+]c2ccccc2C(=O)N2CCN(Cc3ccccc3)CC2)cc1 (3D coordinates assigned)
CC(=O)[N-]S(=O)(=O)c1ccc([NH2+]c2ccccc2C(=O)N2CCN(Cc3ccccc3)CC2)cc1 (nonaromatic ring conformer: 82.96496626434858 kcal/mol)

>  <smiles>  (73) 
CC(=O)NS(=O)(=O)c1ccc(Nc2ccccc2C(=O)N2CCN(Cc3ccccc3)CC2)cc1

>  <score_type>  (73) 
oracle

>  <origin>  (73) 
adg

>  <m_score__min__energy>  (73) 
-10.359999999999999

>  <m_primary>  (73) 
energy

$$$$
73:0
     RDKit          3D

 51 54  0  0  0  0  0  0  0  0999 V2000
   56.8810   22.0050   46.8000 C   0  0  0  0  0  0  0  0  0  0  0  0
   57.6290   23.1890   47.0560 O   0  0  0  0  0  0  0  0  0  0  0  0
   57.2710   24.4660   46.5980 C   0  0  0  0  0  0  0  0  0  0  0  0
   58.2260   25.4310   46.2280 C   0  0  0  0  0  0  0  0  0  0  0  0
   57.8180   26.6910   45.7810 C   0  0  0  0  0  0  0  0  0  0  0  0
   56.4510   27.0130   45.7140 C   0  0  0  0  0  0  0  0  0  0  0  0
   56.0060   28.2960   45.2480 N   0  0  0  0  0  0  0  0  0  0  0  0
   56.8120   29.4780   45.1440 C   0  0  0  0  0  0  0  0  0  0  0  0
   56.2600   30.5580   44.8020 O   0  0  0  0  0  0  0  0  0  0  0  0
   58.2550   29.4710   45.4690 C   0  0  0  0  0  0  0  0  0  0  0  0
   59.2020   29.0360   44.5260 C   0  0  0  0  0  0  0  0  0  0  0  0
   60.5650   29.0590   44.8310 C   0  0  0  0  0  0  0  0  0  0  0  0
   60.9960   29.5150   46.0780 C   0  0  0  0  0  0  0  0  0  0  0  0
   60.0640   29.9360   47.0350 C   0  0  0  0  0  0  0  0  0  0  0  0
   60.6150   30.5710   48.5850 S   0  0  0  0  0  0  0  0  0  0  0  0
   61.2060   29.4370   49.3770 O   0  0  0  0  0  0  0  0  0  0  0  0
   59.4410   31.1330   49.3350 O   0  0  0  0  0  0  0  0  0  0  0  0
   61.8140   31.8190   48.3540 N   0  0  0  0  0  0  0  0  0  0  0  0
   61.7210   32.6200   47.1230 C   0  0  0  0  0  0  0  0  0  0  0  0
   62.6300   33.8490   47.1660 C   0  0  0  0  0  0  0  0  0  0  0  0
   64.0580   33.4400   47.5140 C   0  0  0  0  0  0  0  0  0  0  0  0
   64.0840   32.7020   48.8240 C   0  0  0  0  0  0  0  0  0  0  0  0
   65.2270   32.7670   49.6350 C   0  0  0  0  0  0  0  0  0  0  0  0
   65.2670   32.0860   50.8510 C   0  0  0  0  0  0  0  0  0  0  0  0
   64.1700   31.3330   51.2650 C   0  0  0  0  0  0  0  0  0  0  0  0
   63.0330   31.2440   50.4590 C   0  0  0  0  0  0  0  0  0  0  0  0
   62.9800   31.9070   49.2140 C   0  0  0  0  0  0  0  0  0  0  0  0
   58.6950   29.9070   46.7300 C   0  0  0  0  0  0  0  0  0  0  0  0
   55.5010   26.0440   46.0620 C   0  0  0  0  0  0  0  0  0  0  0  0
   54.1440   26.3330   45.9760 O   0  0  0  0  0  0  0  0  0  0  0  0
   55.9110   24.7830   46.5070 C   0  0  0  0  0  0  0  0  0  0  0  0
   56.5888   21.5424   47.7543 H   0  0  0  0  0  0  0  0  0  0  0  0
   55.9788   22.2586   46.2240 H   0  0  0  0  0  0  0  0  0  0  0  0
   57.4975   21.2992   46.2240 H   0  0  0  0  0  0  0  0  0  0  0  0
   59.2981   25.1928   46.2908 H   0  0  0  0  0  0  0  0  0  0  0  0
   58.5705   27.4347   45.4800 H   0  0  0  0  0  0  0  0  0  0  0  0
   58.8679   28.6753   43.5420 H   0  0  0  0  0  0  0  0  0  0  0  0
   61.2999   28.7172   44.0873 H   0  0  0  0  0  0  0  0  0  0  0  0
   62.0709   29.5438   46.3097 H   0  0  0  0  0  0  0  0  0  0  0  0
   62.0136   31.9922   46.2684 H   0  0  0  0  0  0  0  0  0  0  0  0
   60.6828   32.9700   47.0244 H   0  0  0  0  0  0  0  0  0  0  0  0
   62.6229   34.3401   46.1817 H   0  0  0  0  0  0  0  0  0  0  0  0
   62.2587   34.5417   47.9357 H   0  0  0  0  0  0  0  0  0  0  0  0
   64.4519   32.7868   46.7214 H   0  0  0  0  0  0  0  0  0  0  0  0
   64.6787   34.3441   47.5998 H   0  0  0  0  0  0  0  0  0  0  0  0
   66.0958   33.3581   49.3099 H   0  0  0  0  0  0  0  0  0  0  0  0
   66.1649   32.1432   51.4838 H   0  0  0  0  0  0  0  0  0  0  0  0
   64.1997   30.8066   52.2304 H   0  0  0  0  0  0  0  0  0  0  0  0
   62.1703   30.6515   50.7977 H   0  0  0  0  0  0  0  0  0  0  0  0
   57.9608   30.2279   47.4836 H   0  0  0  0  0  0  0  0  0  0  0  0
   55.1570   24.0331   46.7882 H   0  0  0  0  0  0  0  0  0  0  0  0
  1  2  1  0
  2  3  1  0
  3  4  2  0
  4  5  1  0
  5  6  2  0
  6  7  1  0
  7  8  1  0
  8  9  2  0
  8 10  1  0
 10 11  2  0
 11 12  1  0
 12 13  2  0
 13 14  1  0
 14 15  1  0
 15 16  2  0
 15 17  2  0
 15 18  1  0
 18 19  1  0
 19 20  1  0
 20 21  1  0
 21 22  1  0
 22 23  2  0
 23 24  1  0
 24 25  2  0
 25 26  1  0
 26 27  2  0
 14 28  2  0
  6 29  1  0
 29 30  1  0
 29 31  2  0
 31  3  1  0
 28 10  1  0
 27 18  1  0
 27 22  1  0
  1 32  1  0
  1 33  1  0
  1 34  1  0
  4 35  1  0
  5 36  1  0
 11 37  1  0
 12 38  1  0
 13 39  1  0
 19 40  1  0
 19 41  1  0
 20 42  1  0
 20 43  1  0
 21 44  1  0
 21 45  1  0
 23 46  1  0
 24 47  1  0
 25 48  1  0
 26 49  1  0
 28 50  1  0
 31 51  1  0
M  CHG  2   7  -1  30  -1
M  END
>  <UniqueID>  (74) 
70

>  <SMILES>  (74) 
COc1ccc([N-]C(=O)c2cccc(S(=O)(=O)N3CCCc4ccccc43)c2)c([O-])c1

>  <Energy>  (74) 
65.15393288766774

>  <Genealogy>  (74) 
COc1ccc([N-]C(=O)c2cccc(S(=O)(=O)N3CCCc4ccccc43)c2)c([O-])c1 (protonated)
COc1ccc([N-]C(=O)c2cccc(S(=O)(=O)N3CCCc4ccccc43)c2)c([O-])c1 (3D coordinates assigned)
COc1ccc([N-]C(=O)c2cccc(S(=O)(=O)N3CCCc4ccccc43)c2)c([O-])c1 (nonaromatic ring conformer: 65.15393288766774 kcal/mol)

>  <smiles>  (74) 
COc1ccc(NC(=O)c2cccc(S(=O)(=O)N3CCCc4ccccc43)c2)c(O)c1

>  <score_type>  (74) 
oracle

>  <origin>  (74) 
adg

>  <m_score__min__energy>  (74) 
-16.390000000000001

>  <m_primary>  (74) 
energy

$$$$
74:0
     RDKit          3D

 40 42  0  0  0  0  0  0  0  0999 V2000
   60.1535   34.9894   47.0810 H   0  0  0  0  0  0  0  0  0  0  0  0
   59.6380   35.3330   46.1720 C   0  0  0  0  0  0  0  0  0  0  0  0
   60.0060   36.4060   45.6270 O   0  0  0  0  0  0  0  0  0  0  0  0
   59.0220   30.8730   48.3780 N   0  0  0  0  0  0  0  0  0  0  0  0
   58.5680   31.4190   47.2890 C   0  0  0  0  0  0  0  0  0  0  0  0
   57.8440   30.6690   46.4220 N   0  0  0  0  0  0  0  0  0  0  0  0
   57.3600   31.2150   45.2780 C   0  0  0  0  0  0  0  0  0  0  0  0
   56.6760   30.4720   44.4600 N   0  0  0  0  0  0  0  0  0  0  0  0
   55.9700   29.2430   44.8250 C   0  0  0  0  0  0  0  0  0  0  0  0
   55.3264   29.4419   45.6946 H   0  0  0  0  0  0  0  0  0  0  0  0
   55.3649   28.9167   43.9663 H   0  0  0  0  0  0  0  0  0  0  0  0
   56.9460   28.1450   45.1730 C   0  0  0  0  0  0  0  0  0  0  0  0
   58.3140   28.3070   44.8940 C   0  0  0  0  0  0  0  0  0  0  0  0
   58.6692   29.2350   44.4222 H   0  0  0  0  0  0  0  0  0  0  0  0
   59.2260   27.2970   45.2120 C   0  0  0  0  0  0  0  0  0  0  0  0
   60.2964   27.4361   44.9999 H   0  0  0  0  0  0  0  0  0  0  0  0
   58.7790   26.1110   45.7990 C   0  0  0  0  0  0  0  0  0  0  0  0
   59.4987   25.3193   46.0544 H   0  0  0  0  0  0  0  0  0  0  0  0
   57.4200   25.9290   46.0620 C   0  0  0  0  0  0  0  0  0  0  0  0
   57.0701   24.9911   46.5179 H   0  0  0  0  0  0  0  0  0  0  0  0
   56.5020   26.9370   45.7470 C   0  0  0  0  0  0  0  0  0  0  0  0
   55.1500   26.7290   46.0040 O   0  0  0  0  0  0  0  0  0  0  0  0
   57.5990   32.5280   45.0060 N   0  0  0  0  0  0  0  0  0  0  0  0
   58.3220   33.2890   45.8720 C   0  0  0  0  0  0  0  0  0  0  0  0
   58.5630   34.5460   45.6380 N   0  0  0  0  0  0  0  0  0  0  0  0
   60.4130   30.4770   48.5970 C   0  0  0  0  0  0  0  0  0  0  0  0
   60.5374   30.1563   49.6418 H   0  0  0  0  0  0  0  0  0  0  0  0
   60.6583   29.6507   47.9136 H   0  0  0  0  0  0  0  0  0  0  0  0
   61.3420   31.6290   48.3190 C   0  0  0  0  0  0  0  0  0  0  0  0
   62.3770   31.4860   47.3800 C   0  0  0  0  0  0  0  0  0  0  0  0
   62.4963   30.5373   46.8362 H   0  0  0  0  0  0  0  0  0  0  0  0
   63.2560   32.5450   47.1340 C   0  0  0  0  0  0  0  0  0  0  0  0
   64.0637   32.4283   46.3964 H   0  0  0  0  0  0  0  0  0  0  0  0
   63.1100   33.7520   47.8240 C   0  0  0  0  0  0  0  0  0  0  0  0
   63.8020   34.5844   47.6286 H   0  0  0  0  0  0  0  0  0  0  0  0
   62.0850   33.9010   48.7620 C   0  0  0  0  0  0  0  0  0  0  0  0
   61.9716   34.8504   49.3059 H   0  0  0  0  0  0  0  0  0  0  0  0
   61.2030   32.8440   49.0100 C   0  0  0  0  0  0  0  0  0  0  0  0
   60.3973   32.9648   49.7491 H   0  0  0  0  0  0  0  0  0  0  0  0
   58.8070   32.7270   47.0080 N   0  0  0  0  0  0  0  0  0  0  0  0
  1  2  1  0
  2  3  2  0
  2  4  1  0
  4  5  2  0
  5  6  1  0
  6  7  1  0
  7  8  2  3
  8  9  1  0
  9 10  1  0
  9 11  1  0
  9 12  1  0
 12 13  2  0
 13 14  1  0
 13 15  1  0
 15 16  1  0
 15 17  2  0
 17 18  1  0
 17 19  1  0
 19 20  1  0
 19 21  2  0
 21 22  1  0
  7 23  1  0
 23 24  1  0
 24 25  2  0
 25 26  1  0
 26 27  1  0
 26 28  1  0
 26 29  1  0
 29 30  2  0
 30 31  1  0
 30 32  1  0
 32 33  1  0
 32 34  2  0
 34 35  1  0
 34 36  1  0
 36 37  1  0
 36 38  2  0
 38 39  1  0
 24 40  1  0
 40  5  1  0
 21 12  1  0
 38 29  1  0
M  CHG  4   6  -1  22  -1  23  -1  40  -1
M  END
>  <UniqueID>  (75) 
71

>  <SMILES>  (75) 
O=C/N=c1\[n-]c(=NCc2ccccc2[O-])[n-]/c(=N/Cc2ccccc2)[n-]1

>  <Energy>  (75) 
44.3631604102173

>  <Genealogy>  (75) 
O=CN=c1[n-]c(=NCc2ccccc2)[n-]c(=NCc2ccccc2[O-])[n-]1 (protonated)
O=C/N=c1\[n-]c(=NCc2ccccc2[O-])[n-]/c(=N/Cc2ccccc2)[n-]1 (cis-trans isomerization)
O=C/N=c1\[n-]c(=NCc2ccccc2[O-])[n-]/c(=N/Cc2ccccc2)[n-]1 (3D coordinates assigned)
O=C/N=c1\[n-]c(=NCc2ccccc2[O-])[n-]/c(=N/Cc2ccccc2)[n-]1 (optimized conformer: 44.3631604102173 kcal/mol)

>  <smiles>  (75) 
O=CN=c1[nH]c(=NCc2ccccc2)[nH]c(=NCc2ccccc2O)[nH]1

>  <score_type>  (75) 
oracle

>  <origin>  (75) 
adg

>  <m_score__min__energy>  (75) 
-15.31

>  <m_primary>  (75) 
energy

$$$$
75:0
     RDKit          3D

 26 27  0  0  0  0  0  0  0  0999 V2000
   62.8240   33.4320   46.7530 C   0  0  0  0  0  0  0  0  0  0  0  0
   62.0760   32.2800   47.3570 C   0  0  0  0  0  0  0  0  0  0  0  0
   62.5630   31.6460   48.5080 C   0  0  0  0  0  0  0  0  0  0  0  0
   61.8860   30.5510   49.0470 C   0  0  0  0  0  0  0  0  0  0  0  0
   60.7230   30.0730   48.4370 C   0  0  0  0  0  0  0  0  0  0  0  0
   60.2240   30.6870   47.2730 C   0  0  0  0  0  0  0  0  0  0  0  0
   58.9970   30.1740   46.6110 C   0  0  0  0  0  0  0  0  0  0  0  0
   58.1990   30.9790   45.7900 C   0  0  0  0  0  0  0  0  0  0  0  0
   57.0190   30.5410   45.1460 C   0  0  0  0  0  0  0  0  0  0  0  0
   56.4050   31.3820   44.4360 O   0  0  0  0  0  0  0  0  0  0  0  0
   56.4810   29.2330   45.2380 C   0  0  0  0  0  0  0  0  0  0  0  0
   55.3060   28.9710   44.5390 O   0  0  0  0  0  0  0  0  0  0  0  0
   57.0760   28.2010   45.9900 C   0  0  0  0  0  0  0  0  0  0  0  0
   56.5150   26.8350   46.0820 C   0  0  0  0  0  0  0  0  0  0  0  0
   57.2820   25.8490   46.2400 O   0  0  0  0  0  0  0  0  0  0  0  0
   55.1460   26.6110   45.9930 O   0  0  0  0  0  0  0  0  0  0  0  0
   58.5020   28.5710   46.8240 S   0  0  0  0  0  0  0  0  0  0  0  0
   60.9180   31.7860   46.7330 C   0  0  0  0  0  0  0  0  0  0  0  0
   63.2341   34.0636   47.5548 H   0  0  0  0  0  0  0  0  0  0  0  0
   63.6464   33.0493   46.1307 H   0  0  0  0  0  0  0  0  0  0  0  0
   62.1398   34.0276   46.1307 H   0  0  0  0  0  0  0  0  0  0  0  0
   63.4821   32.0127   48.9884 H   0  0  0  0  0  0  0  0  0  0  0  0
   62.2691   30.0625   49.9551 H   0  0  0  0  0  0  0  0  0  0  0  0
   60.1940   29.2110   48.8696 H   0  0  0  0  0  0  0  0  0  0  0  0
   58.5108   32.0225   45.6354 H   0  0  0  0  0  0  0  0  0  0  0  0
   60.5500   32.2632   45.8128 H   0  0  0  0  0  0  0  0  0  0  0  0
  1  2  1  0
  2  3  2  0
  3  4  1  0
  4  5  2  0
  5  6  1  0
  6  7  1  0
  7  8  2  0
  8  9  1  0
  9 10  2  0
  9 11  1  0
 11 12  1  0
 11 13  2  0
 13 14  1  0
 14 15  2  0
 14 16  1  0
 13 17  1  0
  6 18  2  0
 18  2  1  0
 17  7  1  0
  1 19  1  0
  1 20  1  0
  1 21  1  0
  3 22  1  0
  4 23  1  0
  5 24  1  0
  8 25  1  0
 18 26  1  0
M  CHG  2  12  -1  16  -1
M  END
>  <UniqueID>  (76) 
72

>  <SMILES>  (76) 
Cc1cccc(-c2cc(=O)c([O-])c(C(=O)[O-])s2)c1

>  <Energy>  (76) 
35.005175405318205

>  <Genealogy>  (76) 
Cc1cccc(-c2cc(=O)c([O-])c(C(=O)[O-])s2)c1 (protonated)
Cc1cccc(-c2cc(=O)c([O-])c(C(=O)[O-])s2)c1 (3D coordinates assigned)
Cc1cccc(-c2cc(=O)c([O-])c(C(=O)[O-])s2)c1 (optimized conformer: 35.005175405318205 kcal/mol)

>  <smiles>  (76) 
Cc1cccc(-c2cc(=O)c(O)c(C(=O)O)s2)c1

>  <score_type>  (76) 
oracle

>  <origin>  (76) 
adg

>  <m_score__min__energy>  (76) 
-13.220000000000001

>  <m_primary>  (76) 
energy

$$$$
76:0
     RDKit          3D

 45 47  0  0  0  0  0  0  0  0999 V2000
   61.5330   34.0790   47.7760 O   0  0  0  0  0  0  0  0  0  0  0  0
   60.7840   33.0640   47.7900 C   0  0  0  0  0  0  0  0  0  0  0  0
   61.0340   31.9480   46.8230 C   0  0  0  0  0  0  0  0  0  0  0  0
   61.0990   30.5930   47.5390 C   0  0  0  0  0  0  0  0  0  0  0  0
   60.2560   29.5550   46.8440 C   0  0  0  0  0  0  0  0  0  0  0  0
   59.5380   28.6030   47.5860 C   0  0  0  0  0  0  0  0  0  0  0  0
   58.7430   27.6560   46.9340 C   0  0  0  0  0  0  0  0  0  0  0  0
   58.6370   27.6600   45.5330 C   0  0  0  0  0  0  0  0  0  0  0  0
   57.7460   26.6660   44.8330 C   0  0  0  0  0  0  0  0  0  0  0  0
   57.2480   25.6180   45.8050 C   0  0  0  0  0  0  0  0  0  0  0  0
   55.9470   25.6730   46.3360 C   0  0  0  0  0  0  0  0  0  0  0  0
   55.0810   26.7090   46.0010 O   0  0  0  0  0  0  0  0  0  0  0  0
   55.5170   24.6990   47.1810 N   0  0  0  0  0  0  0  0  0  0  0  0
   56.3190   23.6590   47.5210 C   0  0  0  0  0  0  0  0  0  0  0  0
   55.8950   22.7670   48.3030 O   0  0  0  0  0  0  0  0  0  0  0  0
   57.5760   23.5790   47.0200 N   0  0  0  0  0  0  0  0  0  0  0  0
   58.0580   24.5280   46.1750 C   0  0  0  0  0  0  0  0  0  0  0  0
   59.2310   24.4190   45.7300 O   0  0  0  0  0  0  0  0  0  0  0  0
   59.3480   28.6180   44.7940 C   0  0  0  0  0  0  0  0  0  0  0  0
   60.1510   29.5570   45.4450 C   0  0  0  0  0  0  0  0  0  0  0  0
   59.7210   32.9550   48.7430 N   0  0  0  0  0  0  0  0  0  0  0  0
   58.3190   32.7830   48.3770 C   0  0  0  0  0  0  0  0  0  0  0  0
   58.1450   32.9250   46.8890 C   0  0  0  0  0  0  0  0  0  0  0  0
   58.2900   34.1820   46.2690 C   0  0  0  0  0  0  0  0  0  0  0  0
   58.1010   34.3160   44.8900 C   0  0  0  0  0  0  0  0  0  0  0  0
   57.7760   33.1970   44.1170 C   0  0  0  0  0  0  0  0  0  0  0  0
   57.6310   31.9410   44.7240 C   0  0  0  0  0  0  0  0  0  0  0  0
   57.3230   30.8570   43.9690 F   0  0  0  0  0  0  0  0  0  0  0  0
   57.8040   31.8070   46.1070 C   0  0  0  0  0  0  0  0  0  0  0  0
   60.2188   31.9243   46.0849 H   0  0  0  0  0  0  0  0  0  0  0  0
   62.0010   32.1264   46.3299 H   0  0  0  0  0  0  0  0  0  0  0  0
   62.1438   30.2495   47.5580 H   0  0  0  0  0  0  0  0  0  0  0  0
   60.7091   30.7249   48.5591 H   0  0  0  0  0  0  0  0  0  0  0  0
   59.6015   28.6026   48.6842 H   0  0  0  0  0  0  0  0  0  0  0  0
   58.1970   26.9030   47.5214 H   0  0  0  0  0  0  0  0  0  0  0  0
   56.8845   27.1954   44.3999 H   0  0  0  0  0  0  0  0  0  0  0  0
   58.3248   26.1679   44.0412 H   0  0  0  0  0  0  0  0  0  0  0  0
   59.2724   28.6294   43.6967 H   0  0  0  0  0  0  0  0  0  0  0  0
   60.7050   30.3034   44.8568 H   0  0  0  0  0  0  0  0  0  0  0  0
   57.9833   31.7826   48.6875 H   0  0  0  0  0  0  0  0  0  0  0  0
   57.7206   33.5556   48.8820 H   0  0  0  0  0  0  0  0  0  0  0  0
   58.5533   35.0627   46.8731 H   0  0  0  0  0  0  0  0  0  0  0  0
   58.2080   35.3016   44.4133 H   0  0  0  0  0  0  0  0  0  0  0  0
   57.6339   33.3020   43.0313 H   0  0  0  0  0  0  0  0  0  0  0  0
   57.6728   30.8242   46.5833 H   0  0  0  0  0  0  0  0  0  0  0  0
  1  2  2  0
  2  3  1  0
  3  4  1  0
  4  5  1  0
  5  6  2  0
  6  7  1  0
  7  8  2  0
  8  9  1  0
  9 10  1  0
 10 11  2  0
 11 12  1  0
 11 13  1  0
 13 14  1  0
 14 15  2  0
 14 16  1  0
 16 17  1  0
 17 18  2  0
  8 19  1  0
 19 20  2  0
  2 21  1  0
 21 22  1  0
 22 23  1  0
 23 24  2  0
 24 25  1  0
 25 26  2  0
 26 27  1  0
 27 28  1  0
 27 29  2  0
 20  5  1  0
 29 23  1  0
 17 10  1  0
  3 30  1  0
  3 31  1  0
  4 32  1  0
  4 33  1  0
  6 34  1  0
  7 35  1  0
  9 36  1  0
  9 37  1  0
 19 38  1  0
 20 39  1  0
 22 40  1  0
 22 41  1  0
 24 42  1  0
 25 43  1  0
 26 44  1  0
 29 45  1  0
M  CHG  4  12  -1  13  -1  16  -1  21  -1
M  END
>  <UniqueID>  (77) 
73

>  <SMILES>  (77) 
O=C(CCc1ccc(Cc2c([O-])[n-]c(=O)[n-]c2=O)cc1)[N-]Cc1cccc(F)c1

>  <Energy>  (77) 
39.03542986677395

>  <Genealogy>  (77) 
O=C(CCc1ccc(Cc2c([O-])[n-]c(=O)[n-]c2=O)cc1)[N-]Cc1cccc(F)c1 (protonated)
O=C(CCc1ccc(Cc2c([O-])[n-]c(=O)[n-]c2=O)cc1)[N-]Cc1cccc(F)c1 (3D coordinates assigned)
O=C(CCc1ccc(Cc2c([O-])[n-]c(=O)[n-]c2=O)cc1)[N-]Cc1cccc(F)c1 (optimized conformer: 39.03542986677395 kcal/mol)

>  <smiles>  (77) 
O=C(CCc1ccc(Cc2c(O)[nH]c(=O)[nH]c2=O)cc1)NCc1cccc(F)c1

>  <score_type>  (77) 
oracle

>  <origin>  (77) 
adg

>  <m_score__min__energy>  (77) 
-17.539999999999999

>  <m_primary>  (77) 
energy

$$$$
77:0
     RDKit          3D

 48 50  0  0  0  0  0  0  0  0999 V2000
   57.2120   21.2100   42.8810 C   0  0  0  0  0  0  0  0  0  0  0  0
   56.2620   22.1550   43.3640 O   0  0  0  0  0  0  0  0  0  0  0  0
   56.5900   23.3130   44.0850 C   0  0  0  0  0  0  0  0  0  0  0  0
   57.8890   23.8560   44.0760 C   0  0  0  0  0  0  0  0  0  0  0  0
   58.1790   25.0080   44.8110 C   0  0  0  0  0  0  0  0  0  0  0  0
   57.1760   25.6460   45.5520 C   0  0  0  0  0  0  0  0  0  0  0  0
   57.4900   26.8660   46.3750 C   0  0  0  0  0  0  0  0  0  0  0  0
   58.2670   27.8890   45.5370 C   0  0  0  0  0  0  0  0  0  0  0  0
   57.7330   27.9950   44.1770 N   0  0  0  0  0  0  0  0  0  0  0  0
   56.6330   29.3350   43.9860 S   0  0  0  0  0  0  0  0  0  0  0  0
   56.0930   29.3210   42.5830 O   0  0  0  0  0  0  0  0  0  0  0  0
   55.4800   29.1470   44.9320 O   0  0  0  0  0  0  0  0  0  0  0  0
   57.3890   30.9070   44.2770 C   0  0  0  0  0  0  0  0  0  0  0  0
   57.5820   31.8080   43.2280 C   0  0  0  0  0  0  0  0  0  0  0  0
   58.1460   33.0590   43.4750 C   0  0  0  0  0  0  0  0  0  0  0  0
   58.5250   33.4420   44.7690 C   0  0  0  0  0  0  0  0  0  0  0  0
   58.3700   32.5080   45.8360 C   0  0  0  0  0  0  0  0  0  0  0  0
   57.7930   31.2590   45.5670 C   0  0  0  0  0  0  0  0  0  0  0  0
   58.7580   32.7260   47.1650 O   0  0  0  0  0  0  0  0  0  0  0  0
   58.9880   33.9810   47.7810 C   0  0  0  0  0  0  0  0  0  0  0  0
   60.2020   34.6510   47.1680 C   0  0  0  0  0  0  0  0  0  0  0  0
   59.8020   35.3920   45.9380 C   0  0  0  0  0  0  0  0  0  0  0  0
   60.1450   36.5960   45.8070 O   0  0  0  0  0  0  0  0  0  0  0  0
   59.0260   34.7820   44.9040 N   0  0  0  0  0  0  0  0  0  0  0  0
   55.8820   25.1050   45.5660 C   0  0  0  0  0  0  0  0  0  0  0  0
   55.5830   23.9360   44.8390 C   0  0  0  0  0  0  0  0  0  0  0  0
   54.3030   23.3630   44.8480 O   0  0  0  0  0  0  0  0  0  0  0  0
   53.1050   24.0610   44.5240 C   0  0  0  0  0  0  0  0  0  0  0  0
   57.7059   20.7187   43.7323 H   0  0  0  0  0  0  0  0  0  0  0  0
   56.6985   20.4540   42.2688 H   0  0  0  0  0  0  0  0  0  0  0  0
   57.9653   21.7275   42.2688 H   0  0  0  0  0  0  0  0  0  0  0  0
   58.6805   23.3701   43.4865 H   0  0  0  0  0  0  0  0  0  0  0  0
   59.2004   25.4163   44.8079 H   0  0  0  0  0  0  0  0  0  0  0  0
   56.5506   27.3206   46.7228 H   0  0  0  0  0  0  0  0  0  0  0  0
   58.1061   26.5675   47.2360 H   0  0  0  0  0  0  0  0  0  0  0  0
   58.1996   28.8731   46.0239 H   0  0  0  0  0  0  0  0  0  0  0  0
   59.3121   27.5527   45.4691 H   0  0  0  0  0  0  0  0  0  0  0  0
   57.2886   31.5304   42.2048 H   0  0  0  0  0  0  0  0  0  0  0  0
   58.2963   33.7581   42.6391 H   0  0  0  0  0  0  0  0  0  0  0  0
   57.6555   30.5411   46.3890 H   0  0  0  0  0  0  0  0  0  0  0  0
   58.1069   34.6235   47.6366 H   0  0  0  0  0  0  0  0  0  0  0  0
   59.1680   33.8258   48.8550 H   0  0  0  0  0  0  0  0  0  0  0  0
   60.6361   35.3548   47.8935 H   0  0  0  0  0  0  0  0  0  0  0  0
   60.9459   33.8846   46.9048 H   0  0  0  0  0  0  0  0  0  0  0  0
   55.0921   25.5989   46.1510 H   0  0  0  0  0  0  0  0  0  0  0  0
   52.5926   24.3595   45.4504 H   0  0  0  0  0  0  0  0  0  0  0  0
   53.3506   24.9574   43.9356 H   0  0  0  0  0  0  0  0  0  0  0  0
   52.4463   23.4053   43.9356 H   0  0  0  0  0  0  0  0  0  0  0  0
  1  2  1  0
  2  3  1  0
  3  4  2  0
  4  5  1  0
  5  6  2  0
  6  7  1  0
  7  8  1  0
  8  9  1  0
  9 10  1  0
 10 11  2  0
 10 12  2  0
 10 13  1  0
 13 14  2  0
 14 15  1  0
 15 16  2  0
 16 17  1  0
 17 18  2  0
 17 19  1  0
 19 20  1  0
 20 21  1  0
 21 22  1  0
 22 23  2  0
 22 24  1  0
  6 25  1  0
 25 26  2  0
 26 27  1  0
 27 28  1  0
 26  3  1  0
 18 13  1  0
 24 16  1  0
  1 29  1  0
  1 30  1  0
  1 31  1  0
  4 32  1  0
  5 33  1  0
  7 34  1  0
  7 35  1  0
  8 36  1  0
  8 37  1  0
 14 38  1  0
 15 39  1  0
 18 40  1  0
 20 41  1  0
 20 42  1  0
 21 43  1  0
 21 44  1  0
 25 45  1  0
 28 46  1  0
 28 47  1  0
 28 48  1  0
M  CHG  2   9  -1  24  -1
M  END
>  <UniqueID>  (78) 
74

>  <SMILES>  (78) 
COc1ccc(CC[N-]S(=O)(=O)c2ccc3c(c2)OCCC(=O)[N-]3)cc1OC

>  <Energy>  (78) 
51.39670221452053

>  <Genealogy>  (78) 
COc1ccc(CC[N-]S(=O)(=O)c2ccc3c(c2)OCCC(=O)[N-]3)cc1OC (protonated)
COc1ccc(CC[N-]S(=O)(=O)c2ccc3c(c2)OCCC(=O)[N-]3)cc1OC (3D coordinates assigned)
COc1ccc(CC[N-]S(=O)(=O)c2ccc3c(c2)OCCC(=O)[N-]3)cc1OC (nonaromatic ring conformer: 51.39670221452053 kcal/mol)

>  <smiles>  (78) 
COc1ccc(CCNS(=O)(=O)c2ccc3c(c2)OCCC(=O)N3)cc1OC

>  <score_type>  (78) 
oracle

>  <origin>  (78) 
adg

>  <m_score__min__energy>  (78) 
-8.4000000000000004

>  <m_primary>  (78) 
energy

$$$$
78:0
     RDKit          3D

 44 46  0  0  0  0  0  0  0  0999 V2000
   56.1460   28.9880   42.6830 O   0  0  0  0  0  0  0  0  0  0  0  0
   56.3630   29.4890   43.8190 C   0  0  0  0  0  0  0  0  0  0  0  0
   55.9250   28.8000   44.9970 N   0  0  0  0  0  0  0  0  0  0  0  0
   56.7760   27.9150   45.7880 C   0  0  2  0  0  0  0  0  0  0  0  0
   58.1200   27.6890   45.0720 C   0  0  0  0  0  0  0  0  0  0  0  0
   59.2280   28.4540   45.7310 C   0  0  0  0  0  0  0  0  0  0  0  0
   59.3850   28.6550   47.0810 C   0  0  0  0  0  0  0  0  0  0  0  0
   60.4550   29.4430   47.2800 N   0  0  0  0  0  0  0  0  0  0  0  0
   60.9130   29.7010   46.0360 C   0  0  0  0  0  0  0  0  0  0  0  0
   60.1850   29.1180   45.0600 N   0  0  0  0  0  0  0  0  0  0  0  0
   56.0580   26.6140   46.0050 C   0  0  0  0  0  0  0  0  0  0  0  0
   54.7990   26.5770   46.0320 O   0  0  0  0  0  0  0  0  0  0  0  0
   56.7820   25.4370   46.1390 O   0  0  0  0  0  0  0  0  0  0  0  0
   57.0790   30.7810   43.9350 C   0  0  0  0  0  0  0  0  0  0  0  0
   57.4430   31.5030   42.7840 C   0  0  0  0  0  0  0  0  0  0  0  0
   58.1150   32.7230   42.8990 C   0  0  0  0  0  0  0  0  0  0  0  0
   58.4380   33.2330   44.1570 C   0  0  0  0  0  0  0  0  0  0  0  0
   58.0890   32.5240   45.3120 C   0  0  0  0  0  0  0  0  0  0  0  0
   58.5130   33.1490   46.9040 S   0  0  0  0  0  0  0  0  0  0  0  0
   57.3070   33.0540   47.7940 O   0  0  0  0  0  0  0  0  0  0  0  0
   58.9430   34.5870   46.8120 O   0  0  0  0  0  0  0  0  0  0  0  0
   59.8050   32.2150   47.5890 N   0  0  0  0  0  0  0  0  0  0  0  0
   61.1880   32.6150   47.5540 C   0  0  0  0  0  0  0  0  0  0  0  0
   61.6790   33.4860   46.5610 C   0  0  0  0  0  0  0  0  0  0  0  0
   63.0290   33.8480   46.5410 C   0  0  0  0  0  0  0  0  0  0  0  0
   63.9010   33.3520   47.5110 C   0  0  0  0  0  0  0  0  0  0  0  0
   63.4260   32.4970   48.5060 C   0  0  0  0  0  0  0  0  0  0  0  0
   62.0760   32.1310   48.5320 C   0  0  0  0  0  0  0  0  0  0  0  0
   61.6390   31.2920   49.5050 F   0  0  0  0  0  0  0  0  0  0  0  0
   57.4060   31.3060   45.2000 C   0  0  0  0  0  0  0  0  0  0  0  0
   56.9885   28.3759   46.7639 H   0  0  0  0  0  0  0  0  0  0  0  0
   58.3623   26.6163   45.0965 H   0  0  0  0  0  0  0  0  0  0  0  0
   58.0234   28.0446   44.0356 H   0  0  0  0  0  0  0  0  0  0  0  0
   58.7406   28.2391   47.8695 H   0  0  0  0  0  0  0  0  0  0  0  0
   61.7955   30.3268   45.8369 H   0  0  0  0  0  0  0  0  0  0  0  0
   57.1975   31.1053   41.7882 H   0  0  0  0  0  0  0  0  0  0  0  0
   58.3905   33.2837   41.9937 H   0  0  0  0  0  0  0  0  0  0  0  0
   58.9676   34.1935   44.2410 H   0  0  0  0  0  0  0  0  0  0  0  0
   59.5560   31.2690   47.9530 H   0  0  0  0  0  0  0  0  0  0  0  0
   60.9954   33.8837   45.7965 H   0  0  0  0  0  0  0  0  0  0  0  0
   63.4045   34.5249   45.7595 H   0  0  0  0  0  0  0  0  0  0  0  0
   64.9637   33.6353   47.4912 H   0  0  0  0  0  0  0  0  0  0  0  0
   64.1144   32.1099   49.2716 H   0  0  0  0  0  0  0  0  0  0  0  0
   57.1225   30.7547   46.1087 H   0  0  0  0  0  0  0  0  0  0  0  0
  1  2  2  0
  2  3  1  0
  3  4  1  0
  4  5  1  0
  5  6  1  0
  6  7  2  0
  7  8  1  0
  8  9  1  0
  9 10  2  0
  4 11  1  0
 11 12  2  0
 11 13  1  0
  2 14  1  0
 14 15  2  0
 15 16  1  0
 16 17  2  0
 17 18  1  0
 18 19  1  0
 19 20  2  0
 19 21  2  0
 19 22  1  0
 22 23  1  0
 23 24  2  0
 24 25  1  0
 25 26  2  0
 26 27  1  0
 27 28  2  0
 28 29  1  0
 18 30  2  0
 10  6  1  0
 30 14  1  0
 28 23  1  0
  4 31  1  1
  5 32  1  0
  5 33  1  0
  7 34  1  0
  9 35  1  0
 15 36  1  0
 16 37  1  0
 17 38  1  0
 22 39  1  0
 24 40  1  0
 25 41  1  0
 26 42  1  0
 27 43  1  0
 30 44  1  0
M  CHG  3   3  -1   8  -1  13  -1
M  END
>  <UniqueID>  (79) 
75

>  <SMILES>  (79) 
O=C([N-][C@H](Cc1c[n-]cn1)C(=O)[O-])c1cccc(S(=O)(=O)Nc2ccccc2F)c1

>  <Energy>  (79) 
73.14555187099891

>  <Genealogy>  (79) 
O=C([N-]C(Cc1c[n-]cn1)C(=O)[O-])c1cccc(S(=O)(=O)Nc2ccccc2F)c1 (protonated)
O=C([N-][C@H](Cc1c[n-]cn1)C(=O)[O-])c1cccc(S(=O)(=O)Nc2ccccc2F)c1 (chirality)
O=C([N-][C@H](Cc1c[n-]cn1)C(=O)[O-])c1cccc(S(=O)(=O)Nc2ccccc2F)c1 (3D coordinates assigned)
O=C([N-][C@H](Cc1c[n-]cn1)C(=O)[O-])c1cccc(S(=O)(=O)Nc2ccccc2F)c1 (optimized conformer: 73.14555187099891 kcal/mol)

>  <smiles>  (79) 
O=C(NC(Cc1c[nH]cn1)C(=O)O)c1cccc(S(=O)(=O)Nc2ccccc2F)c1

>  <score_type>  (79) 
oracle

>  <origin>  (79) 
adg

>  <m_score__min__energy>  (79) 
-14.85

>  <m_primary>  (79) 
energy

$$$$
79:0
     RDKit          3D

 45 48  0  0  0  0  0  0  0  0999 V2000
   57.9190   22.1580   45.8250 C   0  0  0  0  0  0  0  0  0  0  0  0
   57.3600   23.5480   45.7910 C   0  0  0  0  0  0  0  0  0  0  0  0
   56.0870   23.7930   46.2830 C   0  0  0  0  0  0  0  0  0  0  0  0
   55.5260   25.0660   46.2780 C   0  0  0  0  0  0  0  0  0  0  0  0
   56.2770   26.1210   45.7600 C   0  0  0  0  0  0  0  0  0  0  0  0
   56.0390   27.4550   45.6150 N   0  0  0  0  0  0  0  0  0  0  0  0
   57.1030   28.0430   45.0600 C   0  0  0  0  0  0  0  0  0  0  0  0
   57.3310   29.4470   44.7350 C   0  0  0  0  0  0  0  0  0  0  0  0
   58.0690   30.2770   45.5550 C   0  0  0  0  0  0  0  0  0  0  0  0
   58.2700   31.6140   45.1800 C   0  0  0  0  0  0  0  0  0  0  0  0
   59.0250   32.5110   45.9740 N   0  0  0  0  0  0  0  0  0  0  0  0
   58.5520   33.2770   47.0440 C   0  0  0  0  0  0  0  0  0  0  0  0
   57.3260   33.1780   47.3570 O   0  0  0  0  0  0  0  0  0  0  0  0
   59.3880   34.1900   47.8330 C   0  0  0  0  0  0  0  0  0  0  0  0
   60.8350   33.8570   47.7850 C   0  0  0  0  0  0  0  0  0  0  0  0
   61.4820   34.1020   46.5870 C   0  0  0  0  0  0  0  0  0  0  0  0
   62.8350   33.8340   46.4070 C   0  0  0  0  0  0  0  0  0  0  0  0
   63.5560   33.3020   47.4800 C   0  0  0  0  0  0  0  0  0  0  0  0
   62.9100   33.0540   48.6870 C   0  0  0  0  0  0  0  0  0  0  0  0
   61.5440   33.3340   48.8380 C   0  0  0  0  0  0  0  0  0  0  0  0
   60.7150   33.0240   50.3590 Cl  0  0  0  0  0  0  0  0  0  0  0  0
   57.7290   32.1040   43.9930 C   0  0  0  0  0  0  0  0  0  0  0  0
   56.9800   31.2670   43.1620 C   0  0  0  0  0  0  0  0  0  0  0  0
   56.8110   29.9730   43.5650 C   0  0  0  0  0  0  0  0  0  0  0  0
   56.0820   29.1590   42.7580 F   0  0  0  0  0  0  0  0  0  0  0  0
   58.0050   27.0630   44.8600 N   0  0  0  0  0  0  0  0  0  0  0  0
   57.5460   25.8680   45.2720 C   0  0  0  0  0  0  0  0  0  0  0  0
   58.1110   24.6060   45.2730 C   0  0  0  0  0  0  0  0  0  0  0  0
   58.0470   21.8397   46.8701 H   0  0  0  0  0  0  0  0  0  0  0  0
   57.2269   21.4719   45.3149 H   0  0  0  0  0  0  0  0  0  0  0  0
   58.8934   22.1421   45.3149 H   0  0  0  0  0  0  0  0  0  0  0  0
   55.5025   22.9547   46.6899 H   0  0  0  0  0  0  0  0  0  0  0  0
   54.5138   25.2366   46.6733 H   0  0  0  0  0  0  0  0  0  0  0  0
   55.1570   27.9490   45.8960 H   0  0  0  0  0  0  0  0  0  0  0  0
   58.4955   29.8937   46.4937 H   0  0  0  0  0  0  0  0  0  0  0  0
   60.0390   32.6110   45.7230 H   0  0  0  0  0  0  0  0  0  0  0  0
   59.2522   35.2102   47.4447 H   0  0  0  0  0  0  0  0  0  0  0  0
   59.0687   34.0975   48.8816 H   0  0  0  0  0  0  0  0  0  0  0  0
   60.9073   34.5228   45.7488 H   0  0  0  0  0  0  0  0  0  0  0  0
   63.3258   34.0358   45.4435 H   0  0  0  0  0  0  0  0  0  0  0  0
   64.6280   33.0807   47.3706 H   0  0  0  0  0  0  0  0  0  0  0  0
   63.4763   32.6341   49.5314 H   0  0  0  0  0  0  0  0  0  0  0  0
   57.8923   33.1541   43.7091 H   0  0  0  0  0  0  0  0  0  0  0  0
   56.5442   31.6352   42.2215 H   0  0  0  0  0  0  0  0  0  0  0  0
   59.1237   24.4397   44.8769 H   0  0  0  0  0  0  0  0  0  0  0  0
  1  2  1  0
  2  3  2  0
  3  4  1  0
  4  5  2  0
  5  6  1  0
  6  7  1  0
  7  8  1  0
  8  9  2  0
  9 10  1  0
 10 11  1  0
 11 12  1  0
 12 13  2  0
 12 14  1  0
 14 15  1  0
 15 16  2  0
 16 17  1  0
 17 18  2  0
 18 19  1  0
 19 20  2  0
 20 21  1  0
 10 22  2  0
 22 23  1  0
 23 24  2  0
 24 25  1  0
  7 26  2  0
 26 27  1  0
 27 28  2  0
 28  2  1  0
 27  5  1  0
 24  8  1  0
 20 15  1  0
  1 29  1  0
  1 30  1  0
  1 31  1  0
  3 32  1  0
  4 33  1  0
  6 34  1  0
  9 35  1  0
 11 36  1  0
 14 37  1  0
 14 38  1  0
 16 39  1  0
 17 40  1  0
 18 41  1  0
 19 42  1  0
 22 43  1  0
 23 44  1  0
 28 45  1  0
M  END
>  <smiles>  (80) 
Cc1ccc2[nH]c(-c3cc(NC(=O)Cc4ccccc4Cl)ccc3F)nc2c1

>  <score_type>  (80) 
oracle

>  <origin>  (80) 
adg

>  <m_score__min__energy>  (80) 
-8.9900000000000002

>  <m_primary>  (80) 
energy

$$$$
80:0
     RDKit          3D

 50 52  0  0  0  0  0  0  0  0999 V2000
   55.9870   30.8740   51.6170 N   0  0  0  0  0  0  0  0  0  0  0  0
   57.5120   31.5380   52.0890 S   0  0  0  0  0  0  0  0  0  0  0  0
   57.7590   31.2520   53.5440 O   0  0  0  0  0  0  0  0  0  0  0  0
   57.4940   33.0270   51.8830 O   0  0  0  0  0  0  0  0  0  0  0  0
   58.7890   30.8120   51.1190 C   0  0  0  0  0  0  0  0  0  0  0  0
   60.0430   30.5430   51.6820 C   0  0  0  0  0  0  0  0  0  0  0  0
   61.0570   29.9870   50.9010 C   0  0  0  0  0  0  0  0  0  0  0  0
   60.8270   29.6920   49.5550 C   0  0  0  0  0  0  0  0  0  0  0  0
   59.5670   29.9450   48.9770 C   0  0  0  0  0  0  0  0  0  0  0  0
   59.3040   29.6870   47.5850 N   0  0  0  0  0  0  0  0  0  0  0  0
   58.6480   28.5120   47.0790 C   0  0  0  0  0  0  0  0  0  0  0  0
   58.0460   27.7250   47.8600 O   0  0  0  0  0  0  0  0  0  0  0  0
   58.5800   28.2640   45.6030 C   0  0  0  0  0  0  0  0  0  0  0  0
   57.1980   28.2470   45.1330 N   0  0  0  0  0  0  0  0  0  0  0  0
   56.4240   29.4100   44.8120 C   0  0  0  0  0  0  0  0  0  0  0  0
   55.1670   29.3390   44.8420 O   0  0  0  0  0  0  0  0  0  0  0  0
   57.0590   30.6770   44.4210 C   0  0  0  0  0  0  0  0  0  0  0  0
   57.0770   31.0700   43.0770 C   0  0  0  0  0  0  0  0  0  0  0  0
   57.6770   32.2750   42.7070 C   0  0  0  0  0  0  0  0  0  0  0  0
   58.2770   33.0860   43.6740 C   0  0  0  0  0  0  0  0  0  0  0  0
   58.2850   32.6910   45.0190 C   0  0  0  0  0  0  0  0  0  0  0  0
   59.0620   33.7130   46.2210 S   0  0  0  0  0  0  0  0  0  0  0  0
   60.0950   34.5860   45.5620 O   0  0  0  0  0  0  0  0  0  0  0  0
   58.0190   34.5730   46.8810 O   0  0  0  0  0  0  0  0  0  0  0  0
   59.8350   32.7050   47.4010 N   0  0  0  0  0  0  0  0  0  0  0  0
   61.2070   32.8120   47.8090 C   0  0  0  0  0  0  0  0  0  0  0  0
   61.6710   33.8890   48.5880 C   0  0  0  0  0  0  0  0  0  0  0  0
   63.0160   33.9600   48.9630 C   0  0  0  0  0  0  0  0  0  0  0  0
   63.9090   32.9620   48.5660 C   0  0  0  0  0  0  0  0  0  0  0  0
   63.4550   31.8870   47.7970 C   0  0  0  0  0  0  0  0  0  0  0  0
   62.1100   31.8090   47.4200 C   0  0  0  0  0  0  0  0  0  0  0  0
   61.6720   30.7280   46.6610 O   0  0  0  0  0  0  0  0  0  0  0  0
   57.6790   31.4820   45.3900 C   0  0  0  0  0  0  0  0  0  0  0  0
   58.5590   30.5230   49.7660 C   0  0  0  0  0  0  0  0  0  0  0  0
   55.5170   31.5870   51.0170 H   0  0  0  0  0  0  0  0  0  0  0  0
   60.2289   30.7705   52.7420 H   0  0  0  0  0  0  0  0  0  0  0  0
   62.0411   29.7802   51.3469 H   0  0  0  0  0  0  0  0  0  0  0  0
   61.6331   29.2603   48.9436 H   0  0  0  0  0  0  0  0  0  0  0  0
   59.5430   30.4370   46.8970 H   0  0  0  0  0  0  0  0  0  0  0  0
   59.1271   29.0620   45.0796 H   0  0  0  0  0  0  0  0  0  0  0  0
   59.0308   27.2827   45.3938 H   0  0  0  0  0  0  0  0  0  0  0  0
   56.6174   30.4279   42.3112 H   0  0  0  0  0  0  0  0  0  0  0  0
   57.6775   32.5867   41.6521 H   0  0  0  0  0  0  0  0  0  0  0  0
   58.7444   34.0371   43.3789 H   0  0  0  0  0  0  0  0  0  0  0  0
   60.9723   34.6780   48.9030 H   0  0  0  0  0  0  0  0  0  0  0  0
   63.3719   34.8039   49.5722 H   0  0  0  0  0  0  0  0  0  0  0  0
   64.9678   33.0221   48.8581 H   0  0  0  0  0  0  0  0  0  0  0  0
   64.1576   31.0994   47.4871 H   0  0  0  0  0  0  0  0  0  0  0  0
   57.6894   31.1635   46.4428 H   0  0  0  0  0  0  0  0  0  0  0  0
   57.5803   30.7511   49.3187 H   0  0  0  0  0  0  0  0  0  0  0  0
  1  2  1  0
  2  3  2  0
  2  4  2  0
  2  5  1  0
  5  6  2  0
  6  7  1  0
  7  8  2  0
  8  9  1  0
  9 10  1  0
 10 11  1  0
 11 12  2  0
 11 13  1  0
 13 14  1  0
 14 15  1  0
 15 16  2  0
 15 17  1  0
 17 18  2  0
 18 19  1  0
 19 20  2  0
 20 21  1  0
 21 22  1  0
 22 23  2  0
 22 24  2  0
 22 25  1  0
 25 26  1  0
 26 27  2  0
 27 28  1  0
 28 29  2  0
 29 30  1  0
 30 31  2  0
 31 32  1  0
 21 33  2  0
  9 34  2  0
 34  5  1  0
 33 17  1  0
 31 26  1  0
  1 35  1  0
  6 36  1  0
  7 37  1  0
  8 38  1  0
 10 39  1  0
 13 40  1  0
 13 41  1  0
 18 42  1  0
 19 43  1  0
 20 44  1  0
 27 45  1  0
 28 46  1  0
 29 47  1  0
 30 48  1  0
 33 49  1  0
 34 50  1  0
M  CHG  4   1  -1  14  -1  25  -1  32  -1
M  END
>  <UniqueID>  (81) 
76

>  <SMILES>  (81) 
[NH-]S(=O)(=O)c1cccc(NC(=O)C[N-]C(=O)c2cccc(S(=O)(=O)[N-]c3ccccc3[O-])c2)c1

>  <Energy>  (81) 
63.72457920580091

>  <Genealogy>  (81) 
[NH-]S(=O)(=O)c1cccc(NC(=O)C[N-]C(=O)c2cccc(S(=O)(=O)[N-]c3ccccc3[O-])c2)c1 (protonated)
[NH-]S(=O)(=O)c1cccc(NC(=O)C[N-]C(=O)c2cccc(S(=O)(=O)[N-]c3ccccc3[O-])c2)c1 (3D coordinates assigned)
[NH-]S(=O)(=O)c1cccc(NC(=O)C[N-]C(=O)c2cccc(S(=O)(=O)[N-]c3ccccc3[O-])c2)c1 (optimized conformer: 63.72457920580091 kcal/mol)

>  <smiles>  (81) 
NS(=O)(=O)c1cccc(NC(=O)CNC(=O)c2cccc(S(=O)(=O)Nc3ccccc3O)c2)c1

>  <score_type>  (81) 
oracle

>  <origin>  (81) 
adg

>  <m_score__min__energy>  (81) 
-19.75

>  <m_primary>  (81) 
energy

$$$$
81:0
     RDKit          3D

 33 35  0  0  0  0  0  0  0  0999 V2000
   55.1130   26.4160   45.9890 N   0  0  0  0  0  0  0  0  0  0  0  0
   56.8240   26.6500   45.9850 S   0  0  0  0  0  0  0  0  0  0  0  0
   57.4570   25.7250   44.9820 O   0  0  0  0  0  0  0  0  0  0  0  0
   57.3760   26.3330   47.3470 O   0  0  0  0  0  0  0  0  0  0  0  0
   57.1890   28.3210   45.5660 C   0  0  0  0  0  0  0  0  0  0  0  0
   58.1670   29.0270   46.2760 C   0  0  0  0  0  0  0  0  0  0  0  0
   58.4670   30.3490   45.9400 C   0  0  0  0  0  0  0  0  0  0  0  0
   57.7890   30.9870   44.8830 C   0  0  0  0  0  0  0  0  0  0  0  0
   58.0640   32.3510   44.5150 N   0  0  0  0  0  0  0  0  0  0  0  0
   57.9590   33.6900   45.6140 S   0  0  0  0  0  0  0  0  0  0  0  0
   56.6410   33.6390   46.3330 O   0  0  0  0  0  0  0  0  0  0  0  0
   58.0430   34.9730   44.8360 O   0  0  0  0  0  0  0  0  0  0  0  0
   59.2540   33.5970   46.8030 C   0  0  0  0  0  0  0  0  0  0  0  0
   58.9500   33.5180   48.1850 C   0  0  0  0  0  0  0  0  0  0  0  0
   59.9820   33.4590   49.1410 C   0  0  0  0  0  0  0  0  0  0  0  0
   61.2950   33.4790   48.6780 C   0  0  0  0  0  0  0  0  0  0  0  0
   62.4220   33.4350   49.4050 N   0  0  0  0  0  0  0  0  0  0  0  0
   63.3800   33.4850   48.4440 C   0  0  0  0  0  0  0  0  0  0  0  0
   64.6080   33.4650   48.7170 O   0  0  0  0  0  0  0  0  0  0  0  0
   62.9190   33.5550   47.1690 N   0  0  0  0  0  0  0  0  0  0  0  0
   61.5910   33.5510   47.3510 C   0  0  0  0  0  0  0  0  0  0  0  0
   60.5990   33.6080   46.3760 C   0  0  0  0  0  0  0  0  0  0  0  0
   56.8220   30.2670   44.1650 C   0  0  0  0  0  0  0  0  0  0  0  0
   56.5240   28.9430   44.5030 C   0  0  0  0  0  0  0  0  0  0  0  0
   54.7190   27.0610   46.7110 H   0  0  0  0  0  0  0  0  0  0  0  0
   58.7023   28.5379   47.1032 H   0  0  0  0  0  0  0  0  0  0  0  0
   59.2373   30.8952   46.5042 H   0  0  0  0  0  0  0  0  0  0  0  0
   58.2600   32.5760   43.5140 H   0  0  0  0  0  0  0  0  0  0  0  0
   57.9002   33.5027   48.5131 H   0  0  0  0  0  0  0  0  0  0  0  0
   59.7587   33.3992   50.2164 H   0  0  0  0  0  0  0  0  0  0  0  0
   60.8552   33.6599   45.3075 H   0  0  0  0  0  0  0  0  0  0  0  0
   56.2936   30.7482   43.3288 H   0  0  0  0  0  0  0  0  0  0  0  0
   55.7647   28.3888   43.9317 H   0  0  0  0  0  0  0  0  0  0  0  0
  1  2  1  0
  2  3  2  0
  2  4  2  0
  2  5  1  0
  5  6  2  0
  6  7  1  0
  7  8  2  0
  8  9  1  0
  9 10  1  0
 10 11  2  0
 10 12  2  0
 10 13  1  0
 13 14  2  0
 14 15  1  0
 15 16  2  0
 16 17  1  0
 17 18  1  0
 18 19  2  0
 18 20  1  0
 20 21  1  0
 21 22  2  0
  8 23  1  0
 23 24  2  0
 24  5  1  0
 22 13  1  0
 21 16  1  0
  1 25  1  0
  6 26  1  0
  7 27  1  0
  9 28  1  0
 14 29  1  0
 15 30  1  0
 22 31  1  0
 23 32  1  0
 24 33  1  0
M  CHG  3   1  -1  17  -1  20  -1
M  END
>  <UniqueID>  (82) 
77

>  <SMILES>  (82) 
[NH-]S(=O)(=O)c1ccc(NS(=O)(=O)c2ccc3[n-]c(=O)[n-]c3c2)cc1

>  <Energy>  (82) 
73.20740792205503

>  <Genealogy>  (82) 
[NH-]S(=O)(=O)c1ccc(NS(=O)(=O)c2ccc3[n-]c(=O)[n-]c3c2)cc1 (protonated)
[NH-]S(=O)(=O)c1ccc(NS(=O)(=O)c2ccc3[n-]c(=O)[n-]c3c2)cc1 (3D coordinates assigned)
[NH-]S(=O)(=O)c1ccc(NS(=O)(=O)c2ccc3[n-]c(=O)[n-]c3c2)cc1 (optimized conformer: 73.20740792205503 kcal/mol)

>  <smiles>  (82) 
NS(=O)(=O)c1ccc(NS(=O)(=O)c2ccc3[nH]c(=O)[nH]c3c2)cc1

>  <score_type>  (82) 
oracle

>  <origin>  (82) 
adg

>  <m_score__min__energy>  (82) 
-12.44

>  <m_primary>  (82) 
energy

$$$$
82:0
     RDKit          3D

 45 47  0  0  0  0  0  0  0  0999 V2000
   63.0810   33.5080   48.8880 C   0  0  0  0  0  0  0  0  0  0  0  0
   61.6760   33.6730   49.0510 O   0  0  0  0  0  0  0  0  0  0  0  0
   60.7340   33.5540   48.0170 C   0  0  0  0  0  0  0  0  0  0  0  0
   60.9450   34.1320   46.7500 C   0  0  0  0  0  0  0  0  0  0  0  0
   59.9800   34.0150   45.7490 C   0  0  0  0  0  0  0  0  0  0  0  0
   58.7900   33.3230   45.9940 C   0  0  0  0  0  0  0  0  0  0  0  0
   57.6020   33.1520   44.7050 S   0  0  0  0  0  0  0  0  0  0  0  0
   58.3240   33.1060   43.3880 O   0  0  0  0  0  0  0  0  0  0  0  0
   56.6460   34.3120   44.6950 O   0  0  0  0  0  0  0  0  0  0  0  0
   56.7120   31.6780   44.9260 N   0  0  0  0  0  0  0  0  0  0  0  0
   57.3180   30.3720   44.8970 C   0  0  0  0  0  0  0  0  0  0  0  0
   58.7070   30.2120   44.7220 C   0  0  0  0  0  0  0  0  0  0  0  0
   59.2760   28.9360   44.6920 C   0  0  0  0  0  0  0  0  0  0  0  0
   58.4700   27.8070   44.8430 C   0  0  0  0  0  0  0  0  0  0  0  0
   57.0950   27.9500   45.0290 C   0  0  0  0  0  0  0  0  0  0  0  0
   56.5170   29.2240   45.0580 C   0  0  0  0  0  0  0  0  0  0  0  0
   55.1430   29.3410   45.2400 O   0  0  0  0  0  0  0  0  0  0  0  0
   58.5710   32.7450   47.2500 C   0  0  0  0  0  0  0  0  0  0  0  0
   59.5380   32.8510   48.2620 C   0  0  0  0  0  0  0  0  0  0  0  0
   59.3040   32.2180   49.5320 N   0  0  0  0  0  0  0  0  0  0  0  0
   58.7620   30.8550   49.5850 C   0  0  0  0  0  0  0  0  0  0  0  0
   58.0550   30.6090   50.9260 C   0  0  0  0  0  0  0  0  0  0  0  0
   57.2890   31.7970   51.3260 N   0  0  0  0  0  0  0  0  0  0  0  0
   58.1520   32.9670   51.5900 C   0  0  0  0  0  0  0  0  0  0  0  0
   59.4660   32.9690   50.7800 C   0  0  0  0  0  0  0  0  0  0  0  0
   63.5607   33.4517   49.8763 H   0  0  0  0  0  0  0  0  0  0  0  0
   63.2791   32.5804   48.3309 H   0  0  0  0  0  0  0  0  0  0  0  0
   63.4886   34.3645   48.3309 H   0  0  0  0  0  0  0  0  0  0  0  0
   61.8774   34.6797   46.5482 H   0  0  0  0  0  0  0  0  0  0  0  0
   60.1562   34.4692   44.7628 H   0  0  0  0  0  0  0  0  0  0  0  0
   55.6720   31.7630   44.9690 H   0  0  0  0  0  0  0  0  0  0  0  0
   59.3484   31.0984   44.6081 H   0  0  0  0  0  0  0  0  0  0  0  0
   60.3607   28.8215   44.5492 H   0  0  0  0  0  0  0  0  0  0  0  0
   58.9193   26.8033   44.8153 H   0  0  0  0  0  0  0  0  0  0  0  0
   56.4630   27.0583   45.1533 H   0  0  0  0  0  0  0  0  0  0  0  0
   57.6337   32.2034   47.4455 H   0  0  0  0  0  0  0  0  0  0  0  0
   58.0408   30.7201   48.7655 H   0  0  0  0  0  0  0  0  0  0  0  0
   59.5904   30.1385   49.4829 H   0  0  0  0  0  0  0  0  0  0  0  0
   57.3706   29.7539   50.8235 H   0  0  0  0  0  0  0  0  0  0  0  0
   58.8122   30.3967   51.6952 H   0  0  0  0  0  0  0  0  0  0  0  0
   56.6220   32.0370   50.5550 H   0  0  0  0  0  0  0  0  0  0  0  0
   57.5882   33.8773   51.3381 H   0  0  0  0  0  0  0  0  0  0  0  0
   58.4317   32.9247   52.6530 H   0  0  0  0  0  0  0  0  0  0  0  0
   59.7435   34.0069   50.5439 H   0  0  0  0  0  0  0  0  0  0  0  0
   60.2539   32.4918   51.3813 H   0  0  0  0  0  0  0  0  0  0  0  0
  1  2  1  0
  2  3  1  0
  3  4  2  0
  4  5  1  0
  5  6  2  0
  6  7  1  0
  7  8  2  0
  7  9  2  0
  7 10  1  0
 10 11  1  0
 11 12  2  0
 12 13  1  0
 13 14  2  0
 14 15  1  0
 15 16  2  0
 16 17  1  0
  6 18  1  0
 18 19  2  0
 19 20  1  0
 20 21  1  0
 21 22  1  0
 22 23  1  0
 23 24  1  0
 24 25  1  0
 19  3  1  0
 25 20  1  0
 16 11  1  0
  1 26  1  0
  1 27  1  0
  1 28  1  0
  4 29  1  0
  5 30  1  0
 10 31  1  0
 12 32  1  0
 13 33  1  0
 14 34  1  0
 15 35  1  0
 18 36  1  0
 21 37  1  0
 21 38  1  0
 22 39  1  0
 22 40  1  0
 23 41  1  0
 24 42  1  0
 24 43  1  0
 25 44  1  0
 25 45  1  0
M  CHG  1  17  -1
M  END
>  <UniqueID>  (83) 
78

>  <SMILES>  (83) 
COc1ccc(S(=O)(=O)Nc2ccccc2[O-])cc1N1CCNCC1

>  <Energy>  (83) 
58.28233186307143

>  <Genealogy>  (83) 
COc1ccc(S(=O)(=O)Nc2ccccc2[O-])cc1N1CCNCC1 (protonated)
COc1ccc(S(=O)(=O)Nc2ccccc2[O-])cc1N1CCNCC1 (3D coordinates assigned)
COc1ccc(S(=O)(=O)Nc2ccccc2[O-])cc1N1CCNCC1 (nonaromatic ring conformer: 58.28233186307143 kcal/mol)

>  <smiles>  (83) 
COc1ccc(S(=O)(=O)Nc2ccccc2O)cc1N1CCNCC1

>  <score_type>  (83) 
oracle

>  <origin>  (83) 
adg

>  <m_score__min__energy>  (83) 
-11.869999999999999

>  <m_primary>  (83) 
energy

$$$$
83:0
     RDKit          3D

 42 44  0  0  0  0  0  0  0  0999 V2000
   51.0430   32.3110   49.9830 O   0  0  0  0  0  0  0  0  0  0  0  0
   51.2510   32.1930   51.2190 C   0  0  0  0  0  0  0  0  0  0  0  0
   50.6580   33.0990   52.0920 O   0  0  0  0  0  0  0  0  0  0  0  0
   52.1140   31.1080   51.7370 C   0  0  0  0  0  0  0  0  0  0  0  0
   51.5410   29.9640   52.3150 C   0  0  0  0  0  0  0  0  0  0  0  0
   52.3520   28.9410   52.8080 C   0  0  0  0  0  0  0  0  0  0  0  0
   53.7410   29.0420   52.7250 C   0  0  0  0  0  0  0  0  0  0  0  0
   54.3400   30.1710   52.1380 C   0  0  0  0  0  0  0  0  0  0  0  0
   55.8150   30.2830   52.0390 C   0  0  0  0  0  0  0  0  0  0  0  0
   56.5350   29.3480   52.4870 O   0  0  0  0  0  0  0  0  0  0  0  0
   56.4320   31.4600   51.4890 N   0  0  0  0  0  0  0  0  0  0  0  0
   57.8260   31.5400   51.1460 C   0  0  0  0  0  0  0  0  0  0  0  0
   58.4830   32.7790   51.2200 C   0  0  0  0  0  0  0  0  0  0  0  0
   59.8360   32.8820   50.8900 C   0  0  0  0  0  0  0  0  0  0  0  0
   60.5430   31.7540   50.4670 C   0  0  0  0  0  0  0  0  0  0  0  0
   59.8930   30.5170   50.3600 C   0  0  0  0  0  0  0  0  0  0  0  0
   60.7610   29.0930   49.7910 S   0  0  0  0  0  0  0  0  0  0  0  0
   62.2190   29.1680   50.1520 O   0  0  0  0  0  0  0  0  0  0  0  0
   60.1670   27.8730   50.4370 O   0  0  0  0  0  0  0  0  0  0  0  0
   60.6060   28.9540   48.0680 N   0  0  0  0  0  0  0  0  0  0  0  0
   59.3800   28.7300   47.3600 C   0  0  0  0  0  0  0  0  0  0  0  0
   58.8000   29.8030   46.6690 C   0  0  0  0  0  0  0  0  0  0  0  0
   57.6040   29.6300   45.9680 C   0  0  0  0  0  0  0  0  0  0  0  0
   56.9760   28.3810   45.9510 C   0  0  0  0  0  0  0  0  0  0  0  0
   55.7870   28.2080   45.2550 O   0  0  0  0  0  0  0  0  0  0  0  0
   57.5460   27.3070   46.6400 C   0  0  0  0  0  0  0  0  0  0  0  0
   58.7370   27.4780   47.3490 C   0  0  0  0  0  0  0  0  0  0  0  0
   58.5360   30.4130   50.6950 C   0  0  0  0  0  0  0  0  0  0  0  0
   53.5150   31.2050   51.6560 C   0  0  0  0  0  0  0  0  0  0  0  0
   50.4466   29.8736   52.3796 H   0  0  0  0  0  0  0  0  0  0  0  0
   51.8941   28.0509   53.2641 H   0  0  0  0  0  0  0  0  0  0  0  0
   54.3721   28.2329   53.1214 H   0  0  0  0  0  0  0  0  0  0  0  0
   55.8820   32.3480   51.4910 H   0  0  0  0  0  0  0  0  0  0  0  0
   57.9286   33.6736   51.5398 H   0  0  0  0  0  0  0  0  0  0  0  0
   60.3462   33.8537   50.9633 H   0  0  0  0  0  0  0  0  0  0  0  0
   61.6112   31.8367   50.2176 H   0  0  0  0  0  0  0  0  0  0  0  0
   59.2899   30.7878   46.6788 H   0  0  0  0  0  0  0  0  0  0  0  0
   57.1558   30.4776   45.4287 H   0  0  0  0  0  0  0  0  0  0  0  0
   57.0546   26.3230   46.6238 H   0  0  0  0  0  0  0  0  0  0  0  0
   59.1736   26.6321   47.9002 H   0  0  0  0  0  0  0  0  0  0  0  0
   58.0233   29.4440   50.6046 H   0  0  0  0  0  0  0  0  0  0  0  0
   53.9721   32.1007   51.2101 H   0  0  0  0  0  0  0  0  0  0  0  0
  1  2  2  0
  2  3  1  0
  2  4  1  0
  4  5  2  0
  5  6  1  0
  6  7  2  0
  7  8  1  0
  8  9  1  0
  9 10  2  0
  9 11  1  0
 11 12  1  0
 12 13  2  0
 13 14  1  0
 14 15  2  0
 15 16  1  0
 16 17  1  0
 17 18  2  0
 17 19  2  0
 17 20  1  0
 20 21  1  0
 21 22  2  0
 22 23  1  0
 23 24  2  0
 24 25  1  0
 24 26  1  0
 26 27  2  0
 16 28  2  0
  8 29  2  0
 29  4  1  0
 28 12  1  0
 27 21  1  0
  5 30  1  0
  6 31  1  0
  7 32  1  0
 11 33  1  0
 13 34  1  0
 14 35  1  0
 15 36  1  0
 22 37  1  0
 23 38  1  0
 26 39  1  0
 27 40  1  0
 28 41  1  0
 29 42  1  0
M  CHG  3   3  -1  20  -1  25  -1
M  END
>  <UniqueID>  (84) 
79

>  <SMILES>  (84) 
O=C([O-])c1cccc(C(=O)Nc2cccc(S(=O)(=O)[N-]c3ccc([O-])cc3)c2)c1

>  <Energy>  (84) 
54.57546718660319

>  <Genealogy>  (84) 
O=C([O-])c1cccc(C(=O)Nc2cccc(S(=O)(=O)[N-]c3ccc([O-])cc3)c2)c1 (protonated)
O=C([O-])c1cccc(C(=O)Nc2cccc(S(=O)(=O)[N-]c3ccc([O-])cc3)c2)c1 (3D coordinates assigned)
O=C([O-])c1cccc(C(=O)Nc2cccc(S(=O)(=O)[N-]c3ccc([O-])cc3)c2)c1 (optimized conformer: 54.57546718660319 kcal/mol)

>  <smiles>  (84) 
O=C(O)c1cccc(C(=O)Nc2cccc(S(=O)(=O)Nc3ccc(O)cc3)c2)c1

>  <score_type>  (84) 
oracle

>  <origin>  (84) 
adg

>  <m_score__min__energy>  (84) 
-17.09

>  <m_primary>  (84) 
energy

$$$$
84:0
     RDKit          3D

 45 47  0  0  0  0  0  0  0  0999 V2000
   55.6390   25.0420   46.4190 N   0  0  0  0  0  0  0  0  0  0  0  0
   56.4890   25.8240   46.3600 C   0  0  0  0  0  0  0  0  0  0  0  0
   57.5470   26.7980   46.2860 C   0  0  0  0  0  0  0  0  0  0  0  0
   57.3710   27.9690   45.5400 C   0  0  0  0  0  0  0  0  0  0  0  0
   58.3960   28.9160   45.4720 C   0  0  0  0  0  0  0  0  0  0  0  0
   59.6080   28.7050   46.1530 C   0  0  0  0  0  0  0  0  0  0  0  0
   60.7090   29.7410   46.0810 C   0  0  0  0  0  0  0  0  0  0  0  0
   61.1220   30.2410   47.4190 N   0  0  0  0  0  0  0  0  0  0  0  0
   60.0520   30.1460   48.4440 C   0  0  0  0  0  0  0  0  0  0  0  0
   58.8380   31.0250   48.0990 C   0  0  0  0  0  0  0  0  0  0  0  0
   59.2540   32.2330   47.3850 N   0  0  0  0  0  0  0  0  0  0  0  0
   58.2550   33.0390   46.7430 C   0  0  0  0  0  0  0  0  0  0  0  0
   57.1720   33.2840   47.3400 O   0  0  0  0  0  0  0  0  0  0  0  0
   58.4310   33.4990   45.3260 C   0  0  0  0  0  0  0  0  0  0  0  0
   57.8440   32.4840   44.3900 C   0  0  0  0  0  0  0  0  0  0  0  0
   58.1440   32.5130   43.0200 C   0  0  0  0  0  0  0  0  0  0  0  0
   57.5360   31.5880   42.1680 C   0  0  0  0  0  0  0  0  0  0  0  0
   56.6350   30.6550   42.6820 C   0  0  0  0  0  0  0  0  0  0  0  0
   56.3540   30.6610   44.0500 C   0  0  0  0  0  0  0  0  0  0  0  0
   56.9560   31.5680   44.8640 N   0  0  0  0  0  0  0  0  0  0  0  0
   60.6170   32.7360   47.5660 C   0  0  0  0  0  0  0  0  0  0  0  0
   61.6650   31.6240   47.3320 C   0  0  0  0  0  0  0  0  0  0  0  0
   59.7830   27.5200   46.8920 C   0  0  0  0  0  0  0  0  0  0  0  0
   60.9510   27.2730   47.5360 F   0  0  0  0  0  0  0  0  0  0  0  0
   58.7550   26.5740   46.9590 C   0  0  0  0  0  0  0  0  0  0  0  0
   56.4249   28.1439   45.0068 H   0  0  0  0  0  0  0  0  0  0  0  0
   58.2539   29.8331   44.8815 H   0  0  0  0  0  0  0  0  0  0  0  0
   61.5837   29.2899   45.5896 H   0  0  0  0  0  0  0  0  0  0  0  0
   60.3181   30.5990   45.5144 H   0  0  0  0  0  0  0  0  0  0  0  0
   61.9080   29.6310   47.7480 H   0  0  0  0  0  0  0  0  0  0  0  0
   59.7224   29.0990   48.5161 H   0  0  0  0  0  0  0  0  0  0  0  0
   60.4663   30.5017   49.3989 H   0  0  0  0  0  0  0  0  0  0  0  0
   58.1468   30.4514   47.4640 H   0  0  0  0  0  0  0  0  0  0  0  0
   58.3425   31.3229   49.0348 H   0  0  0  0  0  0  0  0  0  0  0  0
   57.9195   34.4630   45.1880 H   0  0  0  0  0  0  0  0  0  0  0  0
   59.5033   33.6166   45.1110 H   0  0  0  0  0  0  0  0  0  0  0  0
   58.8503   33.2560   42.6210 H   0  0  0  0  0  0  0  0  0  0  0  0
   57.7674   31.5952   41.0926 H   0  0  0  0  0  0  0  0  0  0  0  0
   56.1517   29.9234   42.0177 H   0  0  0  0  0  0  0  0  0  0  0  0
   55.6453   29.9315   44.4689 H   0  0  0  0  0  0  0  0  0  0  0  0
   60.7952   33.5520   46.8502 H   0  0  0  0  0  0  0  0  0  0  0  0
   60.7187   33.0949   48.6008 H   0  0  0  0  0  0  0  0  0  0  0  0
   62.0957   31.7623   46.3293 H   0  0  0  0  0  0  0  0  0  0  0  0
   62.4104   31.7203   48.1352 H   0  0  0  0  0  0  0  0  0  0  0  0
   58.8954   25.6516   47.5417 H   0  0  0  0  0  0  0  0  0  0  0  0
  1  2  3  0
  2  3  1  0
  3  4  2  0
  4  5  1  0
  5  6  2  0
  6  7  1  0
  7  8  1  0
  8  9  1  0
  9 10  1  0
 10 11  1  0
 11 12  1  0
 12 13  2  0
 12 14  1  0
 14 15  1  0
 15 16  2  0
 16 17  1  0
 17 18  2  0
 18 19  1  0
 19 20  2  0
 11 21  1  0
 21 22  1  0
  6 23  1  0
 23 24  1  0
 23 25  2  0
 25  3  1  0
 22  8  1  0
 20 15  1  0
  4 26  1  0
  5 27  1  0
  7 28  1  0
  7 29  1  0
  8 30  1  0
  9 31  1  0
  9 32  1  0
 10 33  1  0
 10 34  1  0
 14 35  1  0
 14 36  1  0
 16 37  1  0
 17 38  1  0
 18 39  1  0
 19 40  1  0
 21 41  1  0
 21 42  1  0
 22 43  1  0
 22 44  1  0
 25 45  1  0
M  CHG  1   8   1
M  END
>  <UniqueID>  (85) 
80

>  <SMILES>  (85) 
N#Cc1ccc(C[NH+]2CCN(C(=O)Cc3ccccn3)CC2)c(F)c1

>  <Energy>  (85) 
56.2805456355513

>  <Genealogy>  (85) 
N#Cc1ccc(C[NH+]2CCN(C(=O)Cc3ccccn3)CC2)c(F)c1 (protonated)
N#Cc1ccc(C[NH+]2CCN(C(=O)Cc3ccccn3)CC2)c(F)c1 (3D coordinates assigned)
N#Cc1ccc(C[NH+]2CCN(C(=O)Cc3ccccn3)CC2)c(F)c1 (nonaromatic ring conformer: 56.2805456355513 kcal/mol)

>  <smiles>  (85) 
N#Cc1ccc(CN2CCN(C(=O)Cc3ccccn3)CC2)c(F)c1

>  <score_type>  (85) 
oracle

>  <origin>  (85) 
adg

>  <m_score__min__energy>  (85) 
-6.4199999999999999

>  <m_primary>  (85) 
energy

$$$$
85:0
     RDKit          3D

 50 52  0  0  0  0  0  0  0  0999 V2000
   59.5740   31.3400   50.7310 O   0  0  0  0  0  0  0  0  0  0  0  0
   59.3130   30.1160   50.8620 C   0  0  0  0  0  0  0  0  0  0  0  0
   58.1190   29.7120   51.6810 C   0  0  0  0  0  0  0  0  0  0  0  0
   56.9320   30.2520   51.1050 O   0  0  0  0  0  0  0  0  0  0  0  0
   55.8470   30.6990   51.8670 C   0  0  0  0  0  0  0  0  0  0  0  0
   55.8840   31.8160   52.4510 O   0  0  0  0  0  0  0  0  0  0  0  0
   54.6570   29.8110   52.0370 C   0  0  0  0  0  0  0  0  0  0  0  0
   53.4050   30.6450   52.0660 C   0  0  0  0  0  0  0  0  0  0  0  0
   52.6980   30.8180   53.2670 C   0  0  0  0  0  0  0  0  0  0  0  0
   51.5630   31.6320   53.3040 C   0  0  0  0  0  0  0  0  0  0  0  0
   51.1330   32.2920   52.1480 C   0  0  0  0  0  0  0  0  0  0  0  0
   50.0080   33.1060   52.1940 O   0  0  0  0  0  0  0  0  0  0  0  0
   51.8390   32.1330   50.9490 C   0  0  0  0  0  0  0  0  0  0  0  0
   51.4210   32.7910   49.7990 O   0  0  0  0  0  0  0  0  0  0  0  0
   52.9740   31.3150   50.9090 C   0  0  0  0  0  0  0  0  0  0  0  0
   60.0930   29.1610   50.1320 N   0  0  0  0  0  0  0  0  0  0  0  0
   59.7540   28.6020   48.8570 C   0  0  0  0  0  0  0  0  0  0  0  0
   59.2050   29.4380   47.8760 C   0  0  0  0  0  0  0  0  0  0  0  0
   58.8770   28.9340   46.6110 C   0  0  0  0  0  0  0  0  0  0  0  0
   58.1730   29.9930   45.3850 S   0  0  0  0  0  0  0  0  0  0  0  0
   58.4650   29.4330   44.0210 O   0  0  0  0  0  0  0  0  0  0  0  0
   56.6790   30.0320   45.5620 O   0  0  0  0  0  0  0  0  0  0  0  0
   58.8130   31.6170   45.4910 N   0  0  0  0  0  0  0  0  0  0  0  0
   58.3720   32.4210   44.3350 C   0  0  0  0  0  0  0  0  0  0  0  0
   58.4880   33.9230   44.6440 C   0  0  0  0  0  0  0  0  0  0  0  0
   57.7080   34.3490   45.7560 O   0  0  0  0  0  0  0  0  0  0  0  0
   57.3840   33.3060   46.6640 C   0  0  0  0  0  0  0  0  0  0  0  0
   58.4950   32.2470   46.7910 C   0  0  0  0  0  0  0  0  0  0  0  0
   59.1090   27.5810   46.3270 C   0  0  0  0  0  0  0  0  0  0  0  0
   59.6870   26.7490   47.2890 C   0  0  0  0  0  0  0  0  0  0  0  0
   60.0240   27.2560   48.5480 C   0  0  0  0  0  0  0  0  0  0  0  0
   60.6390   26.4230   49.4750 O   0  0  0  0  0  0  0  0  0  0  0  0
   58.0468   28.6146   51.7043 H   0  0  0  0  0  0  0  0  0  0  0  0
   58.2337   30.0983   52.7045 H   0  0  0  0  0  0  0  0  0  0  0  0
   54.6057   29.1028   51.1969 H   0  0  0  0  0  0  0  0  0  0  0  0
   54.7478   29.2554   52.9820 H   0  0  0  0  0  0  0  0  0  0  0  0
   53.0389   30.3109   54.1817 H   0  0  0  0  0  0  0  0  0  0  0  0
   51.0061   31.7542   54.2447 H   0  0  0  0  0  0  0  0  0  0  0  0
   53.5308   31.1963   49.9678 H   0  0  0  0  0  0  0  0  0  0  0  0
   59.0299   30.5003   48.1013 H   0  0  0  0  0  0  0  0  0  0  0  0
   59.0025   32.1810   43.4662 H   0  0  0  0  0  0  0  0  0  0  0  0
   57.3198   32.1838   44.1190 H   0  0  0  0  0  0  0  0  0  0  0  0
   59.5432   34.1521   44.8540 H   0  0  0  0  0  0  0  0  0  0  0  0
   58.1044   34.4588   43.7633 H   0  0  0  0  0  0  0  0  0  0  0  0
   57.2069   33.7479   47.6556 H   0  0  0  0  0  0  0  0  0  0  0  0
   56.4902   32.7976   46.2733 H   0  0  0  0  0  0  0  0  0  0  0  0
   59.4024   32.7298   47.1828 H   0  0  0  0  0  0  0  0  0  0  0  0
   58.1371   31.4598   47.4709 H   0  0  0  0  0  0  0  0  0  0  0  0
   58.8349   27.1729   45.3430 H   0  0  0  0  0  0  0  0  0  0  0  0
   59.8777   25.6912   47.0553 H   0  0  0  0  0  0  0  0  0  0  0  0
  1  2  2  0
  2  3  1  0
  3  4  1  0
  4  5  1  0
  5  6  2  0
  5  7  1  0
  7  8  1  0
  8  9  2  0
  9 10  1  0
 10 11  2  0
 11 12  1  0
 11 13  1  0
 13 14  1  0
 13 15  2  0
  2 16  1  0
 16 17  1  0
 17 18  2  0
 18 19  1  0
 19 20  1  0
 20 21  2  0
 20 22  2  0
 20 23  1  0
 23 24  1  0
 24 25  1  0
 25 26  1  0
 26 27  1  0
 27 28  1  0
 19 29  2  0
 29 30  1  0
 30 31  2  0
 31 32  1  0
 15  8  1  0
 31 17  1  0
 28 23  1  0
  3 33  1  0
  3 34  1  0
  7 35  1  0
  7 36  1  0
  9 37  1  0
 10 38  1  0
 15 39  1  0
 18 40  1  0
 24 41  1  0
 24 42  1  0
 25 43  1  0
 25 44  1  0
 27 45  1  0
 27 46  1  0
 28 47  1  0
 28 48  1  0
 29 49  1  0
 30 50  1  0
M  CHG  4  12  -1  14  -1  16  -1  32  -1
M  END
>  <UniqueID>  (86) 
81

>  <SMILES>  (86) 
O=C(COC(=O)Cc1ccc([O-])c([O-])c1)[N-]c1cc(S(=O)(=O)N2CCOCC2)ccc1[O-]

>  <Energy>  (86) 
65.30674295741765

>  <Genealogy>  (86) 
O=C(COC(=O)Cc1ccc([O-])c([O-])c1)[N-]c1cc(S(=O)(=O)N2CCOCC2)ccc1[O-] (protonated)
O=C(COC(=O)Cc1ccc([O-])c([O-])c1)[N-]c1cc(S(=O)(=O)N2CCOCC2)ccc1[O-] (3D coordinates assigned)
O=C(COC(=O)Cc1ccc([O-])c([O-])c1)[N-]c1cc(S(=O)(=O)N2CCOCC2)ccc1[O-] (nonaromatic ring conformer: 65.30674295741765 kcal/mol)

>  <smiles>  (86) 
O=C(COC(=O)Cc1ccc(O)c(O)c1)Nc1cc(S(=O)(=O)N2CCOCC2)ccc1O

>  <score_type>  (86) 
oracle

>  <origin>  (86) 
adg

>  <m_score__min__energy>  (86) 
-20.219999999999999

>  <m_primary>  (86) 
energy

$$$$
86:0
     RDKit          3D

 63 66  0  0  0  0  0  0  0  0999 V2000
   55.7820   28.9350   45.2470 O   0  0  0  0  0  0  0  0  0  0  0  0
   56.7660   29.7180   45.1430 C   0  0  0  0  0  0  0  0  0  0  0  0
   58.1490   29.2080   45.3960 C   0  0  0  0  0  0  0  0  0  0  0  0
   58.3820   29.0820   46.7970 O   0  0  0  0  0  0  0  0  0  0  0  0
   59.6380   29.2780   47.3900 C   0  0  0  0  0  0  0  0  0  0  0  0
   60.5880   29.7440   46.7030 O   0  0  0  0  0  0  0  0  0  0  0  0
   59.8350   28.9350   48.8230 C   0  0  0  0  0  0  0  0  0  0  0  0
   60.8230   28.0050   49.1750 C   0  0  0  0  0  0  0  0  0  0  0  0
   61.0290   27.6680   50.5060 C   0  0  0  0  0  0  0  0  0  0  0  0
   60.2470   28.2590   51.4940 C   0  0  0  0  0  0  0  0  0  0  0  0
   59.2770   29.1660   51.1690 N   0  0  0  0  0  0  0  0  0  0  0  0
   58.4880   29.7820   52.2520 C   0  0  0  0  0  0  0  0  0  0  0  0
   58.6980   31.2760   52.2780 C   0  0  0  0  0  0  0  0  0  0  0  0
   60.0000   31.8070   52.2930 C   0  0  0  0  0  0  0  0  0  0  0  0
   60.2000   33.1890   52.3420 C   0  0  0  0  0  0  0  0  0  0  0  0
   59.1040   34.0550   52.3800 C   0  0  0  0  0  0  0  0  0  0  0  0
   57.8060   33.5380   52.3680 C   0  0  0  0  0  0  0  0  0  0  0  0
   57.5990   32.1560   52.3170 C   0  0  0  0  0  0  0  0  0  0  0  0
   56.3280   31.6790   52.2980 F   0  0  0  0  0  0  0  0  0  0  0  0
   59.0580   29.5130   49.8560 C   0  0  0  0  0  0  0  0  0  0  0  0
   58.1550   30.3480   49.5700 O   0  0  0  0  0  0  0  0  0  0  0  0
   56.5710   31.1060   44.8480 N   0  0  0  0  0  0  0  0  0  0  0  0
   57.4790   32.1740   45.1530 C   0  0  0  0  0  0  0  0  0  0  0  0
   57.8020   33.1670   44.2110 C   0  0  0  0  0  0  0  0  0  0  0  0
   58.7100   34.1780   44.5390 C   0  0  0  0  0  0  0  0  0  0  0  0
   59.3130   34.1980   45.8000 C   0  0  0  0  0  0  0  0  0  0  0  0
   59.0200   33.1970   46.7360 C   0  0  0  0  0  0  0  0  0  0  0  0
   59.7710   33.2090   48.3310 S   0  0  0  0  0  0  0  0  0  0  0  0
   60.2400   34.6070   48.6250 O   0  0  0  0  0  0  0  0  0  0  0  0
   58.7560   32.8160   49.3680 O   0  0  0  0  0  0  0  0  0  0  0  0
   61.1250   32.0980   48.3410 N   0  0  0  0  0  0  0  0  0  0  0  0
   61.9120   32.2040   49.6030 C   0  0  0  0  0  0  0  0  0  0  0  0
   63.3590   32.6890   49.4060 C   0  0  0  0  0  0  0  0  0  0  0  0
   63.4050   33.8670   48.4360 C   0  0  0  0  0  0  0  0  0  0  0  0
   62.7790   33.5170   47.0750 C   0  0  0  0  0  0  0  0  0  0  0  0
   61.9350   32.2280   47.1090 C   0  0  0  0  0  0  0  0  0  0  0  0
   58.1050   32.1870   46.4060 C   0  0  0  0  0  0  0  0  0  0  0  0
   58.2656   28.2237   44.9189 H   0  0  0  0  0  0  0  0  0  0  0  0
   58.8749   29.9194   44.9754 H   0  0  0  0  0  0  0  0  0  0  0  0
   61.4390   27.5392   48.3917 H   0  0  0  0  0  0  0  0  0  0  0  0
   61.8057   26.9382   50.7781 H   0  0  0  0  0  0  0  0  0  0  0  0
   60.4113   27.9933   52.5487 H   0  0  0  0  0  0  0  0  0  0  0  0
   57.4212   29.5696   52.0880 H   0  0  0  0  0  0  0  0  0  0  0  0
   58.8162   29.3608   53.2137 H   0  0  0  0  0  0  0  0  0  0  0  0
   60.8666   31.1300   52.2660 H   0  0  0  0  0  0  0  0  0  0  0  0
   61.2219   33.5959   52.3507 H   0  0  0  0  0  0  0  0  0  0  0  0
   59.2630   35.1427   52.4193 H   0  0  0  0  0  0  0  0  0  0  0  0
   56.9439   34.2205   52.3988 H   0  0  0  0  0  0  0  0  0  0  0  0
   57.3389   33.1481   43.2134 H   0  0  0  0  0  0  0  0  0  0  0  0
   58.9505   34.9595   43.8032 H   0  0  0  0  0  0  0  0  0  0  0  0
   60.0190   35.0011   46.0581 H   0  0  0  0  0  0  0  0  0  0  0  0
   60.6990   31.1420   48.3140 H   0  0  0  0  0  0  0  0  0  0  0  0
   61.3990   32.9117   50.2709 H   0  0  0  0  0  0  0  0  0  0  0  0
   61.9735   31.1892   50.0230 H   0  0  0  0  0  0  0  0  0  0  0  0
   63.7697   33.0040   50.3766 H   0  0  0  0  0  0  0  0  0  0  0  0
   63.9553   31.8639   48.9894 H   0  0  0  0  0  0  0  0  0  0  0  0
   62.8519   34.7104   48.8750 H   0  0  0  0  0  0  0  0  0  0  0  0
   64.4603   34.1279   48.2678 H   0  0  0  0  0  0  0  0  0  0  0  0
   62.1323   34.3503   46.7629 H   0  0  0  0  0  0  0  0  0  0  0  0
   63.6052   33.3485   46.3686 H   0  0  0  0  0  0  0  0  0  0  0  0
   61.2571   32.2302   46.2427 H   0  0  0  0  0  0  0  0  0  0  0  0
   62.6325   31.3778   47.0832 H   0  0  0  0  0  0  0  0  0  0  0  0
   57.8768   31.3979   47.1376 H   0  0  0  0  0  0  0  0  0  0  0  0
  1  2  2  0
  2  3  1  0
  3  4  1  0
  4  5  1  0
  5  6  2  0
  5  7  1  0
  7  8  2  0
  8  9  1  0
  9 10  2  0
 10 11  1  0
 11 12  1  0
 12 13  1  0
 13 14  2  0
 14 15  1  0
 15 16  2  0
 16 17  1  0
 17 18  2  0
 18 19  1  0
 11 20  1  0
 20 21  2  0
  2 22  1  0
 22 23  1  0
 23 24  2  0
 24 25  1  0
 25 26  2  0
 26 27  1  0
 27 28  1  0
 28 29  2  0
 28 30  2  0
 28 31  1  0
 31 32  1  0
 32 33  1  0
 33 34  1  0
 34 35  1  0
 35 36  1  0
 27 37  2  0
 20  7  1  0
 37 23  1  0
 18 13  1  0
 36 31  1  0
  3 38  1  0
  3 39  1  0
  8 40  1  0
  9 41  1  0
 10 42  1  0
 12 43  1  0
 12 44  1  0
 14 45  1  0
 15 46  1  0
 16 47  1  0
 17 48  1  0
 24 49  1  0
 25 50  1  0
 26 51  1  0
 31 52  1  0
 32 53  1  0
 32 54  1  0
 33 55  1  0
 33 56  1  0
 34 57  1  0
 34 58  1  0
 35 59  1  0
 35 60  1  0
 36 61  1  0
 36 62  1  0
 37 63  1  0
M  CHG  2  22  -1  31   1
M  END
>  <UniqueID>  (87) 
82

>  <SMILES>  (87) 
O=C(COC(=O)c1cccn(Cc2ccccc2F)c1=O)[N-]c1cccc(S(=O)(=O)[NH+]2CCCCC2)c1

>  <Energy>  (87) 
78.66034786856362

>  <Genealogy>  (87) 
O=C(COC(=O)c1cccn(Cc2ccccc2F)c1=O)[N-]c1cccc(S(=O)(=O)[NH+]2CCCCC2)c1 (protonated)
O=C(COC(=O)c1cccn(Cc2ccccc2F)c1=O)[N-]c1cccc(S(=O)(=O)[NH+]2CCCCC2)c1 (3D coordinates assigned)
O=C(COC(=O)c1cccn(Cc2ccccc2F)c1=O)[N-]c1cccc(S(=O)(=O)[NH+]2CCCCC2)c1 (nonaromatic ring conformer: 78.66034786856362 kcal/mol)

>  <smiles>  (87) 
O=C(COC(=O)c1cccn(Cc2ccccc2F)c1=O)Nc1cccc(S(=O)(=O)N2CCCCC2)c1

>  <score_type>  (87) 
oracle

>  <origin>  (87) 
adg

>  <m_score__min__energy>  (87) 
-10.140000000000001

>  <m_primary>  (87) 
energy

$$$$
87:0
     RDKit          3D

 42 45  0  0  0  0  0  0  0  0999 V2000
   57.4080   32.2050   41.8470 C   0  0  0  0  0  0  0  0  0  0  0  0
   57.6540   31.6310   43.2070 C   0  0  0  0  0  0  0  0  0  0  0  0
   57.7090   30.2900   43.3600 N   0  0  0  0  0  0  0  0  0  0  0  0
   57.9580   29.7190   44.5610 C   0  0  0  0  0  0  0  0  0  0  0  0
   57.9430   28.2770   44.6150 C   0  0  0  0  0  0  0  0  0  0  0  0
   57.9410   27.0720   44.6690 C   0  0  0  0  0  0  0  0  0  0  0  0
   57.9490   25.6370   44.7490 C   0  0  0  0  0  0  0  0  0  0  0  0
   57.2510   24.8180   43.8510 C   0  0  0  0  0  0  0  0  0  0  0  0
   57.4210   23.4630   44.0970 C   0  0  0  0  0  0  0  0  0  0  0  0
   58.4380   23.2960   45.4280 S   0  0  0  0  0  0  0  0  0  0  0  0
   58.6730   24.9380   45.7080 C   0  0  0  0  0  0  0  0  0  0  0  0
   58.1860   30.5410   45.6980 C   0  0  0  0  0  0  0  0  0  0  0  0
   58.4660   30.0360   46.9850 C   0  0  0  0  0  0  0  0  0  0  0  0
   58.5660   28.7910   47.1710 O   0  0  0  0  0  0  0  0  0  0  0  0
   58.6370   30.8890   48.0380 N   0  0  0  0  0  0  0  0  0  0  0  0
   58.9320   30.3760   49.3900 C   0  0  0  0  0  0  0  0  0  0  0  0
   58.5560   32.2430   47.8550 C   0  0  0  0  0  0  0  0  0  0  0  0
   58.7000   33.0060   48.8530 O   0  0  0  0  0  0  0  0  0  0  0  0
   58.3220   32.7790   46.6100 N   0  0  0  0  0  0  0  0  0  0  0  0
   58.2310   34.2540   46.4780 C   0  0  0  0  0  0  0  0  0  0  0  0
   59.6280   34.8490   46.2330 C   0  0  0  0  0  0  0  0  0  0  0  0
   60.6450   34.5830   47.3330 C   0  0  0  0  0  0  0  0  0  0  0  0
   60.7460   33.8420   46.0080 C   0  0  0  0  0  0  0  0  0  0  0  0
   58.1260   31.9450   45.5270 C   0  0  0  0  0  0  0  0  0  0  0  0
   57.8650   32.4470   44.2750 N   0  0  0  0  0  0  0  0  0  0  0  0
   56.9765   33.2119   41.9466 H   0  0  0  0  0  0  0  0  0  0  0  0
   58.3589   32.2663   41.2974 H   0  0  0  0  0  0  0  0  0  0  0  0
   56.7078   31.5587   41.2974 H   0  0  0  0  0  0  0  0  0  0  0  0
   56.6299   25.2105   43.0323 H   0  0  0  0  0  0  0  0  0  0  0  0
   56.9697   22.6409   43.5222 H   0  0  0  0  0  0  0  0  0  0  0  0
   59.2885   25.3790   46.5059 H   0  0  0  0  0  0  0  0  0  0  0  0
   58.5317   31.0722   50.1417 H   0  0  0  0  0  0  0  0  0  0  0  0
   58.4635   29.3890   49.5180 H   0  0  0  0  0  0  0  0  0  0  0  0
   60.0207   30.2845   49.5180 H   0  0  0  0  0  0  0  0  0  0  0  0
   57.5753   34.5039   45.6309 H   0  0  0  0  0  0  0  0  0  0  0  0
   57.8181   34.6742   47.4070 H   0  0  0  0  0  0  0  0  0  0  0  0
   59.2675   35.7401   45.6982 H   0  0  0  0  0  0  0  0  0  0  0  0
   61.3888   35.3510   47.5918 H   0  0  0  0  0  0  0  0  0  0  0  0
   60.5873   34.2828   48.3897 H   0  0  0  0  0  0  0  0  0  0  0  0
   61.5629   34.0742   45.3089 H   0  0  0  0  0  0  0  0  0  0  0  0
   60.7916   32.7841   45.7100 H   0  0  0  0  0  0  0  0  0  0  0  0
   57.8110   33.4700   44.0910 H   0  0  0  0  0  0  0  0  0  0  0  0
  1  2  1  0
  2  3  2  0
  3  4  1  0
  4  5  1  0
  5  6  3  0
  6  7  1  0
  7  8  1  0
  8  9  2  0
  9 10  1  0
 10 11  1  0
  4 12  2  0
 12 13  1  0
 13 14  2  0
 13 15  1  0
 15 16  1  0
 15 17  1  0
 17 18  2  0
 17 19  1  0
 19 20  1  0
 20 21  1  0
 21 22  1  0
 22 23  1  0
 19 24  1  0
 24 25  2  0
 25  2  1  0
 11  7  2  0
 24 12  1  0
 23 21  1  0
  1 26  1  0
  1 27  1  0
  1 28  1  0
  8 29  1  0
  9 30  1  0
 11 31  1  0
 16 32  1  0
 16 33  1  0
 16 34  1  0
 20 35  1  0
 20 36  1  0
 21 37  1  0
 22 38  1  0
 22 39  1  0
 23 40  1  0
 23 41  1  0
 25 42  1  0
M  CHG  1  25   1
M  END
>  <UniqueID>  (88) 
83

>  <SMILES>  (88) 
Cc1nc(C#Cc2ccsc2)c2c(=O)n(C)c(=O)n(CC3CC3)c2[nH+]1

>  <Energy>  (88) 
347.62638837008865

>  <Genealogy>  (88) 
Cc1nc(C#Cc2ccsc2)c2c(=O)n(C)c(=O)n(CC3CC3)c2[nH+]1 (protonated)
Cc1nc(C#Cc2ccsc2)c2c(=O)n(C)c(=O)n(CC3CC3)c2[nH+]1 (3D coordinates assigned)
Cc1nc(C#Cc2ccsc2)c2c(=O)n(C)c(=O)n(CC3CC3)c2[nH+]1 (nonaromatic ring conformer: 347.62638837008865 kcal/mol)

>  <smiles>  (88) 
Cc1nc(C#Cc2ccsc2)c2c(=O)n(C)c(=O)n(CC3CC3)c2n1

>  <score_type>  (88) 
oracle

>  <origin>  (88) 
adg

>  <m_score__min__energy>  (88) 
-5.4199999999999999

>  <m_primary>  (88) 
energy

$$$$
88:0
     RDKit          3D

 50 53  0  0  0  0  0  0  0  0999 V2000
   61.7423   30.2831   46.0077 H   0  0  0  0  0  0  0  0  0  0  0  0
   60.9670   30.2140   46.7850 C   0  0  0  0  0  0  0  0  0  0  0  0
   60.0070   29.2550   46.7040 N   0  0  0  0  0  0  0  0  0  0  0  0
   59.0270   29.1130   47.6370 C   0  0  0  0  0  0  0  0  0  0  0  0
   58.1260   28.1910   47.4280 N   0  0  0  0  0  0  0  0  0  0  0  0
   58.1230   27.1410   46.4520 C   0  0  0  0  0  0  0  0  0  0  0  0
   58.4310   25.9650   46.7840 O   0  0  0  0  0  0  0  0  0  0  0  0
   57.7480   27.4650   45.0340 C   0  0  0  0  0  0  0  0  0  0  0  0
   58.6085   27.2515   44.3829 H   0  0  0  0  0  0  0  0  0  0  0  0
   56.8785   26.8467   44.7661 H   0  0  0  0  0  0  0  0  0  0  0  0
   57.3590   28.9020   44.8630 C   0  0  0  0  0  0  0  0  0  0  0  0
   56.1460   29.3720   45.0420 O   0  0  0  0  0  0  0  0  0  0  0  0
   56.1050   30.6540   44.8130 N   0  0  0  0  0  0  0  0  0  0  0  0
   57.3530   31.0310   44.4680 C   0  0  0  0  0  0  0  0  0  0  0  0
   57.7460   32.4100   44.1210 C   0  0  0  0  0  0  0  0  0  0  0  0
   58.0780   32.6640   42.9280 O   0  0  0  0  0  0  0  0  0  0  0  0
   57.7750   33.4610   45.1190 N   0  0  0  0  0  0  0  0  0  0  0  0
   56.8970   34.0270   45.0450 H   0  0  0  0  0  0  0  0  0  0  0  0
   57.7960   32.8630   46.4760 C   0  0  0  0  0  0  0  0  0  0  0  0
   56.7663   32.6259   46.7817 H   0  0  0  0  0  0  0  0  0  0  0  0
   58.4073   31.9489   46.4493 H   0  0  0  0  0  0  0  0  0  0  0  0
   58.4120   33.8390   47.4930 C   0  0  0  0  0  0  0  0  0  0  0  0
   57.8038   34.7555   47.5064 H   0  0  0  0  0  0  0  0  0  0  0  0
   58.4206   33.3251   48.4655 H   0  0  0  0  0  0  0  0  0  0  0  0
   59.7580   34.1980   47.2020 O   0  0  0  0  0  0  0  0  0  0  0  0
   60.0950   34.1030   45.8230 C   0  0  0  0  0  0  0  0  0  0  0  0
   60.8949   34.8271   45.6090 H   0  0  0  0  0  0  0  0  0  0  0  0
   60.4116   33.0660   45.6372 H   0  0  0  0  0  0  0  0  0  0  0  0
   58.9100   34.3920   44.8810 C   0  0  0  0  0  0  0  0  0  0  0  0
   58.5656   35.4232   45.0482 H   0  0  0  0  0  0  0  0  0  0  0  0
   59.2547   34.2530   43.8457 H   0  0  0  0  0  0  0  0  0  0  0  0
   58.1900   29.9330   44.4840 C   0  0  0  0  0  0  0  0  0  0  0  0
   59.2640   29.8915   44.2500 H   0  0  0  0  0  0  0  0  0  0  0  0
   59.0490   29.9610   48.7810 C   0  0  0  0  0  0  0  0  0  0  0  0
   58.1920   29.7950   49.8730 O   0  0  0  0  0  0  0  0  0  0  0  0
   58.1740   30.6440   50.9910 C   0  0  0  0  0  0  0  0  0  0  0  0
   57.7520   31.9870   50.9090 C   0  0  0  0  0  0  0  0  0  0  0  0
   57.4054   32.3954   49.9482 H   0  0  0  0  0  0  0  0  0  0  0  0
   57.7730   32.8010   52.0460 C   0  0  0  0  0  0  0  0  0  0  0  0
   57.4484   33.8497   51.9766 H   0  0  0  0  0  0  0  0  0  0  0  0
   58.2060   32.2840   53.2710 C   0  0  0  0  0  0  0  0  0  0  0  0
   58.2232   32.9260   54.1641 H   0  0  0  0  0  0  0  0  0  0  0  0
   58.6170   30.9510   53.3600 C   0  0  0  0  0  0  0  0  0  0  0  0
   58.9576   30.5447   54.3238 H   0  0  0  0  0  0  0  0  0  0  0  0
   58.5960   30.1330   52.2260 C   0  0  0  0  0  0  0  0  0  0  0  0
   58.9125   29.0824   52.3037 H   0  0  0  0  0  0  0  0  0  0  0  0
   60.0050   30.9790   48.8490 C   0  0  0  0  0  0  0  0  0  0  0  0
   59.9958   31.6817   49.6952 H   0  0  0  0  0  0  0  0  0  0  0  0
   60.9690   31.1090   47.8520 C   0  0  0  0  0  0  0  0  0  0  0  0
   61.7224   31.9086   47.9067 H   0  0  0  0  0  0  0  0  0  0  0  0
  1  2  1  0
  2  3  1  0
  3  4  1  0
  4  5  2  0
  5  6  1  0
  6  7  2  0
  6  8  1  0
  8  9  1  0
  8 10  1  0
  8 11  1  0
 11 12  1  0
 12 13  1  0
 13 14  2  0
 14 15  1  0
 15 16  2  0
 15 17  1  0
 17 18  1  0
 17 19  1  0
 19 20  1  0
 19 21  1  0
 19 22  1  0
 22 23  1  0
 22 24  1  0
 22 25  1  0
 25 26  1  0
 26 27  1  0
 26 28  1  0
 26 29  1  0
 29 30  1  0
 29 31  1  0
 14 32  1  0
 32 33  1  0
  4 34  1  0
 34 35  1  0
 35 36  1  0
 36 37  2  0
 37 38  1  0
 37 39  1  0
 39 40  1  0
 39 41  2  0
 41 42  1  0
 41 43  1  0
 43 44  1  0
 43 45  2  0
 45 46  1  0
 34 47  2  0
 47 48  1  0
 47 49  1  0
 49 50  1  0
 49  2  2  0
 32 11  2  0
 45 36  1  0
 29 17  1  0
M  CHG  2   3  -1  17   1
M  END
>  <UniqueID>  (89) 
84

>  <SMILES>  (89) 
O=C(Cc1cc(C(=O)[NH+]2CCOCC2)no1)/N=c1/[n-]cccc1Oc1ccccc1

>  <Energy>  (89) 
117.75237857419563

>  <Genealogy>  (89) 
O=C(Cc1cc(C(=O)[NH+]2CCOCC2)no1)N=c1[n-]cccc1Oc1ccccc1 (protonated)
O=C(Cc1cc(C(=O)[NH+]2CCOCC2)no1)/N=c1/[n-]cccc1Oc1ccccc1 (cis-trans isomerization)
O=C(Cc1cc(C(=O)[NH+]2CCOCC2)no1)/N=c1/[n-]cccc1Oc1ccccc1 (3D coordinates assigned)
O=C(Cc1cc(C(=O)[NH+]2CCOCC2)no1)/N=c1/[n-]cccc1Oc1ccccc1 (nonaromatic ring conformer: 117.75237857419563 kcal/mol)

>  <smiles>  (89) 
O=C(Cc1cc(C(=O)N2CCOCC2)no1)N=c1[nH]cccc1Oc1ccccc1

>  <score_type>  (89) 
oracle

>  <origin>  (89) 
adg

>  <m_score__min__energy>  (89) 
-9.5399999999999991

>  <m_primary>  (89) 
energy

$$$$
89:0
     RDKit          3D

 46 48  0  0  0  0  0  0  0  0999 V2000
   60.7360   35.7195   47.5153 H   0  0  0  0  0  0  0  0  0  0  0  0
   59.9700   34.9310   47.4770 C   0  0  0  0  0  0  0  0  0  0  0  0
   59.0900   34.8670   46.3930 C   0  0  0  0  0  0  0  0  0  0  0  0
   59.1631   35.6098   45.5850 H   0  0  0  0  0  0  0  0  0  0  0  0
   58.1110   33.8580   46.3290 C   0  0  0  0  0  0  0  0  0  0  0  0
   57.1380   33.8160   45.2100 C   0  0  0  0  0  0  0  0  0  0  0  0
   56.3790   34.8000   45.0000 O   0  0  0  0  0  0  0  0  0  0  0  0
   57.0810   32.6540   44.3640 N   0  0  0  0  0  0  0  0  0  0  0  0
   57.3990   31.4310   44.6720 C   0  0  0  0  0  0  0  0  0  0  0  0
   56.4580   30.4850   44.8810 N   0  0  0  0  0  0  0  0  0  0  0  0
   57.0130   29.2700   45.1350 C   0  0  0  0  0  0  0  0  0  0  0  0
   56.2450   28.1220   45.3650 O   0  0  0  0  0  0  0  0  0  0  0  0
   56.7610   26.9450   45.9850 C   0  0  0  0  0  0  0  0  0  0  0  0
   57.5003   26.4806   45.3159 H   0  0  0  0  0  0  0  0  0  0  0  0
   57.2292   27.2280   46.9393 H   0  0  0  0  0  0  0  0  0  0  0  0
   55.6650   25.9600   46.2640 C   0  0  0  0  0  0  0  0  0  0  0  0
   55.9320   24.8360   46.7740 O   0  0  0  0  0  0  0  0  0  0  0  0
   54.3450   26.3010   45.9930 O   0  0  0  0  0  0  0  0  0  0  0  0
   58.4050   29.2480   45.1410 C   0  0  0  0  0  0  0  0  0  0  0  0
   59.2670   28.0440   45.3350 C   0  0  0  0  0  0  0  0  0  0  0  0
   59.4002   27.8579   46.4109 H   0  0  0  0  0  0  0  0  0  0  0  0
   58.7876   27.1708   44.8685 H   0  0  0  0  0  0  0  0  0  0  0  0
   60.2481   28.2165   44.8685 H   0  0  0  0  0  0  0  0  0  0  0  0
   58.9650   30.7950   44.7890 S   0  0  0  0  0  0  0  0  0  0  0  0
   58.0410   32.9100   47.3650 C   0  0  0  0  0  0  0  0  0  0  0  0
   57.2915   32.1064   47.3152 H   0  0  0  0  0  0  0  0  0  0  0  0
   58.9160   32.9750   48.4640 C   0  0  0  0  0  0  0  0  0  0  0  0
   58.7700   32.0160   49.5780 C   0  0  0  0  0  0  0  0  0  0  0  0
   58.0520   32.3010   50.5760 O   0  0  0  0  0  0  0  0  0  0  0  0
   59.4200   30.7440   49.5150 N   0  0  0  0  0  0  0  0  0  0  0  0
   60.2030   30.3200   48.3620 C   0  0  0  0  0  0  0  0  0  0  0  0
   60.4076   29.2414   48.4305 H   0  0  0  0  0  0  0  0  0  0  0  0
   59.6440   30.5208   47.4362 H   0  0  0  0  0  0  0  0  0  0  0  0
   61.5020   31.0820   48.3510 C   0  0  0  0  0  0  0  0  0  0  0  0
   62.2340   31.2150   47.1600 C   0  0  0  0  0  0  0  0  0  0  0  0
   61.9185   30.6798   46.2523 H   0  0  0  0  0  0  0  0  0  0  0  0
   63.3650   32.0320   47.1380 C   0  0  0  0  0  0  0  0  0  0  0  0
   63.9505   32.1373   46.2128 H   0  0  0  0  0  0  0  0  0  0  0  0
   63.7520   32.7150   48.2910 C   0  0  0  0  0  0  0  0  0  0  0  0
   64.6433   33.3596   48.2823 H   0  0  0  0  0  0  0  0  0  0  0  0
   62.9970   32.5720   49.4550 C   0  0  0  0  0  0  0  0  0  0  0  0
   63.2935   33.1068   50.3694 H   0  0  0  0  0  0  0  0  0  0  0  0
   61.8930   31.7720   49.4640 N   0  0  0  0  0  0  0  0  0  0  0  0
   61.3300   31.7040   50.3430 H   0  0  0  0  0  0  0  0  0  0  0  0
   59.8800   33.9960   48.5130 C   0  0  0  0  0  0  0  0  0  0  0  0
   60.5668   34.0601   49.3699 H   0  0  0  0  0  0  0  0  0  0  0  0
  1  2  1  0
  2  3  2  0
  3  4  1  0
  3  5  1  0
  5  6  1  0
  6  7  2  0
  6  8  1  0
  8  9  2  0
  9 10  1  0
 10 11  1  0
 11 12  1  0
 12 13  1  0
 13 14  1  0
 13 15  1  0
 13 16  1  0
 16 17  2  0
 16 18  1  0
 11 19  2  0
 19 20  1  0
 20 21  1  0
 20 22  1  0
 20 23  1  0
 19 24  1  0
  5 25  2  0
 25 26  1  0
 25 27  1  0
 27 28  1  0
 28 29  2  0
 28 30  1  0
 30 31  1  0
 31 32  1  0
 31 33  1  0
 31 34  1  0
 34 35  2  0
 35 36  1  0
 35 37  1  0
 37 38  1  0
 37 39  2  0
 39 40  1  0
 39 41  1  0
 41 42  1  0
 41 43  2  0
 43 44  1  0
 27 45  2  0
 45 46  1  0
 45  2  1  0
 24  9  1  0
 43 34  1  0
M  CHG  4  10  -1  18  -1  30  -1  43   1
M  END
>  <UniqueID>  (90) 
85

>  <SMILES>  (90) 
Cc1s/c(=N\C(=O)c2cccc(C(=O)[N-]Cc3cccc[nH+]3)c2)[n-]c1OCC(=O)[O-]

>  <Energy>  (90) 
80.50422504767867

>  <Genealogy>  (90) 
Cc1sc(=NC(=O)c2cccc(C(=O)[N-]Cc3cccc[nH+]3)c2)[n-]c1OCC(=O)[O-] (protonated)
Cc1s/c(=N\C(=O)c2cccc(C(=O)[N-]Cc3cccc[nH+]3)c2)[n-]c1OCC(=O)[O-] (cis-trans isomerization)
Cc1s/c(=N\C(=O)c2cccc(C(=O)[N-]Cc3cccc[nH+]3)c2)[n-]c1OCC(=O)[O-] (3D coordinates assigned)
Cc1s/c(=N\C(=O)c2cccc(C(=O)[N-]Cc3cccc[nH+]3)c2)[n-]c1OCC(=O)[O-] (optimized conformer: 80.50422504767867 kcal/mol)

>  <smiles>  (90) 
Cc1sc(=NC(=O)c2cccc(C(=O)NCc3ccccn3)c2)[nH]c1OCC(=O)O

>  <score_type>  (90) 
oracle

>  <origin>  (90) 
adg

>  <m_score__min__energy>  (90) 
-12.720000000000001

>  <m_primary>  (90) 
energy

$$$$
90:0
     RDKit          3D

 55 58  0  0  0  0  0  0  0  0999 V2000
   56.6370   21.7970   42.9050 C   0  0  0  0  0  0  0  0  0  0  0  0
   56.3490   23.1310   43.5250 C   0  0  0  0  0  0  0  0  0  0  0  0
   57.2550   24.1130   43.6000 C   0  0  0  0  0  0  0  0  0  0  0  0
   58.1610   24.2740   44.7480 C   0  0  0  0  0  0  0  0  0  0  0  0
   58.9960   23.3630   44.9990 O   0  0  0  0  0  0  0  0  0  0  0  0
   58.1090   25.4510   45.5760 N   0  0  0  0  0  0  0  0  0  0  0  0
   58.8670   26.6530   45.2740 C   0  0  0  0  0  0  0  0  0  0  0  0
   58.8340   27.4730   46.5650 C   0  0  2  0  0  0  0  0  0  0  0  0
   58.8930   29.0040   46.3500 C   0  0  0  0  0  0  0  0  0  0  0  0
   60.1510   29.3680   47.0770 C   0  0  0  0  0  0  0  0  0  0  0  0
   60.7000   30.7400   47.2000 C   0  0  0  0  0  0  0  0  0  0  0  0
   61.9870   30.9470   47.7280 C   0  0  0  0  0  0  0  0  0  0  0  0
   62.5020   32.2390   47.8540 C   0  0  0  0  0  0  0  0  0  0  0  0
   61.7440   33.3390   47.4510 C   0  0  0  0  0  0  0  0  0  0  0  0
   60.4630   33.1520   46.9030 C   0  0  0  0  0  0  0  0  0  0  0  0
   59.6490   34.2640   46.5080 N   0  0  0  0  0  0  0  0  0  0  0  0
   59.0560   34.4480   45.2170 C   0  0  0  0  0  0  0  0  0  0  0  0
   59.0770   35.5940   44.6960 O   0  0  0  0  0  0  0  0  0  0  0  0
   58.3690   33.3470   44.5140 C   0  0  0  0  0  0  0  0  0  0  0  0
   58.4890   33.0090   43.1750 C   0  0  0  0  0  0  0  0  0  0  0  0
   57.6890   31.9020   42.9820 C   0  0  0  0  0  0  0  0  0  0  0  0
   57.1130   31.5470   44.1470 N   0  0  0  0  0  0  0  0  0  0  0  0
   56.1470   30.4700   44.3300 C   0  0  0  0  0  0  0  0  0  0  0  0
   57.5140   32.4240   45.0870 C   0  0  0  0  0  0  0  0  0  0  0  0
   59.9420   31.8560   46.7970 C   0  0  0  0  0  0  0  0  0  0  0  0
   60.7250   28.3410   47.6010 N   0  0  0  0  0  0  0  0  0  0  0  0
   59.9990   27.2110   47.3340 O   0  0  0  0  0  0  0  0  0  0  0  0
   57.5910   26.9870   47.3200 C   0  0  0  0  0  0  0  0  0  0  0  0
   57.3680   25.5520   46.8300 C   0  0  1  0  0  0  0  0  0  0  0  0
   55.9050   25.2650   46.6220 C   0  0  0  0  0  0  0  0  0  0  0  0
   55.0650   26.2280   45.9900 N   0  0  0  0  0  0  0  0  0  0  0  0
   55.4140   24.1800   47.0340 O   0  0  0  0  0  0  0  0  0  0  0  0
   56.7980   21.0514   43.6976 H   0  0  0  0  0  0  0  0  0  0  0  0
   55.7843   21.4908   42.2812 H   0  0  0  0  0  0  0  0  0  0  0  0
   57.5401   21.8699   42.2812 H   0  0  0  0  0  0  0  0  0  0  0  0
   55.3455   23.3113   43.9379 H   0  0  0  0  0  0  0  0  0  0  0  0
   57.3253   24.8298   42.7686 H   0  0  0  0  0  0  0  0  0  0  0  0
   59.9025   26.3997   45.0026 H   0  0  0  0  0  0  0  0  0  0  0  0
   58.4454   27.2054   44.4213 H   0  0  0  0  0  0  0  0  0  0  0  0
   58.9609   29.2559   45.2814 H   0  0  0  0  0  0  0  0  0  0  0  0
   58.0010   29.5386   46.7086 H   0  0  0  0  0  0  0  0  0  0  0  0
   62.5925   30.0848   48.0441 H   0  0  0  0  0  0  0  0  0  0  0  0
   63.5082   32.3899   48.2722 H   0  0  0  0  0  0  0  0  0  0  0  0
   62.1499   34.3553   47.5624 H   0  0  0  0  0  0  0  0  0  0  0  0
   59.1003   33.5214   42.4175 H   0  0  0  0  0  0  0  0  0  0  0  0
   57.5432   31.3865   42.0212 H   0  0  0  0  0  0  0  0  0  0  0  0
   55.9910   30.2961   45.4049 H   0  0  0  0  0  0  0  0  0  0  0  0
   55.1921   30.7505   43.8616 H   0  0  0  0  0  0  0  0  0  0  0  0
   56.5293   29.5511   43.8616 H   0  0  0  0  0  0  0  0  0  0  0  0
   57.2094   32.4084   46.1439 H   0  0  0  0  0  0  0  0  0  0  0  0
   58.9291   31.7085   46.3943 H   0  0  0  0  0  0  0  0  0  0  0  0
   57.7671   27.0023   48.4057 H   0  0  0  0  0  0  0  0  0  0  0  0
   56.7168   27.6284   47.1347 H   0  0  0  0  0  0  0  0  0  0  0  0
   57.7156   24.8145   47.5684 H   0  0  0  0  0  0  0  0  0  0  0  0
   54.7510   27.0830   46.5020 H   0  0  0  0  0  0  0  0  0  0  0  0
  1  2  1  0
  2  3  2  3
  3  4  1  0
  4  5  2  0
  4  6  1  0
  6  7  1  0
  7  8  1  0
  8  9  1  0
  9 10  1  0
 10 11  1  0
 11 12  2  0
 12 13  1  0
 13 14  2  0
 14 15  1  0
 15 16  1  0
 16 17  1  0
 17 18  2  0
 17 19  1  0
 19 20  1  0
 20 21  2  0
 21 22  1  0
 22 23  1  0
 22 24  1  0
 15 25  2  0
 10 26  2  0
 26 27  1  0
  8 28  1  0
 28 29  1  0
 29 30  1  0
 30 31  1  0
 30 32  2  0
 29  6  1  0
  8 27  1  1
 25 11  1  0
 24 19  2  0
  1 33  1  0
  1 34  1  0
  1 35  1  0
  2 36  1  0
  3 37  1  0
  7 38  1  0
  7 39  1  0
  9 40  1  0
  9 41  1  0
 12 42  1  0
 13 43  1  0
 14 44  1  0
 20 45  1  0
 21 46  1  0
 23 47  1  0
 23 48  1  0
 23 49  1  0
 24 50  1  0
 25 51  1  0
 28 52  1  0
 28 53  1  0
 29 54  1  1
 31 55  1  0
M  CHG  2  16  -1  31  -1
M  END
>  <UniqueID>  (91) 
86

>  <SMILES>  (91) 
CC=CC(=O)N1C[C@@]2(CC(c3cccc([N-]C(=O)c4ccn(C)c4)c3)=NO2)C[C@H]1C([NH-])=O

>  <Energy>  (91) 
107.71757311820535

>  <Genealogy>  (91) 
CC=CC(=O)N1CC2(CC(c3cccc([N-]C(=O)c4ccn(C)c4)c3)=NO2)CC1C([NH-])=O (protonated)
CC=CC(=O)N1C[C@@]2(CC(c3cccc([N-]C(=O)c4ccn(C)c4)c3)=NO2)C[C@H]1C([NH-])=O (chirality)
CC=CC(=O)N1C[C@@]2(CC(c3cccc([N-]C(=O)c4ccn(C)c4)c3)=NO2)C[C@H]1C([NH-])=O (3D coordinates assigned)
CC=CC(=O)N1C[C@@]2(CC(c3cccc([N-]C(=O)c4ccn(C)c4)c3)=NO2)C[C@H]1C([NH-])=O (nonaromatic ring conformer: 107.71757311820535 kcal/mol)

>  <smiles>  (91) 
CC=CC(=O)N1CC2(CC(c3cccc(NC(=O)c4ccn(C)c4)c3)=NO2)CC1C(N)=O

>  <score_type>  (91) 
oracle

>  <origin>  (91) 
adg

>  <m_score__min__energy>  (91) 
-12.890000000000001

>  <m_primary>  (91) 
energy

$$$$
91:0
     RDKit          3D

 36 37  0  0  0  0  0  0  0  0999 V2000
   59.6590   32.0130   48.7800 C   0  0  0  0  0  0  0  0  0  0  0  0
   59.0490   32.1660   47.4450 N   0  0  0  0  0  0  0  0  0  0  0  0
   58.4830   31.0770   46.8250 C   0  0  0  0  0  0  0  0  0  0  0  0
   58.5050   29.7800   47.4550 N   0  0  0  0  0  0  0  0  0  0  0  0
   57.9000   31.2220   45.5500 C   0  0  0  0  0  0  0  0  0  0  0  0
   57.2280   30.0800   44.8760 C   0  0  0  0  0  0  0  0  0  0  0  0
   55.9690   30.0140   44.8790 O   0  0  0  0  0  0  0  0  0  0  0  0
   58.0090   29.0270   44.1470 C   0  0  0  0  0  0  0  0  0  0  0  0
   59.0910   28.5740   44.9560 O   0  0  0  0  0  0  0  0  0  0  0  0
   59.1350   27.2950   45.5170 C   0  0  0  0  0  0  0  0  0  0  0  0
   60.2360   26.6960   45.6620 O   0  0  0  0  0  0  0  0  0  0  0  0
   57.8850   26.6540   45.9430 C   0  0  0  0  0  0  0  0  0  0  0  0
   57.7830   25.5680   46.7970 C   0  0  0  0  0  0  0  0  0  0  0  0
   56.4320   25.3000   46.9280 C   0  0  0  0  0  0  0  0  0  0  0  0
   55.7870   26.2350   46.1480 C   0  0  0  0  0  0  0  0  0  0  0  0
   54.4100   26.3310   45.9940 O   0  0  0  0  0  0  0  0  0  0  0  0
   56.6630   27.0580   45.5470 N   0  0  0  0  0  0  0  0  0  0  0  0
   57.9330   32.4830   44.9380 C   0  0  0  0  0  0  0  0  0  0  0  0
   57.3810   32.6440   43.8140 O   0  0  0  0  0  0  0  0  0  0  0  0
   58.5350   33.5400   45.5630 N   0  0  0  0  0  0  0  0  0  0  0  0
   58.5450   34.8640   44.9140 C   0  0  0  0  0  0  0  0  0  0  0  0
   59.0540   33.3920   46.8230 C   0  0  0  0  0  0  0  0  0  0  0  0
   59.5370   34.3970   47.4160 O   0  0  0  0  0  0  0  0  0  0  0  0
   58.9006   32.2032   49.5537 H   0  0  0  0  0  0  0  0  0  0  0  0
   60.0471   30.9897   48.8907 H   0  0  0  0  0  0  0  0  0  0  0  0
   60.4841   32.7320   48.8907 H   0  0  0  0  0  0  0  0  0  0  0  0
   58.0360   29.5930   48.3670 H   0  0  0  0  0  0  0  0  0  0  0  0
   59.0160   28.9750   47.0320 H   0  0  0  0  0  0  0  0  0  0  0  0
   57.3481   28.1789   43.9147 H   0  0  0  0  0  0  0  0  0  0  0  0
   58.4092   29.4546   43.2159 H   0  0  0  0  0  0  0  0  0  0  0  0
   58.6118   25.0262   47.2760 H   0  0  0  0  0  0  0  0  0  0  0  0
   55.9685   24.5048   47.5304 H   0  0  0  0  0  0  0  0  0  0  0  0
   56.4340   27.8530   44.9080 H   0  0  0  0  0  0  0  0  0  0  0  0
   58.5509   35.6497   45.6839 H   0  0  0  0  0  0  0  0  0  0  0  0
   59.4439   34.9582   44.2870 H   0  0  0  0  0  0  0  0  0  0  0  0
   57.6476   34.9718   44.2870 H   0  0  0  0  0  0  0  0  0  0  0  0
  1  2  1  0
  2  3  1  0
  3  4  1  0
  3  5  2  0
  5  6  1  0
  6  7  2  0
  6  8  1  0
  8  9  1  0
  9 10  1  0
 10 11  2  0
 10 12  1  0
 12 13  2  0
 13 14  1  0
 14 15  2  0
 15 16  1  0
 15 17  1  0
  5 18  1  0
 18 19  2  0
 18 20  1  0
 20 21  1  0
 20 22  1  0
 22 23  2  0
 22  2  1  0
 17 12  1  0
  1 24  1  0
  1 25  1  0
  1 26  1  0
  4 27  1  0
  4 28  1  0
  8 29  1  0
  8 30  1  0
 13 31  1  0
 14 32  1  0
 17 33  1  0
 21 34  1  0
 21 35  1  0
 21 36  1  0
M  CHG  1  16  -1
M  END
>  <UniqueID>  (92) 
87

>  <SMILES>  (92) 
Cn1c(N)c(C(=O)COC(=O)c2ccc([O-])[nH]2)c(=O)n(C)c1=O

>  <Energy>  (92) 
75.51606356897162

>  <Genealogy>  (92) 
Cn1c(N)c(C(=O)COC(=O)c2ccc([O-])[nH]2)c(=O)n(C)c1=O (protonated)
Cn1c(N)c(C(=O)COC(=O)c2ccc([O-])[nH]2)c(=O)n(C)c1=O (3D coordinates assigned)
Cn1c(N)c(C(=O)COC(=O)c2ccc([O-])[nH]2)c(=O)n(C)c1=O (optimized conformer: 75.51606356897162 kcal/mol)

>  <smiles>  (92) 
Cn1c(N)c(C(=O)COC(=O)c2ccc(O)[nH]2)c(=O)n(C)c1=O

>  <score_type>  (92) 
oracle

>  <origin>  (92) 
adg

>  <m_score__min__energy>  (92) 
-9.8900000000000006

>  <m_primary>  (92) 
energy

$$$$
